data_PCOD8266214
_publ_section_title
;
Structure prediction by ZEFSAII (Michael W. Deem and Ramdas Pophale) SiO2 
 PCOD8266214
Probable space group: C M M M
;
_chemical_formula_sum "Si O2"
_cell_formula_units_Z 96
_cell_length_a 18.718725
_cell_length_b 10.404246
_cell_length_c 28.178953
_cell_angle_alpha 90.000000
_cell_angle_beta 90.000000
_cell_angle_gamma 90.000000
_cell_volume 5487.970004
_symmetry_space_group_name_H-M "C M M M"
_symmetry_group_IT_number 65
_symmetry_cell_setting 'orthorhombic'
loop_
_space_group_symop_operation_xyz
x,y,z
-x,-y,z
x,-y,-z
-x,y,-z
-x,-y,-z
x,y,-z
-x,y,z
x,-y,z
1/2+x,1/2+y,z
1/2-x,1/2-y,z
1/2+x,1/2-y,-z
1/2-x,1/2+y,-z
1/2-x,1/2-y,-z
1/2+x,1/2+y,-z
1/2-x,1/2+y,z
1/2+x,1/2-y,z
loop_
_atom_site_type_symbol
_atom_site_label
_atom_site_fract_x
_atom_site_fract_y
_atom_site_fract_z
Si Si1 0.335370 0.000000 0.195238
Si Si2 0.415169 0.245825 0.350833
Si Si3 0.331593 0.500000 0.199965
Si Si4 0.585281 0.500000 0.298017
Si Si5 0.583120 0.353199 0.053789
Si Si6 0.333017 0.253221 0.138369
Si Si7 0.584972 0.854489 0.551710
Si Si8 0.915088 0.500000 0.706927
O O1 0.252669 0.000000 0.210889
O O2 0.356217 0.875669 0.164901
O O3 0.383892 0.000000 0.241031
O O4 0.500000 0.244357 0.351272
O O5 0.387555 0.377091 0.327612
O O6 0.385979 0.233871 0.405109
O O7 0.386625 0.125722 0.320418
O O8 0.376232 0.500000 0.247885
O O9 0.353950 0.374257 0.170779
O O10 0.500000 0.500000 0.290211
O O11 0.500000 0.341294 0.065517
O O12 0.608580 0.500000 0.060984
O O13 0.625857 0.259812 0.088638
O O14 0.598733 0.309056 0.000000
O O15 0.250000 0.250000 0.126173
O O16 0.611606 0.802898 0.500000
O O17 0.500000 0.854544 0.552629
O O18 0.612194 0.000000 0.559498
O O19 0.000000 0.500000 0.710343
#
# Coordination Sequence:
#
# PCOD8266214 Si02
#       8
#     8  16   8   8  16  16  16   8
#     4  10  22  34  49  74 101 130 164 204 251 292
#     4   9  16  27  41  63  92 120 153 196 241 285
#     4  10  20  36  51  68  97 132 170 206 241 292
#     4  10  20  30  45  67  93 124 160 203 247 288
#     4   9  18  34  57  82 105 133 171 209 242 288
#     4  10  20  35  54  75 102 133 166 208 251 293
#     4   8  12  20  37  59  85 120 155 187 233 292
#     4  10  18  30  47  65  91 124 156 193 237 288
#
# _framework density 17.492806000000002
#
# number of rings (size 3 to 8) (size 9 to 14) (size 15 to 20)
#    0.000    2.667    1.667    2.000    0.000    1.667 
#    0.000    0.833    0.000    3.500    0.000    0.000 
#    0.000    4.000    0.000    0.000    0.000    0.000 
#
# Total GULP energy -595059.508332 kJ/mol
# GULP energy per Si atom -12397.073090 kJ/mol
# Density = 1.745299 g / cm^3
# Si number density = 17.492806 Si / 1000 Ang^3
#
#
#
# Elastic Constant Matrix: (Units=GPa)
#
#
# Indices 1 2 3 4 5 6 
#
# 1 27.0309 27.8218 47.4633 0.0000 0.0000 0.0000
# 2 27.8218 137.6765 82.1947 0.0000 0.0000 0.0000
# 3 47.4633 82.1947 172.3022 0.0000 0.0000 0.0000
# 4 0.0000 0.0000 0.0000 23.8758 0.0000 0.0000
# 5 0.0000 0.0000 0.0000 0.0000 -3.9380 0.0000
# 6 0.0000 0.0000 0.0000 0.0000 0.0000 6.0959
#
#
#
# Elastic Compliance Matrix: (Units=1/GPa)
#
#
# Indices 1 2 3 4 5 6 
#
# 1 0.073079 -0.003844 -0.018297 0.000000 0.000000 0.000000
# 2 -0.003844 0.010358 -0.003882 0.000000 0.000000 0.000000
# 3 -0.018297 -0.003882 0.012696 0.000000 0.000000 0.000000
# 4 0.000000 0.000000 0.000000 0.041883 0.000000 0.000000
# 5 0.000000 0.000000 0.000000 0.000000 -0.253937 0.000000
# 6 0.000000 0.000000 0.000000 0.000000 0.000000 0.164044
#
#
# Mechanical properties :
#
#
# Convention : Reuss Voigt Hill
#
# Bulk Modulus (GPa) = 22.68297 72.44104 47.56200
# Shear Modulus (GPa) = 43.52915 17.17540 30.35227
#
# Velocity S-wave (km/s) = 4.99380 3.13686 4.17001
# Velocity P-wave (km/s) = 6.80043 7.39064 7.10167
#
# Compressibility (1/GPa) = 0.04408595
#
# Stress axis : x y z
#
# Youngs Moduli (GPa) = 13.68385 96.54390 78.76611
#
# Poissons Ratio (x) = 0.37116 1.44117
# Poissons Ratio (y) = 0.05261 0.30578
# Poissons Ratio (z) = 0.25037 0.37480
#
# Static dielectric constant tensor:
#      x y z
#    x 2.810360 0.000000 0.000000 
#    y 0.000000 5.355400 0.000000 
#    z 0.000000 0.000000 3.473590 
# 
# 
# High freq. dielectric constant tensor:
#      x y z
#    x 1.629470 0.000000 0.000000 
#    y 0.000000 1.672220 0.000000 
#    z 0.000000 0.000000 1.692800 
# 
# From -- ./inp_files/71193.got.cif
#   From: 2010.03.12/outbox.cif.g09.slc.cpg/sg65_36_cif.got.tgz:71193.got - 2010.04.10 20:52:16.
