data_PCOD8266588
_publ_section_title
;
Structure prediction by ZEFSAII (Michael W. Deem and Ramdas Pophale) SiO2 
 PCOD8266588
Probable space group: C M M M
;
_chemical_formula_sum "Si O2"
_cell_formula_units_Z 96
_cell_length_a 29.694852
_cell_length_b 19.571381
_cell_length_c 9.431445
_cell_angle_alpha 90.000000
_cell_angle_beta 90.000000
_cell_angle_gamma 90.000000
_cell_volume 5481.265932
_symmetry_space_group_name_H-M "C M M M"
_symmetry_group_IT_number 65
_symmetry_cell_setting 'orthorhombic'
loop_
_space_group_symop_operation_xyz
x,y,z
-x,-y,z
x,-y,-z
-x,y,-z
-x,-y,-z
x,y,-z
-x,y,z
x,-y,z
1/2+x,1/2+y,z
1/2-x,1/2-y,z
1/2+x,1/2-y,-z
1/2-x,1/2+y,-z
1/2-x,1/2-y,-z
1/2+x,1/2+y,-z
1/2-x,1/2+y,z
1/2+x,1/2-y,z
loop_
_atom_site_type_symbol
_atom_site_label
_atom_site_fract_x
_atom_site_fract_y
_atom_site_fract_z
Si Si1 0.550898 0.700635 0.336858
Si Si2 0.701822 0.714829 0.837252
Si Si3 0.053551 0.925181 0.840680
Si Si4 0.370254 0.799714 0.334155
Si Si5 0.659474 0.077776 0.836020
Si Si6 0.261430 0.425717 0.831882
O O1 0.551433 0.679741 0.500000
O O2 0.500000 0.716963 0.285438
O O3 0.572572 0.635685 0.255878
O O4 0.580761 0.767181 0.307630
O O5 0.750000 0.750000 0.825065
O O6 0.667252 0.751611 0.734772
O O7 0.706329 0.636057 0.783015
O O8 0.684715 0.718281 0.000000
O O9 0.000000 0.924216 0.835655
O O10 0.070593 0.000000 0.787874
O O11 0.070960 0.912602 0.000000
O O12 0.359606 0.807732 0.500000
O O13 0.371618 0.873526 0.259531
O O14 0.710432 0.086216 0.778737
O O15 0.642854 0.000000 0.817102
O O16 0.655817 0.100437 0.000000
O O17 0.279213 0.500000 0.776522
O O18 0.258847 0.426854 0.000000
#
# Coordination Sequence:
#
# PCOD8266588 Si02
#       6
#    16  16  16  16  16  16
#     4   9  19  35  51  68  95 135 177 209 244 296
#     4  10  18  31  51  73  99 133 168 199 239 297
#     4   8  14  26  46  72  97 119 152 204 257 296
#     4  11  22  33  49  75 104 130 162 209 256 294
#     4   9  17  32  54  76  98 127 165 203 238 291
#     4   8  14  27  48  71  95 127 167 203 232 276
#
# _framework density 17.514202999999998
#
# number of rings (size 3 to 8) (size 9 to 14) (size 15 to 20)
#    0.000    2.833    1.667    2.000    0.000    2.333 
#    0.000    2.500    0.000    4.000    0.000    3.500 
#    0.000    0.000    0.000    0.000    0.000    0.000 
#
# Total GULP energy -594922.586145 kJ/mol
# GULP energy per Si atom -12394.220545 kJ/mol
# Density = 1.747434 g / cm^3
# Si number density = 17.514203 Si / 1000 Ang^3
#
#
#
# Elastic Constant Matrix: (Units=GPa)
#
#
# Indices 1 2 3 4 5 6 
#
# 1 48.6552 41.0432 35.4113 0.0000 0.0000 0.0000
# 2 41.0432 145.7001 61.9430 0.0000 0.0000 0.0000
# 3 35.4113 61.9430 76.0322 0.0000 0.0000 0.0000
# 4 0.0000 0.0000 0.0000 23.3979 0.0000 0.0000
# 5 0.0000 0.0000 0.0000 0.0000 18.0607 0.0000
# 6 0.0000 0.0000 0.0000 0.0000 0.0000 20.6345
#
#
#
# Elastic Compliance Matrix: (Units=1/GPa)
#
#
# Indices 1 2 3 4 5 6 
#
# 1 0.032678 -0.004184 -0.011811 0.000000 0.000000 0.000000
# 2 -0.004184 0.011036 -0.007042 0.000000 0.000000 0.000000
# 3 -0.011811 -0.007042 0.024390 0.000000 0.000000 0.000000
# 4 0.000000 0.000000 0.000000 0.042739 0.000000 0.000000
# 5 0.000000 0.000000 0.000000 0.000000 0.055369 0.000000
# 6 0.000000 0.000000 0.000000 0.000000 0.000000 0.048462
#
#
# Mechanical properties :
#
#
# Convention : Reuss Voigt Hill
#
# Bulk Modulus (GPa) = 45.39212 60.79804 53.09508
# Shear Modulus (GPa) = 18.65028 21.21796 19.93412
#
# Velocity S-wave (km/s) = 3.26677 3.48440 3.37734
# Velocity P-wave (km/s) = 6.34055 7.13981 6.75202
#
# Compressibility (1/GPa) = 0.02203025
#
# Stress axis : x y z
#
# Youngs Moduli (GPa) = 30.60148 90.61238 40.99967
#
# Poissons Ratio (x) = 0.37913 0.48424
# Poissons Ratio (y) = 0.12804 0.28873
# Poissons Ratio (z) = 0.36143 0.63812
#
# Static dielectric constant tensor:
#      x y z
#    x 3.025840 0.000000 0.000000 
#    y 0.000000 3.820940 0.000000 
#    z 0.000000 0.000000 3.130800 
# 
# 
# High freq. dielectric constant tensor:
#      x y z
#    x 1.639440 0.000000 0.000000 
#    y 0.000000 1.691630 0.000000 
#    z 0.000000 0.000000 1.655110 
# 
# From -- ./inp_files/16340.got.cif
#   From: 2010.03.12/outbox.cif.g09.slc.cpg/sg65_9_cif.got.tgz:16340.got - 2010.04.10 20:52:16.
