data_PCOD8266019
_publ_section_title
;
Structure prediction by ZEFSAII (Michael W. Deem and Ramdas Pophale) SiO2 
 PCOD8266019
Probable space group: C M M M
;
_chemical_formula_sum "Si O2"
_cell_formula_units_Z 72
_cell_length_a 14.269751
_cell_length_b 29.808603
_cell_length_c 9.640398
_cell_angle_alpha 90.000000
_cell_angle_beta 90.000000
_cell_angle_gamma 90.000000
_cell_volume 4100.652635
_symmetry_space_group_name_H-M "C M M M"
_symmetry_group_IT_number 65
_symmetry_cell_setting 'orthorhombic'
loop_
_space_group_symop_operation_xyz
x,y,z
-x,-y,z
x,-y,-z
-x,y,-z
-x,-y,-z
x,y,-z
-x,y,z
x,-y,z
1/2+x,1/2+y,z
1/2-x,1/2-y,z
1/2+x,1/2-y,-z
1/2-x,1/2+y,-z
1/2-x,1/2-y,-z
1/2+x,1/2+y,-z
1/2-x,1/2+y,z
1/2+x,1/2-y,z
loop_
_atom_site_type_symbol
_atom_site_label
_atom_site_fract_x
_atom_site_fract_y
_atom_site_fract_z
Si Si1 0.394887 0.500000 0.835116
Si Si2 0.894044 0.552430 0.342883
Si Si3 0.270806 0.417154 0.836071
Si Si4 0.603844 0.765964 0.834753
Si Si5 0.218161 0.182498 0.836154
O O1 0.500000 0.500000 0.773686
O O2 0.342043 0.455343 0.781418
O O3 0.398486 0.500000 0.000000
O O4 0.862022 0.562873 0.500000
O O5 0.886356 0.500000 0.312423
O O6 0.829703 0.578292 0.234750
O O7 0.000000 0.569000 0.319225
O O8 0.309568 0.368118 0.792670
O O9 0.255883 0.421452 0.000000
O O10 0.500000 0.775210 0.772549
O O11 0.677883 0.803433 0.780974
O O12 0.639597 0.717077 0.781181
O O13 0.598644 0.766082 0.000000
O O14 0.222319 0.186423 0.000000
#
# Coordination Sequence:
#
# PCOD8266019 Si02
#       5
#     8  16  16  16  16
#     4   9  18  30  42  61  92 124 151 183 224 265
#     4   9  18  32  48  65  88 120 153 184 223 271
#     4  10  18  29  46  68  93 120 152 190 227 261
#     4   8  13  23  37  54  82 116 144 176 221 267
#     4   8  15  24  36  59  86 111 144 182 219 262
#
# _framework density 17.558181000000001
#
# number of rings (size 3 to 8) (size 9 to 14) (size 15 to 20)
#    0.000    3.222    1.111    2.000    0.000    2.222 
#    0.000    7.778    0.000    1.333    0.000    3.111 
#    0.000    1.778    0.000    0.000    0.000    0.000 
#
# Total GULP energy -446094.721134 kJ/mol
# GULP energy per Si atom -12391.520031 kJ/mol
# Density = 1.751822 g / cm^3
# Si number density = 17.558181 Si / 1000 Ang^3
#
#
#
# Elastic Constant Matrix: (Units=GPa)
#
#
# Indices 1 2 3 4 5 6 
#
# 1 103.4356 45.1274 9.3211 0.0000 0.0000 0.0000
# 2 45.1274 122.2823 10.8979 0.0000 0.0000 0.0000
# 3 9.3211 10.8979 17.8668 0.0000 0.0000 0.0000
# 4 0.0000 0.0000 0.0000 6.8740 0.0000 0.0000
# 5 0.0000 0.0000 0.0000 0.0000 9.8010 0.0000
# 6 0.0000 0.0000 0.0000 0.0000 0.0000 17.9942
#
#
#
# Elastic Compliance Matrix: (Units=1/GPa)
#
#
# Indices 1 2 3 4 5 6 
#
# 1 0.011748 -0.004007 -0.003685 0.000000 0.000000 0.000000
# 2 -0.004007 0.010015 -0.004018 0.000000 0.000000 0.000000
# 3 -0.003685 -0.004018 0.060343 0.000000 0.000000 0.000000
# 4 0.000000 0.000000 0.000000 0.145476 0.000000 0.000000
# 5 0.000000 0.000000 0.000000 0.000000 0.102030 0.000000
# 6 0.000000 0.000000 0.000000 0.000000 0.000000 0.055573
#
#
# Mechanical properties :
#
#
# Convention : Reuss Voigt Hill
#
# Bulk Modulus (GPa) = 17.03993 41.58641 29.31317
# Shear Modulus (GPa) = 11.67769 18.81639 15.24704
#
# Velocity S-wave (km/s) = 2.58172 3.27717 2.95001
# Velocity P-wave (km/s) = 4.31427 6.16897 5.32302
#
# Compressibility (1/GPa) = 0.05868570
#
# Stress axis : x y z
#
# Youngs Moduli (GPa) = 85.11945 99.85312 16.57200
#
# Poissons Ratio (x) = 0.40013 0.06106
# Poissons Ratio (y) = 0.34109 0.06659
# Poissons Ratio (z) = 0.31365 0.40120
#
# Static dielectric constant tensor:
#      x y z
#    x 3.514960 0.000000 0.000000 
#    y 0.000000 3.548780 0.000000 
#    z 0.000000 0.000000 2.638600 
# 
# 
# High freq. dielectric constant tensor:
#      x y z
#    x 1.680710 0.000000 0.000000 
#    y 0.000000 1.682930 0.000000 
#    z 0.000000 0.000000 1.607630 
# 
# From -- ./inp_files/7654.got.cif
#   From: 2010.03.12/outbox.cif.g09.slc.cpg/sg65_4_cif.got.tgz:7654.got - 2010.04.10 20:52:16.
