data_PCOD8266720
_publ_section_title
;
Structure prediction by ZEFSAII (Michael W. Deem and Ramdas Pophale) SiO2 
 PCOD8266720
Probable space group: C M M M
;
_chemical_formula_sum "Si O2"
_cell_formula_units_Z 96
_cell_length_a 25.149473
_cell_length_b 17.968438
_cell_length_c 12.662421
_cell_angle_alpha 90.000000
_cell_angle_beta 90.000000
_cell_angle_gamma 90.000000
_cell_volume 5722.106851
_symmetry_space_group_name_H-M "C M M M"
_symmetry_group_IT_number 65
_symmetry_cell_setting 'orthorhombic'
loop_
_space_group_symop_operation_xyz
x,y,z
-x,-y,z
x,-y,-z
-x,y,-z
-x,-y,-z
x,y,-z
-x,y,z
x,-y,z
1/2+x,1/2+y,z
1/2-x,1/2-y,z
1/2+x,1/2-y,-z
1/2-x,1/2+y,-z
1/2-x,1/2-y,-z
1/2+x,1/2+y,-z
1/2-x,1/2+y,z
1/2+x,1/2-y,z
loop_
_atom_site_type_symbol
_atom_site_label
_atom_site_fract_x
_atom_site_fract_y
_atom_site_fract_z
Si Si1 0.562251 0.134018 0.694618
Si Si2 0.688222 0.232671 0.500000
Si Si3 0.309017 0.229241 0.878443
Si Si4 0.870820 0.416938 0.500000
Si Si5 0.378263 0.718359 0.696495
Si Si6 0.060631 0.916016 0.621482
Si Si7 0.131881 0.416516 0.879923
O O1 0.500000 0.120070 0.683040
O O2 0.592443 0.090836 0.602402
O O3 0.574426 0.221725 0.685942
O O4 0.581705 0.101779 0.806450
O O5 0.750000 0.250000 0.500000
O O6 0.676706 0.143697 0.500000
O O7 0.664094 0.269948 0.603899
O O8 0.250000 0.250000 0.841567
O O9 0.349951 0.276780 0.809574
O O10 0.319718 0.141141 0.858249
O O11 0.318178 0.251276 0.000000
O O12 0.845657 0.500000 0.500000
O O13 0.403050 0.636625 0.692456
O O14 0.065081 0.890837 0.500000
O O15 0.000000 0.909939 0.659638
O O16 0.081399 0.000000 0.635683
O O17 0.153326 0.500000 0.857994
O O18 0.111524 0.408419 0.000000
#
# Coordination Sequence:
#
# PCOD8266720 Si02
#       7
#    16   8  16   8  16  16  16
#     4  10  20  31  47  70  95 127 161 190 228 280
#     4  10  20  33  49  69  93 125 158 195 243 291
#     4   9  18  33  52  71  94 128 168 205 244 289
#     4  10  21  34  46  65  96 128 156 188 227 279
#     4  10  18  32  50  72  98 125 159 203 240 286
#     4   9  17  30  50  75 102 130 159 197 246 296
#     4   9  18  32  49  69  94 123 158 202 244 279
#
# _framework density 16.777037
#
# number of rings (size 3 to 8) (size 9 to 14) (size 15 to 20)
#    0.000    2.500    0.833    2.250    0.000    2.000 
#    0.000    2.500    0.000    3.000    0.000    1.167 
#    0.000    0.000    0.000    0.000    0.000    0.000 
#
# Total GULP energy -595190.313487 kJ/mol
# GULP energy per Si atom -12399.798198 kJ/mol
# Density = 1.673885 g / cm^3
# Si number density = 16.777037 Si / 1000 Ang^3
#
#
#
# Elastic Constant Matrix: (Units=GPa)
#
#
# Indices 1 2 3 4 5 6 
#
# 1 99.6175 61.7290 37.3366 0.0000 0.0000 0.0000
# 2 61.7290 123.0401 42.6654 0.0000 0.0000 0.0000
# 3 37.3366 42.6654 77.0382 0.0000 0.0000 0.0000
# 4 0.0000 0.0000 0.0000 22.0095 0.0000 0.0000
# 5 0.0000 0.0000 0.0000 0.0000 20.2629 0.0000
# 6 0.0000 0.0000 0.0000 0.0000 0.0000 18.5258
#
#
#
# Elastic Compliance Matrix: (Units=1/GPa)
#
#
# Indices 1 2 3 4 5 6 
#
# 1 0.015487 -0.006395 -0.003964 0.000000 0.000000 0.000000
# 2 -0.006395 0.012700 -0.003934 0.000000 0.000000 0.000000
# 3 -0.003964 -0.003934 0.017080 0.000000 0.000000 0.000000
# 4 0.000000 0.000000 0.000000 0.045435 0.000000 0.000000
# 5 0.000000 0.000000 0.000000 0.000000 0.049351 0.000000
# 6 0.000000 0.000000 0.000000 0.000000 0.000000 0.053979
#
#
# Mechanical properties :
#
#
# Convention : Reuss Voigt Hill
#
# Bulk Modulus (GPa) = 59.94867 64.79532 62.37199
# Shear Modulus (GPa) = 21.91256 22.69062 22.30159
#
# Velocity S-wave (km/s) = 3.61793 3.68160 3.64990
# Velocity P-wave (km/s) = 7.29813 7.53508 7.41755
#
# Compressibility (1/GPa) = 0.01668094
#
# Stress axis : x y z
#
# Youngs Moduli (GPa) = 64.57050 78.73943 58.54631
#
# Poissons Ratio (x) = 0.50356 0.23207
# Poissons Ratio (y) = 0.41294 0.23033
# Poissons Ratio (z) = 0.25595 0.30977
#
# Static dielectric constant tensor:
#      x y z
#    x 2.924190 0.000000 0.000000 
#    y 0.000000 3.234180 0.000000 
#    z 0.000000 0.000000 3.242560 
# 
# 
# High freq. dielectric constant tensor:
#      x y z
#    x 1.627450 0.000000 0.000000 
#    y 0.000000 1.648410 0.000000 
#    z 0.000000 0.000000 1.650280 
# 
# From -- ./inp_files/30829.got.cif
#   From: 2010.03.12/outbox.cif.g09.slc.cpg/sg65_16_cif.got.tgz:30829.got - 2010.04.10 20:52:16.
