data_PCOD8266094
_publ_section_title
;
Structure prediction by ZEFSAII (Michael W. Deem and Ramdas Pophale) SiO2 
 PCOD8266094
Probable space group: C M M M
;
_chemical_formula_sum "Si O2"
_cell_formula_units_Z 88
_cell_length_a 8.925090
_cell_length_b 26.985067
_cell_length_c 19.441915
_cell_angle_alpha 90.000000
_cell_angle_beta 90.000000
_cell_angle_gamma 90.000000
_cell_volume 4682.471524
_symmetry_space_group_name_H-M "C M M M"
_symmetry_group_IT_number 65
_symmetry_cell_setting 'orthorhombic'
loop_
_space_group_symop_operation_xyz
x,y,z
-x,-y,z
x,-y,-z
-x,y,-z
-x,-y,-z
x,y,-z
-x,y,z
x,-y,z
1/2+x,1/2+y,z
1/2-x,1/2-y,z
1/2+x,1/2-y,-z
1/2-x,1/2+y,-z
1/2-x,1/2-y,-z
1/2+x,1/2+y,-z
1/2-x,1/2+y,z
1/2+x,1/2-y,z
loop_
_atom_site_type_symbol
_atom_site_label
_atom_site_fract_x
_atom_site_fract_y
_atom_site_fract_z
Si Si1 0.175719 0.392471 0.423330
Si Si2 0.333218 0.443194 0.307839
Si Si3 0.821084 0.000000 0.922410
Si Si4 0.177500 0.298825 0.333926
Si Si5 0.176823 0.907563 0.834915
Si Si6 0.677077 0.700401 0.185681
O O1 0.245680 0.394084 0.500000
O O2 0.238046 0.437037 0.377164
O O3 0.221832 0.341816 0.386308
O O4 0.000000 0.398647 0.428240
O O5 0.500000 0.422693 0.322148
O O6 0.337764 0.500000 0.286704
O O7 0.258697 0.415292 0.242366
O O8 0.757879 0.050501 0.886459
O O9 0.000000 0.000000 0.921646
O O10 0.759550 0.000000 0.000000
O O11 0.250000 0.250000 0.367549
O O12 0.254719 0.307836 0.260761
O O13 0.000000 0.293516 0.323861
O O14 0.213087 0.850387 0.857559
O O15 0.000000 0.915936 0.830847
O O16 0.500000 0.708845 0.191214
O O17 0.750000 0.750000 0.151180
#
# Coordination Sequence:
#
# PCOD8266094 Si02
#       6
#    16  16   8  16  16  16
#     4  10  22  37  49  65  95 131 167 211 259 307
#     4  10  19  33  53  73  96 126 165 210 257 305
#     4   9  16  28  50  82 114 139 164 200 251 305
#     4  10  19  31  48  69  94 124 164 209 257 305
#     4   9  16  28  48  75 105 135 164 205 254 295
#     4  10  18  29  48  73 103 134 168 210 255 297
#
# _framework density 18.793493000000002
#
# number of rings (size 3 to 8) (size 9 to 14) (size 15 to 20)
#    0.000    2.273    2.727    2.182    0.000    2.182 
#    0.000    1.818    0.000    0.545    0.000    0.000 
#    0.000   12.364    0.000    0.000    0.000    0.727 
#
# Total GULP energy -545236.657448 kJ/mol
# GULP energy per Si atom -12391.742215 kJ/mol
# Density = 1.875072 g / cm^3
# Si number density = 18.793493 Si / 1000 Ang^3
#
#
#
# Elastic Constant Matrix: (Units=GPa)
#
#
# Indices 1 2 3 4 5 6 
#
# 1 38.8995 30.2883 10.7620 0.0000 0.0000 0.0000
# 2 30.2883 143.0221 51.1393 0.0000 0.0000 0.0000
# 3 10.7620 51.1393 81.5113 0.0000 0.0000 0.0000
# 4 0.0000 0.0000 0.0000 19.3630 0.0000 0.0000
# 5 0.0000 0.0000 0.0000 0.0000 11.4197 0.0000
# 6 0.0000 0.0000 0.0000 0.0000 0.0000 26.6545
#
#
#
# Elastic Compliance Matrix: (Units=1/GPa)
#
#
# Indices 1 2 3 4 5 6 
#
# 1 0.030783 -0.006531 0.000033 0.000000 0.000000 0.000000
# 2 -0.006531 0.010400 -0.005662 0.000000 0.000000 0.000000
# 3 0.000033 -0.005662 0.015816 0.000000 0.000000 0.000000
# 4 0.000000 0.000000 0.000000 0.051645 0.000000 0.000000
# 5 0.000000 0.000000 0.000000 0.000000 0.087568 0.000000
# 6 0.000000 0.000000 0.000000 0.000000 0.000000 0.037517
#
#
# Mechanical properties :
#
#
# Convention : Reuss Voigt Hill
#
# Bulk Modulus (GPa) = 30.60074 49.75691 40.17883
# Shear Modulus (GPa) = 18.59134 22.90365 20.74749
#
# Velocity S-wave (km/s) = 3.14864 3.49478 3.32621
# Velocity P-wave (km/s) = 5.43475 6.54352 6.01474
#
# Compressibility (1/GPa) = 0.03267894
#
# Stress axis : x y z
#
# Youngs Moduli (GPa) = 32.48513 96.15716 63.22565
#
# Poissons Ratio (x) = 0.62799 -0.00209
# Poissons Ratio (y) = 0.21216 0.35801
# Poissons Ratio (z) = -0.00107 0.54447
#
# Static dielectric constant tensor:
#      x y z
#    x 3.197870 0.000000 0.000000 
#    y 0.000000 3.907780 0.000000 
#    z 0.000000 0.000000 3.307640 
# 
# 
# High freq. dielectric constant tensor:
#      x y z
#    x 1.699570 0.000000 0.000000 
#    y 0.000000 1.750950 0.000000 
#    z 0.000000 0.000000 1.694360 
# 
# From -- ./inp_files/50380.got.cif
#   From: 2010.03.12/outbox.cif.g09.slc.cpg/sg65_26_cif.got.tgz:50380.got - 2010.04.10 20:52:16.
