data_PCOD8266084
_publ_section_title
;
Structure prediction by ZEFSAII (Michael W. Deem and Ramdas Pophale) SiO2 
 PCOD8266084
Probable space group: C M M M
;
_chemical_formula_sum "Si O2"
_cell_formula_units_Z 80
_cell_length_a 19.466339
_cell_length_b 10.228687
_cell_length_c 24.095017
_cell_angle_alpha 90.000000
_cell_angle_beta 90.000000
_cell_angle_gamma 90.000000
_cell_volume 4797.681446
_symmetry_space_group_name_H-M "C M M M"
_symmetry_group_IT_number 65
_symmetry_cell_setting 'orthorhombic'
loop_
_space_group_symop_operation_xyz
x,y,z
-x,-y,z
x,-y,-z
-x,y,-z
-x,-y,-z
x,y,-z
-x,y,z
x,-y,z
1/2+x,1/2+y,z
1/2-x,1/2-y,z
1/2+x,1/2-y,-z
1/2-x,1/2+y,-z
1/2-x,1/2-y,-z
1/2+x,1/2+y,-z
1/2-x,1/2+y,z
1/2+x,1/2-y,z
loop_
_atom_site_type_symbol
_atom_site_label
_atom_site_fract_x
_atom_site_fract_y
_atom_site_fract_z
Si Si1 0.832889 0.000000 0.562286
Si Si2 0.329603 0.000000 0.438568
Si Si3 0.924906 0.654704 0.148737
Si Si4 0.919768 0.651706 0.726688
Si Si5 0.331497 0.751289 0.369522
Si Si6 0.811306 0.349279 0.936657
O O1 0.751708 0.000000 0.556534
O O2 0.856960 0.874294 0.596601
O O3 0.864965 0.000000 0.500000
O O4 0.355162 0.873232 0.406336
O O5 0.362280 0.000000 0.500000
O O6 0.930268 0.500000 0.147360
O O7 0.902569 0.697282 0.210598
O O8 0.871640 0.703577 0.102772
O O9 0.000000 0.714171 0.134666
O O10 0.900107 0.500000 0.717928
O O11 0.872328 0.742475 0.688214
O O12 0.000000 0.673974 0.713354
O O13 0.250000 0.750000 0.357431
O O14 0.790164 0.500000 0.922908
O O15 0.750000 0.250000 0.925362
O O16 0.836864 0.339543 0.000000
#
# Coordination Sequence:
#
# PCOD8266084 Si02
#       6
#     8   8  16  16  16  16
#     4   9  18  30  45  69  97 123 150 187 238 281
#     4   9  16  28  47  69  93 119 152 193 228 269
#     4   8  15  28  47  70  93 121 160 202 238 271
#     4   9  17  31  50  69  92 123 158 197 238 277
#     4  10  18  29  48  72  94 119 154 193 231 280
#     4   9  17  29  47  72 101 130 158 192 236 281
#
# _framework density 16.674721999999999
#
# number of rings (size 3 to 8) (size 9 to 14) (size 15 to 20)
#    0.000    3.000    1.000    1.800    0.000    3.600 
#    0.000    2.500    2.200    4.200    0.000    2.800 
#    0.000    0.000    0.000    0.000    0.000    0.000 
#
# Total GULP energy -495823.268772 kJ/mol
# GULP energy per Si atom -12395.581719 kJ/mol
# Density = 1.663677 g / cm^3
# Si number density = 16.674722 Si / 1000 Ang^3
#
#
#
# Elastic Constant Matrix: (Units=GPa)
#
#
# Indices 1 2 3 4 5 6 
#
# 1 73.9912 37.8638 78.5326 0.0000 0.0000 0.0000
# 2 37.8638 89.0858 54.7665 0.0000 0.0000 0.0000
# 3 78.5326 54.7665 144.7871 0.0000 0.0000 0.0000
# 4 0.0000 0.0000 0.0000 22.6134 0.0000 0.0000
# 5 0.0000 0.0000 0.0000 0.0000 16.8679 0.0000
# 6 0.0000 0.0000 0.0000 0.0000 0.0000 13.8075
#
#
#
# Elastic Compliance Matrix: (Units=1/GPa)
#
#
# Indices 1 2 3 4 5 6 
#
# 1 0.032871 -0.003922 -0.016346 0.000000 0.000000 0.000000
# 2 -0.003922 0.015094 -0.003582 0.000000 0.000000 0.000000
# 3 -0.016346 -0.003582 0.017128 0.000000 0.000000 0.000000
# 4 0.000000 0.000000 0.000000 0.044221 0.000000 0.000000
# 5 0.000000 0.000000 0.000000 0.000000 0.059284 0.000000
# 6 0.000000 0.000000 0.000000 0.000000 0.000000 0.072424
#
#
# Mechanical properties :
#
#
# Convention : Reuss Voigt Hill
#
# Bulk Modulus (GPa) = 57.49474 72.24331 64.86903
# Shear Modulus (GPa) = 16.97668 19.77117 18.37393
#
# Velocity S-wave (km/s) = 3.19424 3.44713 3.32309
# Velocity P-wave (km/s) = 6.93969 7.69823 7.32878
#
# Compressibility (1/GPa) = 0.01739289
#
# Stress axis : x y z
#
# Youngs Moduli (GPa) = 30.42159 66.25002 58.38543
#
# Poissons Ratio (x) = 0.25986 0.95436
# Poissons Ratio (y) = 0.11933 0.20914
# Poissons Ratio (z) = 0.49726 0.23731
#
# Static dielectric constant tensor:
#      x y z
#    x 3.167060 0.000000 0.000000 
#    y 0.000000 2.969130 0.000000 
#    z 0.000000 0.000000 3.343160 
# 
# 
# High freq. dielectric constant tensor:
#      x y z
#    x 1.616360 0.000000 0.000000 
#    y 0.000000 1.619110 0.000000 
#    z 0.000000 0.000000 1.655190 
# 
# From -- ./inp_files/67318.got.cif
#   From: 2010.03.12/outbox.cif.g09.slc.cpg/sg65_34_cif.got.tgz:67318.got - 2010.04.10 20:52:16.
