data_PCOD8266349
_publ_section_title
;
Structure prediction by ZEFSAII (Michael W. Deem and Ramdas Pophale) SiO2 
 PCOD8266349
Probable space group: C M M M
;
_chemical_formula_sum "Si O2"
_cell_formula_units_Z 88
_cell_length_a 27.494297
_cell_length_b 18.812398
_cell_length_c 9.001023
_cell_angle_alpha 90.000000
_cell_angle_beta 90.000000
_cell_angle_gamma 90.000000
_cell_volume 4655.632051
_symmetry_space_group_name_H-M "C M M M"
_symmetry_group_IT_number 65
_symmetry_cell_setting 'orthorhombic'
loop_
_space_group_symop_operation_xyz
x,y,z
-x,-y,z
x,-y,-z
-x,y,-z
-x,-y,-z
x,y,-z
-x,y,z
x,-y,z
1/2+x,1/2+y,z
1/2-x,1/2-y,z
1/2+x,1/2-y,-z
1/2-x,1/2+y,-z
1/2-x,1/2-y,-z
1/2+x,1/2+y,-z
1/2-x,1/2+y,z
1/2+x,1/2-y,z
loop_
_atom_site_type_symbol
_atom_site_label
_atom_site_fract_x
_atom_site_fract_y
_atom_site_fract_z
Si Si1 0.500000 0.576508 0.676341
Si Si2 0.181840 0.813484 0.174301
Si Si3 0.554136 0.188591 0.830256
Si Si4 0.340043 0.150466 0.170801
Si Si5 0.756732 0.581111 0.325269
Si Si6 0.915277 0.826305 0.674446
O O1 0.500000 0.500000 0.751012
O O2 0.500000 0.574004 0.500000
O O3 0.548322 0.614144 0.730780
O O4 0.179495 0.729551 0.214204
O O5 0.225489 0.857172 0.247735
O O6 0.132676 0.846724 0.236292
O O7 0.186217 0.824581 0.000000
O O8 0.500000 0.152861 0.805651
O O9 0.601579 0.138927 0.801922
O O10 0.559496 0.252403 0.715826
O O11 0.557975 0.216871 0.000000
O O12 0.312370 0.093630 0.273356
O O13 0.327263 0.135158 0.000000
O O14 0.752683 0.591671 0.500000
O O15 0.741340 0.500000 0.281994
O O16 0.904117 0.826929 0.500000
#
# Coordination Sequence:
#
# PCOD8266349 Si02
#       6
#     8  16  16  16  16  16
#     4   9  18  30  43  63  97 139 176 213 256 301
#     4  10  21  37  57  81 107 138 178 225 272 320
#     4   9  17  31  53  79 109 138 168 215 268 314
#     4   9  19  35  56  83 110 140 178 221 268 319
#     4  11  24  39  55  78 108 142 180 223 272 327
#     4  10  18  30  49  74 102 135 177 220 262 311
#
# _framework density 18.901837
#
# number of rings (size 3 to 8) (size 9 to 14) (size 15 to 20)
#    0.000    2.273    0.909    3.273    0.000    8.000 
#    0.000    1.818    0.000    4.364    0.000    3.818 
#    0.000    0.000    0.000    0.000    0.000    0.000 
#
# Total GULP energy -545178.029663 kJ/mol
# GULP energy per Si atom -12390.409765 kJ/mol
# Density = 1.885882 g / cm^3
# Si number density = 18.901837 Si / 1000 Ang^3
#
#
#
# Elastic Constant Matrix: (Units=GPa)
#
#
# Indices 1 2 3 4 5 6 
#
# 1 127.2324 28.9289 35.6565 0.0000 0.0000 0.0000
# 2 28.9289 40.1908 27.8966 0.0000 0.0000 0.0000
# 3 35.6565 27.8966 59.7610 0.0000 0.0000 0.0000
# 4 0.0000 0.0000 0.0000 14.6262 0.0000 0.0000
# 5 0.0000 0.0000 0.0000 0.0000 32.6237 0.0000
# 6 0.0000 0.0000 0.0000 0.0000 0.0000 19.9072
#
#
#
# Elastic Compliance Matrix: (Units=1/GPa)
#
#
# Indices 1 2 3 4 5 6 
#
# 1 0.009960 -0.004503 -0.003840 0.000000 0.000000 0.000000
# 2 -0.004503 0.038844 -0.015445 0.000000 0.000000 0.000000
# 3 -0.003840 -0.015445 0.026235 0.000000 0.000000 0.000000
# 4 0.000000 0.000000 0.000000 0.068371 0.000000 0.000000
# 5 0.000000 0.000000 0.000000 0.000000 0.030653 0.000000
# 6 0.000000 0.000000 0.000000 0.000000 0.000000 0.050233
#
#
# Mechanical properties :
#
#
# Convention : Reuss Voigt Hill
#
# Bulk Modulus (GPa) = 36.41684 45.79423 41.10554
# Shear Modulus (GPa) = 17.79198 22.41157 20.10178
#
# Velocity S-wave (km/s) = 3.07136 3.44711 3.26465
# Velocity P-wave (km/s) = 5.64675 6.33430 6.00038
#
# Compressibility (1/GPa) = 0.02745982
#
# Stress axis : x y z
#
# Youngs Moduli (GPa) = 100.40349 25.74432 38.11757
#
# Poissons Ratio (x) = 0.11594 0.14638
# Poissons Ratio (y) = 0.45215 0.58874
# Poissons Ratio (z) = 0.38558 0.39763
#
# Static dielectric constant tensor:
#      x y z
#    x 3.777420 0.000000 0.000000 
#    y 0.000000 3.306880 0.000000 
#    z 0.000000 0.000000 3.386650 
# 
# 
# High freq. dielectric constant tensor:
#      x y z
#    x 1.755160 0.000000 0.000000 
#    y 0.000000 1.695110 0.000000 
#    z 0.000000 0.000000 1.731810 
# 
# From -- ./inp_files/16343.got.cif
#   From: 2010.03.12/outbox.cif.g09.slc.cpg/sg65_9_cif.got.tgz:16343.got - 2010.04.10 20:52:16.
