data_PCOD8266283
_publ_section_title
;
Structure prediction by ZEFSAII (Michael W. Deem and Ramdas Pophale) SiO2 
 PCOD8266283
Probable space group: C M M M
;
_chemical_formula_sum "Si O2"
_cell_formula_units_Z 104
_cell_length_a 8.978117
_cell_length_b 28.730194
_cell_length_c 23.387998
_cell_angle_alpha 90.000000
_cell_angle_beta 90.000000
_cell_angle_gamma 90.000000
_cell_volume 6032.771378
_symmetry_space_group_name_H-M "C M M M"
_symmetry_group_IT_number 65
_symmetry_cell_setting 'orthorhombic'
loop_
_space_group_symop_operation_xyz
x,y,z
-x,-y,z
x,-y,-z
-x,y,-z
-x,-y,-z
x,y,-z
-x,y,z
x,-y,z
1/2+x,1/2+y,z
1/2-x,1/2-y,z
1/2+x,1/2-y,-z
1/2-x,1/2+y,-z
1/2-x,1/2-y,-z
1/2+x,1/2+y,-z
1/2-x,1/2+y,z
1/2+x,1/2-y,z
loop_
_atom_site_type_symbol
_atom_site_label
_atom_site_fract_x
_atom_site_fract_y
_atom_site_fract_z
Si Si1 0.327067 0.860893 0.436269
Si Si2 0.676824 0.799940 0.887272
Si Si3 0.825070 0.052013 0.389806
Si Si4 0.824606 0.948147 0.259882
Si Si5 0.179253 0.198845 0.000000
Si Si6 0.673755 0.140712 0.776621
Si Si7 0.823434 0.700173 0.668549
O O1 0.295152 0.841340 0.500000
O O2 0.500000 0.868822 0.425232
O O3 0.251642 0.911064 0.430929
O O4 0.265779 0.824193 0.389807
O O5 0.500000 0.794194 0.896957
O O6 0.750000 0.750000 0.875341
O O7 0.754897 0.824659 0.942413
O O8 0.715556 0.832040 0.833793
O O9 0.769951 0.059541 0.324867
O O10 0.000000 0.059406 0.393522
O O11 0.782191 0.000000 0.410318
O O12 0.749197 0.909818 0.219690
O O13 0.000000 0.942254 0.256003
O O14 0.778108 0.000000 0.239264
O O15 0.250000 0.250000 0.000000
O O16 0.000000 0.199076 0.000000
O O17 0.500000 0.132535 0.770873
O O18 0.732751 0.169527 0.722017
O O19 0.750000 0.750000 0.673412
O O20 0.000000 0.706539 0.669292
#
# Coordination Sequence:
#
# PCOD8266283 Si02
#       7
#    16  16  16  16   8  16  16
#     4  10  21  36  52  70  95 126 162 204 248 298
#     4  10  19  31  48  73 105 138 174 209 246 289
#     4   9  18  33  52  74  98 124 156 197 246 299
#     4   9  18  32  51  75 101 128 160 199 245 297
#     4  10  18  30  48  70 101 140 177 208 246 287
#     4  10  20  33  51  76 102 131 165 204 247 294
#     4  10  21  36  51  70  96 125 162 204 248 293
#
# _framework density 17.239173999999998
#
# number of rings (size 3 to 8) (size 9 to 14) (size 15 to 20)
#    0.000    2.308    1.538    3.462    0.000    4.000 
#    0.000    3.077    0.000    0.000    0.000    0.538 
#    0.000    4.308    0.000    0.000    0.000    0.000 
#
# Total GULP energy -644707.156804 kJ/mol
# GULP energy per Si atom -12398.214554 kJ/mol
# Density = 1.719994 g / cm^3
# Si number density = 17.239174 Si / 1000 Ang^3
#
#
#
# Elastic Constant Matrix: (Units=GPa)
#
#
# Indices 1 2 3 4 5 6 
#
# 1 51.7792 38.9967 45.4530 0.0000 0.0000 0.0000
# 2 38.9967 117.4710 63.3313 0.0000 0.0000 0.0000
# 3 45.4530 63.3313 128.1446 0.0000 0.0000 0.0000
# 4 0.0000 0.0000 0.0000 22.5923 0.0000 0.0000
# 5 0.0000 0.0000 0.0000 0.0000 22.9872 0.0000
# 6 0.0000 0.0000 0.0000 0.0000 0.0000 31.7770
#
#
#
# Elastic Compliance Matrix: (Units=1/GPa)
#
#
# Indices 1 2 3 4 5 6 
#
# 1 0.030783 -0.005906 -0.008000 0.000000 0.000000 0.000000
# 2 -0.005906 0.012738 -0.004200 0.000000 0.000000 0.000000
# 3 -0.008000 -0.004200 0.012717 0.000000 0.000000 0.000000
# 4 0.000000 0.000000 0.000000 0.044263 0.000000 0.000000
# 5 0.000000 0.000000 0.000000 0.000000 0.043502 0.000000
# 6 0.000000 0.000000 0.000000 0.000000 0.000000 0.031469
#
#
# Mechanical properties :
#
#
# Convention : Reuss Voigt Hill
#
# Bulk Modulus (GPa) = 49.93632 65.88410 57.91021
# Shear Modulus (GPa) = 22.89783 25.44558 24.17170
#
# Velocity S-wave (km/s) = 3.64846 3.84608 3.74858
# Velocity P-wave (km/s) = 6.83945 7.61733 7.23885
#
# Compressibility (1/GPa) = 0.02002551
#
# Stress axis : x y z
#
# Youngs Moduli (GPa) = 32.48495 78.50563 78.63377
#
# Poissons Ratio (x) = 0.46367 0.62907
# Poissons Ratio (y) = 0.19186 0.33029
# Poissons Ratio (z) = 0.25988 0.32975
#
# Static dielectric constant tensor:
#      x y z
#    x 3.122570 0.000000 0.000000 
#    y 0.000000 3.134440 0.000000 
#    z 0.000000 0.000000 3.553620 
# 
# 
# High freq. dielectric constant tensor:
#      x y z
#    x 1.663420 0.000000 0.000000 
#    y 0.000000 1.652230 0.000000 
#    z 0.000000 0.000000 1.660600 
# 
# From -- ./inp_files/68168.got.cif
#   From: 2010.03.12/outbox.cif.g09.slc.cpg/sg65_35_cif.got.tgz:68168.got - 2010.04.10 20:52:16.
