data_PCOD8266453
_publ_section_title
;
Structure prediction by ZEFSAII (Michael W. Deem and Ramdas Pophale) SiO2 
 PCOD8266453
Probable space group: C M M M
;
_chemical_formula_sum "Si O2"
_cell_formula_units_Z 80
_cell_length_a 24.724507
_cell_length_b 20.202064
_cell_length_c 9.050312
_cell_angle_alpha 90.000000
_cell_angle_beta 90.000000
_cell_angle_gamma 90.000000
_cell_volume 4520.504798
_symmetry_space_group_name_H-M "C M M M"
_symmetry_group_IT_number 65
_symmetry_cell_setting 'orthorhombic'
loop_
_space_group_symop_operation_xyz
x,y,z
-x,-y,z
x,-y,-z
-x,y,-z
-x,-y,-z
x,y,-z
-x,y,z
x,-y,z
1/2+x,1/2+y,z
1/2-x,1/2-y,z
1/2+x,1/2-y,-z
1/2-x,1/2+y,-z
1/2-x,1/2-y,-z
1/2+x,1/2+y,-z
1/2-x,1/2+y,z
1/2+x,1/2-y,z
loop_
_atom_site_type_symbol
_atom_site_label
_atom_site_fract_x
_atom_site_fract_y
_atom_site_fract_z
Si Si1 0.000000 0.774869 0.831446
Si Si2 0.395397 0.878793 0.329970
Si Si3 0.778761 0.424650 0.330809
Si Si4 0.500000 0.117297 0.834390
Si Si5 0.892273 0.226016 0.674016
Si Si6 0.714601 0.313137 0.174038
O O1 0.000000 0.696075 0.823151
O O2 0.946993 0.802096 0.747937
O O3 0.000000 0.800175 0.000000
O O4 0.411429 0.883962 0.500000
O O5 0.342137 0.920249 0.290768
O O6 0.445721 0.910028 0.241873
O O7 0.384361 0.802878 0.285677
O O8 0.769936 0.400660 0.500000
O O9 0.759634 0.500000 0.310173
O O10 0.745061 0.379850 0.219420
O O11 0.500000 0.090896 0.000000
O O12 0.895108 0.213414 0.500000
O O13 0.842185 0.186518 0.741789
O O14 0.750000 0.250000 0.223341
O O15 0.704018 0.312812 0.000000
#
# Coordination Sequence:
#
# PCOD8266453 Si02
#       6
#     8  16  16   8  16  16
#     4   9  17  29  45  72 109 136 164 210 264 313
#     4   9  17  30  48  70  97 131 171 215 259 303
#     4  10  21  37  55  75 101 136 177 220 265 312
#     4   9  17  27  44  68  95 131 171 212 255 302
#     4  10  18  30  51  76 103 136 175 215 258 308
#     4  11  22  34  52  78 107 138 174 216 265 315
#
# _framework density 17.697139
#
# number of rings (size 3 to 8) (size 9 to 14) (size 15 to 20)
#    0.000    2.200    2.000    1.800    0.000    5.200 
#    0.000    0.500    0.000    3.000    0.000    0.700 
#    0.000    5.600    0.000    0.000    0.000    0.000 
#
# Total GULP energy -496099.383162 kJ/mol
# GULP energy per Si atom -12402.484579 kJ/mol
# Density = 1.765686 g / cm^3
# Si number density = 17.697139 Si / 1000 Ang^3
#
#
#
# Elastic Constant Matrix: (Units=GPa)
#
#
# Indices 1 2 3 4 5 6 
#
# 1 116.7001 30.3430 55.6077 0.0000 0.0000 0.0000
# 2 30.3430 51.3790 26.2807 0.0000 0.0000 0.0000
# 3 55.6077 26.2807 91.5439 0.0000 0.0000 0.0000
# 4 0.0000 0.0000 0.0000 15.7064 0.0000 0.0000
# 5 0.0000 0.0000 0.0000 0.0000 31.4394 0.0000
# 6 0.0000 0.0000 0.0000 0.0000 0.0000 15.9447
#
#
#
# Elastic Compliance Matrix: (Units=1/GPa)
#
#
# Indices 1 2 3 4 5 6 
#
# 1 0.012787 -0.004195 -0.006563 0.000000 0.000000 0.000000
# 2 -0.004195 0.024189 -0.004396 0.000000 0.000000 0.000000
# 3 -0.006563 -0.004396 0.016173 0.000000 0.000000 0.000000
# 4 0.000000 0.000000 0.000000 0.063668 0.000000 0.000000
# 5 0.000000 0.000000 0.000000 0.000000 0.031807 0.000000
# 6 0.000000 0.000000 0.000000 0.000000 0.000000 0.062717
#
#
# Mechanical properties :
#
#
# Convention : Reuss Voigt Hill
#
# Bulk Modulus (GPa) = 43.78169 53.78730 48.78450
# Shear Modulus (GPa) = 20.05918 22.44422 21.25170
#
# Velocity S-wave (km/s) = 3.37036 3.56510 3.46909
# Velocity P-wave (km/s) = 6.31972 6.88519 6.60850
#
# Compressibility (1/GPa) = 0.02284060
#
# Stress axis : x y z
#
# Youngs Moduli (GPa) = 78.20490 41.34088 61.83308
#
# Poissons Ratio (x) = 0.17340 0.40582
# Poissons Ratio (y) = 0.32803 0.27184
# Poissons Ratio (z) = 0.51327 0.18175
#
# Static dielectric constant tensor:
#      x y z
#    x 3.363840 0.000000 0.000000 
#    y 0.000000 2.837470 0.000000 
#    z 0.000000 0.000000 3.311110 
# 
# 
# High freq. dielectric constant tensor:
#      x y z
#    x 1.693190 0.000000 0.000000 
#    y 0.000000 1.634040 0.000000 
#    z 0.000000 0.000000 1.691800 
# 
# From -- ./inp_files/11578.got.cif
#   From: 2010.03.12/outbox.cif.g09.slc.cpg/sg65_6_cif.got.tgz:11578.got - 2010.04.10 20:52:16.
