data_PCOD8266715
_publ_section_title
;
Structure prediction by ZEFSAII (Michael W. Deem and Ramdas Pophale) SiO2 
 PCOD8266715
Probable space group: C M M M
;
_chemical_formula_sum "Si O2"
_cell_formula_units_Z 104
_cell_length_a 18.330803
_cell_length_b 17.857077
_cell_length_c 17.840682
_cell_angle_alpha 90.000000
_cell_angle_beta 90.000000
_cell_angle_gamma 90.000000
_cell_volume 5839.871804
_symmetry_space_group_name_H-M "C M M M"
_symmetry_group_IT_number 65
_symmetry_cell_setting 'orthorhombic'
loop_
_space_group_symop_operation_xyz
x,y,z
-x,-y,z
x,-y,-z
-x,y,-z
-x,-y,-z
x,y,-z
-x,y,z
x,-y,z
1/2+x,1/2+y,z
1/2-x,1/2-y,z
1/2+x,1/2-y,-z
1/2-x,1/2+y,-z
1/2-x,1/2-y,-z
1/2+x,1/2+y,-z
1/2-x,1/2+y,z
1/2+x,1/2-y,z
loop_
_atom_site_type_symbol
_atom_site_label
_atom_site_fract_x
_atom_site_fract_y
_atom_site_fract_z
Si Si1 0.281971 0.833338 0.416095
Si Si2 0.194638 0.814708 0.174682
Si Si3 0.416842 0.500000 0.416178
Si Si4 0.306295 0.913573 0.911455
Si Si5 0.647557 0.633834 0.669649
Si Si6 0.083607 0.304075 0.157472
Si Si7 0.082194 0.706759 0.333861
O O1 0.286742 0.863961 0.500000
O O2 0.250000 0.750000 0.413123
O O3 0.225205 0.881982 0.369281
O O4 0.361755 0.844697 0.379775
O O5 0.250000 0.750000 0.206599
O O6 0.235021 0.869222 0.117019
O O7 0.162302 0.865670 0.241208
O O8 0.128095 0.771003 0.133133
O O9 0.500000 0.500000 0.436631
O O10 0.377624 0.500000 0.500000
O O11 0.402653 0.569222 0.361539
O O12 0.380358 0.877562 0.878922
O O13 0.302356 0.000000 0.885758
O O14 0.308039 0.906440 0.000000
O O15 0.605206 0.708892 0.647411
O O16 0.088855 0.312160 0.246650
O O17 0.000000 0.297162 0.130199
O O18 0.000000 0.692462 0.362439
#
# Coordination Sequence:
#
# PCOD8266715 Si02
#       7
#    16  16   8  16  16  16  16
#     4   9  16  26  43  67  92 121 162 208 253 299
#     4   9  18  34  57  79 101 136 181 220 257 307
#     4  11  24  36  46  70 108 144 174 207 260 324
#     4  10  21  35  53  79 112 141 168 211 267 322
#     4  10  18  32  50  69  96 134 173 215 253 299
#     4   9  18  33  53  77 104 136 176 219 260 309
#     4   9  17  31  50  71  98 129 166 214 261 302
#
# _framework density 17.808610000000002
#
# number of rings (size 3 to 8) (size 9 to 14) (size 15 to 20)
#    0.000    2.538    0.000    4.154    1.077    4.923 
#    0.000    0.769    0.000    0.000    0.000    1.077 
#    0.000    1.846    0.000    0.000    0.000    0.000 
#
# Total GULP energy -644447.350627 kJ/mol
# GULP energy per Si atom -12393.218281 kJ/mol
# Density = 1.776808 g / cm^3
# Si number density = 17.808610 Si / 1000 Ang^3
#
#
#
# Elastic Constant Matrix: (Units=GPa)
#
#
# Indices 1 2 3 4 5 6 
#
# 1 137.9002 41.6361 38.5212 0.0000 0.0000 0.0000
# 2 41.6361 84.8251 45.5688 0.0000 0.0000 0.0000
# 3 38.5212 45.5688 66.5228 0.0000 0.0000 0.0000
# 4 0.0000 0.0000 0.0000 19.3863 0.0000 0.0000
# 5 0.0000 0.0000 0.0000 0.0000 19.5484 0.0000
# 6 0.0000 0.0000 0.0000 0.0000 0.0000 22.6251
#
#
#
# Elastic Compliance Matrix: (Units=1/GPa)
#
#
# Indices 1 2 3 4 5 6 
#
# 1 0.008988 -0.002557 -0.003454 0.000000 0.000000 0.000000
# 2 -0.002557 0.019380 -0.011795 0.000000 0.000000 0.000000
# 3 -0.003454 -0.011795 0.025112 0.000000 0.000000 0.000000
# 4 0.000000 0.000000 0.000000 0.051583 0.000000 0.000000
# 5 0.000000 0.000000 0.000000 0.000000 0.051155 0.000000
# 6 0.000000 0.000000 0.000000 0.000000 0.000000 0.044199
#
#
# Mechanical properties :
#
#
# Convention : Reuss Voigt Hill
#
# Bulk Modulus (GPa) = 55.95984 60.07780 58.01882
# Shear Modulus (GPa) = 20.66241 23.21340 21.93790
#
# Velocity S-wave (km/s) = 3.40994 3.61431 3.51361
# Velocity P-wave (km/s) = 6.85527 7.15724 7.00788
#
# Compressibility (1/GPa) = 0.01786996
#
# Stress axis : x y z
#
# Youngs Moduli (GPa) = 111.25654 51.59841 39.82129
#
# Poissons Ratio (x) = 0.13192 0.13752
# Poissons Ratio (y) = 0.28444 0.46971
# Poissons Ratio (z) = 0.38423 0.60862
#
# Static dielectric constant tensor:
#      x y z
#    x 3.576880 0.000000 0.000000 
#    y 0.000000 3.141620 0.000000 
#    z 0.000000 0.000000 3.176570 
# 
# 
# High freq. dielectric constant tensor:
#      x y z
#    x 1.697820 0.000000 0.000000 
#    y 0.000000 1.657010 0.000000 
#    z 0.000000 0.000000 1.683520 
# 
# From -- ./inp_files/54621.got.cif
#   From: 2010.03.12/outbox.cif.g09.slc.cpg/sg65_28_cif.got.tgz:54621.got - 2010.04.10 20:52:16.
