data_PCOD8266865
_publ_section_title
;
Structure prediction by ZEFSAII (Michael W. Deem and Ramdas Pophale) SiO2 
 PCOD8266865
Probable space group: C M M M
;
_chemical_formula_sum "Si O2"
_cell_formula_units_Z 88
_cell_length_a 16.379543
_cell_length_b 18.252785
_cell_length_c 14.333410
_cell_angle_alpha 90.000000
_cell_angle_beta 90.000000
_cell_angle_gamma 90.000000
_cell_volume 4285.292222
_symmetry_space_group_name_H-M "C M M M"
_symmetry_group_IT_number 65
_symmetry_cell_setting 'orthorhombic'
loop_
_space_group_symop_operation_xyz
x,y,z
-x,-y,z
x,-y,-z
-x,y,-z
-x,-y,-z
x,y,-z
-x,y,z
x,-y,z
1/2+x,1/2+y,z
1/2-x,1/2-y,z
1/2+x,1/2-y,-z
1/2-x,1/2+y,-z
1/2-x,1/2-y,-z
1/2+x,1/2+y,-z
1/2-x,1/2+y,z
1/2+x,1/2-y,z
loop_
_atom_site_type_symbol
_atom_site_label
_atom_site_fract_x
_atom_site_fract_y
_atom_site_fract_z
Si Si1 0.097009 0.141296 0.222402
Si Si2 0.402491 0.080326 0.210039
Si Si3 0.664249 0.711922 0.605660
Si Si4 0.402945 0.219993 0.103222
Si Si5 0.902965 0.000000 0.106890
Si Si6 0.906827 0.637507 0.600125
O O1 0.141899 0.145922 0.323160
O O2 0.126135 0.212986 0.166375
O O3 0.127966 0.071084 0.163917
O O4 0.000000 0.137795 0.236887
O O5 0.500000 0.086374 0.213823
O O6 0.367705 0.143026 0.142298
O O7 0.366347 0.093113 0.314448
O O8 0.374874 0.000000 0.174339
O O9 0.663978 0.680307 0.500000
O O10 0.750000 0.750000 0.629681
O O11 0.596576 0.775357 0.618743
O O12 0.500000 0.217564 0.100132
O O13 0.366980 0.231083 0.000000
O O14 0.000000 0.000000 0.101591
O O15 0.868805 0.000000 0.000000
O O16 0.863102 0.619351 0.500000
O O17 0.000000 0.613815 0.592608
#
# Coordination Sequence:
#
# PCOD8266865 Si02
#       6
#    16  16  16  16   8  16
#     4  10  18  32  55  81 107 138 177 221 271 325
#     4   9  16  25  39  65  97 126 160 201 244 292
#     4  10  20  33  52  76 103 135 173 214 259 317
#     4   9  16  26  43  68  97 129 164 203 249 303
#     4   9  18  32  55  89 117 137 173 230 286 328
#     4   9  16  28  47  70  95 123 159 205 253 300
#
# _framework density 20.535354999999999
#
# number of rings (size 3 to 8) (size 9 to 14) (size 15 to 20)
#    0.000    2.636    1.818    1.091    0.000    4.000 
#    0.000    4.091    2.000    3.818    0.000    0.000 
#    0.000    0.000    0.000    0.000    0.000    0.000 
#
# Total GULP energy -545241.917225 kJ/mol
# GULP energy per Si atom -12391.861755 kJ/mol
# Density = 2.048862 g / cm^3
# Si number density = 20.535355 Si / 1000 Ang^3
#
#
#
# Elastic Constant Matrix: (Units=GPa)
#
#
# Indices 1 2 3 4 5 6 
#
# 1 19.4477 12.2960 25.4761 0.0000 0.0000 0.0000
# 2 12.2960 143.0646 78.0815 0.0000 0.0000 0.0000
# 3 25.4761 78.0815 166.6845 0.0000 0.0000 0.0000
# 4 0.0000 0.0000 0.0000 32.8224 0.0000 0.0000
# 5 0.0000 0.0000 0.0000 0.0000 10.7999 0.0000
# 6 0.0000 0.0000 0.0000 0.0000 0.0000 10.3435
#
#
#
# Elastic Compliance Matrix: (Units=1/GPa)
#
#
# Indices 1 2 3 4 5 6 
#
# 1 0.064298 -0.000219 -0.009725 0.000000 0.000000 0.000000
# 2 -0.000219 0.009391 -0.004366 0.000000 0.000000 0.000000
# 3 -0.009725 -0.004366 0.009531 0.000000 0.000000 0.000000
# 4 0.000000 0.000000 0.000000 0.030467 0.000000 0.000000
# 5 0.000000 0.000000 0.000000 0.000000 0.092593 0.000000
# 6 0.000000 0.000000 0.000000 0.000000 0.000000 0.096679
#
#
# Mechanical properties :
#
#
# Convention : Reuss Voigt Hill
#
# Bulk Modulus (GPa) = 18.31463 62.32266 40.31864
# Shear Modulus (GPa) = 14.29476 25.01604 19.65540
#
# Velocity S-wave (km/s) = 2.64124 3.49405 3.09714
# Velocity P-wave (km/s) = 4.27077 6.83320 5.69790
#
# Compressibility (1/GPa) = 0.05460117
#
# Stress axis : x y z
#
# Youngs Moduli (GPa) = 15.55270 106.47974 104.92225
#
# Poissons Ratio (x) = 0.02328 1.02035
# Poissons Ratio (y) = 0.00340 0.45808
# Poissons Ratio (z) = 0.15125 0.46488
#
# Static dielectric constant tensor:
#      x y z
#    x 3.096320 0.000000 0.000000 
#    y 0.000000 3.708380 0.000000 
#    z 0.000000 0.000000 4.135670 
# 
# 
# High freq. dielectric constant tensor:
#      x y z
#    x 1.742250 0.000000 0.000000 
#    y 0.000000 1.784420 0.000000 
#    z 0.000000 0.000000 1.819740 
# 
# From -- ./inp_files/42487.got.cif
#   From: 2010.03.12/outbox.cif.g09.slc.cpg/sg65_22_cif.got.tgz:42487.got - 2010.04.10 20:52:16.
