data_PCOD8266628
_publ_section_title
;
Structure prediction by ZEFSAII (Michael W. Deem and Ramdas Pophale) SiO2 
 PCOD8266628
Probable space group: C M M M
;
_chemical_formula_sum "Si O2"
_cell_formula_units_Z 72
_cell_length_a 8.723233
_cell_length_b 25.555321
_cell_length_c 17.129738
_cell_angle_alpha 90.000000
_cell_angle_beta 90.000000
_cell_angle_gamma 90.000000
_cell_volume 3818.647177
_symmetry_space_group_name_H-M "C M M M"
_symmetry_group_IT_number 65
_symmetry_cell_setting 'orthorhombic'
loop_
_space_group_symop_operation_xyz
x,y,z
-x,-y,z
x,-y,-z
-x,y,-z
-x,-y,-z
x,y,-z
-x,y,z
x,-y,z
1/2+x,1/2+y,z
1/2-x,1/2-y,z
1/2+x,1/2-y,-z
1/2-x,1/2+y,-z
1/2-x,1/2-y,-z
1/2+x,1/2+y,-z
1/2-x,1/2+y,z
1/2+x,1/2-y,z
loop_
_atom_site_type_symbol
_atom_site_label
_atom_site_fract_x
_atom_site_fract_y
_atom_site_fract_z
Si Si1 0.817488 0.500000 0.087899
Si Si2 0.678497 0.335728 0.416642
Si Si3 0.325664 0.442716 0.351274
Si Si4 0.820966 0.408049 0.802014
Si Si5 0.818174 0.196339 0.248637
O O1 0.759288 0.553126 0.130183
O O2 0.000000 0.500000 0.090137
O O3 0.752986 0.500000 0.000000
O O4 0.750504 0.315650 0.500000
O O5 0.500000 0.322907 0.417663
O O6 0.708094 0.398272 0.415056
O O7 0.748024 0.310106 0.337917
O O8 0.500000 0.435623 0.319690
O O9 0.302632 0.500000 0.389549
O O10 0.210657 0.436906 0.279260
O O11 0.735123 0.352029 0.805124
O O12 0.000000 0.396989 0.811335
O O13 0.750000 0.250000 0.214050
O O14 0.000000 0.198394 0.247930
#
# Coordination Sequence:
#
# PCOD8266628 Si02
#       5
#     8  16  16  16  16
#     4   9  18  32  53  83 112 135 160 192 239 295
#     4   8  15  27  42  64  94 127 165 209 256 300
#     4   9  16  26  43  66  95 131 168 207 247 291
#     4  10  18  31  52  76 102 133 165 202 243 293
#     4  10  20  34  52  74  98 130 171 215 254 296
#
# _framework density 18.854845000000001
#
# number of rings (size 3 to 8) (size 9 to 14) (size 15 to 20)
#    0.000    2.778    1.111    2.667    0.000    0.889 
#    0.000    2.222    0.000   22.000    0.000    6.222 
#    0.000    0.000    0.000    0.000    0.000    0.000 
#
# Total GULP energy -446004.470754 kJ/mol
# GULP energy per Si atom -12389.013076 kJ/mol
# Density = 1.881193 g / cm^3
# Si number density = 18.854845 Si / 1000 Ang^3
#
#
#
# Elastic Constant Matrix: (Units=GPa)
#
#
# Indices 1 2 3 4 5 6 
#
# 1 47.4647 32.4435 17.1044 0.0000 0.0000 0.0000
# 2 32.4435 144.9775 36.8102 0.0000 0.0000 0.0000
# 3 17.1044 36.8102 88.8177 0.0000 0.0000 0.0000
# 4 0.0000 0.0000 0.0000 10.4438 0.0000 0.0000
# 5 0.0000 0.0000 0.0000 0.0000 14.5749 0.0000
# 6 0.0000 0.0000 0.0000 0.0000 0.0000 25.9743
#
#
#
# Elastic Compliance Matrix: (Units=1/GPa)
#
#
# Indices 1 2 3 4 5 6 
#
# 1 0.025500 -0.004984 -0.002845 0.000000 0.000000 0.000000
# 2 -0.004984 0.008683 -0.002639 0.000000 0.000000 0.000000
# 3 -0.002845 -0.002639 0.012901 0.000000 0.000000 0.000000
# 4 0.000000 0.000000 0.000000 0.095750 0.000000 0.000000
# 5 0.000000 0.000000 0.000000 0.000000 0.068611 0.000000
# 6 0.000000 0.000000 0.000000 0.000000 0.000000 0.038500
#
#
# Mechanical properties :
#
#
# Convention : Reuss Voigt Hill
#
# Bulk Modulus (GPa) = 38.24427 50.44180 44.34303
# Shear Modulus (GPa) = 17.88287 23.19206 20.53746
#
# Velocity S-wave (km/s) = 3.08303 3.51099 3.30395
# Velocity P-wave (km/s) = 5.74465 6.57623 6.17446
#
# Compressibility (1/GPa) = 0.02614771
#
# Stress axis : x y z
#
# Youngs Moduli (GPa) = 39.21509 115.16777 77.51595
#
# Poissons Ratio (x) = 0.57401 0.22055
# Poissons Ratio (y) = 0.19545 0.20455
# Poissons Ratio (z) = 0.11157 0.30390
#
# Static dielectric constant tensor:
#      x y z
#    x 3.130430 0.000000 0.000000 
#    y 0.000000 3.668280 0.000000 
#    z 0.000000 0.000000 3.369620 
# 
# 
# High freq. dielectric constant tensor:
#      x y z
#    x 1.702230 0.000000 0.000000 
#    y 0.000000 1.745660 0.000000 
#    z 0.000000 0.000000 1.690970 
# 
# From -- ./inp_files/49737.got.cif
#   From: 2010.03.12/outbox.cif.g09.slc.cpg/sg65_25_cif.got.tgz:49737.got - 2010.04.10 20:52:16.
