data_PCOD8266668
_publ_section_title
;
Structure prediction by ZEFSAII (Michael W. Deem and Ramdas Pophale) SiO2 
 PCOD8266668
Probable space group: C M M M
;
_chemical_formula_sum "Si O2"
_cell_formula_units_Z 104
_cell_length_a 27.065891
_cell_length_b 9.050792
_cell_length_c 21.250436
_cell_angle_alpha 90.000000
_cell_angle_beta 90.000000
_cell_angle_gamma 90.000000
_cell_volume 5205.671488
_symmetry_space_group_name_H-M "C M M M"
_symmetry_group_IT_number 65
_symmetry_cell_setting 'orthorhombic'
loop_
_space_group_symop_operation_xyz
x,y,z
-x,-y,z
x,-y,-z
-x,y,-z
-x,-y,-z
x,y,-z
-x,y,z
x,-y,z
1/2+x,1/2+y,z
1/2-x,1/2-y,z
1/2+x,1/2-y,-z
1/2-x,1/2+y,-z
1/2-x,1/2-y,-z
1/2+x,1/2+y,-z
1/2-x,1/2+y,z
1/2+x,1/2-y,z
loop_
_atom_site_type_symbol
_atom_site_label
_atom_site_fract_x
_atom_site_fract_y
_atom_site_fract_z
Si Si1 0.444138 0.666131 0.730104
Si Si2 0.000000 0.674758 0.070093
Si Si3 0.700263 0.826445 0.677563
Si Si4 0.093077 0.327545 0.153348
Si Si5 0.144518 0.829490 0.431548
Si Si6 0.299547 0.829848 0.178681
Si Si7 0.444128 0.830705 0.601964
O O1 0.500000 0.663279 0.754862
O O2 0.426965 0.500000 0.711258
O O3 0.410973 0.727622 0.785662
O O4 0.438501 0.779195 0.673617
O O5 0.051599 0.725924 0.103057
O O6 0.000000 0.500000 0.066616
O O7 0.000000 0.743309 0.000000
O O8 0.750000 0.750000 0.655107
O O9 0.661046 0.769673 0.627065
O O10 0.687693 0.779889 0.749427
O O11 0.705510 0.000000 0.670536
O O12 0.084269 0.500000 0.169474
O O13 0.151412 0.302960 0.134571
O O14 0.171068 0.803575 0.500000
O O15 0.088075 0.777299 0.441676
O O16 0.148317 0.000000 0.412483
O O17 0.250000 0.750000 0.152694
O O18 0.285091 0.000000 0.178602
O O19 0.500000 0.815432 0.578310
O O20 0.426126 0.000000 0.597081
#
# Coordination Sequence:
#
# PCOD8266668 Si02
#       7
#    16   8  16  16  16  16  16
#     4  10  19  30  48  77 109 137 171 215 273 337
#     4   9  18  32  53  83 117 155 196 235 274 313
#     4  10  20  36  57  79 105 134 171 219 275 336
#     4  10  18  31  53  79 110 147 188 232 272 321
#     4  11  24  39  54  74 101 135 177 223 274 332
#     4   9  19  33  52  80 108 137 175 221 278 334
#     4  10  21  36  54  75 101 135 175 220 271 327
#
# _framework density 19.978211000000002
#
# number of rings (size 3 to 8) (size 9 to 14) (size 15 to 20)
#    0.000    2.077    0.769    2.769    0.000    5.846 
#    0.000    1.538    0.000    1.385    0.000    0.000 
#    0.000    0.000    0.000    0.000    0.000    0.000 
#
# Total GULP energy -644248.841012 kJ/mol
# GULP energy per Si atom -12389.400789 kJ/mol
# Density = 1.993274 g / cm^3
# Si number density = 19.978211 Si / 1000 Ang^3
#
#
#
# Elastic Constant Matrix: (Units=GPa)
#
#
# Indices 1 2 3 4 5 6 
#
# 1 126.7837 33.6588 43.4321 0.0000 0.0000 0.0000
# 2 33.6588 63.7541 14.5806 0.0000 0.0000 0.0000
# 3 43.4321 14.5806 54.3982 0.0000 0.0000 0.0000
# 4 0.0000 0.0000 0.0000 9.7969 0.0000 0.0000
# 5 0.0000 0.0000 0.0000 0.0000 16.8084 0.0000
# 6 0.0000 0.0000 0.0000 0.0000 0.0000 34.3189
#
#
#
# Elastic Compliance Matrix: (Units=1/GPa)
#
#
# Indices 1 2 3 4 5 6 
#
# 1 0.011904 -0.004379 -0.008330 0.000000 0.000000 0.000000
# 2 -0.004379 0.018321 -0.001414 0.000000 0.000000 0.000000
# 3 -0.008330 -0.001414 0.025413 0.000000 0.000000 0.000000
# 4 0.000000 0.000000 0.000000 0.102073 0.000000 0.000000
# 5 0.000000 0.000000 0.000000 0.000000 0.059494 0.000000
# 6 0.000000 0.000000 0.000000 0.000000 0.000000 0.029138
#
#
# Mechanical properties :
#
#
# Convention : Reuss Voigt Hill
#
# Bulk Modulus (GPa) = 36.50958 47.58654 42.04806
# Shear Modulus (GPa) = 17.62297 22.40248 20.01272
#
# Velocity S-wave (km/s) = 2.97325 3.35228 3.16844
# Velocity P-wave (km/s) = 5.48647 6.23335 5.87180
#
# Compressibility (1/GPa) = 0.02739007
#
# Stress axis : x y z
#
# Youngs Moduli (GPa) = 84.00678 54.58285 39.35009
#
# Poissons Ratio (x) = 0.23904 0.32780
# Poissons Ratio (y) = 0.36790 0.05564
# Poissons Ratio (z) = 0.69980 0.07718
#
# Static dielectric constant tensor:
#      x y z
#    x 4.016250 0.000000 0.000000 
#    y 0.000000 3.562790 0.000000 
#    z 0.000000 0.000000 3.404320 
# 
# 
# High freq. dielectric constant tensor:
#      x y z
#    x 1.789800 0.000000 0.000000 
#    y 0.000000 1.774100 0.000000 
#    z 0.000000 0.000000 1.739200 
# 
# From -- ./inp_files/65920.got.cif
#   From: 2010.03.12/outbox.cif.g09.slc.cpg/sg65_33_cif.got.tgz:65920.got - 2010.04.10 20:52:16.
