data_PCOD8266235
_publ_section_title
;
Structure prediction by ZEFSAII (Michael W. Deem and Ramdas Pophale) SiO2 
 PCOD8266235
Probable space group: C M M M
;
_chemical_formula_sum "Si O2"
_cell_formula_units_Z 104
_cell_length_a 16.576524
_cell_length_b 35.676615
_cell_length_c 9.434295
_cell_angle_alpha 90.000000
_cell_angle_beta 90.000000
_cell_angle_gamma 90.000000
_cell_volume 5579.387955
_symmetry_space_group_name_H-M "C M M M"
_symmetry_group_IT_number 65
_symmetry_cell_setting 'orthorhombic'
loop_
_space_group_symop_operation_xyz
x,y,z
-x,-y,z
x,-y,-z
-x,y,-z
-x,-y,-z
x,y,-z
-x,y,z
x,-y,z
1/2+x,1/2+y,z
1/2-x,1/2-y,z
1/2+x,1/2-y,-z
1/2-x,1/2+y,-z
1/2-x,1/2-y,-z
1/2+x,1/2+y,-z
1/2-x,1/2+y,z
1/2+x,1/2-y,z
loop_
_atom_site_type_symbol
_atom_site_label
_atom_site_fract_x
_atom_site_fract_y
_atom_site_fract_z
Si Si1 0.095228 0.570969 0.661283
Si Si2 0.407844 0.457524 0.162876
Si Si3 0.000000 0.154347 0.331400
Si Si4 0.649568 0.392459 0.665031
Si Si5 0.500000 0.262115 0.668730
Si Si6 0.669825 0.772659 0.330706
Si Si7 0.096192 0.500000 0.838825
Si Si8 0.317354 0.856386 0.334714
O O1 0.128233 0.565676 0.500000
O O2 0.128694 0.537011 0.757819
O O3 0.123835 0.611032 0.725638
O O4 0.000000 0.570632 0.661294
O O5 0.500000 0.452841 0.215324
O O6 0.378980 0.500000 0.184402
O O7 0.348405 0.432018 0.255066
O O8 0.400871 0.445662 0.000000
O O9 0.922691 0.132504 0.274226
O O10 0.000000 0.156484 0.500000
O O11 0.000000 0.196028 0.269387
O O12 0.640211 0.401183 0.500000
O O13 0.727559 0.368678 0.700139
O O14 0.500000 0.260979 0.500000
O O15 0.583938 0.243764 0.723939
O O16 0.672831 0.772375 0.500000
O O17 0.750000 0.750000 0.275737
O O18 0.670477 0.815118 0.268197
O O19 0.000000 0.500000 0.838684
O O20 0.129367 0.500000 0.000000
O O21 0.334720 0.852752 0.500000
#
# Coordination Sequence:
#
# PCOD8266235 Si02
#       8
#    16  16   8  16   8  16   8  16
#     4   9  17  30  49  69  93 127 162 197 241 290
#     4   9  18  33  51  70  95 126 161 203 246 288
#     4   9  16  26  42  66  95 126 159 193 232 283
#     4  10  18  30  47  69  97 129 161 198 241 285
#     4   9  16  24  40  64  94 132 165 194 241 297
#     4   9  16  26  40  62  95 134 167 199 243 297
#     4   9  17  31  51  73  95 120 157 202 244 290
#     4   9  18  29  43  66  98 130 162 201 242 285
#
# _framework density 18.640037
#
# number of rings (size 3 to 8) (size 9 to 14) (size 15 to 20)
#    0.000    2.846    0.769    1.615    1.077    4.923 
#    1.385    1.538    0.000    0.000    0.000    0.000 
#    0.000   13.538    0.000    0.000    0.000    0.000 
#
# Total GULP energy -644468.104323 kJ/mol
# GULP energy per Si atom -12393.617391 kJ/mol
# Density = 1.859761 g / cm^3
# Si number density = 18.640037 Si / 1000 Ang^3
#
#
#
# Elastic Constant Matrix: (Units=GPa)
#
#
# Indices 1 2 3 4 5 6 
#
# 1 53.3977 64.1270 28.4382 0.0000 0.0000 0.0000
# 2 64.1270 161.2125 37.3545 0.0000 0.0000 0.0000
# 3 28.4382 37.3545 35.0859 0.0000 0.0000 0.0000
# 4 0.0000 0.0000 0.0000 0.8791 0.0000 0.0000
# 5 0.0000 0.0000 0.0000 0.0000 8.2916 0.0000
# 6 0.0000 0.0000 0.0000 0.0000 0.0000 29.8882
#
#
#
# Elastic Compliance Matrix: (Units=1/GPa)
#
#
# Indices 1 2 3 4 5 6 
#
# 1 0.047818 -0.013328 -0.024568 0.000000 0.000000 0.000000
# 2 -0.013328 0.011949 -0.001919 0.000000 0.000000 0.000000
# 3 -0.024568 -0.001919 0.050457 0.000000 0.000000 0.000000
# 4 0.000000 0.000000 0.000000 1.137551 0.000000 0.000000
# 5 0.000000 0.000000 0.000000 0.000000 0.120604 0.000000
# 6 0.000000 0.000000 0.000000 0.000000 0.000000 0.033458
#
#
# Mechanical properties :
#
#
# Convention : Reuss Voigt Hill
#
# Bulk Modulus (GPa) = 32.68549 56.61506 44.65028
# Shear Modulus (GPa) = 3.35196 15.79687 9.57441
#
# Velocity S-wave (km/s) = 1.34245 2.91429 2.26884
# Velocity P-wave (km/s) = 4.46946 6.46242 5.55603
#
# Compressibility (1/GPa) = 0.03059461
#
# Stress axis : x y z
#
# Youngs Moduli (GPa) = 20.91255 83.68608 19.81872
#
# Poissons Ratio (x) = 1.11541 0.48690
# Poissons Ratio (y) = 0.27873 0.03803
# Poissons Ratio (z) = 0.51377 0.16059
#
# Static dielectric constant tensor:
#      x y z
#    x 3.379450 0.000000 0.000000 
#    y 0.000000 3.856720 0.000000 
#    z 0.000000 0.000000 2.894880 
# 
# 
# High freq. dielectric constant tensor:
#      x y z
#    x 1.721370 0.000000 0.000000 
#    y 0.000000 1.741490 0.000000 
#    z 0.000000 0.000000 1.655410 
# 
# From -- ./inp_files/27739.got.cif
#   From: 2010.03.12/outbox.cif.g09.slc.cpg/sg65_14_cif.got.tgz:27739.got - 2010.04.10 20:52:16.
