data_PCOD8266249
_publ_section_title
;
Structure prediction by ZEFSAII (Michael W. Deem and Ramdas Pophale) SiO2 
 PCOD8266249
Probable space group: C M M M
;
_chemical_formula_sum "Si O2"
_cell_formula_units_Z 88
_cell_length_a 8.911357
_cell_length_b 28.356880
_cell_length_c 20.988366
_cell_angle_alpha 90.000000
_cell_angle_beta 90.000000
_cell_angle_gamma 90.000000
_cell_volume 5303.724011
_symmetry_space_group_name_H-M "C M M M"
_symmetry_group_IT_number 65
_symmetry_cell_setting 'orthorhombic'
loop_
_space_group_symop_operation_xyz
x,y,z
-x,-y,z
x,-y,-z
-x,y,-z
-x,-y,-z
x,y,-z
-x,y,z
x,-y,z
1/2+x,1/2+y,z
1/2-x,1/2-y,z
1/2+x,1/2-y,-z
1/2-x,1/2+y,-z
1/2-x,1/2-y,-z
1/2+x,1/2+y,-z
1/2-x,1/2+y,z
1/2+x,1/2-y,z
loop_
_atom_site_type_symbol
_atom_site_label
_atom_site_fract_x
_atom_site_fract_y
_atom_site_fract_z
Si Si1 0.178163 0.946464 0.569483
Si Si2 0.826873 0.892520 0.308558
Si Si3 0.668595 0.555923 0.069517
Si Si4 0.823593 0.553652 0.195643
Si Si5 0.820281 0.698141 0.500000
Si Si6 0.174127 0.200638 0.373861
O O1 0.239139 0.928868 0.500000
O O2 0.242794 0.915806 0.627506
O O3 0.000000 0.942733 0.568782
O O4 0.230323 0.000000 0.580647
O O5 0.738278 0.910769 0.247941
O O6 0.809160 0.835911 0.315257
O O7 0.000000 0.906994 0.300147
O O8 0.500000 0.574128 0.082403
O O9 0.671061 0.500000 0.067824
O O10 0.774120 0.573727 0.126634
O O11 0.724530 0.574765 0.000000
O O12 0.763594 0.500000 0.206827
O O13 0.000000 0.554365 0.198874
O O14 0.750000 0.750000 0.500000
O O15 0.754653 0.675684 0.435005
O O16 0.000000 0.697538 0.500000
O O17 0.250000 0.250000 0.354116
O O18 0.000000 0.209686 0.390429
#
# Coordination Sequence:
#
# PCOD8266249 Si02
#       6
#    16  16  16  16   8  16
#     4   8  14  25  42  63  83 105 141 190 233 262
#     4  10  20  31  48  67  86 118 157 195 232 276
#     4   8  14  26  45  67  91 122 159 194 224 258
#     4  10  20  31  44  66  98 131 158 188 228 273
#     4  10  18  30  48  66  85 110 139 178 232 287
#     4  10  20  33  49  68  89 114 147 191 241 289
#
# _framework density 16.592116000000001
#
# number of rings (size 3 to 8) (size 9 to 14) (size 15 to 20)
#    0.000    2.727    0.000    4.636    1.273    3.636 
#    0.000    1.818    0.000    0.000    0.000    2.545 
#    0.000    0.727    0.000    2.364    0.000    2.909 
#
# Total GULP energy -545234.055584 kJ/mol
# GULP energy per Si atom -12391.683081 kJ/mol
# Density = 1.655435 g / cm^3
# Si number density = 16.592116 Si / 1000 Ang^3
#
#
#
# Elastic Constant Matrix: (Units=GPa)
#
#
# Indices 1 2 3 4 5 6 
#
# 1 78.2325 28.3478 46.4280 0.0000 0.0000 0.0000
# 2 28.3478 53.5687 49.3561 0.0000 0.0000 0.0000
# 3 46.4280 49.3561 132.1311 0.0000 0.0000 0.0000
# 4 0.0000 0.0000 0.0000 12.7797 0.0000 0.0000
# 5 0.0000 0.0000 0.0000 0.0000 19.1793 0.0000
# 6 0.0000 0.0000 0.0000 0.0000 0.0000 16.9417
#
#
#
# Elastic Compliance Matrix: (Units=1/GPa)
#
#
# Indices 1 2 3 4 5 6 
#
# 1 0.017102 -0.005357 -0.004008 0.000000 0.000000 0.000000
# 2 -0.005357 0.030142 -0.009377 0.000000 0.000000 0.000000
# 3 -0.004008 -0.009377 0.012479 0.000000 0.000000 0.000000
# 4 0.000000 0.000000 0.000000 0.078249 0.000000 0.000000
# 5 0.000000 0.000000 0.000000 0.000000 0.052139 0.000000
# 6 0.000000 0.000000 0.000000 0.000000 0.000000 0.059026
#
#
# Mechanical properties :
#
#
# Convention : Reuss Voigt Hill
#
# Bulk Modulus (GPa) = 44.96602 56.91067 50.93834
# Shear Modulus (GPa) = 17.00473 19.10018 18.05246
#
# Velocity S-wave (km/s) = 3.20483 3.39656 3.30208
# Velocity P-wave (km/s) = 6.39173 7.05382 6.73092
#
# Compressibility (1/GPa) = 0.02223902
#
# Stress axis : x y z
#
# Youngs Moduli (GPa) = 58.47135 33.17628 80.13305
#
# Poissons Ratio (x) = 0.17773 0.32119
# Poissons Ratio (y) = 0.31325 0.75139
# Poissons Ratio (z) = 0.23437 0.31109
#
# Static dielectric constant tensor:
#      x y z
#    x 2.985030 0.000000 0.000000 
#    y 0.000000 2.875730 0.000000 
#    z 0.000000 0.000000 3.627190 
# 
# 
# High freq. dielectric constant tensor:
#      x y z
#    x 1.625760 0.000000 0.000000 
#    y 0.000000 1.603040 0.000000 
#    z 0.000000 0.000000 1.633460 
# 
# From -- ./inp_files/60648.got.cif
#   From: 2010.03.12/outbox.cif.g09.slc.cpg/sg65_31_cif.got.tgz:60648.got - 2010.04.10 20:52:16.
