data_PCOD8266648
_publ_section_title
;
Structure prediction by ZEFSAII (Michael W. Deem and Ramdas Pophale) SiO2 
 PCOD8266648
Probable space group: C M M M
;
_chemical_formula_sum "Si O2"
_cell_formula_units_Z 52
_cell_length_a 23.694170
_cell_length_b 13.301646
_cell_length_c 10.330243
_cell_angle_alpha 90.000000
_cell_angle_beta 90.000000
_cell_angle_gamma 90.000000
_cell_volume 3255.797785
_symmetry_space_group_name_H-M "C M M M"
_symmetry_group_IT_number 65
_symmetry_cell_setting 'orthorhombic'
loop_
_space_group_symop_operation_xyz
x,y,z
-x,-y,z
x,-y,-z
-x,y,-z
-x,-y,-z
x,y,-z
-x,y,z
x,-y,z
1/2+x,1/2+y,z
1/2-x,1/2-y,z
1/2+x,1/2-y,-z
1/2-x,1/2+y,-z
1/2-x,1/2-y,-z
1/2+x,1/2+y,-z
1/2-x,1/2+y,z
1/2+x,1/2-y,z
loop_
_atom_site_type_symbol
_atom_site_label
_atom_site_fract_x
_atom_site_fract_y
_atom_site_fract_z
Si Si1 0.185923 0.265178 0.142915
Si Si2 0.000000 0.614595 0.763082
Si Si3 0.881047 0.383739 0.356285
Si Si4 0.500000 0.733998 0.000000
Si Si5 0.617213 0.619210 0.000000
O O1 0.250000 0.250000 0.187202
O O2 0.157628 0.331708 0.251021
O O3 0.184210 0.319111 0.000000
O O4 0.151421 0.159574 0.127219
O O5 0.946390 0.634473 0.673430
O O6 0.000000 0.500000 0.817732
O O7 0.000000 0.693554 0.877897
O O8 0.868691 0.340534 0.500000
O O9 0.865561 0.500000 0.351170
O O10 0.445802 0.662634 0.000000
O O11 0.615181 0.500000 0.000000
#
# Coordination Sequence:
#
# PCOD8266648 Si02
#       5
#    16   8  16   4   8
#     4   9  19  36  53  78 101 137 171 214 256 295
#     4  10  18  31  52  78 108 131 163 209 264 317
#     4  10  20  33  52  79 108 136 164 202 260 322
#     4  12  18  32  54  80  96 136 170 220 262 298
#     4  10  20  34  52  76 102 132 174 216 256 298
#
# _framework density 15.971508
#
# number of rings (size 3 to 8) (size 9 to 14) (size 15 to 20)
#    0.923    1.231    3.077    0.923    0.000    4.308 
#    0.000    0.000    0.000    0.923    0.000    2.154 
#    0.000    0.000    0.000    0.000    0.000    0.000 
#
# Total GULP energy -322165.566948 kJ/mol
# GULP energy per Si atom -12390.983344 kJ/mol
# Density = 1.593516 g / cm^3
# Si number density = 15.971508 Si / 1000 Ang^3
#
#
#
# Elastic Constant Matrix: (Units=GPa)
#
#
# Indices 1 2 3 4 5 6 
#
# 1 145.9263 58.3265 57.1454 0.0000 0.0000 0.0000
# 2 58.3265 82.8288 57.3314 0.0000 0.0000 0.0000
# 3 57.1454 57.3314 119.8834 0.0000 0.0000 0.0000
# 4 0.0000 0.0000 0.0000 12.1440 0.0000 0.0000
# 5 0.0000 0.0000 0.0000 0.0000 16.7105 0.0000
# 6 0.0000 0.0000 0.0000 0.0000 0.0000 7.9473
#
#
#
# Elastic Compliance Matrix: (Units=1/GPa)
#
#
# Indices 1 2 3 4 5 6 
#
# 1 0.009867 -0.005520 -0.002064 0.000000 0.000000 0.000000
# 2 -0.005520 0.021135 -0.007476 0.000000 0.000000 0.000000
# 3 -0.002064 -0.007476 0.012900 0.000000 0.000000 0.000000
# 4 0.000000 0.000000 0.000000 0.082345 0.000000 0.000000
# 5 0.000000 0.000000 0.000000 0.000000 0.059842 0.000000
# 6 0.000000 0.000000 0.000000 0.000000 0.000000 0.125829
#
#
# Mechanical properties :
#
#
# Convention : Reuss Voigt Hill
#
# Bulk Modulus (GPa) = 72.55228 77.13834 74.84531
# Shear Modulus (GPa) = 14.42449 19.08271 16.75360
#
# Velocity S-wave (km/s) = 3.00849 3.46033 3.24229
# Velocity P-wave (km/s) = 7.58898 8.02294 7.80898
#
# Compressibility (1/GPa) = 0.01378316
#
# Stress axis : x y z
#
# Youngs Moduli (GPa) = 101.34565 47.31540 77.51711
#
# Poissons Ratio (x) = 0.26118 0.15997
# Poissons Ratio (y) = 0.55942 0.57952
# Poissons Ratio (z) = 0.20915 0.35373
#
# Static dielectric constant tensor:
#      x y z
#    x 3.284410 0.000000 0.000000 
#    y 0.000000 2.786800 0.000000 
#    z 0.000000 0.000000 3.186160 
# 
# 
# High freq. dielectric constant tensor:
#      x y z
#    x 1.631200 0.000000 0.000000 
#    y 0.000000 1.587720 0.000000 
#    z 0.000000 0.000000 1.606700 
# 
# From -- ./inp_files/15345.got.cif
#   From: 2010.03.12/outbox.cif.g09.slc.cpg/sg65_8_cif.got.tgz:15345.got - 2010.04.10 20:52:16.
