data_PCOD8266273
_publ_section_title
;
Structure prediction by ZEFSAII (Michael W. Deem and Ramdas Pophale) SiO2 
 PCOD8266273
Probable space group: C M M M
;
_chemical_formula_sum "Si O2"
_cell_formula_units_Z 104
_cell_length_a 28.067331
_cell_length_b 24.109500
_cell_length_c 9.156268
_cell_angle_alpha 90.000000
_cell_angle_beta 90.000000
_cell_angle_gamma 90.000000
_cell_volume 6195.948737
_symmetry_space_group_name_H-M "C M M M"
_symmetry_group_IT_number 65
_symmetry_cell_setting 'orthorhombic'
loop_
_space_group_symop_operation_xyz
x,y,z
-x,-y,z
x,-y,-z
-x,y,-z
-x,-y,-z
x,y,-z
-x,y,z
x,-y,z
1/2+x,1/2+y,z
1/2-x,1/2-y,z
1/2+x,1/2-y,-z
1/2-x,1/2+y,-z
1/2-x,1/2-y,-z
1/2+x,1/2+y,-z
1/2-x,1/2+y,z
1/2+x,1/2-y,z
loop_
_atom_site_type_symbol
_atom_site_label
_atom_site_fract_x
_atom_site_fract_y
_atom_site_fract_z
Si Si1 0.632667 0.436203 0.829172
Si Si2 0.054397 0.740955 0.331824
Si Si3 0.000000 0.437752 0.673476
Si Si4 0.094129 0.623474 0.328700
Si Si5 0.946253 0.149752 0.828222
Si Si6 0.774020 0.065821 0.664514
Si Si7 0.820258 0.564414 0.828078
O O1 0.621914 0.500000 0.789521
O O2 0.586859 0.401137 0.778673
O O3 0.678223 0.412515 0.742767
O O4 0.643431 0.429331 0.000000
O O5 0.057545 0.757688 0.500000
O O6 0.088155 0.688761 0.298102
O O7 0.073115 0.793192 0.240155
O O8 0.000000 0.725416 0.290036
O O9 0.047078 0.407250 0.730701
O O10 0.000000 0.500000 0.735218
O O11 0.000000 0.436263 0.500000
O O12 0.102516 0.611299 0.500000
O O13 0.137937 0.601522 0.236063
O O14 0.000000 0.137229 0.773365
O O15 0.944922 0.157352 0.000000
O O16 0.771590 0.089606 0.500000
O O17 0.728322 0.086265 0.754793
O O18 0.774969 0.000000 0.663612
O O19 0.829809 0.500000 0.789876
O O20 0.816193 0.573686 0.000000
#
# Coordination Sequence:
#
# PCOD8266273 Si02
#       7
#    16  16   8  16  16  16  16
#     4   9  17  30  49  73 101 130 157 190 234 280
#     4   9  17  31  49  68  92 124 165 206 240 277
#     4   9  16  26  43  67  93 121 154 195 240 284
#     4  10  18  30  48  69  92 123 164 204 241 283
#     4   9  18  31  48  72 100 130 163 194 228 278
#     4   9  17  30  49  71  94 123 160 197 233 282
#     4  10  20  32  46  68  98 128 158 195 242 291
#
# _framework density 16.785162
#
# number of rings (size 3 to 8) (size 9 to 14) (size 15 to 20)
#    0.000    2.692    0.769    1.385    0.000    4.923 
#    0.000    1.923    0.000    2.308    0.000   10.769 
#    0.000    0.000    0.000    0.000    0.000    0.000 
#
# Total GULP energy -644795.775135 kJ/mol
# GULP energy per Si atom -12399.918753 kJ/mol
# Density = 1.674696 g / cm^3
# Si number density = 16.785162 Si / 1000 Ang^3
#
#
#
# Elastic Constant Matrix: (Units=GPa)
#
#
# Indices 1 2 3 4 5 6 
#
# 1 131.7288 66.5731 56.8371 0.0000 0.0000 0.0000
# 2 66.5731 86.1566 40.5182 0.0000 0.0000 0.0000
# 3 56.8371 40.5182 64.7729 0.0000 0.0000 0.0000
# 4 0.0000 0.0000 0.0000 24.6262 0.0000 0.0000
# 5 0.0000 0.0000 0.0000 0.0000 29.5866 0.0000
# 6 0.0000 0.0000 0.0000 0.0000 0.0000 8.8202
#
#
#
# Elastic Compliance Matrix: (Units=1/GPa)
#
#
# Indices 1 2 3 4 5 6 
#
# 1 0.015144 -0.007725 -0.008456 0.000000 0.000000 0.000000
# 2 -0.007725 0.020385 -0.005973 0.000000 0.000000 0.000000
# 3 -0.008456 -0.005973 0.026595 0.000000 0.000000 0.000000
# 4 0.000000 0.000000 0.000000 0.040607 0.000000 0.000000
# 5 0.000000 0.000000 0.000000 0.000000 0.033799 0.000000
# 6 0.000000 0.000000 0.000000 0.000000 0.000000 0.113376
#
#
# Mechanical properties :
#
#
# Convention : Reuss Voigt Hill
#
# Bulk Modulus (GPa) = 56.13118 67.83499 61.98308
# Shear Modulus (GPa) = 16.65814 20.52192 18.59003
#
# Velocity S-wave (km/s) = 3.15371 3.50040 3.33156
# Velocity P-wave (km/s) = 6.83920 7.53913 7.19768
#
# Compressibility (1/GPa) = 0.01781541
#
# Stress axis : x y z
#
# Youngs Moduli (GPa) = 66.03270 49.05605 37.60056
#
# Poissons Ratio (x) = 0.37895 0.31796
# Poissons Ratio (y) = 0.51009 0.22459
# Poissons Ratio (z) = 0.55840 0.29302
#
# Static dielectric constant tensor:
#      x y z
#    x 3.239710 0.000000 0.000000 
#    y 0.000000 3.033050 0.000000 
#    z 0.000000 0.000000 3.099810 
# 
# 
# High freq. dielectric constant tensor:
#      x y z
#    x 1.645450 0.000000 0.000000 
#    y 0.000000 1.624930 0.000000 
#    z 0.000000 0.000000 1.640770 
# 
# From -- ./inp_files/14818.got.cif
#   From: 2010.03.12/outbox.cif.g09.slc.cpg/sg65_8_cif.got.tgz:14818.got - 2010.04.10 20:52:16.
