data_PCOD8266682
_publ_section_title
;
Structure prediction by ZEFSAII (Michael W. Deem and Ramdas Pophale) SiO2 
 PCOD8266682
Probable space group: C M M M
;
_chemical_formula_sum "Si O2"
_cell_formula_units_Z 72
_cell_length_a 22.085128
_cell_length_b 19.183803
_cell_length_c 9.024021
_cell_angle_alpha 90.000000
_cell_angle_beta 90.000000
_cell_angle_gamma 90.000000
_cell_volume 3823.267842
_symmetry_space_group_name_H-M "C M M M"
_symmetry_group_IT_number 65
_symmetry_cell_setting 'orthorhombic'
loop_
_space_group_symop_operation_xyz
x,y,z
-x,-y,z
x,-y,-z
-x,y,-z
-x,-y,-z
x,y,-z
-x,y,z
x,-y,z
1/2+x,1/2+y,z
1/2-x,1/2-y,z
1/2+x,1/2-y,-z
1/2-x,1/2+y,-z
1/2-x,1/2-y,-z
1/2+x,1/2+y,-z
1/2-x,1/2+y,z
1/2+x,1/2-y,z
loop_
_atom_site_type_symbol
_atom_site_label
_atom_site_fract_x
_atom_site_fract_y
_atom_site_fract_z
Si Si1 0.000000 0.578185 0.675924
Si Si2 0.069590 0.198586 0.174253
Si Si3 0.774534 0.577117 0.324241
Si Si4 0.361292 0.581352 0.328899
Si Si5 0.614186 0.833118 0.323772
O O1 0.940826 0.618666 0.732835
O O2 0.000000 0.500000 0.742217
O O3 0.000000 0.574417 0.500000
O O4 0.091930 0.123366 0.228290
O O5 0.109914 0.257287 0.252415
O O6 0.000000 0.208124 0.221644
O O7 0.077993 0.204228 0.000000
O O8 0.778346 0.572588 0.500000
O O9 0.789015 0.500000 0.259748
O O10 0.707074 0.600387 0.277679
O O11 0.823618 0.632278 0.265136
O O12 0.371045 0.601720 0.500000
O O13 0.374020 0.500000 0.304149
O O14 0.613329 0.824989 0.500000
#
# Coordination Sequence:
#
# PCOD8266682 Si02
#       5
#     8  16  16  16  16
#     4   9  16  26  47  81 110 135 174 219 255 292
#     4  11  24  39  53  72 106 146 180 220 267 314
#     4   8  15  30  54  84 113 137 167 215 269 315
#     4   9  19  37  60  83 105 132 171 219 270 323
#     4  10  18  31  54  81 109 141 177 216 257 309
#
# _framework density 18.832058
#
# number of rings (size 3 to 8) (size 9 to 14) (size 15 to 20)
#    0.000    2.556    1.111    2.667    0.000    5.778 
#    0.000    7.778    0.000    4.667    0.000    0.000 
#    0.000    0.000    0.000    0.000    0.000    0.000 
#
# Total GULP energy -446400.456906 kJ/mol
# GULP energy per Si atom -12400.012692 kJ/mol
# Density = 1.878920 g / cm^3
# Si number density = 18.832058 Si / 1000 Ang^3
#
#
#
# Elastic Constant Matrix: (Units=GPa)
#
#
# Indices 1 2 3 4 5 6 
#
# 1 78.5986 52.3525 35.1898 0.0000 0.0000 0.0000
# 2 52.3525 105.8182 32.8031 0.0000 0.0000 0.0000
# 3 35.1898 32.8031 36.8605 0.0000 0.0000 0.0000
# 4 0.0000 0.0000 0.0000 2.3139 0.0000 0.0000
# 5 0.0000 0.0000 0.0000 0.0000 15.4748 0.0000
# 6 0.0000 0.0000 0.0000 0.0000 0.0000 36.1454
#
#
#
# Elastic Compliance Matrix: (Units=1/GPa)
#
#
# Indices 1 2 3 4 5 6 
#
# 1 0.025492 -0.006998 -0.018108 0.000000 0.000000 0.000000
# 2 -0.006998 0.014972 -0.006643 0.000000 0.000000 0.000000
# 3 -0.018108 -0.006643 0.050328 0.000000 0.000000 0.000000
# 4 0.000000 0.000000 0.000000 0.432180 0.000000 0.000000
# 5 0.000000 0.000000 0.000000 0.000000 0.064621 0.000000
# 6 0.000000 0.000000 0.000000 0.000000 0.000000 0.027666
#
#
# Mechanical properties :
#
#
# Convention : Reuss Voigt Hill
#
# Bulk Modulus (GPa) = 36.63912 51.32981 43.98447
# Shear Modulus (GPa) = 7.26898 17.51561 12.39229
#
# Velocity S-wave (km/s) = 1.96679 3.05305 2.56802
# Velocity P-wave (km/s) = 4.96545 6.30428 5.67449
#
# Compressibility (1/GPa) = 0.02729323
#
# Stress axis : x y z
#
# Youngs Moduli (GPa) = 39.22863 66.79294 19.86957
#
# Poissons Ratio (x) = 0.46743 0.35980
# Poissons Ratio (y) = 0.27453 0.13199
# Poissons Ratio (z) = 0.71036 0.44368
#
# Static dielectric constant tensor:
#      x y z
#    x 3.657660 0.000000 0.000000 
#    y 0.000000 3.503350 0.000000 
#    z 0.000000 0.000000 2.971920 
# 
# 
# High freq. dielectric constant tensor:
#      x y z
#    x 1.738930 0.000000 0.000000 
#    y 0.000000 1.739380 0.000000 
#    z 0.000000 0.000000 1.684210 
# 
# From -- ./inp_files/9222.got.cif
#   From: 2010.03.12/outbox.cif.g09.slc.cpg/sg65_5_cif.got.tgz:9222.got - 2010.04.10 20:52:16.
