data_PCOD8266028
_publ_section_title
;
Structure prediction by ZEFSAII (Michael W. Deem and Ramdas Pophale) SiO2 
 PCOD8266028
Probable space group: C M M M
;
_chemical_formula_sum "Si O2"
_cell_formula_units_Z 104
_cell_length_a 23.010055
_cell_length_b 18.665561
_cell_length_c 13.799854
_cell_angle_alpha 90.000000
_cell_angle_beta 90.000000
_cell_angle_gamma 90.000000
_cell_volume 5926.976370
_symmetry_space_group_name_H-M "C M M M"
_symmetry_group_IT_number 65
_symmetry_cell_setting 'orthorhombic'
loop_
_space_group_symop_operation_xyz
x,y,z
-x,-y,z
x,-y,-z
-x,y,-z
-x,-y,-z
x,y,-z
-x,y,z
x,-y,z
1/2+x,1/2+y,z
1/2-x,1/2-y,z
1/2+x,1/2-y,-z
1/2-x,1/2+y,-z
1/2-x,1/2-y,-z
1/2+x,1/2+y,-z
1/2-x,1/2+y,z
1/2+x,1/2-y,z
loop_
_atom_site_type_symbol
_atom_site_label
_atom_site_fract_x
_atom_site_fract_y
_atom_site_fract_z
Si Si1 0.375689 0.084596 0.720023
Si Si2 0.063728 0.084130 0.500000
Si Si3 0.432690 0.301605 0.226651
Si Si4 0.363486 0.415645 0.313753
Si Si5 0.739676 0.915442 0.390253
Si Si6 0.567198 0.165990 0.888615
Si Si7 0.432335 0.801631 0.604999
O O1 0.311880 0.107787 0.681896
O O2 0.389153 0.116572 0.826443
O O3 0.420014 0.117993 0.642530
O O4 0.383877 0.000000 0.723079
O O5 0.097439 0.107856 0.404756
O O6 0.000000 0.121170 0.500000
O O7 0.056931 0.000000 0.500000
O O8 0.500000 0.325449 0.235557
O O9 0.391088 0.371917 0.222616
O O10 0.423645 0.250663 0.133252
O O11 0.409338 0.255941 0.318368
O O12 0.366602 0.500000 0.290337
O O13 0.298541 0.389722 0.337745
O O14 0.733554 0.883047 0.500000
O O15 0.741770 0.000000 0.401892
O O16 0.500000 0.145987 0.863988
O O17 0.581917 0.151481 0.000000
O O18 0.402705 0.788915 0.500000
O O19 0.500000 0.793077 0.594987
#
# Coordination Sequence:
#
# PCOD8266028 Si02
#       7
#    16   8  16  16  16  16  16
#     4  10  19  31  50  73  95 123 163 204 242 293
#     4   9  16  24  38  66  99 128 160 200 241 274
#     4   9  18  31  49  72  98 130 164 200 249 305
#     4  10  18  29  46  70 102 135 169 208 241 275
#     4   9  17  30  46  67 101 142 174 198 233 281
#     4   9  19  37  57  75  97 123 153 200 265 321
#     4   9  18  30  42  62  96 132 160 191 236 289
#
# _framework density 17.546890000000001
#
# number of rings (size 3 to 8) (size 9 to 14) (size 15 to 20)
#    0.000    2.692    0.769    2.308    1.077    3.385 
#    0.000    4.615    0.000    6.923    0.000    4.308 
#    0.000    0.000    0.000    0.000    0.000    0.000 
#
# Total GULP energy -644396.160185 kJ/mol
# GULP energy per Si atom -12392.233850 kJ/mol
# Density = 1.750695 g / cm^3
# Si number density = 17.546890 Si / 1000 Ang^3
#
#
#
# Elastic Constant Matrix: (Units=GPa)
#
#
# Indices 1 2 3 4 5 6 
#
# 1 70.5956 32.9499 37.5402 0.0000 0.0000 0.0000
# 2 32.9499 66.0167 20.6865 0.0000 0.0000 0.0000
# 3 37.5402 20.6865 73.9698 0.0000 0.0000 0.0000
# 4 0.0000 0.0000 0.0000 20.0631 0.0000 0.0000
# 5 0.0000 0.0000 0.0000 0.0000 42.3513 0.0000
# 6 0.0000 0.0000 0.0000 0.0000 0.0000 20.4178
#
#
#
# Elastic Compliance Matrix: (Units=1/GPa)
#
#
# Indices 1 2 3 4 5 6 
#
# 1 0.023162 -0.008634 -0.009340 0.000000 0.000000 0.000000
# 2 -0.008634 0.019821 -0.001162 0.000000 0.000000 0.000000
# 3 -0.009340 -0.001162 0.018584 0.000000 0.000000 0.000000
# 4 0.000000 0.000000 0.000000 0.049843 0.000000 0.000000
# 5 0.000000 0.000000 0.000000 0.000000 0.023612 0.000000
# 6 0.000000 0.000000 0.000000 0.000000 0.000000 0.048977
#
#
# Mechanical properties :
#
#
# Convention : Reuss Voigt Hill
#
# Bulk Modulus (GPa) = 42.92594 43.65947 43.29271
# Shear Modulus (GPa) = 21.73591 24.52680 23.13136
#
# Velocity S-wave (km/s) = 3.52338 3.74275 3.63472
# Velocity P-wave (km/s) = 6.40851 6.60403 6.50700
#
# Compressibility (1/GPa) = 0.02329593
#
# Stress axis : x y z
#
# Youngs Moduli (GPa) = 43.17491 50.45212 53.80945
#
# Poissons Ratio (x) = 0.43558 0.50259
# Poissons Ratio (y) = 0.37275 0.06250
# Poissons Ratio (z) = 0.40326 0.05860
#
# Static dielectric constant tensor:
#      x y z
#    x 3.354840 0.000000 0.000000 
#    y 0.000000 3.150450 0.000000 
#    z 0.000000 0.000000 3.322440 
# 
# 
# High freq. dielectric constant tensor:
#      x y z
#    x 1.669620 0.000000 0.000000 
#    y 0.000000 1.668330 0.000000 
#    z 0.000000 0.000000 1.651900 
# 
# From -- ./inp_files/45911.got.cif
#   From: 2010.03.12/outbox.cif.g09.slc.cpg/sg65_23_cif.got.tgz:45911.got - 2010.04.10 20:52:16.
