data_PCOD8266968
_publ_section_title
;
Structure prediction by ZEFSAII (Michael W. Deem and Ramdas Pophale) SiO2 
 PCOD8266968
Probable space group: C M M M
;
_chemical_formula_sum "Si O2"
_cell_formula_units_Z 104
_cell_length_a 7.693828
_cell_length_b 23.901681
_cell_length_c 30.210513
_cell_angle_alpha 90.000000
_cell_angle_beta 90.000000
_cell_angle_gamma 90.000000
_cell_volume 5555.575053
_symmetry_space_group_name_H-M "C M M M"
_symmetry_group_IT_number 65
_symmetry_cell_setting 'orthorhombic'
loop_
_space_group_symop_operation_xyz
x,y,z
-x,-y,z
x,-y,-z
-x,y,-z
-x,-y,-z
x,y,-z
-x,y,z
x,-y,z
1/2+x,1/2+y,z
1/2-x,1/2-y,z
1/2+x,1/2-y,-z
1/2-x,1/2+y,-z
1/2-x,1/2-y,-z
1/2+x,1/2+y,-z
1/2-x,1/2+y,z
1/2+x,1/2-y,z
loop_
_atom_site_type_symbol
_atom_site_label
_atom_site_fract_x
_atom_site_fract_y
_atom_site_fract_z
Si Si1 0.703110 0.565687 0.385126
Si Si2 0.500000 0.933939 0.549054
Si Si3 0.202760 0.000000 0.157263
Si Si4 0.795193 0.878868 0.868932
Si Si5 0.304948 0.000000 0.253293
Si Si6 0.195726 0.888296 0.705853
Si Si7 0.705066 0.685331 0.217033
Si Si8 0.204514 0.812456 0.951235
O O1 0.500000 0.577497 0.396127
O O2 0.729276 0.500000 0.374101
O O3 0.774953 0.601748 0.343134
O O4 0.823590 0.584929 0.425954
O O5 0.500000 0.906730 0.500000
O O6 0.500000 0.000000 0.544824
O O7 0.251300 0.944532 0.129685
O O8 0.318565 0.000000 0.200693
O O9 0.000000 0.000000 0.170448
O O10 0.716947 0.847738 0.825419
O O11 0.713854 0.852829 0.913772
O O12 0.000000 0.868667 0.868662
O O13 0.198291 0.053737 0.268060
O O14 0.500000 0.000000 0.273170
O O15 0.286345 0.841090 0.737292
O O16 0.000000 0.869603 0.697544
O O17 0.500000 0.675908 0.218476
O O18 0.750000 0.750000 0.213571
O O19 0.250000 0.750000 0.936579
O O20 0.000000 0.820663 0.953587
O O21 0.284914 0.825625 0.000000
#
# Coordination Sequence:
#
# PCOD8266968 Si02
#       8
#    16   8   8  16   8  16  16  16
#     4   9  17  28  46  69  94 129 171 206 246 299
#     4   9  18  30  44  66 102 138 168 206 251 296
#     4  10  18  34  51  64  90 126 163 191 238 300
#     4   9  17  30  50  69  89 125 161 194 237 292
#     4  12  22  28  46  75  97 122 163 210 245 273
#     4  10  19  33  50  67  95 135 168 199 241 297
#     4  10  20  33  48  67  94 129 164 197 241 294
#     4   9  17  30  48  71  94 117 154 200 244 291
#
# _framework density 18.719935
#
# number of rings (size 3 to 8) (size 9 to 14) (size 15 to 20)
#    0.000    2.385    2.308    1.154    1.077    0.923 
#    0.000    2.692    0.000    2.308    0.000    0.000 
#    0.000    3.692    0.308    0.000    0.000    0.000 
#
# Total GULP energy -644354.634538 kJ/mol
# GULP energy per Si atom -12391.435280 kJ/mol
# Density = 1.867733 g / cm^3
# Si number density = 18.719935 Si / 1000 Ang^3
#
#
#
# Elastic Constant Matrix: (Units=GPa)
#
#
# Indices 1 2 3 4 5 6 
#
# 1 40.8547 7.8321 31.4655 0.0000 0.0000 0.0000
# 2 7.8321 115.4013 72.1946 0.0000 0.0000 0.0000
# 3 31.4655 72.1946 175.3972 0.0000 0.0000 0.0000
# 4 0.0000 0.0000 0.0000 -41.6584 0.0000 0.0000
# 5 0.0000 0.0000 0.0000 0.0000 11.1313 0.0000
# 6 0.0000 0.0000 0.0000 0.0000 0.0000 14.6177
#
#
#
# Elastic Compliance Matrix: (Units=1/GPa)
#
#
# Indices 1 2 3 4 5 6 
#
# 1 0.028650 0.001712 -0.005844 0.000000 0.000000 0.000000
# 2 0.001712 0.011773 -0.005153 0.000000 0.000000 0.000000
# 3 -0.005844 -0.005153 0.008871 0.000000 0.000000 0.000000
# 4 0.000000 0.000000 0.000000 -0.024005 0.000000 0.000000
# 5 0.000000 0.000000 0.000000 0.000000 0.089837 0.000000
# 6 0.000000 0.000000 0.000000 0.000000 0.000000 0.068410
#
#
# Mechanical properties :
#
#
# Convention : Reuss Voigt Hill
#
# Bulk Modulus (GPa) = 32.54914 61.62639 47.08777
# Shear Modulus (GPa) = 23.54631 11.49551 17.52091
#
# Velocity S-wave (km/s) = 3.55042 2.48075 3.06265
# Velocity P-wave (km/s) = 5.85086 6.41850 6.14124
#
# Compressibility (1/GPa) = 0.03072278
#
# Stress axis : x y z
#
# Youngs Moduli (GPa) = 34.90404 84.94127 112.73050
#
# Poissons Ratio (x) = -0.14539 0.65882
# Poissons Ratio (y) = -0.05974 0.58088
# Poissons Ratio (z) = 0.20399 0.43769
#
# Static dielectric constant tensor:
#      x y z
#    x 3.210230 0.000000 0.000000 
#    y 0.000000 3.330890 0.000000 
#    z 0.000000 0.000000 3.822900 
# 
# 
# High freq. dielectric constant tensor:
#      x y z
#    x 1.710730 0.000000 0.000000 
#    y 0.000000 1.693110 0.000000 
#    z 0.000000 0.000000 1.724050 
# 
# From -- ./inp_files/73664.got.cif
#   From: 2010.03.12/outbox.cif.g09.slc.cpg/sg65_37_cif.got.tgz:73664.got - 2010.04.10 20:52:16.
