data_PCOD8266973
_publ_section_title
;
Structure prediction by ZEFSAII (Michael W. Deem and Ramdas Pophale) SiO2 
 PCOD8266973
Probable space group: C M M M
;
_chemical_formula_sum "Si O2"
_cell_formula_units_Z 72
_cell_length_a 30.793851
_cell_length_b 14.476756
_cell_length_c 8.519936
_cell_angle_alpha 90.000000
_cell_angle_beta 90.000000
_cell_angle_gamma 90.000000
_cell_volume 3798.145442
_symmetry_space_group_name_H-M "C M M M"
_symmetry_group_IT_number 65
_symmetry_cell_setting 'orthorhombic'
loop_
_space_group_symop_operation_xyz
x,y,z
-x,-y,z
x,-y,-z
-x,y,-z
-x,-y,-z
x,y,-z
-x,y,z
x,-y,z
1/2+x,1/2+y,z
1/2-x,1/2-y,z
1/2+x,1/2-y,-z
1/2-x,1/2+y,-z
1/2-x,1/2-y,-z
1/2+x,1/2+y,-z
1/2-x,1/2+y,z
1/2+x,1/2-y,z
loop_
_atom_site_type_symbol
_atom_site_label
_atom_site_fract_x
_atom_site_fract_y
_atom_site_fract_z
Si Si1 0.741811 0.000000 0.181359
Si Si2 0.448858 0.000000 0.329923
Si Si3 0.836600 0.000000 0.314840
Si Si4 0.951574 0.301476 0.688129
Si Si5 0.369815 0.307363 0.313307
Si Si6 0.209893 0.315540 0.316004
O O1 0.785693 0.000000 0.281351
O O2 0.713293 0.910721 0.222237
O O3 0.754323 0.000000 0.000000
O O4 0.437229 0.096977 0.243093
O O5 0.500000 0.000000 0.356409
O O6 0.425345 0.000000 0.500000
O O7 0.859550 0.908775 0.242753
O O8 0.842384 0.000000 0.500000
O O9 0.951338 0.308164 0.500000
O O10 0.917070 0.225645 0.748091
O O11 0.000000 0.273714 0.746938
O O12 0.368693 0.312470 0.500000
O O13 0.333591 0.234982 0.256551
O O14 0.208636 0.337832 0.500000
O O15 0.250000 0.250000 0.273825
#
# Coordination Sequence:
#
# PCOD8266973 Si02
#       6
#     8   8   8  16  16  16
#     4  12  24  35  51  76 105 133 165 211 266 305
#     4   7  10  17  30  48  79 120 150 180 232 291
#     4  10  18  34  52  69  96 134 177 207 247 306
#     4   8  13  22  37  63  97 128 159 200 251 299
#     4   9  17  28  47  69  93 132 173 206 244 300
#     4  10  19  34  54  74  98 133 172 208 246 297
#
# _framework density 18.956620000000001
#
# number of rings (size 3 to 8) (size 9 to 14) (size 15 to 20)
#    0.000    2.778    2.222    2.333    0.000    1.333 
#    0.000    3.889    0.000    3.333    0.000    0.000 
#    0.000    5.333    0.000    0.000    0.000    0.000 
#
# Total GULP energy -446099.414060 kJ/mol
# GULP energy per Si atom -12391.650391 kJ/mol
# Density = 1.891347 g / cm^3
# Si number density = 18.956620 Si / 1000 Ang^3
#
#
#
# Elastic Constant Matrix: (Units=GPa)
#
#
# Indices 1 2 3 4 5 6 
#
# 1 134.8712 81.3931 1.6628 0.0000 0.0000 0.0000
# 2 81.3931 172.8562 13.1392 0.0000 0.0000 0.0000
# 3 1.6628 13.1392 12.7182 0.0000 0.0000 0.0000
# 4 0.0000 0.0000 0.0000 -1.6833 0.0000 0.0000
# 5 0.0000 0.0000 0.0000 0.0000 1.5595 0.0000
# 6 0.0000 0.0000 0.0000 0.0000 0.0000 32.1134
#
#
#
# Elastic Compliance Matrix: (Units=1/GPa)
#
#
# Indices 1 2 3 4 5 6 
#
# 1 0.010549 -0.005277 0.004072 0.000000 0.000000 0.000000
# 2 -0.005277 0.008918 -0.008523 0.000000 0.000000 0.000000
# 3 0.004072 -0.008523 0.086900 0.000000 0.000000 0.000000
# 4 0.000000 0.000000 0.000000 -0.594078 0.000000 0.000000
# 5 0.000000 0.000000 0.000000 0.000000 0.641211 0.000000
# 6 0.000000 0.000000 0.000000 0.000000 0.000000 0.031140
#
#
# Mechanical properties :
#
#
# Convention : Reuss Voigt Hill
#
# Bulk Modulus (GPa) = 11.50592 56.98177 34.24385
# Shear Modulus (GPa) = 21.45328 21.34796 21.40062
#
# Velocity S-wave (km/s) = 3.36773 3.35945 3.36359
# Velocity P-wave (km/s) = 4.60488 6.72103 5.76095
#
# Compressibility (1/GPa) = 0.08691178
#
# Stress axis : x y z
#
# Youngs Moduli (GPa) = 94.79911 112.13783 11.50743
#
# Poissons Ratio (x) = 0.59170 -0.04686
# Poissons Ratio (y) = 0.50021 0.09808
# Poissons Ratio (z) = -0.38603 0.95575
#
# Static dielectric constant tensor:
#      x y z
#    x 3.508990 0.000000 0.000000 
#    y 0.000000 3.971580 0.000000 
#    z 0.000000 0.000000 2.752840 
# 
# 
# High freq. dielectric constant tensor:
#      x y z
#    x 1.727730 0.000000 0.000000 
#    y 0.000000 1.750540 0.000000 
#    z 0.000000 0.000000 1.663900 
# 
# From -- ./inp_files/18063.got.cif
#   From: 2010.03.12/outbox.cif.g09.slc.cpg/sg65_10_cif.got.tgz:18063.got - 2010.04.10 20:52:16.
