data_PCOD8266972
_publ_section_title
;
Structure prediction by ZEFSAII (Michael W. Deem and Ramdas Pophale) SiO2 
 PCOD8266972
Probable space group: C M M M
;
_chemical_formula_sum "Si O2"
_cell_formula_units_Z 104
_cell_length_a 8.932568
_cell_length_b 23.764432
_cell_length_c 27.902824
_cell_angle_alpha 90.000000
_cell_angle_beta 90.000000
_cell_angle_gamma 90.000000
_cell_volume 5923.139066
_symmetry_space_group_name_H-M "C M M M"
_symmetry_group_IT_number 65
_symmetry_cell_setting 'orthorhombic'
loop_
_space_group_symop_operation_xyz
x,y,z
-x,-y,z
x,-y,-z
-x,y,-z
-x,-y,-z
x,y,-z
-x,y,z
x,-y,z
1/2+x,1/2+y,z
1/2-x,1/2-y,z
1/2+x,1/2-y,-z
1/2-x,1/2+y,-z
1/2-x,1/2-y,-z
1/2+x,1/2+y,-z
1/2-x,1/2+y,z
1/2+x,1/2-y,z
loop_
_atom_site_type_symbol
_atom_site_label
_atom_site_fract_x
_atom_site_fract_y
_atom_site_fract_z
Si Si1 0.667259 0.000000 0.750565
Si Si2 0.822561 0.935230 0.896542
Si Si3 0.322381 0.115432 0.368349
Si Si4 0.670764 0.112942 0.191554
Si Si5 0.324302 0.500000 0.654320
Si Si6 0.827029 0.191664 0.555841
Si Si7 0.322622 0.189477 0.722775
Si Si8 0.676559 0.563704 0.000000
O O1 0.689678 0.053956 0.782622
O O2 0.500000 0.000000 0.727107
O O3 0.794488 0.000000 0.710849
O O4 0.761639 0.890897 0.857772
O O5 0.766613 0.911260 0.948909
O O6 0.000000 0.934876 0.893553
O O7 0.766279 0.000000 0.888455
O O8 0.500000 0.110503 0.370758
O O9 0.260334 0.143952 0.415951
O O10 0.271510 0.149736 0.321053
O O11 0.250594 0.054236 0.368952
O O12 0.500000 0.125491 0.178332
O O13 0.732144 0.161617 0.227088
O O14 0.500000 0.500000 0.644091
O O15 0.810228 0.177930 0.500000
O O16 0.750000 0.250000 0.569522
O O17 0.000000 0.194357 0.571542
O O18 0.500000 0.195965 0.722600
O O19 0.250000 0.250000 0.716316
O O20 0.730440 0.500000 0.000000
O O21 0.500000 0.567415 0.000000
#
# Coordination Sequence:
#
# PCOD8266972 Si02
#       8
#     8  16  16  16   8  16  16   8
#     4  10  18  34  52  68 102 142 175 208 255 313
#     4   9  16  26  43  68  96 129 168 206 247 298
#     4  11  22  39  60  81 110 146 180 216 266 321
#     4  10  19  32  49  70 100 136 168 205 256 306
#     4  12  24  36  55  83 111 141 180 221 260 312
#     4  10  21  38  60  87 116 145 182 228 273 315
#     4  10  22  37  53  74 102 136 171 212 259 306
#     4   7  12  24  39  59  94 131 160 199 250 300
#
# _framework density 17.558257999999999
#
# number of rings (size 3 to 8) (size 9 to 14) (size 15 to 20)
#    0.000    2.077    2.308    3.000    0.000    4.615 
#    0.000    0.769    0.000    3.692    0.000    0.538 
#    0.000    0.000    0.000    0.000    0.000    0.000 
#
# Total GULP energy -644543.457614 kJ/mol
# GULP energy per Si atom -12395.066493 kJ/mol
# Density = 1.751829 g / cm^3
# Si number density = 17.558258 Si / 1000 Ang^3
#
#
#
# Elastic Constant Matrix: (Units=GPa)
#
#
# Indices 1 2 3 4 5 6 
#
# 1 73.2606 45.1352 46.1468 0.0000 0.0000 0.0000
# 2 45.1352 113.5991 56.8288 0.0000 0.0000 0.0000
# 3 46.1468 56.8288 103.5578 0.0000 0.0000 0.0000
# 4 0.0000 0.0000 0.0000 28.4420 0.0000 0.0000
# 5 0.0000 0.0000 0.0000 0.0000 27.3964 0.0000
# 6 0.0000 0.0000 0.0000 0.0000 0.0000 28.4171
#
#
#
# Elastic Compliance Matrix: (Units=1/GPa)
#
#
# Indices 1 2 3 4 5 6 
#
# 1 0.020862 -0.005015 -0.006544 0.000000 0.000000 0.000000
# 2 -0.005015 0.013340 -0.005085 0.000000 0.000000 0.000000
# 3 -0.006544 -0.005085 0.015363 0.000000 0.000000 0.000000
# 4 0.000000 0.000000 0.000000 0.035159 0.000000 0.000000
# 5 0.000000 0.000000 0.000000 0.000000 0.036501 0.000000
# 6 0.000000 0.000000 0.000000 0.000000 0.000000 0.035190
#
#
# Mechanical properties :
#
#
# Convention : Reuss Voigt Hill
#
# Bulk Modulus (GPa) = 61.44313 65.18211 63.31262
# Shear Modulus (GPa) = 25.62398 26.33822 25.98110
#
# Velocity S-wave (km/s) = 3.82431 3.87725 3.85087
# Velocity P-wave (km/s) = 7.38717 7.56624 7.47724
#
# Compressibility (1/GPa) = 0.01627521
#
# Stress axis : x y z
#
# Youngs Moduli (GPa) = 47.93443 74.96530 65.08987
#
# Poissons Ratio (x) = 0.37595 0.42596
# Poissons Ratio (y) = 0.24039 0.33101
# Poissons Ratio (z) = 0.31370 0.38123
#
# Static dielectric constant tensor:
#      x y z
#    x 3.196640 0.000000 0.000000 
#    y 0.000000 3.093200 0.000000 
#    z 0.000000 0.000000 3.521750 
# 
# 
# High freq. dielectric constant tensor:
#      x y z
#    x 1.671580 0.000000 0.000000 
#    y 0.000000 1.654850 0.000000 
#    z 0.000000 0.000000 1.687470 
# 
# From -- ./inp_files/73832.got.cif
#   From: 2010.03.12/outbox.cif.g09.slc.cpg/sg65_37_cif.got.tgz:73832.got - 2010.04.10 20:52:16.
