data_PCOD8266438
_publ_section_title
;
Structure prediction by ZEFSAII (Michael W. Deem and Ramdas Pophale) SiO2 
 PCOD8266438
Probable space group: C M M M
;
_chemical_formula_sum "Si O2"
_cell_formula_units_Z 72
_cell_length_a 17.017955
_cell_length_b 28.276919
_cell_length_c 9.018516
_cell_angle_alpha 90.000000
_cell_angle_beta 90.000000
_cell_angle_gamma 90.000000
_cell_volume 4339.848199
_symmetry_space_group_name_H-M "C M M M"
_symmetry_group_IT_number 65
_symmetry_cell_setting 'orthorhombic'
loop_
_space_group_symop_operation_xyz
x,y,z
-x,-y,z
x,-y,-z
-x,y,-z
-x,-y,-z
x,y,-z
-x,y,z
x,-y,z
1/2+x,1/2+y,z
1/2-x,1/2-y,z
1/2+x,1/2-y,-z
1/2-x,1/2+y,-z
1/2-x,1/2-y,-z
1/2+x,1/2+y,-z
1/2-x,1/2+y,z
1/2+x,1/2-y,z
loop_
_atom_site_type_symbol
_atom_site_label
_atom_site_fract_x
_atom_site_fract_y
_atom_site_fract_z
Si Si1 0.771628 0.359464 0.174784
Si Si2 0.176247 0.784403 0.333260
Si Si3 0.588764 0.791979 0.171108
Si Si4 0.283538 0.551964 0.668488
Si Si5 0.590663 0.500000 0.175507
O O1 0.696726 0.330792 0.237915
O O2 0.853110 0.334106 0.220910
O O3 0.772630 0.411164 0.248005
O O4 0.762674 0.364189 0.000000
O O5 0.154203 0.799677 0.500000
O O6 0.250000 0.750000 0.330634
O O7 0.103539 0.756259 0.261604
O O8 0.500000 0.809184 0.200565
O O9 0.603908 0.779714 0.000000
O O10 0.298375 0.568797 0.500000
O O11 0.241849 0.500000 0.671120
O O12 0.367600 0.546747 0.753985
O O13 0.500000 0.500000 0.221253
O O14 0.602430 0.500000 0.000000
#
# Coordination Sequence:
#
# PCOD8266438 Si02
#       5
#    16  16  16  16   8
#     4  10  18  30  51  73  95 127 165 201 239 286
#     4   9  17  29  46  68  95 125 158 196 238 286
#     4   9  18  32  49  71  99 128 160 200 244 288
#     4   9  19  32  49  72  99 130 162 199 240 283
#     4   9  17  31  51  73  96 121 152 191 235 282
#
# _framework density 16.590441999999999
#
# number of rings (size 3 to 8) (size 9 to 14) (size 15 to 20)
#    0.667    2.111    0.000    2.000    0.000    4.889 
#    0.000    1.111    0.000    7.333    0.000    4.667 
#    0.000    0.000    0.000    0.000    0.000    0.000 
#
# Total GULP energy -446200.632585 kJ/mol
# GULP energy per Si atom -12394.462016 kJ/mol
# Density = 1.655268 g / cm^3
# Si number density = 16.590442 Si / 1000 Ang^3
#
#
#
# Elastic Constant Matrix: (Units=GPa)
#
#
# Indices 1 2 3 4 5 6 
#
# 1 81.6535 42.6108 41.4064 0.0000 0.0000 0.0000
# 2 42.6108 93.7429 49.9493 0.0000 0.0000 0.0000
# 3 41.4064 49.9493 106.9894 0.0000 0.0000 0.0000
# 4 0.0000 0.0000 0.0000 33.0579 0.0000 0.0000
# 5 0.0000 0.0000 0.0000 0.0000 17.0502 0.0000
# 6 0.0000 0.0000 0.0000 0.0000 0.0000 20.5184
#
#
#
# Elastic Compliance Matrix: (Units=1/GPa)
#
#
# Indices 1 2 3 4 5 6 
#
# 1 0.017261 -0.005706 -0.004016 0.000000 0.000000 0.000000
# 2 -0.005706 0.016086 -0.005302 0.000000 0.000000 0.000000
# 3 -0.004016 -0.005302 0.013376 0.000000 0.000000 0.000000
# 4 0.000000 0.000000 0.000000 0.030250 0.000000 0.000000
# 5 0.000000 0.000000 0.000000 0.000000 0.058650 0.000000
# 6 0.000000 0.000000 0.000000 0.000000 0.000000 0.048737
#
#
# Mechanical properties :
#
#
# Convention : Reuss Voigt Hill
#
# Bulk Modulus (GPa) = 59.96863 61.14653 60.55758
# Shear Modulus (GPa) = 22.73063 24.01990 23.37527
#
# Velocity S-wave (km/s) = 3.70551 3.80915 3.75768
# Velocity P-wave (km/s) = 7.38462 7.50217 7.44363
#
# Compressibility (1/GPa) = 0.01667538
#
# Stress axis : x y z
#
# Youngs Moduli (GPa) = 57.93306 62.16569 74.75916
#
# Poissons Ratio (x) = 0.35472 0.30027
# Poissons Ratio (y) = 0.33057 0.39635
# Poissons Ratio (z) = 0.23268 0.32958
#
# Static dielectric constant tensor:
#      x y z
#    x 2.885170 0.000000 0.000000 
#    y 0.000000 3.023290 0.000000 
#    z 0.000000 0.000000 3.246420 
# 
# 
# High freq. dielectric constant tensor:
#      x y z
#    x 1.605950 0.000000 0.000000 
#    y 0.000000 1.624810 0.000000 
#    z 0.000000 0.000000 1.656010 
# 
# From -- ./inp_files/7692.got.cif
#   From: 2010.03.12/outbox.cif.g09.slc.cpg/sg65_4_cif.got.tgz:7692.got - 2010.04.10 20:52:16.
