data_PCOD8266049
_publ_section_title
;
Structure prediction by ZEFSAII (Michael W. Deem and Ramdas Pophale) SiO2 
 PCOD8266049
Probable space group: C M M M
;
_chemical_formula_sum "Si O2"
_cell_formula_units_Z 112
_cell_length_a 25.910572
_cell_length_b 18.498631
_cell_length_c 14.064268
_cell_angle_alpha 90.000000
_cell_angle_beta 90.000000
_cell_angle_gamma 90.000000
_cell_volume 6741.145848
_symmetry_space_group_name_H-M "C M M M"
_symmetry_group_IT_number 65
_symmetry_cell_setting 'orthorhombic'
loop_
_space_group_symop_operation_xyz
x,y,z
-x,-y,z
x,-y,-z
-x,y,-z
-x,-y,-z
x,y,-z
-x,y,z
x,-y,z
1/2+x,1/2+y,z
1/2-x,1/2-y,z
1/2+x,1/2-y,-z
1/2-x,1/2+y,-z
1/2-x,1/2-y,-z
1/2+x,1/2+y,-z
1/2-x,1/2+y,z
1/2+x,1/2-y,z
loop_
_atom_site_type_symbol
_atom_site_label
_atom_site_fract_x
_atom_site_fract_y
_atom_site_fract_z
Si Si1 0.558266 0.661811 0.605693
Si Si2 0.059352 0.917511 0.793455
Si Si3 0.250855 0.916207 0.888521
Si Si4 0.802437 0.707429 0.784496
Si Si5 0.852022 0.831716 0.889102
Si Si6 0.868529 0.702908 0.390239
Si Si7 0.557038 0.919849 0.612614
O O1 0.566105 0.628981 0.500000
O O2 0.500000 0.693259 0.615747
O O3 0.568275 0.598929 0.681796
O O4 0.598934 0.724828 0.623606
O O5 0.093952 0.866291 0.858372
O O6 0.000000 0.903763 0.822076
O O7 0.075222 0.000000 0.811751
O O8 0.294713 0.871853 0.830847
O O9 0.194114 0.886593 0.861583
O O10 0.254086 0.000000 0.858386
O O11 0.261622 0.905885 0.000000
O O12 0.750000 0.750000 0.796274
O O13 0.846113 0.753594 0.839167
O O14 0.817052 0.702942 0.673201
O O15 0.853103 0.816716 0.000000
O O16 0.852309 0.691473 0.500000
O O17 0.902553 0.637581 0.347620
O O18 0.554136 0.911788 0.500000
O O19 0.500000 0.904865 0.654940
O O20 0.575639 0.000000 0.641744
#
# Coordination Sequence:
#
# PCOD8266049 Si02
#       7
#    16  16  16  16  16  16  16
#     4   9  17  30  48  69  94 126 164 201 234 274
#     4  10  20  32  48  73 101 127 158 196 239 290
#     4   9  18  33  54  76  94 118 157 204 247 285
#     4  10  20  33  49  71  96 125 161 202 240 278
#     4  10  19  34  53  72  96 127 159 195 244 295
#     4  10  18  29  47  69  94 129 164 192 232 284
#     4   8  14  25  42  66  94 120 149 189 232 272
#
# _framework density 16.614386
#
# number of rings (size 3 to 8) (size 9 to 14) (size 15 to 20)
#    0.000    2.571    1.429    1.714    0.000    5.714 
#    0.000    2.143    0.000    0.000    0.000    0.000 
#    0.000    0.000    0.000    9.429    0.000    0.286 
#
# Total GULP energy -694244.271342 kJ/mol
# GULP energy per Si atom -12397.219131 kJ/mol
# Density = 1.657657 g / cm^3
# Si number density = 16.614386 Si / 1000 Ang^3
#
#
#
# Elastic Constant Matrix: (Units=GPa)
#
#
# Indices 1 2 3 4 5 6 
#
# 1 49.6489 33.4530 28.8676 0.0000 0.0000 0.0000
# 2 33.4530 90.2641 30.8940 0.0000 0.0000 0.0000
# 3 28.8676 30.8940 67.5318 0.0000 0.0000 0.0000
# 4 0.0000 0.0000 0.0000 21.7654 0.0000 0.0000
# 5 0.0000 0.0000 0.0000 0.0000 26.3610 0.0000
# 6 0.0000 0.0000 0.0000 0.0000 0.0000 20.5540
#
#
#
# Elastic Compliance Matrix: (Units=1/GPa)
#
#
# Indices 1 2 3 4 5 6 
#
# 1 0.031324 -0.008331 -0.009579 0.000000 0.000000 0.000000
# 2 -0.008331 0.015351 -0.003462 0.000000 0.000000 0.000000
# 3 -0.009579 -0.003462 0.020486 0.000000 0.000000 0.000000
# 4 0.000000 0.000000 0.000000 0.045945 0.000000 0.000000
# 5 0.000000 0.000000 0.000000 0.000000 0.037935 0.000000
# 6 0.000000 0.000000 0.000000 0.000000 0.000000 0.048652
#
#
# Mechanical properties :
#
#
# Convention : Reuss Voigt Hill
#
# Bulk Modulus (GPa) = 40.95211 43.76378 42.35795
# Shear Modulus (GPa) = 19.95419 21.35144 20.65282
#
# Velocity S-wave (km/s) = 3.46933 3.58874 3.52954
# Velocity P-wave (km/s) = 6.38361 6.60077 6.49310
#
# Compressibility (1/GPa) = 0.02441877
#
# Stress axis : x y z
#
# Youngs Moduli (GPa) = 31.92446 65.14341 48.81364
#
# Poissons Ratio (x) = 0.54268 0.46758
# Poissons Ratio (y) = 0.26595 0.16897
# Poissons Ratio (z) = 0.30580 0.22550
#
# Static dielectric constant tensor:
#      x y z
#    x 3.101140 0.000000 0.000000 
#    y 0.000000 3.224510 0.000000 
#    z 0.000000 0.000000 2.978760 
# 
# 
# High freq. dielectric constant tensor:
#      x y z
#    x 1.627620 0.000000 0.000000 
#    y 0.000000 1.641490 0.000000 
#    z 0.000000 0.000000 1.624140 
# 
# From -- ./inp_files/31056.got.cif
#   From: 2010.03.12/outbox.cif.g09.slc.cpg/sg65_16_cif.got.tgz:31056.got - 2010.04.10 20:52:16.
