data_PCOD8266079
_publ_section_title
;
Structure prediction by ZEFSAII (Michael W. Deem and Ramdas Pophale) SiO2 
 PCOD8266079
Probable space group: C M M M
;
_chemical_formula_sum "Si O2"
_cell_formula_units_Z 64
_cell_length_a 8.612545
_cell_length_b 16.141485
_cell_length_c 22.521543
_cell_angle_alpha 90.000000
_cell_angle_beta 90.000000
_cell_angle_gamma 90.000000
_cell_volume 3130.928375
_symmetry_space_group_name_H-M "C M M M"
_symmetry_group_IT_number 65
_symmetry_cell_setting 'orthorhombic'
loop_
_space_group_symop_operation_xyz
x,y,z
-x,-y,z
x,-y,-z
-x,y,-z
-x,-y,-z
x,y,-z
-x,y,z
x,-y,z
1/2+x,1/2+y,z
1/2-x,1/2-y,z
1/2+x,1/2-y,-z
1/2-x,1/2+y,-z
1/2-x,1/2-y,-z
1/2+x,1/2+y,-z
1/2-x,1/2+y,z
1/2+x,1/2-y,z
loop_
_atom_site_type_symbol
_atom_site_label
_atom_site_fract_x
_atom_site_fract_y
_atom_site_fract_z
Si Si1 0.684175 0.342689 0.500000
Si Si2 0.315285 0.158694 0.618927
Si Si3 0.683933 0.162951 0.135767
Si Si4 0.184672 0.500000 0.932539
Si Si5 0.815814 0.591556 0.742917
O O1 0.500000 0.342753 0.500000
O O2 0.750000 0.250000 0.500000
O O3 0.748073 0.387374 0.440054
O O4 0.500000 0.158008 0.616265
O O5 0.250000 0.250000 0.619887
O O6 0.249440 0.116373 0.678596
O O7 0.500000 0.166150 0.130670
O O8 0.750000 0.250000 0.111100
O O9 0.740046 0.152064 0.204254
O O10 0.747950 0.084149 0.098471
O O11 0.000000 0.500000 0.928384
O O12 0.244087 0.500000 0.000000
O O13 0.755471 0.500000 0.758567
O O14 0.000000 0.592723 0.739845
#
# Coordination Sequence:
#
# PCOD8266079 Si02
#       5
#     8  16  16   8  16
#     4  10  18  30  47  66  95 129 165 207 257 315
#     4  10  18  29  48  71  95 123 164 213 262 314
#     4  10  19  34  57  82 111 145 186 229 272 321
#     4   9  18  34  57  83 113 152 191 222 260 323
#     4   9  17  31  51  74  99 133 175 219 263 314
#
# _framework density 20.441220999999999
#
# number of rings (size 3 to 8) (size 9 to 14) (size 15 to 20)
#    0.000    2.375    1.250    4.125    0.000    0.500 
#    0.000    2.500    0.000   10.500    0.000    0.000 
#    0.000    0.000    0.000    0.000    0.000    0.000 
#
# Total GULP energy -396545.980807 kJ/mol
# GULP energy per Si atom -12392.061900 kJ/mol
# Density = 2.039470 g / cm^3
# Si number density = 20.441221 Si / 1000 Ang^3
#
#
#
# Elastic Constant Matrix: (Units=GPa)
#
#
# Indices 1 2 3 4 5 6 
#
# 1 54.7101 15.1555 28.9782 0.0000 0.0000 0.0000
# 2 15.1555 128.4051 67.1196 0.0000 0.0000 0.0000
# 3 28.9782 67.1196 170.5845 0.0000 0.0000 0.0000
# 4 0.0000 0.0000 0.0000 31.9036 0.0000 0.0000
# 5 0.0000 0.0000 0.0000 0.0000 14.0140 0.0000
# 6 0.0000 0.0000 0.0000 0.0000 0.0000 21.1261
#
#
#
# Elastic Compliance Matrix: (Units=1/GPa)
#
#
# Indices 1 2 3 4 5 6 
#
# 1 0.020141 -0.000741 -0.003130 0.000000 0.000000 0.000000
# 2 -0.000741 0.009832 -0.003743 0.000000 0.000000 0.000000
# 3 -0.003130 -0.003743 0.007866 0.000000 0.000000 0.000000
# 4 0.000000 0.000000 0.000000 0.031344 0.000000 0.000000
# 5 0.000000 0.000000 0.000000 0.000000 0.071357 0.000000
# 6 0.000000 0.000000 0.000000 0.000000 0.000000 0.047335
#
#
# Mechanical properties :
#
#
# Convention : Reuss Voigt Hill
#
# Bulk Modulus (GPa) = 44.22399 64.02291 54.12345
# Shear Modulus (GPa) = 23.73711 29.57182 26.65446
#
# Velocity S-wave (km/s) = 3.41139 3.80765 3.61495
# Velocity P-wave (km/s) = 6.09905 7.12175 6.63015
#
# Compressibility (1/GPa) = 0.02261216
#
# Stress axis : x y z
#
# Youngs Moduli (GPa) = 49.64923 101.71266 127.12210
#
# Poissons Ratio (x) = 0.07539 0.39788
# Poissons Ratio (y) = 0.03680 0.47576
# Poissons Ratio (z) = 0.15540 0.38066
#
# Static dielectric constant tensor:
#      x y z
#    x 3.226370 0.000000 0.000000 
#    y 0.000000 3.692860 0.000000 
#    z 0.000000 0.000000 4.633460 
# 
# 
# High freq. dielectric constant tensor:
#      x y z
#    x 1.754850 0.000000 0.000000 
#    y 0.000000 1.784570 0.000000 
#    z 0.000000 0.000000 1.818520 
# 
# From -- ./inp_files/66828.got.cif
#   From: 2010.03.12/outbox.cif.g09.slc.cpg/sg65_34_cif.got.tgz:66828.got - 2010.04.10 20:52:16.
