data_PCOD8266566
_publ_section_title
;
Structure prediction by ZEFSAII (Michael W. Deem and Ramdas Pophale) SiO2 
 PCOD8266566
Probable space group: C M M M
;
_chemical_formula_sum "Si O2"
_cell_formula_units_Z 96
_cell_length_a 19.417142
_cell_length_b 20.575033
_cell_length_c 14.276148
_cell_angle_alpha 90.000000
_cell_angle_beta 90.000000
_cell_angle_gamma 90.000000
_cell_volume 5703.440152
_symmetry_space_group_name_H-M "C M M M"
_symmetry_group_IT_number 65
_symmetry_cell_setting 'orthorhombic'
loop_
_space_group_symop_operation_xyz
x,y,z
-x,-y,z
x,-y,-z
-x,y,-z
-x,-y,-z
x,y,-z
-x,y,z
x,-y,z
1/2+x,1/2+y,z
1/2-x,1/2-y,z
1/2+x,1/2-y,-z
1/2-x,1/2+y,-z
1/2-x,1/2-y,-z
1/2+x,1/2+y,-z
1/2-x,1/2+y,z
1/2+x,1/2-y,z
loop_
_atom_site_type_symbol
_atom_site_label
_atom_site_fract_x
_atom_site_fract_y
_atom_site_fract_z
Si Si1 0.420770 0.324981 0.603545
Si Si2 0.681260 0.210181 0.399426
Si Si3 0.205806 0.927264 0.107603
Si Si4 0.704909 0.816020 0.800187
Si Si5 0.077503 0.743022 0.108369
Si Si6 0.077792 0.119429 0.205649
O O1 0.403148 0.353662 0.500000
O O2 0.500000 0.304936 0.611546
O O3 0.380494 0.259028 0.623011
O O4 0.403698 0.378365 0.683200
O O5 0.667755 0.173364 0.500000
O O6 0.750000 0.250000 0.412406
O O7 0.688870 0.164466 0.308298
O O8 0.255230 0.876578 0.157679
O O9 0.130233 0.928316 0.154372
O O10 0.236357 0.000000 0.116979
O O11 0.198185 0.906573 0.000000
O O12 0.750000 0.750000 0.807214
O O13 0.633281 0.809001 0.855897
O O14 0.087438 0.808510 0.166135
O O15 0.000000 0.715229 0.122687
O O16 0.091551 0.758582 0.000000
O O17 0.000000 0.093928 0.189133
#
# Coordination Sequence:
#
# PCOD8266566 Si02
#       6
#    16  16  16  16  16  16
#     4   9  16  27  46  74 106 134 162 201 248 297
#     4   9  16  26  43  69  98 125 157 199 250 297
#     4  11  24  38  51  71 100 135 174 213 253 300
#     4  11  19  32  54  75  97 131 167 210 253 298
#     4  10  19  29  46  75 104 127 160 208 253 292
#     4  10  18  31  50  73 103 136 166 202 248 296
#
# _framework density 16.831945999999999
#
# number of rings (size 3 to 8) (size 9 to 14) (size 15 to 20)
#    0.000    2.000    3.333    2.000    0.000    2.000 
#    0.000    0.833    0.000    2.500    0.000    4.667 
#    0.000    0.000    0.000    5.667    0.000    0.167 
#
# Total GULP energy -594864.127183 kJ/mol
# GULP energy per Si atom -12393.002650 kJ/mol
# Density = 1.679364 g / cm^3
# Si number density = 16.831946 Si / 1000 Ang^3
#
#
#
# Elastic Constant Matrix: (Units=GPa)
#
#
# Indices 1 2 3 4 5 6 
#
# 1 65.7012 21.7509 30.7907 0.0000 0.0000 0.0000
# 2 21.7509 52.0064 31.4911 0.0000 0.0000 0.0000
# 3 30.7907 31.4911 131.2978 0.0000 0.0000 0.0000
# 4 0.0000 0.0000 0.0000 12.4947 0.0000 0.0000
# 5 0.0000 0.0000 0.0000 0.0000 28.1746 0.0000
# 6 0.0000 0.0000 0.0000 0.0000 0.0000 15.4030
#
#
#
# Elastic Compliance Matrix: (Units=1/GPa)
#
#
# Indices 1 2 3 4 5 6 
#
# 1 0.018574 -0.006003 -0.002916 0.000000 0.000000 0.000000
# 2 -0.006003 0.024435 -0.004453 0.000000 0.000000 0.000000
# 3 -0.002916 -0.004453 0.009368 0.000000 0.000000 0.000000
# 4 0.000000 0.000000 0.000000 0.080034 0.000000 0.000000
# 5 0.000000 0.000000 0.000000 0.000000 0.035493 0.000000
# 6 0.000000 0.000000 0.000000 0.000000 0.000000 0.064922
#
#
# Mechanical properties :
#
#
# Convention : Reuss Voigt Hill
#
# Bulk Modulus (GPa) = 39.01037 46.34120 42.67578
# Shear Modulus (GPa) = 18.64871 22.21264 20.43067
#
# Velocity S-wave (km/s) = 3.33218 3.63667 3.48775
# Velocity P-wave (km/s) = 6.16695 6.72497 6.45200
#
# Compressibility (1/GPa) = 0.02563421
#
# Stress axis : x y z
#
# Youngs Moduli (GPa) = 53.83787 40.92438 106.74426
#
# Poissons Ratio (x) = 0.24565 0.31129
# Poissons Ratio (y) = 0.32317 0.47533
# Poissons Ratio (z) = 0.15700 0.18224
#
# Static dielectric constant tensor:
#      x y z
#    x 3.356160 0.000000 0.000000 
#    y 0.000000 2.559620 0.000000 
#    z 0.000000 0.000000 3.818850 
# 
# 
# High freq. dielectric constant tensor:
#      x y z
#    x 1.659500 0.000000 0.000000 
#    y 0.000000 1.574180 0.000000 
#    z 0.000000 0.000000 1.681740 
# 
# From -- ./inp_files/44530.got.cif
#   From: 2010.03.12/outbox.cif.g09.slc.cpg/sg65_23_cif.got.tgz:44530.got - 2010.04.10 20:52:16.
