data_PCOD8266635
_publ_section_title
;
Structure prediction by ZEFSAII (Michael W. Deem and Ramdas Pophale) SiO2 
 PCOD8266635
Probable space group: C M M M
;
_chemical_formula_sum "Si O2"
_cell_formula_units_Z 96
_cell_length_a 28.906342
_cell_length_b 9.221907
_cell_length_c 20.665588
_cell_angle_alpha 90.000000
_cell_angle_beta 90.000000
_cell_angle_gamma 90.000000
_cell_volume 5508.858809
_symmetry_space_group_name_H-M "C M M M"
_symmetry_group_IT_number 65
_symmetry_cell_setting 'orthorhombic'
loop_
_space_group_symop_operation_xyz
x,y,z
-x,-y,z
x,-y,-z
-x,y,-z
-x,-y,-z
x,y,-z
-x,y,z
x,-y,z
1/2+x,1/2+y,z
1/2-x,1/2-y,z
1/2+x,1/2-y,-z
1/2-x,1/2+y,-z
1/2-x,1/2-y,-z
1/2+x,1/2+y,-z
1/2-x,1/2+y,z
1/2+x,1/2-y,z
loop_
_atom_site_type_symbol
_atom_site_label
_atom_site_fract_x
_atom_site_fract_y
_atom_site_fract_z
Si Si1 0.704431 0.169614 0.114768
Si Si2 0.553214 0.330541 0.809349
Si Si3 0.205441 0.667464 0.734803
Si Si4 0.605643 0.172164 0.694969
Si Si5 0.551882 0.172235 0.571251
Si Si6 0.383465 0.665034 0.927590
O O1 0.750000 0.250000 0.088320
O O2 0.697621 0.204234 0.190242
O O3 0.660356 0.230261 0.077481
O O4 0.709421 0.000000 0.100635
O O5 0.500000 0.283262 0.813931
O O6 0.558358 0.500000 0.794277
O O7 0.577160 0.242764 0.752451
O O8 0.576798 0.288446 0.877417
O O9 0.215403 0.500000 0.723670
O O10 0.250000 0.750000 0.706487
O O11 0.159377 0.718549 0.697440
O O12 0.586134 0.231033 0.626568
O O13 0.600487 0.000000 0.702523
O O14 0.568072 0.227044 0.500000
O O15 0.500000 0.229086 0.585607
O O16 0.551876 0.000000 0.572119
O O17 0.367407 0.500000 0.913684
O O18 0.404015 0.679697 0.000000
#
# Coordination Sequence:
#
# PCOD8266635 Si02
#       6
#    16  16  16  16  16  16
#     4  10  19  33  52  74  99 126 159 201 248 300
#     4  10  21  35  51  73  99 127 162 203 246 293
#     4   9  18  30  47  72  98 125 159 197 242 290
#     4  10  18  31  52  77 101 128 164 205 245 286
#     4   8  14  25  44  73 105 133 162 198 240 284
#     4  10  21  36  52  70  95 129 166 203 246 294
#
# _framework density 17.426476000000001
#
# number of rings (size 3 to 8) (size 9 to 14) (size 15 to 20)
#    0.000    2.500    1.667    1.500    0.000    3.333 
#    0.000    1.667    0.000    1.000    0.000    4.667 
#    0.000    0.000    0.000    0.000    0.000    0.000 
#
# Total GULP energy -595153.924722 kJ/mol
# GULP energy per Si atom -12399.040098 kJ/mol
# Density = 1.738681 g / cm^3
# Si number density = 17.426476 Si / 1000 Ang^3
#
#
#
# Elastic Constant Matrix: (Units=GPa)
#
#
# Indices 1 2 3 4 5 6 
#
# 1 147.7230 43.4243 80.9823 0.0000 0.0000 0.0000
# 2 43.4243 44.2967 35.7830 0.0000 0.0000 0.0000
# 3 80.9823 35.7830 126.3209 0.0000 0.0000 0.0000
# 4 0.0000 0.0000 0.0000 8.9304 0.0000 0.0000
# 5 0.0000 0.0000 0.0000 0.0000 25.8864 0.0000
# 6 0.0000 0.0000 0.0000 0.0000 0.0000 25.0066
#
#
#
# Elastic Compliance Matrix: (Units=1/GPa)
#
#
# Indices 1 2 3 4 5 6 
#
# 1 0.011973 -0.007180 -0.005642 0.000000 0.000000 0.000000
# 2 -0.007180 0.033579 -0.004909 0.000000 0.000000 0.000000
# 3 -0.005642 -0.004909 0.012924 0.000000 0.000000 0.000000
# 4 0.000000 0.000000 0.000000 0.111977 0.000000 0.000000
# 5 0.000000 0.000000 0.000000 0.000000 0.038630 0.000000
# 6 0.000000 0.000000 0.000000 0.000000 0.000000 0.039989
#
#
# Mechanical properties :
#
#
# Convention : Reuss Voigt Hill
#
# Bulk Modulus (GPa) = 43.45111 70.96888 57.21000
# Shear Modulus (GPa) = 17.11131 22.50808 19.80969
#
# Velocity S-wave (km/s) = 3.13695 3.59779 3.37524
# Velocity P-wave (km/s) = 6.17323 7.62049 6.93472
#
# Compressibility (1/GPa) = 0.02301437
#
# Stress axis : x y z
#
# Youngs Moduli (GPa) = 83.52296 29.78070 77.37628
#
# Poissons Ratio (x) = 0.21381 0.43654
# Poissons Ratio (y) = 0.59965 0.37986
# Poissons Ratio (z) = 0.47122 0.14620
#
# Static dielectric constant tensor:
#      x y z
#    x 3.405680 0.000000 0.000000 
#    y 0.000000 3.061610 0.000000 
#    z 0.000000 0.000000 3.357700 
# 
# 
# High freq. dielectric constant tensor:
#      x y z
#    x 1.675920 0.000000 0.000000 
#    y 0.000000 1.654190 0.000000 
#    z 0.000000 0.000000 1.663090 
# 
# From -- ./inp_files/60171.got.cif
#   From: 2010.03.12/outbox.cif.g09.slc.cpg/sg65_31_cif.got.tgz:60171.got - 2010.04.10 20:52:16.
