data_PCOD8266489
_publ_section_title
;
Structure prediction by ZEFSAII (Michael W. Deem and Ramdas Pophale) SiO2 
 PCOD8266489
Probable space group: C M M M
;
_chemical_formula_sum "Si O2"
_cell_formula_units_Z 80
_cell_length_a 25.799403
_cell_length_b 19.737331
_cell_length_c 8.767792
_cell_angle_alpha 90.000000
_cell_angle_beta 90.000000
_cell_angle_gamma 90.000000
_cell_volume 4464.659259
_symmetry_space_group_name_H-M "C M M M"
_symmetry_group_IT_number 65
_symmetry_cell_setting 'orthorhombic'
loop_
_space_group_symop_operation_xyz
x,y,z
-x,-y,z
x,-y,-z
-x,y,-z
-x,-y,-z
x,y,-z
-x,y,z
x,-y,z
1/2+x,1/2+y,z
1/2-x,1/2-y,z
1/2+x,1/2-y,-z
1/2-x,1/2+y,-z
1/2-x,1/2-y,-z
1/2+x,1/2+y,-z
1/2-x,1/2+y,z
1/2+x,1/2-y,z
loop_
_atom_site_type_symbol
_atom_site_label
_atom_site_fract_x
_atom_site_fract_y
_atom_site_fract_z
Si Si1 0.000000 0.837522 0.666021
Si Si2 0.610479 0.673127 0.318910
Si Si3 0.190215 0.574894 0.818902
Si Si4 0.500000 0.177150 0.331272
Si Si5 0.306569 0.420905 0.174803
Si Si6 0.606465 0.181723 0.181208
O O1 0.054844 0.856164 0.747150
O O2 0.000000 0.757034 0.651590
O O3 0.000000 0.872394 0.500000
O O4 0.605498 0.683652 0.500000
O O5 0.654975 0.620234 0.282143
O O6 0.622853 0.745109 0.243738
O O7 0.176569 0.500000 0.754216
O O8 0.248362 0.595607 0.768942
O O9 0.149491 0.629352 0.756041
O O10 0.188703 0.572013 0.000000
O O11 0.500000 0.143798 0.500000
O O12 0.551190 0.154534 0.240110
O O13 0.318590 0.500000 0.193476
O O14 0.314627 0.398192 0.000000
O O15 0.605139 0.184759 0.000000
#
# Coordination Sequence:
#
# PCOD8266489 Si02
#       6
#     8  16  16   8  16  16
#     4   7  14  29  46  63  88 126 159 185 226 279
#     4  10  19  32  50  72 100 130 161 200 247 297
#     4   8  16  32  52  72  96 128 165 206 250 291
#     4   9  17  31  48  69 102 134 157 192 248 298
#     4   9  18  34  53  71  95 128 165 206 250 293
#     4  10  18  30  52  77  97 124 167 208 240 285
#
# _framework density 17.918500000000002
#
# number of rings (size 3 to 8) (size 9 to 14) (size 15 to 20)
#    0.000    3.000    0.000    3.900    0.000    1.200 
#    0.000    8.500    0.000   10.800    0.000    0.000 
#    0.000    0.000    0.000    0.000    0.000    0.000 
#
# Total GULP energy -495675.279804 kJ/mol
# GULP energy per Si atom -12391.881995 kJ/mol
# Density = 1.787772 g / cm^3
# Si number density = 17.918500 Si / 1000 Ang^3
#
#
#
# Elastic Constant Matrix: (Units=GPa)
#
#
# Indices 1 2 3 4 5 6 
#
# 1 164.1353 76.6137 37.6300 0.0000 0.0000 0.0000
# 2 76.6137 72.0799 27.1024 0.0000 0.0000 0.0000
# 3 37.6300 27.1024 59.4352 0.0000 0.0000 0.0000
# 4 0.0000 0.0000 0.0000 7.6834 0.0000 0.0000
# 5 0.0000 0.0000 0.0000 0.0000 20.5650 0.0000
# 6 0.0000 0.0000 0.0000 0.0000 0.0000 6.2891
#
#
#
# Elastic Compliance Matrix: (Units=1/GPa)
#
#
# Indices 1 2 3 4 5 6 
#
# 1 0.012327 -0.012272 -0.002209 0.000000 0.000000 0.000000
# 2 -0.012272 0.028962 -0.005437 0.000000 0.000000 0.000000
# 3 -0.002209 -0.005437 0.020703 0.000000 0.000000 0.000000
# 4 0.000000 0.000000 0.000000 0.130151 0.000000 0.000000
# 5 0.000000 0.000000 0.000000 0.000000 0.048626 0.000000
# 6 0.000000 0.000000 0.000000 0.000000 0.000000 0.159005
#
#
# Mechanical properties :
#
#
# Convention : Reuss Voigt Hill
#
# Bulk Modulus (GPa) = 45.13332 64.26029 54.69680
# Shear Modulus (GPa) = 11.18582 17.19444 14.19013
#
# Velocity S-wave (km/s) = 2.50123 3.10109 2.81717
# Velocity P-wave (km/s) = 5.79520 6.98303 6.41666
#
# Compressibility (1/GPa) = 0.02215658
#
# Stress axis : x y z
#
# Youngs Moduli (GPa) = 81.12178 34.52827 48.30329
#
# Poissons Ratio (x) = 0.42373 0.10668
# Poissons Ratio (y) = 0.99553 0.26261
# Poissons Ratio (z) = 0.17916 0.18772
#
# Static dielectric constant tensor:
#      x y z
#    x 3.790620 0.000000 0.000000 
#    y 0.000000 3.160820 0.000000 
#    z 0.000000 0.000000 3.094370 
# 
# 
# High freq. dielectric constant tensor:
#      x y z
#    x 1.711950 0.000000 0.000000 
#    y 0.000000 1.667280 0.000000 
#    z 0.000000 0.000000 1.671760 
# 
# From -- ./inp_files/13854.got.cif
#   From: 2010.03.12/outbox.cif.g09.slc.cpg/sg65_7_cif.got.tgz:13854.got - 2010.04.10 20:52:16.
