data_PCOD8266809
_publ_section_title
;
Structure prediction by ZEFSAII (Michael W. Deem and Ramdas Pophale) SiO2 
 PCOD8266809
Probable space group: C M M M
;
_chemical_formula_sum "Si O2"
_cell_formula_units_Z 96
_cell_length_a 26.636856
_cell_length_b 22.177087
_cell_length_c 9.105323
_cell_angle_alpha 90.000000
_cell_angle_beta 90.000000
_cell_angle_gamma 90.000000
_cell_volume 5378.768088
_symmetry_space_group_name_H-M "C M M M"
_symmetry_group_IT_number 65
_symmetry_cell_setting 'orthorhombic'
loop_
_space_group_symop_operation_xyz
x,y,z
-x,-y,z
x,-y,-z
-x,y,-z
-x,-y,-z
x,y,-z
-x,y,z
x,-y,z
1/2+x,1/2+y,z
1/2-x,1/2-y,z
1/2+x,1/2-y,-z
1/2-x,1/2+y,-z
1/2-x,1/2-y,-z
1/2+x,1/2+y,-z
1/2-x,1/2+y,z
1/2+x,1/2-y,z
loop_
_atom_site_type_symbol
_atom_site_label
_atom_site_fract_x
_atom_site_fract_y
_atom_site_fract_z
Si Si1 0.392234 0.111514 0.672170
Si Si2 0.000000 0.067231 0.674535
Si Si3 0.943427 0.266461 0.325815
Si Si4 0.715386 0.930686 0.332972
Si Si5 0.440748 0.000000 0.167306
Si Si6 0.184291 0.930740 0.172752
Si Si7 0.596610 0.360902 0.674223
O O1 0.402466 0.102472 0.500000
O O2 0.413641 0.175006 0.730451
O O3 0.332789 0.110052 0.705456
O O4 0.420733 0.059397 0.755837
O O5 0.049401 0.100691 0.731976
O O6 0.000000 0.067050 0.500000
O O7 0.000000 0.000000 0.739561
O O8 0.947135 0.266075 0.500000
O O9 0.912584 0.207721 0.274380
O O10 0.000000 0.265886 0.260292
O O11 0.733311 0.919830 0.500000
O O12 0.760190 0.912196 0.225065
O O13 0.699238 0.000000 0.309688
O O14 0.500000 0.000000 0.179444
O O15 0.422099 0.000000 0.000000
O O16 0.146056 0.885840 0.249797
O O17 0.172845 0.000000 0.218793
O O18 0.180884 0.922051 0.000000
O O19 0.603126 0.366349 0.500000
#
# Coordination Sequence:
#
# PCOD8266809 Si02
#       7
#    16   8  16  16   8  16  16
#     4  10  19  34  57  82 106 137 180 227 273 317
#     4   9  16  26  47  77 105 132 169 214 262 315
#     4   9  17  31  53  81 109 139 175 219 268 321
#     4   9  17  32  53  78 104 132 172 221 270 321
#     4  11  23  35  49  77 115 147 179 222 269 320
#     4  10  21  35  52  76 105 138 177 220 269 321
#     4  10  18  32  53  78 107 139 176 217 264 318
#
# _framework density 17.847953
#
# number of rings (size 3 to 8) (size 9 to 14) (size 15 to 20)
#    0.000    2.333    1.667    1.750    0.000    3.667 
#    0.000    2.083    0.000    7.500    0.000    0.000 
#    0.000    0.000    0.000    0.000    0.000    0.000 
#
# Total GULP energy -595239.048223 kJ/mol
# GULP energy per Si atom -12400.813505 kJ/mol
# Density = 1.780733 g / cm^3
# Si number density = 17.847953 Si / 1000 Ang^3
#
#
#
# Elastic Constant Matrix: (Units=GPa)
#
#
# Indices 1 2 3 4 5 6 
#
# 1 129.0952 82.8023 44.0075 0.0000 0.0000 0.0000
# 2 82.8023 157.4545 44.3296 0.0000 0.0000 0.0000
# 3 44.0075 44.3296 49.7191 0.0000 0.0000 0.0000
# 4 0.0000 0.0000 0.0000 7.3558 0.0000 0.0000
# 5 0.0000 0.0000 0.0000 0.0000 12.8093 0.0000
# 6 0.0000 0.0000 0.0000 0.0000 0.0000 26.2819
#
#
#
# Elastic Compliance Matrix: (Units=1/GPa)
#
#
# Indices 1 2 3 4 5 6 
#
# 1 0.013504 -0.004989 -0.007505 0.000000 0.000000 0.000000
# 2 -0.004989 0.010323 -0.004788 0.000000 0.000000 0.000000
# 3 -0.007505 -0.004788 0.031025 0.000000 0.000000 0.000000
# 4 0.000000 0.000000 0.000000 0.135948 0.000000 0.000000
# 5 0.000000 0.000000 0.000000 0.000000 0.078068 0.000000
# 6 0.000000 0.000000 0.000000 0.000000 0.000000 0.038049
#
#
# Mechanical properties :
#
#
# Convention : Reuss Voigt Hill
#
# Bulk Modulus (GPa) = 49.28959 75.39418 62.34189
# Shear Modulus (GPa) = 14.35777 20.29801 17.32789
#
# Velocity S-wave (km/s) = 2.83936 3.37601 3.11925
# Velocity P-wave (km/s) = 6.19884 7.58490 6.92663
#
# Compressibility (1/GPa) = 0.02028826
#
# Stress axis : x y z
#
# Youngs Moduli (GPa) = 74.04948 96.87556 32.23218
#
# Poissons Ratio (x) = 0.48329 0.24191
# Poissons Ratio (y) = 0.36941 0.15432
# Poissons Ratio (z) = 0.55575 0.46383
#
# Static dielectric constant tensor:
#      x y z
#    x 3.381680 0.000000 0.000000 
#    y 0.000000 3.461610 0.000000 
#    z 0.000000 0.000000 3.034730 
# 
# 
# High freq. dielectric constant tensor:
#      x y z
#    x 1.700440 0.000000 0.000000 
#    y 0.000000 1.687220 0.000000 
#    z 0.000000 0.000000 1.660110 
# 
# From -- ./inp_files/16695.got.cif
#   From: 2010.03.12/outbox.cif.g09.slc.cpg/sg65_9_cif.got.tgz:16695.got - 2010.04.10 20:52:16.
