data_PCOD8266672
_publ_section_title
;
Structure prediction by ZEFSAII (Michael W. Deem and Ramdas Pophale) SiO2 
 PCOD8266672
Probable space group: C M M M
;
_chemical_formula_sum "Si O2"
_cell_formula_units_Z 80
_cell_length_a 7.758989
_cell_length_b 27.025666
_cell_length_c 20.148443
_cell_angle_alpha 90.000000
_cell_angle_beta 90.000000
_cell_angle_gamma 90.000000
_cell_volume 4224.964191
_symmetry_space_group_name_H-M "C M M M"
_symmetry_group_IT_number 65
_symmetry_cell_setting 'orthorhombic'
loop_
_space_group_symop_operation_xyz
x,y,z
-x,-y,z
x,-y,-z
-x,y,-z
-x,-y,-z
x,y,-z
-x,y,z
x,-y,z
1/2+x,1/2+y,z
1/2-x,1/2-y,z
1/2+x,1/2-y,-z
1/2-x,1/2+y,-z
1/2-x,1/2-y,-z
1/2+x,1/2+y,-z
1/2-x,1/2+y,z
1/2+x,1/2-y,z
loop_
_atom_site_type_symbol
_atom_site_label
_atom_site_fract_x
_atom_site_fract_y
_atom_site_fract_z
Si Si1 0.202889 0.805689 0.229288
Si Si2 0.802641 0.848935 0.634873
Si Si3 0.500000 0.557153 0.921817
Si Si4 0.203107 0.444943 0.698356
Si Si5 0.802851 0.599772 0.161545
Si Si6 0.703229 0.306813 0.500000
O O1 0.250000 0.750000 0.210612
O O2 0.280050 0.819961 0.302068
O O3 0.288737 0.841330 0.174477
O O4 0.000000 0.814686 0.227940
O O5 0.784172 0.907939 0.644347
O O6 0.713697 0.832002 0.565907
O O7 0.000000 0.833385 0.630932
O O8 0.500000 0.500000 0.900154
O O9 0.326139 0.583315 0.896119
O O10 0.500000 0.563373 0.000000
O O11 0.274479 0.500000 0.684514
O O12 0.257150 0.428898 0.772224
O O13 0.000000 0.442866 0.690856
O O14 0.000000 0.586606 0.141574
O O15 0.500000 0.315423 0.500000
O O16 0.750000 0.250000 0.500000
#
# Coordination Sequence:
#
# PCOD8266672 Si02
#       6
#    16  16   8  16  16   8
#     4  10  18  31  53  84 112 143 185 236 286 334
#     4   9  19  32  47  71 104 137 179 224 272 327
#     4  11  24  40  60  88 120 153 189 227 270 333
#     4   9  18  32  52  77 103 133 175 224 272 323
#     4  10  20  37  58  85 117 150 186 232 281 329
#     4  10  20  34  49  68  97 137 176 215 267 332
#
# _framework density 18.935072000000002
#
# number of rings (size 3 to 8) (size 9 to 14) (size 15 to 20)
#    0.000    2.300    1.000    1.800    1.400    3.600 
#    0.000    1.500    0.000    3.600    0.000    0.000 
#    0.000    0.000    0.000    0.000    0.000    0.000 
#
# Total GULP energy -495955.558274 kJ/mol
# GULP energy per Si atom -12398.888957 kJ/mol
# Density = 1.889197 g / cm^3
# Si number density = 18.935072 Si / 1000 Ang^3
#
#
#
# Elastic Constant Matrix: (Units=GPa)
#
#
# Indices 1 2 3 4 5 6 
#
# 1 63.7512 18.9845 33.2187 0.0000 0.0000 0.0000
# 2 18.9845 148.8767 57.8612 0.0000 0.0000 0.0000
# 3 33.2187 57.8612 97.3382 0.0000 0.0000 0.0000
# 4 0.0000 0.0000 0.0000 26.1415 0.0000 0.0000
# 5 0.0000 0.0000 0.0000 0.0000 13.8813 0.0000
# 6 0.0000 0.0000 0.0000 0.0000 0.0000 29.1039
#
#
#
# Elastic Compliance Matrix: (Units=1/GPa)
#
#
# Indices 1 2 3 4 5 6 
#
# 1 0.019080 0.000127 -0.006587 0.000000 0.000000 0.000000
# 2 0.000127 0.008736 -0.005236 0.000000 0.000000 0.000000
# 3 -0.006587 -0.005236 0.015634 0.000000 0.000000 0.000000
# 4 0.000000 0.000000 0.000000 0.038253 0.000000 0.000000
# 5 0.000000 0.000000 0.000000 0.000000 0.072040 0.000000
# 6 0.000000 0.000000 0.000000 0.000000 0.000000 0.034360
#
#
# Mechanical properties :
#
#
# Convention : Reuss Voigt Hill
#
# Bulk Modulus (GPa) = 49.85620 58.89942 54.37781
# Shear Modulus (GPa) = 22.91670 27.15211 25.03440
#
# Velocity S-wave (km/s) = 3.48268 3.79087 3.64004
# Velocity P-wave (km/s) = 6.52375 7.09468 6.81520
#
# Compressibility (1/GPa) = 0.02005769
#
# Stress axis : x y z
#
# Youngs Moduli (GPa) = 52.40961 114.47094 63.96306
#
# Poissons Ratio (x) = -0.01453 0.42133
# Poissons Ratio (y) = -0.00665 0.33492
# Poissons Ratio (z) = 0.34523 0.59939
#
# Static dielectric constant tensor:
#      x y z
#    x 3.376640 0.000000 0.000000 
#    y 0.000000 3.582600 0.000000 
#    z 0.000000 0.000000 3.360100 
# 
# 
# High freq. dielectric constant tensor:
#      x y z
#    x 1.734420 0.000000 0.000000 
#    y 0.000000 1.742040 0.000000 
#    z 0.000000 0.000000 1.704220 
# 
# From -- ./inp_files/60086.got.cif
#   From: 2010.03.12/outbox.cif.g09.slc.cpg/sg65_31_cif.got.tgz:60086.got - 2010.04.10 20:52:16.
