data_PCOD8266021
_publ_section_title
;
Structure prediction by ZEFSAII (Michael W. Deem and Ramdas Pophale) SiO2 
 PCOD8266021
Probable space group: C M M M
;
_chemical_formula_sum "Si O2"
_cell_formula_units_Z 120
_cell_length_a 29.068016
_cell_length_b 27.841109
_cell_length_c 8.394095
_cell_angle_alpha 90.000000
_cell_angle_beta 90.000000
_cell_angle_gamma 90.000000
_cell_volume 6793.221903
_symmetry_space_group_name_H-M "C M M M"
_symmetry_group_IT_number 65
_symmetry_cell_setting 'orthorhombic'
loop_
_space_group_symop_operation_xyz
x,y,z
-x,-y,z
x,-y,-z
-x,y,-z
-x,-y,-z
x,y,-z
-x,y,z
x,-y,z
1/2+x,1/2+y,z
1/2-x,1/2-y,z
1/2+x,1/2-y,-z
1/2-x,1/2+y,-z
1/2-x,1/2-y,-z
1/2+x,1/2+y,-z
1/2-x,1/2+y,z
1/2+x,1/2-y,z
loop_
_atom_site_type_symbol
_atom_site_label
_atom_site_fract_x
_atom_site_fract_y
_atom_site_fract_z
Si Si1 0.132681 0.617757 0.812864
Si Si2 0.312964 0.203111 0.688286
Si Si3 0.095604 0.055480 0.823736
Si Si4 0.284963 0.946788 0.190138
Si Si5 0.446876 0.443847 0.500000
Si Si6 0.052089 0.553898 0.688233
Si Si7 0.789977 0.806638 0.685840
Si Si8 0.692001 0.597218 0.181548
O O1 0.144932 0.672497 0.763612
O O2 0.173736 0.585264 0.742145
O O3 0.084572 0.596855 0.749552
O O4 0.130395 0.614402 0.000000
O O5 0.318169 0.198279 0.500000
O O6 0.262425 0.185723 0.750077
O O7 0.315808 0.258624 0.748708
O O8 0.072113 0.079364 0.666463
O O9 0.150046 0.060655 0.800349
O O10 0.082037 0.000000 0.828231
O O11 0.081255 0.077520 0.000000
O O12 0.236719 0.927320 0.259420
O O13 0.292674 0.000000 0.257400
O O14 0.283659 0.947013 0.000000
O O15 0.434253 0.500000 0.500000
O O16 0.500000 0.433240 0.500000
O O17 0.053610 0.554445 0.500000
O O18 0.066985 0.500000 0.748265
O O19 0.000000 0.564465 0.747550
O O20 0.785410 0.799405 0.500000
O O21 0.820122 0.852843 0.730938
O O22 0.702166 0.610368 0.000000
#
# Coordination Sequence:
#
# PCOD8266021 Si02
#       8
#    16  16  16  16   8  16  16  16
#     4  11  20  30  48  74 100 129 165 209 255 297
#     4   9  18  33  48  66  95 130 166 206 249 292
#     4   9  18  31  47  70 101 135 168 204 247 295
#     4   9  17  28  41  62  96 134 166 195 233 285
#     4   9  18  32  50  72  96 125 164 208 249 288
#     4   9  19  36  55  73  97 132 170 209 256 309
#     4   9  18  31  48  67  93 130 168 208 247 284
#     4  10  18  29  46  68  96 133 168 199 239 293
#
# _framework density 17.664667000000001
#
# number of rings (size 3 to 8) (size 9 to 14) (size 15 to 20)
#    0.000    2.600    1.333    2.400    0.933    3.467 
#    0.000    3.333    0.000    0.800    0.000    0.933 
#    0.000    2.133    0.000    0.000    0.000    0.000 
#
# Total GULP energy -743389.071807 kJ/mol
# GULP energy per Si atom -12389.817863 kJ/mol
# Density = 1.762446 g / cm^3
# Si number density = 17.664667 Si / 1000 Ang^3
#
#
#
# Elastic Constant Matrix: (Units=GPa)
#
#
# Indices 1 2 3 4 5 6 
#
# 1 86.0469 29.7361 36.9673 0.0000 0.0000 0.0000
# 2 29.7361 74.0948 13.4981 0.0000 0.0000 0.0000
# 3 36.9673 13.4981 62.9158 0.0000 0.0000 0.0000
# 4 0.0000 0.0000 0.0000 19.6426 0.0000 0.0000
# 5 0.0000 0.0000 0.0000 0.0000 23.0232 0.0000
# 6 0.0000 0.0000 0.0000 0.0000 0.0000 24.5500
#
#
#
# Elastic Compliance Matrix: (Units=1/GPa)
#
#
# Indices 1 2 3 4 5 6 
#
# 1 0.017347 -0.005312 -0.009053 0.000000 0.000000 0.000000
# 2 -0.005312 0.015672 -0.000241 0.000000 0.000000 0.000000
# 3 -0.009053 -0.000241 0.021265 0.000000 0.000000 0.000000
# 4 0.000000 0.000000 0.000000 0.050910 0.000000 0.000000
# 5 0.000000 0.000000 0.000000 0.000000 0.043434 0.000000
# 6 0.000000 0.000000 0.000000 0.000000 0.000000 0.040733
#
#
# Mechanical properties :
#
#
# Convention : Reuss Voigt Hill
#
# Bulk Modulus (GPa) = 39.88545 42.60673 41.24609
# Shear Modulus (GPa) = 22.03322 22.96690 22.50006
#
# Velocity S-wave (km/s) = 3.53555 3.60969 3.57281
# Velocity P-wave (km/s) = 6.26858 6.44556 6.35768
#
# Compressibility (1/GPa) = 0.02507180
#
# Stress axis : x y z
#
# Youngs Moduli (GPa) = 57.64826 63.80750 47.02579
#
# Poissons Ratio (x) = 0.33898 0.42570
# Poissons Ratio (y) = 0.30625 0.01133
# Poissons Ratio (z) = 0.52186 0.01537
#
# Static dielectric constant tensor:
#      x y z
#    x 3.189400 0.000000 0.000000 
#    y 0.000000 3.272090 0.000000 
#    z 0.000000 0.000000 3.253110 
# 
# 
# High freq. dielectric constant tensor:
#      x y z
#    x 1.656930 0.000000 0.000000 
#    y 0.000000 1.664550 0.000000 
#    z 0.000000 0.000000 1.676640 
# 
# From -- ./inp_files/17080.got.cif
#   From: 2010.03.12/outbox.cif.g09.slc.cpg/sg65_9_cif.got.tgz:17080.got - 2010.04.10 20:52:16.
