data_PCOD8266922
_publ_section_title
;
Structure prediction by ZEFSAII (Michael W. Deem and Ramdas Pophale) SiO2 
 PCOD8266922
Probable space group: C M M M
;
_chemical_formula_sum "Si O2"
_cell_formula_units_Z 104
_cell_length_a 30.342256
_cell_length_b 8.849460
_cell_length_c 20.192108
_cell_angle_alpha 90.000000
_cell_angle_beta 90.000000
_cell_angle_gamma 90.000000
_cell_volume 5421.835031
_symmetry_space_group_name_H-M "C M M M"
_symmetry_group_IT_number 65
_symmetry_cell_setting 'orthorhombic'
loop_
_space_group_symop_operation_xyz
x,y,z
-x,-y,z
x,-y,-z
-x,y,-z
-x,-y,-z
x,y,-z
-x,y,z
x,-y,z
1/2+x,1/2+y,z
1/2-x,1/2-y,z
1/2+x,1/2-y,-z
1/2-x,1/2+y,-z
1/2-x,1/2-y,-z
1/2+x,1/2+y,-z
1/2-x,1/2+y,z
1/2+x,1/2-y,z
loop_
_atom_site_type_symbol
_atom_site_label
_atom_site_fract_x
_atom_site_fract_y
_atom_site_fract_z
Si Si1 0.857909 0.821326 0.190690
Si Si2 0.704475 0.677908 0.074382
Si Si3 0.327502 0.320535 0.576492
Si Si4 0.951024 0.178312 0.229042
Si Si5 0.421190 0.321918 0.628650
Si Si6 0.205390 0.320195 0.703836
Si Si7 0.500000 0.159418 0.427066
O O1 0.834112 0.768106 0.123440
O O2 0.910031 0.778495 0.180642
O O3 0.836548 0.740419 0.254580
O O4 0.853070 0.000000 0.203462
O O5 0.710442 0.500000 0.076905
O O6 0.750000 0.750000 0.098730
O O7 0.692536 0.732499 0.000000
O O8 0.318609 0.272247 0.500000
O O9 0.322012 0.500000 0.584372
O O10 0.375254 0.262383 0.599998
O O11 0.295137 0.235097 0.627160
O O12 0.934263 0.242036 0.299254
O O13 0.000000 0.246209 0.210128
O O14 0.956711 0.000000 0.232143
O O15 0.420380 0.500000 0.630054
O O16 0.457882 0.263444 0.580282
O O17 0.206846 0.500000 0.707598
O O18 0.250000 0.250000 0.735636
O O19 0.500000 0.100473 0.500000
O O20 0.500000 0.000000 0.384801
#
# Coordination Sequence:
#
# PCOD8266922 Si02
#       7
#    16  16  16  16  16  16   8
#     4  10  19  35  58  81 112 146 182 227 268 316
#     4   9  18  32  53  83 116 149 181 218 267 320
#     4  10  21  38  58  77 100 133 177 228 280 333
#     4   9  16  29  53  80 103 134 178 222 263 312
#     4  10  18  33  55  74  94 128 176 222 267 328
#     4  12  25  39  57  80 108 140 180 225 274 333
#     4  11  23  33  43  67 103 135 166 215 280 336
#
# _framework density 19.181698000000001
#
# number of rings (size 3 to 8) (size 9 to 14) (size 15 to 20)
#    0.000    1.923    2.308    2.538    0.000    4.308 
#    0.000    0.000    0.000    0.462    0.000    3.231 
#    0.000    0.000    0.000    5.231    0.000    5.538 
#
# Total GULP energy -644283.433813 kJ/mol
# GULP energy per Si atom -12390.066035 kJ/mol
# Density = 1.913804 g / cm^3
# Si number density = 19.181698 Si / 1000 Ang^3
#
#
#
# Elastic Constant Matrix: (Units=GPa)
#
#
# Indices 1 2 3 4 5 6 
#
# 1 143.3722 25.6847 54.2399 0.0000 0.0000 0.0000
# 2 25.6847 24.0222 24.7106 0.0000 0.0000 0.0000
# 3 54.2399 24.7106 101.0200 0.0000 0.0000 0.0000
# 4 0.0000 0.0000 0.0000 16.0982 0.0000 0.0000
# 5 0.0000 0.0000 0.0000 0.0000 31.2604 0.0000
# 6 0.0000 0.0000 0.0000 0.0000 0.0000 17.2932
#
#
#
# Elastic Compliance Matrix: (Units=1/GPa)
#
#
# Indices 1 2 3 4 5 6 
#
# 1 0.009463 -0.006536 -0.003482 0.000000 0.000000 0.000000
# 2 -0.006536 0.060139 -0.011201 0.000000 0.000000 0.000000
# 3 -0.003482 -0.011201 0.014509 0.000000 0.000000 0.000000
# 4 0.000000 0.000000 0.000000 0.062119 0.000000 0.000000
# 5 0.000000 0.000000 0.000000 0.000000 0.031989 0.000000
# 6 0.000000 0.000000 0.000000 0.000000 0.000000 0.057826
#
#
# Mechanical properties :
#
#
# Convention : Reuss Voigt Hill
#
# Bulk Modulus (GPa) = 23.99721 53.07609 38.53665
# Shear Modulus (GPa) = 17.10139 23.84899 20.47519
#
# Velocity S-wave (km/s) = 2.98912 3.52990 3.27070
# Velocity P-wave (km/s) = 4.94477 6.65912 5.86492
#
# Compressibility (1/GPa) = 0.04167151
#
# Stress axis : x y z
#
# Youngs Moduli (GPa) = 105.67317 16.62825 68.92461
#
# Poissons Ratio (x) = 0.10868 0.24001
# Poissons Ratio (y) = 0.69069 0.77204
# Poissons Ratio (z) = 0.36797 0.18626
#
# Static dielectric constant tensor:
#      x y z
#    x 3.880380 0.000000 0.000000 
#    y 0.000000 3.192500 0.000000 
#    z 0.000000 0.000000 3.545190 
# 
# 
# High freq. dielectric constant tensor:
#      x y z
#    x 1.757900 0.000000 0.000000 
#    y 0.000000 1.721260 0.000000 
#    z 0.000000 0.000000 1.723960 
# 
# From -- ./inp_files/66384.got.cif
#   From: 2010.03.12/outbox.cif.g09.slc.cpg/sg65_34_cif.got.tgz:66384.got - 2010.04.10 20:52:16.
