data_PCOD8266461
_publ_section_title
;
Structure prediction by ZEFSAII (Michael W. Deem and Ramdas Pophale) SiO2 
 PCOD8266461
Probable space group: C M M M
;
_chemical_formula_sum "Si O2"
_cell_formula_units_Z 120
_cell_length_a 9.045635
_cell_length_b 28.114020
_cell_length_c 26.956988
_cell_angle_alpha 90.000000
_cell_angle_beta 90.000000
_cell_angle_gamma 90.000000
_cell_volume 6855.409063
_symmetry_space_group_name_H-M "C M M M"
_symmetry_group_IT_number 65
_symmetry_cell_setting 'orthorhombic'
loop_
_space_group_symop_operation_xyz
x,y,z
-x,-y,z
x,-y,-z
-x,y,-z
-x,-y,-z
x,y,-z
-x,y,z
x,-y,z
1/2+x,1/2+y,z
1/2-x,1/2-y,z
1/2+x,1/2-y,-z
1/2-x,1/2+y,-z
1/2-x,1/2-y,-z
1/2+x,1/2+y,-z
1/2-x,1/2+y,z
1/2+x,1/2-y,z
loop_
_atom_site_type_symbol
_atom_site_label
_atom_site_fract_x
_atom_site_fract_y
_atom_site_fract_z
Si Si1 0.325624 0.888209 0.094153
Si Si2 0.661408 0.444408 0.445662
Si Si3 0.175594 0.447146 0.000000
Si Si4 0.174301 0.945533 0.292422
Si Si5 0.328841 0.886114 0.625679
Si Si6 0.673130 0.298597 0.057135
Si Si7 0.325305 0.200466 0.443264
Si Si8 0.168354 0.445815 0.809090
O O1 0.500000 0.879198 0.089656
O O2 0.267358 0.920566 0.049017
O O3 0.240201 0.838614 0.092574
O O4 0.282428 0.912860 0.145585
O O5 0.673143 0.421287 0.500000
O O6 0.500000 0.430667 0.422186
O O7 0.673632 0.500000 0.450030
O O8 0.799574 0.427410 0.413879
O O9 0.243451 0.500000 0.000000
O O10 0.000000 0.449688 0.000000
O O11 0.241943 0.902800 0.325354
O O12 0.225462 0.935054 0.236764
O O13 0.000000 0.941242 0.295367
O O14 0.222522 0.000000 0.308172
O O15 0.500000 0.882554 0.639196
O O16 0.271857 0.837779 0.598406
O O17 0.500000 0.293795 0.066345
O O18 0.750000 0.250000 0.073179
O O19 0.710176 0.310866 0.000000
O O20 0.281110 0.185527 0.500000
O O21 0.500000 0.206669 0.439781
O O22 0.250000 0.250000 0.428792
O O23 0.183995 0.500000 0.827264
O O24 0.000000 0.435173 0.792841
#
# Coordination Sequence:
#
# PCOD8266461 Si02
#       8
#    16  16   8  16  16  16  16  16
#     4  10  18  30  51  77 105 136 171 211 256 307
#     4   9  18  31  45  65  97 134 167 197 234 288
#     4   9  16  26  44  73 106 137 168 201 242 299
#     4  10  21  36  53  74 101 135 175 215 255 303
#     4  11  21  32  50  75 101 128 163 210 257 299
#     4  10  20  33  50  72 101 135 173 213 254 301
#     4   9  19  35  53  75 103 133 166 204 248 301
#     4   9  18  33  53  77 104 136 174 213 253 300
#
# _framework density 17.504427
#
# number of rings (size 3 to 8) (size 9 to 14) (size 15 to 20)
#    0.000    2.333    0.667    2.800    0.000    7.200 
#    0.000    2.000    0.000    2.400    0.000    3.733 
#    0.000    0.000    0.000    0.000    0.000    0.000 
#
# Total GULP energy -743688.781658 kJ/mol
# GULP energy per Si atom -12394.813028 kJ/mol
# Density = 1.746459 g / cm^3
# Si number density = 17.504427 Si / 1000 Ang^3
#
#
#
# Elastic Constant Matrix: (Units=GPa)
#
#
# Indices 1 2 3 4 5 6 
#
# 1 54.4540 45.9732 42.9736 0.0000 0.0000 0.0000
# 2 45.9732 113.6129 69.5004 0.0000 0.0000 0.0000
# 3 42.9736 69.5004 107.2716 0.0000 0.0000 0.0000
# 4 0.0000 0.0000 0.0000 34.2029 0.0000 0.0000
# 5 0.0000 0.0000 0.0000 0.0000 22.6377 0.0000
# 6 0.0000 0.0000 0.0000 0.0000 0.0000 28.7244
#
#
#
# Elastic Compliance Matrix: (Units=1/GPa)
#
#
# Indices 1 2 3 4 5 6 
#
# 1 0.030821 -0.008148 -0.007068 0.000000 0.000000 0.000000
# 2 -0.008148 0.016735 -0.007578 0.000000 0.000000 0.000000
# 3 -0.007068 -0.007578 0.017063 0.000000 0.000000 0.000000
# 4 0.000000 0.000000 0.000000 0.029237 0.000000 0.000000
# 5 0.000000 0.000000 0.000000 0.000000 0.044174 0.000000
# 6 0.000000 0.000000 0.000000 0.000000 0.000000 0.034814
#
#
# Mechanical properties :
#
#
# Convention : Reuss Voigt Hill
#
# Bulk Modulus (GPa) = 52.54632 65.80366 59.17499
# Shear Modulus (GPa) = 22.24437 24.90576 23.57507
#
# Velocity S-wave (km/s) = 3.56868 3.77613 3.67387
# Velocity P-wave (km/s) = 6.86037 7.52904 7.20247
#
# Compressibility (1/GPa) = 0.01903083
#
# Stress axis : x y z
#
# Youngs Moduli (GPa) = 32.44541 59.75639 58.60473
#
# Poissons Ratio (x) = 0.48689 0.41422
# Poissons Ratio (y) = 0.26436 0.44411
# Poissons Ratio (z) = 0.22933 0.45284
#
# Static dielectric constant tensor:
#      x y z
#    x 3.208600 0.000000 0.000000 
#    y 0.000000 3.253070 0.000000 
#    z 0.000000 0.000000 3.208530 
# 
# 
# High freq. dielectric constant tensor:
#      x y z
#    x 1.670330 0.000000 0.000000 
#    y 0.000000 1.668390 0.000000 
#    z 0.000000 0.000000 1.665090 
# 
# From -- ./inp_files/73884.got.cif
#   From: 2010.03.12/outbox.cif.g09.slc.cpg/sg65_37_cif.got.tgz:73884.got - 2010.04.10 20:52:16.
