data_PCOD8266760
_publ_section_title
;
Structure prediction by ZEFSAII (Michael W. Deem and Ramdas Pophale) SiO2 
 PCOD8266760
Probable space group: C M M M
;
_chemical_formula_sum "Si O2"
_cell_formula_units_Z 80
_cell_length_a 24.907767
_cell_length_b 20.405159
_cell_length_c 8.545655
_cell_angle_alpha 90.000000
_cell_angle_beta 90.000000
_cell_angle_gamma 90.000000
_cell_volume 4343.303055
_symmetry_space_group_name_H-M "C M M M"
_symmetry_group_IT_number 65
_symmetry_cell_setting 'orthorhombic'
loop_
_space_group_symop_operation_xyz
x,y,z
-x,-y,z
x,-y,-z
-x,y,-z
-x,-y,-z
x,y,-z
-x,y,z
x,-y,z
1/2+x,1/2+y,z
1/2-x,1/2-y,z
1/2+x,1/2-y,-z
1/2-x,1/2+y,-z
1/2-x,1/2-y,-z
1/2+x,1/2+y,-z
1/2-x,1/2+y,z
1/2+x,1/2-y,z
loop_
_atom_site_type_symbol
_atom_site_label
_atom_site_fract_x
_atom_site_fract_y
_atom_site_fract_z
Si Si1 0.500000 0.771224 0.674339
Si Si2 0.222137 0.074136 0.820935
Si Si3 0.000000 0.115465 0.672944
Si Si4 0.615232 0.381124 0.686162
Si Si5 0.890190 0.739032 0.182211
Si Si6 0.286913 0.810465 0.317915
O O1 0.500000 0.801669 0.500000
O O2 0.500000 0.693471 0.665098
O O3 0.446343 0.794110 0.764936
O O4 0.159950 0.075975 0.770508
O O5 0.256935 0.121289 0.712159
O O6 0.242917 0.000000 0.799381
O O7 0.227250 0.097134 0.000000
O O8 0.943477 0.094370 0.752678
O O9 0.000000 0.085346 0.500000
O O10 0.618659 0.390328 0.500000
O O11 0.623493 0.304695 0.722390
O O12 0.842125 0.688779 0.219902
O O13 0.892984 0.755526 0.000000
O O14 0.300503 0.804292 0.500000
O O15 0.250000 0.750000 0.261593
#
# Coordination Sequence:
#
# PCOD8266760 Si02
#       6
#     8  16   8  16  16  16
#     4   9  17  31  49  74 111 144 177 218 264 320
#     4  11  24  39  54  76 107 142 180 227 280 329
#     4   7  14  27  46  70  97 131 174 221 260 301
#     4  10  18  32  52  74 102 140 182 224 270 320
#     4  11  20  31  52  81 112 142 176 222 275 320
#     4  11  22  36  57  82 107 141 184 226 271 326
#
# _framework density 18.419160999999999
#
# number of rings (size 3 to 8) (size 9 to 14) (size 15 to 20)
#    0.000    1.800    2.000    5.100    0.000    2.400 
#    0.000    2.000    0.000    3.000    0.000    0.700 
#    0.000    5.600    0.000    0.000    0.000    0.000 
#
# Total GULP energy -495898.963528 kJ/mol
# GULP energy per Si atom -12397.474088 kJ/mol
# Density = 1.837724 g / cm^3
# Si number density = 18.419161 Si / 1000 Ang^3
#
#
#
# Elastic Constant Matrix: (Units=GPa)
#
#
# Indices 1 2 3 4 5 6 
#
# 1 124.4322 30.5291 28.4515 0.0000 0.0000 0.0000
# 2 30.5291 55.2692 13.6799 0.0000 0.0000 0.0000
# 3 28.4515 13.6799 68.0311 0.0000 0.0000 0.0000
# 4 0.0000 0.0000 0.0000 18.0726 0.0000 0.0000
# 5 0.0000 0.0000 0.0000 0.0000 29.5627 0.0000
# 6 0.0000 0.0000 0.0000 0.0000 0.0000 17.0454
#
#
#
# Elastic Compliance Matrix: (Units=1/GPa)
#
#
# Indices 1 2 3 4 5 6 
#
# 1 0.009919 -0.004685 -0.003206 0.000000 0.000000 0.000000
# 2 -0.004685 0.021254 -0.002314 0.000000 0.000000 0.000000
# 3 -0.003206 -0.002314 0.016505 0.000000 0.000000 0.000000
# 4 0.000000 0.000000 0.000000 0.055332 0.000000 0.000000
# 5 0.000000 0.000000 0.000000 0.000000 0.033826 0.000000
# 6 0.000000 0.000000 0.000000 0.000000 0.000000 0.058667
#
#
# Mechanical properties :
#
#
# Convention : Reuss Voigt Hill
#
# Bulk Modulus (GPa) = 36.67461 43.67262 40.17362
# Shear Modulus (GPa) = 22.22170 24.60761 23.41466
#
# Velocity S-wave (km/s) = 3.47716 3.65907 3.56927
# Velocity P-wave (km/s) = 6.00626 6.45086 6.23253
#
# Compressibility (1/GPa) = 0.02726682
#
# Stress axis : x y z
#
# Youngs Moduli (GPa) = 100.81489 47.04948 60.58626
#
# Poissons Ratio (x) = 0.22045 0.19425
# Poissons Ratio (y) = 0.47237 0.14022
# Poissons Ratio (z) = 0.32323 0.10889
#
# Static dielectric constant tensor:
#      x y z
#    x 3.790540 0.000000 0.000000 
#    y 0.000000 2.887570 0.000000 
#    z 0.000000 0.000000 3.346210 
# 
# 
# High freq. dielectric constant tensor:
#      x y z
#    x 1.729380 0.000000 0.000000 
#    y 0.000000 1.657840 0.000000 
#    z 0.000000 0.000000 1.716860 
# 
# From -- ./inp_files/11577.got.cif
#   From: 2010.03.12/outbox.cif.g09.slc.cpg/sg65_6_cif.got.tgz:11577.got - 2010.04.10 20:52:16.
