data_PCOD8266414
_publ_section_title
;
Structure prediction by ZEFSAII (Michael W. Deem and Ramdas Pophale) SiO2 
 PCOD8266414
Probable space group: C M M M
;
_chemical_formula_sum "Si O2"
_cell_formula_units_Z 112
_cell_length_a 27.861952
_cell_length_b 14.721097
_cell_length_c 13.587888
_cell_angle_alpha 90.000000
_cell_angle_beta 90.000000
_cell_angle_gamma 90.000000
_cell_volume 5573.187733
_symmetry_space_group_name_H-M "C M M M"
_symmetry_group_IT_number 65
_symmetry_cell_setting 'orthorhombic'
loop_
_space_group_symop_operation_xyz
x,y,z
-x,-y,z
x,-y,-z
-x,y,-z
-x,-y,-z
x,y,-z
-x,y,z
x,-y,z
1/2+x,1/2+y,z
1/2-x,1/2-y,z
1/2+x,1/2-y,-z
1/2-x,1/2+y,-z
1/2-x,1/2-y,-z
1/2+x,1/2+y,-z
1/2-x,1/2+y,z
1/2+x,1/2-y,z
loop_
_atom_site_type_symbol
_atom_site_label
_atom_site_fract_x
_atom_site_fract_y
_atom_site_fract_z
Si Si1 0.423053 0.602991 0.386570
Si Si2 0.724951 0.100014 0.309641
Si Si3 0.374820 0.893054 0.385571
Si Si4 0.784399 0.334288 0.893720
Si Si5 0.827385 0.105246 0.284300
Si Si6 0.446571 0.768487 0.736019
Si Si7 0.372633 0.284394 0.110394
O O1 0.435072 0.618025 0.500000
O O2 0.436435 0.500000 0.354098
O O3 0.366595 0.621648 0.368704
O O4 0.453064 0.674438 0.323713
O O5 0.678006 0.148539 0.357026
O O6 0.719296 0.091458 0.191441
O O7 0.777000 0.149154 0.325172
O O8 0.726303 0.000000 0.357158
O O9 0.384595 0.875380 0.500000
O O10 0.415193 0.840823 0.324417
O O11 0.377542 0.000000 0.359367
O O12 0.750000 0.250000 0.868146
O O13 0.839498 0.303531 0.898267
O O14 0.769625 0.376111 0.000000
O O15 0.845418 0.143699 0.180044
O O16 0.817015 0.000000 0.264716
O O17 0.500000 0.808332 0.752958
O O18 0.422883 0.746550 0.841386
O O19 0.381929 0.324552 0.000000
#
# Coordination Sequence:
#
# PCOD8266414 Si02
#       7
#    16  16  16  16  16  16  16
#     4   9  19  36  56  81 113 144 177 220 271 328
#     4  10  19  32  51  77 110 145 179 216 260 315
#     4  10  22  39  57  80 111 145 184 232 282 329
#     4  10  18  30  50  76 105 139 174 212 260 314
#     4   9  18  31  51  80 114 150 183 214 255 317
#     4  11  23  39  60  82 105 137 185 238 286 338
#     4  10  20  35  55  77 107 143 178 221 272 324
#
# _framework density 20.096219999999999
#
# number of rings (size 3 to 8) (size 9 to 14) (size 15 to 20)
#    0.000    2.143    2.857    0.429    0.000    3.143 
#    0.000    5.714    0.000    3.429    0.000    5.000 
#    0.000    0.000    0.000    0.000    0.000    0.000 
#
# Total GULP energy -693864.366017 kJ/mol
# GULP energy per Si atom -12390.435107 kJ/mol
# Density = 2.005048 g / cm^3
# Si number density = 20.096220 Si / 1000 Ang^3
#
#
#
# Elastic Constant Matrix: (Units=GPa)
#
#
# Indices 1 2 3 4 5 6 
#
# 1 155.9739 22.8972 32.0466 0.0000 0.0000 0.0000
# 2 22.8972 35.8825 12.9557 0.0000 0.0000 0.0000
# 3 32.0466 12.9557 70.2899 0.0000 0.0000 0.0000
# 4 0.0000 0.0000 0.0000 25.3354 0.0000 0.0000
# 5 0.0000 0.0000 0.0000 0.0000 13.2936 0.0000
# 6 0.0000 0.0000 0.0000 0.0000 0.0000 21.6930
#
#
#
# Elastic Compliance Matrix: (Units=1/GPa)
#
#
# Indices 1 2 3 4 5 6 
#
# 1 0.007533 -0.003821 -0.002730 0.000000 0.000000 0.000000
# 2 -0.003821 0.031794 -0.004118 0.000000 0.000000 0.000000
# 3 -0.002730 -0.004118 0.016231 0.000000 0.000000 0.000000
# 4 0.000000 0.000000 0.000000 0.039471 0.000000 0.000000
# 5 0.000000 0.000000 0.000000 0.000000 0.075224 0.000000
# 6 0.000000 0.000000 0.000000 0.000000 0.000000 0.046098
#
#
# Mechanical properties :
#
#
# Convention : Reuss Voigt Hill
#
# Bulk Modulus (GPa) = 29.22372 44.21615 36.71993
# Shear Modulus (GPa) = 20.07259 25.01418 22.54338
#
# Velocity S-wave (km/s) = 3.16385 3.53189 3.35292
# Velocity P-wave (km/s) = 5.28394 6.21951 5.77072
#
# Compressibility (1/GPa) = 0.03421878
#
# Stress axis : x y z
#
# Youngs Moduli (GPa) = 132.74467 31.45247 61.61212
#
# Poissons Ratio (x) = 0.12019 0.16822
# Poissons Ratio (y) = 0.50726 0.25372
# Poissons Ratio (z) = 0.36242 0.12952
#
# Static dielectric constant tensor:
#      x y z
#    x 3.704720 0.000000 0.000000 
#    y 0.000000 3.480600 0.000000 
#    z 0.000000 0.000000 3.694880 
# 
# 
# High freq. dielectric constant tensor:
#      x y z
#    x 1.786260 0.000000 0.000000 
#    y 0.000000 1.761370 0.000000 
#    z 0.000000 0.000000 1.777510 
# 
# From -- ./inp_files/47015.got.cif
#   From: 2010.03.12/outbox.cif.g09.slc.cpg/sg65_24_cif.got.tgz:47015.got - 2010.04.10 20:52:16.
