data_PCOD8266196
_publ_section_title
;
Structure prediction by ZEFSAII (Michael W. Deem and Ramdas Pophale) SiO2 
 PCOD8266196
Probable space group: C M M M
;
_chemical_formula_sum "Si O2"
_cell_formula_units_Z 112
_cell_length_a 13.797925
_cell_length_b 27.483016
_cell_length_c 17.799464
_cell_angle_alpha 90.000000
_cell_angle_beta 90.000000
_cell_angle_gamma 90.000000
_cell_volume 6749.709709
_symmetry_space_group_name_H-M "C M M M"
_symmetry_group_IT_number 65
_symmetry_cell_setting 'orthorhombic'
loop_
_space_group_symop_operation_xyz
x,y,z
-x,-y,z
x,-y,-z
-x,y,-z
-x,-y,-z
x,y,-z
-x,y,z
x,-y,z
1/2+x,1/2+y,z
1/2-x,1/2-y,z
1/2+x,1/2-y,-z
1/2-x,1/2+y,-z
1/2-x,1/2-y,-z
1/2+x,1/2+y,-z
1/2-x,1/2+y,z
1/2+x,1/2-y,z
loop_
_atom_site_type_symbol
_atom_site_label
_atom_site_fract_x
_atom_site_fract_y
_atom_site_fract_z
Si Si1 0.388270 0.784579 0.216600
Si Si2 0.389196 0.412407 0.205861
Si Si3 0.614637 0.653842 0.416737
Si Si4 0.610825 0.143182 0.084804
Si Si5 0.388729 0.551663 0.632047
Si Si6 0.254329 0.945304 0.913385
Si Si7 0.807862 0.185964 0.266083
O O1 0.500000 0.792474 0.243368
O O2 0.370811 0.808774 0.134909
O O3 0.309206 0.809514 0.271494
O O4 0.360667 0.727658 0.216566
O O5 0.500000 0.400724 0.186426
O O6 0.379840 0.446661 0.278084
O O7 0.342836 0.439133 0.134835
O O8 0.334305 0.362671 0.223357
O O9 0.641478 0.673249 0.500000
O O10 0.500000 0.652059 0.404121
O O11 0.658949 0.599154 0.406620
O O12 0.657229 0.688771 0.352737
O O13 0.500000 0.126900 0.089633
O O14 0.668691 0.095473 0.112781
O O15 0.640457 0.157590 0.000000
O O16 0.500000 0.550872 0.607322
O O17 0.340565 0.500000 0.606037
O O18 0.296466 0.000000 0.900772
O O19 0.226041 0.937685 0.000000
#
# Coordination Sequence:
#
# PCOD8266196 Si02
#       7
#    16  16  16  16  16  16  16
#     4  10  19  33  54  76  96 124 161 200 245 290
#     4  10  18  30  46  66  97 135 167 196 236 287
#     4   9  17  29  46  69 100 134 164 198 240 288
#     4   9  18  34  53  72  96 124 159 207 256 292
#     4   8  14  24  40  63  90 124 165 202 234 272
#     4  10  20  32  46  68  97 128 164 202 243 292
#     4  10  19  33  52  75  98 127 159 199 243 289
#
# _framework density 16.593306999999999
#
# number of rings (size 3 to 8) (size 9 to 14) (size 15 to 20)
#    0.000    2.571    1.429    2.571    0.000    1.714 
#    0.000    7.143    0.000    3.000    0.000    0.000 
#    0.000    0.000    0.000    3.714    0.000    0.286 
#
# Total GULP energy -693831.886705 kJ/mol
# GULP energy per Si atom -12389.855120 kJ/mol
# Density = 1.655554 g / cm^3
# Si number density = 16.593307 Si / 1000 Ang^3
#
#
#
# Elastic Constant Matrix: (Units=GPa)
#
#
# Indices 1 2 3 4 5 6 
#
# 1 81.9117 29.5918 34.1464 0.0000 0.0000 0.0000
# 2 29.5918 91.7429 33.0904 0.0000 0.0000 0.0000
# 3 34.1464 33.0904 81.4186 0.0000 0.0000 0.0000
# 4 0.0000 0.0000 0.0000 15.2756 0.0000 0.0000
# 5 0.0000 0.0000 0.0000 0.0000 20.2020 0.0000
# 6 0.0000 0.0000 0.0000 0.0000 0.0000 17.9308
#
#
#
# Elastic Compliance Matrix: (Units=1/GPa)
#
#
# Indices 1 2 3 4 5 6 
#
# 1 0.015519 -0.003115 -0.005243 0.000000 0.000000 0.000000
# 2 -0.003115 0.013397 -0.004139 0.000000 0.000000 0.000000
# 3 -0.005243 -0.004139 0.016163 0.000000 0.000000 0.000000
# 4 0.000000 0.000000 0.000000 0.065464 0.000000 0.000000
# 5 0.000000 0.000000 0.000000 0.000000 0.049500 0.000000
# 6 0.000000 0.000000 0.000000 0.000000 0.000000 0.055770
#
#
# Mechanical properties :
#
#
# Convention : Reuss Voigt Hill
#
# Bulk Modulus (GPa) = 49.78288 49.85894 49.82091
# Shear Modulus (GPa) = 20.20192 21.23133 20.71663
#
# Velocity S-wave (km/s) = 3.49302 3.58091 3.53724
# Velocity P-wave (km/s) = 6.80699 6.87096 6.83905
#
# Compressibility (1/GPa) = 0.02008723
#
# Stress axis : x y z
#
# Youngs Moduli (GPa) = 64.43715 74.64092 61.86965
#
# Poissons Ratio (x) = 0.23249 0.32436
# Poissons Ratio (y) = 0.20070 0.25606
# Poissons Ratio (z) = 0.33782 0.30892
#
# Static dielectric constant tensor:
#      x y z
#    x 3.011840 0.000000 0.000000 
#    y 0.000000 3.291430 0.000000 
#    z 0.000000 0.000000 3.104320 
# 
# 
# High freq. dielectric constant tensor:
#      x y z
#    x 1.612160 0.000000 0.000000 
#    y 0.000000 1.646810 0.000000 
#    z 0.000000 0.000000 1.628380 
# 
# From -- ./inp_files/41125.got.cif
#   From: 2010.03.12/outbox.cif.g09.slc.cpg/sg65_21_cif.got.tgz:41125.got - 2010.04.10 20:52:16.
