data_PCOD8266696
_publ_section_title
;
Structure prediction by ZEFSAII (Michael W. Deem and Ramdas Pophale) SiO2 
 PCOD8266696
Probable space group: C M M M
;
_chemical_formula_sum "Si O2"
_cell_formula_units_Z 80
_cell_length_a 8.815054
_cell_length_b 24.780336
_cell_length_c 20.212514
_cell_angle_alpha 90.000000
_cell_angle_beta 90.000000
_cell_angle_gamma 90.000000
_cell_volume 4415.221558
_symmetry_space_group_name_H-M "C M M M"
_symmetry_group_IT_number 65
_symmetry_cell_setting 'orthorhombic'
loop_
_space_group_symop_operation_xyz
x,y,z
-x,-y,z
x,-y,-z
-x,y,-z
-x,-y,-z
x,y,-z
-x,y,z
x,-y,z
1/2+x,1/2+y,z
1/2-x,1/2-y,z
1/2+x,1/2-y,-z
1/2-x,1/2+y,-z
1/2-x,1/2-y,-z
1/2+x,1/2+y,-z
1/2-x,1/2+y,z
1/2+x,1/2-y,z
loop_
_atom_site_type_symbol
_atom_site_label
_atom_site_fract_x
_atom_site_fract_y
_atom_site_fract_z
Si Si1 0.677767 0.192268 0.500000
Si Si2 0.670848 0.500000 0.239443
Si Si3 0.177925 0.888887 0.101976
Si Si4 0.170107 0.116421 0.257180
Si Si5 0.176873 0.692181 0.642279
Si Si6 0.680966 0.809465 0.000000
Si Si7 0.822784 0.500000 0.105199
O O1 0.500000 0.199535 0.500000
O O2 0.750000 0.250000 0.500000
O O3 0.726810 0.165480 0.570573
O O4 0.500000 0.500000 0.206190
O O5 0.687814 0.554329 0.282620
O O6 0.799473 0.500000 0.183859
O O7 0.210206 0.881072 0.179735
O O8 0.261986 0.840303 0.065260
O O9 0.245317 0.945910 0.075960
O O10 0.000000 0.887315 0.085739
O O11 0.283645 0.152371 0.298618
O O12 0.000000 0.137484 0.269735
O O13 0.250000 0.750000 0.654774
O O14 0.000000 0.702100 0.643706
O O15 0.750000 0.750000 0.000000
O O16 0.500000 0.806029 0.000000
O O17 0.000000 0.500000 0.087205
#
# Coordination Sequence:
#
# PCOD8266696 Si02
#       7
#     8   8  16  16  16   8   8
#     4   8  16  30  46  67  96 131 167 206 252 302
#     4   8  16  32  51  72 103 140 170 204 254 308
#     4  10  21  39  59  79 106 140 174 213 260 308
#     4   9  18  33  54  78 103 132 169 209 251 299
#     4  10  19  31  49  73 102 133 168 209 255 303
#     4  12  26  43  60  79 104 138 178 216 258 312
#     4  10  18  31  55  86 111 131 166 216 262 307
#
# _framework density 18.119136999999998
#
# number of rings (size 3 to 8) (size 9 to 14) (size 15 to 20)
#    0.000    2.400    0.000    4.200    0.000    6.000 
#    0.000    2.000    0.000    0.600    0.000    4.200 
#    0.000    0.000    0.000    0.000    0.000    0.000 
#
# Total GULP energy -495608.108124 kJ/mol
# GULP energy per Si atom -12390.202703 kJ/mol
# Density = 1.807790 g / cm^3
# Si number density = 18.119137 Si / 1000 Ang^3
#
#
#
# Elastic Constant Matrix: (Units=GPa)
#
#
# Indices 1 2 3 4 5 6 
#
# 1 95.6323 54.9173 39.3678 0.0000 0.0000 0.0000
# 2 54.9173 133.9973 58.1998 0.0000 0.0000 0.0000
# 3 39.3678 58.1998 92.8300 0.0000 0.0000 0.0000
# 4 0.0000 0.0000 0.0000 -15.1506 0.0000 0.0000
# 5 0.0000 0.0000 0.0000 0.0000 21.3802 0.0000
# 6 0.0000 0.0000 0.0000 0.0000 0.0000 32.6201
#
#
#
# Elastic Compliance Matrix: (Units=1/GPa)
#
#
# Indices 1 2 3 4 5 6 
#
# 1 0.014376 -0.004458 -0.003302 0.000000 0.000000 0.000000
# 2 -0.004458 0.011638 -0.005406 0.000000 0.000000 0.000000
# 3 -0.003302 -0.005406 0.015562 0.000000 0.000000 0.000000
# 4 0.000000 0.000000 0.000000 -0.066004 0.000000 0.000000
# 5 0.000000 0.000000 0.000000 0.000000 0.046772 0.000000
# 6 0.000000 0.000000 0.000000 0.000000 0.000000 0.030656
#
#
# Mechanical properties :
#
#
# Convention : Reuss Voigt Hill
#
# Bulk Modulus (GPa) = 65.59669 69.71438 67.65554
# Shear Modulus (GPa) = 59.23368 19.10161 39.16764
#
# Velocity S-wave (km/s) = 5.72383 3.25040 4.65442
# Velocity P-wave (km/s) = 8.94229 7.25575 8.14280
#
# Compressibility (1/GPa) = 0.01524467
#
# Stress axis : x y z
#
# Youngs Moduli (GPa) = 69.56157 85.92756 64.25974
#
# Poissons Ratio (x) = 0.38303 0.21217
# Poissons Ratio (y) = 0.31008 0.34738
# Poissons Ratio (z) = 0.22968 0.46451
#
# Static dielectric constant tensor:
#      x y z
#    x 3.471320 0.000000 0.000000 
#    y 0.000000 3.364510 0.000000 
#    z 0.000000 0.000000 3.517880 
# 
# 
# High freq. dielectric constant tensor:
#      x y z
#    x 1.709740 0.000000 0.000000 
#    y 0.000000 1.691630 0.000000 
#    z 0.000000 0.000000 1.691070 
# 
# From -- ./inp_files/59716.got.cif
#   From: 2010.03.12/outbox.cif.g09.slc.cpg/sg65_30_cif.got.tgz:59716.got - 2010.04.10 20:52:16.
