data_PCOD8266632
_publ_section_title
;
Structure prediction by ZEFSAII (Michael W. Deem and Ramdas Pophale) SiO2 
 PCOD8266632
Probable space group: C M M M
;
_chemical_formula_sum "Si O2"
_cell_formula_units_Z 104
_cell_length_a 17.892969
_cell_length_b 27.322613
_cell_length_c 12.363161
_cell_angle_alpha 90.000000
_cell_angle_beta 90.000000
_cell_angle_gamma 90.000000
_cell_volume 6044.135127
_symmetry_space_group_name_H-M "C M M M"
_symmetry_group_IT_number 65
_symmetry_cell_setting 'orthorhombic'
loop_
_space_group_symop_operation_xyz
x,y,z
-x,-y,z
x,-y,-z
-x,y,-z
-x,-y,-z
x,y,-z
-x,y,z
x,-y,z
1/2+x,1/2+y,z
1/2-x,1/2-y,z
1/2+x,1/2-y,-z
1/2-x,1/2+y,-z
1/2-x,1/2-y,-z
1/2+x,1/2+y,-z
1/2-x,1/2+y,z
1/2+x,1/2-y,z
loop_
_atom_site_type_symbol
_atom_site_label
_atom_site_fract_x
_atom_site_fract_y
_atom_site_fract_z
Si Si1 0.918335 0.278363 0.874183
Si Si2 0.583322 0.651672 0.627974
Si Si3 0.183100 0.443549 0.699621
Si Si4 0.690883 0.862280 0.128407
Si Si5 0.149816 0.947029 0.373134
Si Si6 0.584897 0.941811 0.500000
Si Si7 0.192411 0.791845 0.771130
O O1 0.877531 0.327715 0.835702
O O2 0.867936 0.231095 0.852058
O O3 0.000000 0.274700 0.817233
O O4 0.930251 0.281313 0.000000
O O5 0.589167 0.652057 0.500000
O O6 0.500000 0.666916 0.666341
O O7 0.599469 0.596907 0.674123
O O8 0.646462 0.688826 0.668524
O O9 0.166233 0.500000 0.728313
O O10 0.177218 0.413368 0.810850
O O11 0.264220 0.436073 0.649706
O O12 0.125459 0.422995 0.609240
O O13 0.767376 0.836147 0.166305
O O14 0.694510 0.871824 0.000000
O O15 0.137817 0.949855 0.500000
O O16 0.126506 0.000000 0.322217
O O17 0.500000 0.922334 0.500000
O O18 0.589116 0.000000 0.500000
O O19 0.250000 0.750000 0.731119
#
# Coordination Sequence:
#
# PCOD8266632 Si02
#       7
#    16  16  16  16  16   8  16
#     4   9  18  33  53  73  95 126 166 214 260 301
#     4  10  20  32  49  75 105 134 166 210 262 312
#     4  10  18  31  52  76 104 139 172 206 250 305
#     4  10  20  33  51  77 105 133 169 213 257 304
#     4   9  16  29  50  74  99 130 168 204 242 294
#     4   9  18  32  52  78 104 133 175 223 258 288
#     4  10  19  33  52  73  96 132 171 215 252 304
#
# _framework density 17.206762999999999
#
# number of rings (size 3 to 8) (size 9 to 14) (size 15 to 20)
#    0.000    2.385    2.308    0.923    0.000    3.385 
#    0.000    1.538    1.692    0.000    0.000    4.308 
#    0.000    2.462    0.000    0.000    0.000    0.000 
#
# Total GULP energy -644476.702487 kJ/mol
# GULP energy per Si atom -12393.782740 kJ/mol
# Density = 1.716760 g / cm^3
# Si number density = 17.206763 Si / 1000 Ang^3
#
#
#
# Elastic Constant Matrix: (Units=GPa)
#
#
# Indices 1 2 3 4 5 6 
#
# 1 113.4687 45.0769 33.0963 0.0000 0.0000 0.0000
# 2 45.0769 88.5699 42.7844 0.0000 0.0000 0.0000
# 3 33.0963 42.7844 53.4213 0.0000 0.0000 0.0000
# 4 0.0000 0.0000 0.0000 27.9796 0.0000 0.0000
# 5 0.0000 0.0000 0.0000 0.0000 20.2254 0.0000
# 6 0.0000 0.0000 0.0000 0.0000 0.0000 16.4587
#
#
#
# Elastic Compliance Matrix: (Units=1/GPa)
#
#
# Indices 1 2 3 4 5 6 
#
# 1 0.011545 -0.003948 -0.003991 0.000000 0.000000 0.000000
# 2 -0.003948 0.019765 -0.013383 0.000000 0.000000 0.000000
# 3 -0.003991 -0.013383 0.031910 0.000000 0.000000 0.000000
# 4 0.000000 0.000000 0.000000 0.035740 0.000000 0.000000
# 5 0.000000 0.000000 0.000000 0.000000 0.049443 0.000000
# 6 0.000000 0.000000 0.000000 0.000000 0.000000 0.060758
#
#
# Mechanical properties :
#
#
# Convention : Reuss Voigt Hill
#
# Bulk Modulus (GPa) = 48.60082 55.26391 51.93237
# Shear Modulus (GPa) = 19.33002 21.89956 20.61479
#
# Velocity S-wave (km/s) = 3.35535 3.57140 3.46506
# Velocity P-wave (km/s) = 6.58161 7.01383 6.80116
#
# Compressibility (1/GPa) = 0.02057578
#
# Stress axis : x y z
#
# Youngs Moduli (GPa) = 86.61391 50.59480 31.33799
#
# Poissons Ratio (x) = 0.19976 0.12506
# Poissons Ratio (y) = 0.34197 0.41941
# Poissons Ratio (z) = 0.34566 0.67713
#
# Static dielectric constant tensor:
#      x y z
#    x 3.632060 0.000000 0.000000 
#    y 0.000000 3.358540 0.000000 
#    z 0.000000 0.000000 2.927540 
# 
# 
# High freq. dielectric constant tensor:
#      x y z
#    x 1.674470 0.000000 0.000000 
#    y 0.000000 1.660330 0.000000 
#    z 0.000000 0.000000 1.635000 
# 
# From -- ./inp_files/27490.got.cif
#   From: 2010.03.12/outbox.cif.g09.slc.cpg/sg65_14_cif.got.tgz:27490.got - 2010.04.10 20:52:16.
