data_PCOD8266786
_publ_section_title
;
Structure prediction by ZEFSAII (Michael W. Deem and Ramdas Pophale) SiO2 
 PCOD8266786
Probable space group: C M M M
;
_chemical_formula_sum "Si O2"
_cell_formula_units_Z 88
_cell_length_a 8.826077
_cell_length_b 19.221066
_cell_length_c 28.109650
_cell_angle_alpha 90.000000
_cell_angle_beta 90.000000
_cell_angle_gamma 90.000000
_cell_volume 4768.706790
_symmetry_space_group_name_H-M "C M M M"
_symmetry_group_IT_number 65
_symmetry_cell_setting 'orthorhombic'
loop_
_space_group_symop_operation_xyz
x,y,z
-x,-y,z
x,-y,-z
-x,y,-z
-x,-y,-z
x,y,-z
-x,y,z
x,-y,z
1/2+x,1/2+y,z
1/2-x,1/2-y,z
1/2+x,1/2-y,-z
1/2-x,1/2+y,-z
1/2-x,1/2-y,-z
1/2+x,1/2+y,-z
1/2-x,1/2+y,z
1/2+x,1/2-y,z
loop_
_atom_site_type_symbol
_atom_site_label
_atom_site_fract_x
_atom_site_fract_y
_atom_site_fract_z
Si Si1 0.318745 0.326684 0.000000
Si Si2 0.822219 0.821106 0.553877
Si Si3 0.671918 0.917873 0.627338
Si Si4 0.679358 0.825679 0.095179
Si Si5 0.323034 0.581099 0.826633
Si Si6 0.832696 0.082535 0.279377
O O1 0.250000 0.250000 0.000000
O O2 0.254103 0.361723 0.951856
O O3 0.500000 0.327299 0.000000
O O4 0.766727 0.835746 0.500000
O O5 0.750000 0.750000 0.573502
O O6 0.773250 0.885231 0.586241
O O7 0.000000 0.812729 0.556262
O O8 0.500000 0.895296 0.619073
O O9 0.720970 0.890029 0.679509
O O10 0.694772 0.000000 0.624054
O O11 0.500000 0.818326 0.088394
O O12 0.750000 0.750000 0.104725
O O13 0.716075 0.875250 0.139038
O O14 0.500000 0.596247 0.836517
O O15 0.287413 0.500000 0.834184
O O16 0.278758 0.605567 0.773145
O O17 0.000000 0.112769 0.289920
O O18 0.840410 0.000000 0.279772
#
# Coordination Sequence:
#
# PCOD8266786 Si02
#       6
#     8  16  16  16  16  16
#     4  10  18  32  53  74  99 132 171 211 255 307
#     4  10  21  37  56  76 101 135 172 210 255 308
#     4  10  20  33  52  79 108 136 169 211 254 297
#     4  11  21  34  53  77 105 135 171 213 256 303
#     4   9  18  34  55  78 105 137 171 208 255 307
#     4   8  15  30  52  75 101 135 172 209 251 302
#
# _framework density 18.453641000000001
#
# number of rings (size 3 to 8) (size 9 to 14) (size 15 to 20)
#    0.000    2.364    0.000    5.727    0.000    3.636 
#    0.000    5.000    0.000    7.091    0.000    0.000 
#    0.000    0.000    0.000    0.000    0.000    0.000 
#
# Total GULP energy -545496.936436 kJ/mol
# GULP energy per Si atom -12397.657646 kJ/mol
# Density = 1.841164 g / cm^3
# Si number density = 18.453641 Si / 1000 Ang^3
#
#
#
# Elastic Constant Matrix: (Units=GPa)
#
#
# Indices 1 2 3 4 5 6 
#
# 1 114.6107 34.1418 56.2641 0.0000 0.0000 0.0000
# 2 34.1418 43.5893 41.9663 0.0000 0.0000 0.0000
# 3 56.2641 41.9663 130.1699 0.0000 0.0000 0.0000
# 4 0.0000 0.0000 0.0000 -14.4648 0.0000 0.0000
# 5 0.0000 0.0000 0.0000 0.0000 34.9322 0.0000
# 6 0.0000 0.0000 0.0000 0.0000 0.0000 27.5447
#
#
#
# Elastic Compliance Matrix: (Units=1/GPa)
#
#
# Indices 1 2 3 4 5 6 
#
# 1 0.012229 -0.006510 -0.003187 0.000000 0.000000 0.000000
# 2 -0.006510 0.036733 -0.009029 0.000000 0.000000 0.000000
# 3 -0.003187 -0.009029 0.011971 0.000000 0.000000 0.000000
# 4 0.000000 0.000000 0.000000 -0.069133 0.000000 0.000000
# 5 0.000000 0.000000 0.000000 0.000000 0.028627 0.000000
# 6 0.000000 0.000000 0.000000 0.000000 0.000000 0.036305
#
#
# Mechanical properties :
#
#
# Convention : Reuss Voigt Hill
#
# Bulk Modulus (GPa) = 42.58758 61.45716 52.02237
# Shear Modulus (GPa) = 49.01500 20.00228 34.50864
#
# Velocity S-wave (km/s) = 5.15934 3.29587 4.32906
# Velocity P-wave (km/s) = 7.65637 6.91806 7.29656
#
# Compressibility (1/GPa) = 0.02348103
#
# Stress axis : x y z
#
# Youngs Moduli (GPa) = 81.77228 27.22339 83.53802
#
# Poissons Ratio (x) = 0.17723 0.26623
# Poissons Ratio (y) = 0.53236 0.75424
# Poissons Ratio (z) = 0.26061 0.24579
#
# Static dielectric constant tensor:
#      x y z
#    x 3.463140 0.000000 0.000000 
#    y 0.000000 3.014130 0.000000 
#    z 0.000000 0.000000 3.871160 
# 
# 
# High freq. dielectric constant tensor:
#      x y z
#    x 1.723210 0.000000 0.000000 
#    y 0.000000 1.676600 0.000000 
#    z 0.000000 0.000000 1.732420 
# 
# From -- ./inp_files/67520.got.cif
#   From: 2010.03.12/outbox.cif.g09.slc.cpg/sg65_34_cif.got.tgz:67520.got - 2010.04.10 20:52:16.
