data_PCOD8266870
_publ_section_title
;
Structure prediction by ZEFSAII (Michael W. Deem and Ramdas Pophale) SiO2 
 PCOD8266870
Probable space group: C M M M
;
_chemical_formula_sum "Si O2"
_cell_formula_units_Z 64
_cell_length_a 8.658190
_cell_length_b 18.558104
_cell_length_c 21.027770
_cell_angle_alpha 90.000000
_cell_angle_beta 90.000000
_cell_angle_gamma 90.000000
_cell_volume 3378.733472
_symmetry_space_group_name_H-M "C M M M"
_symmetry_group_IT_number 65
_symmetry_cell_setting 'orthorhombic'
loop_
_space_group_symop_operation_xyz
x,y,z
-x,-y,z
x,-y,-z
-x,y,-z
-x,-y,-z
x,y,-z
-x,y,z
x,-y,z
1/2+x,1/2+y,z
1/2-x,1/2-y,z
1/2+x,1/2-y,-z
1/2-x,1/2+y,-z
1/2-x,1/2-y,-z
1/2+x,1/2+y,-z
1/2-x,1/2+y,z
1/2+x,1/2-y,z
loop_
_atom_site_type_symbol
_atom_site_label
_atom_site_fract_x
_atom_site_fract_y
_atom_site_fract_z
Si Si1 0.817633 0.171031 0.136918
Si Si2 0.819688 0.915960 0.741737
Si Si3 0.183235 0.170178 0.500000
Si Si4 0.318447 0.828937 0.371467
Si Si5 0.318403 0.328162 0.000000
O O1 0.750000 0.250000 0.148798
O O2 0.760794 0.117220 0.191658
O O3 0.766127 0.136674 0.067705
O O4 0.000000 0.179220 0.139530
O O5 0.719795 0.881221 0.686215
O O6 0.000000 0.899900 0.729882
O O7 0.784379 0.000000 0.743884
O O8 0.250000 0.250000 0.500000
O O9 0.246582 0.134106 0.564788
O O10 0.000000 0.168899 0.500000
O O11 0.500000 0.821051 0.380242
O O12 0.250000 0.750000 0.357949
O O13 0.250000 0.250000 0.000000
O O14 0.500000 0.322035 0.000000
#
# Coordination Sequence:
#
# PCOD8266870 Si02
#       5
#    16  16   8  16   8
#     4   9  17  30  50  74  99 130 168 212 258 306
#     4  10  21  36  51  71 103 140 176 215 260 307
#     4  10  18  32  55  82 109 134 165 207 255 303
#     4  11  21  35  56  81 107 135 171 212 255 304
#     4   8  14  26  45  71  99 125 161 208 257 304
#
# _framework density 18.942008999999999
#
# number of rings (size 3 to 8) (size 9 to 14) (size 15 to 20)
#    0.000    2.250    0.000    5.625    0.000    3.500 
#    0.000    1.250    0.000    7.500    0.000    0.000 
#    0.000   12.000    0.000    0.000    0.000    0.000 
#
# Total GULP energy -396516.103612 kJ/mol
# GULP energy per Si atom -12391.128238 kJ/mol
# Density = 1.889890 g / cm^3
# Si number density = 18.942009 Si / 1000 Ang^3
#
#
#
# Elastic Constant Matrix: (Units=GPa)
#
#
# Indices 1 2 3 4 5 6 
#
# 1 92.9926 31.3848 58.2979 0.0000 0.0000 0.0000
# 2 31.3848 74.9051 63.9496 0.0000 0.0000 0.0000
# 3 58.2979 63.9496 203.4895 0.0000 0.0000 0.0000
# 4 0.0000 0.0000 0.0000 -19.7503 0.0000 0.0000
# 5 0.0000 0.0000 0.0000 0.0000 -262.8043 0.0000
# 6 0.0000 0.0000 0.0000 0.0000 0.0000 20.3418
#
#
#
# Elastic Compliance Matrix: (Units=1/GPa)
#
#
# Indices 1 2 3 4 5 6 
#
# 1 0.013666 -0.003257 -0.002891 0.000000 0.000000 0.000000
# 2 -0.003257 0.019022 -0.005045 0.000000 0.000000 0.000000
# 3 -0.002891 -0.005045 0.007328 0.000000 0.000000 0.000000
# 4 0.000000 0.000000 0.000000 -0.050632 0.000000 0.000000
# 5 0.000000 0.000000 0.000000 0.000000 -0.003805 0.000000
# 6 0.000000 0.000000 0.000000 0.000000 0.000000 0.049160
#
#
# Mechanical properties :
#
#
# Convention : Reuss Voigt Hill
#
# Bulk Modulus (GPa) = 56.72597 75.40578 66.06587
# Shear Modulus (GPa) = 79.36364 -37.92558 20.71903
#
# Velocity S-wave (km/s) = 6.47991 -4.47944 3.31087
# Velocity P-wave (km/s) = 9.27350 3.62509 7.04056
#
# Compressibility (1/GPa) = 0.01762861
#
# Stress axis : x y z
#
# Youngs Moduli (GPa) = 73.17696 52.57100 136.46282
#
# Poissons Ratio (x) = 0.17124 0.39457
# Poissons Ratio (y) = 0.23836 0.68842
# Poissons Ratio (z) = 0.21158 0.26521
#
# Static dielectric constant tensor:
#      x y z
#    x 3.406010 0.000000 0.000000 
#    y 0.000000 3.082590 0.000000 
#    z 0.000000 0.000000 4.623000 
# 
# 
# High freq. dielectric constant tensor:
#      x y z
#    x 1.734110 0.000000 0.000000 
#    y 0.000000 1.688570 0.000000 
#    z 0.000000 0.000000 1.771100 
# 
# From -- ./inp_files/58851.got.cif
#   From: 2010.03.12/outbox.cif.g09.slc.cpg/sg65_30_cif.got.tgz:58851.got - 2010.04.10 20:52:16.
