data_PCOD8266323
_publ_section_title
;
Structure prediction by ZEFSAII (Michael W. Deem and Ramdas Pophale) SiO2 
 PCOD8266323
Probable space group: C M M M
;
_chemical_formula_sum "Si O2"
_cell_formula_units_Z 72
_cell_length_a 8.801294
_cell_length_b 19.458005
_cell_length_c 22.877098
_cell_angle_alpha 90.000000
_cell_angle_beta 90.000000
_cell_angle_gamma 90.000000
_cell_volume 3917.831663
_symmetry_space_group_name_H-M "C M M M"
_symmetry_group_IT_number 65
_symmetry_cell_setting 'orthorhombic'
loop_
_space_group_symop_operation_xyz
x,y,z
-x,-y,z
x,-y,-z
-x,y,-z
-x,-y,-z
x,y,-z
-x,y,z
x,-y,z
1/2+x,1/2+y,z
1/2-x,1/2-y,z
1/2+x,1/2-y,-z
1/2-x,1/2+y,-z
1/2-x,1/2-y,-z
1/2+x,1/2+y,-z
1/2-x,1/2+y,z
1/2+x,1/2-y,z
loop_
_atom_site_type_symbol
_atom_site_label
_atom_site_fract_x
_atom_site_fract_y
_atom_site_fract_z
Si Si1 0.318572 0.825797 0.000000
Si Si2 0.176824 0.078608 0.775968
Si Si3 0.821482 0.179541 0.566470
Si Si4 0.819895 0.824771 0.117140
Si Si5 0.674975 0.080390 0.343765
O O1 0.250000 0.750000 0.000000
O O2 0.253720 0.860222 0.940785
O O3 0.500000 0.825976 0.000000
O O4 0.225521 0.125826 0.829898
O O5 0.267959 0.105052 0.719580
O O6 0.000000 0.086162 0.761668
O O7 0.219010 0.000000 0.791399
O O8 0.767885 0.165950 0.500000
O O9 0.750000 0.250000 0.590589
O O10 0.767747 0.116351 0.605186
O O11 0.000000 0.186587 0.570900
O O12 0.750000 0.750000 0.129495
O O13 0.000000 0.818053 0.108905
O O14 0.500000 0.100253 0.349942
O O15 0.704860 0.000000 0.351080
#
# Coordination Sequence:
#
# PCOD8266323 Si02
#       5
#     8  16  16  16  16
#     4  10  18  30  49  72 101 133 165 205 251 300
#     4   9  19  36  55  74 100 136 175 214 256 302
#     4  10  21  37  57  80 107 139 174 215 262 310
#     4  10  19  32  52  76 101 130 167 210 254 302
#     4  10  21  36  55  79 107 140 176 215 259 308
#
# _framework density 18.377513
#
# number of rings (size 3 to 8) (size 9 to 14) (size 15 to 20)
#    0.000    2.222    0.000    4.333    0.000    5.778 
#    0.000    5.000    0.000    3.333    0.000    0.000 
#    0.000    0.000    0.000    0.000    0.000    0.000 
#
# Total GULP energy -446445.113610 kJ/mol
# GULP energy per Si atom -12401.253156 kJ/mol
# Density = 1.833568 g / cm^3
# Si number density = 18.377513 Si / 1000 Ang^3
#
#
#
# Elastic Constant Matrix: (Units=GPa)
#
#
# Indices 1 2 3 4 5 6 
#
# 1 93.3568 36.0304 57.6413 0.0000 0.0000 0.0000
# 2 36.0304 64.1509 63.3501 0.0000 0.0000 0.0000
# 3 57.6413 63.3501 136.6601 0.0000 0.0000 0.0000
# 4 0.0000 0.0000 0.0000 18.6430 0.0000 0.0000
# 5 0.0000 0.0000 0.0000 0.0000 33.8637 0.0000
# 6 0.0000 0.0000 0.0000 0.0000 0.0000 28.8407
#
#
#
# Elastic Compliance Matrix: (Units=1/GPa)
#
#
# Indices 1 2 3 4 5 6 
#
# 1 0.015026 -0.004022 -0.004473 0.000000 0.000000 0.000000
# 2 -0.004022 0.029825 -0.012129 0.000000 0.000000 0.000000
# 3 -0.004473 -0.012129 0.014827 0.000000 0.000000 0.000000
# 4 0.000000 0.000000 0.000000 0.053639 0.000000 0.000000
# 5 0.000000 0.000000 0.000000 0.000000 0.029530 0.000000
# 6 0.000000 0.000000 0.000000 0.000000 0.000000 0.034673
#
#
# Mechanical properties :
#
#
# Convention : Reuss Voigt Hill
#
# Bulk Modulus (GPa) = 54.26292 67.57906 60.92099
# Shear Modulus (GPa) = 22.23091 25.41255 23.82173
#
# Velocity S-wave (km/s) = 3.48182 3.72265 3.60424
# Velocity P-wave (km/s) = 6.76424 7.43841 7.10932
#
# Compressibility (1/GPa) = 0.01842879
#
# Stress axis : x y z
#
# Youngs Moduli (GPa) = 66.55259 33.52891 67.44497
#
# Poissons Ratio (x) = 0.13484 0.30170
# Poissons Ratio (y) = 0.26766 0.81806
# Poissons Ratio (z) = 0.29771 0.40668
#
# Static dielectric constant tensor:
#      x y z
#    x 3.468490 0.000000 0.000000 
#    y 0.000000 3.222620 0.000000 
#    z 0.000000 0.000000 3.762600 
# 
# 
# High freq. dielectric constant tensor:
#      x y z
#    x 1.725550 0.000000 0.000000 
#    y 0.000000 1.692890 0.000000 
#    z 0.000000 0.000000 1.725430 
# 
# From -- ./inp_files/49525.got.cif
#   From: 2010.03.12/outbox.cif.g09.slc.cpg/sg65_25_cif.got.tgz:49525.got - 2010.04.10 20:52:16.
