data_PCOD8266910
_publ_section_title
;
Structure prediction by ZEFSAII (Michael W. Deem and Ramdas Pophale) SiO2 
 PCOD8266910
Probable space group: C M M M
;
_chemical_formula_sum "Si O2"
_cell_formula_units_Z 96
_cell_length_a 9.217541
_cell_length_b 23.709990
_cell_length_c 25.212430
_cell_angle_alpha 90.000000
_cell_angle_beta 90.000000
_cell_angle_gamma 90.000000
_cell_volume 5510.121234
_symmetry_space_group_name_H-M "C M M M"
_symmetry_group_IT_number 65
_symmetry_cell_setting 'orthorhombic'
loop_
_space_group_symop_operation_xyz
x,y,z
-x,-y,z
x,-y,-z
-x,y,-z
-x,-y,-z
x,y,-z
-x,y,z
x,-y,z
1/2+x,1/2+y,z
1/2-x,1/2-y,z
1/2+x,1/2-y,-z
1/2-x,1/2+y,-z
1/2-x,1/2-y,-z
1/2+x,1/2+y,-z
1/2-x,1/2+y,z
1/2+x,1/2-y,z
loop_
_atom_site_type_symbol
_atom_site_label
_atom_site_fract_x
_atom_site_fract_y
_atom_site_fract_z
Si Si1 0.828777 0.936682 0.557653
Si Si2 0.837532 0.000000 0.178058
Si Si3 0.670254 0.604438 0.332461
Si Si4 0.168935 0.306391 0.938830
Si Si5 0.831759 0.808339 0.246069
Si Si6 0.664808 0.377352 0.857923
Si Si7 0.171068 0.500000 0.717818
O O1 0.767218 0.916264 0.500000
O O2 0.786240 0.893197 0.604881
O O3 0.000000 0.939913 0.553869
O O4 0.769836 0.000000 0.570330
O O5 0.819238 0.944676 0.142274
O O6 0.711014 0.000000 0.220739
O O7 0.000000 0.000000 0.204167
O O8 0.500000 0.590583 0.324773
O O9 0.709352 0.662588 0.302432
O O10 0.763156 0.555193 0.307798
O O11 0.250000 0.250000 0.920368
O O12 0.228459 0.357408 0.904016
O O13 0.000000 0.297811 0.927946
O O14 0.201526 0.320234 0.000000
O O15 0.750000 0.750000 0.239594
O O16 0.788542 0.850909 0.198713
O O17 0.000000 0.793846 0.244122
O O18 0.500000 0.359510 0.871373
O O19 0.000000 0.500000 0.710363
#
# Coordination Sequence:
#
# PCOD8266910 Si02
#       7
#    16   8  16  16  16  16   8
#     4   8  13  22  44  76  98 119 163 216 254 290
#     4  10  20  38  57  76 107 141 172 204 248 311
#     4  10  18  33  53  70 100 140 170 206 255 309
#     4  10  21  37  57  80 107 140 178 219 260 300
#     4  10  21  34  51  74 100 134 170 209 258 302
#     4  10  20  35  57  81 104 134 171 211 257 309
#     4  12  22  30  47  78 107 135 170 208 252 303
#
# _framework density 17.422485000000002
#
# number of rings (size 3 to 8) (size 9 to 14) (size 15 to 20)
#    0.000    2.167    2.500    2.250    0.000    4.333 
#    0.000    0.417    0.000    4.000    0.000    0.000 
#    0.000    0.000    0.000    0.000    0.000    0.000 
#
# Total GULP energy -595003.951202 kJ/mol
# GULP energy per Si atom -12395.915650 kJ/mol
# Density = 1.738283 g / cm^3
# Si number density = 17.422485 Si / 1000 Ang^3
#
#
#
# Elastic Constant Matrix: (Units=GPa)
#
#
# Indices 1 2 3 4 5 6 
#
# 1 63.1335 43.0970 38.7120 0.0000 0.0000 0.0000
# 2 43.0970 114.6802 54.8388 0.0000 0.0000 0.0000
# 3 38.7120 54.8388 106.1655 0.0000 0.0000 0.0000
# 4 0.0000 0.0000 0.0000 26.3317 0.0000 0.0000
# 5 0.0000 0.0000 0.0000 0.0000 14.2554 0.0000
# 6 0.0000 0.0000 0.0000 0.0000 0.0000 9.2606
#
#
#
# Elastic Compliance Matrix: (Units=1/GPa)
#
#
# Indices 1 2 3 4 5 6 
#
# 1 0.023344 -0.006245 -0.005286 0.000000 0.000000 0.000000
# 2 -0.006245 0.013251 -0.004568 0.000000 0.000000 0.000000
# 3 -0.005286 -0.004568 0.013706 0.000000 0.000000 0.000000
# 4 0.000000 0.000000 0.000000 0.037977 0.000000 0.000000
# 5 0.000000 0.000000 0.000000 0.000000 0.070149 0.000000
# 6 0.000000 0.000000 0.000000 0.000000 0.000000 0.107984
#
#
# Mechanical properties :
#
#
# Convention : Reuss Voigt Hill
#
# Bulk Modulus (GPa) = 55.23785 61.91942 58.57863
# Shear Modulus (GPa) = 16.41267 19.79163 18.10215
#
# Velocity S-wave (km/s) = 3.07260 3.37409 3.22687
# Velocity P-wave (km/s) = 6.66045 7.12716 6.89775
#
# Compressibility (1/GPa) = 0.01810353
#
# Stress axis : x y z
#
# Youngs Moduli (GPa) = 42.83788 75.46699 72.95985
#
# Poissons Ratio (x) = 0.47127 0.38569
# Poissons Ratio (y) = 0.26751 0.33324
# Poissons Ratio (z) = 0.22646 0.34470
#
# Static dielectric constant tensor:
#      x y z
#    x 3.070920 0.000000 0.000000 
#    y 0.000000 3.010070 0.000000 
#    z 0.000000 0.000000 3.568850 
# 
# 
# High freq. dielectric constant tensor:
#      x y z
#    x 1.653370 0.000000 0.000000 
#    y 0.000000 1.655210 0.000000 
#    z 0.000000 0.000000 1.677630 
# 
# From -- ./inp_files/73525.got.cif
#   From: 2010.03.12/outbox.cif.g09.slc.cpg/sg65_37_cif.got.tgz:73525.got - 2010.04.10 20:52:16.
