data_PCOD8266669
_publ_section_title
;
Structure prediction by ZEFSAII (Michael W. Deem and Ramdas Pophale) SiO2 
 PCOD8266669
Probable space group: C M M M
;
_chemical_formula_sum "Si O2"
_cell_formula_units_Z 104
_cell_length_a 27.695036
_cell_length_b 9.702830
_cell_length_c 22.340280
_cell_angle_alpha 90.000000
_cell_angle_beta 90.000000
_cell_angle_gamma 90.000000
_cell_volume 6003.285094
_symmetry_space_group_name_H-M "C M M M"
_symmetry_group_IT_number 65
_symmetry_cell_setting 'orthorhombic'
loop_
_space_group_symop_operation_xyz
x,y,z
-x,-y,z
x,-y,-z
-x,y,-z
-x,-y,-z
x,y,-z
-x,y,z
x,-y,z
1/2+x,1/2+y,z
1/2-x,1/2-y,z
1/2+x,1/2-y,-z
1/2-x,1/2+y,-z
1/2-x,1/2-y,-z
1/2+x,1/2+y,-z
1/2-x,1/2+y,z
1/2+x,1/2-y,z
loop_
_atom_site_type_symbol
_atom_site_label
_atom_site_fract_x
_atom_site_fract_y
_atom_site_fract_z
Si Si1 0.883641 0.338227 0.388187
Si Si2 0.055293 0.658167 0.270680
Si Si3 0.202303 0.838110 0.430484
Si Si4 0.446800 0.162456 0.500000
Si Si5 0.554704 0.656739 0.161424
Si Si6 0.788489 0.000000 0.929368
Si Si7 0.818643 0.500000 0.070794
Si Si8 0.364467 0.721298 0.929422
O O1 0.868756 0.500000 0.394944
O O2 0.910868 0.309833 0.326575
O O3 0.837853 0.237155 0.390181
O O4 0.918808 0.289938 0.441083
O O5 0.059549 0.500000 0.251108
O O6 0.073939 0.749197 0.215404
O O7 0.000000 0.695077 0.287662
O O8 0.187781 0.826653 0.500000
O O9 0.250000 0.750000 0.417786
O O10 0.208611 0.000000 0.412430
O O11 0.500000 0.230894 0.500000
O O12 0.452383 0.000000 0.500000
O O13 0.500000 0.698159 0.144111
O O14 0.557526 0.500000 0.183576
O O15 0.586678 0.676041 0.102496
O O16 0.735061 0.000000 0.899877
O O17 0.818562 0.132274 0.908560
O O18 0.782284 0.000000 0.000000
O O19 0.850456 0.627397 0.091925
O O20 0.811944 0.500000 0.000000
O O21 0.373914 0.706734 0.000000
#
# Coordination Sequence:
#
# PCOD8266669 Si02
#       8
#    16  16  16   8  16   8   8  16
#     4  10  18  31  53  80 106 134 170 211 261 308
#     4   9  19  35  55  78 103 136 176 213 251 305
#     4  10  20  33  51  76 107 140 177 215 256 309
#     4   9  16  26  46  77 110 135 160 203 254 307
#     4  10  21  36  53  74 101 139 182 216 254 307
#     4   9  16  30  51  75 105 137 166 203 253 314
#     4   9  18  30  49  77 107 135 166 205 259 320
#     4  10  19  32  51  79 108 134 169 214 265 314
#
# _framework density 17.323848999999999
#
# number of rings (size 3 to 8) (size 9 to 14) (size 15 to 20)
#    0.000    2.385    1.538    1.385    1.077    5.231 
#    0.000    0.769    0.000    5.077    0.000    0.000 
#    0.000    0.000    0.000    0.000    0.000    0.000 
#
# Total GULP energy -644680.727033 kJ/mol
# GULP energy per Si atom -12397.706289 kJ/mol
# Density = 1.728442 g / cm^3
# Si number density = 17.323849 Si / 1000 Ang^3
#
#
#
# Elastic Constant Matrix: (Units=GPa)
#
#
# Indices 1 2 3 4 5 6 
#
# 1 97.7705 46.2452 45.7921 0.0000 0.0000 0.0000
# 2 46.2452 107.0087 37.0780 0.0000 0.0000 0.0000
# 3 45.7921 37.0780 73.4731 0.0000 0.0000 0.0000
# 4 0.0000 0.0000 0.0000 20.0819 0.0000 0.0000
# 5 0.0000 0.0000 0.0000 0.0000 28.5865 0.0000
# 6 0.0000 0.0000 0.0000 0.0000 0.0000 32.0471
#
#
#
# Elastic Compliance Matrix: (Units=1/GPa)
#
#
# Indices 1 2 3 4 5 6 
#
# 1 0.015831 -0.004148 -0.007773 0.000000 0.000000 0.000000
# 2 -0.004148 0.012412 -0.003679 0.000000 0.000000 0.000000
# 3 -0.007773 -0.003679 0.020311 0.000000 0.000000 0.000000
# 4 0.000000 0.000000 0.000000 0.049796 0.000000 0.000000
# 5 0.000000 0.000000 0.000000 0.000000 0.034982 0.000000
# 6 0.000000 0.000000 0.000000 0.000000 0.000000 0.031204
#
#
# Mechanical properties :
#
#
# Convention : Reuss Voigt Hill
#
# Bulk Modulus (GPa) = 57.62084 59.60921 58.61502
# Shear Modulus (GPa) = 24.81135 26.08557 25.44846
#
# Velocity S-wave (km/s) = 3.78856 3.88462 3.83689
# Velocity P-wave (km/s) = 7.24367 7.38944 7.31692
#
# Compressibility (1/GPa) = 0.01735483
#
# Stress axis : x y z
#
# Youngs Moduli (GPa) = 63.16827 80.56539 49.23343
#
# Poissons Ratio (x) = 0.33419 0.38270
# Poissons Ratio (y) = 0.26203 0.18111
# Poissons Ratio (z) = 0.49102 0.29636
#
# Static dielectric constant tensor:
#      x y z
#    x 3.292310 0.000000 0.000000 
#    y 0.000000 3.347870 0.000000 
#    z 0.000000 0.000000 2.927790 
# 
# 
# High freq. dielectric constant tensor:
#      x y z
#    x 1.674090 0.000000 0.000000 
#    y 0.000000 1.673540 0.000000 
#    z 0.000000 0.000000 1.636110 
# 
# From -- ./inp_files/71874.got.cif
#   From: 2010.03.12/outbox.cif.g09.slc.cpg/sg65_36_cif.got.tgz:71874.got - 2010.04.10 20:52:16.
