data_PCOD8266238
_publ_section_title
;
Structure prediction by ZEFSAII (Michael W. Deem and Ramdas Pophale) SiO2 
 PCOD8266238
Probable space group: C M M M
;
_chemical_formula_sum "Si O2"
_cell_formula_units_Z 104
_cell_length_a 19.287383
_cell_length_b 30.533843
_cell_length_c 9.302645
_cell_angle_alpha 90.000000
_cell_angle_beta 90.000000
_cell_angle_gamma 90.000000
_cell_volume 5478.494385
_symmetry_space_group_name_H-M "C M M M"
_symmetry_group_IT_number 65
_symmetry_cell_setting 'orthorhombic'
loop_
_space_group_symop_operation_xyz
x,y,z
-x,-y,z
x,-y,-z
-x,y,-z
-x,-y,-z
x,y,-z
-x,y,z
x,-y,z
1/2+x,1/2+y,z
1/2-x,1/2-y,z
1/2+x,1/2-y,-z
1/2-x,1/2+y,-z
1/2-x,1/2-y,-z
1/2+x,1/2+y,-z
1/2-x,1/2+y,z
1/2+x,1/2-y,z
loop_
_atom_site_type_symbol
_atom_site_label
_atom_site_fract_x
_atom_site_fract_y
_atom_site_fract_z
Si Si1 0.644728 0.418162 0.171260
Si Si2 0.845993 0.331016 0.830589
Si Si3 0.731149 0.500000 0.829225
Si Si4 0.189678 0.824621 0.170651
Si Si5 0.421936 0.255564 0.829246
Si Si6 0.077903 0.404724 0.333897
Si Si7 0.500000 0.450970 0.828778
Si Si8 0.129478 0.500000 0.664184
O O1 0.692713 0.457007 0.231093
O O2 0.670937 0.372209 0.233446
O O3 0.566906 0.425252 0.228066
O O4 0.646768 0.418152 0.000000
O O5 0.768987 0.314963 0.783549
O O6 0.899337 0.293215 0.782984
O O7 0.867027 0.376571 0.756585
O O8 0.847489 0.339772 0.000000
O O9 0.808092 0.500000 0.773801
O O10 0.731251 0.500000 0.000000
O O11 0.134511 0.789712 0.235219
O O12 0.183086 0.823647 0.000000
O O13 0.500000 0.264912 0.770333
O O14 0.421905 0.259252 0.000000
O O15 0.091584 0.394209 0.500000
O O16 0.085030 0.456550 0.304050
O O17 0.000000 0.391328 0.288843
O O18 0.500000 0.500000 0.766105
O O19 0.500000 0.453290 0.000000
O O20 0.156338 0.500000 0.500000
#
# Coordination Sequence:
#
# PCOD8266238 Si02
#       8
#    16  16   8  16  16  16   8   8
#     4   9  16  24  38  62  93 128 166 203 245 292
#     4  10  19  33  52  75 103 132 162 202 254 302
#     4  10  18  30  47  71 102 131 160 200 248 296
#     4   9  17  27  42  66  97 133 168 205 249 295
#     4   9  17  28  44  68  97 132 172 209 245 292
#     4  10  21  37  56  76  99 129 165 203 242 289
#     4   9  14  22  34  54  88 130 164 200 246 289
#     4  10  21  36  53  73  99 129 162 198 239 286
#
# _framework density 18.983318000000001
#
# number of rings (size 3 to 8) (size 9 to 14) (size 15 to 20)
#    0.000    2.538    0.769    2.077    1.077    5.538 
#    0.000    0.000    0.000    3.231    0.000    1.077 
#    0.000    0.000    0.000    0.000    0.000    0.000 
#
# Total GULP energy -644622.364140 kJ/mol
# GULP energy per Si atom -12396.583926 kJ/mol
# Density = 1.894011 g / cm^3
# Si number density = 18.983318 Si / 1000 Ang^3
#
#
#
# Elastic Constant Matrix: (Units=GPa)
#
#
# Indices 1 2 3 4 5 6 
#
# 1 145.2174 58.5461 23.5822 0.0000 0.0000 0.0000
# 2 58.5461 128.6594 22.7496 0.0000 0.0000 0.0000
# 3 23.5822 22.7496 17.2161 0.0000 0.0000 0.0000
# 4 0.0000 0.0000 0.0000 14.5018 0.0000 0.0000
# 5 0.0000 0.0000 0.0000 0.0000 7.1629 0.0000
# 6 0.0000 0.0000 0.0000 0.0000 0.0000 47.7367
#
#
#
# Elastic Compliance Matrix: (Units=1/GPa)
#
#
# Indices 1 2 3 4 5 6 
#
# 1 0.009496 -0.002637 -0.009522 0.000000 0.000000 0.000000
# 2 -0.002637 0.010875 -0.010758 0.000000 0.000000 0.000000
# 3 -0.009522 -0.010758 0.085344 0.000000 0.000000 0.000000
# 4 0.000000 0.000000 0.000000 0.068957 0.000000 0.000000
# 5 0.000000 0.000000 0.000000 0.000000 0.139607 0.000000
# 6 0.000000 0.000000 0.000000 0.000000 0.000000 0.020948
#
#
# Mechanical properties :
#
#
# Convention : Reuss Voigt Hill
#
# Bulk Modulus (GPa) = 16.69998 55.64986 36.17492
# Shear Modulus (GPa) = 12.46816 26.29460 19.38138
#
# Velocity S-wave (km/s) = 2.56558 3.72579 3.19873
# Velocity P-wave (km/s) = 4.19435 6.92008 5.72189
#
# Compressibility (1/GPa) = 0.05988031
#
# Stress axis : x y z
#
# Youngs Moduli (GPa) = 105.30939 91.95635 11.71731
#
# Poissons Ratio (x) = 0.24252 0.11157
# Poissons Ratio (y) = 0.27774 0.12605
# Poissons Ratio (z) = 1.00278 0.98922
#
# Static dielectric constant tensor:
#      x y z
#    x 3.705210 0.000000 0.000000 
#    y 0.000000 3.687810 0.000000 
#    z 0.000000 0.000000 2.778690 
# 
# 
# High freq. dielectric constant tensor:
#      x y z
#    x 1.755950 0.000000 0.000000 
#    y 0.000000 1.751570 0.000000 
#    z 0.000000 0.000000 1.657860 
# 
# From -- ./inp_files/12886.got.cif
#   From: 2010.03.12/outbox.cif.g09.slc.cpg/sg65_7_cif.got.tgz:12886.got - 2010.04.10 20:52:16.
