data_PCOD8266141
_publ_section_title
;
Structure prediction by ZEFSAII (Michael W. Deem and Ramdas Pophale) SiO2 
 PCOD8266141
Probable space group: C M M M
;
_chemical_formula_sum "Si O2"
_cell_formula_units_Z 80
_cell_length_a 16.968391
_cell_length_b 13.818765
_cell_length_c 18.886822
_cell_angle_alpha 90.000000
_cell_angle_beta 90.000000
_cell_angle_gamma 90.000000
_cell_volume 4428.623718
_symmetry_space_group_name_H-M "C M M M"
_symmetry_group_IT_number 65
_symmetry_cell_setting 'orthorhombic'
loop_
_space_group_symop_operation_xyz
x,y,z
-x,-y,z
x,-y,-z
-x,y,-z
-x,-y,-z
x,y,-z
-x,y,z
x,-y,z
1/2+x,1/2+y,z
1/2-x,1/2-y,z
1/2+x,1/2-y,-z
1/2-x,1/2+y,-z
1/2-x,1/2-y,-z
1/2+x,1/2+y,-z
1/2-x,1/2+y,z
1/2+x,1/2-y,z
loop_
_atom_site_type_symbol
_atom_site_label
_atom_site_fract_x
_atom_site_fract_y
_atom_site_fract_z
Si Si1 0.593656 0.608232 0.421202
Si Si2 0.407619 0.775358 0.080121
Si Si3 0.152501 0.889670 0.832293
Si Si4 0.833831 0.610137 0.203230
Si Si5 0.409338 0.270954 0.709050
O O1 0.620159 0.640920 0.500000
O O2 0.500000 0.605102 0.415897
O O3 0.626338 0.500000 0.405150
O O4 0.626195 0.684913 0.363834
O O5 0.500000 0.759650 0.090456
O O6 0.363591 0.674819 0.098321
O O7 0.379298 0.860687 0.131662
O O8 0.386395 0.804842 0.000000
O O9 0.241705 0.875067 0.807988
O O10 0.096382 0.853014 0.769322
O O11 0.132583 0.000000 0.850843
O O12 0.855129 0.500000 0.221498
O O13 0.859983 0.676116 0.269407
O O14 0.500000 0.240451 0.699943
#
# Coordination Sequence:
#
# PCOD8266141 Si02
#       5
#    16  16  16  16  16
#     4   8  14  25  43  71 104 130 153 188 237 289
#     4  10  21  35  51  72  96 121 153 198 246 288
#     4  10  20  33  50  71  96 126 157 191 236 291
#     4  10  21  35  50  68  93 129 167 199 233 276
#     4  10  18  29  50  75  97 123 157 199 240 278
#
# _framework density 18.064302999999999
#
# number of rings (size 3 to 8) (size 9 to 14) (size 15 to 20)
#    0.000    2.400    0.000    6.000    0.000    6.400 
#    0.000    4.000    0.000    3.000    0.000    5.600 
#    0.000    0.000    0.000    0.000    0.000    0.000 
#
# Total GULP energy -495930.909947 kJ/mol
# GULP energy per Si atom -12398.272749 kJ/mol
# Density = 1.802319 g / cm^3
# Si number density = 18.064303 Si / 1000 Ang^3
#
#
#
# Elastic Constant Matrix: (Units=GPa)
#
#
# Indices 1 2 3 4 5 6 
#
# 1 48.2634 31.9477 17.2545 0.0000 0.0000 0.0000
# 2 31.9477 126.5231 58.9377 0.0000 0.0000 0.0000
# 3 17.2545 58.9377 125.6245 0.0000 0.0000 0.0000
# 4 0.0000 0.0000 0.0000 25.1338 0.0000 0.0000
# 5 0.0000 0.0000 0.0000 0.0000 10.5014 0.0000
# 6 0.0000 0.0000 0.0000 0.0000 0.0000 25.5102
#
#
#
# Elastic Compliance Matrix: (Units=1/GPa)
#
#
# Indices 1 2 3 4 5 6 
#
# 1 0.024913 -0.006010 -0.000602 0.000000 0.000000 0.000000
# 2 -0.006010 0.011564 -0.004600 0.000000 0.000000 0.000000
# 3 -0.000602 -0.004600 0.010201 0.000000 0.000000 0.000000
# 4 0.000000 0.000000 0.000000 0.039787 0.000000 0.000000
# 5 0.000000 0.000000 0.000000 0.000000 0.095225 0.000000
# 6 0.000000 0.000000 0.000000 0.000000 0.000000 0.039200
#
#
# Mechanical properties :
#
#
# Convention : Reuss Voigt Hill
#
# Bulk Modulus (GPa) = 41.23038 57.41010 49.32024
# Shear Modulus (GPa) = 19.88867 25.04717 22.46792
#
# Velocity S-wave (km/s) = 3.32172 3.72769 3.53054
# Velocity P-wave (km/s) = 6.13071 7.09771 6.63186
#
# Compressibility (1/GPa) = 0.02425396
#
# Stress axis : x y z
#
# Youngs Moduli (GPa) = 40.13914 86.47489 98.02974
#
# Poissons Ratio (x) = 0.51974 0.05902
# Poissons Ratio (y) = 0.24125 0.45092
# Poissons Ratio (z) = 0.02417 0.39777
#
# Static dielectric constant tensor:
#      x y z
#    x 3.210470 0.000000 0.000000 
#    y 0.000000 3.401800 0.000000 
#    z 0.000000 0.000000 3.484350 
# 
# 
# High freq. dielectric constant tensor:
#      x y z
#    x 1.687330 0.000000 0.000000 
#    y 0.000000 1.695100 0.000000 
#    z 0.000000 0.000000 1.692210 
# 
# From -- ./inp_files/52882.got.cif
#   From: 2010.03.12/outbox.cif.g09.slc.cpg/sg65_27_cif.got.tgz:52882.got - 2010.04.10 20:52:16.
