data_PCOD8266814
_publ_section_title
;
Structure prediction by ZEFSAII (Michael W. Deem and Ramdas Pophale) SiO2 
 PCOD8266814
Probable space group: C M M M
;
_chemical_formula_sum "Si O2"
_cell_formula_units_Z 88
_cell_length_a 28.652140
_cell_length_b 8.878568
_cell_length_c 20.112681
_cell_angle_alpha 90.000000
_cell_angle_beta 90.000000
_cell_angle_gamma 90.000000
_cell_volume 5116.464383
_symmetry_space_group_name_H-M "C M M M"
_symmetry_group_IT_number 65
_symmetry_cell_setting 'orthorhombic'
loop_
_space_group_symop_operation_xyz
x,y,z
-x,-y,z
x,-y,-z
-x,y,-z
-x,-y,-z
x,y,-z
-x,y,z
x,-y,z
1/2+x,1/2+y,z
1/2-x,1/2-y,z
1/2+x,1/2-y,-z
1/2-x,1/2+y,-z
1/2-x,1/2-y,-z
1/2+x,1/2+y,-z
1/2-x,1/2+y,z
1/2+x,1/2-y,z
loop_
_atom_site_type_symbol
_atom_site_label
_atom_site_fract_x
_atom_site_fract_y
_atom_site_fract_z
Si Si1 0.055039 0.831406 0.813015
Si Si2 0.198676 0.319807 0.500000
Si Si3 0.610413 0.177560 0.924088
Si Si4 0.704522 0.331337 0.920919
Si Si5 0.446092 0.177633 0.678250
Si Si6 0.379089 0.329867 0.426804
O O1 0.069767 0.745010 0.879390
O O2 0.072617 0.744260 0.747714
O O3 0.000000 0.836076 0.813608
O O4 0.075954 0.000000 0.812624
O O5 0.201300 0.500000 0.500000
O O6 0.250000 0.250000 0.500000
O O7 0.170467 0.259747 0.434352
O O8 0.659497 0.239726 0.897095
O O9 0.610959 0.000000 0.917746
O O10 0.601436 0.228667 0.000000
O O11 0.701912 0.500000 0.892282
O O12 0.750000 0.250000 0.890904
O O13 0.707498 0.333506 0.000000
O O14 0.500000 0.223384 0.665457
O O15 0.414475 0.243338 0.620316
O O16 0.440112 0.000000 0.680750
O O17 0.402821 0.335865 0.500000
O O18 0.369865 0.500000 0.400504
#
# Coordination Sequence:
#
# PCOD8266814 Si02
#       6
#    16   8  16  16  16  16
#     4  10  21  36  53  72  97 133 174 214 259 312
#     4  10  18  32  53  78 109 142 178 217 257 299
#     4  10  20  33  50  73 100 130 167 213 262 310
#     4   9  16  27  45  69  96 124 155 193 241 297
#     4  10  20  34  53  76 104 138 174 213 259 310
#     4   9  19  33  51  79 109 139 175 213 253 297
#
# _framework density 17.199376999999998
#
# number of rings (size 3 to 8) (size 9 to 14) (size 15 to 20)
#    0.545    1.818    0.000    3.273    0.000    6.182 
#    0.000    3.636    0.000    1.091    0.000    7.636 
#    0.000    0.000    0.000    0.000    0.000    0.000 
#
# Total GULP energy -545441.906763 kJ/mol
# GULP energy per Si atom -12396.406972 kJ/mol
# Density = 1.716023 g / cm^3
# Si number density = 17.199377 Si / 1000 Ang^3
#
#
#
# Elastic Constant Matrix: (Units=GPa)
#
#
# Indices 1 2 3 4 5 6 
#
# 1 66.7983 46.2393 44.2963 0.0000 0.0000 0.0000
# 2 46.2393 126.1561 45.8051 0.0000 0.0000 0.0000
# 3 44.2963 45.8051 77.8078 0.0000 0.0000 0.0000
# 4 0.0000 0.0000 0.0000 29.0536 0.0000 0.0000
# 5 0.0000 0.0000 0.0000 0.0000 1.1074 0.0000
# 6 0.0000 0.0000 0.0000 0.0000 0.0000 34.7676
#
#
#
# Elastic Compliance Matrix: (Units=1/GPa)
#
#
# Indices 1 2 3 4 5 6 
#
# 1 0.026680 -0.005423 -0.011996 0.000000 0.000000 0.000000
# 2 -0.005423 0.011184 -0.003497 0.000000 0.000000 0.000000
# 3 -0.011996 -0.003497 0.021740 0.000000 0.000000 0.000000
# 4 0.000000 0.000000 0.000000 0.034419 0.000000 0.000000
# 5 0.000000 0.000000 0.000000 0.000000 0.902991 0.000000
# 6 0.000000 0.000000 0.000000 0.000000 0.000000 0.028762
#
#
# Mechanical properties :
#
#
# Convention : Reuss Voigt Hill
#
# Bulk Modulus (GPa) = 56.26878 60.38261 58.32570
# Shear Modulus (GPa) = 4.65752 21.94716 13.30234
#
# Velocity S-wave (km/s) = 1.64737 3.57605 2.78406
# Velocity P-wave (km/s) = 6.03366 7.22734 6.65731
#
# Compressibility (1/GPa) = 0.01777184
#
# Stress axis : x y z
#
# Youngs Moduli (GPa) = 37.48194 89.41418 45.99802
#
# Poissons Ratio (x) = 0.48490 0.55180
# Poissons Ratio (y) = 0.20327 0.16083
# Poissons Ratio (z) = 0.44964 0.31264
#
# Static dielectric constant tensor:
#      x y z
#    x 3.135170 0.000000 0.000000 
#    y 0.000000 3.468090 0.000000 
#    z 0.000000 0.000000 2.988880 
# 
# 
# High freq. dielectric constant tensor:
#      x y z
#    x 1.655530 0.000000 0.000000 
#    y 0.000000 1.687700 0.000000 
#    z 0.000000 0.000000 1.632100 
# 
# From -- ./inp_files/65188.got.cif
#   From: 2010.03.12/outbox.cif.g09.slc.cpg/sg65_33_cif.got.tgz:65188.got - 2010.04.10 20:52:16.
