data_PCOD8266741
_publ_section_title
;
Structure prediction by ZEFSAII (Michael W. Deem and Ramdas Pophale) SiO2 
 PCOD8266741
Probable space group: C M M M
;
_chemical_formula_sum "Si O2"
_cell_formula_units_Z 56
_cell_length_a 25.529832
_cell_length_b 7.506869
_cell_length_c 15.739963
_cell_angle_alpha 90.000000
_cell_angle_beta 90.000000
_cell_angle_gamma 90.000000
_cell_volume 3016.549812
_symmetry_space_group_name_H-M "C M M M"
_symmetry_group_IT_number 65
_symmetry_cell_setting 'orthorhombic'
loop_
_space_group_symop_operation_xyz
x,y,z
-x,-y,z
x,-y,-z
-x,y,-z
-x,-y,-z
x,y,-z
-x,y,z
x,-y,z
1/2+x,1/2+y,z
1/2-x,1/2-y,z
1/2+x,1/2-y,-z
1/2-x,1/2+y,-z
1/2-x,1/2-y,-z
1/2+x,1/2+y,-z
1/2-x,1/2+y,z
1/2+x,1/2-y,z
loop_
_atom_site_type_symbol
_atom_site_label
_atom_site_fract_x
_atom_site_fract_y
_atom_site_fract_z
Si Si1 0.189229 0.707644 0.000000
Si Si2 0.309559 0.797813 0.657708
Si Si3 0.864547 0.293452 0.169890
Si Si4 0.561139 0.500000 0.765602
Si Si5 0.117449 0.000000 0.593899
O O1 0.250000 0.750000 0.000000
O O2 0.161262 0.784442 0.083949
O O3 0.181170 0.500000 0.000000
O O4 0.250000 0.750000 0.639015
O O5 0.321038 0.766843 0.757287
O O6 0.346666 0.674483 0.601630
O O7 0.321174 0.000000 0.630741
O O8 0.881747 0.500000 0.162084
O O9 0.915518 0.177419 0.191433
O O10 0.500000 0.500000 0.782688
O O11 0.572013 0.500000 0.664486
O O12 0.091745 0.000000 0.500000
#
# Coordination Sequence:
#
# PCOD8266741 Si02
#       5
#     8  16  16   8   8
#     4  10  20  32  52  85 117 152 178 212 259 306
#     4  10  18  32  51  75 108 150 178 207 259 323
#     4   9  20  35  53  79 113 141 182 224 261 313
#     4  10  22  40  62  78  97 141 186 228 280 317
#     4  10  22  37  53  79 108 132 174 228 271 329
#
# _framework density 18.564253999999998
#
# number of rings (size 3 to 8) (size 9 to 14) (size 15 to 20)
#    0.000    2.286    1.429    0.857    2.000    2.000 
#    0.000    1.429    0.000    2.571    0.000    8.000 
#    0.000    0.000    0.000    0.000    0.000    0.000 
#
# Total GULP energy -347208.634078 kJ/mol
# GULP energy per Si atom -12400.308360 kJ/mol
# Density = 1.852200 g / cm^3
# Si number density = 18.564254 Si / 1000 Ang^3
#
#
#
# Elastic Constant Matrix: (Units=GPa)
#
#
# Indices 1 2 3 4 5 6 
#
# 1 110.5734 33.8156 38.1264 0.0000 0.0000 0.0000
# 2 33.8156 102.2182 33.1852 0.0000 0.0000 0.0000
# 3 38.1264 33.1852 126.0243 0.0000 0.0000 0.0000
# 4 0.0000 0.0000 0.0000 14.2230 0.0000 0.0000
# 5 0.0000 0.0000 0.0000 0.0000 13.4370 0.0000
# 6 0.0000 0.0000 0.0000 0.0000 0.0000 21.6678
#
#
#
# Elastic Compliance Matrix: (Units=1/GPa)
#
#
# Indices 1 2 3 4 5 6 
#
# 1 0.010754 -0.002735 -0.002533 0.000000 0.000000 0.000000
# 2 -0.002735 0.011393 -0.002173 0.000000 0.000000 0.000000
# 3 -0.002533 -0.002173 0.009273 0.000000 0.000000 0.000000
# 4 0.000000 0.000000 0.000000 0.070309 0.000000 0.000000
# 5 0.000000 0.000000 0.000000 0.000000 0.074421 0.000000
# 6 0.000000 0.000000 0.000000 0.000000 0.000000 0.046151
#
#
# Mechanical properties :
#
#
# Convention : Reuss Voigt Hill
#
# Bulk Modulus (GPa) = 60.46486 61.00782 60.73634
# Shear Modulus (GPa) = 20.60188 25.44481 23.02335
#
# Velocity S-wave (km/s) = 3.33492 3.70622 3.52546
# Velocity P-wave (km/s) = 6.88986 7.15886 7.02565
#
# Compressibility (1/GPa) = 0.01653853
#
# Stress axis : x y z
#
# Youngs Moduli (GPa) = 92.99168 87.77194 107.83500
#
# Poissons Ratio (x) = 0.24007 0.27316
# Poissons Ratio (y) = 0.25434 0.23428
# Poissons Ratio (z) = 0.23556 0.19070
#
# Static dielectric constant tensor:
#      x y z
#    x 2.980730 0.000000 0.000000 
#    y 0.000000 3.583410 0.000000 
#    z 0.000000 0.000000 3.572440 
# 
# 
# High freq. dielectric constant tensor:
#      x y z
#    x 1.685580 0.000000 0.000000 
#    y 0.000000 1.735900 0.000000 
#    z 0.000000 0.000000 1.724620 
# 
# From -- ./inp_files/35569.got.cif
#   From: 2010.03.12/outbox.cif.g09.slc.cpg/sg65_18_cif.got.tgz:35569.got - 2010.04.10 20:52:16.
