data_PCOD8266740
_publ_section_title
;
Structure prediction by ZEFSAII (Michael W. Deem and Ramdas Pophale) SiO2 
 PCOD8266740
Probable space group: C M M M
;
_chemical_formula_sum "Si O2"
_cell_formula_units_Z 112
_cell_length_a 15.391167
_cell_length_b 25.184644
_cell_length_c 15.257581
_cell_angle_alpha 90.000000
_cell_angle_beta 90.000000
_cell_angle_gamma 90.000000
_cell_volume 5914.159745
_symmetry_space_group_name_H-M "C M M M"
_symmetry_group_IT_number 65
_symmetry_cell_setting 'orthorhombic'
loop_
_space_group_symop_operation_xyz
x,y,z
-x,-y,z
x,-y,-z
-x,y,-z
-x,-y,-z
x,y,-z
-x,y,z
x,-y,z
1/2+x,1/2+y,z
1/2-x,1/2-y,z
1/2+x,1/2-y,-z
1/2-x,1/2+y,-z
1/2-x,1/2-y,-z
1/2+x,1/2+y,-z
1/2-x,1/2+y,z
1/2+x,1/2-y,z
loop_
_atom_site_type_symbol
_atom_site_label
_atom_site_fract_x
_atom_site_fract_y
_atom_site_fract_z
Si Si1 0.402378 0.232165 0.098193
Si Si2 0.698292 0.296271 0.758822
Si Si3 0.327787 0.562040 0.098322
Si Si4 0.762831 0.062363 0.403426
Si Si5 0.327463 0.873479 0.846217
Si Si6 0.599301 0.391149 0.273304
Si Si7 0.403507 0.938373 0.300317
O O1 0.500000 0.238619 0.135151
O O2 0.336113 0.266616 0.154599
O O3 0.377689 0.169844 0.095887
O O4 0.396244 0.254433 0.000000
O O5 0.750000 0.250000 0.703419
O O6 0.764422 0.343401 0.778875
O O7 0.619470 0.327697 0.711936
O O8 0.322649 0.500000 0.122657
O O9 0.230658 0.586396 0.096326
O O10 0.386188 0.591603 0.171587
O O11 0.367466 0.569750 0.000000
O O12 0.777987 0.087816 0.500000
O O13 0.841376 0.075428 0.338620
O O14 0.669907 0.082966 0.367207
O O15 0.758510 0.000000 0.412604
O O16 0.396839 0.907030 0.790957
O O17 0.500000 0.401650 0.298621
O O18 0.500000 0.928822 0.340092
O O19 0.387882 0.000000 0.279517
#
# Coordination Sequence:
#
# PCOD8266740 Si02
#       7
#    16  16  16  16  16  16  16
#     4  10  20  32  47  73 107 140 184 241 290 333
#     4   9  19  33  53  74 100 138 183 226 279 330
#     4  10  20  33  51  76 110 153 196 235 276 328
#     4  10  21  38  60  88 120 150 185 229 281 343
#     4  10  18  32  51  74 106 145 186 223 276 334
#     4  11  22  37  58  84 115 152 192 234 284 341
#     4  10  19  33  57  86 114 146 186 232 283 338
#
# _framework density 18.937601999999998
#
# number of rings (size 3 to 8) (size 9 to 14) (size 15 to 20)
#    0.000    2.000    2.857    2.143    0.000    6.857 
#    0.000    2.857    0.000    0.429    0.000    6.000 
#    0.000    0.000    0.000    0.000    0.000    0.000 
#
# Total GULP energy -693907.574826 kJ/mol
# GULP energy per Si atom -12391.206693 kJ/mol
# Density = 1.889450 g / cm^3
# Si number density = 18.937602 Si / 1000 Ang^3
#
#
#
# Elastic Constant Matrix: (Units=GPa)
#
#
# Indices 1 2 3 4 5 6 
#
# 1 123.5148 20.5107 33.8304 0.0000 0.0000 0.0000
# 2 20.5107 66.3063 10.0833 0.0000 0.0000 0.0000
# 3 33.8304 10.0833 74.0717 0.0000 0.0000 0.0000
# 4 0.0000 0.0000 0.0000 13.5727 0.0000 0.0000
# 5 0.0000 0.0000 0.0000 0.0000 12.5682 0.0000
# 6 0.0000 0.0000 0.0000 0.0000 0.0000 27.8254
#
#
#
# Elastic Compliance Matrix: (Units=1/GPa)
#
#
# Indices 1 2 3 4 5 6 
#
# 1 0.009600 -0.002351 -0.004064 0.000000 0.000000 0.000000
# 2 -0.002351 0.015976 -0.001101 0.000000 0.000000 0.000000
# 3 -0.004064 -0.001101 0.015507 0.000000 0.000000 0.000000
# 4 0.000000 0.000000 0.000000 0.073677 0.000000 0.000000
# 5 0.000000 0.000000 0.000000 0.000000 0.079566 0.000000
# 6 0.000000 0.000000 0.000000 0.000000 0.000000 0.035938
#
#
# Mechanical properties :
#
#
# Convention : Reuss Voigt Hill
#
# Bulk Modulus (GPa) = 38.38873 43.63797 41.01335
# Shear Modulus (GPa) = 19.68649 24.09115 21.88882
#
# Velocity S-wave (km/s) = 3.22770 3.57057 3.40345
# Velocity P-wave (km/s) = 5.84858 6.33180 6.09498
#
# Compressibility (1/GPa) = 0.02604931
#
# Stress axis : x y z
#
# Youngs Moduli (GPa) = 104.16768 62.59262 64.48867
#
# Poissons Ratio (x) = 0.14719 0.26211
# Poissons Ratio (y) = 0.24495 0.07099
# Poissons Ratio (z) = 0.42338 0.06891
#
# Static dielectric constant tensor:
#      x y z
#    x 3.587780 0.000000 0.000000 
#    y 0.000000 3.652380 0.000000 
#    z 0.000000 0.000000 3.255660 
# 
# 
# High freq. dielectric constant tensor:
#      x y z
#    x 1.740890 0.000000 0.000000 
#    y 0.000000 1.738710 0.000000 
#    z 0.000000 0.000000 1.695230 
# 
# From -- ./inp_files/40788.got.cif
#   From: 2010.03.12/outbox.cif.g09.slc.cpg/sg65_21_cif.got.tgz:40788.got - 2010.04.10 20:52:16.
