data_PCOD8266491
_publ_section_title
;
Structure prediction by ZEFSAII (Michael W. Deem and Ramdas Pophale) SiO2 
 PCOD8266491
Probable space group: C M M M
;
_chemical_formula_sum "Si O2"
_cell_formula_units_Z 88
_cell_length_a 22.681244
_cell_length_b 23.113109
_cell_length_c 8.804289
_cell_angle_alpha 90.000000
_cell_angle_beta 90.000000
_cell_angle_gamma 90.000000
_cell_volume 4615.508210
_symmetry_space_group_name_H-M "C M M M"
_symmetry_group_IT_number 65
_symmetry_cell_setting 'orthorhombic'
loop_
_space_group_symop_operation_xyz
x,y,z
-x,-y,z
x,-y,-z
-x,y,-z
-x,-y,-z
x,y,-z
-x,y,z
x,-y,z
1/2+x,1/2+y,z
1/2-x,1/2-y,z
1/2+x,1/2-y,-z
1/2-x,1/2+y,-z
1/2-x,1/2-y,-z
1/2+x,1/2+y,-z
1/2-x,1/2+y,z
1/2+x,1/2-y,z
loop_
_atom_site_type_symbol
_atom_site_label
_atom_site_fract_x
_atom_site_fract_y
_atom_site_fract_z
Si Si1 0.379740 0.372421 0.175853
Si Si2 0.935686 0.436294 0.180010
Si Si3 0.500000 0.432900 0.818998
Si Si4 0.264585 0.563130 0.823735
Si Si5 0.183547 0.237849 0.678979
Si Si6 0.335231 0.853515 0.819251
O O1 0.442330 0.396951 0.239155
O O2 0.333368 0.424129 0.200902
O O3 0.353210 0.316371 0.258337
O O4 0.386277 0.355811 0.000000
O O5 0.923825 0.500000 0.247284
O O6 0.887000 0.393689 0.242672
O O7 0.000000 0.413975 0.231266
O O8 0.931779 0.439255 0.000000
O O9 0.500000 0.500000 0.758467
O O10 0.500000 0.435299 0.000000
O O11 0.250879 0.500000 0.749534
O O12 0.225006 0.615734 0.758236
O O13 0.248313 0.559150 0.000000
O O14 0.185384 0.231086 0.500000
O O15 0.250000 0.250000 0.743836
O O16 0.149559 0.294532 0.733554
O O17 0.334494 0.843143 0.000000
#
# Coordination Sequence:
#
# PCOD8266491 Si02
#       6
#    16  16   8  16  16  16
#     4  10  19  34  57  82 109 141 177 217 266 325
#     4   8  14  26  46  75 108 134 158 199 255 308
#     4   9  18  34  59  91 119 141 174 227 284 333
#     4   9  16  26  47  80 108 129 162 212 265 315
#     4  11  23  38  54  72 103 143 181 223 269 315
#     4  10  18  30  52  78 103 133 174 217 259 315
#
# _framework density 19.066155999999999
#
# number of rings (size 3 to 8) (size 9 to 14) (size 15 to 20)
#    0.000    2.455    1.818    2.182    0.000    5.091 
#    1.636    0.455    0.000    6.000    0.000    1.273 
#    0.000    0.000    0.000    0.000    0.000    0.000 
#
# Total GULP energy -545123.333777 kJ/mol
# GULP energy per Si atom -12389.166677 kJ/mol
# Density = 1.902276 g / cm^3
# Si number density = 19.066156 Si / 1000 Ang^3
#
#
#
# Elastic Constant Matrix: (Units=GPa)
#
#
# Indices 1 2 3 4 5 6 
#
# 1 133.0601 64.1309 22.5082 0.0000 0.0000 0.0000
# 2 64.1309 138.9728 25.8174 0.0000 0.0000 0.0000
# 3 22.5082 25.8174 24.4987 0.0000 0.0000 0.0000
# 4 0.0000 0.0000 0.0000 -6.4077 0.0000 0.0000
# 5 0.0000 0.0000 0.0000 0.0000 11.8743 0.0000
# 6 0.0000 0.0000 0.0000 0.0000 0.0000 25.2187
#
#
#
# Elastic Compliance Matrix: (Units=1/GPa)
#
#
# Indices 1 2 3 4 5 6 
#
# 1 0.010228 -0.003698 -0.005500 0.000000 0.000000 0.000000
# 2 -0.003698 0.010284 -0.007440 0.000000 0.000000 0.000000
# 3 -0.005500 -0.007440 0.053712 0.000000 0.000000 0.000000
# 4 0.000000 0.000000 0.000000 -0.156063 0.000000 0.000000
# 5 0.000000 0.000000 0.000000 0.000000 0.084216 0.000000
# 6 0.000000 0.000000 0.000000 0.000000 0.000000 0.039653
#
#
# Mechanical properties :
#
#
# Convention : Reuss Voigt Hill
#
# Bulk Modulus (GPa) = 24.42115 57.93830 41.17973
# Shear Modulus (GPa) = 56.20711 18.40875 37.30793
#
# Velocity S-wave (km/s) = 5.43544 3.11065 4.42833
# Velocity P-wave (km/s) = 7.22693 6.58449 6.91318
#
# Compressibility (1/GPa) = 0.04094811
#
# Stress axis : x y z
#
# Youngs Moduli (GPa) = 97.76925 97.23429 18.61775
#
# Poissons Ratio (x) = 0.35959 0.10240
# Poissons Ratio (y) = 0.36157 0.13852
# Poissons Ratio (z) = 0.53772 0.72345
#
# Static dielectric constant tensor:
#      x y z
#    x 3.799920 0.000000 0.000000 
#    y 0.000000 3.700920 0.000000 
#    z 0.000000 0.000000 2.892540 
# 
# 
# High freq. dielectric constant tensor:
#      x y z
#    x 1.747570 0.000000 0.000000 
#    y 0.000000 1.754570 0.000000 
#    z 0.000000 0.000000 1.677170 
# 
# From -- ./inp_files/11767.got.cif
#   From: 2010.03.12/outbox.cif.g09.slc.cpg/sg65_6_cif.got.tgz:11767.got - 2010.04.10 20:52:16.
