data_PCOD8266584
_publ_section_title
;
Structure prediction by ZEFSAII (Michael W. Deem and Ramdas Pophale) SiO2 
 PCOD8266584
Probable space group: C M M M
;
_chemical_formula_sum "Si O2"
_cell_formula_units_Z 104
_cell_length_a 8.861262
_cell_length_b 25.755609
_cell_length_c 25.901656
_cell_angle_alpha 90.000000
_cell_angle_beta 90.000000
_cell_angle_gamma 90.000000
_cell_volume 5911.462407
_symmetry_space_group_name_H-M "C M M M"
_symmetry_group_IT_number 65
_symmetry_cell_setting 'orthorhombic'
loop_
_space_group_symop_operation_xyz
x,y,z
-x,-y,z
x,-y,-z
-x,y,-z
-x,-y,-z
x,y,-z
-x,y,z
x,-y,z
1/2+x,1/2+y,z
1/2-x,1/2-y,z
1/2+x,1/2-y,-z
1/2-x,1/2+y,-z
1/2-x,1/2-y,-z
1/2+x,1/2+y,-z
1/2-x,1/2+y,z
1/2+x,1/2-y,z
loop_
_atom_site_type_symbol
_atom_site_label
_atom_site_fract_x
_atom_site_fract_y
_atom_site_fract_z
Si Si1 0.322072 0.559891 0.395628
Si Si2 0.179344 0.597930 0.294544
Si Si3 0.673363 0.598519 0.060834
Si Si4 0.176962 0.696821 0.230896
Si Si5 0.829939 0.438334 0.500000
Si Si6 0.820286 0.500000 0.886583
Si Si7 0.821397 0.695776 0.887288
Si Si8 0.178999 0.500000 0.230225
O O1 0.500000 0.565999 0.397340
O O2 0.273825 0.500000 0.386734
O O3 0.254121 0.595121 0.350526
O O4 0.255636 0.581863 0.449169
O O5 0.234656 0.650597 0.267325
O O6 0.239945 0.550682 0.259582
O O7 0.000000 0.595721 0.300545
O O8 0.500000 0.598629 0.078993
O O9 0.759707 0.550961 0.086165
O O10 0.752201 0.651594 0.077158
O O11 0.686320 0.592272 0.000000
O O12 0.250000 0.750000 0.250642
O O13 0.223386 0.684231 0.172045
O O14 0.000000 0.703466 0.235240
O O15 0.827780 0.500000 0.500000
O O16 0.000000 0.416608 0.500000
O O17 0.759884 0.500000 0.827957
O O18 0.000000 0.500000 0.889182
O O19 0.750000 0.750000 0.905443
O O20 0.000000 0.697772 0.895095
O O21 0.000000 0.500000 0.229516
#
# Coordination Sequence:
#
# PCOD8266584 Si02
#       8
#    16  16  16  16   8   8  16   8
#     4  10  19  30  44  69 105 137 170 213 259 299
#     4  10  18  31  51  73 101 137 173 207 248 302
#     4  11  24  40  56  77 106 138 173 214 260 312
#     4   9  19  34  53  77 103 134 172 212 255 305
#     4   9  17  29  47  67  92 135 182 213 249 302
#     4  11  22  38  59  80 103 137 178 217 260 310
#     4  10  20  37  60  83 107 134 170 214 265 318
#     4   9  18  32  52  76 103 132 166 209 253 304
#
# _framework density 17.592939999999999
#
# number of rings (size 3 to 8) (size 9 to 14) (size 15 to 20)
#    0.000    2.077    0.769    3.000    0.000    7.692 
#    0.000    3.077    0.000    0.000    0.000    0.538 
#    0.000    0.000    0.000    0.000    0.000    0.000 
#
# Total GULP energy -644959.676395 kJ/mol
# GULP energy per Si atom -12403.070700 kJ/mol
# Density = 1.755290 g / cm^3
# Si number density = 17.592940 Si / 1000 Ang^3
#
#
#
# Elastic Constant Matrix: (Units=GPa)
#
#
# Indices 1 2 3 4 5 6 
#
# 1 72.1485 37.1272 42.2128 0.0000 0.0000 0.0000
# 2 37.1272 105.8129 53.4719 0.0000 0.0000 0.0000
# 3 42.2128 53.4719 112.3263 0.0000 0.0000 0.0000
# 4 0.0000 0.0000 0.0000 52.2874 0.0000 0.0000
# 5 0.0000 0.0000 0.0000 0.0000 25.2607 0.0000
# 6 0.0000 0.0000 0.0000 0.0000 0.0000 27.5482
#
#
#
# Elastic Compliance Matrix: (Units=1/GPa)
#
#
# Indices 1 2 3 4 5 6 
#
# 1 0.018984 -0.004024 -0.005219 0.000000 0.000000 0.000000
# 2 -0.004024 0.013297 -0.004818 0.000000 0.000000 0.000000
# 3 -0.005219 -0.004818 0.013157 0.000000 0.000000 0.000000
# 4 0.000000 0.000000 0.000000 0.019125 0.000000 0.000000
# 5 0.000000 0.000000 0.000000 0.000000 0.039587 0.000000
# 6 0.000000 0.000000 0.000000 0.000000 0.000000 0.036300
#
#
# Mechanical properties :
#
#
# Convention : Reuss Voigt Hill
#
# Bulk Modulus (GPa) = 57.74387 61.76791 59.75589
# Shear Modulus (GPa) = 28.67878 31.51767 30.09822
#
# Velocity S-wave (km/s) = 4.04187 4.23720 4.14068
# Velocity P-wave (km/s) = 7.39430 7.68922 7.54320
#
# Compressibility (1/GPa) = 0.01731786
#
# Stress axis : x y z
#
# Youngs Moduli (GPa) = 52.67473 75.20404 76.00273
#
# Poissons Ratio (x) = 0.30261 0.39665
# Poissons Ratio (y) = 0.21195 0.36617
# Poissons Ratio (z) = 0.27491 0.36232
#
# Static dielectric constant tensor:
#      x y z
#    x 3.261340 0.000000 0.000000 
#    y 0.000000 3.173150 0.000000 
#    z 0.000000 0.000000 3.364720 
# 
# 
# High freq. dielectric constant tensor:
#      x y z
#    x 1.682540 0.000000 0.000000 
#    y 0.000000 1.664930 0.000000 
#    z 0.000000 0.000000 1.683580 
# 
# From -- ./inp_files/73650.got.cif
#   From: 2010.03.12/outbox.cif.g09.slc.cpg/sg65_37_cif.got.tgz:73650.got - 2010.04.10 20:52:16.
