data_PCOD8266284
_publ_section_title
;
Structure prediction by ZEFSAII (Michael W. Deem and Ramdas Pophale) SiO2 
 PCOD8266284
Probable space group: C M M M
;
_chemical_formula_sum "Si O2"
_cell_formula_units_Z 104
_cell_length_a 28.700942
_cell_length_b 8.757343
_cell_length_c 23.298651
_cell_angle_alpha 90.000000
_cell_angle_beta 90.000000
_cell_angle_gamma 90.000000
_cell_volume 5855.975986
_symmetry_space_group_name_H-M "C M M M"
_symmetry_group_IT_number 65
_symmetry_cell_setting 'orthorhombic'
loop_
_space_group_symop_operation_xyz
x,y,z
-x,-y,z
x,-y,-z
-x,y,-z
-x,-y,-z
x,y,-z
-x,y,z
x,-y,z
1/2+x,1/2+y,z
1/2-x,1/2-y,z
1/2+x,1/2-y,-z
1/2-x,1/2+y,-z
1/2-x,1/2-y,-z
1/2+x,1/2+y,-z
1/2-x,1/2+y,z
1/2+x,1/2-y,z
loop_
_atom_site_type_symbol
_atom_site_label
_atom_site_fract_x
_atom_site_fract_y
_atom_site_fract_z
Si Si1 0.698468 0.681828 0.000000
Si Si2 0.800582 0.821018 0.334932
Si Si3 0.852465 0.323960 0.770645
Si Si4 0.642252 0.825188 0.435139
Si Si5 0.800849 0.680950 0.115053
Si Si6 0.948737 0.326066 0.724287
Si Si7 0.947469 0.822524 0.604489
O O1 0.750000 0.750000 0.000000
O O2 0.674897 0.746094 0.941789
O O3 0.698583 0.500000 0.000000
O O4 0.750000 0.750000 0.331875
O O5 0.830013 0.773414 0.279771
O O6 0.826120 0.774269 0.393342
O O7 0.794720 0.000000 0.334788
O O8 0.839636 0.500000 0.759475
O O9 0.833303 0.270653 0.831972
O O10 0.908418 0.297185 0.771242
O O11 0.660699 0.804795 0.500000
O O12 0.588482 0.772974 0.433499
O O13 0.645488 0.000000 0.415160
O O14 0.796674 0.500000 0.107474
O O15 0.750000 0.750000 0.126294
O O16 0.945737 0.500000 0.701352
O O17 0.939892 0.214257 0.671283
O O18 0.000000 0.294929 0.751711
O O19 0.000000 0.779680 0.585375
O O20 0.937380 0.000000 0.594958
#
# Coordination Sequence:
#
# PCOD8266284 Si02
#       7
#     8  16  16  16  16  16  16
#     4  10  18  30  48  70 101 140 179 219 258 305
#     4  12  25  40  59  79 104 137 171 216 265 314
#     4  10  20  34  54  81 111 140 175 216 259 311
#     4  11  24  41  59  78 102 134 175 218 262 318
#     4  10  19  31  48  73 106 143 179 217 257 303
#     4   9  17  31  53  78 106 140 173 209 256 311
#     4  10  20  34  54  81 109 136 168 210 262 317
#
# _framework density 17.759634999999999
#
# number of rings (size 3 to 8) (size 9 to 14) (size 15 to 20)
#    0.000    1.692    1.538    4.846    0.000    5.231 
#    0.000    1.538    0.000    0.000    0.000    0.538 
#    0.000    4.308    0.000    0.000    0.000    0.000 
#
# Total GULP energy -644770.868047 kJ/mol
# GULP energy per Si atom -12399.439770 kJ/mol
# Density = 1.771921 g / cm^3
# Si number density = 17.759635 Si / 1000 Ang^3
#
#
#
# Elastic Constant Matrix: (Units=GPa)
#
#
# Indices 1 2 3 4 5 6 
#
# 1 107.1221 39.3962 55.2967 0.0000 0.0000 0.0000
# 2 39.3962 100.6789 48.9767 0.0000 0.0000 0.0000
# 3 55.2967 48.9767 116.9111 0.0000 0.0000 0.0000
# 4 0.0000 0.0000 0.0000 21.8202 0.0000 0.0000
# 5 0.0000 0.0000 0.0000 0.0000 20.8627 0.0000
# 6 0.0000 0.0000 0.0000 0.0000 0.0000 8.9480
#
#
#
# Elastic Compliance Matrix: (Units=1/GPa)
#
#
# Indices 1 2 3 4 5 6 
#
# 1 0.012873 -0.002607 -0.004997 0.000000 0.000000 0.000000
# 2 -0.002607 0.013003 -0.004214 0.000000 0.000000 0.000000
# 3 -0.004997 -0.004214 0.012682 0.000000 0.000000 0.000000
# 4 0.000000 0.000000 0.000000 0.045829 0.000000 0.000000
# 5 0.000000 0.000000 0.000000 0.000000 0.047932 0.000000
# 6 0.000000 0.000000 0.000000 0.000000 0.000000 0.111756
#
#
# Mechanical properties :
#
#
# Convention : Reuss Voigt Hill
#
# Bulk Modulus (GPa) = 67.01117 68.00570 67.50843
# Shear Modulus (GPa) = 18.33616 22.39570 20.36593
#
# Velocity S-wave (km/s) = 3.21668 3.55497 3.39005
# Velocity P-wave (km/s) = 7.18403 7.43141 7.30877
#
# Compressibility (1/GPa) = 0.01492288
#
# Stress axis : x y z
#
# Youngs Moduli (GPa) = 77.68134 76.90768 78.84990
#
# Poissons Ratio (x) = 0.20046 0.39400
# Poissons Ratio (y) = 0.20248 0.33229
# Poissons Ratio (z) = 0.38816 0.32411
#
# Static dielectric constant tensor:
#      x y z
#    x 3.468950 0.000000 0.000000 
#    y 0.000000 3.395550 0.000000 
#    z 0.000000 0.000000 3.449870 
# 
# 
# High freq. dielectric constant tensor:
#      x y z
#    x 1.678050 0.000000 0.000000 
#    y 0.000000 1.699030 0.000000 
#    z 0.000000 0.000000 1.672800 
# 
# From -- ./inp_files/71836.got.cif
#   From: 2010.03.12/outbox.cif.g09.slc.cpg/sg65_36_cif.got.tgz:71836.got - 2010.04.10 20:52:16.
