data_PCOD8266844
_publ_section_title
;
Structure prediction by ZEFSAII (Michael W. Deem and Ramdas Pophale) SiO2 
 PCOD8266844
Probable space group: C M M M
;
_chemical_formula_sum "Si O2"
_cell_formula_units_Z 96
_cell_length_a 8.679214
_cell_length_b 23.753175
_cell_length_c 25.619793
_cell_angle_alpha 90.000000
_cell_angle_beta 90.000000
_cell_angle_gamma 90.000000
_cell_volume 5281.748061
_symmetry_space_group_name_H-M "C M M M"
_symmetry_group_IT_number 65
_symmetry_cell_setting 'orthorhombic'
loop_
_space_group_symop_operation_xyz
x,y,z
-x,-y,z
x,-y,-z
-x,y,-z
-x,-y,-z
x,y,-z
-x,y,z
x,-y,z
1/2+x,1/2+y,z
1/2-x,1/2-y,z
1/2+x,1/2-y,-z
1/2-x,1/2+y,-z
1/2-x,1/2-y,-z
1/2+x,1/2+y,-z
1/2-x,1/2+y,z
1/2+x,1/2-y,z
loop_
_atom_site_type_symbol
_atom_site_label
_atom_site_fract_x
_atom_site_fract_y
_atom_site_fract_z
Si Si1 0.816229 0.122571 0.799280
Si Si2 0.320298 0.563540 0.500000
Si Si3 0.179069 0.000000 0.222425
Si Si4 0.316910 0.687480 0.000000
Si Si5 0.675981 0.000000 0.668930
Si Si6 0.678849 0.311226 0.303707
Si Si7 0.681903 0.188312 0.104983
Si Si8 0.319990 0.399291 0.611561
O O1 0.762875 0.149869 0.744248
O O2 0.726453 0.152358 0.845308
O O3 0.000000 0.127456 0.806679
O O4 0.755783 0.057901 0.801893
O O5 0.244634 0.500000 0.500000
O O6 0.500000 0.552870 0.500000
O O7 0.275574 0.601537 0.449745
O O8 0.207707 0.000000 0.283493
O O9 0.000000 0.000000 0.212852
O O10 0.250000 0.750000 0.000000
O O11 0.253176 0.658592 0.052954
O O12 0.500000 0.687075 0.000000
O O13 0.708742 0.054423 0.635026
O O14 0.500000 0.000000 0.688197
O O15 0.500000 0.302271 0.296951
O O16 0.750000 0.250000 0.301587
O O17 0.717982 0.340472 0.359373
O O18 0.500000 0.192566 0.098908
O O19 0.750000 0.250000 0.113146
O O20 0.500000 0.415074 0.620082
#
# Coordination Sequence:
#
# PCOD8266844 Si02
#       8
#    16   8   8   8   8  16  16  16
#     4  10  20  35  56  81 105 139 178 220 268 317
#     4   9  16  28  57  84  96 124 180 228 259 308
#     4  10  20  38  59  78 107 142 179 217 261 321
#     4  10  18  32  54  79 108 143 186 230 270 318
#     4  12  22  31  51  82 110 137 168 215 270 323
#     4  10  21  35  54  75 105 140 177 217 262 316
#     4  11  21  34  53  80 114 148 182 225 269 317
#     4  10  19  36  56  77 103 138 177 219 264 319
#
# _framework density 18.175799999999999
#
# number of rings (size 3 to 8) (size 9 to 14) (size 15 to 20)
#    0.000    1.750    2.500    4.500    0.000    3.333 
#    0.000    1.250    0.000    0.500    0.000    3.500 
#    0.000    0.000    0.000    0.000    0.000    0.000 
#
# Total GULP energy -594941.735914 kJ/mol
# GULP energy per Si atom -12394.619498 kJ/mol
# Density = 1.813443 g / cm^3
# Si number density = 18.175800 Si / 1000 Ang^3
#
#
#
# Elastic Constant Matrix: (Units=GPa)
#
#
# Indices 1 2 3 4 5 6 
#
# 1 58.0466 42.4437 42.4947 0.0000 0.0000 0.0000
# 2 42.4437 126.1298 65.1355 0.0000 0.0000 0.0000
# 3 42.4947 65.1355 151.3453 0.0000 0.0000 0.0000
# 4 0.0000 0.0000 0.0000 37.3862 0.0000 0.0000
# 5 0.0000 0.0000 0.0000 0.0000 21.5710 0.0000
# 6 0.0000 0.0000 0.0000 0.0000 0.0000 21.6781
#
#
#
# Elastic Compliance Matrix: (Units=1/GPa)
#
#
# Indices 1 2 3 4 5 6 
#
# 1 0.024896 -0.006130 -0.004352 0.000000 0.000000 0.000000
# 2 -0.006130 0.011703 -0.003316 0.000000 0.000000 0.000000
# 3 -0.004352 -0.003316 0.009256 0.000000 0.000000 0.000000
# 4 0.000000 0.000000 0.000000 0.026748 0.000000 0.000000
# 5 0.000000 0.000000 0.000000 0.000000 0.046359 0.000000
# 6 0.000000 0.000000 0.000000 0.000000 0.000000 0.046129
#
#
# Mechanical properties :
#
#
# Convention : Reuss Voigt Hill
#
# Bulk Modulus (GPa) = 54.76442 70.62993 62.69717
# Shear Modulus (GPa) = 25.15417 28.49024 26.82220
#
# Velocity S-wave (km/s) = 3.72417 3.96344 3.84566
# Velocity P-wave (km/s) = 6.97771 7.73879 7.36808
#
# Compressibility (1/GPa) = 0.01826003
#
# Stress axis : x y z
#
# Youngs Moduli (GPa) = 40.16712 85.44473 108.03424
#
# Poissons Ratio (x) = 0.52380 0.47016
# Poissons Ratio (y) = 0.24624 0.35820
# Poissons Ratio (z) = 0.17481 0.28330
#
# Static dielectric constant tensor:
#      x y z
#    x 3.200760 0.000000 0.000000 
#    y 0.000000 3.604150 0.000000 
#    z 0.000000 0.000000 3.827050 
# 
# 
# High freq. dielectric constant tensor:
#      x y z
#    x 1.692200 0.000000 0.000000 
#    y 0.000000 1.684160 0.000000 
#    z 0.000000 0.000000 1.713900 
# 
# From -- ./inp_files/67947.got.cif
#   From: 2010.03.12/outbox.cif.g09.slc.cpg/sg65_34_cif.got.tgz:67947.got - 2010.04.10 20:52:16.
