data_PCOD8266427
_publ_section_title
;
Structure prediction by ZEFSAII (Michael W. Deem and Ramdas Pophale) SiO2 
 PCOD8266427
Probable space group: C M M M
;
_chemical_formula_sum "Si O2"
_cell_formula_units_Z 88
_cell_length_a 18.386534
_cell_length_b 16.249615
_cell_length_c 14.138491
_cell_angle_alpha 90.000000
_cell_angle_beta 90.000000
_cell_angle_gamma 90.000000
_cell_volume 4224.214905
_symmetry_space_group_name_H-M "C M M M"
_symmetry_group_IT_number 65
_symmetry_cell_setting 'orthorhombic'
loop_
_space_group_symop_operation_xyz
x,y,z
-x,-y,z
x,-y,-z
-x,y,-z
-x,-y,-z
x,y,-z
-x,y,z
x,-y,z
1/2+x,1/2+y,z
1/2-x,1/2-y,z
1/2+x,1/2-y,-z
1/2-x,1/2+y,-z
1/2-x,1/2-y,-z
1/2+x,1/2+y,-z
1/2-x,1/2+y,z
1/2+x,1/2-y,z
loop_
_atom_site_type_symbol
_atom_site_label
_atom_site_fract_x
_atom_site_fract_y
_atom_site_fract_z
Si Si1 0.419146 0.000000 0.387946
Si Si2 0.914905 0.744002 0.212217
Si Si3 0.287884 0.591038 0.602475
Si Si4 0.155251 0.909203 0.200361
Si Si5 0.357734 0.170729 0.608235
Si Si6 0.790162 0.336335 0.106099
O O1 0.384309 0.083727 0.349852
O O2 0.500000 0.000000 0.348689
O O3 0.414241 0.000000 0.500000
O O4 0.897968 0.835114 0.168214
O O5 0.889645 0.741146 0.322700
O O6 0.868642 0.674869 0.155934
O O7 0.000000 0.725287 0.200506
O O8 0.326690 0.603984 0.500000
O O9 0.249651 0.500000 0.602989
O O10 0.346120 0.594878 0.685728
O O11 0.229640 0.664711 0.614053
O O12 0.238022 0.898994 0.162817
O O13 0.127120 0.000000 0.167167
O O14 0.383522 0.187944 0.500000
O O15 0.750000 0.250000 0.104559
O O16 0.802367 0.369971 0.000000
#
# Coordination Sequence:
#
# PCOD8266427 Si02
#       6
#     8  16  16  16  16  16
#     4   9  16  26  42  68 105 149 188 222 272 335
#     4  11  23  37  55  84 120 156 192 229 280 343
#     4   9  16  29  52  80 109 142 184 236 286 328
#     4  10  21  38  60  84 111 149 198 243 280 327
#     4  10  18  30  50  78 114 153 191 236 286 339
#     4   9  19  38  62  85 109 139 179 231 290 344
#
# _framework density 20.832273000000001
#
# number of rings (size 3 to 8) (size 9 to 14) (size 15 to 20)
#    0.000    2.273    2.727    0.545    0.000    2.909 
#    0.000    1.818    0.000    0.000    0.000   10.182 
#    0.000    0.000    0.000    0.000    0.000    0.000 
#
# Total GULP energy -545163.995364 kJ/mol
# GULP energy per Si atom -12390.090804 kJ/mol
# Density = 2.078486 g / cm^3
# Si number density = 20.832273 Si / 1000 Ang^3
#
#
#
# Elastic Constant Matrix: (Units=GPa)
#
#
# Indices 1 2 3 4 5 6 
#
# 1 40.3528 -6.4271 8.6299 0.0000 0.0000 0.0000
# 2 -6.4271 81.2763 0.5893 0.0000 0.0000 0.0000
# 3 8.6299 0.5893 92.5721 0.0000 0.0000 0.0000
# 4 0.0000 0.0000 0.0000 13.0039 0.0000 0.0000
# 5 0.0000 0.0000 0.0000 0.0000 14.9147 0.0000
# 6 0.0000 0.0000 0.0000 0.0000 0.0000 18.3443
#
#
#
# Elastic Compliance Matrix: (Units=1/GPa)
#
#
# Indices 1 2 3 4 5 6 
#
# 1 0.025620 0.002043 -0.002401 0.000000 0.000000 0.000000
# 2 0.002043 0.012467 -0.000270 0.000000 0.000000 0.000000
# 3 -0.002401 -0.000270 0.011028 0.000000 0.000000 0.000000
# 4 0.000000 0.000000 0.000000 0.076900 0.000000 0.000000
# 5 0.000000 0.000000 0.000000 0.000000 0.067048 0.000000
# 6 0.000000 0.000000 0.000000 0.000000 0.000000 0.054513
#
#
# Mechanical properties :
#
#
# Convention : Reuss Voigt Hill
#
# Bulk Modulus (GPa) = 20.89431 24.42061 22.65746
# Shear Modulus (GPa) = 18.88318 23.34651 21.11484
#
# Velocity S-wave (km/s) = 3.01398 3.35130 3.18711
# Velocity P-wave (km/s) = 4.70783 5.16942 4.94401
#
# Compressibility (1/GPa) = 0.04785991
#
# Stress axis : x y z
#
# Youngs Moduli (GPa) = 39.03129 80.21013 90.67841
#
# Poissons Ratio (x) = -0.16390 0.21776
# Poissons Ratio (y) = -0.07976 0.02447
# Poissons Ratio (z) = 0.09373 0.02165
#
# Static dielectric constant tensor:
#      x y z
#    x 3.350540 0.000000 0.000000 
#    y 0.000000 3.908640 0.000000 
#    z 0.000000 0.000000 3.776240 
# 
# 
# High freq. dielectric constant tensor:
#      x y z
#    x 1.768910 0.000000 0.000000 
#    y 0.000000 1.814310 0.000000 
#    z 0.000000 0.000000 1.800310 
# 
# From -- ./inp_files/42464.got.cif
#   From: 2010.03.12/outbox.cif.g09.slc.cpg/sg65_22_cif.got.tgz:42464.got - 2010.04.10 20:52:16.
