data_PCOD8266322
_publ_section_title
;
Structure prediction by ZEFSAII (Michael W. Deem and Ramdas Pophale) SiO2 
 PCOD8266322
Probable space group: C M M M
;
_chemical_formula_sum "Si O2"
_cell_formula_units_Z 104
_cell_length_a 8.880292
_cell_length_b 19.655952
_cell_length_c 32.599923
_cell_angle_alpha 90.000000
_cell_angle_beta 90.000000
_cell_angle_gamma 90.000000
_cell_volume 5690.335901
_symmetry_space_group_name_H-M "C M M M"
_symmetry_group_IT_number 65
_symmetry_cell_setting 'orthorhombic'
loop_
_space_group_symop_operation_xyz
x,y,z
-x,-y,z
x,-y,-z
-x,y,-z
-x,-y,-z
x,y,-z
-x,y,z
x,-y,z
1/2+x,1/2+y,z
1/2-x,1/2-y,z
1/2+x,1/2-y,-z
1/2-x,1/2+y,-z
1/2-x,1/2-y,-z
1/2+x,1/2+y,-z
1/2-x,1/2+y,z
1/2+x,1/2-y,z
loop_
_atom_site_type_symbol
_atom_site_label
_atom_site_fract_x
_atom_site_fract_y
_atom_site_fract_z
Si Si1 0.324153 0.681265 0.605649
Si Si2 0.826177 0.579405 0.760172
Si Si3 0.822643 0.180323 0.698961
Si Si4 0.674324 0.422228 0.844051
Si Si5 0.821490 0.176402 0.918218
Si Si6 0.819589 0.324784 0.000000
Si Si7 0.827354 0.420856 0.546575
O O1 0.500000 0.691970 0.603496
O O2 0.250000 0.750000 0.588476
O O3 0.271063 0.666873 0.652170
O O4 0.279411 0.618442 0.577511
O O5 0.796611 0.500000 0.753349
O O6 0.733231 0.617431 0.725464
O O7 0.770420 0.601654 0.805055
O O8 0.000000 0.598901 0.756102
O O9 0.750000 0.250000 0.715585
O O10 0.000000 0.186906 0.703079
O O11 0.500000 0.414253 0.832475
O O12 0.712007 0.500000 0.856345
O O13 0.719449 0.373719 0.881336
O O14 0.750000 0.250000 0.908875
O O15 0.745665 0.141332 0.958504
O O16 0.000000 0.184296 0.924750
O O17 0.750000 0.250000 0.000000
O O18 0.000000 0.324906 0.000000
O O19 0.788648 0.399756 0.500000
O O20 0.795907 0.500000 0.553072
O O21 0.000000 0.403275 0.556503
#
# Coordination Sequence:
#
# PCOD8266322 Si02
#       7
#    16  16  16  16  16   8  16
#     4  10  21  36  55  79 106 138 175 215 261 310
#     4  10  21  36  55  79 106 138 175 213 256 309
#     4  10  21  37  56  78 106 138 173 216 262 309
#     4   9  19  36  55  74 100 136 174 212 255 301
#     4  10  19  32  52  76 101 130 167 209 252 301
#     4  10  18  30  49  72 101 133 165 205 251 298
#     4   9  19  36  56  78 106 140 176 215 260 308
#
# _framework density 18.276599999999998
#
# number of rings (size 3 to 8) (size 9 to 14) (size 15 to 20)
#    0.000    2.308    0.000    3.923    0.000    6.154 
#    0.000    5.769    0.000    2.308    0.000    0.000 
#    0.000    0.000    0.000    0.000    0.000    0.000 
#
# Total GULP energy -644876.610176 kJ/mol
# GULP energy per Si atom -12401.473273 kJ/mol
# Density = 1.823500 g / cm^3
# Si number density = 18.276600 Si / 1000 Ang^3
#
#
#
# Elastic Constant Matrix: (Units=GPa)
#
#
# Indices 1 2 3 4 5 6 
#
# 1 90.5930 40.6099 53.0066 0.0000 0.0000 0.0000
# 2 40.6099 73.9192 62.7856 0.0000 0.0000 0.0000
# 3 53.0066 62.7856 112.0206 0.0000 0.0000 0.0000
# 4 0.0000 0.0000 0.0000 1.4477 0.0000 0.0000
# 5 0.0000 0.0000 0.0000 0.0000 34.5928 0.0000
# 6 0.0000 0.0000 0.0000 0.0000 0.0000 32.2967
#
#
#
# Elastic Compliance Matrix: (Units=1/GPa)
#
#
# Indices 1 2 3 4 5 6 
#
# 1 0.016015 -0.004507 -0.005052 0.000000 0.000000 0.000000
# 2 -0.004507 0.027089 -0.013050 0.000000 0.000000 0.000000
# 3 -0.005052 -0.013050 0.018632 0.000000 0.000000 0.000000
# 4 0.000000 0.000000 0.000000 0.690749 0.000000 0.000000
# 5 0.000000 0.000000 0.000000 0.000000 0.028908 0.000000
# 6 0.000000 0.000000 0.000000 0.000000 0.000000 0.030963
#
#
# Mechanical properties :
#
#
# Convention : Reuss Voigt Hill
#
# Bulk Modulus (GPa) = 60.54326 65.48190 63.01258
# Shear Modulus (GPa) = 5.79321 21.67615 13.73468
#
# Velocity S-wave (km/s) = 1.78231 3.44758 2.74431
# Velocity P-wave (km/s) = 6.11829 7.19401 6.67785
#
# Compressibility (1/GPa) = 0.01651711
#
# Stress axis : x y z
#
# Youngs Moduli (GPa) = 62.44292 36.91516 53.67224
#
# Poissons Ratio (x) = 0.16639 0.27113
# Poissons Ratio (y) = 0.28146 0.70043
# Poissons Ratio (z) = 0.31543 0.48175
#
# Static dielectric constant tensor:
#      x y z
#    x 3.419690 0.000000 0.000000 
#    y 0.000000 3.243610 0.000000 
#    z 0.000000 0.000000 3.609800 
# 
# 
# High freq. dielectric constant tensor:
#      x y z
#    x 1.718660 0.000000 0.000000 
#    y 0.000000 1.696670 0.000000 
#    z 0.000000 0.000000 1.715960 
# 
# From -- ./inp_files/76848.got.cif
#   From: 2010.03.12/outbox.cif.g09.slc.cpg/sg65_39_cif.got.tgz:76848.got - 2010.04.10 20:52:16.
