data_PCOD8266230
_publ_section_title
;
Structure prediction by ZEFSAII (Michael W. Deem and Ramdas Pophale) SiO2 
 PCOD8266230
Probable space group: C M M M
;
_chemical_formula_sum "Si O2"
_cell_formula_units_Z 88
_cell_length_a 19.044727
_cell_length_b 8.741206
_cell_length_c 28.185341
_cell_angle_alpha 90.000000
_cell_angle_beta 90.000000
_cell_angle_gamma 90.000000
_cell_volume 4692.123130
_symmetry_space_group_name_H-M "C M M M"
_symmetry_group_IT_number 65
_symmetry_cell_setting 'orthorhombic'
loop_
_space_group_symop_operation_xyz
x,y,z
-x,-y,z
x,-y,-z
-x,y,-z
-x,-y,-z
x,y,-z
-x,y,z
x,-y,z
1/2+x,1/2+y,z
1/2-x,1/2-y,z
1/2+x,1/2-y,-z
1/2-x,1/2+y,-z
1/2-x,1/2-y,-z
1/2+x,1/2+y,-z
1/2-x,1/2+y,z
1/2+x,1/2-y,z
loop_
_atom_site_type_symbol
_atom_site_label
_atom_site_fract_x
_atom_site_fract_y
_atom_site_fract_z
Si Si1 0.920250 0.177124 0.054855
Si Si2 0.673626 0.178516 0.132963
Si Si3 0.082007 0.177538 0.213495
Si Si4 0.672065 0.182711 0.500000
Si Si5 0.826925 0.182594 0.595310
Si Si6 0.577389 0.681356 0.680450
O O1 0.865826 0.273804 0.085117
O O2 0.000000 0.229478 0.065900
O O3 0.911697 0.000000 0.068312
O O4 0.902459 0.205111 0.000000
O O5 0.750000 0.250000 0.135648
O O6 0.628202 0.223109 0.178440
O O7 0.684170 0.000000 0.132357
O O8 0.102480 0.229330 0.266921
O O9 0.000000 0.208636 0.203922
O O10 0.099382 0.000000 0.205195
O O11 0.750000 0.250000 0.500000
O O12 0.635923 0.248377 0.547846
O O13 0.672049 0.000000 0.500000
O O14 0.750000 0.250000 0.601490
O O15 0.870063 0.243374 0.640555
O O16 0.824286 0.000000 0.591712
O O17 0.500000 0.749508 0.670398
O O18 0.573274 0.500000 0.678196
#
# Coordination Sequence:
#
# PCOD8266230 Si02
#       6
#    16  16  16   8  16  16
#     4   9  19  38  63  87 111 142 179 217 261 316
#     4  12  25  38  54  79 112 146 181 222 267 313
#     4   9  18  36  60  81 105 139 176 215 262 316
#     4  10  18  30  47  68  97 131 169 207 249 302
#     4  10  18  30  50  74 100 129 166 210 253 300
#     4   8  16  32  54  78 102 132 170 209 251 303
#
# _framework density 18.754836000000001
#
# number of rings (size 3 to 8) (size 9 to 14) (size 15 to 20)
#    0.000    2.364    0.000    6.273    0.000    4.364 
#    0.000    5.000    0.000    7.091    0.000    0.000 
#    0.000    0.000    0.000    0.000    0.000    0.000 
#
# Total GULP energy -545487.955449 kJ/mol
# GULP energy per Si atom -12397.453533 kJ/mol
# Density = 1.871215 g / cm^3
# Si number density = 18.754836 Si / 1000 Ang^3
#
#
#
# Elastic Constant Matrix: (Units=GPa)
#
#
# Indices 1 2 3 4 5 6 
#
# 1 87.9025 46.7214 72.6308 0.0000 0.0000 0.0000
# 2 46.7214 104.8189 56.2834 0.0000 0.0000 0.0000
# 3 72.6308 56.2834 150.2082 0.0000 0.0000 0.0000
# 4 0.0000 0.0000 0.0000 27.0881 0.0000 0.0000
# 5 0.0000 0.0000 0.0000 0.0000 29.3432 0.0000
# 6 0.0000 0.0000 0.0000 0.0000 0.0000 23.1125
#
#
#
# Elastic Compliance Matrix: (Units=1/GPa)
#
#
# Indices 1 2 3 4 5 6 
#
# 1 0.020730 -0.004830 -0.008214 0.000000 0.000000 0.000000
# 2 -0.004830 0.013068 -0.002561 0.000000 0.000000 0.000000
# 3 -0.008214 -0.002561 0.011589 0.000000 0.000000 0.000000
# 4 0.000000 0.000000 0.000000 0.036917 0.000000 0.000000
# 5 0.000000 0.000000 0.000000 0.000000 0.034079 0.000000
# 6 0.000000 0.000000 0.000000 0.000000 0.000000 0.043267
#
#
# Mechanical properties :
#
#
# Convention : Reuss Voigt Hill
#
# Bulk Modulus (GPa) = 70.53525 77.13342 73.83433
# Shear Modulus (GPa) = 25.56413 27.06170 26.31292
#
# Velocity S-wave (km/s) = 3.69598 3.80270 3.74972
# Velocity P-wave (km/s) = 7.47693 7.77799 7.62895
#
# Compressibility (1/GPa) = 0.01417731
#
# Stress axis : x y z
#
# Youngs Moduli (GPa) = 48.23854 76.52060 86.28825
#
# Poissons Ratio (x) = 0.36956 0.70879
# Poissons Ratio (y) = 0.23297 0.22103
# Poissons Ratio (z) = 0.39624 0.19601
#
# Static dielectric constant tensor:
#      x y z
#    x 3.444950 0.000000 0.000000 
#    y 0.000000 3.250100 0.000000 
#    z 0.000000 0.000000 3.991250 
# 
# 
# High freq. dielectric constant tensor:
#      x y z
#    x 1.712940 0.000000 0.000000 
#    y 0.000000 1.712280 0.000000 
#    z 0.000000 0.000000 1.749920 
# 
# From -- ./inp_files/77920.got.cif
#   From: 2010.03.12/outbox.cif.g09.slc.cpg/sg65_39_cif.got.tgz:77920.got - 2010.04.10 20:52:16.
