data_PCOD8266166
_publ_section_title
;
Structure prediction by ZEFSAII (Michael W. Deem and Ramdas Pophale) SiO2 
 PCOD8266166
Probable space group: C M M M
;
_chemical_formula_sum "Si O2"
_cell_formula_units_Z 88
_cell_length_a 15.433188
_cell_length_b 23.777510
_cell_length_c 16.423762
_cell_angle_alpha 90.000000
_cell_angle_beta 90.000000
_cell_angle_gamma 90.000000
_cell_volume 6026.909394
_symmetry_space_group_name_H-M "C M M M"
_symmetry_group_IT_number 65
_symmetry_cell_setting 'orthorhombic'
loop_
_space_group_symop_operation_xyz
x,y,z
-x,-y,z
x,-y,-z
-x,y,-z
-x,-y,-z
x,y,-z
-x,y,z
x,-y,z
1/2+x,1/2+y,z
1/2-x,1/2-y,z
1/2+x,1/2-y,-z
1/2-x,1/2+y,-z
1/2-x,1/2-y,-z
1/2+x,1/2+y,-z
1/2-x,1/2+y,z
1/2+x,1/2-y,z
loop_
_atom_site_type_symbol
_atom_site_label
_atom_site_fract_x
_atom_site_fract_y
_atom_site_fract_z
Si Si1 0.899674 0.126336 0.833535
Si Si2 0.102933 0.063065 0.325933
Si Si3 0.252199 0.061946 0.094595
Si Si4 0.094711 0.066638 0.500000
Si Si5 0.851779 0.758595 0.906694
Si Si6 0.404637 0.137853 0.096336
O O1 0.869630 0.107962 0.742788
O O2 0.840595 0.091595 0.895922
O O3 0.884113 0.192322 0.846987
O O4 0.000000 0.110609 0.848955
O O5 0.142393 0.082991 0.414327
O O6 0.000000 0.061177 0.335158
O O7 0.136031 0.000000 0.302718
O O8 0.330136 0.098353 0.135379
O O9 0.251392 0.000000 0.134992
O O10 0.271497 0.056171 0.000000
O O11 0.000000 0.095481 0.500000
O O12 0.084008 0.000000 0.500000
O O13 0.750000 0.750000 0.901305
O O14 0.896093 0.701944 0.873198
O O15 0.879142 0.772646 0.000000
O O16 0.500000 0.114773 0.120417
O O17 0.391486 0.139141 0.000000
#
# Coordination Sequence:
#
# PCOD8266166 Si02
#       6
#    16  16  16   8  16  16
#     4  11  20  28  41  62  87 113 138 165 201 247
#     4   8  14  24  38  58  84 112 139 165 194 234
#     4  10  20  31  41  56  81 111 139 168 206 251
#     4   7  10  20  38  56  77 108 141 167 191 224
#     4  10  18  30  45  58  77 107 143 181 214 243
#     4   9  17  30  46  59  71  94 136 187 224 243
#
# _framework density 14.601181
#
# number of rings (size 3 to 8) (size 9 to 14) (size 15 to 20)
#    0.000    2.636    1.818    2.727    0.000    3.636 
#    0.000    2.727    0.000    0.000    0.000    0.636 
#    0.000    0.000    0.000    0.818    0.000    9.455 
#
# Total GULP energy -545130.810384 kJ/mol
# GULP energy per Si atom -12389.336600 kJ/mol
# Density = 1.456795 g / cm^3
# Si number density = 14.601181 Si / 1000 Ang^3
#
#
#
# Elastic Constant Matrix: (Units=GPa)
#
#
# Indices 1 2 3 4 5 6 
#
# 1 73.9901 39.3393 11.0490 0.0000 0.0000 0.0000
# 2 39.3393 100.8287 28.5607 0.0000 0.0000 0.0000
# 3 11.0490 28.5607 51.3007 0.0000 0.0000 0.0000
# 4 0.0000 0.0000 0.0000 15.3037 0.0000 0.0000
# 5 0.0000 0.0000 0.0000 0.0000 4.1380 0.0000
# 6 0.0000 0.0000 0.0000 0.0000 0.0000 17.7252
#
#
#
# Elastic Compliance Matrix: (Units=1/GPa)
#
#
# Indices 1 2 3 4 5 6 
#
# 1 0.017053 -0.006664 0.000037 0.000000 0.000000 0.000000
# 2 -0.006664 0.014379 -0.006570 0.000000 0.000000 0.000000
# 3 0.000037 -0.006570 0.023143 0.000000 0.000000 0.000000
# 4 0.000000 0.000000 0.000000 0.065344 0.000000 0.000000
# 5 0.000000 0.000000 0.000000 0.000000 0.241661 0.000000
# 6 0.000000 0.000000 0.000000 0.000000 0.000000 0.056417
#
#
# Mechanical properties :
#
#
# Convention : Reuss Voigt Hill
#
# Bulk Modulus (GPa) = 35.48482 42.66862 39.07672
# Shear Modulus (GPa) = 11.01849 17.24474 14.13162
#
# Velocity S-wave (km/s) = 2.75003 3.44037 3.11439
# Velocity P-wave (km/s) = 5.86848 6.71325 6.30503
#
# Compressibility (1/GPa) = 0.02818107
#
# Stress axis : x y z
#
# Youngs Moduli (GPa) = 58.64127 69.54709 43.21044
#
# Poissons Ratio (x) = 0.46345 -0.00161
# Poissons Ratio (y) = 0.39078 0.28389
# Poissons Ratio (z) = -0.00218 0.45691
#
# Static dielectric constant tensor:
#      x y z
#    x 2.729910 0.000000 0.000000 
#    y 0.000000 2.983630 0.000000 
#    z 0.000000 0.000000 2.852530 
# 
# 
# High freq. dielectric constant tensor:
#      x y z
#    x 1.540900 0.000000 0.000000 
#    y 0.000000 1.554740 0.000000 
#    z 0.000000 0.000000 1.515760 
# 
# From -- ./inp_files/42726.got.cif
#   From: 2010.03.12/outbox.cif.g09.slc.cpg/sg65_22_cif.got.tgz:42726.got - 2010.04.10 20:52:16.
