data_PCOD8266525
_publ_section_title
;
Structure prediction by ZEFSAII (Michael W. Deem and Ramdas Pophale) SiO2 
 PCOD8266525
Probable space group: C M M M
;
_chemical_formula_sum "Si O2"
_cell_formula_units_Z 88
_cell_length_a 28.374475
_cell_length_b 9.566203
_cell_length_c 23.485071
_cell_angle_alpha 90.000000
_cell_angle_beta 90.000000
_cell_angle_gamma 90.000000
_cell_volume 6374.693447
_symmetry_space_group_name_H-M "C M M M"
_symmetry_group_IT_number 65
_symmetry_cell_setting 'orthorhombic'
loop_
_space_group_symop_operation_xyz
x,y,z
-x,-y,z
x,-y,-z
-x,y,-z
-x,-y,-z
x,y,-z
-x,y,z
x,-y,z
1/2+x,1/2+y,z
1/2-x,1/2-y,z
1/2+x,1/2-y,-z
1/2-x,1/2+y,-z
1/2-x,1/2-y,-z
1/2+x,1/2+y,-z
1/2-x,1/2+y,z
1/2+x,1/2-y,z
loop_
_atom_site_type_symbol
_atom_site_label
_atom_site_fract_x
_atom_site_fract_y
_atom_site_fract_z
Si Si1 0.947847 0.165717 0.712613
Si Si2 0.207061 0.160093 0.434319
Si Si3 0.103645 0.835552 0.599940
Si Si4 0.556023 0.843406 0.062734
Si Si5 0.055871 0.336166 0.500000
Si Si6 0.556232 0.655566 0.163405
O O1 0.912925 0.211816 0.662520
O O2 0.929196 0.218377 0.774490
O O3 0.000000 0.227011 0.699627
O O4 0.951396 0.000000 0.716354
O O5 0.198004 0.198846 0.500000
O O6 0.250000 0.250000 0.408711
O O7 0.159229 0.195128 0.401107
O O8 0.221596 0.000000 0.427063
O O9 0.076357 0.740270 0.555195
O O10 0.093369 0.000000 0.587195
O O11 0.500000 0.842840 0.067235
O O12 0.578100 0.748568 0.112661
O O13 0.575226 0.000000 0.071223
O O14 0.571126 0.787308 0.000000
O O15 0.070283 0.500000 0.500000
O O16 0.000000 0.318551 0.500000
O O17 0.500000 0.652074 0.160330
O O18 0.576716 0.500000 0.155205
#
# Coordination Sequence:
#
# PCOD8266525 Si02
#       6
#    16  16  16  16   8  16
#     4   8  14  24  39  57  74  94 122 157 189 215
#     4   9  17  29  44  63  80  94 118 151 189 233
#     4  10  18  31  48  62  74  96 132 161 184 226
#     4   8  13  20  29  42  61  86 117 151 183 211
#     4  11  23  33  40  57  84 105 122 153 196 231
#     4   8  13  21  32  47  66  87 114 147 183 217
#
# _framework density 13.804586
#
# number of rings (size 3 to 8) (size 9 to 14) (size 15 to 20)
#    0.000    3.182    0.909    2.455    0.000    2.545 
#    0.000    2.727    0.000    3.273    0.000    0.000 
#    0.000    0.000    0.000    0.000    0.000    0.909 
#
# Total GULP energy -545250.088305 kJ/mol
# GULP energy per Si atom -12392.047461 kJ/mol
# Density = 1.377317 g / cm^3
# Si number density = 13.804586 Si / 1000 Ang^3
#
#
#
# Elastic Constant Matrix: (Units=GPa)
#
#
# Indices 1 2 3 4 5 6 
#
# 1 59.3716 31.8188 43.8508 0.0000 0.0000 0.0000
# 2 31.8188 59.4870 53.4034 0.0000 0.0000 0.0000
# 3 43.8508 53.4034 134.4540 0.0000 0.0000 0.0000
# 4 0.0000 0.0000 0.0000 11.7206 0.0000 0.0000
# 5 0.0000 0.0000 0.0000 0.0000 1.3473 0.0000
# 6 0.0000 0.0000 0.0000 0.0000 0.0000 15.1416
#
#
#
# Elastic Compliance Matrix: (Units=1/GPa)
#
#
# Indices 1 2 3 4 5 6 
#
# 1 0.025220 -0.009489 -0.004456 0.000000 0.000000 0.000000
# 2 -0.009489 0.029697 -0.008700 0.000000 0.000000 0.000000
# 3 -0.004456 -0.008700 0.012346 0.000000 0.000000 0.000000
# 4 0.000000 0.000000 0.000000 0.085320 0.000000 0.000000
# 5 0.000000 0.000000 0.000000 0.000000 0.742240 0.000000
# 6 0.000000 0.000000 0.000000 0.000000 0.000000 0.066043
#
#
# Mechanical properties :
#
#
# Convention : Reuss Voigt Hill
#
# Bulk Modulus (GPa) = 45.51365 56.82872 51.17118
# Shear Modulus (GPa) = 4.93349 13.92455 9.42902
#
# Velocity S-wave (km/s) = 1.89250 3.17943 2.61633
# Velocity P-wave (km/s) = 6.14955 7.39826 6.80262
#
# Compressibility (1/GPa) = 0.02197143
#
# Stress axis : x y z
#
# Youngs Moduli (GPa) = 39.65121 33.67389 80.99494
#
# Poissons Ratio (x) = 0.31954 0.36093
# Poissons Ratio (y) = 0.37626 0.70468
# Poissons Ratio (z) = 0.17669 0.29297
#
# Static dielectric constant tensor:
#      x y z
#    x 2.420250 0.000000 0.000000 
#    y 0.000000 2.756170 0.000000 
#    z 0.000000 0.000000 3.040670 
# 
# 
# High freq. dielectric constant tensor:
#      x y z
#    x 1.473250 0.000000 0.000000 
#    y 0.000000 1.515600 0.000000 
#    z 0.000000 0.000000 1.527890 
# 
# From -- ./inp_files/72070.got.cif
#   From: 2010.03.12/outbox.cif.g09.slc.cpg/sg65_37_cif.got.tgz:72070.got - 2010.04.10 20:52:16.
