data_PCOD8266516
_publ_section_title
;
Structure prediction by ZEFSAII (Michael W. Deem and Ramdas Pophale) SiO2 
 PCOD8266516
Probable space group: C M M M
;
_chemical_formula_sum "Si O2"
_cell_formula_units_Z 104
_cell_length_a 15.448413
_cell_length_b 24.555709
_cell_length_c 17.319497
_cell_angle_alpha 90.000000
_cell_angle_beta 90.000000
_cell_angle_gamma 90.000000
_cell_volume 6570.094624
_symmetry_space_group_name_H-M "C M M M"
_symmetry_group_IT_number 65
_symmetry_cell_setting 'orthorhombic'
loop_
_space_group_symop_operation_xyz
x,y,z
-x,-y,z
x,-y,-z
-x,y,-z
-x,-y,-z
x,y,-z
-x,y,z
x,-y,z
1/2+x,1/2+y,z
1/2-x,1/2-y,z
1/2+x,1/2-y,-z
1/2-x,1/2+y,-z
1/2-x,1/2-y,-z
1/2+x,1/2+y,-z
1/2-x,1/2+y,z
1/2+x,1/2-y,z
loop_
_atom_site_type_symbol
_atom_site_label
_atom_site_fract_x
_atom_site_fract_y
_atom_site_fract_z
Si Si1 0.900239 0.939859 0.176635
Si Si2 0.602688 0.336270 0.086283
Si Si3 0.500000 0.872145 0.408970
Si Si4 0.500000 0.355084 0.590766
Si Si5 0.000000 0.258391 0.679155
Si Si6 0.163744 0.891435 0.675450
Si Si7 0.660760 0.720149 0.233758
Si Si8 0.329211 0.062843 0.408879
O O1 0.867633 0.896631 0.113246
O O2 0.850102 0.935973 0.257686
O O3 0.000000 0.927575 0.195958
O O4 0.886269 0.000000 0.141727
O O5 0.500000 0.331155 0.088105
O O6 0.642507 0.291973 0.143882
O O7 0.638542 0.326133 0.000000
O O8 0.500000 0.862247 0.500000
O O9 0.500000 0.813349 0.369774
O O10 0.583290 0.906883 0.382972
O O11 0.500000 0.349333 0.500000
O O12 0.500000 0.294172 0.624333
O O13 0.583733 0.389618 0.616321
O O14 0.915589 0.257925 0.733390
O O15 0.169774 0.833643 0.716279
O O16 0.250144 0.905871 0.630135
O O17 0.750000 0.750000 0.241515
O O18 0.316318 0.066442 0.500000
O O19 0.333723 0.000000 0.381998
#
# Coordination Sequence:
#
# PCOD8266516 Si02
#       8
#    16  16   8   8   8  16  16  16
#     4   9  16  27  44  65  90 121 151 179 214 258
#     4   9  17  30  46  66  93 119 146 181 218 261
#     4  10  20  34  50  66  86 115 155 202 242 272
#     4  10  19  30  46  67  94 125 153 184 227 274
#     4  10  19  33  49  69  92 118 153 193 230 270
#     4  10  18  31  46  66  94 121 152 188 222 269
#     4  10  19  31  49  70  92 121 151 182 225 271
#     4  10  20  33  48  66  89 119 155 195 237 274
#
# _framework density 15.829300999999999
#
# number of rings (size 3 to 8) (size 9 to 14) (size 15 to 20)
#    0.000    2.308    1.538    2.308    0.000    1.538 
#    0.000    1.538    0.000    9.231    0.000    0.000 
#    0.000    0.000    0.000    0.000    0.000   42.769 
#
# Total GULP energy -644710.413077 kJ/mol
# GULP energy per Si atom -12398.277175 kJ/mol
# Density = 1.579327 g / cm^3
# Si number density = 15.829301 Si / 1000 Ang^3
#
#
#
# Elastic Constant Matrix: (Units=GPa)
#
#
# Indices 1 2 3 4 5 6 
#
# 1 111.1047 34.5792 47.5402 0.0000 0.0000 0.0000
# 2 34.5792 53.9733 23.3417 0.0000 0.0000 0.0000
# 3 47.5402 23.3417 80.6031 0.0000 0.0000 0.0000
# 4 0.0000 0.0000 0.0000 -19.7456 0.0000 0.0000
# 5 0.0000 0.0000 0.0000 0.0000 17.8025 0.0000
# 6 0.0000 0.0000 0.0000 0.0000 0.0000 22.8359
#
#
#
# Elastic Compliance Matrix: (Units=1/GPa)
#
#
# Indices 1 2 3 4 5 6 
#
# 1 0.013533 -0.005966 -0.006255 0.000000 0.000000 0.000000
# 2 -0.005966 0.023810 -0.003377 0.000000 0.000000 0.000000
# 3 -0.006255 -0.003377 0.017073 0.000000 0.000000 0.000000
# 4 0.000000 0.000000 0.000000 -0.050644 0.000000 0.000000
# 5 0.000000 0.000000 0.000000 0.000000 0.056172 0.000000
# 6 0.000000 0.000000 0.000000 0.000000 0.000000 0.043791
#
#
# Mechanical properties :
#
#
# Convention : Reuss Voigt Hill
#
# Bulk Modulus (GPa) = 43.06026 50.73369 46.89697
# Shear Modulus (GPa) = 35.04610 13.52657 24.28634
#
# Velocity S-wave (km/s) = 4.71042 2.92640 3.92122
# Velocity P-wave (km/s) = 7.53963 6.59837 7.08465
#
# Compressibility (1/GPa) = 0.02322327
#
# Stress axis : x y z
#
# Youngs Moduli (GPa) = 73.89107 41.99928 58.57124
#
# Poissons Ratio (x) = 0.25055 0.36634
# Poissons Ratio (y) = 0.44081 0.19777
# Poissons Ratio (z) = 0.46215 0.14181
#
# Static dielectric constant tensor:
#      x y z
#    x 2.825240 0.000000 0.000000 
#    y 0.000000 3.106640 0.000000 
#    z 0.000000 0.000000 3.064000 
# 
# 
# High freq. dielectric constant tensor:
#      x y z
#    x 1.599770 0.000000 0.000000 
#    y 0.000000 1.608100 0.000000 
#    z 0.000000 0.000000 1.602690 
# 
# From -- ./inp_files/53523.got.cif
#   From: 2010.03.12/outbox.cif.g09.slc.cpg/sg65_27_cif.got.tgz:53523.got - 2010.04.10 20:52:16.
