data_PCOD8266182
_publ_section_title
;
Structure prediction by ZEFSAII (Michael W. Deem and Ramdas Pophale) SiO2 
 PCOD8266182
Probable space group: C M M M
;
_chemical_formula_sum "Si O2"
_cell_formula_units_Z 104
_cell_length_a 9.188985
_cell_length_b 28.466391
_cell_length_c 28.492728
_cell_angle_alpha 90.000000
_cell_angle_beta 90.000000
_cell_angle_gamma 90.000000
_cell_volume 7453.049148
_symmetry_space_group_name_H-M "C M M M"
_symmetry_group_IT_number 65
_symmetry_cell_setting 'orthorhombic'
loop_
_space_group_symop_operation_xyz
x,y,z
-x,-y,z
x,-y,-z
-x,y,-z
-x,-y,-z
x,y,-z
-x,y,z
x,-y,z
1/2+x,1/2+y,z
1/2-x,1/2-y,z
1/2+x,1/2-y,-z
1/2-x,1/2+y,-z
1/2-x,1/2-y,-z
1/2+x,1/2+y,-z
1/2-x,1/2+y,z
1/2+x,1/2-y,z
loop_
_atom_site_type_symbol
_atom_site_label
_atom_site_fract_x
_atom_site_fract_y
_atom_site_fract_z
Si Si1 0.171319 0.945488 0.176426
Si Si2 0.163839 0.444259 0.730335
Si Si3 0.836257 0.056108 0.359549
Si Si4 0.836496 0.444152 0.551756
Si Si5 0.672805 0.052615 0.000000
Si Si6 0.828896 0.605036 0.907384
Si Si7 0.668927 0.795629 0.946636
O O1 0.244922 0.928216 0.224508
O O2 0.236846 0.913721 0.135755
O O3 0.000000 0.937137 0.180496
O O4 0.207591 0.000000 0.166212
O O5 0.159170 0.500000 0.727569
O O6 0.242406 0.424184 0.683941
O O7 0.000000 0.423894 0.733240
O O8 0.768850 0.076131 0.408010
O O9 0.000000 0.075278 0.355004
O O10 0.835072 0.000000 0.359432
O O11 0.782809 0.427594 0.500000
O O12 0.836159 0.500000 0.553889
O O13 0.000000 0.425763 0.561013
O O14 0.729005 0.078681 0.046311
O O15 0.500000 0.053261 0.000000
O O16 0.735553 0.000000 0.000000
O O17 0.795612 0.660142 0.913620
O O18 0.000000 0.595515 0.898995
O O19 0.500000 0.784152 0.945872
O O20 0.750000 0.750000 0.926300
O O21 0.719439 0.806721 0.000000
#
# Coordination Sequence:
#
# PCOD8266182 Si02
#       7
#    16  16  16  16   8  16  16
#     4  10  20  31  41  56  79 102 124 154 191 228
#     4   9  16  26  39  51  63  85 118 150 180 218
#     4   9  15  21  30  44  61  80 104 139 182 223
#     4   8  13  20  28  38  54  77 105 137 174 218
#     4   9  16  26  42  61  79 101 129 157 180 209
#     4  10  18  30  46  63  80 101 130 157 182 219
#     4   9  17  30  47  66  85 102 124 154 185 220
#
# _framework density 13.95402
#
# number of rings (size 3 to 8) (size 9 to 14) (size 15 to 20)
#    0.000    2.846    0.769    2.308    0.000    6.154 
#    0.000    1.923    0.000    1.385    0.000    0.000 
#    0.000    0.000    0.000    0.000    0.000    0.000 
#
# Total GULP energy -644624.071579 kJ/mol
# GULP energy per Si atom -12396.616761 kJ/mol
# Density = 1.392226 g / cm^3
# Si number density = 13.954020 Si / 1000 Ang^3
#
#
#
# Elastic Constant Matrix: (Units=GPa)
#
#
# Indices 1 2 3 4 5 6 
#
# 1 91.0909 29.4067 65.0224 0.0000 0.0000 0.0000
# 2 29.4067 46.2287 31.9285 0.0000 0.0000 0.0000
# 3 65.0224 31.9285 127.3766 0.0000 0.0000 0.0000
# 4 0.0000 0.0000 0.0000 1.1081 0.0000 0.0000
# 5 0.0000 0.0000 0.0000 0.0000 22.6327 0.0000
# 6 0.0000 0.0000 0.0000 0.0000 0.0000 13.8846
#
#
#
# Elastic Compliance Matrix: (Units=1/GPa)
#
#
# Indices 1 2 3 4 5 6 
#
# 1 0.018725 -0.006421 -0.007949 0.000000 0.000000 0.000000
# 2 -0.006421 0.028362 -0.003832 0.000000 0.000000 0.000000
# 3 -0.007949 -0.003832 0.012869 0.000000 0.000000 0.000000
# 4 0.000000 0.000000 0.000000 0.902424 0.000000 0.000000
# 5 0.000000 0.000000 0.000000 0.000000 0.044184 0.000000
# 6 0.000000 0.000000 0.000000 0.000000 0.000000 0.072022
#
#
# Mechanical properties :
#
#
# Convention : Reuss Voigt Hill
#
# Bulk Modulus (GPa) = 42.45761 57.49015 49.97388
# Shear Modulus (GPa) = 4.45299 16.74767 10.60033
#
# Velocity S-wave (km/s) = 1.78833 3.46815 2.75919
# Velocity P-wave (km/s) = 5.89551 7.57143 6.78541
#
# Compressibility (1/GPa) = 0.02355290
#
# Stress axis : x y z
#
# Youngs Moduli (GPa) = 53.40378 35.25783 77.70591
#
# Poissons Ratio (x) = 0.22640 0.61770
# Poissons Ratio (y) = 0.34291 0.29774
# Poissons Ratio (z) = 0.42452 0.13509
#
# Static dielectric constant tensor:
#      x y z
#    x 2.819000 0.000000 0.000000 
#    y 0.000000 2.303760 0.000000 
#    z 0.000000 0.000000 2.906890 
# 
# 
# High freq. dielectric constant tensor:
#      x y z
#    x 1.537530 0.000000 0.000000 
#    y 0.000000 1.461060 0.000000 
#    z 0.000000 0.000000 1.537100 
# 
# From -- ./inp_files/74053.got.cif
#   From: 2010.03.12/outbox.cif.g09.slc.cpg/sg65_38_cif.got.tgz:74053.got - 2010.04.10 20:52:16.
