data_PCOD8266037
_publ_section_title
;
Structure prediction by ZEFSAII (Michael W. Deem and Ramdas Pophale) SiO2 
 PCOD8266037
Probable space group: C M M M
;
_chemical_formula_sum "Si O2"
_cell_formula_units_Z 72
_cell_length_a 19.130358
_cell_length_b 27.816085
_cell_length_c 8.977887
_cell_angle_alpha 90.000000
_cell_angle_beta 90.000000
_cell_angle_gamma 90.000000
_cell_volume 4777.417950
_symmetry_space_group_name_H-M "C M M M"
_symmetry_group_IT_number 65
_symmetry_cell_setting 'orthorhombic'
loop_
_space_group_symop_operation_xyz
x,y,z
-x,-y,z
x,-y,-z
-x,y,-z
-x,-y,-z
x,y,-z
-x,y,z
x,-y,z
1/2+x,1/2+y,z
1/2-x,1/2-y,z
1/2+x,1/2-y,-z
1/2-x,1/2+y,-z
1/2-x,1/2-y,-z
1/2+x,1/2+y,-z
1/2-x,1/2+y,z
1/2+x,1/2-y,z
loop_
_atom_site_type_symbol
_atom_site_label
_atom_site_fract_x
_atom_site_fract_y
_atom_site_fract_z
Si Si1 0.000000 0.340672 0.832553
Si Si2 0.920169 0.500000 0.675792
Si Si3 0.358970 0.271201 0.176578
Si Si4 0.132068 0.407180 0.828594
Si Si5 0.277786 0.822075 0.176088
Si Si6 0.000000 0.758229 0.324854
O O1 0.933826 0.373468 0.805643
O O2 0.000000 0.297839 0.715650
O O3 0.000000 0.318860 0.000000
O O4 0.922921 0.500000 0.500000
O O5 0.876549 0.545896 0.729137
O O6 0.000000 0.500000 0.740131
O O7 0.330826 0.219313 0.233758
O O8 0.301761 0.311356 0.225611
O O9 0.431303 0.283762 0.257667
O O10 0.371073 0.271502 0.000000
O O11 0.198471 0.375429 0.771741
O O12 0.140390 0.423252 0.000000
O O13 0.283081 0.819172 0.000000
O O14 0.000000 0.765084 0.500000
#
# Coordination Sequence:
#
# PCOD8266037 Si02
#       6
#     8   8  16  16  16   8
#     4  10  18  29  47  64  83 116 155 191 228 259
#     4  11  23  33  41  61  93 124 151 184 223 259
#     4   9  16  30  48  65  86 114 148 185 223 265
#     4  10  18  31  49  66  83 112 155 194 224 259
#     4   8  15  28  49  69  83 107 149 193 227 260
#     4  12  22  28  39  65  96 123 152 182 216 263
#
# _framework density 15.070902
#
# number of rings (size 3 to 8) (size 9 to 14) (size 15 to 20)
#    0.000    2.333    3.333    2.667    0.000    1.333 
#    0.000    3.333    0.000    0.000    0.000    0.000 
#    0.000    0.889    0.000   10.222    0.000    4.000 
#
# Total GULP energy -446199.884482 kJ/mol
# GULP energy per Si atom -12394.441236 kJ/mol
# Density = 1.503660 g / cm^3
# Si number density = 15.070902 Si / 1000 Ang^3
#
#
#
# Elastic Constant Matrix: (Units=GPa)
#
#
# Indices 1 2 3 4 5 6 
#
# 1 120.8578 53.3145 39.3417 0.0000 0.0000 0.0000
# 2 53.3145 89.6492 28.5257 0.0000 0.0000 0.0000
# 3 39.3417 28.5257 53.5157 0.0000 0.0000 0.0000
# 4 0.0000 0.0000 0.0000 11.4308 0.0000 0.0000
# 5 0.0000 0.0000 0.0000 0.0000 6.9790 0.0000
# 6 0.0000 0.0000 0.0000 0.0000 0.0000 28.4062
#
#
#
# Elastic Compliance Matrix: (Units=1/GPa)
#
#
# Indices 1 2 3 4 5 6 
#
# 1 0.012840 -0.005579 -0.006465 0.000000 0.000000 0.000000
# 2 -0.005579 0.015857 -0.004351 0.000000 0.000000 0.000000
# 3 -0.006465 -0.004351 0.025758 0.000000 0.000000 0.000000
# 4 0.000000 0.000000 0.000000 0.087483 0.000000 0.000000
# 5 0.000000 0.000000 0.000000 0.000000 0.143287 0.000000
# 6 0.000000 0.000000 0.000000 0.000000 0.000000 0.035204
#
#
# Mechanical properties :
#
#
# Convention : Reuss Voigt Hill
#
# Bulk Modulus (GPa) = 46.15834 56.26516 51.21175
# Shear Modulus (GPa) = 13.87194 18.88593 16.37893
#
# Velocity S-wave (km/s) = 3.03718 3.54381 3.30023
# Velocity P-wave (km/s) = 6.55692 7.35931 6.96967
#
# Compressibility (1/GPa) = 0.02166456
#
# Stress axis : x y z
#
# Youngs Moduli (GPa) = 77.88340 63.06514 38.82224
#
# Poissons Ratio (x) = 0.35181 0.25100
# Poissons Ratio (y) = 0.43447 0.16892
# Poissons Ratio (z) = 0.50355 0.27440
#
# Static dielectric constant tensor:
#      x y z
#    x 3.251400 0.000000 0.000000 
#    y 0.000000 2.956950 0.000000 
#    z 0.000000 0.000000 2.649920 
# 
# 
# High freq. dielectric constant tensor:
#      x y z
#    x 1.572730 0.000000 0.000000 
#    y 0.000000 1.548710 0.000000 
#    z 0.000000 0.000000 1.553980 
# 
# From -- ./inp_files/12067.got.cif
#   From: 2010.03.12/outbox.cif.g09.slc.cpg/sg65_7_cif.got.tgz:12067.got - 2010.04.10 20:52:16.
