data_PCOD8266383
_publ_section_title
;
Structure prediction by ZEFSAII (Michael W. Deem and Ramdas Pophale) SiO2 
 PCOD8266383
Probable space group: C M M M
;
_chemical_formula_sum "Si O2"
_cell_formula_units_Z 120
_cell_length_a 19.057543
_cell_length_b 20.804178
_cell_length_c 17.217044
_cell_angle_alpha 90.000000
_cell_angle_beta 90.000000
_cell_angle_gamma 90.000000
_cell_volume 6826.153635
_symmetry_space_group_name_H-M "C M M M"
_symmetry_group_IT_number 65
_symmetry_cell_setting 'orthorhombic'
loop_
_space_group_symop_operation_xyz
x,y,z
-x,-y,z
x,-y,-z
-x,y,-z
-x,-y,-z
x,y,-z
-x,y,z
x,-y,z
1/2+x,1/2+y,z
1/2-x,1/2-y,z
1/2+x,1/2-y,-z
1/2-x,1/2+y,-z
1/2-x,1/2-y,-z
1/2+x,1/2+y,-z
1/2-x,1/2+y,z
1/2+x,1/2-y,z
loop_
_atom_site_type_symbol
_atom_site_label
_atom_site_fract_x
_atom_site_fract_y
_atom_site_fract_z
Si Si1 0.204800 0.307397 0.910845
Si Si2 0.081520 0.886379 0.794667
Si Si3 0.917205 0.000000 0.089301
Si Si4 0.180340 0.576310 0.410454
Si Si5 0.195156 0.070116 0.314144
Si Si6 0.581693 0.870171 0.716710
Si Si7 0.578610 0.759941 0.172478
Si Si8 0.191963 0.569602 0.819894
O O1 0.250000 0.250000 0.870682
O O2 0.123963 0.291354 0.895655
O O3 0.222909 0.377193 0.877570
O O4 0.223422 0.310561 0.000000
O O5 0.106842 0.937062 0.861256
O O6 0.127394 0.890944 0.715624
O O7 0.095020 0.815262 0.825043
O O8 0.000000 0.898110 0.773335
O O9 0.000000 0.000000 0.081694
O O10 0.886315 0.000000 0.000000
O O11 0.168439 0.592349 0.500000
O O12 0.171570 0.500000 0.392899
O O13 0.260169 0.598793 0.386961
O O14 0.121750 0.617083 0.364113
O O15 0.253303 0.065227 0.248553
O O16 0.165945 0.000000 0.336394
O O17 0.500000 0.888140 0.706546
O O18 0.591664 0.795491 0.744193
O O19 0.615459 0.913351 0.785093
O O20 0.500000 0.772246 0.145095
O O21 0.186490 0.500000 0.862066
#
# Coordination Sequence:
#
# PCOD8266383 Si02
#       8
#    16  16   8  16  16  16  16  16
#     4  10  20  33  48  66  92 125 163 206 248 294
#     4  10  18  30  50  73  96 127 168 207 245 293
#     4   9  18  30  44  70 105 129 152 201 265 311
#     4   9  18  31  49  76 105 132 157 190 245 302
#     4   9  16  29  49  69  96 128 159 197 238 291
#     4   9  17  31  50  73  99 128 163 201 239 290
#     4   9  19  33  50  70  93 127 168 203 241 295
#     4   9  18  31  48  68  92 125 162 202 249 292
#
# _framework density 17.579446999999998
#
# number of rings (size 3 to 8) (size 9 to 14) (size 15 to 20)
#    0.000    2.733    0.667    2.000    0.000    2.400 
#    0.000    2.667    0.000    2.000    0.000    7.467 
#    0.000    0.000    0.000    0.000    0.000    0.000 
#
# Total GULP energy -743356.083882 kJ/mol
# GULP energy per Si atom -12389.268065 kJ/mol
# Density = 1.753944 g / cm^3
# Si number density = 17.579447 Si / 1000 Ang^3
#
#
#
# Elastic Constant Matrix: (Units=GPa)
#
#
# Indices 1 2 3 4 5 6 
#
# 1 52.7859 19.4194 17.2602 0.0000 0.0000 0.0000
# 2 19.4194 116.1557 35.9923 0.0000 0.0000 0.0000
# 3 17.2602 35.9923 68.8366 0.0000 0.0000 0.0000
# 4 0.0000 0.0000 0.0000 16.7827 0.0000 0.0000
# 5 0.0000 0.0000 0.0000 0.0000 21.9302 0.0000
# 6 0.0000 0.0000 0.0000 0.0000 0.0000 24.1579
#
#
#
# Elastic Compliance Matrix: (Units=1/GPa)
#
#
# Indices 1 2 3 4 5 6 
#
# 1 0.021120 -0.002255 -0.004116 0.000000 0.000000 0.000000
# 2 -0.002255 0.010514 -0.004932 0.000000 0.000000 0.000000
# 3 -0.004116 -0.004932 0.018138 0.000000 0.000000 0.000000
# 4 0.000000 0.000000 0.000000 0.059585 0.000000 0.000000
# 5 0.000000 0.000000 0.000000 0.000000 0.045599 0.000000
# 6 0.000000 0.000000 0.000000 0.000000 0.000000 0.041394
#
#
# Mechanical properties :
#
#
# Convention : Reuss Voigt Hill
#
# Bulk Modulus (GPa) = 36.81228 42.56912 39.69070
# Shear Modulus (GPa) = 21.92844 23.58126 22.75485
#
# Velocity S-wave (km/s) = 3.53567 3.66650 3.60168
# Velocity P-wave (km/s) = 6.13628 6.49555 6.31847
#
# Compressibility (1/GPa) = 0.02716485
#
# Stress axis : x y z
#
# Youngs Moduli (GPa) = 47.34804 95.10689 55.13243
#
# Poissons Ratio (x) = 0.21451 0.22695
# Poissons Ratio (y) = 0.10679 0.27192
# Poissons Ratio (z) = 0.19491 0.46908
#
# Static dielectric constant tensor:
#      x y z
#    x 3.426930 0.000000 0.000000 
#    y 0.000000 3.532850 0.000000 
#    z 0.000000 0.000000 3.149320 
# 
# 
# High freq. dielectric constant tensor:
#      x y z
#    x 1.683260 0.000000 0.000000 
#    y 0.000000 1.679370 0.000000 
#    z 0.000000 0.000000 1.645340 
# 
# From -- ./inp_files/54969.got.cif
#   From: 2010.03.12/outbox.cif.g09.slc.cpg/sg65_28_cif.got.tgz:54969.got - 2010.04.10 20:52:16.
