data_PCOD8266523
_publ_section_title
;
Structure prediction by ZEFSAII (Michael W. Deem and Ramdas Pophale) SiO2 
 PCOD8266523
Probable space group: C M M M
;
_chemical_formula_sum "Si O2"
_cell_formula_units_Z 96
_cell_length_a 13.804125
_cell_length_b 27.301368
_cell_length_c 14.636696
_cell_angle_alpha 90.000000
_cell_angle_beta 90.000000
_cell_angle_gamma 90.000000
_cell_volume 5516.153526
_symmetry_space_group_name_H-M "C M M M"
_symmetry_group_IT_number 65
_symmetry_cell_setting 'orthorhombic'
loop_
_space_group_symop_operation_xyz
x,y,z
-x,-y,z
x,-y,-z
-x,y,-z
-x,-y,-z
x,y,-z
-x,y,z
x,-y,z
1/2+x,1/2+y,z
1/2-x,1/2-y,z
1/2+x,1/2-y,-z
1/2-x,1/2+y,-z
1/2-x,1/2-y,-z
1/2+x,1/2+y,-z
1/2-x,1/2+y,z
1/2+x,1/2-y,z
loop_
_atom_site_type_symbol
_atom_site_label
_atom_site_fract_x
_atom_site_fract_y
_atom_site_fract_z
Si Si1 0.358863 0.767186 0.802378
Si Si2 0.605957 0.679580 0.317342
Si Si3 0.192348 0.638126 0.695274
Si Si4 0.383202 0.839672 0.500000
Si Si5 0.114144 0.229932 0.500000
Si Si6 0.655501 0.783288 0.000000
Si Si7 0.613845 0.944428 0.184748
Si Si8 0.386436 0.890693 0.000000
O O1 0.250000 0.750000 0.809899
O O2 0.416020 0.724792 0.750475
O O3 0.366386 0.818260 0.746688
O O4 0.402736 0.772954 0.905247
O O5 0.500000 0.653245 0.328634
O O6 0.691503 0.643354 0.286569
O O7 0.648657 0.700798 0.411489
O O8 0.160638 0.634894 0.589807
O O9 0.166198 0.585898 0.736523
O O10 0.500000 0.842992 0.500000
O O11 0.341447 0.784210 0.500000
O O12 0.000000 0.235493 0.500000
O O13 0.750000 0.750000 0.000000
O O14 0.678852 0.841470 0.000000
O O15 0.500000 0.941704 0.200923
O O16 0.642251 0.922838 0.086790
O O17 0.651437 0.000000 0.189921
O O18 0.500000 0.876247 0.000000
#
# Coordination Sequence:
#
# PCOD8266523 Si02
#       8
#    16  16  16   8   8   8  16   8
#     4   9  18  29  46  69  99 140 172 206 245 298
#     4  10  20  32  48  74 106 138 176 211 245 296
#     4  11  20  33  53  73 101 138 173 209 260 307
#     4  11  21  31  49  77 106 139 176 209 248 307
#     4   9  17  29  47  70 102 139 171 207 241 281
#     4  10  18  31  47  72 109 140 168 201 243 303
#     4  10  21  37  56  77  99 126 170 225 271 310
#     4  10  19  32  54  79 102 132 170 212 257 304
#
# _framework density 17.403431000000001
#
# number of rings (size 3 to 8) (size 9 to 14) (size 15 to 20)
#    0.000    2.000    3.333    1.250    0.000    3.000 
#    0.000    0.417    0.000    2.000    0.000    0.000 
#    0.000    4.667    0.000    0.000    0.000    0.000 
#
# Total GULP energy -594912.875265 kJ/mol
# GULP energy per Si atom -12394.018235 kJ/mol
# Density = 1.736382 g / cm^3
# Si number density = 17.403431 Si / 1000 Ang^3
#
#
#
# Elastic Constant Matrix: (Units=GPa)
#
#
# Indices 1 2 3 4 5 6 
#
# 1 66.7666 31.8345 16.8328 0.0000 0.0000 0.0000
# 2 31.8345 120.0149 50.2107 0.0000 0.0000 0.0000
# 3 16.8328 50.2107 144.3760 0.0000 0.0000 0.0000
# 4 0.0000 0.0000 0.0000 15.7756 0.0000 0.0000
# 5 0.0000 0.0000 0.0000 0.0000 -51.8010 0.0000
# 6 0.0000 0.0000 0.0000 0.0000 0.0000 21.1748
#
#
#
# Elastic Compliance Matrix: (Units=1/GPa)
#
#
# Indices 1 2 3 4 5 6 
#
# 1 0.017176 -0.004351 -0.000489 0.000000 0.000000 0.000000
# 2 -0.004351 0.010853 -0.003267 0.000000 0.000000 0.000000
# 3 -0.000489 -0.003267 0.008120 0.000000 0.000000 0.000000
# 4 0.000000 0.000000 0.000000 0.063389 0.000000 0.000000
# 5 0.000000 0.000000 0.000000 0.000000 -0.019305 0.000000
# 6 0.000000 0.000000 0.000000 0.000000 0.000000 0.047226
#
#
# Mechanical properties :
#
#
# Convention : Reuss Voigt Hill
#
# Bulk Modulus (GPa) = 50.16754 58.76819 54.46786
# Shear Modulus (GPa) = 33.26263 12.51517 22.88890
#
# Velocity S-wave (km/s) = 4.37655 2.68455 3.63050
# Velocity P-wave (km/s) = 7.37751 6.59170 6.99565
#
# Compressibility (1/GPa) = 0.01993321
#
# Stress axis : x y z
#
# Youngs Moduli (GPa) = 58.22220 92.13692 123.15755
#
# Poissons Ratio (x) = 0.40091 0.06025
# Poissons Ratio (y) = 0.25334 0.40239
# Poissons Ratio (z) = 0.02849 0.30104
#
# Static dielectric constant tensor:
#      x y z
#    x 3.042830 0.000000 0.000000 
#    y 0.000000 3.009380 0.000000 
#    z 0.000000 0.000000 3.706270 
# 
# 
# High freq. dielectric constant tensor:
#      x y z
#    x 1.661560 0.000000 0.000000 
#    y 0.000000 1.630380 0.000000 
#    z 0.000000 0.000000 1.692930 
# 
# From -- ./inp_files/40750.got.cif
#   From: 2010.03.12/outbox.cif.g09.slc.cpg/sg65_21_cif.got.tgz:40750.got - 2010.04.10 20:52:16.
