data_PCOD8266365
_publ_section_title
;
Structure prediction by ZEFSAII (Michael W. Deem and Ramdas Pophale) SiO2 
 PCOD8266365
Probable space group: C M M M
;
_chemical_formula_sum "Si O2"
_cell_formula_units_Z 80
_cell_length_a 17.098145
_cell_length_b 17.688334
_cell_length_c 16.263315
_cell_angle_alpha 90.000000
_cell_angle_beta 90.000000
_cell_angle_gamma 90.000000
_cell_volume 4918.639576
_symmetry_space_group_name_H-M "C M M M"
_symmetry_group_IT_number 65
_symmetry_cell_setting 'orthorhombic'
loop_
_space_group_symop_operation_xyz
x,y,z
-x,-y,z
x,-y,-z
-x,y,-z
-x,-y,-z
x,y,-z
-x,y,z
x,-y,z
1/2+x,1/2+y,z
1/2-x,1/2-y,z
1/2+x,1/2-y,-z
1/2-x,1/2+y,-z
1/2-x,1/2-y,-z
1/2+x,1/2+y,-z
1/2-x,1/2+y,z
1/2+x,1/2-y,z
loop_
_atom_site_type_symbol
_atom_site_label
_atom_site_fract_x
_atom_site_fract_y
_atom_site_fract_z
Si Si1 0.816345 0.190056 0.284393
Si Si2 0.712067 0.582185 0.000000
Si Si3 0.214125 0.414412 0.825719
Si Si4 0.591053 0.795107 0.830241
Si Si5 0.156876 0.763318 0.000000
Si Si6 0.089643 0.913854 0.403409
O O1 0.750000 0.250000 0.313646
O O2 0.782243 0.128526 0.222212
O O3 0.885155 0.232646 0.236370
O O4 0.852684 0.146347 0.361564
O O5 0.768685 0.590620 0.922222
O O6 0.670250 0.500000 0.000000
O O7 0.644648 0.645693 0.000000
O O8 0.209191 0.500000 0.793742
O O9 0.131500 0.374597 0.808195
O O10 0.500000 0.808837 0.826188
O O11 0.616548 0.770366 0.920581
O O12 0.250000 0.750000 0.000000
O O13 0.100361 0.903280 0.500000
O O14 0.000000 0.897391 0.377796
O O15 0.111520 0.000000 0.378047
#
# Coordination Sequence:
#
# PCOD8266365 Si02
#       6
#    16   8  16  16   8  16
#     4  10  19  32  50  72  96 125 161 193 228 280
#     4  10  18  30  50  66  87 121 160 200 233 268
#     4  10  19  32  50  69  92 126 163 199 234 274
#     4  11  21  31  47  71  97 126 157 196 243 282
#     4  12  17  34  49  64  93 123 164 199 233 280
#     4   9  18  33  52  73  98 125 151 188 239 285
#
# _framework density 16.264659999999999
#
# number of rings (size 3 to 8) (size 9 to 14) (size 15 to 20)
#    0.000    1.800    4.000    2.700    0.000    0.800 
#    0.000    0.000    0.000    5.400    0.000    0.000 
#    0.000    0.000    0.000   37.200    0.000    0.000 
#
# Total GULP energy -495932.746097 kJ/mol
# GULP energy per Si atom -12398.318652 kJ/mol
# Density = 1.622764 g / cm^3
# Si number density = 16.264660 Si / 1000 Ang^3
#
#
#
# Elastic Constant Matrix: (Units=GPa)
#
#
# Indices 1 2 3 4 5 6 
#
# 1 79.2962 37.5823 28.0185 0.0000 0.0000 0.0000
# 2 37.5823 121.9522 33.1535 0.0000 0.0000 0.0000
# 3 28.0185 33.1535 64.2701 0.0000 0.0000 0.0000
# 4 0.0000 0.0000 0.0000 27.3895 0.0000 0.0000
# 5 0.0000 0.0000 0.0000 0.0000 23.1150 0.0000
# 6 0.0000 0.0000 0.0000 0.0000 0.0000 20.2951
#
#
#
# Elastic Compliance Matrix: (Units=1/GPa)
#
#
# Indices 1 2 3 4 5 6 
#
# 1 0.016134 -0.003559 -0.005198 0.000000 0.000000 0.000000
# 2 -0.003559 0.010323 -0.003773 0.000000 0.000000 0.000000
# 3 -0.005198 -0.003773 0.019772 0.000000 0.000000 0.000000
# 4 0.000000 0.000000 0.000000 0.036510 0.000000 0.000000
# 5 0.000000 0.000000 0.000000 0.000000 0.043262 0.000000
# 6 0.000000 0.000000 0.000000 0.000000 0.000000 0.049273
#
#
# Mechanical properties :
#
#
# Convention : Reuss Voigt Hill
#
# Bulk Modulus (GPa) = 47.24049 51.44748 49.34399
# Shear Modulus (GPa) = 24.10910 25.27751 24.69331
#
# Velocity S-wave (km/s) = 3.85424 3.94653 3.90066
# Velocity P-wave (km/s) = 6.99391 7.24341 7.11975
#
# Compressibility (1/GPa) = 0.02116828
#
# Stress axis : x y z
#
# Youngs Moduli (GPa) = 61.97947 96.87542 50.57726
#
# Poissons Ratio (x) = 0.34479 0.26289
# Poissons Ratio (y) = 0.22059 0.19084
# Poissons Ratio (z) = 0.32216 0.36554
#
# Static dielectric constant tensor:
#      x y z
#    x 2.928080 0.000000 0.000000 
#    y 0.000000 3.439580 0.000000 
#    z 0.000000 0.000000 3.093830 
# 
# 
# High freq. dielectric constant tensor:
#      x y z
#    x 1.609190 0.000000 0.000000 
#    y 0.000000 1.642030 0.000000 
#    z 0.000000 0.000000 1.613150 
# 
# From -- ./inp_files/42374.got.cif
#   From: 2010.03.12/outbox.cif.g09.slc.cpg/sg65_22_cif.got.tgz:42374.got - 2010.04.10 20:52:16.
