data_PCOD8266149
_publ_section_title
;
Structure prediction by ZEFSAII (Michael W. Deem and Ramdas Pophale) SiO2 
 PCOD8266149
Probable space group: C M M M
;
_chemical_formula_sum "Si O2"
_cell_formula_units_Z 88
_cell_length_a 7.973792
_cell_length_b 23.981523
_cell_length_c 24.600821
_cell_angle_alpha 90.000000
_cell_angle_beta 90.000000
_cell_angle_gamma 90.000000
_cell_volume 4704.259430
_symmetry_space_group_name_H-M "C M M M"
_symmetry_group_IT_number 65
_symmetry_cell_setting 'orthorhombic'
loop_
_space_group_symop_operation_xyz
x,y,z
-x,-y,z
x,-y,-z
-x,y,-z
-x,-y,-z
x,y,-z
-x,y,z
x,-y,z
1/2+x,1/2+y,z
1/2-x,1/2-y,z
1/2+x,1/2-y,-z
1/2-x,1/2+y,-z
1/2-x,1/2-y,-z
1/2+x,1/2+y,-z
1/2-x,1/2+y,z
1/2+x,1/2-y,z
loop_
_atom_site_type_symbol
_atom_site_label
_atom_site_fract_x
_atom_site_fract_y
_atom_site_fract_z
Si Si1 0.690985 0.188111 0.837400
Si Si2 0.308707 0.435064 0.364958
Si Si3 0.000000 0.434420 0.439862
Si Si4 0.298596 0.110793 0.255825
Si Si5 0.312397 0.000000 0.205243
Si Si6 0.193802 0.877912 0.940583
Si Si7 0.808991 0.000000 0.909514
O O1 0.500000 0.190731 0.822322
O O2 0.750000 0.250000 0.849312
O O3 0.772864 0.160793 0.782795
O O4 0.709052 0.151146 0.891539
O O5 0.500000 0.428560 0.387055
O O6 0.276065 0.500000 0.347517
O O7 0.282674 0.391369 0.315517
O O8 0.171982 0.416299 0.409718
O O9 0.000000 0.500000 0.445688
O O10 0.000000 0.406933 0.500000
O O11 0.500000 0.112050 0.260404
O O12 0.225240 0.055636 0.226837
O O13 0.316073 0.000000 0.140653
O O14 0.500000 0.000000 0.227923
O O15 0.226617 0.944305 0.943773
O O16 0.000000 0.864496 0.930699
O O17 0.250618 0.854512 0.000000
O O18 0.000000 0.000000 0.887893
#
# Coordination Sequence:
#
# PCOD8266149 Si02
#       7
#    16  16   8  16   8  16   8
#     4  11  24  40  57  76 101 137 176 222 277 331
#     4  10  19  29  49  79 109 148 193 227 268 324
#     4   9  18  32  48  70 114 162 193 229 267 304
#     4  10  19  33  53  75 106 140 172 218 277 331
#     4  10  18  29  51  77 104 133 165 208 268 331
#     4  10  21  37  56  77 103 135 172 216 267 328
#     4  10  19  32  52  80 108 130 165 211 269 326
#
# _framework density 18.706451000000001
#
# number of rings (size 3 to 8) (size 9 to 14) (size 15 to 20)
#    0.000    1.909    3.636    0.818    0.000    4.364 
#    0.000    1.818    0.000    1.636    0.000    0.000 
#    0.000    0.727    0.364    0.000    0.000    0.000 
#
# Total GULP energy -545135.548291 kJ/mol
# GULP energy per Si atom -12389.444279 kJ/mol
# Density = 1.866387 g / cm^3
# Si number density = 18.706451 Si / 1000 Ang^3
#
#
#
# Elastic Constant Matrix: (Units=GPa)
#
#
# Indices 1 2 3 4 5 6 
#
# 1 72.0603 21.3545 38.9711 0.0000 0.0000 0.0000
# 2 21.3545 83.4896 34.1048 0.0000 0.0000 0.0000
# 3 38.9711 34.1048 132.0721 0.0000 0.0000 0.0000
# 4 0.0000 0.0000 0.0000 8.1942 0.0000 0.0000
# 5 0.0000 0.0000 0.0000 0.0000 19.6518 0.0000
# 6 0.0000 0.0000 0.0000 0.0000 0.0000 10.3608
#
#
#
# Elastic Compliance Matrix: (Units=1/GPa)
#
#
# Indices 1 2 3 4 5 6 
#
# 1 0.016991 -0.002569 -0.004350 0.000000 0.000000 0.000000
# 2 -0.002569 0.013778 -0.002800 0.000000 0.000000 0.000000
# 3 -0.004350 -0.002800 0.009578 0.000000 0.000000 0.000000
# 4 0.000000 0.000000 0.000000 0.122037 0.000000 0.000000
# 5 0.000000 0.000000 0.000000 0.000000 0.050886 0.000000
# 6 0.000000 0.000000 0.000000 0.000000 0.000000 0.096518
#
#
# Mechanical properties :
#
#
# Convention : Reuss Voigt Hill
#
# Bulk Modulus (GPa) = 47.82485 52.94254 50.38369
# Shear Modulus (GPa) = 14.87223 20.52080 17.69651
#
# Velocity S-wave (km/s) = 2.82269 3.31568 3.07907
# Velocity P-wave (km/s) = 6.02037 6.55908 6.29549
#
# Compressibility (1/GPa) = 0.02090963
#
# Stress axis : x y z
#
# Youngs Moduli (GPa) = 58.85385 72.57769 104.40240
#
# Poissons Ratio (x) = 0.18644 0.45419
# Poissons Ratio (y) = 0.15119 0.29232
# Poissons Ratio (z) = 0.25603 0.20321
#
# Static dielectric constant tensor:
#      x y z
#    x 3.372750 0.000000 0.000000 
#    y 0.000000 2.897940 0.000000 
#    z 0.000000 0.000000 3.475650 
# 
# 
# High freq. dielectric constant tensor:
#      x y z
#    x 1.721880 0.000000 0.000000 
#    y 0.000000 1.685920 0.000000 
#    z 0.000000 0.000000 1.718610 
# 
# From -- ./inp_files/67687.got.cif
#   From: 2010.03.12/outbox.cif.g09.slc.cpg/sg65_34_cif.got.tgz:67687.got - 2010.04.10 20:52:16.
