data_PCOD8266263
_publ_section_title
;
Structure prediction by ZEFSAII (Michael W. Deem and Ramdas Pophale) SiO2 
 PCOD8266263
Probable space group: C M M M
;
_chemical_formula_sum "Si O2"
_cell_formula_units_Z 72
_cell_length_a 19.487974
_cell_length_b 22.699161
_cell_length_c 8.851265
_cell_angle_alpha 90.000000
_cell_angle_beta 90.000000
_cell_angle_gamma 90.000000
_cell_volume 3915.451422
_symmetry_space_group_name_H-M "C M M M"
_symmetry_group_IT_number 65
_symmetry_cell_setting 'orthorhombic'
loop_
_space_group_symop_operation_xyz
x,y,z
-x,-y,z
x,-y,-z
-x,y,-z
-x,-y,-z
x,y,-z
-x,y,z
x,-y,z
1/2+x,1/2+y,z
1/2-x,1/2-y,z
1/2+x,1/2-y,-z
1/2-x,1/2+y,-z
1/2-x,1/2-y,-z
1/2+x,1/2+y,-z
1/2-x,1/2+y,z
1/2+x,1/2-y,z
loop_
_atom_site_type_symbol
_atom_site_label
_atom_site_fract_x
_atom_site_fract_y
_atom_site_fract_z
Si Si1 0.576560 0.217965 0.320570
Si Si2 0.919106 0.500000 0.172762
Si Si3 0.842237 0.393435 0.679519
Si Si4 0.923175 0.848983 0.679852
Si Si5 0.805724 0.933484 0.320032
O O1 0.576365 0.218027 0.500000
O O2 0.500000 0.201808 0.262211
O O3 0.631370 0.170144 0.260804
O O4 0.596897 0.283346 0.262707
O O5 0.891361 0.557557 0.253835
O O6 0.000000 0.500000 0.188420
O O7 0.894821 0.500000 0.000000
O O8 0.846498 0.397862 0.500000
O O9 0.764572 0.403239 0.736053
O O10 0.920632 0.850407 0.500000
O O11 0.869224 0.895957 0.746998
O O12 0.000000 0.865496 0.735207
O O13 0.808138 0.934416 0.500000
O O14 0.810155 0.000000 0.256574
#
# Coordination Sequence:
#
# PCOD8266263 Si02
#       5
#    16   8  16  16  16
#     4   8  14  24  39  61  87 117 154 189 224 270
#     4  11  23  35  47  67  94 123 156 188 221 269
#     4  10  18  30  48  68  93 122 152 190 230 268
#     4   8  14  24  37  58  92 126 152 186 232 275
#     4   9  16  25  38  60  91 123 157 190 223 271
#
# _framework density 18.388684000000001
#
# number of rings (size 3 to 8) (size 9 to 14) (size 15 to 20)
#    0.000    3.000    1.111    2.333    0.000    3.111 
#    0.000    6.667    0.000    0.000    0.000    3.111 
#    0.000    3.556    0.000    0.000    0.000    0.000 
#
# Total GULP energy -446185.293373 kJ/mol
# GULP energy per Si atom -12394.035927 kJ/mol
# Density = 1.834683 g / cm^3
# Si number density = 18.388684 Si / 1000 Ang^3
#
#
#
# Elastic Constant Matrix: (Units=GPa)
#
#
# Indices 1 2 3 4 5 6 
#
# 1 146.4574 113.8598 10.4374 0.0000 0.0000 0.0000
# 2 113.8598 172.2126 8.7143 0.0000 0.0000 0.0000
# 3 10.4374 8.7143 8.4803 0.0000 0.0000 0.0000
# 4 0.0000 0.0000 0.0000 -1.0508 0.0000 0.0000
# 5 0.0000 0.0000 0.0000 0.0000 5.9104 0.0000
# 6 0.0000 0.0000 0.0000 0.0000 0.0000 43.7615
#
#
#
# Elastic Compliance Matrix: (Units=1/GPa)
#
#
# Indices 1 2 3 4 5 6 
#
# 1 0.014607 -0.009228 -0.008496 0.000000 0.000000 0.000000
# 2 -0.009228 0.011955 -0.000927 0.000000 0.000000 0.000000
# 3 -0.008496 -0.000927 0.129330 0.000000 0.000000 0.000000
# 4 0.000000 0.000000 0.000000 -0.951654 0.000000 0.000000
# 5 0.000000 0.000000 0.000000 0.000000 0.169193 0.000000
# 6 0.000000 0.000000 0.000000 0.000000 0.000000 0.022851
#
#
# Mechanical properties :
#
#
# Convention : Reuss Voigt Hill
#
# Bulk Modulus (GPa) = 8.43244 65.90816 37.17030
# Shear Modulus (GPa) = -9.48971 22.66680 6.58854
#
# Velocity S-wave (km/s) = -2.27417 3.51472 1.89492
# Velocity P-wave (km/s) = 1.51662 7.23813 5.00452
#
# Compressibility (1/GPa) = 0.11858966
#
# Stress axis : x y z
#
# Youngs Moduli (GPa) = 68.45846 83.64859 7.73218
#
# Poissons Ratio (x) = 0.77190 0.06569
# Poissons Ratio (y) = 0.63173 0.00717
# Poissons Ratio (z) = 0.58163 0.07755
#
# Static dielectric constant tensor:
#      x y z
#    x 3.671220 0.000000 0.000000 
#    y 0.000000 4.533000 0.000000 
#    z 0.000000 0.000000 2.673040 
# 
# 
# High freq. dielectric constant tensor:
#      x y z
#    x 1.720980 0.000000 0.000000 
#    y 0.000000 1.726090 0.000000 
#    z 0.000000 0.000000 1.633600 
# 
# From -- ./inp_files/11216.got.cif
#   From: 2010.03.12/outbox.cif.g09.slc.cpg/sg65_6_cif.got.tgz:11216.got - 2010.04.10 20:52:16.
