data_PCOD8266732
_publ_section_title
;
Structure prediction by ZEFSAII (Michael W. Deem and Ramdas Pophale) SiO2 
 PCOD8266732
Probable space group: C M M M
;
_chemical_formula_sum "Si O2"
_cell_formula_units_Z 104
_cell_length_a 19.209272
_cell_length_b 19.116235
_cell_length_c 16.436597
_cell_angle_alpha 90.000000
_cell_angle_beta 90.000000
_cell_angle_gamma 90.000000
_cell_volume 6035.665653
_symmetry_space_group_name_H-M "C M M M"
_symmetry_group_IT_number 65
_symmetry_cell_setting 'orthorhombic'
loop_
_space_group_symop_operation_xyz
x,y,z
-x,-y,z
x,-y,-z
-x,y,-z
-x,-y,-z
x,y,-z
-x,y,z
x,-y,z
1/2+x,1/2+y,z
1/2-x,1/2-y,z
1/2+x,1/2-y,-z
1/2-x,1/2+y,-z
1/2-x,1/2-y,-z
1/2+x,1/2+y,-z
1/2-x,1/2+y,z
1/2+x,1/2-y,z
loop_
_atom_site_type_symbol
_atom_site_label
_atom_site_fract_x
_atom_site_fract_y
_atom_site_fract_z
Si Si1 0.579987 0.348818 0.596987
Si Si2 0.360043 0.078952 0.094415
Si Si3 0.420299 0.789131 0.842070
Si Si4 0.918734 0.000000 0.412468
Si Si5 0.873069 0.076190 0.000000
Si Si6 0.210348 0.920959 0.165593
Si Si7 0.076539 0.780228 0.000000
Si Si8 0.322882 0.287800 0.276193
O O1 0.589218 0.345063 0.500000
O O2 0.500000 0.328900 0.620302
O O3 0.598780 0.426928 0.632182
O O4 0.636590 0.299201 0.638952
O O5 0.417256 0.128816 0.135965
O O6 0.291067 0.089892 0.147197
O O7 0.387883 0.000000 0.101418
O O8 0.347234 0.098643 0.000000
O O9 0.500000 0.767767 0.822884
O O10 0.371309 0.768340 0.768409
O O11 0.386662 0.746800 0.918407
O O12 0.880049 0.000000 0.500000
O O13 0.000000 0.000000 0.430053
O O14 0.826820 0.086516 0.920615
O O15 0.931057 0.135929 0.000000
O O16 0.909344 0.000000 0.000000
O O17 0.184970 0.861179 0.227959
O O18 0.197070 0.000000 0.200980
O O19 0.000000 0.746150 0.000000
O O20 0.250000 0.250000 0.294282
#
# Coordination Sequence:
#
# PCOD8266732 Si02
#       8
#    16  16  16   8   8  16   8  16
#     4   9  19  37  58  80 109 138 165 206 259 314
#     4  10  19  33  53  74  98 135 184 230 271 311
#     4  11  22  35  49  72 106 138 174 218 268 318
#     4   7  12  28  56  82 100 127 162 192 239 305
#     4  10  18  32  51  68  97 143 185 216 250 302
#     4  10  20  33  50  74 104 139 177 217 259 304
#     4  10  20  32  46  65  97 139 175 217 263 304
#     4  12  23  34  54  80 104 139 176 213 258 311
#
# _framework density 17.230907999999999
#
# number of rings (size 3 to 8) (size 9 to 14) (size 15 to 20)
#    0.000    1.923    4.615    1.385    1.077    0.769 
#    0.000    3.077    0.000    0.000    0.000    0.000 
#    0.000    0.000    0.000    5.231    0.000    0.000 
#
# Total GULP energy -644217.728946 kJ/mol
# GULP energy per Si atom -12388.802480 kJ/mol
# Density = 1.719169 g / cm^3
# Si number density = 17.230908 Si / 1000 Ang^3
#
#
#
# Elastic Constant Matrix: (Units=GPa)
#
#
# Indices 1 2 3 4 5 6 
#
# 1 82.6102 41.0382 39.2919 0.0000 0.0000 0.0000
# 2 41.0382 108.7973 40.6783 0.0000 0.0000 0.0000
# 3 39.2919 40.6783 68.6628 0.0000 0.0000 0.0000
# 4 0.0000 0.0000 0.0000 95.3294 0.0000 0.0000
# 5 0.0000 0.0000 0.0000 0.0000 19.3708 0.0000
# 6 0.0000 0.0000 0.0000 0.0000 0.0000 25.8337
#
#
#
# Elastic Compliance Matrix: (Units=1/GPa)
#
#
# Indices 1 2 3 4 5 6 
#
# 1 0.017730 -0.003718 -0.007943 0.000000 0.000000 0.000000
# 2 -0.003718 0.012586 -0.005329 0.000000 0.000000 0.000000
# 3 -0.007943 -0.005329 0.022267 0.000000 0.000000 0.000000
# 4 0.000000 0.000000 0.000000 0.010490 0.000000 0.000000
# 5 0.000000 0.000000 0.000000 0.000000 0.051624 0.000000
# 6 0.000000 0.000000 0.000000 0.000000 0.000000 0.038709
#
#
# Mechanical properties :
#
#
# Convention : Reuss Voigt Hill
#
# Bulk Modulus (GPa) = 53.75635 55.78746 54.77190
# Shear Modulus (GPa) = 25.82815 37.37756 31.60286
#
# Velocity S-wave (km/s) = 3.87582 4.66254 4.28726
# Velocity P-wave (km/s) = 7.16203 7.83788 7.50756
#
# Compressibility (1/GPa) = 0.01860245
#
# Stress axis : x y z
#
# Youngs Moduli (GPa) = 56.40155 79.45194 44.91042
#
# Poissons Ratio (x) = 0.29539 0.35674
# Poissons Ratio (y) = 0.20969 0.23933
# Poissons Ratio (z) = 0.44802 0.42340
#
# Static dielectric constant tensor:
#      x y z
#    x 2.988360 0.000000 0.000000 
#    y 0.000000 3.465560 0.000000 
#    z 0.000000 0.000000 2.950560 
# 
# 
# High freq. dielectric constant tensor:
#      x y z
#    x 1.649750 0.000000 0.000000 
#    y 0.000000 1.674240 0.000000 
#    z 0.000000 0.000000 1.638640 
# 
# From -- ./inp_files/44667.got.cif
#   From: 2010.03.12/outbox.cif.g09.slc.cpg/sg65_23_cif.got.tgz:44667.got - 2010.04.10 20:52:16.
