data_PCOD8266758
_publ_section_title
;
Structure prediction by ZEFSAII (Michael W. Deem and Ramdas Pophale) SiO2 
 PCOD8266758
Probable space group: C M M M
;
_chemical_formula_sum "Si O2"
_cell_formula_units_Z 80
_cell_length_a 20.176195
_cell_length_b 24.754317
_cell_length_c 9.114065
_cell_angle_alpha 90.000000
_cell_angle_beta 90.000000
_cell_angle_gamma 90.000000
_cell_volume 4552.000870
_symmetry_space_group_name_H-M "C M M M"
_symmetry_group_IT_number 65
_symmetry_cell_setting 'orthorhombic'
loop_
_space_group_symop_operation_xyz
x,y,z
-x,-y,z
x,-y,-z
-x,y,-z
-x,-y,-z
x,y,-z
-x,y,z
x,-y,z
1/2+x,1/2+y,z
1/2-x,1/2-y,z
1/2+x,1/2-y,-z
1/2-x,1/2+y,-z
1/2-x,1/2-y,-z
1/2+x,1/2+y,-z
1/2-x,1/2+y,z
1/2+x,1/2-y,z
loop_
_atom_site_type_symbol
_atom_site_label
_atom_site_fract_x
_atom_site_fract_y
_atom_site_fract_z
Si Si1 0.228140 0.396215 0.667749
Si Si2 0.075059 0.211396 0.167874
Si Si3 0.317696 0.221450 0.329520
Si Si4 0.618461 0.500000 0.832833
Si Si5 0.118750 0.893169 0.672663
Si Si6 0.276236 0.000000 0.164390
O O1 0.224059 0.414243 0.500000
O O2 0.186193 0.342515 0.698705
O O3 0.304078 0.384164 0.709710
O O4 0.196953 0.445534 0.759548
O O5 0.121664 0.257523 0.233907
O O6 0.079413 0.156762 0.260775
O O7 0.000000 0.232943 0.177279
O O8 0.095817 0.199787 0.000000
O O9 0.330557 0.235163 0.500000
O O10 0.250000 0.250000 0.277961
O O11 0.591297 0.447375 0.749102
O O12 0.697406 0.500000 0.825896
O O13 0.592637 0.500000 0.000000
O O14 0.105338 0.896946 0.500000
O O15 0.303128 0.000000 0.000000
#
# Coordination Sequence:
#
# PCOD8266758 Si02
#       6
#    16  16  16   8  16   8
#     4   9  17  30  50  75 104 133 165 211 259 302
#     4  11  24  38  51  73 106 141 175 215 264 314
#     4  10  19  35  56  80 104 132 175 220 260 309
#     4   9  17  29  46  72 103 134 170 215 262 307
#     4  10  18  32  52  73  99 135 177 218 259 305
#     4   9  17  27  43  72 107 136 167 202 246 308
#
# _framework density 17.574687999999998
#
# number of rings (size 3 to 8) (size 9 to 14) (size 15 to 20)
#    0.000    2.200    2.000    1.800    0.000    6.000 
#    0.000    0.500    0.000    3.000    0.000    0.700 
#    0.000    5.600    0.000    0.000    0.000    0.000 
#
# Total GULP energy -496082.735907 kJ/mol
# GULP energy per Si atom -12402.068398 kJ/mol
# Density = 1.753469 g / cm^3
# Si number density = 17.574688 Si / 1000 Ang^3
#
#
#
# Elastic Constant Matrix: (Units=GPa)
#
#
# Indices 1 2 3 4 5 6 
#
# 1 60.0029 39.1541 41.2944 0.0000 0.0000 0.0000
# 2 39.1541 107.0297 57.9664 0.0000 0.0000 0.0000
# 3 41.2944 57.9664 113.4390 0.0000 0.0000 0.0000
# 4 0.0000 0.0000 0.0000 30.2574 0.0000 0.0000
# 5 0.0000 0.0000 0.0000 0.0000 21.0382 0.0000
# 6 0.0000 0.0000 0.0000 0.0000 0.0000 13.6036
#
#
#
# Elastic Compliance Matrix: (Units=1/GPa)
#
#
# Indices 1 2 3 4 5 6 
#
# 1 0.024534 -0.005722 -0.006007 0.000000 0.000000 0.000000
# 2 -0.005722 0.014253 -0.005200 0.000000 0.000000 0.000000
# 3 -0.006007 -0.005200 0.013659 0.000000 0.000000 0.000000
# 4 0.000000 0.000000 0.000000 0.033050 0.000000 0.000000
# 5 0.000000 0.000000 0.000000 0.000000 0.047533 0.000000
# 6 0.000000 0.000000 0.000000 0.000000 0.000000 0.073510
#
#
# Mechanical properties :
#
#
# Convention : Reuss Voigt Hill
#
# Bulk Modulus (GPa) = 53.79891 61.92237 57.86064
# Shear Modulus (GPa) = 20.27646 22.45030 21.36338
#
# Velocity S-wave (km/s) = 3.40035 3.57798 3.49029
# Velocity P-wave (km/s) = 6.78929 7.23738 7.01691
#
# Compressibility (1/GPa) = 0.01858774
#
# Stress axis : x y z
#
# Youngs Moduli (GPa) = 40.76054 70.16217 73.21019
#
# Poissons Ratio (x) = 0.40144 0.43978
# Poissons Ratio (y) = 0.23322 0.38071
# Poissons Ratio (z) = 0.24485 0.36486
#
# Static dielectric constant tensor:
#      x y z
#    x 2.852350 0.000000 0.000000 
#    y 0.000000 3.368330 0.000000 
#    z 0.000000 0.000000 3.356470 
# 
# 
# High freq. dielectric constant tensor:
#      x y z
#    x 1.629640 0.000000 0.000000 
#    y 0.000000 1.687850 0.000000 
#    z 0.000000 0.000000 1.689420 
# 
# From -- ./inp_files/11556.got.cif
#   From: 2010.03.12/outbox.cif.g09.slc.cpg/sg65_6_cif.got.tgz:11556.got - 2010.04.10 20:52:16.
