data_PCOD8266360
_publ_section_title
;
Structure prediction by ZEFSAII (Michael W. Deem and Ramdas Pophale) SiO2 
 PCOD8266360
Probable space group: C M M M
;
_chemical_formula_sum "Si O2"
_cell_formula_units_Z 64
_cell_length_a 18.978437
_cell_length_b 14.082229
_cell_length_c 13.116440
_cell_angle_alpha 90.000000
_cell_angle_beta 90.000000
_cell_angle_gamma 90.000000
_cell_volume 3505.482649
_symmetry_space_group_name_H-M "C M M M"
_symmetry_group_IT_number 65
_symmetry_cell_setting 'orthorhombic'
loop_
_space_group_symop_operation_xyz
x,y,z
-x,-y,z
x,-y,-z
-x,y,-z
-x,-y,-z
x,y,-z
-x,y,z
x,-y,z
1/2+x,1/2+y,z
1/2-x,1/2-y,z
1/2+x,1/2-y,-z
1/2-x,1/2+y,-z
1/2-x,1/2-y,-z
1/2+x,1/2+y,-z
1/2-x,1/2+y,z
1/2+x,1/2-y,z
loop_
_atom_site_type_symbol
_atom_site_label
_atom_site_fract_x
_atom_site_fract_y
_atom_site_fract_z
Si Si1 0.779239 0.854901 0.388318
Si Si2 0.421662 0.390279 0.711579
Si Si3 0.357612 0.718375 0.884106
Si Si4 0.722231 0.105284 0.821504
O O1 0.765977 0.901386 0.500000
O O2 0.750000 0.750000 0.386860
O O3 0.863440 0.853955 0.368524
O O4 0.738550 0.909535 0.298838
O O5 0.500000 0.376864 0.664906
O O6 0.406906 0.500000 0.738235
O O7 0.417825 0.329702 0.815848
O O8 0.343540 0.825014 0.841580
O O9 0.288358 0.652719 0.877836
O O10 0.383928 0.724277 0.000000
O O11 0.706640 0.000000 0.866064
#
# Coordination Sequence:
#
# PCOD8266360 Si02
#       4
#    16  16  16  16
#     4  10  18  32  54  78 106 138 174 214 258 311
#     4  10  21  36  53  77 110 142 173 212 262 318
#     4  10  19  32  48  72 105 138 174 217 263 307
#     4  10  18  30  49  75 104 135 172 215 264 311
#
# _framework density 18.257114999999999
#
# number of rings (size 3 to 8) (size 9 to 14) (size 15 to 20)
#    0.000    2.000    5.000    4.500    0.000    6.500 
#    0.000    2.500    0.000    0.750    0.000    1.750 
#    0.000    4.000    0.000    0.000    0.000    0.000 
#
# Total GULP energy -396543.753346 kJ/mol
# GULP energy per Si atom -12391.992292 kJ/mol
# Density = 1.821556 g / cm^3
# Si number density = 18.257115 Si / 1000 Ang^3
#
#
#
# Elastic Constant Matrix: (Units=GPa)
#
#
# Indices 1 2 3 4 5 6 
#
# 1 64.0603 41.7701 7.9013 0.0000 0.0000 0.0000
# 2 41.7701 135.3730 17.3906 0.0000 0.0000 0.0000
# 3 7.9013 17.3906 100.7109 0.0000 0.0000 0.0000
# 4 0.0000 0.0000 0.0000 -2.6035 0.0000 0.0000
# 5 0.0000 0.0000 0.0000 0.0000 14.5939 0.0000
# 6 0.0000 0.0000 0.0000 0.0000 0.0000 23.5022
#
#
#
# Elastic Compliance Matrix: (Units=1/GPa)
#
#
# Indices 1 2 3 4 5 6 
#
# 1 0.019567 -0.005973 -0.000504 0.000000 0.000000 0.000000
# 2 -0.005973 0.009378 -0.001151 0.000000 0.000000 0.000000
# 3 -0.000504 -0.001151 0.010168 0.000000 0.000000 0.000000
# 4 0.000000 0.000000 0.000000 -0.384091 0.000000 0.000000
# 5 0.000000 0.000000 0.000000 0.000000 0.068522 0.000000
# 6 0.000000 0.000000 0.000000 0.000000 0.000000 0.042549
#
#
# Mechanical properties :
#
#
# Convention : Reuss Voigt Hill
#
# Bulk Modulus (GPa) = 41.91501 48.25201 45.08351
# Shear Modulus (GPa) = -23.73030 22.63733 -0.54649
#
# Velocity S-wave (km/s) = -3.60916 3.52507 -0.54770
# Velocity P-wave (km/s) = 2.37486 6.56161 4.93430
#
# Compressibility (1/GPa) = 0.02385780
#
# Stress axis : x y z
#
# Youngs Moduli (GPa) = 51.10660 106.63530 98.35123
#
# Poissons Ratio (x) = 0.63691 0.04954
# Poissons Ratio (y) = 0.30525 0.11318
# Poissons Ratio (z) = 0.02575 0.12271
#
# Static dielectric constant tensor:
#      x y z
#    x 3.192700 0.000000 0.000000 
#    y 0.000000 3.439530 0.000000 
#    z 0.000000 0.000000 3.697830 
# 
# 
# High freq. dielectric constant tensor:
#      x y z
#    x 1.663770 0.000000 0.000000 
#    y 0.000000 1.713620 0.000000 
#    z 0.000000 0.000000 1.709840 
# 
# From -- ./inp_files/42044.got.cif
#   From: 2010.03.12/outbox.cif.g09.slc.cpg/sg65_22_cif.got.tgz:42044.got - 2010.04.10 20:52:16.
