data_PCOD8266164
_publ_section_title
;
Structure prediction by ZEFSAII (Michael W. Deem and Ramdas Pophale) SiO2 
 PCOD8266164
Probable space group: C M M M
;
_chemical_formula_sum "Si O2"
_cell_formula_units_Z 88
_cell_length_a 10.897835
_cell_length_b 30.636174
_cell_length_c 16.637943
_cell_angle_alpha 90.000000
_cell_angle_beta 90.000000
_cell_angle_gamma 90.000000
_cell_volume 5554.876242
_symmetry_space_group_name_H-M "C M M M"
_symmetry_group_IT_number 65
_symmetry_cell_setting 'orthorhombic'
loop_
_space_group_symop_operation_xyz
x,y,z
-x,-y,z
x,-y,-z
-x,y,-z
-x,-y,-z
x,y,-z
-x,y,z
x,-y,z
1/2+x,1/2+y,z
1/2-x,1/2-y,z
1/2+x,1/2-y,-z
1/2-x,1/2+y,-z
1/2-x,1/2-y,-z
1/2+x,1/2+y,-z
1/2-x,1/2+y,z
1/2+x,1/2-y,z
loop_
_atom_site_type_symbol
_atom_site_label
_atom_site_fract_x
_atom_site_fract_y
_atom_site_fract_z
Si Si1 0.638670 0.219910 0.404156
Si Si2 0.500000 0.552271 0.751349
Si Si3 0.139902 0.552420 0.000000
Si Si4 0.139126 0.548467 0.679424
Si Si5 0.000000 0.894237 0.589732
Si Si6 0.762306 0.629650 0.409414
Si Si7 0.759673 0.950349 0.839756
O O1 0.645474 0.220409 0.500000
O O2 0.500000 0.233766 0.375897
O O3 0.750000 0.250000 0.369816
O O4 0.665434 0.170816 0.371866
O O5 0.500000 0.500000 0.744129
O O6 0.500000 0.569938 0.660325
O O7 0.617510 0.570522 0.800869
O O8 0.212341 0.571655 0.077688
O O9 0.137265 0.500000 0.000000
O O10 0.000000 0.569899 0.000000
O O11 0.187133 0.500000 0.654674
O O12 0.218771 0.584563 0.636322
O O13 0.149990 0.553611 0.775405
O O14 0.000000 0.554596 0.653025
O O15 0.883470 0.861810 0.595814
O O16 0.000000 0.916797 0.500000
O O17 0.808251 0.622890 0.500000
O O18 0.791591 0.000000 0.860468
#
# Coordination Sequence:
#
# PCOD8266164 Si02
#       7
#    16   8   8  16   8  16  16
#     4   9  18  31  48  68  89 113 144 187 237 286
#     4  10  18  30  44  60  85 115 154 198 236 271
#     4   9  16  27  43  61  81 106 140 183 230 283
#     4  10  19  30  44  61  85 119 156 192 232 275
#     4  10  20  31  45  63  84 120 159 193 229 275
#     4  10  20  32  46  64  88 116 154 196 236 275
#     4   9  17  28  42  60  82 109 145 187 230 274
#
# _framework density 15.841937
#
# number of rings (size 3 to 8) (size 9 to 14) (size 15 to 20)
#    0.000    2.455    1.818    1.091    1.273    4.182 
#    0.000    4.545    0.000    0.000    0.000    0.000 
#    0.000    0.000    0.000    0.818    0.000    6.273 
#
# Total GULP energy -545129.298127 kJ/mol
# GULP energy per Si atom -12389.302230 kJ/mol
# Density = 1.580588 g / cm^3
# Si number density = 15.841937 Si / 1000 Ang^3
#
#
#
# Elastic Constant Matrix: (Units=GPa)
#
#
# Indices 1 2 3 4 5 6 
#
# 1 112.4685 34.1729 34.9160 0.0000 0.0000 0.0000
# 2 34.1729 59.8220 21.3078 0.0000 0.0000 0.0000
# 3 34.9160 21.3078 72.9763 0.0000 0.0000 0.0000
# 4 0.0000 0.0000 0.0000 -0.5187 0.0000 0.0000
# 5 0.0000 0.0000 0.0000 0.0000 22.1001 0.0000
# 6 0.0000 0.0000 0.0000 0.0000 0.0000 19.6183
#
#
#
# Elastic Compliance Matrix: (Units=1/GPa)
#
#
# Indices 1 2 3 4 5 6 
#
# 1 0.011760 -0.005261 -0.004090 0.000000 0.000000 0.000000
# 2 -0.005261 0.021010 -0.003618 0.000000 0.000000 0.000000
# 3 -0.004090 -0.003618 0.016716 0.000000 0.000000 0.000000
# 4 0.000000 0.000000 0.000000 -1.927835 0.000000 0.000000
# 5 0.000000 0.000000 0.000000 0.000000 0.045249 0.000000
# 6 0.000000 0.000000 0.000000 0.000000 0.000000 0.050973
#
#
# Mechanical properties :
#
#
# Convention : Reuss Voigt Hill
#
# Bulk Modulus (GPa) = 42.46520 47.34001 44.90261
# Shear Modulus (GPa) = -2.85986 18.56460 7.85237
#
# Velocity S-wave (km/s) = -1.34505 3.42696 2.22878
# Velocity P-wave (km/s) = 4.94485 6.75325 5.91853
#
# Compressibility (1/GPa) = 0.02354870
#
# Stress axis : x y z
#
# Youngs Moduli (GPa) = 85.03621 47.59667 59.82128
#
# Poissons Ratio (x) = 0.25039 0.24470
# Poissons Ratio (y) = 0.44735 0.21640
# Poissons Ratio (z) = 0.34784 0.17218
#
# Static dielectric constant tensor:
#      x y z
#    x 3.344890 0.000000 0.000000 
#    y 0.000000 2.693500 0.000000 
#    z 0.000000 0.000000 2.893210 
# 
# 
# High freq. dielectric constant tensor:
#      x y z
#    x 1.633310 0.000000 0.000000 
#    y 0.000000 1.557060 0.000000 
#    z 0.000000 0.000000 1.575700 
# 
# From -- ./inp_files/38700.got.cif
#   From: 2010.03.12/outbox.cif.g09.slc.cpg/sg65_20_cif.got.tgz:38700.got - 2010.04.10 20:52:16.
