data_PCOD8266749
_publ_section_title
;
Structure prediction by ZEFSAII (Michael W. Deem and Ramdas Pophale) SiO2 
 PCOD8266749
Probable space group: C M M M
;
_chemical_formula_sum "Si O2"
_cell_formula_units_Z 88
_cell_length_a 28.401765
_cell_length_b 8.732502
_cell_length_c 20.919761
_cell_angle_alpha 90.000000
_cell_angle_beta 90.000000
_cell_angle_gamma 90.000000
_cell_volume 5188.487109
_symmetry_space_group_name_H-M "C M M M"
_symmetry_group_IT_number 65
_symmetry_cell_setting 'orthorhombic'
loop_
_space_group_symop_operation_xyz
x,y,z
-x,-y,z
x,-y,-z
-x,y,-z
-x,-y,-z
x,y,-z
-x,y,z
x,-y,z
1/2+x,1/2+y,z
1/2-x,1/2-y,z
1/2+x,1/2-y,-z
1/2-x,1/2+y,-z
1/2-x,1/2-y,-z
1/2+x,1/2+y,-z
1/2-x,1/2+y,z
1/2+x,1/2-y,z
loop_
_atom_site_type_symbol
_atom_site_label
_atom_site_fract_x
_atom_site_fract_y
_atom_site_fract_z
Si Si1 0.302095 0.682977 0.000000
Si Si2 0.552859 0.319629 0.696980
Si Si3 0.698827 0.819149 0.129411
Si Si4 0.387573 0.320108 0.183642
Si Si5 0.944127 0.673748 0.430613
Si Si6 0.444737 0.175611 0.927330
O O1 0.250000 0.750000 0.000000
O O2 0.325048 0.749547 0.935407
O O3 0.302712 0.500000 0.000000
O O4 0.500000 0.251395 0.704522
O O5 0.550726 0.500000 0.700153
O O6 0.584608 0.256603 0.754657
O O7 0.575732 0.271267 0.628902
O O8 0.750000 0.750000 0.144097
O O9 0.662346 0.769255 0.184272
O O10 0.703787 0.000000 0.123668
O O11 0.377718 0.500000 0.188121
O O12 0.417708 0.286932 0.120433
O O13 0.925433 0.734492 0.500000
O O14 0.927530 0.500000 0.421040
O O15 0.000000 0.685565 0.431056
O O16 0.500000 0.197732 0.916449
O O17 0.430087 0.000000 0.913814
O O18 0.431324 0.220818 0.000000
#
# Coordination Sequence:
#
# PCOD8266749 Si02
#       6
#     8  16  16  16  16  16
#     4  10  18  32  52  72  91 112 141 182 236 290
#     4   9  18  31  46  67  97 131 165 199 233 274
#     4  11  22  37  54  72  94 120 152 195 245 297
#     4  11  22  34  49  70  96 126 161 200 242 290
#     4   8  14  25  42  65  93 125 160 196 233 274
#     4   9  19  35  51  67  90 121 160 204 244 283
#
# _framework density 16.960628
#
# number of rings (size 3 to 8) (size 9 to 14) (size 15 to 20)
#    0.000    2.364    0.000    5.727    1.273    3.273 
#    0.000    4.545    0.000    0.000    0.000    0.000 
#    0.000    0.727    0.000    2.364    0.000    3.455 
#
# Total GULP energy -545405.679593 kJ/mol
# GULP energy per Si atom -12395.583627 kJ/mol
# Density = 1.692202 g / cm^3
# Si number density = 16.960628 Si / 1000 Ang^3
#
#
#
# Elastic Constant Matrix: (Units=GPa)
#
#
# Indices 1 2 3 4 5 6 
#
# 1 62.6246 28.1523 56.2685 0.0000 0.0000 0.0000
# 2 28.1523 79.8747 36.1009 0.0000 0.0000 0.0000
# 3 56.2685 36.1009 126.4802 0.0000 0.0000 0.0000
# 4 0.0000 0.0000 0.0000 27.9286 0.0000 0.0000
# 5 0.0000 0.0000 0.0000 0.0000 11.0857 0.0000
# 6 0.0000 0.0000 0.0000 0.0000 0.0000 23.0303
#
#
#
# Elastic Compliance Matrix: (Units=1/GPa)
#
#
# Indices 1 2 3 4 5 6 
#
# 1 0.028177 -0.004897 -0.011137 0.000000 0.000000 0.000000
# 2 -0.004897 0.015225 -0.002167 0.000000 0.000000 0.000000
# 3 -0.011137 -0.002167 0.013480 0.000000 0.000000 0.000000
# 4 0.000000 0.000000 0.000000 0.035806 0.000000 0.000000
# 5 0.000000 0.000000 0.000000 0.000000 0.090206 0.000000
# 6 0.000000 0.000000 0.000000 0.000000 0.000000 0.043421
#
#
# Mechanical properties :
#
#
# Convention : Reuss Voigt Hill
#
# Bulk Modulus (GPa) = 48.83246 56.66922 52.75084
# Shear Modulus (GPa) = 18.54984 22.30610 20.42797
#
# Velocity S-wave (km/s) = 3.31070 3.63046 3.47426
# Velocity P-wave (km/s) = 6.59306 7.14552 6.87484
#
# Compressibility (1/GPa) = 0.02047818
#
# Stress axis : x y z
#
# Youngs Moduli (GPa) = 35.49024 65.68115 74.18553
#
# Poissons Ratio (x) = 0.32166 0.82624
# Poissons Ratio (y) = 0.17380 0.16076
# Poissons Ratio (z) = 0.39527 0.14233
#
# Static dielectric constant tensor:
#      x y z
#    x 3.019520 0.000000 0.000000 
#    y 0.000000 3.110610 0.000000 
#    z 0.000000 0.000000 3.708320 
# 
# 
# High freq. dielectric constant tensor:
#      x y z
#    x 1.622430 0.000000 0.000000 
#    y 0.000000 1.655450 0.000000 
#    z 0.000000 0.000000 1.645810 
# 
# From -- ./inp_files/57989.got.cif
#   From: 2010.03.12/outbox.cif.g09.slc.cpg/sg65_29_cif.got.tgz:57989.got - 2010.04.10 20:52:16.
