data_PCOD8266583
_publ_section_title
;
Structure prediction by ZEFSAII (Michael W. Deem and Ramdas Pophale) SiO2 
 PCOD8266583
Probable space group: C M M M
;
_chemical_formula_sum "Si O2"
_cell_formula_units_Z 88
_cell_length_a 8.698938
_cell_length_b 19.244199
_cell_length_c 28.434025
_cell_angle_alpha 90.000000
_cell_angle_beta 90.000000
_cell_angle_gamma 90.000000
_cell_volume 4759.972193
_symmetry_space_group_name_H-M "C M M M"
_symmetry_group_IT_number 65
_symmetry_cell_setting 'orthorhombic'
loop_
_space_group_symop_operation_xyz
x,y,z
-x,-y,z
x,-y,-z
-x,y,-z
-x,-y,-z
x,y,-z
-x,y,z
x,-y,z
1/2+x,1/2+y,z
1/2-x,1/2-y,z
1/2+x,1/2-y,-z
1/2-x,1/2+y,-z
1/2-x,1/2-y,-z
1/2+x,1/2+y,-z
1/2-x,1/2+y,z
1/2+x,1/2-y,z
loop_
_atom_site_type_symbol
_atom_site_label
_atom_site_fract_x
_atom_site_fract_y
_atom_site_fract_z
Si Si1 0.317334 0.173049 0.223875
Si Si2 0.317365 0.326409 0.681064
Si Si3 0.673461 0.917469 0.500000
Si Si4 0.818556 0.078583 0.404615
Si Si5 0.679885 0.674579 0.870356
Si Si6 0.676147 0.919640 0.945859
O O1 0.500000 0.172452 0.225805
O O2 0.250000 0.250000 0.222455
O O3 0.249270 0.138166 0.271181
O O4 0.257269 0.137806 0.175669
O O5 0.500000 0.321914 0.684529
O O6 0.250000 0.250000 0.673081
O O7 0.260679 0.374521 0.638409
O O8 0.500000 0.890753 0.500000
O O9 0.754139 0.888698 0.547024
O O10 0.687077 0.000000 0.500000
O O11 0.000000 0.079094 0.408142
O O12 0.757403 0.000000 0.396789
O O13 0.500000 0.682801 0.861450
O O14 0.750000 0.750000 0.880622
O O15 0.709720 0.626011 0.914869
O O16 0.500000 0.901968 0.933143
O O17 0.710789 0.000000 0.935895
O O18 0.709060 0.901691 0.000000
#
# Coordination Sequence:
#
# PCOD8266583 Si02
#       6
#    16  16   8  16  16  16
#     4  10  18  31  51  73 100 133 168 206 250 300
#     4  10  19  32  51  74 100 130 164 202 246 297
#     4   9  17  29  48  73  98 125 159 201 246 291
#     4   9  18  33  52  72  96 128 164 201 242 290
#     4  11  21  34  54  79 106 135 172 216 256 298
#     4   9  19  37  58  78 104 138 172 208 255 309
#
# _framework density 18.487503
#
# number of rings (size 3 to 8) (size 9 to 14) (size 15 to 20)
#    0.000    2.273    0.000    6.818    0.000    3.636 
#    0.000    2.273    0.000    3.273    0.000    0.000 
#    0.000    0.000    0.000    0.000    0.000    0.000 
#
# Total GULP energy -545511.337805 kJ/mol
# GULP energy per Si atom -12397.984950 kJ/mol
# Density = 1.844542 g / cm^3
# Si number density = 18.487503 Si / 1000 Ang^3
#
#
#
# Elastic Constant Matrix: (Units=GPa)
#
#
# Indices 1 2 3 4 5 6 
#
# 1 100.2667 28.7325 54.5961 0.0000 0.0000 0.0000
# 2 28.7325 53.7671 58.3983 0.0000 0.0000 0.0000
# 3 54.5961 58.3983 162.4860 0.0000 0.0000 0.0000
# 4 0.0000 0.0000 0.0000 16.4215 0.0000 0.0000
# 5 0.0000 0.0000 0.0000 0.0000 32.7160 0.0000
# 6 0.0000 0.0000 0.0000 0.0000 0.0000 20.8457
#
#
#
# Elastic Compliance Matrix: (Units=1/GPa)
#
#
# Indices 1 2 3 4 5 6 
#
# 1 0.012596 -0.003501 -0.002974 0.000000 0.000000 0.000000
# 2 -0.003501 0.031481 -0.010138 0.000000 0.000000 0.000000
# 3 -0.002974 -0.010138 0.010797 0.000000 0.000000 0.000000
# 4 0.000000 0.000000 0.000000 0.060896 0.000000 0.000000
# 5 0.000000 0.000000 0.000000 0.000000 0.030566 0.000000
# 6 0.000000 0.000000 0.000000 0.000000 0.000000 0.047971
#
#
# Mechanical properties :
#
#
# Convention : Reuss Voigt Hill
#
# Bulk Modulus (GPa) = 46.19335 66.66373 56.42854
# Shear Modulus (GPa) = 21.29929 25.64951 23.47440
#
# Velocity S-wave (km/s) = 3.39793 3.72882 3.56721
# Velocity P-wave (km/s) = 6.35886 7.39431 6.89605
#
# Compressibility (1/GPa) = 0.02164814
#
# Stress axis : x y z
#
# Youngs Moduli (GPa) = 79.38996 31.76530 92.61526
#
# Poissons Ratio (x) = 0.11121 0.27545
# Poissons Ratio (y) = 0.27794 0.93894
# Poissons Ratio (z) = 0.23611 0.32204
#
# Static dielectric constant tensor:
#      x y z
#    x 3.373940 0.000000 0.000000 
#    y 0.000000 3.091090 0.000000 
#    z 0.000000 0.000000 4.033410 
# 
# 
# High freq. dielectric constant tensor:
#      x y z
#    x 1.724660 0.000000 0.000000 
#    y 0.000000 1.673780 0.000000 
#    z 0.000000 0.000000 1.739600 
# 
# From -- ./inp_files/76487.got.cif
#   From: 2010.03.12/outbox.cif.g09.slc.cpg/sg65_39_cif.got.tgz:76487.got - 2010.04.10 20:52:16.
