data_PCOD8266604
_publ_section_title
;
Structure prediction by ZEFSAII (Michael W. Deem and Ramdas Pophale) SiO2 
 PCOD8266604
Probable space group: C M M M
;
_chemical_formula_sum "Si O2"
_cell_formula_units_Z 104
_cell_length_a 21.208036
_cell_length_b 28.547857
_cell_length_c 9.013395
_cell_angle_alpha 90.000000
_cell_angle_beta 90.000000
_cell_angle_gamma 90.000000
_cell_volume 5457.105733
_symmetry_space_group_name_H-M "C M M M"
_symmetry_group_IT_number 65
_symmetry_cell_setting 'orthorhombic'
loop_
_space_group_symop_operation_xyz
x,y,z
-x,-y,z
x,-y,-z
-x,y,-z
-x,-y,-z
x,y,-z
-x,y,z
x,-y,z
1/2+x,1/2+y,z
1/2-x,1/2-y,z
1/2+x,1/2-y,-z
1/2-x,1/2+y,-z
1/2-x,1/2-y,-z
1/2+x,1/2+y,-z
1/2-x,1/2+y,z
1/2+x,1/2-y,z
loop_
_atom_site_type_symbol
_atom_site_label
_atom_site_fract_x
_atom_site_fract_y
_atom_site_fract_z
Si Si1 0.128982 0.598880 0.323829
Si Si2 0.256602 0.945112 0.164713
Si Si3 0.000000 0.553273 0.323814
Si Si4 0.329895 0.297713 0.676165
Si Si5 0.631872 0.445845 0.325693
Si Si6 0.188729 0.306214 0.324906
Si Si7 0.428452 0.635211 0.170763
O O1 0.134381 0.594302 0.500000
O O2 0.179668 0.564938 0.251692
O O3 0.060773 0.581952 0.266544
O O4 0.142681 0.652152 0.270192
O O5 0.197316 0.926208 0.258240
O O6 0.249496 0.000000 0.150224
O O7 0.257313 0.922342 0.000000
O O8 0.000000 0.500000 0.260540
O O9 0.000000 0.551169 0.500000
O O10 0.338666 0.302960 0.500000
O O11 0.260634 0.315565 0.728318
O O12 0.337306 0.243753 0.730428
O O13 0.383625 0.326448 0.756961
O O14 0.634515 0.437384 0.500000
O O15 0.618881 0.500000 0.287011
O O16 0.577009 0.414798 0.253524
O O17 0.190934 0.304046 0.500000
O O18 0.500000 0.652859 0.188170
O O19 0.409888 0.628201 0.000000
#
# Coordination Sequence:
#
# PCOD8266604 Si02
#       7
#    16  16   8  16  16  16  16
#     4  10  18  31  51  75 103 140 184 228 275 325
#     4  10  20  33  51  78 110 141 176 221 273 327
#     4   9  18  30  45  69 103 141 183 231 274 317
#     4   9  17  34  57  80 106 136 174 221 275 326
#     4  10  21  37  58  83 108 137 178 225 268 314
#     4   8  16  31  54  82 107 130 166 226 282 322
#     4  11  24  39  54  77 112 150 183 215 260 315
#
# _framework density 19.057721999999998
#
# number of rings (size 3 to 8) (size 9 to 14) (size 15 to 20)
#    0.000    2.385    0.000    3.692    0.000    5.231 
#    1.385    4.231    0.000    1.385    0.000    0.000 
#    0.000    0.000    0.000    0.000    0.000    0.000 
#
# Total GULP energy -644695.423122 kJ/mol
# GULP energy per Si atom -12397.988906 kJ/mol
# Density = 1.901435 g / cm^3
# Si number density = 19.057722 Si / 1000 Ang^3
#
#
#
# Elastic Constant Matrix: (Units=GPa)
#
#
# Indices 1 2 3 4 5 6 
#
# 1 123.8732 71.2027 42.1959 0.0000 0.0000 0.0000
# 2 71.2027 111.8256 40.2969 0.0000 0.0000 0.0000
# 3 42.1959 40.2969 69.6613 0.0000 0.0000 0.0000
# 4 0.0000 0.0000 0.0000 18.5778 0.0000 0.0000
# 5 0.0000 0.0000 0.0000 0.0000 17.8884 0.0000
# 6 0.0000 0.0000 0.0000 0.0000 0.0000 29.4226
#
#
#
# Elastic Compliance Matrix: (Units=1/GPa)
#
#
# Indices 1 2 3 4 5 6 
#
# 1 0.013591 -0.007185 -0.004076 0.000000 0.000000 0.000000
# 2 -0.007185 0.015096 -0.004380 0.000000 0.000000 0.000000
# 3 -0.004076 -0.004380 0.019358 0.000000 0.000000 0.000000
# 4 0.000000 0.000000 0.000000 0.053828 0.000000 0.000000
# 5 0.000000 0.000000 0.000000 0.000000 0.055902 0.000000
# 6 0.000000 0.000000 0.000000 0.000000 0.000000 0.033987
#
#
# Mechanical properties :
#
#
# Convention : Reuss Voigt Hill
#
# Bulk Modulus (GPa) = 59.65866 68.08345 63.87105
# Shear Modulus (GPa) = 21.86905 23.28873 22.57889
#
# Velocity S-wave (km/s) = 3.39118 3.49952 3.44577
# Velocity P-wave (km/s) = 6.83415 7.22020 7.02982
#
# Compressibility (1/GPa) = 0.01676203
#
# Stress axis : x y z
#
# Youngs Moduli (GPa) = 73.57639 66.24318 51.65769
#
# Poissons Ratio (x) = 0.47596 0.21057
# Poissons Ratio (y) = 0.52865 0.22628
# Poissons Ratio (z) = 0.29992 0.29016
#
# Static dielectric constant tensor:
#      x y z
#    x 3.501150 0.000000 0.000000 
#    y 0.000000 3.770270 0.000000 
#    z 0.000000 0.000000 3.334290 
# 
# 
# High freq. dielectric constant tensor:
#      x y z
#    x 1.735460 0.000000 0.000000 
#    y 0.000000 1.747780 0.000000 
#    z 0.000000 0.000000 1.719280 
# 
# From -- ./inp_files/12423.got.cif
#   From: 2010.03.12/outbox.cif.g09.slc.cpg/sg65_7_cif.got.tgz:12423.got - 2010.04.10 20:52:16.
