data_PCOD8266625
_publ_section_title
;
Structure prediction by ZEFSAII (Michael W. Deem and Ramdas Pophale) SiO2 
 PCOD8266625
Probable space group: C M M M
;
_chemical_formula_sum "Si O2"
_cell_formula_units_Z 88
_cell_length_a 14.808954
_cell_length_b 33.566342
_cell_length_c 9.032832
_cell_angle_alpha 90.000000
_cell_angle_beta 90.000000
_cell_angle_gamma 90.000000
_cell_volume 4490.061941
_symmetry_space_group_name_H-M "C M M M"
_symmetry_group_IT_number 65
_symmetry_cell_setting 'orthorhombic'
loop_
_space_group_symop_operation_xyz
x,y,z
-x,-y,z
x,-y,-z
-x,y,-z
-x,-y,-z
x,y,-z
-x,y,z
x,-y,z
1/2+x,1/2+y,z
1/2-x,1/2-y,z
1/2+x,1/2-y,-z
1/2-x,1/2+y,-z
1/2-x,1/2-y,-z
1/2+x,1/2+y,-z
1/2-x,1/2+y,z
1/2+x,1/2-y,z
loop_
_atom_site_type_symbol
_atom_site_label
_atom_site_fract_x
_atom_site_fract_y
_atom_site_fract_z
Si Si1 0.348724 0.267930 0.165092
Si Si2 0.401855 0.193623 0.330563
Si Si3 0.785156 0.076514 0.823934
Si Si4 0.397825 0.500000 0.824274
Si Si5 0.215185 0.842599 0.325094
Si Si6 0.597936 0.955369 0.824401
O O1 0.250000 0.250000 0.158240
O O2 0.410719 0.234636 0.240128
O O3 0.349310 0.308018 0.262386
O O4 0.384580 0.277569 0.000000
O O5 0.382378 0.205337 0.500000
O O6 0.500000 0.171962 0.313012
O O7 0.319931 0.165368 0.276191
O O8 0.819855 0.116526 0.746806
O O9 0.681986 0.070445 0.766758
O O10 0.846044 0.039527 0.768632
O O11 0.790822 0.081376 0.000000
O O12 0.500000 0.500000 0.761456
O O13 0.398376 0.500000 0.000000
O O14 0.203943 0.845027 0.500000
O O15 0.500000 0.937411 0.774894
O O16 0.607321 0.000000 0.760709
O O17 0.603282 0.957498 0.000000
#
# Coordination Sequence:
#
# PCOD8266625 Si02
#       6
#    16  16  16   8  16  16
#     4   9  17  31  51  74  99 130 170 214 252 289
#     4   9  18  33  52  74 103 139 172 201 243 305
#     4  10  18  31  52  76 100 131 171 216 263 310
#     4   9  18  34  56  78  98 125 167 219 270 314
#     4  10  20  33  50  73 103 138 171 206 253 310
#     4   8  13  23  42  69  98 126 159 201 250 306
#
# _framework density 19.598838000000001
#
# number of rings (size 3 to 8) (size 9 to 14) (size 15 to 20)
#    0.000    2.818    0.909    1.636    0.000    4.000 
#    0.000    1.364    0.000    4.364    0.000    1.273 
#    0.000    0.000    0.000    0.000    0.000    0.000 
#
# Total GULP energy -545284.888436 kJ/mol
# GULP energy per Si atom -12392.838374 kJ/mol
# Density = 1.955423 g / cm^3
# Si number density = 19.598838 Si / 1000 Ang^3
#
#
#
# Elastic Constant Matrix: (Units=GPa)
#
#
# Indices 1 2 3 4 5 6 
#
# 1 74.4176 28.9932 16.4221 0.0000 0.0000 0.0000
# 2 28.9932 128.5899 38.9590 0.0000 0.0000 0.0000
# 3 16.4221 38.9590 59.2635 0.0000 0.0000 0.0000
# 4 0.0000 0.0000 0.0000 14.1426 0.0000 0.0000
# 5 0.0000 0.0000 0.0000 0.0000 11.0523 0.0000
# 6 0.0000 0.0000 0.0000 0.0000 0.0000 16.9695
#
#
#
# Elastic Compliance Matrix: (Units=1/GPa)
#
#
# Indices 1 2 3 4 5 6 
#
# 1 0.015003 -0.002651 -0.002415 0.000000 0.000000 0.000000
# 2 -0.002651 0.010179 -0.005957 0.000000 0.000000 0.000000
# 3 -0.002415 -0.005957 0.021459 0.000000 0.000000 0.000000
# 4 0.000000 0.000000 0.000000 0.070708 0.000000 0.000000
# 5 0.000000 0.000000 0.000000 0.000000 0.090479 0.000000
# 6 0.000000 0.000000 0.000000 0.000000 0.000000 0.058929
#
#
# Mechanical properties :
#
#
# Convention : Reuss Voigt Hill
#
# Bulk Modulus (GPa) = 40.65722 47.89107 44.27415
# Shear Modulus (GPa) = 16.83487 20.29266 18.56376
#
# Velocity S-wave (km/s) = 2.93400 3.22126 3.08098
# Velocity P-wave (km/s) = 5.68046 6.19064 5.94103
#
# Compressibility (1/GPa) = 0.02459588
#
# Stress axis : x y z
#
# Youngs Moduli (GPa) = 66.65128 98.23910 46.60059
#
# Poissons Ratio (x) = 0.26046 0.11252
# Poissons Ratio (y) = 0.17671 0.27760
# Poissons Ratio (z) = 0.16094 0.58521
#
# Static dielectric constant tensor:
#      x y z
#    x 3.668230 0.000000 0.000000 
#    y 0.000000 3.468390 0.000000 
#    z 0.000000 0.000000 3.278620 
# 
# 
# High freq. dielectric constant tensor:
#      x y z
#    x 1.755350 0.000000 0.000000 
#    y 0.000000 1.752590 0.000000 
#    z 0.000000 0.000000 1.729840 
# 
# From -- ./inp_files/10056.got.cif
#   From: 2010.03.12/outbox.cif.g09.slc.cpg/sg65_6_cif.got.tgz:10056.got - 2010.04.10 20:52:16.
