data_PCOD8266413
_publ_section_title
;
Structure prediction by ZEFSAII (Michael W. Deem and Ramdas Pophale) SiO2 
 PCOD8266413
Probable space group: C M M M
;
_chemical_formula_sum "Si O2"
_cell_formula_units_Z 88
_cell_length_a 9.333668
_cell_length_b 26.599972
_cell_length_c 19.955319
_cell_angle_alpha 90.000000
_cell_angle_beta 90.000000
_cell_angle_gamma 90.000000
_cell_volume 4954.412960
_symmetry_space_group_name_H-M "C M M M"
_symmetry_group_IT_number 65
_symmetry_cell_setting 'orthorhombic'
loop_
_space_group_symop_operation_xyz
x,y,z
-x,-y,z
x,-y,-z
-x,y,-z
-x,-y,-z
x,y,-z
-x,y,z
x,-y,z
1/2+x,1/2+y,z
1/2-x,1/2-y,z
1/2+x,1/2-y,-z
1/2-x,1/2+y,-z
1/2-x,1/2-y,-z
1/2+x,1/2+y,-z
1/2-x,1/2+y,z
1/2+x,1/2-y,z
loop_
_atom_site_type_symbol
_atom_site_label
_atom_site_fract_x
_atom_site_fract_y
_atom_site_fract_z
Si Si1 0.168525 0.943282 0.233237
Si Si2 0.166670 0.197728 0.000000
Si Si3 0.669468 0.554878 0.500000
Si Si4 0.833352 0.111648 0.101496
Si Si5 0.670317 0.610652 0.632892
Si Si6 0.346068 0.942660 0.000000
Si Si7 0.333360 0.801407 0.576364
O O1 0.207480 0.899281 0.178999
O O2 0.223328 0.922198 0.304125
O O3 0.000000 0.949588 0.235820
O O4 0.232783 0.000000 0.219768
O O5 0.250000 0.250000 0.000000
O O6 0.206799 0.165920 0.932062
O O7 0.000000 0.211088 0.000000
O O8 0.739741 0.500000 0.500000
O O9 0.500000 0.551217 0.500000
O O10 0.721158 0.581992 0.566740
O O11 0.744601 0.068976 0.065274
O O12 0.000000 0.102024 0.088408
O O13 0.500000 0.621386 0.634983
O O14 0.758466 0.662309 0.630511
O O15 0.500000 0.913643 0.000000
O O16 0.381650 0.000000 0.000000
O O17 0.315808 0.821463 0.500000
O O18 0.500000 0.794141 0.594587
O O19 0.250000 0.750000 0.584250
#
# Coordination Sequence:
#
# PCOD8266413 Si02
#       7
#    16   8   8  16  16   8  16
#     4   9  17  30  51  78 106 138 175 212 250 298
#     4   9  18  32  52  76  99 128 166 208 255 300
#     4   9  16  26  44  71 100 131 170 213 254 301
#     4   9  18  33  52  74 100 133 174 212 248 300
#     4  10  18  30  50  76 105 135 171 215 261 310
#     4  10  19  29  45  73 104 130 162 206 254 303
#     4  10  20  34  53  74  97 126 166 215 268 321
#
# _framework density 17.761942000000001
#
# number of rings (size 3 to 8) (size 9 to 14) (size 15 to 20)
#    0.000    2.545    0.909    2.455    0.000    5.818 
#    0.000    1.818    0.000    6.000    0.000    0.000 
#    0.000    0.000    0.000    0.000    0.000    0.000 
#
# Total GULP energy -545075.272875 kJ/mol
# GULP energy per Si atom -12388.074384 kJ/mol
# Density = 1.772152 g / cm^3
# Si number density = 17.761942 Si / 1000 Ang^3
#
#
#
# Elastic Constant Matrix: (Units=GPa)
#
#
# Indices 1 2 3 4 5 6 
#
# 1 57.9513 44.0365 30.1807 0.0000 0.0000 0.0000
# 2 44.0365 121.1838 65.6713 0.0000 0.0000 0.0000
# 3 30.1807 65.6713 135.0100 0.0000 0.0000 0.0000
# 4 0.0000 0.0000 0.0000 -119.6510 0.0000 0.0000
# 5 0.0000 0.0000 0.0000 0.0000 -304.1311 0.0000
# 6 0.0000 0.0000 0.0000 0.0000 0.0000 24.9797
#
#
#
# Elastic Compliance Matrix: (Units=1/GPa)
#
#
# Indices 1 2 3 4 5 6 
#
# 1 0.024069 -0.007918 -0.001529 0.000000 0.000000 0.000000
# 2 -0.007918 0.013810 -0.004948 0.000000 0.000000 0.000000
# 3 -0.001529 -0.004948 0.010155 0.000000 0.000000 0.000000
# 4 0.000000 0.000000 0.000000 -0.008358 0.000000 0.000000
# 5 0.000000 0.000000 0.000000 0.000000 -0.003288 0.000000
# 6 0.000000 0.000000 0.000000 0.000000 0.000000 0.040032
#
#
# Mechanical properties :
#
#
# Convention : Reuss Voigt Hill
#
# Bulk Modulus (GPa) = 51.96007 65.99136 58.97572
# Shear Modulus (GPa) = 44.79286 -68.14337 -11.67526
#
# Velocity S-wave (km/s) = 5.02725 -6.20065 -2.56660
# Velocity P-wave (km/s) = 7.93818 3.74570 4.94896
#
# Compressibility (1/GPa) = 0.01924555
#
# Stress axis : x y z
#
# Youngs Moduli (GPa) = 41.54772 72.41000 98.47058
#
# Poissons Ratio (x) = 0.57331 0.15058
# Poissons Ratio (y) = 0.32896 0.48720
# Poissons Ratio (z) = 0.06353 0.35826
#
# Static dielectric constant tensor:
#      x y z
#    x 3.077170 0.000000 0.000000 
#    y 0.000000 3.344980 0.000000 
#    z 0.000000 0.000000 3.744080 
# 
# 
# High freq. dielectric constant tensor:
#      x y z
#    x 1.661810 0.000000 0.000000 
#    y 0.000000 1.684670 0.000000 
#    z 0.000000 0.000000 1.680320 
# 
# From -- ./inp_files/60738.got.cif
#   From: 2010.03.12/outbox.cif.g09.slc.cpg/sg65_31_cif.got.tgz:60738.got - 2010.04.10 20:52:16.
