data_PCOD8266422
_publ_section_title
;
Structure prediction by ZEFSAII (Michael W. Deem and Ramdas Pophale) SiO2 
 PCOD8266422
Probable space group: C M M M
;
_chemical_formula_sum "Si O2"
_cell_formula_units_Z 104
_cell_length_a 28.277743
_cell_length_b 9.553748
_cell_length_c 21.998803
_cell_angle_alpha 90.000000
_cell_angle_beta 90.000000
_cell_angle_gamma 90.000000
_cell_volume 5943.162094
_symmetry_space_group_name_H-M "C M M M"
_symmetry_group_IT_number 65
_symmetry_cell_setting 'orthorhombic'
loop_
_space_group_symop_operation_xyz
x,y,z
-x,-y,z
x,-y,-z
-x,y,-z
-x,-y,-z
x,y,-z
-x,y,z
x,-y,z
1/2+x,1/2+y,z
1/2-x,1/2-y,z
1/2+x,1/2-y,-z
1/2-x,1/2+y,-z
1/2-x,1/2-y,-z
1/2+x,1/2+y,-z
1/2-x,1/2+y,z
1/2+x,1/2-y,z
loop_
_atom_site_type_symbol
_atom_site_label
_atom_site_fract_x
_atom_site_fract_y
_atom_site_fract_z
Si Si1 0.886526 0.331276 0.384633
Si Si2 0.055158 0.840145 0.291347
Si Si3 0.202308 0.834668 0.428968
Si Si4 0.447501 0.164731 0.500000
Si Si5 0.553258 0.660720 0.151006
Si Si6 0.803125 0.000000 0.928124
Si Si7 0.801376 0.500000 0.071944
Si Si8 0.365743 0.752416 0.928247
O O1 0.878322 0.500000 0.380976
O O2 0.913092 0.274572 0.325227
O O3 0.837596 0.247064 0.390890
O O4 0.919310 0.286577 0.440870
O O5 0.068128 0.823038 0.220794
O O6 0.000000 0.807235 0.302717
O O7 0.066305 0.000000 0.312248
O O8 0.190181 0.822421 0.500000
O O9 0.250000 0.750000 0.414028
O O10 0.206211 0.000000 0.410384
O O11 0.500000 0.233348 0.500000
O O12 0.452678 0.000000 0.500000
O O13 0.500000 0.713713 0.141597
O O14 0.557985 0.500000 0.130175
O O15 0.585132 0.756782 0.107619
O O16 0.750863 0.000000 0.898140
O O17 0.834027 0.126563 0.905386
O O18 0.796962 0.000000 0.000000
O O19 0.832223 0.626659 0.094778
O O20 0.795372 0.500000 0.000000
O O21 0.376710 0.754155 0.000000
#
# Coordination Sequence:
#
# PCOD8266422 Si02
#       8
#    16  16  16   8  16   8   8  16
#     4  11  20  33  54  80 109 138 173 214 265 315
#     4   9  19  36  55  74 100 137 178 217 259 312
#     4  10  20  34  54  80 111 143 180 217 257 311
#     4   9  18  30  46  73 110 139 160 203 262 311
#     4   9  18  34  54  75 100 135 179 221 260 306
#     4   9  16  28  49  75 101 133 172 207 247 312
#     4   9  18  30  45  71 109 139 162 205 263 316
#     4  10  18  30  50  78 106 134 170 212 264 317
#
# _framework density 17.499101
#
# number of rings (size 3 to 8) (size 9 to 14) (size 15 to 20)
#    0.000    2.385    1.538    2.769    0.000    3.692 
#    1.385    1.154    0.000    5.077    0.000    0.000 
#    0.000    0.000    0.000    0.000    0.000    0.000 
#
# Total GULP energy -644447.499696 kJ/mol
# GULP energy per Si atom -12393.221148 kJ/mol
# Density = 1.745927 g / cm^3
# Si number density = 17.499101 Si / 1000 Ang^3
#
#
#
# Elastic Constant Matrix: (Units=GPa)
#
#
# Indices 1 2 3 4 5 6 
#
# 1 124.7545 53.5128 47.7063 0.0000 0.0000 0.0000
# 2 53.5128 109.3782 27.7742 0.0000 0.0000 0.0000
# 3 47.7063 27.7742 54.3130 0.0000 0.0000 0.0000
# 4 0.0000 0.0000 0.0000 22.2757 0.0000 0.0000
# 5 0.0000 0.0000 0.0000 0.0000 11.7701 0.0000
# 6 0.0000 0.0000 0.0000 0.0000 0.0000 121.6428
#
#
#
# Elastic Compliance Matrix: (Units=1/GPa)
#
#
# Indices 1 2 3 4 5 6 
#
# 1 0.013524 -0.004137 -0.009763 0.000000 0.000000 0.000000
# 2 -0.004137 0.011773 -0.002386 0.000000 0.000000 0.000000
# 3 -0.009763 -0.002386 0.028207 0.000000 0.000000 0.000000
# 4 0.000000 0.000000 0.000000 0.044892 0.000000 0.000000
# 5 0.000000 0.000000 0.000000 0.000000 0.084961 0.000000
# 6 0.000000 0.000000 0.000000 0.000000 0.000000 0.008221
#
#
# Mechanical properties :
#
#
# Convention : Reuss Voigt Hill
#
# Bulk Modulus (GPa) = 47.77627 60.71468 54.24548
# Shear Modulus (GPa) = 21.63306 41.76788 31.70047
#
# Velocity S-wave (km/s) = 3.51983 4.89085 4.26085
# Velocity P-wave (km/s) = 6.62423 8.16487 7.43456
#
# Compressibility (1/GPa) = 0.02093089
#
# Stress axis : x y z
#
# Youngs Moduli (GPa) = 73.94342 84.94232 35.45159
#
# Poissons Ratio (x) = 0.35144 0.34612
# Poissons Ratio (y) = 0.30593 0.08459
# Poissons Ratio (z) = 0.72191 0.20268
#
# Static dielectric constant tensor:
#      x y z
#    x 3.382860 0.000000 0.000000 
#    y 0.000000 3.583240 0.000000 
#    z 0.000000 0.000000 2.919690 
# 
# 
# High freq. dielectric constant tensor:
#      x y z
#    x 1.688310 0.000000 0.000000 
#    y 0.000000 1.675330 0.000000 
#    z 0.000000 0.000000 1.642330 
# 
# From -- ./inp_files/71873.got.cif
#   From: 2010.03.12/outbox.cif.g09.slc.cpg/sg65_36_cif.got.tgz:71873.got - 2010.04.10 20:52:16.
