data_PCOD8266462
_publ_section_title
;
Structure prediction by ZEFSAII (Michael W. Deem and Ramdas Pophale) SiO2 
 PCOD8266462
Probable space group: C M M M
;
_chemical_formula_sum "Si O2"
_cell_formula_units_Z 88
_cell_length_a 24.077186
_cell_length_b 22.673281
_cell_length_c 8.964388
_cell_angle_alpha 90.000000
_cell_angle_beta 90.000000
_cell_angle_gamma 90.000000
_cell_volume 4893.738330
_symmetry_space_group_name_H-M "C M M M"
_symmetry_group_IT_number 65
_symmetry_cell_setting 'orthorhombic'
loop_
_space_group_symop_operation_xyz
x,y,z
-x,-y,z
x,-y,-z
-x,y,-z
-x,-y,-z
x,y,-z
-x,y,z
x,-y,z
1/2+x,1/2+y,z
1/2-x,1/2-y,z
1/2+x,1/2-y,-z
1/2-x,1/2+y,-z
1/2-x,1/2-y,-z
1/2+x,1/2+y,-z
1/2-x,1/2+y,z
1/2+x,1/2-y,z
loop_
_atom_site_type_symbol
_atom_site_label
_atom_site_fract_x
_atom_site_fract_y
_atom_site_fract_z
Si Si1 0.238498 0.932075 0.175625
Si Si2 0.647867 0.931719 0.326154
Si Si3 0.564907 0.846099 0.172482
Si Si4 0.563853 0.273758 0.672735
Si Si5 0.631631 0.611280 0.676103
Si Si6 0.062027 0.000000 0.677338
O O1 0.296547 0.910345 0.243580
O O2 0.190807 0.890954 0.243372
O O3 0.227105 0.000000 0.220843
O O4 0.240807 0.923537 0.000000
O O5 0.655422 0.919217 0.500000
O O6 0.595747 0.896184 0.264700
O O7 0.636076 0.000000 0.292513
O O8 0.500000 0.855984 0.200562
O O9 0.582985 0.781815 0.230033
O O10 0.580927 0.851305 0.000000
O O11 0.572515 0.257809 0.500000
O O12 0.500000 0.290964 0.704263
O O13 0.601826 0.328299 0.721608
O O14 0.640908 0.606392 0.500000
O O15 0.593726 0.557784 0.735597
O O16 0.059039 0.000000 0.500000
O O17 0.000000 0.000000 0.744675
#
# Coordination Sequence:
#
# PCOD8266462 Si02
#       6
#    16  16  16  16  16   8
#     4  10  20  34  52  75 107 144 179 217 266 321
#     4  10  21  37  59  84 108 135 171 216 264 313
#     4  10  21  37  57  81 110 143 174 208 258 318
#     4   9  18  33  53  77 106 142 183 224 266 312
#     4  10  18  30  51  77 105 140 183 227 268 312
#     4   9  16  26  45  75 107 137 176 227 272 309
#
# _framework density 17.982161999999999
#
# number of rings (size 3 to 8) (size 9 to 14) (size 15 to 20)
#    0.000    2.273    0.909    2.182    0.000    6.182 
#    0.000    2.727    0.000    7.636    0.000    0.000 
#    0.000    0.000    0.000    0.000    0.000    0.000 
#
# Total GULP energy -545781.082578 kJ/mol
# GULP energy per Si atom -12404.115513 kJ/mol
# Density = 1.794123 g / cm^3
# Si number density = 17.982162 Si / 1000 Ang^3
#
#
#
# Elastic Constant Matrix: (Units=GPa)
#
#
# Indices 1 2 3 4 5 6 
#
# 1 101.3229 67.4208 45.2829 0.0000 0.0000 0.0000
# 2 67.4208 101.0627 47.2915 0.0000 0.0000 0.0000
# 3 45.2829 47.2915 66.5852 0.0000 0.0000 0.0000
# 4 0.0000 0.0000 0.0000 24.3675 0.0000 0.0000
# 5 0.0000 0.0000 0.0000 0.0000 28.1472 0.0000
# 6 0.0000 0.0000 0.0000 0.0000 0.0000 28.1843
#
#
#
# Elastic Compliance Matrix: (Units=1/GPa)
#
#
# Indices 1 2 3 4 5 6 
#
# 1 0.019193 -0.010029 -0.005929 0.000000 0.000000 0.000000
# 2 -0.010029 0.020061 -0.007428 0.000000 0.000000 0.000000
# 3 -0.005929 -0.007428 0.024326 0.000000 0.000000 0.000000
# 4 0.000000 0.000000 0.000000 0.041038 0.000000 0.000000
# 5 0.000000 0.000000 0.000000 0.000000 0.035527 0.000000
# 6 0.000000 0.000000 0.000000 0.000000 0.000000 0.035481
#
#
# Mechanical properties :
#
#
# Convention : Reuss Voigt Hill
#
# Bulk Modulus (GPa) = 59.49657 65.44013 62.46835
# Shear Modulus (GPa) = 21.92959 23.40485 22.66722
#
# Velocity S-wave (km/s) = 3.49595 3.61163 3.55426
# Velocity P-wave (km/s) = 7.03234 7.33911 7.18736
#
# Compressibility (1/GPa) = 0.01680769
#
# Stress axis : x y z
#
# Youngs Moduli (GPa) = 52.10231 49.84707 41.10793
#
# Poissons Ratio (x) = 0.49994 0.24374
# Poissons Ratio (y) = 0.52256 0.30534
# Poissons Ratio (z) = 0.30893 0.37025
#
# Static dielectric constant tensor:
#      x y z
#    x 3.329100 0.000000 0.000000 
#    y 0.000000 3.259710 0.000000 
#    z 0.000000 0.000000 3.236590 
# 
# 
# High freq. dielectric constant tensor:
#      x y z
#    x 1.699270 0.000000 0.000000 
#    y 0.000000 1.688150 0.000000 
#    z 0.000000 0.000000 1.691820 
# 
# From -- ./inp_files/11716.got.cif
#   From: 2010.03.12/outbox.cif.g09.slc.cpg/sg65_6_cif.got.tgz:11716.got - 2010.04.10 20:52:16.
