data_PCOD8266328
_publ_section_title
;
Structure prediction by ZEFSAII (Michael W. Deem and Ramdas Pophale) SiO2 
 PCOD8266328
Probable space group: C M M M
;
_chemical_formula_sum "Si O2"
_cell_formula_units_Z 72
_cell_length_a 18.724880
_cell_length_b 10.084702
_cell_length_c 21.689717
_cell_angle_alpha 90.000000
_cell_angle_beta 90.000000
_cell_angle_gamma 90.000000
_cell_volume 4095.774126
_symmetry_space_group_name_H-M "C M M M"
_symmetry_group_IT_number 65
_symmetry_cell_setting 'orthorhombic'
loop_
_space_group_symop_operation_xyz
x,y,z
-x,-y,z
x,-y,-z
-x,y,-z
-x,-y,-z
x,y,-z
-x,y,z
x,-y,z
1/2+x,1/2+y,z
1/2-x,1/2-y,z
1/2+x,1/2-y,-z
1/2-x,1/2+y,-z
1/2-x,1/2-y,-z
1/2+x,1/2+y,-z
1/2-x,1/2+y,z
1/2+x,1/2-y,z
loop_
_atom_site_type_symbol
_atom_site_label
_atom_site_fract_x
_atom_site_fract_y
_atom_site_fract_z
Si Si1 0.833724 0.500000 0.568618
Si Si2 0.834615 0.749246 0.354438
Si Si3 0.415192 0.851899 0.896265
Si Si4 0.914837 0.152246 0.000000
Si Si5 0.417401 0.846326 0.757291
Si Si6 0.335860 0.500000 0.430722
O O1 0.866635 0.500000 0.500000
O O2 0.861503 0.373346 0.605155
O O3 0.748878 0.500000 0.564139
O O4 0.750000 0.750000 0.344417
O O5 0.871093 0.745934 0.287581
O O6 0.862652 0.874530 0.392366
O O7 0.500000 0.857115 0.899803
O O8 0.386185 0.735300 0.940867
O O9 0.391302 0.816727 0.826854
O O10 0.386740 0.000000 0.914879
O O11 0.000000 0.146990 0.000000
O O12 0.885060 0.000000 0.000000
O O13 0.500000 0.808748 0.749313
O O14 0.404302 0.000000 0.741329
O O15 0.368368 0.500000 0.500000
#
# Coordination Sequence:
#
# PCOD8266328 Si02
#       6
#     8  16  16   8  16   8
#     4   9  16  28  49  71  91 118 155 200 238 271
#     4  10  18  30  49  72  96 121 155 197 236 279
#     4   8  14  25  42  62  85 117 153 188 226 267
#     4   9  15  23  37  61  92 119 148 187 225 265
#     4   9  17  31  50  70  94 125 161 196 230 273
#     4   9  18  30  45  69  95 120 153 194 242 285
#
# _framework density 17.579094999999999
#
# number of rings (size 3 to 8) (size 9 to 14) (size 15 to 20)
#    0.000    3.000    1.111    2.333    0.000    4.000 
#    2.000    0.556    0.000    4.000    0.000    0.778 
#    0.000    0.000    0.000    0.000    0.000    0.000 
#
# Total GULP energy -446192.440128 kJ/mol
# GULP energy per Si atom -12394.234448 kJ/mol
# Density = 1.753908 g / cm^3
# Si number density = 17.579095 Si / 1000 Ang^3
#
#
#
# Elastic Constant Matrix: (Units=GPa)
#
#
# Indices 1 2 3 4 5 6 
#
# 1 19.2707 19.5723 27.6653 0.0000 0.0000 0.0000
# 2 19.5723 153.0094 92.2996 0.0000 0.0000 0.0000
# 3 27.6653 92.2996 164.1593 0.0000 0.0000 0.0000
# 4 0.0000 0.0000 0.0000 35.7280 0.0000 0.0000
# 5 0.0000 0.0000 0.0000 0.0000 11.2578 0.0000
# 6 0.0000 0.0000 0.0000 0.0000 0.0000 5.2503
#
#
#
# Elastic Compliance Matrix: (Units=1/GPa)
#
#
# Indices 1 2 3 4 5 6 
#
# 1 0.069210 -0.002750 -0.010118 0.000000 0.000000 0.000000
# 2 -0.002750 0.009999 -0.005159 0.000000 0.000000 0.000000
# 3 -0.010118 -0.005159 0.010697 0.000000 0.000000 0.000000
# 4 0.000000 0.000000 0.000000 0.027989 0.000000 0.000000
# 5 0.000000 0.000000 0.000000 0.000000 0.088827 0.000000
# 6 0.000000 0.000000 0.000000 0.000000 0.000000 0.190467
#
#
# Mechanical properties :
#
#
# Convention : Reuss Voigt Hill
#
# Bulk Modulus (GPa) = 18.56864 68.39042 43.47953
# Shear Modulus (GPa) = 11.08172 23.57404 17.32788
#
# Velocity S-wave (km/s) = 2.51348 3.66598 3.14301
# Velocity P-wave (km/s) = 4.35997 7.54374 6.16106
#
# Compressibility (1/GPa) = 0.05385424
#
# Stress axis : x y z
#
# Youngs Moduli (GPa) = 14.44874 100.00861 93.48200
#
# Poissons Ratio (x) = 0.27500 0.94582
# Poissons Ratio (y) = 0.03973 0.48224
# Poissons Ratio (z) = 0.14619 0.51591
#
# Static dielectric constant tensor:
#      x y z
#    x 2.604280 0.000000 0.000000 
#    y 0.000000 3.450260 0.000000 
#    z 0.000000 0.000000 3.510110 
# 
# 
# High freq. dielectric constant tensor:
#      x y z
#    x 1.607510 0.000000 0.000000 
#    y 0.000000 1.680720 0.000000 
#    z 0.000000 0.000000 1.696090 
# 
# From -- ./inp_files/59336.got.cif
#   From: 2010.03.12/outbox.cif.g09.slc.cpg/sg65_30_cif.got.tgz:59336.got - 2010.04.10 20:52:16.
