data_PCOD8266580
_publ_section_title
;
Structure prediction by ZEFSAII (Michael W. Deem and Ramdas Pophale) SiO2 
 PCOD8266580
Probable space group: C M M M
;
_chemical_formula_sum "Si O2"
_cell_formula_units_Z 80
_cell_length_a 24.967228
_cell_length_b 18.591690
_cell_length_c 9.514646
_cell_angle_alpha 90.000000
_cell_angle_beta 90.000000
_cell_angle_gamma 90.000000
_cell_volume 4416.536573
_symmetry_space_group_name_H-M "C M M M"
_symmetry_group_IT_number 65
_symmetry_cell_setting 'orthorhombic'
loop_
_space_group_symop_operation_xyz
x,y,z
-x,-y,z
x,-y,-z
-x,y,-z
-x,-y,-z
x,y,-z
-x,y,z
x,-y,z
1/2+x,1/2+y,z
1/2-x,1/2-y,z
1/2+x,1/2-y,-z
1/2-x,1/2+y,-z
1/2-x,1/2-y,-z
1/2+x,1/2+y,-z
1/2-x,1/2+y,z
1/2+x,1/2-y,z
loop_
_atom_site_type_symbol
_atom_site_label
_atom_site_fract_x
_atom_site_fract_y
_atom_site_fract_z
Si Si1 0.500000 0.917217 0.667924
Si Si2 0.716195 0.182341 0.667038
Si Si3 0.588405 0.343940 0.337173
Si Si4 0.305461 0.421156 0.665354
Si Si5 0.500000 0.584513 0.156760
Si Si6 0.403316 0.819892 0.336007
O O1 0.500000 0.913404 0.500000
O O2 0.553354 0.876514 0.727105
O O3 0.500000 0.000000 0.720436
O O4 0.711272 0.192549 0.500000
O O5 0.750000 0.250000 0.727696
O O6 0.748169 0.110614 0.711512
O O7 0.656298 0.173776 0.731707
O O8 0.577332 0.362806 0.500000
O O9 0.648809 0.364110 0.292611
O O10 0.551990 0.391775 0.239676
O O11 0.575857 0.260631 0.308257
O O12 0.306305 0.430524 0.500000
O O13 0.313687 0.500000 0.735752
O O14 0.500000 0.500000 0.147384
O O15 0.500000 0.617955 0.000000
O O16 0.398307 0.835713 0.500000
#
# Coordination Sequence:
#
# PCOD8266580 Si02
#       6
#     8  16  16  16   8  16
#     4   9  17  26  34  52  86 125 162 194 230 287
#     4   9  14  23  37  57  88 120 148 184 233 283
#     4  10  18  31  51  71  92 121 162 204 238 280
#     4   9  16  24  38  64  93 119 153 197 238 279
#     4  11  24  37  47  65  96 129 158 192 240 295
#     4   9  16  26  43  64  89 123 160 197 238 281
#
# _framework density 18.113741999999998
#
# number of rings (size 3 to 8) (size 9 to 14) (size 15 to 20)
#    0.000    2.600    2.000    1.500    0.000    4.000 
#    0.000    4.000    0.000    0.000    0.000    2.800 
#    0.000    6.400    0.000    0.000    0.000    0.400 
#
# Total GULP energy -495674.117482 kJ/mol
# GULP energy per Si atom -12391.852937 kJ/mol
# Density = 1.807251 g / cm^3
# Si number density = 18.113742 Si / 1000 Ang^3
#
#
#
# Elastic Constant Matrix: (Units=GPa)
#
#
# Indices 1 2 3 4 5 6 
#
# 1 150.6729 66.1072 22.2094 0.0000 0.0000 0.0000
# 2 66.1072 122.6413 16.0487 0.0000 0.0000 0.0000
# 3 22.2094 16.0487 29.2367 0.0000 0.0000 0.0000
# 4 0.0000 0.0000 0.0000 5.8835 0.0000 0.0000
# 5 0.0000 0.0000 0.0000 0.0000 -6.9498 0.0000
# 6 0.0000 0.0000 0.0000 0.0000 0.0000 90.2932
#
#
#
# Elastic Compliance Matrix: (Units=1/GPa)
#
#
# Indices 1 2 3 4 5 6 
#
# 1 0.009237 -0.004375 -0.004615 0.000000 0.000000 0.000000
# 2 -0.004375 0.010857 -0.002636 0.000000 0.000000 0.000000
# 3 -0.004615 -0.002636 0.039156 0.000000 0.000000 0.000000
# 4 0.000000 0.000000 0.000000 0.169968 0.000000 0.000000
# 5 0.000000 0.000000 0.000000 0.000000 -0.143890 0.000000
# 6 0.000000 0.000000 0.000000 0.000000 0.000000 0.011075
#
#
# Mechanical properties :
#
#
# Convention : Reuss Voigt Hill
#
# Bulk Modulus (GPa) = 27.77963 56.80908 42.29435
# Shear Modulus (GPa) = 37.97793 31.05776 34.51784
#
# Velocity S-wave (km/s) = 4.58387 4.14526 4.37007
# Velocity P-wave (km/s) = 6.58676 7.37166 6.99024
#
# Compressibility (1/GPa) = 0.03599760
#
# Stress axis : x y z
#
# Youngs Moduli (GPa) = 108.26468 92.10611 25.53857
#
# Poissons Ratio (x) = 0.40295 0.11786
# Poissons Ratio (y) = 0.47365 0.06733
# Poissons Ratio (z) = 0.49965 0.24282
#
# Static dielectric constant tensor:
#      x y z
#    x 3.709890 0.000000 0.000000 
#    y 0.000000 3.527370 0.000000 
#    z 0.000000 0.000000 2.590380 
# 
# 
# High freq. dielectric constant tensor:
#      x y z
#    x 1.721010 0.000000 0.000000 
#    y 0.000000 1.710400 0.000000 
#    z 0.000000 0.000000 1.602560 
# 
# From -- ./inp_files/16087.got.cif
#   From: 2010.03.12/outbox.cif.g09.slc.cpg/sg65_9_cif.got.tgz:16087.got - 2010.04.10 20:52:16.
