data_PCOD8266324
_publ_section_title
;
Structure prediction by ZEFSAII (Michael W. Deem and Ramdas Pophale) SiO2 
 PCOD8266324
Probable space group: C M M M
;
_chemical_formula_sum "Si O2"
_cell_formula_units_Z 64
_cell_length_a 8.701965
_cell_length_b 18.936533
_cell_length_c 20.579598
_cell_angle_alpha 90.000000
_cell_angle_beta 90.000000
_cell_angle_gamma 90.000000
_cell_volume 3391.210032
_symmetry_space_group_name_H-M "C M M M"
_symmetry_group_IT_number 65
_symmetry_cell_setting 'orthorhombic'
loop_
_space_group_symop_operation_xyz
x,y,z
-x,-y,z
x,-y,-z
-x,y,-z
-x,-y,-z
x,y,-z
-x,y,z
x,-y,z
1/2+x,1/2+y,z
1/2-x,1/2-y,z
1/2+x,1/2-y,-z
1/2-x,1/2+y,-z
1/2-x,1/2-y,-z
1/2+x,1/2+y,-z
1/2-x,1/2+y,z
1/2+x,1/2-y,z
loop_
_atom_site_type_symbol
_atom_site_label
_atom_site_fract_x
_atom_site_fract_y
_atom_site_fract_z
Si Si1 0.680094 0.172680 0.000000
Si Si2 0.682616 0.328319 0.500000
Si Si3 0.177093 0.418796 0.753054
Si Si4 0.181971 0.672763 0.369407
Si Si5 0.179267 0.081325 0.887704
O O1 0.750000 0.250000 0.000000
O O2 0.728992 0.130586 0.936260
O O3 0.500000 0.181275 0.000000
O O4 0.500000 0.328299 0.500000
O O5 0.750000 0.250000 0.500000
O O6 0.746461 0.364328 0.434056
O O7 0.204511 0.500000 0.734995
O O8 0.232445 0.373867 0.691696
O O9 0.278809 0.396045 0.814595
O O10 0.000000 0.403899 0.770210
O O11 0.250000 0.750000 0.358251
O O12 0.000000 0.677247 0.377446
O O13 0.000000 0.092576 0.899709
O O14 0.227183 0.000000 0.899936
#
# Coordination Sequence:
#
# PCOD8266324 Si02
#       5
#     8   8  16  16  16
#     4  12  25  40  59  83 113 145 179 224 271 316
#     4  10  18  30  49  72 101 135 173 215 259 314
#     4   9  19  36  56  78 105 140 181 220 260 310
#     4  10  19  32  52  76 103 135 173 218 264 313
#     4  10  21  38  60  84 111 144 181 220 264 319
#
# _framework density 18.872319000000001
#
# number of rings (size 3 to 8) (size 9 to 14) (size 15 to 20)
#    0.000    2.000    0.000    5.625    0.000    6.000 
#    0.000    3.125    0.000    3.750    0.000    0.000 
#    0.000    0.000    0.000    0.000    0.000    0.000 
#
# Total GULP energy -396836.778579 kJ/mol
# GULP energy per Si atom -12401.149331 kJ/mol
# Density = 1.882936 g / cm^3
# Si number density = 18.872319 Si / 1000 Ang^3
#
#
#
# Elastic Constant Matrix: (Units=GPa)
#
#
# Indices 1 2 3 4 5 6 
#
# 1 118.8815 49.9389 71.1654 0.0000 0.0000 0.0000
# 2 49.9389 86.4702 83.3615 0.0000 0.0000 0.0000
# 3 71.1654 83.3615 168.5168 0.0000 0.0000 0.0000
# 4 0.0000 0.0000 0.0000 39.3208 0.0000 0.0000
# 5 0.0000 0.0000 0.0000 0.0000 35.9204 0.0000
# 6 0.0000 0.0000 0.0000 0.0000 0.0000 26.8911
#
#
#
# Elastic Compliance Matrix: (Units=1/GPa)
#
#
# Indices 1 2 3 4 5 6 
#
# 1 0.011901 -0.003877 -0.003108 0.000000 0.000000 0.000000
# 2 -0.003877 0.023371 -0.009924 0.000000 0.000000 0.000000
# 3 -0.003108 -0.009924 0.012156 0.000000 0.000000 0.000000
# 4 0.000000 0.000000 0.000000 0.025432 0.000000 0.000000
# 5 0.000000 0.000000 0.000000 0.000000 0.027839 0.000000
# 6 0.000000 0.000000 0.000000 0.000000 0.000000 0.037187
#
#
# Mechanical properties :
#
#
# Convention : Reuss Voigt Hill
#
# Bulk Modulus (GPa) = 73.47498 86.97776 80.22637
# Shear Modulus (GPa) = 28.37057 31.71997 30.04527
#
# Velocity S-wave (km/s) = 3.88143 4.10416 3.99435
# Velocity P-wave (km/s) = 7.68795 8.28531 7.99221
#
# Compressibility (1/GPa) = 0.01361007
#
# Stress axis : x y z
#
# Youngs Moduli (GPa) = 84.02802 42.78887 82.26593
#
# Poissons Ratio (x) = 0.16588 0.25568
# Poissons Ratio (y) = 0.32576 0.81638
# Poissons Ratio (z) = 0.26116 0.42462
#
# Static dielectric constant tensor:
#      x y z
#    x 3.527230 0.000000 0.000000 
#    y 0.000000 3.347170 0.000000 
#    z 0.000000 0.000000 3.952590 
# 
# 
# High freq. dielectric constant tensor:
#      x y z
#    x 1.744100 0.000000 0.000000 
#    y 0.000000 1.709980 0.000000 
#    z 0.000000 0.000000 1.753360 
# 
# From -- ./inp_files/58770.got.cif
#   From: 2010.03.12/outbox.cif.g09.slc.cpg/sg65_30_cif.got.tgz:58770.got - 2010.04.10 20:52:16.
