data_PCOD8266827
_publ_section_title
;
Structure prediction by ZEFSAII (Michael W. Deem and Ramdas Pophale) SiO2 
 PCOD8266827
Probable space group: C M M M
;
_chemical_formula_sum "Si O2"
_cell_formula_units_Z 128
_cell_length_a 19.468849
_cell_length_b 20.696679
_cell_length_c 18.791344
_cell_angle_alpha 90.000000
_cell_angle_beta 90.000000
_cell_angle_gamma 90.000000
_cell_volume 7571.793890
_symmetry_space_group_name_H-M "C M M M"
_symmetry_group_IT_number 65
_symmetry_cell_setting 'orthorhombic'
loop_
_space_group_symop_operation_xyz
x,y,z
-x,-y,z
x,-y,-z
-x,y,-z
-x,-y,-z
x,y,-z
-x,y,z
x,-y,z
1/2+x,1/2+y,z
1/2-x,1/2-y,z
1/2+x,1/2-y,-z
1/2-x,1/2+y,-z
1/2-x,1/2-y,-z
1/2+x,1/2+y,-z
1/2-x,1/2+y,z
1/2+x,1/2-y,z
loop_
_atom_site_type_symbol
_atom_site_label
_atom_site_fract_x
_atom_site_fract_y
_atom_site_fract_z
Si Si1 0.077129 0.264771 0.144047
Si Si2 0.422103 0.166659 0.580065
Si Si3 0.209689 0.686983 0.916364
Si Si4 0.800615 0.573821 0.419122
Si Si5 0.207826 0.926225 0.152654
Si Si6 0.139328 0.737725 0.292328
Si Si7 0.736175 0.644890 0.705734
Si Si8 0.578272 0.624087 0.083011
O O1 0.132485 0.315774 0.114618
O O2 0.085063 0.256349 0.228633
O O3 0.091484 0.198043 0.103645
O O4 0.000000 0.289694 0.128077
O O5 0.412810 0.194335 0.500000
O O6 0.500000 0.145284 0.594488
O O7 0.376336 0.103124 0.591241
O O8 0.399999 0.222064 0.634821
O O9 0.250000 0.750000 0.884463
O O10 0.247420 0.620930 0.896496
O O11 0.205842 0.692849 0.000000
O O12 0.774706 0.582009 0.500000
O O13 0.806237 0.500000 0.396074
O O14 0.745762 0.609248 0.369283
O O15 0.217180 0.907287 0.234719
O O16 0.128192 0.920955 0.129357
O O17 0.232304 0.000000 0.142206
O O18 0.195104 0.683167 0.271513
O O19 0.173787 0.806504 0.305025
O O20 0.500000 0.603597 0.099674
O O21 0.595450 0.615531 0.000000
#
# Coordination Sequence:
#
# PCOD8266827 Si02
#       8
#    16  16  16  16  16  16  16  16
#     4  11  20  33  56  82 105 135 177 222 265 314
#     4   9  18  31  48  75 108 137 170 215 264 314
#     4  11  21  36  56  78 106 138 177 224 267 317
#     4   9  18  32  50  73 103 140 178 214 257 312
#     4  12  23  36  56  81 109 143 181 222 269 320
#     4  10  18  32  54  75 102 135 170 212 265 315
#     4  10  19  33  52  76 103 134 171 217 263 308
#     4  10  21  36  54  79 109 139 175 222 275 326
#
# _framework density 16.904845000000002
#
# number of rings (size 3 to 8) (size 9 to 14) (size 15 to 20)
#    0.000    1.750    3.750    1.500    0.000    2.750 
#    0.000    4.375    0.000    0.375    0.000    0.875 
#    0.000    0.000    0.000    8.250    0.000    0.250 
#
# Total GULP energy -793704.534950 kJ/mol
# GULP energy per Si atom -12401.633359 kJ/mol
# Density = 1.686637 g / cm^3
# Si number density = 16.904845 Si / 1000 Ang^3
#
#
#
# Elastic Constant Matrix: (Units=GPa)
#
#
# Indices 1 2 3 4 5 6 
#
# 1 95.7696 47.1030 45.7741 0.0000 0.0000 0.0000
# 2 47.1030 89.7476 40.5909 0.0000 0.0000 0.0000
# 3 45.7741 40.5909 91.7338 0.0000 0.0000 0.0000
# 4 0.0000 0.0000 0.0000 19.3667 0.0000 0.0000
# 5 0.0000 0.0000 0.0000 0.0000 29.2137 0.0000
# 6 0.0000 0.0000 0.0000 0.0000 0.0000 16.1589
#
#
#
# Elastic Compliance Matrix: (Units=1/GPa)
#
#
# Indices 1 2 3 4 5 6 
#
# 1 0.015901 -0.005947 -0.005303 0.000000 0.000000 0.000000
# 2 -0.005947 0.016154 -0.004181 0.000000 0.000000 0.000000
# 3 -0.005303 -0.004181 0.015397 0.000000 0.000000 0.000000
# 4 0.000000 0.000000 0.000000 0.051635 0.000000 0.000000
# 5 0.000000 0.000000 0.000000 0.000000 0.034230 0.000000
# 6 0.000000 0.000000 0.000000 0.000000 0.000000 0.061885
#
#
# Mechanical properties :
#
#
# Convention : Reuss Voigt Hill
#
# Bulk Modulus (GPa) = 60.27231 60.46520 60.36875
# Shear Modulus (GPa) = 21.58933 22.53340 22.06136
#
# Velocity S-wave (km/s) = 3.57754 3.65493 3.61644
# Velocity P-wave (km/s) = 7.26611 7.32509 7.29566
#
# Compressibility (1/GPa) = 0.01659137
#
# Stress axis : x y z
#
# Youngs Moduli (GPa) = 62.88737 61.90242 64.94727
#
# Poissons Ratio (x) = 0.36815 0.34442
# Poissons Ratio (y) = 0.37401 0.27151
# Poissons Ratio (z) = 0.33350 0.25878
#
# Static dielectric constant tensor:
#      x y z
#    x 3.224090 0.000000 0.000000 
#    y 0.000000 2.977980 0.000000 
#    z 0.000000 0.000000 3.309220 
# 
# 
# High freq. dielectric constant tensor:
#      x y z
#    x 1.649550 0.000000 0.000000 
#    y 0.000000 1.629060 0.000000 
#    z 0.000000 0.000000 1.665000 
# 
# From -- ./inp_files/56223.got.cif
#   From: 2010.03.12/outbox.cif.g09.slc.cpg/sg65_29_cif.got.tgz:56223.got - 2010.04.10 20:52:16.
