data_PCOD8266419
_publ_section_title
;
Structure prediction by ZEFSAII (Michael W. Deem and Ramdas Pophale) SiO2 
 PCOD8266419
Probable space group: C M M M
;
_chemical_formula_sum "Si O2"
_cell_formula_units_Z 88
_cell_length_a 8.857329
_cell_length_b 23.624283
_cell_length_c 23.115863
_cell_angle_alpha 90.000000
_cell_angle_beta 90.000000
_cell_angle_gamma 90.000000
_cell_volume 4836.949186
_symmetry_space_group_name_H-M "C M M M"
_symmetry_group_IT_number 65
_symmetry_cell_setting 'orthorhombic'
loop_
_space_group_symop_operation_xyz
x,y,z
-x,-y,z
x,-y,-z
-x,y,-z
-x,-y,-z
x,y,-z
-x,y,z
x,-y,z
1/2+x,1/2+y,z
1/2-x,1/2-y,z
1/2+x,1/2-y,-z
1/2-x,1/2+y,-z
1/2-x,1/2-y,-z
1/2+x,1/2+y,-z
1/2-x,1/2+y,z
1/2+x,1/2-y,z
loop_
_atom_site_type_symbol
_atom_site_label
_atom_site_fract_x
_atom_site_fract_y
_atom_site_fract_z
Si Si1 0.177918 0.811002 0.385032
Si Si2 0.178547 0.500000 0.243987
Si Si3 0.674503 0.610274 0.934454
Si Si4 0.676412 0.614019 0.274353
Si Si5 0.680459 0.812353 0.500000
Si Si6 0.677262 0.310659 0.167870
Si Si7 0.322126 0.000000 0.112957
O O1 0.250000 0.750000 0.371876
O O2 0.214594 0.851557 0.331879
O O3 0.254762 0.840729 0.441396
O O4 0.000000 0.803242 0.395265
O O5 0.237148 0.445138 0.277693
O O6 0.242722 0.500000 0.178294
O O7 0.000000 0.500000 0.244681
O O8 0.500000 0.595331 0.923624
O O9 0.726090 0.661311 0.892877
O O10 0.768693 0.554586 0.921585
O O11 0.704529 0.630158 0.000000
O O12 0.500000 0.601470 0.268211
O O13 0.736580 0.649500 0.219492
O O14 0.500000 0.812471 0.500000
O O15 0.750000 0.750000 0.500000
O O16 0.500000 0.302301 0.172785
O O17 0.750000 0.250000 0.173732
O O18 0.500000 0.000000 0.114556
#
# Coordination Sequence:
#
# PCOD8266419 Si02
#       7
#    16   8  16  16   8  16   8
#     4  10  19  32  53  82 113 146 183 221 264 314
#     4  11  23  36  56  82 107 136 175 222 272 319
#     4  10  21  37  57  78 103 140 180 217 264 324
#     4  10  21  37  57  79 106 143 180 218 268 320
#     4  10  18  30  50  77 112 151 184 220 264 306
#     4  10  21  36  54  77 106 139 176 217 263 319
#     4  11  22  36  55  82 107 133 171 224 277 316
#
# _framework density 18.193286000000001
#
# number of rings (size 3 to 8) (size 9 to 14) (size 15 to 20)
#    0.000    1.818    1.818    3.818    0.000    5.455 
#    0.000    0.000    0.000    0.545    0.000    3.818 
#    0.000    0.000    0.000    0.000    0.000    0.000 
#
# Total GULP energy -545692.193911 kJ/mol
# GULP energy per Si atom -12402.095316 kJ/mol
# Density = 1.815188 g / cm^3
# Si number density = 18.193286 Si / 1000 Ang^3
#
#
#
# Elastic Constant Matrix: (Units=GPa)
#
#
# Indices 1 2 3 4 5 6 
#
# 1 73.9216 47.3313 55.7088 0.0000 0.0000 0.0000
# 2 47.3313 129.1125 64.4723 0.0000 0.0000 0.0000
# 3 55.7088 64.4723 153.8999 0.0000 0.0000 0.0000
# 4 0.0000 0.0000 0.0000 26.3803 0.0000 0.0000
# 5 0.0000 0.0000 0.0000 0.0000 25.5962 0.0000
# 6 0.0000 0.0000 0.0000 0.0000 0.0000 30.5062
#
#
#
# Elastic Compliance Matrix: (Units=1/GPa)
#
#
# Indices 1 2 3 4 5 6 
#
# 1 0.020782 -0.004884 -0.005477 0.000000 0.000000 0.000000
# 2 -0.004884 0.010942 -0.002816 0.000000 0.000000 0.000000
# 3 -0.005477 -0.002816 0.009660 0.000000 0.000000 0.000000
# 4 0.000000 0.000000 0.000000 0.037907 0.000000 0.000000
# 5 0.000000 0.000000 0.000000 0.000000 0.039068 0.000000
# 6 0.000000 0.000000 0.000000 0.000000 0.000000 0.032780
#
#
# Mechanical properties :
#
#
# Convention : Reuss Voigt Hill
#
# Bulk Modulus (GPa) = 66.52983 76.88433 71.70708
# Shear Modulus (GPa) = 27.39685 29.12465 28.26075
#
# Velocity S-wave (km/s) = 3.88477 4.00540 3.94555
# Velocity P-wave (km/s) = 7.53457 7.98388 7.76248
#
# Compressibility (1/GPa) = 0.01503085
#
# Stress axis : x y z
#
# Youngs Moduli (GPa) = 48.11782 91.39421 103.52060
#
# Poissons Ratio (x) = 0.44634 0.56697
# Poissons Ratio (y) = 0.23499 0.29150
# Poissons Ratio (z) = 0.26354 0.25736
#
# Static dielectric constant tensor:
#      x y z
#    x 3.325290 0.000000 0.000000 
#    y 0.000000 3.579760 0.000000 
#    z 0.000000 0.000000 3.851770 
# 
# 
# High freq. dielectric constant tensor:
#      x y z
#    x 1.706370 0.000000 0.000000 
#    y 0.000000 1.687260 0.000000 
#    z 0.000000 0.000000 1.718710 
# 
# From -- ./inp_files/67646.got.cif
#   From: 2010.03.12/outbox.cif.g09.slc.cpg/sg65_34_cif.got.tgz:67646.got - 2010.04.10 20:52:16.
