data_PCOD8266184
_publ_section_title
;
Structure prediction by ZEFSAII (Michael W. Deem and Ramdas Pophale) SiO2 
 PCOD8266184
Probable space group: C M M M
;
_chemical_formula_sum "Si O2"
_cell_formula_units_Z 72
_cell_length_a 9.339806
_cell_length_b 28.353006
_cell_length_c 18.022023
_cell_angle_alpha 90.000000
_cell_angle_beta 90.000000
_cell_angle_gamma 90.000000
_cell_volume 4772.440305
_symmetry_space_group_name_H-M "C M M M"
_symmetry_group_IT_number 65
_symmetry_cell_setting 'orthorhombic'
loop_
_space_group_symop_operation_xyz
x,y,z
-x,-y,z
x,-y,-z
-x,y,-z
-x,-y,-z
x,y,-z
-x,y,z
x,-y,z
1/2+x,1/2+y,z
1/2-x,1/2-y,z
1/2+x,1/2-y,-z
1/2-x,1/2+y,-z
1/2-x,1/2-y,-z
1/2+x,1/2+y,-z
1/2-x,1/2+y,z
1/2+x,1/2-y,z
loop_
_atom_site_type_symbol
_atom_site_label
_atom_site_fract_x
_atom_site_fract_y
_atom_site_fract_z
Si Si1 0.168152 0.604982 0.146440
Si Si2 0.332284 0.555155 0.722589
Si Si3 0.334432 0.795129 0.084688
Si Si4 0.329892 0.052904 0.000000
Si Si5 0.660167 0.055916 0.418265
O O1 0.256095 0.585835 0.215236
O O2 0.199786 0.660401 0.136874
O O3 0.000000 0.595103 0.158796
O O4 0.226580 0.578781 0.073267
O O5 0.500000 0.565125 0.724244
O O6 0.297588 0.500000 0.735512
O O7 0.271865 0.573392 0.643599
O O8 0.500000 0.782222 0.087871
O O9 0.250000 0.750000 0.115730
O O10 0.288964 0.807025 0.000000
O O11 0.500000 0.054272 0.000000
O O12 0.269418 0.000000 0.000000
O O13 0.705794 0.075050 0.500000
O O14 0.500000 0.073953 0.398551
O O15 0.660235 0.000000 0.420396
#
# Coordination Sequence:
#
# PCOD8266184 Si02
#       5
#    16  16  16   8  16
#     4  10  18  30  46  63  83 111 150 188 218 256
#     4  10  20  30  40  60  91 122 149 179 218 261
#     4   9  17  30  47  66  85 105 137 182 229 273
#     4   9  16  26  42  61  79 107 149 189 216 241
#     4   8  14  26  44  63  82 109 147 184 215 251
#
# _framework density 15.086622
#
# number of rings (size 3 to 8) (size 9 to 14) (size 15 to 20)
#    0.000    2.778    1.111    2.000    0.000    3.556 
#    0.000    2.778    0.000    2.000    0.000    0.000 
#    0.000    0.889    0.000    2.889    0.000    3.556 
#
# Total GULP energy -446278.896131 kJ/mol
# GULP energy per Si atom -12396.636004 kJ/mol
# Density = 1.505228 g / cm^3
# Si number density = 15.086622 Si / 1000 Ang^3
#
#
#
# Elastic Constant Matrix: (Units=GPa)
#
#
# Indices 1 2 3 4 5 6 
#
# 1 74.3219 47.3895 62.5271 0.0000 0.0000 0.0000
# 2 47.3895 78.1807 50.8436 0.0000 0.0000 0.0000
# 3 62.5271 50.8436 125.4177 0.0000 0.0000 0.0000
# 4 0.0000 0.0000 0.0000 4.1734 0.0000 0.0000
# 5 0.0000 0.0000 0.0000 0.0000 16.1515 0.0000
# 6 0.0000 0.0000 0.0000 0.0000 0.0000 21.6843
#
#
#
# Elastic Compliance Matrix: (Units=1/GPa)
#
#
# Indices 1 2 3 4 5 6 
#
# 1 0.028810 -0.011031 -0.009892 0.000000 0.000000 0.000000
# 2 -0.011031 0.021594 -0.003255 0.000000 0.000000 0.000000
# 3 -0.009892 -0.003255 0.014224 0.000000 0.000000 0.000000
# 4 0.000000 0.000000 0.000000 0.239611 0.000000 0.000000
# 5 0.000000 0.000000 0.000000 0.000000 0.061914 0.000000
# 6 0.000000 0.000000 0.000000 0.000000 0.000000 0.046116
#
#
# Mechanical properties :
#
#
# Convention : Reuss Voigt Hill
#
# Bulk Modulus (GPa) = 61.44593 66.60453 64.02523
# Shear Modulus (GPa) = 10.72852 16.21252 13.47052
#
# Velocity S-wave (km/s) = 2.66959 3.28171 2.99135
# Velocity P-wave (km/s) = 7.09362 7.65529 7.37980
#
# Compressibility (1/GPa) = 0.01627447
#
# Stress axis : x y z
#
# Youngs Moduli (GPa) = 34.70997 46.30980 70.30242
#
# Poissons Ratio (x) = 0.51082 0.69540
# Poissons Ratio (y) = 0.38287 0.22881
# Poissons Ratio (z) = 0.34334 0.15072
#
# Static dielectric constant tensor:
#      x y z
#    x 2.841000 0.000000 0.000000 
#    y 0.000000 2.716750 0.000000 
#    z 0.000000 0.000000 3.079490 
# 
# 
# High freq. dielectric constant tensor:
#      x y z
#    x 1.569840 0.000000 0.000000 
#    y 0.000000 1.544250 0.000000 
#    z 0.000000 0.000000 1.573210 
# 
# From -- ./inp_files/49746.got.cif
#   From: 2010.03.12/outbox.cif.g09.slc.cpg/sg65_25_cif.got.tgz:49746.got - 2010.04.10 20:52:16.
