data_PCOD8266744
_publ_section_title
;
Structure prediction by ZEFSAII (Michael W. Deem and Ramdas Pophale) SiO2 
 PCOD8266744
Probable space group: C M M M
;
_chemical_formula_sum "Si O2"
_cell_formula_units_Z 88
_cell_length_a 8.701356
_cell_length_b 28.545149
_cell_length_c 21.090563
_cell_angle_alpha 90.000000
_cell_angle_beta 90.000000
_cell_angle_gamma 90.000000
_cell_volume 5238.505748
_symmetry_space_group_name_H-M "C M M M"
_symmetry_group_IT_number 65
_symmetry_cell_setting 'orthorhombic'
loop_
_space_group_symop_operation_xyz
x,y,z
-x,-y,z
x,-y,-z
-x,y,-z
-x,-y,-z
x,y,-z
-x,y,z
x,-y,z
1/2+x,1/2+y,z
1/2-x,1/2-y,z
1/2+x,1/2-y,-z
1/2-x,1/2+y,-z
1/2-x,1/2-y,-z
1/2+x,1/2+y,-z
1/2-x,1/2+y,z
1/2+x,1/2-y,z
loop_
_atom_site_type_symbol
_atom_site_label
_atom_site_fract_x
_atom_site_fract_y
_atom_site_fract_z
Si Si1 0.317814 0.947458 0.569957
Si Si2 0.683322 0.886576 0.313495
Si Si3 0.673930 0.555593 0.068823
Si Si4 0.819235 0.552679 0.195963
Si Si5 0.816442 0.698145 0.500000
Si Si6 0.182141 0.198730 0.370916
O O1 0.270761 0.927928 0.500000
O O2 0.500000 0.949085 0.575501
O O3 0.252860 0.915024 0.625682
O O4 0.252326 0.000000 0.578666
O O5 0.500000 0.880689 0.313853
O O6 0.743076 0.913591 0.251146
O O7 0.763939 0.835593 0.314382
O O8 0.500000 0.572682 0.078528
O O9 0.683042 0.500000 0.068209
O O10 0.773255 0.574702 0.127745
O O11 0.735286 0.574090 0.000000
O O12 0.750804 0.500000 0.204702
O O13 0.000000 0.549890 0.200339
O O14 0.750000 0.750000 0.500000
O O15 0.752234 0.675283 0.435417
O O16 0.000000 0.696527 0.500000
O O17 0.250000 0.250000 0.357689
O O18 0.000000 0.202559 0.375808
#
# Coordination Sequence:
#
# PCOD8266744 Si02
#       6
#    16  16  16  16   8  16
#     4   8  14  25  42  64  87 114 153 193 223 259
#     4  10  19  30  46  68  93 122 155 192 232 276
#     4   8  14  25  41  61  87 121 159 195 230 270
#     4   9  17  28  43  66  97 129 160 194 228 268
#     4  10  18  32  52  70  87 108 137 178 232 285
#     4  11  22  36  51  69  91 116 148 190 238 288
#
# _framework density 16.798683
#
# number of rings (size 3 to 8) (size 9 to 14) (size 15 to 20)
#    0.000    2.727    0.000    5.182    1.273    3.273 
#    0.000    1.818    0.000    1.636    0.000    1.273 
#    0.000    0.727    0.000    2.364    0.000    3.455 
#
# Total GULP energy -545253.027725 kJ/mol
# GULP energy per Si atom -12392.114266 kJ/mol
# Density = 1.676045 g / cm^3
# Si number density = 16.798683 Si / 1000 Ang^3
#
#
#
# Elastic Constant Matrix: (Units=GPa)
#
#
# Indices 1 2 3 4 5 6 
#
# 1 63.2758 25.2020 32.3317 0.0000 0.0000 0.0000
# 2 25.2020 68.5541 60.5591 0.0000 0.0000 0.0000
# 3 32.3317 60.5591 142.0736 0.0000 0.0000 0.0000
# 4 0.0000 0.0000 0.0000 13.3082 0.0000 0.0000
# 5 0.0000 0.0000 0.0000 0.0000 22.6469 0.0000
# 6 0.0000 0.0000 0.0000 0.0000 0.0000 16.2604
#
#
#
# Elastic Compliance Matrix: (Units=1/GPa)
#
#
# Indices 1 2 3 4 5 6 
#
# 1 0.018916 -0.005054 -0.002150 0.000000 0.000000 0.000000
# 2 -0.005054 0.024747 -0.009398 0.000000 0.000000 0.000000
# 3 -0.002150 -0.009398 0.011534 0.000000 0.000000 0.000000
# 4 0.000000 0.000000 0.000000 0.075141 0.000000 0.000000
# 5 0.000000 0.000000 0.000000 0.000000 0.044156 0.000000
# 6 0.000000 0.000000 0.000000 0.000000 0.000000 0.061499
#
#
# Mechanical properties :
#
#
# Convention : Reuss Voigt Hill
#
# Bulk Modulus (GPa) = 45.47291 56.67656 51.07473
# Shear Modulus (GPa) = 18.08123 20.83051 19.45587
#
# Velocity S-wave (km/s) = 3.28433 3.52520 3.40689
# Velocity P-wave (km/s) = 6.44287 7.09798 6.77834
#
# Compressibility (1/GPa) = 0.02199112
#
# Stress axis : x y z
#
# Youngs Moduli (GPa) = 52.86649 40.40824 86.70007
#
# Poissons Ratio (x) = 0.20424 0.18642
# Poissons Ratio (y) = 0.26721 0.81484
# Poissons Ratio (z) = 0.11367 0.37977
#
# Static dielectric constant tensor:
#      x y z
#    x 2.898590 0.000000 0.000000 
#    y 0.000000 3.025230 0.000000 
#    z 0.000000 0.000000 3.676260 
# 
# 
# High freq. dielectric constant tensor:
#      x y z
#    x 1.626890 0.000000 0.000000 
#    y 0.000000 1.614770 0.000000 
#    z 0.000000 0.000000 1.642450 
# 
# From -- ./inp_files/60647.got.cif
#   From: 2010.03.12/outbox.cif.g09.slc.cpg/sg65_31_cif.got.tgz:60647.got - 2010.04.10 20:52:16.
