data_PCOD8266487
_publ_section_title
;
Structure prediction by ZEFSAII (Michael W. Deem and Ramdas Pophale) SiO2 
 PCOD8266487
Probable space group: C M M M
;
_chemical_formula_sum "Si O2"
_cell_formula_units_Z 72
_cell_length_a 18.951091
_cell_length_b 8.935409
_cell_length_c 23.351668
_cell_angle_alpha 90.000000
_cell_angle_beta 90.000000
_cell_angle_gamma 90.000000
_cell_volume 3954.272193
_symmetry_space_group_name_H-M "C M M M"
_symmetry_group_IT_number 65
_symmetry_cell_setting 'orthorhombic'
loop_
_space_group_symop_operation_xyz
x,y,z
-x,-y,z
x,-y,-z
-x,y,-z
-x,-y,-z
x,y,-z
-x,y,z
x,-y,z
1/2+x,1/2+y,z
1/2-x,1/2-y,z
1/2+x,1/2-y,-z
1/2-x,1/2+y,-z
1/2-x,1/2-y,-z
1/2+x,1/2+y,-z
1/2-x,1/2+y,z
1/2+x,1/2-y,z
loop_
_atom_site_type_symbol
_atom_site_label
_atom_site_fract_x
_atom_site_fract_y
_atom_site_fract_z
Si Si1 0.420528 0.677265 0.000000
Si Si2 0.824675 0.672918 0.343711
Si Si3 0.917804 0.171028 0.435442
Si Si4 0.672781 0.678277 0.893510
Si Si5 0.674360 0.175378 0.781959
O O1 0.378144 0.732633 0.944312
O O2 0.424923 0.500000 0.000000
O O3 0.500000 0.744719 0.000000
O O4 0.808998 0.500000 0.351186
O O5 0.750000 0.750000 0.352348
O O6 0.878773 0.722190 0.391765
O O7 0.859858 0.703777 0.280780
O O8 0.891625 0.204310 0.500000
O O9 0.000000 0.205570 0.430705
O O10 0.901663 0.000000 0.419168
O O11 0.680079 0.500000 0.891102
O O12 0.750000 0.750000 0.902608
O O13 0.635898 0.740546 0.834856
O O14 0.750000 0.250000 0.778506
O O15 0.680128 0.000000 0.796008
#
# Coordination Sequence:
#
# PCOD8266487 Si02
#       5
#     8  16  16  16  16
#     4   9  19  34  49  69  98 129 162 200 240 283
#     4  10  20  33  52  77 104 134 166 205 251 297
#     4   9  19  36  55  74  99 132 169 209 251 296
#     4  10  18  30  52  75  96 125 161 201 240 285
#     4   9  17  30  48  72 101 128 159 200 242 287
#
# _framework density 18.208154
#
# number of rings (size 3 to 8) (size 9 to 14) (size 15 to 20)
#    0.000    2.556    0.000    4.333    0.000    4.000 
#    0.000    3.889    0.000    9.333    0.000    0.000 
#    0.000    0.000    0.000    0.000    0.000    0.000 
#
# Total GULP energy -446122.265532 kJ/mol
# GULP energy per Si atom -12392.285154 kJ/mol
# Density = 1.816671 g / cm^3
# Si number density = 18.208154 Si / 1000 Ang^3
#
#
#
# Elastic Constant Matrix: (Units=GPa)
#
#
# Indices 1 2 3 4 5 6 
#
# 1 63.9554 34.1154 61.5940 0.0000 0.0000 0.0000
# 2 34.1154 91.2357 63.6137 0.0000 0.0000 0.0000
# 3 61.5940 63.6137 163.9892 0.0000 0.0000 0.0000
# 4 0.0000 0.0000 0.0000 31.5310 0.0000 0.0000
# 5 0.0000 0.0000 0.0000 0.0000 -5.1473 0.0000
# 6 0.0000 0.0000 0.0000 0.0000 0.0000 24.0784
#
#
#
# Elastic Compliance Matrix: (Units=1/GPa)
#
#
# Indices 1 2 3 4 5 6 
#
# 1 0.025477 -0.003913 -0.008051 0.000000 0.000000 0.000000
# 2 -0.003913 0.015625 -0.004592 0.000000 0.000000 0.000000
# 3 -0.008051 -0.004592 0.010903 0.000000 0.000000 0.000000
# 4 0.000000 0.000000 0.000000 0.031715 0.000000 0.000000
# 5 0.000000 0.000000 0.000000 0.000000 -0.194276 0.000000
# 6 0.000000 0.000000 0.000000 0.000000 0.000000 0.041531
#
#
# Mechanical properties :
#
#
# Convention : Reuss Voigt Hill
#
# Bulk Modulus (GPa) = 52.92669 70.86961 61.89815
# Shear Modulus (GPa) = -168.82950 20.74957 -74.03997
#
# Velocity S-wave (km/s) = -9.63967 3.37942 -6.38368
# Velocity P-wave (km/s) = 9.73483 7.36436 4.50184
#
# Compressibility (1/GPa) = 0.01889406
#
# Stress axis : x y z
#
# Youngs Moduli (GPa) = 39.25084 63.99922 91.71639
#
# Poissons Ratio (x) = 0.25042 0.73844
# Poissons Ratio (y) = 0.15358 0.42112
# Poissons Ratio (z) = 0.31602 0.29386
#
# Static dielectric constant tensor:
#      x y z
#    x 3.052650 0.000000 0.000000 
#    y 0.000000 3.366340 0.000000 
#    z 0.000000 0.000000 4.181790 
# 
# 
# High freq. dielectric constant tensor:
#      x y z
#    x 1.665490 0.000000 0.000000 
#    y 0.000000 1.707250 0.000000 
#    z 0.000000 0.000000 1.730720 
# 
# From -- ./inp_files/67110.got.cif
#   From: 2010.03.12/outbox.cif.g09.slc.cpg/sg65_34_cif.got.tgz:67110.got - 2010.04.10 20:52:16.
