data_PCOD8266205
_publ_section_title
;
Structure prediction by ZEFSAII (Michael W. Deem and Ramdas Pophale) SiO2 
 PCOD8266205
Probable space group: C M M M
;
_chemical_formula_sum "Si O2"
_cell_formula_units_Z 88
_cell_length_a 27.262630
_cell_length_b 8.651503
_cell_length_c 21.587641
_cell_angle_alpha 90.000000
_cell_angle_beta 90.000000
_cell_angle_gamma 90.000000
_cell_volume 5091.719838
_symmetry_space_group_name_H-M "C M M M"
_symmetry_group_IT_number 65
_symmetry_cell_setting 'orthorhombic'
loop_
_space_group_symop_operation_xyz
x,y,z
-x,-y,z
x,-y,-z
-x,y,-z
-x,-y,-z
x,y,-z
-x,y,z
x,-y,z
1/2+x,1/2+y,z
1/2-x,1/2-y,z
1/2+x,1/2-y,-z
1/2-x,1/2+y,-z
1/2-x,1/2-y,-z
1/2+x,1/2+y,-z
1/2-x,1/2+y,z
1/2+x,1/2-y,z
loop_
_atom_site_type_symbol
_atom_site_label
_atom_site_fract_x
_atom_site_fract_y
_atom_site_fract_z
Si Si1 0.195664 0.816178 0.000000
Si Si2 0.304123 0.817312 0.125865
Si Si3 0.851601 0.817320 0.756396
Si Si4 0.300471 0.182137 0.358044
Si Si5 0.945535 0.181227 0.682779
Si Si6 0.103772 0.318470 0.431098
O O1 0.250000 0.750000 0.000000
O O2 0.171319 0.751239 0.937064
O O3 0.194834 0.000000 0.000000
O O4 0.250000 0.750000 0.138613
O O5 0.341182 0.770521 0.180028
O O6 0.299599 0.000000 0.120502
O O7 0.811004 0.767529 0.706652
O O8 0.905279 0.761023 0.732517
O O9 0.849055 0.000000 0.767360
O O10 0.250000 0.250000 0.384947
O O11 0.341906 0.225291 0.407826
O O12 0.297073 0.000000 0.346218
O O13 0.936798 0.251176 0.614923
O O14 0.000000 0.229216 0.705602
O O15 0.940349 0.000000 0.675208
O O16 0.096543 0.248974 0.500000
O O17 0.096675 0.500000 0.432434
#
# Coordination Sequence:
#
# PCOD8266205 Si02
#       6
#     8  16  16  16  16  16
#     4  10  18  30  46  68  99 134 169 198 228 265
#     4  11  20  31  47  70 101 134 166 196 229 268
#     4  10  19  32  49  69  93 122 157 194 234 280
#     4  10  19  31  46  65  91 122 156 193 232 275
#     4   9  19  35  53  72  93 117 149 193 241 286
#     4   9  19  34  49  67  92 121 153 189 231 283
#
# _framework density 17.282961
#
# number of rings (size 3 to 8) (size 9 to 14) (size 15 to 20)
#    0.000    2.182    0.000    5.182    0.000    2.909 
#    0.000    1.818    0.000    0.000    0.000    0.636 
#    0.000    5.091    0.000    0.000    0.000    0.000 
#
# Total GULP energy -545566.651374 kJ/mol
# GULP energy per Si atom -12399.242077 kJ/mol
# Density = 1.724362 g / cm^3
# Si number density = 17.282961 Si / 1000 Ang^3
#
#
#
# Elastic Constant Matrix: (Units=GPa)
#
#
# Indices 1 2 3 4 5 6 
#
# 1 78.9844 27.0544 40.7883 0.0000 0.0000 0.0000
# 2 27.0544 85.0240 40.5613 0.0000 0.0000 0.0000
# 3 40.7883 40.5613 136.4780 0.0000 0.0000 0.0000
# 4 0.0000 0.0000 0.0000 28.5692 0.0000 0.0000
# 5 0.0000 0.0000 0.0000 0.0000 16.9229 0.0000
# 6 0.0000 0.0000 0.0000 0.0000 0.0000 20.9872
#
#
#
# Elastic Compliance Matrix: (Units=1/GPa)
#
#
# Indices 1 2 3 4 5 6 
#
# 1 0.015689 -0.003211 -0.003735 0.000000 0.000000 0.000000
# 2 -0.003211 0.014361 -0.003309 0.000000 0.000000 0.000000
# 3 -0.003735 -0.003309 0.009427 0.000000 0.000000 0.000000
# 4 0.000000 0.000000 0.000000 0.035003 0.000000 0.000000
# 5 0.000000 0.000000 0.000000 0.000000 0.059092 0.000000
# 6 0.000000 0.000000 0.000000 0.000000 0.000000 0.047648
#
#
# Mechanical properties :
#
#
# Convention : Reuss Voigt Hill
#
# Bulk Modulus (GPa) = 52.71685 57.47715 55.09700
# Shear Modulus (GPa) = 24.03261 26.10135 25.06698
#
# Velocity S-wave (km/s) = 3.73304 3.89039 3.81253
# Velocity P-wave (km/s) = 7.01065 7.31498 7.16443
#
# Compressibility (1/GPa) = 0.01896927
#
# Stress axis : x y z
#
# Youngs Moduli (GPa) = 63.73865 69.63106 106.08159
#
# Poissons Ratio (x) = 0.22355 0.39618
# Poissons Ratio (y) = 0.20464 0.35099
# Poissons Ratio (z) = 0.23805 0.23039
#
# Static dielectric constant tensor:
#      x y z
#    x 3.209640 0.000000 0.000000 
#    y 0.000000 3.254970 0.000000 
#    z 0.000000 0.000000 3.693630 
# 
# 
# High freq. dielectric constant tensor:
#      x y z
#    x 1.641780 0.000000 0.000000 
#    y 0.000000 1.677560 0.000000 
#    z 0.000000 0.000000 1.666310 
# 
# From -- ./inp_files/60304.got.cif
#   From: 2010.03.12/outbox.cif.g09.slc.cpg/sg65_31_cif.got.tgz:60304.got - 2010.04.10 20:52:16.
