data_PCOD8266722
_publ_section_title
;
Structure prediction by ZEFSAII (Michael W. Deem and Ramdas Pophale) SiO2 
 PCOD8266722
Probable space group: C M M M
;
_chemical_formula_sum "Si O2"
_cell_formula_units_Z 96
_cell_length_a 21.983213
_cell_length_b 26.114283
_cell_length_c 9.146667
_cell_angle_alpha 90.000000
_cell_angle_beta 90.000000
_cell_angle_gamma 90.000000
_cell_volume 5250.880592
_symmetry_space_group_name_H-M "C M M M"
_symmetry_group_IT_number 65
_symmetry_cell_setting 'orthorhombic'
loop_
_space_group_symop_operation_xyz
x,y,z
-x,-y,z
x,-y,-z
-x,y,-z
-x,-y,-z
x,y,-z
-x,y,z
x,-y,z
1/2+x,1/2+y,z
1/2-x,1/2-y,z
1/2+x,1/2-y,-z
1/2-x,1/2+y,-z
1/2-x,1/2-y,-z
1/2+x,1/2+y,-z
1/2-x,1/2+y,z
1/2+x,1/2-y,z
loop_
_atom_site_type_symbol
_atom_site_label
_atom_site_fract_x
_atom_site_fract_y
_atom_site_fract_z
Si Si1 0.500000 0.939812 0.668919
Si Si2 0.250000 0.250000 0.739503
Si Si3 0.882915 0.603061 0.172466
Si Si4 0.626850 0.206370 0.662494
Si Si5 0.743089 0.943720 0.173101
Si Si6 0.685296 0.348738 0.164852
Si Si7 0.931776 0.205343 0.171339
O O1 0.500000 0.923419 0.500000
O O2 0.441643 0.917182 0.746728
O O3 0.500000 0.000000 0.688982
O O4 0.307785 0.233849 0.642967
O O5 0.270844 0.299036 0.834551
O O6 0.865344 0.658392 0.232423
O O7 0.827401 0.565489 0.211338
O O8 0.895202 0.606424 0.000000
O O9 0.604097 0.191241 0.500000
O O10 0.576903 0.242813 0.737432
O O11 0.784630 0.898376 0.245269
O O12 0.761836 0.000000 0.234567
O O13 0.750666 0.942490 0.000000
O O14 0.618082 0.335937 0.229328
O O15 0.675955 0.365829 0.000000
O O16 0.000000 0.184239 0.197840
O O17 0.920494 0.217482 0.000000
#
# Coordination Sequence:
#
# PCOD8266722 Si02
#       7
#     8   8  16  16  16  16  16
#     4  11  25  43  59  77 105 143 185 229 278 323
#     4  10  18  32  50  74 105 140 173 216 267 332
#     4  11  22  37  57  79 104 140 185 228 268 317
#     4  11  22  34  51  77 109 141 174 218 272 325
#     4   9  17  30  51  80 107 132 170 220 268 312
#     4   9  16  28  50  77 105 136 173 219 266 318
#     4   9  19  34  52  74 103 140 180 217 259 317
#
# _framework density 18.282647999999998
#
# number of rings (size 3 to 8) (size 9 to 14) (size 15 to 20)
#    0.000    2.083    1.667    2.250    1.167    3.000 
#    0.000    0.000    0.000    0.500    0.000    3.500 
#    0.000    0.000    0.000    4.333    0.000    4.167 
#
# Total GULP energy -594831.696721 kJ/mol
# GULP energy per Si atom -12392.327015 kJ/mol
# Density = 1.824104 g / cm^3
# Si number density = 18.282648 Si / 1000 Ang^3
#
#
#
# Elastic Constant Matrix: (Units=GPa)
#
#
# Indices 1 2 3 4 5 6 
#
# 1 126.9373 64.5387 29.7974 0.0000 0.0000 0.0000
# 2 64.5387 133.8794 24.7303 0.0000 0.0000 0.0000
# 3 29.7974 24.7303 63.5549 0.0000 0.0000 0.0000
# 4 0.0000 0.0000 0.0000 11.1912 0.0000 0.0000
# 5 0.0000 0.0000 0.0000 0.0000 11.7856 0.0000
# 6 0.0000 0.0000 0.0000 0.0000 0.0000 23.2843
#
#
#
# Elastic Compliance Matrix: (Units=1/GPa)
#
#
# Indices 1 2 3 4 5 6 
#
# 1 0.011061 -0.004713 -0.003352 0.000000 0.000000 0.000000
# 2 -0.004713 0.010056 -0.001703 0.000000 0.000000 0.000000
# 3 -0.003352 -0.001703 0.017969 0.000000 0.000000 0.000000
# 4 0.000000 0.000000 0.000000 0.089356 0.000000 0.000000
# 5 0.000000 0.000000 0.000000 0.000000 0.084850 0.000000
# 6 0.000000 0.000000 0.000000 0.000000 0.000000 0.042947
#
#
# Mechanical properties :
#
#
# Convention : Reuss Voigt Hill
#
# Bulk Modulus (GPa) = 51.15289 62.50050 56.82669
# Shear Modulus (GPa) = 17.71220 22.93923 20.32572
#
# Velocity S-wave (km/s) = 3.11593 3.54602 3.33791
# Velocity P-wave (km/s) = 6.40195 7.14322 6.78272
#
# Compressibility (1/GPa) = 0.01954924
#
# Stress axis : x y z
#
# Youngs Moduli (GPa) = 90.40812 99.44318 55.65207
#
# Poissons Ratio (x) = 0.46867 0.18655
# Poissons Ratio (y) = 0.42609 0.09479
# Poissons Ratio (z) = 0.30305 0.16938
#
# Static dielectric constant tensor:
#      x y z
#    x 3.503840 0.000000 0.000000 
#    y 0.000000 3.691550 0.000000 
#    z 0.000000 0.000000 3.078460 
# 
# 
# High freq. dielectric constant tensor:
#      x y z
#    x 1.712110 0.000000 0.000000 
#    y 0.000000 1.702150 0.000000 
#    z 0.000000 0.000000 1.679640 
# 
# From -- ./inp_files/14371.got.cif
#   From: 2010.03.12/outbox.cif.g09.slc.cpg/sg65_8_cif.got.tgz:14371.got - 2010.04.10 20:52:16.
