data_PCOD8266054
_publ_section_title
;
Structure prediction by ZEFSAII (Michael W. Deem and Ramdas Pophale) SiO2 
 PCOD8266054
Probable space group: C M M M
;
_chemical_formula_sum "Si O2"
_cell_formula_units_Z 80
_cell_length_a 8.002588
_cell_length_b 25.660921
_cell_length_c 23.936608
_cell_angle_alpha 90.000000
_cell_angle_beta 90.000000
_cell_angle_gamma 90.000000
_cell_volume 4915.472896
_symmetry_space_group_name_H-M "C M M M"
_symmetry_group_IT_number 65
_symmetry_cell_setting 'orthorhombic'
loop_
_space_group_symop_operation_xyz
x,y,z
-x,-y,z
x,-y,-z
-x,y,-z
-x,-y,-z
x,y,-z
-x,y,z
x,-y,z
1/2+x,1/2+y,z
1/2-x,1/2-y,z
1/2+x,1/2-y,-z
1/2-x,1/2+y,-z
1/2-x,1/2-y,-z
1/2+x,1/2+y,-z
1/2-x,1/2+y,z
1/2+x,1/2-y,z
loop_
_atom_site_type_symbol
_atom_site_label
_atom_site_fract_x
_atom_site_fract_y
_atom_site_fract_z
Si Si1 0.000000 0.937780 0.563298
Si Si2 0.684925 0.938102 0.367433
Si Si3 0.696458 0.807116 0.936993
Si Si4 0.305774 0.596368 0.132031
Si Si5 0.194715 0.060573 0.248972
Si Si6 0.800032 0.000000 0.937460
O O1 0.832088 0.915554 0.593071
O O2 0.000000 0.917240 0.500000
O O3 0.000000 0.000000 0.565430
O O4 0.500000 0.920024 0.388213
O O5 0.708901 0.919011 0.303724
O O6 0.698164 0.000000 0.368406
O O7 0.500000 0.813002 0.935400
O O8 0.750000 0.750000 0.916820
O O9 0.775812 0.847248 0.893863
O O10 0.764398 0.817353 0.000000
O O11 0.500000 0.584406 0.136435
O O12 0.235515 0.592624 0.195340
O O13 0.226994 0.551388 0.093027
O O14 0.000000 0.070256 0.260231
O O15 0.229914 0.000000 0.236991
O O16 0.000000 0.000000 0.938356
O O17 0.728088 0.000000 0.000000
#
# Coordination Sequence:
#
# PCOD8266054 Si02
#       6
#     8  16  16  16  16   8
#     4   9  16  26  38  54  78 110 148 192 230 262
#     4   9  16  25  38  56  78 110 148 188 229 266
#     4  10  21  36  51  65  83 110 146 190 235 281
#     4  10  18  29  47  70  89 114 147 183 224 275
#     4   9  15  26  42  60  87 116 147 182 220 267
#     4   9  16  26  41  65  93 117 143 176 221 276
#
# _framework density 16.275138999999999
#
# number of rings (size 3 to 8) (size 9 to 14) (size 15 to 20)
#    0.000    2.600    2.000    1.200    0.000    3.200 
#    0.000    2.500    0.000    1.800    0.000    0.000 
#    0.000    0.000    0.000    0.000    0.000    1.000 
#
# Total GULP energy -495815.947413 kJ/mol
# GULP energy per Si atom -12395.398685 kJ/mol
# Density = 1.623810 g / cm^3
# Si number density = 16.275139 Si / 1000 Ang^3
#
#
#
# Elastic Constant Matrix: (Units=GPa)
#
#
# Indices 1 2 3 4 5 6 
#
# 1 69.3802 9.7109 49.9517 0.0000 0.0000 0.0000
# 2 9.7109 55.5783 36.2834 0.0000 0.0000 0.0000
# 3 49.9517 36.2834 133.7589 0.0000 0.0000 0.0000
# 4 0.0000 0.0000 0.0000 11.9952 0.0000 0.0000
# 5 0.0000 0.0000 0.0000 0.0000 15.2334 0.0000
# 6 0.0000 0.0000 0.0000 0.0000 0.0000 12.9145
#
#
#
# Elastic Compliance Matrix: (Units=1/GPa)
#
#
# Indices 1 2 3 4 5 6 
#
# 1 0.019840 0.001665 -0.007861 0.000000 0.000000 0.000000
# 2 0.001665 0.022004 -0.006591 0.000000 0.000000 0.000000
# 3 -0.007861 -0.006591 0.012200 0.000000 0.000000 0.000000
# 4 0.000000 0.000000 0.000000 0.083366 0.000000 0.000000
# 5 0.000000 0.000000 0.000000 0.000000 0.065645 0.000000
# 6 0.000000 0.000000 0.000000 0.000000 0.000000 0.077432
#
#
# Mechanical properties :
#
#
# Convention : Reuss Voigt Hill
#
# Bulk Modulus (GPa) = 35.12331 50.06771 42.59551
# Shear Modulus (GPa) = 15.84533 18.88006 17.36269
#
# Velocity S-wave (km/s) = 3.12363 3.40965 3.26977
# Velocity P-wave (km/s) = 5.88534 6.80669 6.36271
#
# Compressibility (1/GPa) = 0.02847112
#
# Stress axis : x y z
#
# Youngs Moduli (GPa) = 50.40364 45.44549 81.97018
#
# Poissons Ratio (x) = -0.07568 0.64435
# Poissons Ratio (y) = -0.08394 0.54025
# Poissons Ratio (z) = 0.39622 0.29952
#
# Static dielectric constant tensor:
#      x y z
#    x 3.074100 0.000000 0.000000 
#    y 0.000000 2.556550 0.000000 
#    z 0.000000 0.000000 3.239630 
# 
# 
# High freq. dielectric constant tensor:
#      x y z
#    x 1.626060 0.000000 0.000000 
#    y 0.000000 1.559650 0.000000 
#    z 0.000000 0.000000 1.626730 
# 
# From -- ./inp_files/67764.got.cif
#   From: 2010.03.12/outbox.cif.g09.slc.cpg/sg65_34_cif.got.tgz:67764.got - 2010.04.10 20:52:16.
