data_PCOD8266345
_publ_section_title
;
Structure prediction by ZEFSAII (Michael W. Deem and Ramdas Pophale) SiO2 
 PCOD8266345
Probable space group: C M M M
;
_chemical_formula_sum "Si O2"
_cell_formula_units_Z 72
_cell_length_a 27.285961
_cell_length_b 8.887177
_cell_length_c 16.132315
_cell_angle_alpha 90.000000
_cell_angle_beta 90.000000
_cell_angle_gamma 90.000000
_cell_volume 3912.008388
_symmetry_space_group_name_H-M "C M M M"
_symmetry_group_IT_number 65
_symmetry_cell_setting 'orthorhombic'
loop_
_space_group_symop_operation_xyz
x,y,z
-x,-y,z
x,-y,-z
-x,y,-z
-x,-y,-z
x,y,-z
-x,y,z
x,-y,z
1/2+x,1/2+y,z
1/2-x,1/2-y,z
1/2+x,1/2-y,-z
1/2-x,1/2+y,-z
1/2-x,1/2-y,-z
1/2+x,1/2+y,-z
1/2-x,1/2+y,z
1/2+x,1/2-y,z
loop_
_atom_site_type_symbol
_atom_site_label
_atom_site_fract_x
_atom_site_fract_y
_atom_site_fract_z
Si Si1 0.554999 0.823635 0.239750
Si Si2 0.303472 0.819623 0.500000
Si Si3 0.351421 0.176970 0.666773
Si Si4 0.893275 0.173456 0.906028
Si Si5 0.198894 0.322398 0.166057
O O1 0.500000 0.787962 0.270554
O O2 0.593436 0.767635 0.310146
O O3 0.564752 0.739153 0.153517
O O4 0.562827 0.000000 0.222696
O O5 0.250000 0.750000 0.500000
O O6 0.332798 0.755306 0.420112
O O7 0.299323 0.000000 0.500000
O O8 0.314613 0.226027 0.739980
O O9 0.351894 0.000000 0.657188
O O10 0.842463 0.262068 0.895592
O O11 0.884165 0.000000 0.883773
O O12 0.911742 0.193431 0.000000
O O13 0.202409 0.500000 0.156514
O O14 0.250000 0.250000 0.140170
#
# Coordination Sequence:
#
# PCOD8266345 Si02
#       5
#    16   8  16  16  16
#     4   9  18  34  54  73  96 128 164 201 245 296
#     4  10  18  30  49  73 103 133 162 198 239 282
#     4   8  16  30  48  72 100 129 162 200 239 284
#     4  10  21  35  50  71  98 126 161 205 249 294
#     4  10  19  32  50  71  98 132 168 203 243 293
#
# _framework density 18.404868
#
# number of rings (size 3 to 8) (size 9 to 14) (size 15 to 20)
#    0.000    2.667    0.000    3.333    0.000    3.111 
#    0.000    7.222    0.000    3.333    0.000    0.000 
#    0.000    8.000    0.000    0.000    0.000    0.000 
#
# Total GULP energy -446316.593583 kJ/mol
# GULP energy per Si atom -12397.683155 kJ/mol
# Density = 1.836298 g / cm^3
# Si number density = 18.404868 Si / 1000 Ang^3
#
#
#
# Elastic Constant Matrix: (Units=GPa)
#
#
# Indices 1 2 3 4 5 6 
#
# 1 128.9893 31.7026 44.7990 0.0000 0.0000 0.0000
# 2 31.7026 58.1967 26.5487 0.0000 0.0000 0.0000
# 3 44.7990 26.5487 107.4812 0.0000 0.0000 0.0000
# 4 0.0000 0.0000 0.0000 17.4144 0.0000 0.0000
# 5 0.0000 0.0000 0.0000 0.0000 17.8228 0.0000
# 6 0.0000 0.0000 0.0000 0.0000 0.0000 27.3827
#
#
#
# Elastic Compliance Matrix: (Units=1/GPa)
#
#
# Indices 1 2 3 4 5 6 
#
# 1 0.009797 -0.003915 -0.003116 0.000000 0.000000 0.000000
# 2 -0.003915 0.020930 -0.003538 0.000000 0.000000 0.000000
# 3 -0.003116 -0.003538 0.011477 0.000000 0.000000 0.000000
# 4 0.000000 0.000000 0.000000 0.057424 0.000000 0.000000
# 5 0.000000 0.000000 0.000000 0.000000 0.056108 0.000000
# 6 0.000000 0.000000 0.000000 0.000000 0.000000 0.036519
#
#
# Mechanical properties :
#
#
# Convention : Reuss Voigt Hill
#
# Bulk Modulus (GPa) = 47.47304 55.64084 51.55694
# Shear Modulus (GPa) = 22.68438 25.29844 23.99141
#
# Velocity S-wave (km/s) = 3.51454 3.71152 3.61437
# Velocity P-wave (km/s) = 6.50531 6.97598 6.74475
#
# Compressibility (1/GPa) = 0.02106459
#
# Stress axis : x y z
#
# Youngs Moduli (GPa) = 102.06947 47.77845 87.13230
#
# Poissons Ratio (x) = 0.18707 0.27154
# Poissons Ratio (y) = 0.39964 0.30827
# Poissons Ratio (z) = 0.31809 0.16904
#
# Static dielectric constant tensor:
#      x y z
#    x 3.474590 0.000000 0.000000 
#    y 0.000000 3.224410 0.000000 
#    z 0.000000 0.000000 3.562150 
# 
# 
# High freq. dielectric constant tensor:
#      x y z
#    x 1.715730 0.000000 0.000000 
#    y 0.000000 1.697320 0.000000 
#    z 0.000000 0.000000 1.705090 
# 
# From -- ./inp_files/36522.got.cif
#   From: 2010.03.12/outbox.cif.g09.slc.cpg/sg65_19_cif.got.tgz:36522.got - 2010.04.10 20:52:16.
