data_PCOD8266843
_publ_section_title
;
Structure prediction by ZEFSAII (Michael W. Deem and Ramdas Pophale) SiO2 
 PCOD8266843
Probable space group: C M M M
;
_chemical_formula_sum "Si O2"
_cell_formula_units_Z 88
_cell_length_a 8.952145
_cell_length_b 26.660827
_cell_length_c 19.472960
_cell_angle_alpha 90.000000
_cell_angle_beta 90.000000
_cell_angle_gamma 90.000000
_cell_volume 4647.642308
_symmetry_space_group_name_H-M "C M M M"
_symmetry_group_IT_number 65
_symmetry_cell_setting 'orthorhombic'
loop_
_space_group_symop_operation_xyz
x,y,z
-x,-y,z
x,-y,-z
-x,y,-z
-x,-y,-z
x,y,-z
-x,y,z
x,-y,z
1/2+x,1/2+y,z
1/2-x,1/2-y,z
1/2+x,1/2-y,-z
1/2-x,1/2+y,-z
1/2-x,1/2-y,-z
1/2+x,1/2+y,-z
1/2-x,1/2+y,z
1/2+x,1/2-y,z
loop_
_atom_site_type_symbol
_atom_site_label
_atom_site_fract_x
_atom_site_fract_y
_atom_site_fract_z
Si Si1 0.164538 0.296730 0.419624
Si Si2 0.677123 0.500000 0.922513
Si Si3 0.322965 0.445366 0.286883
Si Si4 0.175475 0.302121 0.079772
Si Si5 0.322994 0.602177 0.850544
Si Si6 0.322870 0.398701 0.575873
O O1 0.146106 0.287146 0.500000
O O2 0.250000 0.250000 0.384989
O O3 0.264776 0.344380 0.404617
O O4 0.000000 0.302806 0.386350
O O5 0.500000 0.500000 0.917951
O O6 0.735135 0.448660 0.887571
O O7 0.736627 0.500000 0.000000
O O8 0.500000 0.447248 0.290310
O O9 0.261118 0.500000 0.265014
O O10 0.277702 0.404230 0.229813
O O11 0.260888 0.434025 0.363460
O O12 0.250000 0.250000 0.104664
O O13 0.240950 0.348833 0.121622
O O14 0.000000 0.298272 0.093497
O O15 0.212336 0.311368 0.000000
O O16 0.500000 0.609136 0.861151
O O17 0.264839 0.416171 0.500000
O O18 0.500000 0.396870 0.575129
#
# Coordination Sequence:
#
# PCOD8266843 Si02
#       6
#    16   8  16  16  16  16
#     4   9  16  27  45  68  94 122 154 198 253 309
#     4   9  16  26  47  79 106 132 170 211 251 301
#     4   9  17  31  51  75 103 136 174 217 266 313
#     4  10  21  37  57  82 112 145 180 219 263 312
#     4  10  18  32  54  79 108 142 180 221 262 312
#     4   9  17  29  47  72 100 131 171 217 263 313
#
# _framework density 18.934331
#
# number of rings (size 3 to 8) (size 9 to 14) (size 15 to 20)
#    0.000    2.636    0.909    1.636    0.000    4.364 
#    0.000    4.091    0.000    3.273    0.000    2.545 
#    0.000    0.000    0.000    0.000    0.000    0.000 
#
# Total GULP energy -545242.944965 kJ/mol
# GULP energy per Si atom -12391.885113 kJ/mol
# Density = 1.889124 g / cm^3
# Si number density = 18.934331 Si / 1000 Ang^3
#
#
#
# Elastic Constant Matrix: (Units=GPa)
#
#
# Indices 1 2 3 4 5 6 
#
# 1 26.5032 31.7456 32.8667 0.0000 0.0000 0.0000
# 2 31.7456 148.3961 75.1667 0.0000 0.0000 0.0000
# 3 32.8667 75.1667 121.2370 0.0000 0.0000 0.0000
# 4 0.0000 0.0000 0.0000 23.3819 0.0000 0.0000
# 5 0.0000 0.0000 0.0000 0.0000 12.8543 0.0000
# 6 0.0000 0.0000 0.0000 0.0000 0.0000 24.2859
#
#
#
# Elastic Compliance Matrix: (Units=1/GPa)
#
#
# Indices 1 2 3 4 5 6 
#
# 1 0.061261 -0.006842 -0.012366 0.000000 0.000000 0.000000
# 2 -0.006842 0.010588 -0.004710 0.000000 0.000000 0.000000
# 3 -0.012366 -0.004710 0.014521 0.000000 0.000000 0.000000
# 4 0.000000 0.000000 0.000000 0.042768 0.000000 0.000000
# 5 0.000000 0.000000 0.000000 0.000000 0.077795 0.000000
# 6 0.000000 0.000000 0.000000 0.000000 0.000000 0.041176
#
#
# Mechanical properties :
#
#
# Convention : Reuss Voigt Hill
#
# Bulk Modulus (GPa) = 25.95022 63.96605 44.95813
# Shear Modulus (GPa) = 16.19233 22.52824 19.36029
#
# Velocity S-wave (km/s) = 2.92752 3.45310 3.20112
# Velocity P-wave (km/s) = 5.01621 7.05372 6.12035
#
# Compressibility (1/GPa) = 0.03853532
#
# Stress axis : x y z
#
# Youngs Moduli (GPa) = 16.32358 94.44684 68.86750
#
# Poissons Ratio (x) = 0.64618 0.85160
# Poissons Ratio (y) = 0.11168 0.32435
# Poissons Ratio (z) = 0.20185 0.44482
#
# Static dielectric constant tensor:
#      x y z
#    x 3.238460 0.000000 0.000000 
#    y 0.000000 3.607800 0.000000 
#    z 0.000000 0.000000 3.650870 
# 
# 
# High freq. dielectric constant tensor:
#      x y z
#    x 1.702990 0.000000 0.000000 
#    y 0.000000 1.740510 0.000000 
#    z 0.000000 0.000000 1.723740 
# 
# From -- ./inp_files/59815.got.cif
#   From: 2010.03.12/outbox.cif.g09.slc.cpg/sg65_30_cif.got.tgz:59815.got - 2010.04.10 20:52:16.
