data_PCOD8266142
_publ_section_title
;
Structure prediction by ZEFSAII (Michael W. Deem and Ramdas Pophale) SiO2 
 PCOD8266142
Probable space group: C M M M
;
_chemical_formula_sum "Si O2"
_cell_formula_units_Z 96
_cell_length_a 18.980066
_cell_length_b 22.220485
_cell_length_c 13.118430
_cell_angle_alpha 90.000000
_cell_angle_beta 90.000000
_cell_angle_gamma 90.000000
_cell_volume 5532.648945
_symmetry_space_group_name_H-M "C M M M"
_symmetry_group_IT_number 65
_symmetry_cell_setting 'orthorhombic'
loop_
_space_group_symop_operation_xyz
x,y,z
-x,-y,z
x,-y,-z
-x,y,-z
-x,-y,-z
x,y,-z
-x,y,z
x,-y,z
1/2+x,1/2+y,z
1/2-x,1/2-y,z
1/2+x,1/2-y,-z
1/2-x,1/2+y,-z
1/2-x,1/2-y,-z
1/2+x,1/2+y,-z
1/2-x,1/2+y,z
1/2+x,1/2-y,z
loop_
_atom_site_type_symbol
_atom_site_label
_atom_site_fract_x
_atom_site_fract_y
_atom_site_fract_z
Si Si1 0.416656 0.880078 0.275166
Si Si2 0.083439 0.865045 0.298276
Si Si3 0.176973 0.567835 0.118135
Si Si4 0.839260 0.930152 0.882388
Si Si5 0.583761 0.567730 0.500000
Si Si6 0.916596 0.259829 0.386032
Si Si7 0.083449 0.500000 0.611841
O O1 0.500000 0.878767 0.254025
O O2 0.374259 0.883209 0.169588
O O3 0.390330 0.821734 0.336116
O O4 0.391090 0.939106 0.335103
O O5 0.115504 0.889209 0.193286
O O6 0.112179 0.900932 0.397158
O O7 0.106724 0.795745 0.314719
O O8 0.000000 0.871816 0.289055
O O9 0.157690 0.500000 0.153429
O O10 0.257943 0.581689 0.143774
O O11 0.162924 0.574585 0.000000
O O12 0.858551 0.000000 0.865049
O O13 0.855609 0.912438 0.000000
O O14 0.612098 0.500000 0.500000
O O15 0.500000 0.571261 0.500000
O O16 0.884403 0.253636 0.500000
O O17 0.000000 0.260644 0.395813
O O18 0.117117 0.500000 0.500000
O O19 0.000000 0.500000 0.606213
#
# Coordination Sequence:
#
# PCOD8266142 Si02
#       7
#    16  16  16  16   8  16   8
#     4  10  18  29  50  77 100 128 168 211 250 293
#     4  10  18  31  52  76 103 134 169 208 248 297
#     4   9  18  34  53  71  98 133 165 206 261 311
#     4   9  19  35  54  74  99 135 171 206 256 309
#     4   9  16  26  46  76 101 123 158 206 257 297
#     4   9  17  31  50  73 103 140 171 197 244 307
#     4   9  16  26  43  71 101 125 155 202 252 294
#
# _framework density 17.351545000000002
#
# number of rings (size 3 to 8) (size 9 to 14) (size 15 to 20)
#    0.000    2.667    1.667    2.000    0.000    3.667 
#    0.000    3.333    3.667    6.000    0.000    0.000 
#    0.000    0.000    0.000    0.000    0.000    0.000 
#
# Total GULP energy -595006.723187 kJ/mol
# GULP energy per Si atom -12395.973400 kJ/mol
# Density = 1.731205 g / cm^3
# Si number density = 17.351545 Si / 1000 Ang^3
#
#
#
# Elastic Constant Matrix: (Units=GPa)
#
#
# Indices 1 2 3 4 5 6 
#
# 1 38.6613 35.3638 46.7840 0.0000 0.0000 0.0000
# 2 35.3638 140.0941 72.9309 0.0000 0.0000 0.0000
# 3 46.7840 72.9309 119.1325 0.0000 0.0000 0.0000
# 4 0.0000 0.0000 0.0000 32.9591 0.0000 0.0000
# 5 0.0000 0.0000 0.0000 0.0000 6.8850 0.0000
# 6 0.0000 0.0000 0.0000 0.0000 0.0000 16.2570
#
#
#
# Elastic Compliance Matrix: (Units=1/GPa)
#
#
# Indices 1 2 3 4 5 6 
#
# 1 0.050466 -0.003555 -0.017642 0.000000 0.000000 0.000000
# 2 -0.003555 0.010727 -0.005171 0.000000 0.000000 0.000000
# 3 -0.017642 -0.005171 0.018488 0.000000 0.000000 0.000000
# 4 0.000000 0.000000 0.000000 0.030341 0.000000 0.000000
# 5 0.000000 0.000000 0.000000 0.000000 0.145243 0.000000
# 6 0.000000 0.000000 0.000000 0.000000 0.000000 0.061512
#
#
# Mechanical properties :
#
#
# Convention : Reuss Voigt Hill
#
# Bulk Modulus (GPa) = 37.11245 67.56060 52.33652
# Shear Modulus (GPa) = 13.21024 20.74084 16.97554
#
# Velocity S-wave (km/s) = 2.76221 3.46111 3.13122
# Velocity P-wave (km/s) = 5.62211 7.41574 6.58032
#
# Compressibility (1/GPa) = 0.02694514
#
# Stress axis : x y z
#
# Youngs Moduli (GPa) = 19.81532 93.21891 54.08972
#
# Poissons Ratio (x) = 0.33139 0.95425
# Poissons Ratio (y) = 0.07044 0.27970
# Poissons Ratio (z) = 0.34958 0.48205
#
# Static dielectric constant tensor:
#      x y z
#    x 2.854990 0.000000 0.000000 
#    y 0.000000 3.344930 0.000000 
#    z 0.000000 0.000000 3.288510 
# 
# 
# High freq. dielectric constant tensor:
#      x y z
#    x 1.629810 0.000000 0.000000 
#    y 0.000000 1.669310 0.000000 
#    z 0.000000 0.000000 1.677360 
# 
# From -- ./inp_files/29055.got.cif
#   From: 2010.03.12/outbox.cif.g09.slc.cpg/sg65_15_cif.got.tgz:29055.got - 2010.04.10 20:52:16.
