data_PCOD8266753
_publ_section_title
;
Structure prediction by ZEFSAII (Michael W. Deem and Ramdas Pophale) SiO2 
 PCOD8266753
Probable space group: C M M M
;
_chemical_formula_sum "Si O2"
_cell_formula_units_Z 72
_cell_length_a 33.657462
_cell_length_b 8.595610
_cell_length_c 15.537240
_cell_angle_alpha 90.000000
_cell_angle_beta 90.000000
_cell_angle_gamma 90.000000
_cell_volume 4495.023234
_symmetry_space_group_name_H-M "C M M M"
_symmetry_group_IT_number 65
_symmetry_cell_setting 'orthorhombic'
loop_
_space_group_symop_operation_xyz
x,y,z
-x,-y,z
x,-y,-z
-x,y,-z
-x,-y,-z
x,y,-z
-x,y,z
x,-y,z
1/2+x,1/2+y,z
1/2-x,1/2-y,z
1/2+x,1/2-y,-z
1/2-x,1/2+y,-z
1/2-x,1/2-y,-z
1/2+x,1/2+y,-z
1/2-x,1/2+y,z
1/2+x,1/2-y,z
loop_
_atom_site_type_symbol
_atom_site_label
_atom_site_fract_x
_atom_site_fract_y
_atom_site_fract_z
Si Si1 0.206400 0.183633 0.000000
Si Si2 0.840024 0.817120 0.167747
Si Si3 0.293744 0.182872 0.324942
Si Si4 0.500000 0.675237 0.897857
Si Si5 0.205924 0.184208 0.500000
Si Si6 0.918008 0.682084 0.899830
O O1 0.250000 0.250000 0.000000
O O2 0.183479 0.243870 0.915963
O O3 0.208362 0.000000 0.000000
O O4 0.823271 0.724624 0.248539
O O5 0.886154 0.776901 0.155815
O O6 0.834479 0.000000 0.182516
O O7 0.250000 0.250000 0.306167
O O8 0.313773 0.252134 0.412170
O O9 0.289504 0.000000 0.334620
O O10 0.500000 0.500000 0.861003
O O11 0.538871 0.766356 0.865090
O O12 0.500000 0.673207 0.000000
O O13 0.250000 0.250000 0.500000
O O14 0.205160 0.000000 0.500000
O O15 0.912366 0.500000 0.884562
O O16 0.912959 0.726477 0.000000
#
# Coordination Sequence:
#
# PCOD8266753 Si02
#       6
#     8  16  16   8   8  16
#     4  10  22  34  46  61  86 123 164 202 235 272
#     4  11  21  34  48  67  93 127 164 201 239 283
#     4  11  21  34  50  71  95 124 159 200 244 289
#     4   9  17  29  47  67  89 120 155 194 237 285
#     4  10  18  32  52  72  92 119 152 195 244 292
#     4  10  19  31  47  68  93 123 158 198 240 284
#
# _framework density 16.017714999999999
#
# number of rings (size 3 to 8) (size 9 to 14) (size 15 to 20)
#    0.000    1.667    1.111    6.667    0.000    5.778 
#    0.000    0.000    0.000    0.000    0.000    0.000 
#    0.000    0.889    0.000    8.889    0.000    5.333 
#
# Total GULP energy -446459.587973 kJ/mol
# GULP energy per Si atom -12401.655221 kJ/mol
# Density = 1.598126 g / cm^3
# Si number density = 16.017715 Si / 1000 Ang^3
#
#
#
# Elastic Constant Matrix: (Units=GPa)
#
#
# Indices 1 2 3 4 5 6 
#
# 1 97.4843 24.0947 39.9494 0.0000 0.0000 0.0000
# 2 24.0947 98.6594 36.2386 0.0000 0.0000 0.0000
# 3 39.9494 36.2386 103.0284 0.0000 0.0000 0.0000
# 4 0.0000 0.0000 0.0000 22.5814 0.0000 0.0000
# 5 0.0000 0.0000 0.0000 0.0000 6.4776 0.0000
# 6 0.0000 0.0000 0.0000 0.0000 0.0000 29.5384
#
#
#
# Elastic Compliance Matrix: (Units=1/GPa)
#
#
# Indices 1 2 3 4 5 6 
#
# 1 0.012373 -0.001446 -0.004289 0.000000 0.000000 0.000000
# 2 -0.001446 0.011809 -0.003593 0.000000 0.000000 0.000000
# 3 -0.004289 -0.003593 0.012633 0.000000 0.000000 0.000000
# 4 0.000000 0.000000 0.000000 0.044284 0.000000 0.000000
# 5 0.000000 0.000000 0.000000 0.000000 0.154378 0.000000
# 6 0.000000 0.000000 0.000000 0.000000 0.000000 0.033854
#
#
# Mechanical properties :
#
#
# Convention : Reuss Voigt Hill
#
# Bulk Modulus (GPa) = 55.07036 55.52639 55.29837
# Shear Modulus (GPa) = 17.00447 24.97877 20.99162
#
# Velocity S-wave (km/s) = 3.26176 3.95327 3.62405
# Velocity P-wave (km/s) = 6.97431 7.45511 7.21871
#
# Compressibility (1/GPa) = 0.01815859
#
# Stress axis : x y z
#
# Youngs Moduli (GPa) = 80.81981 84.68292 79.15900
#
# Poissons Ratio (x) = 0.12249 0.33951
# Poissons Ratio (y) = 0.11690 0.28439
# Poissons Ratio (z) = 0.34663 0.30424
#
# Static dielectric constant tensor:
#      x y z
#    x 2.948430 0.000000 0.000000 
#    y 0.000000 3.156050 0.000000 
#    z 0.000000 0.000000 3.259160 
# 
# 
# High freq. dielectric constant tensor:
#      x y z
#    x 1.598420 0.000000 0.000000 
#    y 0.000000 1.635360 0.000000 
#    z 0.000000 0.000000 1.591300 
# 
# From -- ./inp_files/47538.got.cif
#   From: 2010.03.12/outbox.cif.g09.slc.cpg/sg65_24_cif.got.tgz:47538.got - 2010.04.10 20:52:16.
