data_PCOD8266799
_publ_section_title
;
Structure prediction by ZEFSAII (Michael W. Deem and Ramdas Pophale) SiO2 
 PCOD8266799
Probable space group: C M M M
;
_chemical_formula_sum "Si O2"
_cell_formula_units_Z 80
_cell_length_a 18.419366
_cell_length_b 8.673811
_cell_length_c 25.836555
_cell_angle_alpha 90.000000
_cell_angle_beta 90.000000
_cell_angle_gamma 90.000000
_cell_volume 4127.805615
_symmetry_space_group_name_H-M "C M M M"
_symmetry_group_IT_number 65
_symmetry_cell_setting 'orthorhombic'
loop_
_space_group_symop_operation_xyz
x,y,z
-x,-y,z
x,-y,-z
-x,y,-z
-x,-y,-z
x,y,-z
-x,y,z
x,-y,z
1/2+x,1/2+y,z
1/2-x,1/2-y,z
1/2+x,1/2-y,-z
1/2-x,1/2+y,-z
1/2-x,1/2-y,-z
1/2+x,1/2+y,-z
1/2-x,1/2+y,z
1/2+x,1/2-y,z
loop_
_atom_site_type_symbol
_atom_site_label
_atom_site_fract_x
_atom_site_fract_y
_atom_site_fract_z
Si Si1 0.914276 0.174540 0.806626
Si Si2 0.671238 0.820209 0.896404
Si Si3 0.830544 0.817499 0.000000
Si Si4 0.170591 0.182961 0.594784
Si Si5 0.919446 0.182911 0.691548
Si Si6 0.085574 0.679179 0.500000
O O1 0.878199 0.290213 0.846828
O O2 0.892907 0.231805 0.748870
O O3 0.000000 0.181510 0.813469
O O4 0.886379 0.000000 0.816263
O O5 0.750000 0.750000 0.886021
O O6 0.679533 0.000000 0.906278
O O7 0.632519 0.744571 0.947186
O O8 0.750000 0.750000 0.000000
O O9 0.831339 0.000000 0.000000
O O10 0.250000 0.250000 0.586575
O O11 0.137707 0.244053 0.649195
O O12 0.117855 0.240578 0.550251
O O13 0.174926 0.000000 0.593022
O O14 0.000000 0.251243 0.680101
O O15 0.924878 0.000000 0.689373
O O16 0.106509 0.500000 0.500000
O O17 0.000000 0.705927 0.500000
#
# Coordination Sequence:
#
# PCOD8266799 Si02
#       6
#    16  16   8  16  16   8
#     4   9  18  35  57  80 109 143 178 219 269 322
#     4  11  21  34  53  78 108 140 179 223 268 320
#     4  10  18  32  53  76 103 136 177 221 271 325
#     4  11  22  37  58  84 115 147 182 224 271 320
#     4   8  16  33  57  81 105 139 182 223 265 319
#     4  11  24  41  60  83 111 143 182 227 274 325
#
# _framework density 19.380756999999999
#
# number of rings (size 3 to 8) (size 9 to 14) (size 15 to 20)
#    0.000    2.100    0.000    6.900    0.000    2.800 
#    0.000    4.500    0.000    5.400    0.000    0.000 
#    0.000    0.000    0.000    0.000    0.000    0.000 
#
# Total GULP energy -495956.452068 kJ/mol
# GULP energy per Si atom -12398.911302 kJ/mol
# Density = 1.933665 g / cm^3
# Si number density = 19.380757 Si / 1000 Ang^3
#
#
#
# Elastic Constant Matrix: (Units=GPa)
#
#
# Indices 1 2 3 4 5 6 
#
# 1 66.9078 32.5537 55.5789 0.0000 0.0000 0.0000
# 2 32.5537 112.5358 52.8999 0.0000 0.0000 0.0000
# 3 55.5789 52.8999 165.2324 0.0000 0.0000 0.0000
# 4 0.0000 0.0000 0.0000 19.1978 0.0000 0.0000
# 5 0.0000 0.0000 0.0000 0.0000 63.9869 0.0000
# 6 0.0000 0.0000 0.0000 0.0000 0.0000 20.8043
#
#
#
# Elastic Compliance Matrix: (Units=1/GPa)
#
#
# Indices 1 2 3 4 5 6 
#
# 1 0.021770 -0.003361 -0.006247 0.000000 0.000000 0.000000
# 2 -0.003361 0.010979 -0.002384 0.000000 0.000000 0.000000
# 3 -0.006247 -0.002384 0.008917 0.000000 0.000000 0.000000
# 4 0.000000 0.000000 0.000000 0.052089 0.000000 0.000000
# 5 0.000000 0.000000 0.000000 0.000000 0.015628 0.000000
# 6 0.000000 0.000000 0.000000 0.000000 0.000000 0.048067
#
#
# Mechanical properties :
#
#
# Convention : Reuss Voigt Hill
#
# Bulk Modulus (GPa) = 56.55631 69.63787 63.09709
# Shear Modulus (GPa) = 26.69098 34.37404 30.53251
#
# Velocity S-wave (km/s) = 3.71508 4.21600 3.97344
# Velocity P-wave (km/s) = 6.90271 7.72716 7.32654
#
# Compressibility (1/GPa) = 0.01768149
#
# Stress axis : x y z
#
# Youngs Moduli (GPa) = 45.93399 91.08105 112.14931
#
# Poissons Ratio (x) = 0.30614 0.70057
# Poissons Ratio (y) = 0.15439 0.26741
# Poissons Ratio (z) = 0.28694 0.21718
#
# Static dielectric constant tensor:
#      x y z
#    x 3.395660 0.000000 0.000000 
#    y 0.000000 3.429630 0.000000 
#    z 0.000000 0.000000 4.186130 
# 
# 
# High freq. dielectric constant tensor:
#      x y z
#    x 1.736310 0.000000 0.000000 
#    y 0.000000 1.743500 0.000000 
#    z 0.000000 0.000000 1.776990 
# 
# From -- ./inp_files/75062.got.cif
#   From: 2010.03.12/outbox.cif.g09.slc.cpg/sg65_38_cif.got.tgz:75062.got - 2010.04.10 20:52:16.
