data_PCOD8266847
_publ_section_title
;
Structure prediction by ZEFSAII (Michael W. Deem and Ramdas Pophale) SiO2 
 PCOD8266847
Probable space group: C M M M
;
_chemical_formula_sum "Si O2"
_cell_formula_units_Z 72
_cell_length_a 18.733298
_cell_length_b 8.596732
_cell_length_c 23.251901
_cell_angle_alpha 90.000000
_cell_angle_beta 90.000000
_cell_angle_gamma 90.000000
_cell_volume 3744.605707
_symmetry_space_group_name_H-M "C M M M"
_symmetry_group_IT_number 65
_symmetry_cell_setting 'orthorhombic'
loop_
_space_group_symop_operation_xyz
x,y,z
-x,-y,z
x,-y,-z
-x,y,-z
-x,-y,-z
x,y,-z
-x,y,z
x,-y,z
1/2+x,1/2+y,z
1/2-x,1/2-y,z
1/2+x,1/2-y,-z
1/2-x,1/2+y,-z
1/2-x,1/2-y,-z
1/2+x,1/2+y,-z
1/2-x,1/2+y,z
1/2+x,1/2-y,z
loop_
_atom_site_type_symbol
_atom_site_label
_atom_site_fract_x
_atom_site_fract_y
_atom_site_fract_z
Si Si1 0.329138 0.316059 0.222320
Si Si2 0.172600 0.680620 0.337413
Si Si3 0.916612 0.822426 0.565279
Si Si4 0.829284 0.683927 0.895473
Si Si5 0.416227 0.318010 0.000000
O O1 0.330506 0.500000 0.216194
O O2 0.250000 0.250000 0.227195
O O3 0.366085 0.261799 0.281923
O O4 0.363522 0.242157 0.164955
O O5 0.180702 0.500000 0.324022
O O6 0.250000 0.750000 0.350451
O O7 0.124271 0.705782 0.393068
O O8 0.893378 0.785729 0.500000
O O9 0.000000 0.793166 0.572873
O O10 0.897066 0.000000 0.580907
O O11 0.824018 0.500000 0.896039
O O12 0.750000 0.750000 0.905467
O O13 0.882258 0.741080 0.944212
O O14 0.399376 0.500000 0.000000
O O15 0.500000 0.282942 0.000000
#
# Coordination Sequence:
#
# PCOD8266847 Si02
#       5
#    16  16  16  16   8
#     4  10  18  32  54  80 110 141 177 220 268 318
#     4  11  21  34  54  81 112 143 178 221 269 319
#     4   9  19  37  58  78 104 140 180 222 270 323
#     4  11  21  36  59  85 112 142 182 224 265 317
#     4  11  24  41  58  79 111 147 182 223 274 323
#
# _framework density 19.227658000000002
#
# number of rings (size 3 to 8) (size 9 to 14) (size 15 to 20)
#    0.000    1.667    0.000   10.000    0.000    2.222 
#    0.000    2.222    0.000    6.667    0.000    0.000 
#    0.000    0.000    0.000    0.000    0.000    0.000 
#
# Total GULP energy -446377.922367 kJ/mol
# GULP energy per Si atom -12399.386732 kJ/mol
# Density = 1.918389 g / cm^3
# Si number density = 19.227658 Si / 1000 Ang^3
#
#
#
# Elastic Constant Matrix: (Units=GPa)
#
#
# Indices 1 2 3 4 5 6 
#
# 1 53.3218 45.4379 54.4498 0.0000 0.0000 0.0000
# 2 45.4379 166.8541 64.4971 0.0000 0.0000 0.0000
# 3 54.4498 64.4971 162.9252 0.0000 0.0000 0.0000
# 4 0.0000 0.0000 0.0000 68.3674 0.0000 0.0000
# 5 0.0000 0.0000 0.0000 0.0000 -13.7474 0.0000
# 6 0.0000 0.0000 0.0000 0.0000 0.0000 25.5525
#
#
#
# Elastic Compliance Matrix: (Units=1/GPa)
#
#
# Indices 1 2 3 4 5 6 
#
# 1 0.032166 -0.005436 -0.008598 0.000000 0.000000 0.000000
# 2 -0.005436 0.007995 -0.001348 0.000000 0.000000 0.000000
# 3 -0.008598 -0.001348 0.009545 0.000000 0.000000 0.000000
# 4 0.000000 0.000000 0.000000 0.014627 0.000000 0.000000
# 5 0.000000 0.000000 0.000000 0.000000 -0.072741 0.000000
# 6 0.000000 0.000000 0.000000 0.000000 0.000000 0.039135
#
#
# Mechanical properties :
#
#
# Convention : Reuss Voigt Hill
#
# Bulk Modulus (GPa) = 52.79400 79.09673 65.94536
# Shear Modulus (GPa) = 73.74040 30.61558 52.17799
#
# Velocity S-wave (km/s) = 6.19955 3.99465 5.21496
# Velocity P-wave (km/s) = 8.87485 7.90586 8.40433
#
# Compressibility (1/GPa) = 0.01894155
#
# Stress axis : x y z
#
# Youngs Moduli (GPa) = 31.08845 125.08262 104.76727
#
# Poissons Ratio (x) = 0.67995 0.90080
# Poissons Ratio (y) = 0.16900 0.14124
# Poissons Ratio (z) = 0.26730 0.16863
#
# Static dielectric constant tensor:
#      x y z
#    x 3.146330 0.000000 0.000000 
#    y 0.000000 3.603280 0.000000 
#    z 0.000000 0.000000 4.028540 
# 
# 
# High freq. dielectric constant tensor:
#      x y z
#    x 1.706600 0.000000 0.000000 
#    y 0.000000 1.763910 0.000000 
#    z 0.000000 0.000000 1.774520 
# 
# From -- ./inp_files/64307.got.cif
#   From: 2010.03.12/outbox.cif.g09.slc.cpg/sg65_33_cif.got.tgz:64307.got - 2010.04.10 20:52:16.
