data_PCOD8266483
_publ_section_title
;
Structure prediction by ZEFSAII (Michael W. Deem and Ramdas Pophale) SiO2 
 PCOD8266483
Probable space group: C M M M
;
_chemical_formula_sum "Si O2"
_cell_formula_units_Z 52
_cell_length_a 12.015677
_cell_length_b 19.078135
_cell_length_c 11.901340
_cell_angle_alpha 90.000000
_cell_angle_beta 90.000000
_cell_angle_gamma 90.000000
_cell_volume 2728.224001
_symmetry_space_group_name_H-M "C M M M"
_symmetry_group_IT_number 65
_symmetry_cell_setting 'orthorhombic'
loop_
_space_group_symop_operation_xyz
x,y,z
-x,-y,z
x,-y,-z
-x,y,-z
-x,-y,-z
x,y,-z
-x,y,z
x,-y,z
1/2+x,1/2+y,z
1/2-x,1/2-y,z
1/2+x,1/2-y,-z
1/2-x,1/2+y,-z
1/2-x,1/2-y,-z
1/2+x,1/2+y,-z
1/2-x,1/2+y,z
1/2+x,1/2-y,z
loop_
_atom_site_type_symbol
_atom_site_label
_atom_site_fract_x
_atom_site_fract_y
_atom_site_fract_z
Si Si1 0.742049 0.667557 0.500000
Si Si2 0.870774 0.418428 0.684697
Si Si3 0.500000 0.615279 0.500000
Si Si4 0.500000 0.578179 0.751121
Si Si5 0.712800 0.417773 0.124307
O O1 0.750000 0.750000 0.500000
O O2 0.798997 0.631922 0.393238
O O3 0.610091 0.660893 0.500000
O O4 0.850742 0.500000 0.650879
O O5 0.829046 0.403768 0.811394
O O6 0.000000 0.398732 0.675292
O O7 0.500000 0.571839 0.615843
O O8 0.500000 0.500000 0.797773
O O9 0.610613 0.615153 0.802475
O O10 0.694960 0.500000 0.111996
O O11 0.717430 0.383137 0.000000
#
# Coordination Sequence:
#
# PCOD8266483 Si02
#       5
#     8  16   4   8  16
#     4  12  26  40  58  83 116 148 189 239 295 347
#     4  10  21  38  60  85 115 153 192 237 289 343
#     4  12  23  36  56  84 105 152 192 230 288 334
#     4  10  18  30  51  83 120 147 179 230 285 339
#     4   9  17  30  51  82 117 149 183 229 285 339
#
# _framework density 19.060019
#
# number of rings (size 3 to 8) (size 9 to 14) (size 15 to 20)
#    0.000    1.846    3.077    1.615    2.154    4.923 
#    0.000    3.077    0.000    0.923    0.000    0.000 
#    0.000    0.000    0.000    0.000    0.000    0.000 
#
# Total GULP energy -322129.352057 kJ/mol
# GULP energy per Si atom -12389.590464 kJ/mol
# Density = 1.901664 g / cm^3
# Si number density = 19.060019 Si / 1000 Ang^3
#
#
#
# Elastic Constant Matrix: (Units=GPa)
#
#
# Indices 1 2 3 4 5 6 
#
# 1 165.6231 48.0618 65.2136 0.0000 0.0000 0.0000
# 2 48.0618 64.5034 31.9556 0.0000 0.0000 0.0000
# 3 65.2136 31.9556 160.0222 0.0000 0.0000 0.0000
# 4 0.0000 0.0000 0.0000 -3.9842 0.0000 0.0000
# 5 0.0000 0.0000 0.0000 0.0000 -819.8858 0.0000
# 6 0.0000 0.0000 0.0000 0.0000 0.0000 14.1992
#
#
#
# Elastic Compliance Matrix: (Units=1/GPa)
#
#
# Indices 1 2 3 4 5 6 
#
# 1 0.008480 -0.005112 -0.002435 0.000000 0.000000 0.000000
# 2 -0.005112 0.020287 -0.001968 0.000000 0.000000 0.000000
# 3 -0.002435 -0.001968 0.007634 0.000000 0.000000 0.000000
# 4 0.000000 0.000000 0.000000 -0.250992 0.000000 0.000000
# 5 0.000000 0.000000 0.000000 0.000000 -0.001220 0.000000
# 6 0.000000 0.000000 0.000000 0.000000 0.000000 0.070427
#
#
# Mechanical properties :
#
#
# Convention : Reuss Voigt Hill
#
# Bulk Modulus (GPa) = 57.56562 75.62340 66.59451
# Shear Modulus (GPa) = -41.47202 -145.60633 -93.53917
#
# Velocity S-wave (km/s) = -4.66968 -8.74982 -7.01303
# Velocity P-wave (km/s) = 1.09240 7.89409 5.52826
#
# Compressibility (1/GPa) = 0.01737148
#
# Stress axis : x y z
#
# Youngs Moduli (GPa) = 117.92331 49.29237 130.98553
#
# Poissons Ratio (x) = 0.25199 0.31895
# Poissons Ratio (y) = 0.60285 0.25776
# Poissons Ratio (z) = 0.28714 0.09700
#
# Static dielectric constant tensor:
#      x y z
#    x 3.761760 0.000000 0.000000 
#    y 0.000000 2.935920 0.000000 
#    z 0.000000 0.000000 3.834250 
# 
# 
# High freq. dielectric constant tensor:
#      x y z
#    x 1.761520 0.000000 0.000000 
#    y 0.000000 1.669260 0.000000 
#    z 0.000000 0.000000 1.754220 
# 
# From -- ./inp_files/21862.got.cif
#   From: 2010.03.12/outbox.cif.g09.slc.cpg/sg65_11_cif.got.tgz:21862.got - 2010.04.10 20:52:16.
