data_PCOD8266169
_publ_section_title
;
Structure prediction by ZEFSAII (Michael W. Deem and Ramdas Pophale) SiO2 
 PCOD8266169
Probable space group: C M M M
;
_chemical_formula_sum "Si O2"
_cell_formula_units_Z 128
_cell_length_a 18.013820
_cell_length_b 25.791885
_cell_length_c 17.553244
_cell_angle_alpha 90.000000
_cell_angle_beta 90.000000
_cell_angle_gamma 90.000000
_cell_volume 8155.419257
_symmetry_space_group_name_H-M "C M M M"
_symmetry_group_IT_number 65
_symmetry_cell_setting 'orthorhombic'
loop_
_space_group_symop_operation_xyz
x,y,z
-x,-y,z
x,-y,-z
-x,y,-z
-x,-y,-z
x,y,-z
-x,y,z
x,-y,z
1/2+x,1/2+y,z
1/2-x,1/2-y,z
1/2+x,1/2-y,-z
1/2-x,1/2+y,-z
1/2-x,1/2-y,-z
1/2+x,1/2+y,-z
1/2-x,1/2+y,z
1/2+x,1/2-y,z
loop_
_atom_site_type_symbol
_atom_site_label
_atom_site_fract_x
_atom_site_fract_y
_atom_site_fract_z
Si Si1 0.814053 0.710959 0.793147
Si Si2 0.186300 0.610321 0.700444
Si Si3 0.083324 0.143846 0.412765
Si Si4 0.083806 0.333251 0.415171
Si Si5 0.915752 0.558317 0.817792
Si Si6 0.802016 0.939721 0.586521
Si Si7 0.837623 0.759195 0.643639
Si Si8 0.085620 0.657361 0.086727
O O1 0.750000 0.750000 0.822631
O O2 0.782686 0.658147 0.752357
O O3 0.860942 0.741722 0.728992
O O4 0.866537 0.697343 0.863568
O O5 0.125480 0.629385 0.641466
O O6 0.144343 0.568166 0.751964
O O7 0.250385 0.583589 0.652090
O O8 0.081179 0.161926 0.500000
O O9 0.117092 0.086356 0.405329
O O10 0.138939 0.181594 0.367435
O O11 0.000000 0.144307 0.378335
O O12 0.088487 0.356511 0.500000
O O13 0.118914 0.275859 0.416855
O O14 0.000000 0.328667 0.386472
O O15 0.904096 0.500000 0.848924
O O16 0.902032 0.598220 0.886736
O O17 0.000000 0.565278 0.786149
O O18 0.771032 0.929680 0.500000
O O19 0.812562 0.000000 0.602084
O O20 0.750000 0.750000 0.632410
O O21 0.000000 0.673639 0.094989
O O22 0.112828 0.661499 0.000000
#
# Coordination Sequence:
#
# PCOD8266169 Si02
#       8
#    16  16  16  16  16  16  16  16
#     4   9  18  30  45  65  87 113 140 167 204 249
#     4  10  18  30  45  62  87 112 143 183 216 251
#     4  10  20  32  45  62  85 112 144 184 226 263
#     4  10  19  28  40  60  86 116 146 176 215 259
#     4   9  17  29  46  66  87 114 144 173 209 249
#     4  10  20  32  46  62  80 109 148 187 227 263
#     4  10  19  30  45  65  88 112 142 178 212 255
#     4   9  18  31  46  66  90 113 138 168 201 241
#
# _framework density 15.695085000000001
#
# number of rings (size 3 to 8) (size 9 to 14) (size 15 to 20)
#    0.000    2.375    0.000    4.125    0.000    7.250 
#    0.000    2.500    0.000    0.375    0.000    5.250 
#    0.000    0.000    0.000    0.000    0.000    0.000 
#
# Total GULP energy -793259.677735 kJ/mol
# GULP energy per Si atom -12394.682465 kJ/mol
# Density = 1.565936 g / cm^3
# Si number density = 15.695085 Si / 1000 Ang^3
#
#
#
# Elastic Constant Matrix: (Units=GPa)
#
#
# Indices 1 2 3 4 5 6 
#
# 1 98.8999 53.0094 47.8905 0.0000 0.0000 0.0000
# 2 53.0094 99.3368 44.3916 0.0000 0.0000 0.0000
# 3 47.8905 44.3916 85.5997 0.0000 0.0000 0.0000
# 4 0.0000 0.0000 0.0000 17.7020 0.0000 0.0000
# 5 0.0000 0.0000 0.0000 0.0000 25.7439 0.0000
# 6 0.0000 0.0000 0.0000 0.0000 0.0000 23.7162
#
#
#
# Elastic Compliance Matrix: (Units=1/GPa)
#
#
# Indices 1 2 3 4 5 6 
#
# 1 0.016206 -0.005983 -0.005964 0.000000 0.000000 0.000000
# 2 -0.005983 0.015312 -0.004594 0.000000 0.000000 0.000000
# 3 -0.005964 -0.004594 0.017401 0.000000 0.000000 0.000000
# 4 0.000000 0.000000 0.000000 0.056491 0.000000 0.000000
# 5 0.000000 0.000000 0.000000 0.000000 0.038844 0.000000
# 6 0.000000 0.000000 0.000000 0.000000 0.000000 0.042165
#
#
# Mechanical properties :
#
#
# Convention : Reuss Voigt Hill
#
# Bulk Modulus (GPa) = 63.13792 63.82436 63.48114
# Shear Modulus (GPa) = 22.24394 22.66873 22.45633
#
# Velocity S-wave (km/s) = 3.76873 3.80454 3.78668
# Velocity P-wave (km/s) = 7.69759 7.74938 7.72353
#
# Compressibility (1/GPa) = 0.01583834
#
# Stress axis : x y z
#
# Youngs Moduli (GPa) = 61.70567 65.30751 57.46710
#
# Poissons Ratio (x) = 0.39072 0.34274
# Poissons Ratio (y) = 0.36917 0.26398
# Poissons Ratio (z) = 0.36802 0.30000
#
# Static dielectric constant tensor:
#      x y z
#    x 2.939550 0.000000 0.000000 
#    y 0.000000 3.028770 0.000000 
#    z 0.000000 0.000000 2.924560 
# 
# 
# High freq. dielectric constant tensor:
#      x y z
#    x 1.595050 0.000000 0.000000 
#    y 0.000000 1.603380 0.000000 
#    z 0.000000 0.000000 1.583840 
# 
# From -- ./inp_files/55139.got.cif
#   From: 2010.03.12/outbox.cif.g09.slc.cpg/sg65_28_cif.got.tgz:55139.got - 2010.04.10 20:52:16.
