data_PCOD8266822
_publ_section_title
;
Structure prediction by ZEFSAII (Michael W. Deem and Ramdas Pophale) SiO2 
 PCOD8266822
Probable space group: C M M M
;
_chemical_formula_sum "Si O2"
_cell_formula_units_Z 88
_cell_length_a 18.682107
_cell_length_b 21.026935
_cell_length_c 11.795521
_cell_angle_alpha 90.000000
_cell_angle_beta 90.000000
_cell_angle_gamma 90.000000
_cell_volume 4633.604431
_symmetry_space_group_name_H-M "C M M M"
_symmetry_group_IT_number 65
_symmetry_cell_setting 'orthorhombic'
loop_
_space_group_symop_operation_xyz
x,y,z
-x,-y,z
x,-y,-z
-x,y,-z
-x,-y,-z
x,y,-z
-x,y,z
x,-y,z
1/2+x,1/2+y,z
1/2-x,1/2-y,z
1/2+x,1/2-y,-z
1/2-x,1/2+y,-z
1/2-x,1/2-y,-z
1/2+x,1/2+y,-z
1/2-x,1/2+y,z
1/2+x,1/2-y,z
loop_
_atom_site_type_symbol
_atom_site_label
_atom_site_fract_x
_atom_site_fract_y
_atom_site_fract_z
Si Si1 0.916619 0.650257 0.632559
Si Si2 0.581192 0.710592 0.717879
Si Si3 0.577602 0.624022 0.500000
Si Si4 0.080688 0.000000 0.134574
Si Si5 0.276922 0.429224 0.500000
Si Si6 0.330357 0.621863 0.866080
Si Si7 0.293161 0.075710 0.274798
O O1 0.895142 0.644872 0.500000
O O2 0.896230 0.719004 0.681051
O O3 0.874655 0.599122 0.710503
O O4 0.000000 0.635463 0.647674
O O5 0.500000 0.709425 0.766182
O O6 0.587523 0.667848 0.607978
O O7 0.636128 0.685871 0.813413
O O8 0.500000 0.590613 0.500000
O O9 0.637163 0.569719 0.500000
O O10 0.121746 0.062495 0.178454
O O11 0.000000 0.000000 0.184267
O O12 0.078854 0.000000 0.000000
O O13 0.246399 0.500000 0.500000
O O14 0.247847 0.397170 0.385939
O O15 0.248074 0.609147 0.829734
O O16 0.332363 0.629194 0.000000
O O17 0.291500 0.000000 0.258449
#
# Coordination Sequence:
#
# PCOD8266822 Si02
#       7
#    16  16   8   8   8  16  16
#     4  10  21  39  63  89 115 149 192 241 306 372
#     4  10  20  36  57  84 119 153 193 241 288 346
#     4  10  18  32  53  78 115 159 191 226 281 352
#     4   9  18  34  56  81 108 149 202 241 275 326
#     4  10  20  34  50  79 117 151 189 235 291 349
#     4  11  22  37  58  84 118 162 203 239 283 338
#     4  11  22  38  59  86 120 151 189 248 300 351
#
# _framework density 18.991695
#
# number of rings (size 3 to 8) (size 9 to 14) (size 15 to 20)
#    0.000    1.727    4.545    0.545    0.000    2.364 
#    0.000    4.545    0.000    1.636    0.000    1.273 
#    0.000    0.000    0.000    0.000    0.000    0.000 
#
# Total GULP energy -545522.153651 kJ/mol
# GULP energy per Si atom -12398.230765 kJ/mol
# Density = 1.894847 g / cm^3
# Si number density = 18.991695 Si / 1000 Ang^3
#
#
#
# Elastic Constant Matrix: (Units=GPa)
#
#
# Indices 1 2 3 4 5 6 
#
# 1 103.5050 37.1231 36.3403 0.0000 0.0000 0.0000
# 2 37.1231 48.0461 24.0654 0.0000 0.0000 0.0000
# 3 36.3403 24.0654 84.3780 0.0000 0.0000 0.0000
# 4 0.0000 0.0000 0.0000 31.1710 0.0000 0.0000
# 5 0.0000 0.0000 0.0000 0.0000 36.0298 0.0000
# 6 0.0000 0.0000 0.0000 0.0000 0.0000 34.4893
#
#
#
# Elastic Compliance Matrix: (Units=1/GPa)
#
#
# Indices 1 2 3 4 5 6 
#
# 1 0.014191 -0.009221 -0.003482 0.000000 0.000000 0.000000
# 2 -0.009221 0.030273 -0.004663 0.000000 0.000000 0.000000
# 3 -0.003482 -0.004663 0.014681 0.000000 0.000000 0.000000
# 4 0.000000 0.000000 0.000000 0.032081 0.000000 0.000000
# 5 0.000000 0.000000 0.000000 0.000000 0.027755 0.000000
# 6 0.000000 0.000000 0.000000 0.000000 0.000000 0.028994
#
#
# Mechanical properties :
#
#
# Convention : Reuss Voigt Hill
#
# Bulk Modulus (GPa) = 40.96028 47.88743 44.42385
# Shear Modulus (GPa) = 26.19924 29.56470 27.88197
#
# Velocity S-wave (km/s) = 3.71821 3.94981 3.83575
# Velocity P-wave (km/s) = 6.32832 6.78756 6.56196
#
# Compressibility (1/GPa) = 0.02441390
#
# Stress axis : x y z
#
# Youngs Moduli (GPa) = 70.46730 33.03234 68.11514
#
# Poissons Ratio (x) = 0.30458 0.23718
# Poissons Ratio (y) = 0.64976 0.31763
# Poissons Ratio (z) = 0.24537 0.15403
#
# Static dielectric constant tensor:
#      x y z
#    x 3.532250 0.000000 0.000000 
#    y 0.000000 3.320270 0.000000 
#    z 0.000000 0.000000 3.271020 
# 
# 
# High freq. dielectric constant tensor:
#      x y z
#    x 1.738670 0.000000 0.000000 
#    y 0.000000 1.723970 0.000000 
#    z 0.000000 0.000000 1.724170 
# 
# From -- ./inp_files/26846.got.cif
#   From: 2010.03.12/outbox.cif.g09.slc.cpg/sg65_14_cif.got.tgz:26846.got - 2010.04.10 20:52:16.
