data_PCOD8266456
_publ_section_title
;
Structure prediction by ZEFSAII (Michael W. Deem and Ramdas Pophale) SiO2 
 PCOD8266456
Probable space group: C M M M
;
_chemical_formula_sum "Si O2"
_cell_formula_units_Z 128
_cell_length_a 17.083967
_cell_length_b 19.972935
_cell_length_c 21.555998
_cell_angle_alpha 90.000000
_cell_angle_beta 90.000000
_cell_angle_gamma 90.000000
_cell_volume 7355.272160
_symmetry_space_group_name_H-M "C M M M"
_symmetry_group_IT_number 65
_symmetry_cell_setting 'orthorhombic'
loop_
_space_group_symop_operation_xyz
x,y,z
-x,-y,z
x,-y,-z
-x,y,-z
-x,-y,-z
x,y,-z
-x,y,z
x,-y,z
1/2+x,1/2+y,z
1/2-x,1/2-y,z
1/2+x,1/2-y,-z
1/2-x,1/2+y,-z
1/2-x,1/2-y,-z
1/2+x,1/2+y,-z
1/2-x,1/2+y,z
1/2+x,1/2-y,z
loop_
_atom_site_type_symbol
_atom_site_label
_atom_site_fract_x
_atom_site_fract_y
_atom_site_fract_z
Si Si1 0.785625 0.682423 0.166776
Si Si2 0.415238 0.425388 0.873430
Si Si3 0.775921 0.826166 0.429496
Si Si4 0.336950 0.612412 0.248593
Si Si5 0.241153 0.078770 0.070830
Si Si6 0.795276 0.574645 0.665512
Si Si7 0.587509 0.299278 0.343476
Si Si8 0.092643 0.669560 0.732302
O O1 0.750000 0.750000 0.135476
O O2 0.722179 0.665953 0.219227
O O3 0.795885 0.623893 0.115056
O O4 0.869407 0.690579 0.201172
O O5 0.500000 0.387092 0.877612
O O6 0.430567 0.500000 0.896153
O O7 0.381751 0.429283 0.803685
O O8 0.348449 0.394974 0.918482
O O9 0.779414 0.851664 0.500000
O O10 0.750000 0.750000 0.424945
O O11 0.718225 0.875912 0.392646
O O12 0.861766 0.826707 0.400190
O O13 0.283902 0.567138 0.293715
O O14 0.404162 0.650820 0.285739
O O15 0.249267 0.000000 0.089058
O O16 0.265786 0.090570 0.000000
O O17 0.816881 0.500000 0.641911
O O18 0.867463 0.601574 0.707134
O O19 0.500000 0.299768 0.368645
O O20 0.610863 0.225615 0.319482
O O21 0.000000 0.659267 0.742410
#
# Coordination Sequence:
#
# PCOD8266456 Si02
#       8
#    16  16  16  16  16  16  16  16
#     4  10  18  31  52  76 101 131 166 213 260 310
#     4   9  16  26  42  67  98 128 160 201 250 301
#     4  10  20  35  54  74 100 135 178 219 249 294
#     4   9  17  28  48  71 103 129 164 204 254 308
#     4   9  19  34  49  67  95 134 179 217 251 302
#     4  10  20  33  53  76 104 138 174 214 258 308
#     4  10  18  30  51  77 103 134 166 205 258 310
#     4  10  20  33  52  79 110 136 164 209 267 320
#
# _framework density 17.402483
#
# number of rings (size 3 to 8) (size 9 to 14) (size 15 to 20)
#    0.000    2.375    2.500    0.750    0.000    4.250 
#    0.000    1.250    0.000    4.125    0.000    5.250 
#    0.000    0.000    0.000    0.000    0.000    0.000 
#
# Total GULP energy -793052.603014 kJ/mol
# GULP energy per Si atom -12391.446922 kJ/mol
# Density = 1.736287 g / cm^3
# Si number density = 17.402483 Si / 1000 Ang^3
#
#
#
# Elastic Constant Matrix: (Units=GPa)
#
#
# Indices 1 2 3 4 5 6 
#
# 1 79.6801 25.7961 28.8643 0.0000 0.0000 0.0000
# 2 25.7961 85.1062 31.7675 0.0000 0.0000 0.0000
# 3 28.8643 31.7675 89.6962 0.0000 0.0000 0.0000
# 4 0.0000 0.0000 0.0000 22.8227 0.0000 0.0000
# 5 0.0000 0.0000 0.0000 0.0000 13.9916 0.0000
# 6 0.0000 0.0000 0.0000 0.0000 0.0000 16.2962
#
#
#
# Elastic Compliance Matrix: (Units=1/GPa)
#
#
# Indices 1 2 3 4 5 6 
#
# 1 0.014901 -0.003142 -0.003682 0.000000 0.000000 0.000000
# 2 -0.003142 0.014203 -0.004019 0.000000 0.000000 0.000000
# 3 -0.003682 -0.004019 0.013757 0.000000 0.000000 0.000000
# 4 0.000000 0.000000 0.000000 0.043816 0.000000 0.000000
# 5 0.000000 0.000000 0.000000 0.000000 0.071471 0.000000
# 6 0.000000 0.000000 0.000000 0.000000 0.000000 0.061364
#
#
# Mechanical properties :
#
#
# Convention : Reuss Voigt Hill
#
# Bulk Modulus (GPa) = 47.22762 47.48204 47.35483
# Shear Modulus (GPa) = 20.14037 21.82574 20.98306
#
# Velocity S-wave (km/s) = 3.40564 3.54527 3.47616
# Velocity P-wave (km/s) = 6.53161 6.64097 6.58652
#
# Compressibility (1/GPa) = 0.02117405
#
# Stress axis : x y z
#
# Youngs Moduli (GPa) = 67.10773 70.40972 72.68955
#
# Poissons Ratio (x) = 0.22124 0.26767
# Poissons Ratio (y) = 0.21086 0.29214
# Poissons Ratio (z) = 0.24712 0.28297
#
# Static dielectric constant tensor:
#      x y z
#    x 3.222190 0.000000 0.000000 
#    y 0.000000 3.106360 0.000000 
#    z 0.000000 0.000000 3.112990 
# 
# 
# High freq. dielectric constant tensor:
#      x y z
#    x 1.660140 0.000000 0.000000 
#    y 0.000000 1.660790 0.000000 
#    z 0.000000 0.000000 1.656050 
# 
# From -- ./inp_files/64095.got.cif
#   From: 2010.03.12/outbox.cif.g09.slc.cpg/sg65_33_cif.got.tgz:64095.got - 2010.04.10 20:52:16.
