data_PCOD8266754
_publ_section_title
;
Structure prediction by ZEFSAII (Michael W. Deem and Ramdas Pophale) SiO2 
 PCOD8266754
Probable space group: C M M M
;
_chemical_formula_sum "Si O2"
_cell_formula_units_Z 56
_cell_length_a 30.424035
_cell_length_b 8.722893
_cell_length_c 12.404247
_cell_angle_alpha 90.000000
_cell_angle_beta 90.000000
_cell_angle_gamma 90.000000
_cell_volume 3291.908557
_symmetry_space_group_name_H-M "C M M M"
_symmetry_group_IT_number 65
_symmetry_cell_setting 'orthorhombic'
loop_
_space_group_symop_operation_xyz
x,y,z
-x,-y,z
x,-y,-z
-x,y,-z
-x,-y,-z
x,y,-z
-x,y,z
x,-y,z
1/2+x,1/2+y,z
1/2-x,1/2-y,z
1/2+x,1/2-y,-z
1/2-x,1/2+y,-z
1/2-x,1/2-y,-z
1/2+x,1/2+y,-z
1/2-x,1/2+y,z
1/2+x,1/2-y,z
loop_
_atom_site_type_symbol
_atom_site_label
_atom_site_fract_x
_atom_site_fract_y
_atom_site_fract_z
Si Si1 0.297849 0.819726 0.283404
Si Si2 0.635760 0.675174 0.872990
Si Si3 0.298639 0.682288 0.500000
Si Si4 0.951941 0.327599 0.127966
O O1 0.250000 0.750000 0.261270
O O2 0.328395 0.783356 0.181933
O O3 0.320744 0.746094 0.390406
O O4 0.292973 0.000000 0.299188
O O5 0.645260 0.500000 0.842354
O O6 0.586960 0.718077 0.829971
O O7 0.639466 0.704031 0.000000
O O8 0.298992 0.500000 0.500000
O O9 0.250000 0.750000 0.500000
O O10 0.943088 0.500000 0.169803
O O11 0.000000 0.270441 0.169949
O O12 0.952440 0.326478 0.000000
#
# Coordination Sequence:
#
# PCOD8266754 Si02
#       4
#    16  16   8  16
#     4  11  21  34  51  70  94 124 159 196 236 279
#     4  10  20  32  46  68  98 129 161 195 234 281
#     4  10  18  32  52  72  93 116 151 196 238 276
#     4   8  14  26  44  65  90 121 156 193 233 276
#
# _framework density 17.011406999999998
#
# number of rings (size 3 to 8) (size 9 to 14) (size 15 to 20)
#    0.000    2.286    0.000    7.286    0.000    2.857 
#    0.000    2.857    0.000    0.000    0.000    1.000 
#    0.000    8.000    0.000    0.000    0.000    0.000 
#
# Total GULP energy -347061.534241 kJ/mol
# GULP energy per Si atom -12395.054794 kJ/mol
# Density = 1.697269 g / cm^3
# Si number density = 17.011407 Si / 1000 Ang^3
#
#
#
# Elastic Constant Matrix: (Units=GPa)
#
#
# Indices 1 2 3 4 5 6 
#
# 1 95.5591 43.6469 38.2387 0.0000 0.0000 0.0000
# 2 43.6469 129.0869 37.1873 0.0000 0.0000 0.0000
# 3 38.2387 37.1873 51.7064 0.0000 0.0000 0.0000
# 4 0.0000 0.0000 0.0000 25.5376 0.0000 0.0000
# 5 0.0000 0.0000 0.0000 0.0000 1.4530 0.0000
# 6 0.0000 0.0000 0.0000 0.0000 0.0000 30.6248
#
#
#
# Elastic Compliance Matrix: (Units=1/GPa)
#
#
# Indices 1 2 3 4 5 6 
#
# 1 0.015448 -0.002437 -0.009672 0.000000 0.000000 0.000000
# 2 -0.002437 0.010156 -0.005502 0.000000 0.000000 0.000000
# 3 -0.009672 -0.005502 0.030449 0.000000 0.000000 0.000000
# 4 0.000000 0.000000 0.000000 0.039158 0.000000 0.000000
# 5 0.000000 0.000000 0.000000 0.000000 0.688223 0.000000
# 6 0.000000 0.000000 0.000000 0.000000 0.000000 0.032653
#
#
# Mechanical properties :
#
#
# Convention : Reuss Voigt Hill
#
# Bulk Modulus (GPa) = 48.00247 57.16646 52.58447
# Shear Modulus (GPa) = 5.82580 22.00838 13.91709
#
# Velocity S-wave (km/s) = 1.85259 3.60077 2.86335
# Velocity P-wave (km/s) = 5.73194 7.13898 6.47380
#
# Compressibility (1/GPa) = 0.02083226
#
# Stress axis : x y z
#
# Youngs Moduli (GPa) = 64.73304 98.46721 32.84148
#
# Poissons Ratio (x) = 0.23997 0.31763
# Poissons Ratio (y) = 0.15776 0.18068
# Poissons Ratio (z) = 0.62607 0.54173
#
# Static dielectric constant tensor:
#      x y z
#    x 3.319090 0.000000 0.000000 
#    y 0.000000 3.284670 0.000000 
#    z 0.000000 0.000000 3.254780 
# 
# 
# High freq. dielectric constant tensor:
#      x y z
#    x 1.645040 0.000000 0.000000 
#    y 0.000000 1.669620 0.000000 
#    z 0.000000 0.000000 1.621160 
# 
# From -- ./inp_files/20444.got.cif
#   From: 2010.03.12/outbox.cif.g09.slc.cpg/sg65_11_cif.got.tgz:20444.got - 2010.04.10 20:52:16.
