data_PCOD8266145
_publ_section_title
;
Structure prediction by ZEFSAII (Michael W. Deem and Ramdas Pophale) SiO2 
 PCOD8266145
Probable space group: C M M M
;
_chemical_formula_sum "Si O2"
_cell_formula_units_Z 96
_cell_length_a 16.894448
_cell_length_b 14.589704
_cell_length_c 20.766599
_cell_angle_alpha 90.000000
_cell_angle_beta 90.000000
_cell_angle_gamma 90.000000
_cell_volume 5118.655062
_symmetry_space_group_name_H-M "C M M M"
_symmetry_group_IT_number 65
_symmetry_cell_setting 'orthorhombic'
loop_
_space_group_symop_operation_xyz
x,y,z
-x,-y,z
x,-y,-z
-x,y,-z
-x,-y,-z
x,y,-z
-x,y,z
x,-y,z
1/2+x,1/2+y,z
1/2-x,1/2-y,z
1/2+x,1/2-y,-z
1/2-x,1/2+y,-z
1/2-x,1/2-y,-z
1/2+x,1/2+y,-z
1/2-x,1/2+y,z
1/2+x,1/2-y,z
loop_
_atom_site_type_symbol
_atom_site_label
_atom_site_fract_x
_atom_site_fract_y
_atom_site_fract_z
Si Si1 0.830941 0.602078 0.363804
Si Si2 0.346025 0.606562 0.320895
Si Si3 0.408044 0.901554 0.768108
Si Si4 0.594745 0.292858 0.194728
Si Si5 0.409719 0.264397 0.572168
Si Si6 0.905998 0.102779 0.929324
O O1 0.832283 0.500000 0.394685
O O2 0.746324 0.622983 0.332489
O O3 0.895739 0.611533 0.307862
O O4 0.852209 0.677295 0.417097
O O5 0.369149 0.500000 0.319386
O O6 0.367508 0.650757 0.252821
O O7 0.394154 0.653409 0.378526
O O8 0.500000 0.906922 0.782336
O O9 0.374002 0.812521 0.804750
O O10 0.369176 0.000000 0.790148
O O11 0.500000 0.298310 0.201486
O O12 0.626855 0.332897 0.127339
O O13 0.393315 0.300954 0.500000
O O14 0.500000 0.231515 0.579854
O O15 0.000000 0.102127 0.926716
O O16 0.873991 0.000000 0.918060
O O17 0.878050 0.138437 0.000000
#
# Coordination Sequence:
#
# PCOD8266145 Si02
#       6
#    16  16  16  16  16  16
#     4  10  21  37  56  78 104 132 169 219 268 311
#     4  11  23  36  53  79 108 139 174 212 261 318
#     4   9  17  30  50  75 101 130 168 216 266 309
#     4  10  18  29  50  77 105 140 177 216 261 311
#     4  11  24  40  57  77 103 137 175 217 265 314
#     4   8  14  25  42  68 104 142 178 217 260 305
#
# _framework density 18.754926999999999
#
# number of rings (size 3 to 8) (size 9 to 14) (size 15 to 20)
#    0.000    2.167    1.667    2.500    0.000    5.000 
#    0.000    3.333    0.000    0.500    0.000    5.833 
#    0.000    4.000    0.000    0.167    0.000    0.000 
#
# Total GULP energy -594933.639511 kJ/mol
# GULP energy per Si atom -12394.450823 kJ/mol
# Density = 1.871224 g / cm^3
# Si number density = 18.754927 Si / 1000 Ang^3
#
#
#
# Elastic Constant Matrix: (Units=GPa)
#
#
# Indices 1 2 3 4 5 6 
#
# 1 35.6529 34.7345 24.0684 0.0000 0.0000 0.0000
# 2 34.7345 152.5866 87.5562 0.0000 0.0000 0.0000
# 3 24.0684 87.5562 148.5757 0.0000 0.0000 0.0000
# 4 0.0000 0.0000 0.0000 28.6384 0.0000 0.0000
# 5 0.0000 0.0000 0.0000 0.0000 12.4863 0.0000
# 6 0.0000 0.0000 0.0000 0.0000 0.0000 21.5378
#
#
#
# Elastic Compliance Matrix: (Units=1/GPa)
#
#
# Indices 1 2 3 4 5 6 
#
# 1 0.036269 -0.007381 -0.001526 0.000000 0.000000 0.000000
# 2 -0.007381 0.011404 -0.005525 0.000000 0.000000 0.000000
# 3 -0.001526 -0.005525 0.010234 0.000000 0.000000 0.000000
# 4 0.000000 0.000000 0.000000 0.034918 0.000000 0.000000
# 5 0.000000 0.000000 0.000000 0.000000 0.080088 0.000000
# 6 0.000000 0.000000 0.000000 0.000000 0.000000 0.046430
#
#
# Mechanical properties :
#
#
# Convention : Reuss Voigt Hill
#
# Bulk Modulus (GPa) = 34.43089 69.94816 52.18953
# Shear Modulus (GPa) = 19.38840 25.22955 22.30898
#
# Velocity S-wave (km/s) = 3.21873 3.67171 3.45265
# Velocity P-wave (km/s) = 5.67554 7.43990 6.61679
#
# Compressibility (1/GPa) = 0.02904369
#
# Stress axis : x y z
#
# Youngs Moduli (GPa) = 27.57196 87.68899 97.71785
#
# Poissons Ratio (x) = 0.64719 0.14911
# Poissons Ratio (y) = 0.20350 0.53987
# Poissons Ratio (z) = 0.04207 0.48446
#
# Static dielectric constant tensor:
#      x y z
#    x 3.223990 0.000000 0.000000 
#    y 0.000000 3.926650 0.000000 
#    z 0.000000 0.000000 3.467710 
# 
# 
# High freq. dielectric constant tensor:
#      x y z
#    x 1.704270 0.000000 0.000000 
#    y 0.000000 1.742270 0.000000 
#    z 0.000000 0.000000 1.709740 
# 
# From -- ./inp_files/62580.got.cif
#   From: 2010.03.12/outbox.cif.g09.slc.cpg/sg65_32_cif.got.tgz:62580.got - 2010.04.10 20:52:16.
