data_PCOD8266207
_publ_section_title
;
Structure prediction by ZEFSAII (Michael W. Deem and Ramdas Pophale) SiO2 
 PCOD8266207
Probable space group: C M M M
;
_chemical_formula_sum "Si O2"
_cell_formula_units_Z 88
_cell_length_a 28.991277
_cell_length_b 7.713667
_cell_length_c 22.400462
_cell_angle_alpha 90.000000
_cell_angle_beta 90.000000
_cell_angle_gamma 90.000000
_cell_volume 5009.394186
_symmetry_space_group_name_H-M "C M M M"
_symmetry_group_IT_number 65
_symmetry_cell_setting 'orthorhombic'
loop_
_space_group_symop_operation_xyz
x,y,z
-x,-y,z
x,-y,-z
-x,y,-z
-x,-y,-z
x,y,-z
-x,y,z
x,-y,z
1/2+x,1/2+y,z
1/2-x,1/2-y,z
1/2+x,1/2-y,-z
1/2-x,1/2+y,-z
1/2-x,1/2-y,-z
1/2+x,1/2+y,-z
1/2-x,1/2+y,z
1/2+x,1/2-y,z
loop_
_atom_site_type_symbol
_atom_site_label
_atom_site_fract_x
_atom_site_fract_y
_atom_site_fract_z
Si Si1 0.199938 0.202802 0.433786
Si Si2 0.196597 0.295577 0.870787
Si Si3 0.949162 0.500000 0.649332
Si Si4 0.551702 0.000000 0.209276
Si Si5 0.382240 0.701354 0.648662
Si Si6 0.117206 0.193476 0.786825
Si Si7 0.197428 0.702473 0.000000
O O1 0.193636 0.286756 0.500000
O O2 0.250000 0.250000 0.407581
O O3 0.161646 0.271437 0.388135
O O4 0.194617 0.000000 0.439121
O O5 0.190136 0.500000 0.865489
O O6 0.250000 0.250000 0.859840
O O7 0.165423 0.203695 0.821570
O O8 0.178272 0.226891 0.936373
O O9 0.952587 0.500000 0.720215
O O10 0.924341 0.323400 0.628013
O O11 0.000000 0.500000 0.620667
O O12 0.579485 0.828908 0.187814
O O13 0.500000 0.000000 0.181082
O O14 0.394446 0.500000 0.635324
O O15 0.371046 0.732148 0.718008
O O16 0.096522 0.000000 0.793856
O O17 0.250000 0.750000 0.000000
O O18 0.190185 0.500000 0.000000
#
# Coordination Sequence:
#
# PCOD8266207 Si02
#       7
#    16  16   8   8  16  16   8
#     4   9  18  32  49  70  95 128 168 204 241 285
#     4  10  18  30  46  69 101 135 167 201 240 288
#     4   9  18  32  53  76  96 128 165 199 250 299
#     4   9  18  34  52  72 100 130 164 209 250 292
#     4   9  19  33  49  72 101 128 159 203 246 291
#     4  10  19  32  49  74 102 128 163 201 247 300
#     4   8  16  28  44  64  92 129 168 203 235 277
#
# _framework density 17.566994999999999
#
# number of rings (size 3 to 8) (size 9 to 14) (size 15 to 20)
#    0.000    2.727    0.909    0.545    1.273    2.182 
#    0.000    5.455    0.000    1.091    0.000    3.818 
#    0.000    1.455    0.000    0.000    0.000    0.000 
#
# Total GULP energy -545211.649478 kJ/mol
# GULP energy per Si atom -12391.173852 kJ/mol
# Density = 1.752701 g / cm^3
# Si number density = 17.566995 Si / 1000 Ang^3
#
#
#
# Elastic Constant Matrix: (Units=GPa)
#
#
# Indices 1 2 3 4 5 6 
#
# 1 136.8093 51.9141 55.4395 0.0000 0.0000 0.0000
# 2 51.9141 85.5334 32.2921 0.0000 0.0000 0.0000
# 3 55.4395 32.2921 65.9585 0.0000 0.0000 0.0000
# 4 0.0000 0.0000 0.0000 13.9990 0.0000 0.0000
# 5 0.0000 0.0000 0.0000 0.0000 4.7521 0.0000
# 6 0.0000 0.0000 0.0000 0.0000 0.0000 26.8120
#
#
#
# Elastic Compliance Matrix: (Units=1/GPa)
#
#
# Indices 1 2 3 4 5 6 
#
# 1 0.012284 -0.004364 -0.008188 0.000000 0.000000 0.000000
# 2 -0.004364 0.015893 -0.004113 0.000000 0.000000 0.000000
# 3 -0.008188 -0.004113 0.024057 0.000000 0.000000 0.000000
# 4 0.000000 0.000000 0.000000 0.071434 0.000000 0.000000
# 5 0.000000 0.000000 0.000000 0.000000 0.210433 0.000000
# 6 0.000000 0.000000 0.000000 0.000000 0.000000 0.037297
#
#
# Mechanical properties :
#
#
# Convention : Reuss Voigt Hill
#
# Bulk Modulus (GPa) = 52.90032 63.06585 57.98309
# Shear Modulus (GPa) = 12.16464 19.02298 15.59381
#
# Velocity S-wave (km/s) = 2.63434 3.29429 2.98262
# Velocity P-wave (km/s) = 6.27948 7.10267 6.70372
#
# Compressibility (1/GPa) = 0.01890348
#
# Stress axis : x y z
#
# Youngs Moduli (GPa) = 81.40998 62.92145 41.56851
#
# Poissons Ratio (x) = 0.27460 0.34036
# Poissons Ratio (y) = 0.35529 0.17096
# Poissons Ratio (z) = 0.66658 0.25877
#
# Static dielectric constant tensor:
#      x y z
#    x 3.327650 0.000000 0.000000 
#    y 0.000000 3.396440 0.000000 
#    z 0.000000 0.000000 3.530530 
# 
# 
# High freq. dielectric constant tensor:
#      x y z
#    x 1.655060 0.000000 0.000000 
#    y 0.000000 1.690010 0.000000 
#    z 0.000000 0.000000 1.660860 
# 
# From -- ./inp_files/65259.got.cif
#   From: 2010.03.12/outbox.cif.g09.slc.cpg/sg65_33_cif.got.tgz:65259.got - 2010.04.10 20:52:16.
