data_PCOD8266953
_publ_section_title
;
Structure prediction by ZEFSAII (Michael W. Deem and Ramdas Pophale) SiO2 
 PCOD8266953
Probable space group: C M M M
;
_chemical_formula_sum "Si O2"
_cell_formula_units_Z 104
_cell_length_a 8.858493
_cell_length_b 21.711417
_cell_length_c 26.540537
_cell_angle_alpha 90.000000
_cell_angle_beta 90.000000
_cell_angle_gamma 90.000000
_cell_volume 5104.553040
_symmetry_space_group_name_H-M "C M M M"
_symmetry_group_IT_number 65
_symmetry_cell_setting 'orthorhombic'
loop_
_space_group_symop_operation_xyz
x,y,z
-x,-y,z
x,-y,-z
-x,y,-z
-x,-y,-z
x,y,-z
-x,y,z
x,-y,z
1/2+x,1/2+y,z
1/2-x,1/2-y,z
1/2+x,1/2-y,-z
1/2-x,1/2+y,-z
1/2-x,1/2-y,-z
1/2+x,1/2+y,-z
1/2-x,1/2+y,z
1/2+x,1/2-y,z
loop_
_atom_site_type_symbol
_atom_site_label
_atom_site_fract_x
_atom_site_fract_y
_atom_site_fract_z
Si Si1 0.820744 0.685944 0.620092
Si Si2 0.823444 0.314125 0.807672
Si Si3 0.177508 0.500000 0.164802
Si Si4 0.320829 0.068453 0.442802
Si Si5 0.324927 0.888730 0.099105
Si Si6 0.669541 0.500000 0.731148
Si Si7 0.325351 0.366786 0.714536
Si Si8 0.177778 0.929294 0.000000
O O1 0.750000 0.750000 0.599139
O O2 0.757423 0.626330 0.589405
O O3 0.769034 0.677085 0.677697
O O4 0.000000 0.691168 0.616594
O O5 0.750000 0.250000 0.794009
O O6 0.798180 0.327604 0.867292
O O7 0.740780 0.362731 0.771137
O O8 0.000000 0.315060 0.794874
O O9 0.240683 0.558526 0.135218
O O10 0.218520 0.500000 0.222522
O O11 0.000000 0.500000 0.162204
O O12 0.265312 0.078048 0.500000
O O13 0.500000 0.070008 0.440123
O O14 0.265830 0.000000 0.423858
O O15 0.500000 0.897773 0.085160
O O16 0.231866 0.889635 0.047701
O O17 0.500000 0.500000 0.753278
O O18 0.695214 0.561505 0.697832
O O19 0.500000 0.346484 0.713257
O O20 0.000000 0.931728 0.000000
O O21 0.242374 0.000000 0.000000
#
# Coordination Sequence:
#
# PCOD8266953 Si02
#       8
#    16  16   8  16  16   8  16   8
#     4  11  23  38  59  87 120 159 202 249 298 350
#     4  11  23  40  61  84 110 148 193 236 282 336
#     4  10  18  33  57  84 111 139 177 228 275 333
#     4   8  16  34  60  89 119 153 198 250 301 353
#     4  10  21  37  58  82 110 143 180 222 274 335
#     4  10  22  36  55  85 117 151 185 233 295 344
#     4  11  23  39  58  84 120 157 192 236 290 348
#     4  11  23  35  54  85 116 143 174 220 279 336
#
# _framework density 20.373967
#
# number of rings (size 3 to 8) (size 9 to 14) (size 15 to 20)
#    0.000    1.769    2.308    2.538    1.077    3.077 
#    0.000    0.385    0.000    1.385    0.000    4.308 
#    0.000    0.000    0.000    0.000    0.000    0.000 
#
# Total GULP energy -644544.123504 kJ/mol
# GULP energy per Si atom -12395.079298 kJ/mol
# Density = 2.032760 g / cm^3
# Si number density = 20.373967 Si / 1000 Ang^3
#
#
#
# Elastic Constant Matrix: (Units=GPa)
#
#
# Indices 1 2 3 4 5 6 
#
# 1 69.1468 38.8025 29.1446 0.0000 0.0000 0.0000
# 2 38.8025 132.1151 43.4284 0.0000 0.0000 0.0000
# 3 29.1446 43.4284 86.3794 0.0000 0.0000 0.0000
# 4 0.0000 0.0000 0.0000 34.0247 0.0000 0.0000
# 5 0.0000 0.0000 0.0000 0.0000 16.8641 0.0000
# 6 0.0000 0.0000 0.0000 0.0000 0.0000 26.3577
#
#
#
# Elastic Compliance Matrix: (Units=1/GPa)
#
#
# Indices 1 2 3 4 5 6 
#
# 1 0.018510 -0.004053 -0.004207 0.000000 0.000000 0.000000
# 2 -0.004053 0.009955 -0.003638 0.000000 0.000000 0.000000
# 3 -0.004207 -0.003638 0.014825 0.000000 0.000000 0.000000
# 4 0.000000 0.000000 0.000000 0.029390 0.000000 0.000000
# 5 0.000000 0.000000 0.000000 0.000000 0.059298 0.000000
# 6 0.000000 0.000000 0.000000 0.000000 0.000000 0.037940
#
#
# Mechanical properties :
#
#
# Convention : Reuss Voigt Hill
#
# Bulk Modulus (GPa) = 51.29819 56.71026 54.00423
# Shear Modulus (GPa) = 24.97340 27.20035 26.08688
#
# Velocity S-wave (km/s) = 3.50487 3.65780 3.58215
# Velocity P-wave (km/s) = 6.45072 6.76273 6.60856
#
# Compressibility (1/GPa) = 0.01949386
#
# Stress axis : x y z
#
# Youngs Moduli (GPa) = 54.02501 100.44829 67.45238
#
# Poissons Ratio (x) = 0.40715 0.28380
# Poissons Ratio (y) = 0.21898 0.24536
# Poissons Ratio (z) = 0.22731 0.36539
#
# Static dielectric constant tensor:
#      x y z
#    x 3.450000 0.000000 0.000000 
#    y 0.000000 4.028600 0.000000 
#    z 0.000000 0.000000 3.553260 
# 
# 
# High freq. dielectric constant tensor:
#      x y z
#    x 1.778730 0.000000 0.000000 
#    y 0.000000 1.804310 0.000000 
#    z 0.000000 0.000000 1.785540 
# 
# From -- ./inp_files/73405.got.cif
#   From: 2010.03.12/outbox.cif.g09.slc.cpg/sg65_37_cif.got.tgz:73405.got - 2010.04.10 20:52:16.
