data_PCOD8266439
_publ_section_title
;
Structure prediction by ZEFSAII (Michael W. Deem and Ramdas Pophale) SiO2 
 PCOD8266439
Probable space group: C M M M
;
_chemical_formula_sum "Si O2"
_cell_formula_units_Z 104
_cell_length_a 28.472407
_cell_length_b 8.867369
_cell_length_c 22.877774
_cell_angle_alpha 90.000000
_cell_angle_beta 90.000000
_cell_angle_gamma 90.000000
_cell_volume 5776.073750
_symmetry_space_group_name_H-M "C M M M"
_symmetry_group_IT_number 65
_symmetry_cell_setting 'orthorhombic'
loop_
_space_group_symop_operation_xyz
x,y,z
-x,-y,z
x,-y,-z
-x,y,-z
-x,-y,-z
x,y,-z
-x,y,z
x,-y,z
1/2+x,1/2+y,z
1/2-x,1/2-y,z
1/2+x,1/2-y,-z
1/2-x,1/2+y,-z
1/2-x,1/2-y,-z
1/2+x,1/2+y,-z
1/2-x,1/2+y,z
1/2+x,1/2-y,z
loop_
_atom_site_type_symbol
_atom_site_label
_atom_site_fract_x
_atom_site_fract_y
_atom_site_fract_z
Si Si1 0.298983 0.324276 0.218461
Si Si2 0.949271 0.678899 0.273773
Si Si3 0.199098 0.678146 0.000000
Si Si4 0.143105 0.825073 0.103428
Si Si5 0.146828 0.678417 0.676969
Si Si6 0.946940 0.675451 0.859312
Si Si7 0.701272 0.823025 0.565083
O O1 0.290694 0.500000 0.228378
O O2 0.250000 0.250000 0.200137
O O3 0.336163 0.292158 0.167406
O O4 0.317345 0.253789 0.278388
O O5 0.950308 0.500000 0.275120
O O6 0.906246 0.740065 0.313024
O O7 0.942237 0.732205 0.207314
O O8 0.000000 0.739862 0.297148
O O9 0.250000 0.750000 0.000000
O O10 0.171729 0.728230 0.942601
O O11 0.204572 0.500000 0.000000
O O12 0.088881 0.772524 0.101800
O O13 0.146397 0.000000 0.086309
O O14 0.149428 0.500000 0.687006
O O15 0.161082 0.724296 0.611077
O O16 0.933579 0.500000 0.864480
O O17 0.000000 0.703341 0.882030
O O18 0.686285 0.768249 0.500000
O O19 0.750000 0.750000 0.584769
O O20 0.709306 0.000000 0.565993
#
# Coordination Sequence:
#
# PCOD8266439 Si02
#       7
#    16  16   8  16  16  16  16
#     4  11  23  35  50  75 106 136 167 211 261 312
#     4   8  14  26  47  75 103 133 170 208 253 311
#     4  12  26  44  65  84 107 142 184 225 261 313
#     4  11  23  39  58  82 111 143 177 217 266 317
#     4  10  18  30  51  74 100 134 171 215 261 308
#     4   9  17  32  56  83 110 141 177 217 262 317
#     4   9  18  31  46  67  96 133 175 216 260 310
#
# _framework density 18.005310000000001
#
# number of rings (size 3 to 8) (size 9 to 14) (size 15 to 20)
#    0.000    2.154    1.538    3.462    0.000    5.231 
#    0.000    0.385    0.000    3.231    0.000    3.231 
#    0.000    0.000    0.000    5.231    0.000    5.538 
#
# Total GULP energy -644739.998739 kJ/mol
# GULP energy per Si atom -12398.846130 kJ/mol
# Density = 1.796433 g / cm^3
# Si number density = 18.005310 Si / 1000 Ang^3
#
#
#
# Elastic Constant Matrix: (Units=GPa)
#
#
# Indices 1 2 3 4 5 6 
#
# 1 141.2567 44.1393 50.4984 0.0000 0.0000 0.0000
# 2 44.1393 67.1000 38.4077 0.0000 0.0000 0.0000
# 3 50.4984 38.4077 84.3830 0.0000 0.0000 0.0000
# 4 0.0000 0.0000 0.0000 20.7495 0.0000 0.0000
# 5 0.0000 0.0000 0.0000 0.0000 20.5595 0.0000
# 6 0.0000 0.0000 0.0000 0.0000 0.0000 26.6790
#
#
#
# Elastic Compliance Matrix: (Units=1/GPa)
#
#
# Indices 1 2 3 4 5 6 
#
# 1 0.009802 -0.004179 -0.003964 0.000000 0.000000 0.000000
# 2 -0.004179 0.021936 -0.007483 0.000000 0.000000 0.000000
# 3 -0.003964 -0.007483 0.017629 0.000000 0.000000 0.000000
# 4 0.000000 0.000000 0.000000 0.048194 0.000000 0.000000
# 5 0.000000 0.000000 0.000000 0.000000 0.048639 0.000000
# 6 0.000000 0.000000 0.000000 0.000000 0.000000 0.037483
#
#
# Mechanical properties :
#
#
# Convention : Reuss Voigt Hill
#
# Bulk Modulus (GPa) = 55.20510 62.09228 58.64869
# Shear Modulus (GPa) = 22.62717 24.24389 23.43553
#
# Velocity S-wave (km/s) = 3.54883 3.67343 3.61167
# Velocity P-wave (km/s) = 6.89343 7.24931 7.07361
#
# Compressibility (1/GPa) = 0.01811427
#
# Stress axis : x y z
#
# Youngs Moduli (GPa) = 102.01726 45.58807 56.72487
#
# Poissons Ratio (x) = 0.19052 0.22485
# Poissons Ratio (y) = 0.42634 0.42448
# Poissons Ratio (z) = 0.40439 0.34114
#
# Static dielectric constant tensor:
#      x y z
#    x 4.386100 0.000000 0.000000 
#    y 0.000000 3.176800 0.000000 
#    z 0.000000 0.000000 3.353960 
# 
# 
# High freq. dielectric constant tensor:
#      x y z
#    x 1.707500 0.000000 0.000000 
#    y 0.000000 1.683190 0.000000 
#    z 0.000000 0.000000 1.680670 
# 
# From -- ./inp_files/66349.got.cif
#   From: 2010.03.12/outbox.cif.g09.slc.cpg/sg65_34_cif.got.tgz:66349.got - 2010.04.10 20:52:16.
