data_PCOD8266063
_publ_section_title
;
Structure prediction by ZEFSAII (Michael W. Deem and Ramdas Pophale) SiO2 
 PCOD8266063
Probable space group: C M M M
;
_chemical_formula_sum "Si O2"
_cell_formula_units_Z 104
_cell_length_a 18.296764
_cell_length_b 13.630775
_cell_length_c 24.221894
_cell_angle_alpha 90.000000
_cell_angle_beta 90.000000
_cell_angle_gamma 90.000000
_cell_volume 6040.917917
_symmetry_space_group_name_H-M "C M M M"
_symmetry_group_IT_number 65
_symmetry_cell_setting 'orthorhombic'
loop_
_space_group_symop_operation_xyz
x,y,z
-x,-y,z
x,-y,-z
-x,y,-z
-x,-y,-z
x,y,-z
-x,y,z
x,-y,z
1/2+x,1/2+y,z
1/2-x,1/2-y,z
1/2+x,1/2-y,-z
1/2-x,1/2+y,-z
1/2-x,1/2-y,-z
1/2+x,1/2+y,-z
1/2-x,1/2+y,z
1/2+x,1/2-y,z
loop_
_atom_site_type_symbol
_atom_site_label
_atom_site_fract_x
_atom_site_fract_y
_atom_site_fract_z
Si Si1 0.778928 0.610632 0.735339
Si Si2 0.638317 0.613002 0.673995
Si Si3 0.226459 0.113087 0.147172
Si Si4 0.129201 0.712362 0.872201
Si Si5 0.582930 0.383582 0.559550
Si Si6 0.500000 0.113704 0.065177
Si Si7 0.418475 0.226857 0.252168
O O1 0.800704 0.500000 0.748465
O O2 0.725056 0.624422 0.683939
O O3 0.733431 0.649246 0.788847
O O4 0.854258 0.663382 0.720031
O O5 0.613873 0.500000 0.677475
O O6 0.625940 0.657989 0.612736
O O7 0.589991 0.665408 0.721241
O O8 0.165947 0.180507 0.116243
O O9 0.307479 0.130257 0.123189
O O10 0.202891 0.000000 0.140400
O O11 0.070191 0.676885 0.916385
O O12 0.089918 0.721505 0.813400
O O13 0.614452 0.345712 0.500000
O O14 0.500000 0.347595 0.565314
O O15 0.587051 0.500000 0.560018
O O16 0.500000 0.000000 0.088150
O O17 0.500000 0.109795 0.000000
O O18 0.500000 0.187393 0.266290
#
# Coordination Sequence:
#
# PCOD8266063 Si02
#       7
#    16  16  16  16  16   8  16
#     4   9  18  31  47  68  98 135 169 206 254 307
#     4  10  18  29  47  72 103 136 169 205 256 317
#     4   9  17  32  54  79 107 139 172 210 261 317
#     4  10  19  34  55  80 106 134 175 218 260 311
#     4   8  14  25  41  64  97 135 173 214 258 304
#     4  11  24  42  61  81 107 139 177 220 260 296
#     4  11  20  30  46  72 104 131 164 207 257 308
#
# _framework density 17.215927000000001
#
# number of rings (size 3 to 8) (size 9 to 14) (size 15 to 20)
#    0.000    2.385    2.308    1.846    0.000    1.846 
#    0.000    1.923    0.000    3.692    0.000    0.000 
#    0.000    0.000    0.000    9.231    0.000    0.154 
#
# Total GULP energy -644225.392884 kJ/mol
# GULP energy per Si atom -12388.949863 kJ/mol
# Density = 1.717674 g / cm^3
# Si number density = 17.215927 Si / 1000 Ang^3
#
#
#
# Elastic Constant Matrix: (Units=GPa)
#
#
# Indices 1 2 3 4 5 6 
#
# 1 104.7816 40.9556 42.8475 0.0000 0.0000 0.0000
# 2 40.9556 81.6090 29.8190 0.0000 0.0000 0.0000
# 3 42.8475 29.8190 77.6936 0.0000 0.0000 0.0000
# 4 0.0000 0.0000 0.0000 15.5558 0.0000 0.0000
# 5 0.0000 0.0000 0.0000 0.0000 21.1175 0.0000
# 6 0.0000 0.0000 0.0000 0.0000 0.0000 21.2394
#
#
#
# Elastic Compliance Matrix: (Units=1/GPa)
#
#
# Indices 1 2 3 4 5 6 
#
# 1 0.013776 -0.004812 -0.005750 0.000000 0.000000 0.000000
# 2 -0.004812 0.015933 -0.003461 0.000000 0.000000 0.000000
# 3 -0.005750 -0.003461 0.017371 0.000000 0.000000 0.000000
# 4 0.000000 0.000000 0.000000 0.064285 0.000000 0.000000
# 5 0.000000 0.000000 0.000000 0.000000 0.047354 0.000000
# 6 0.000000 0.000000 0.000000 0.000000 0.000000 0.047082
#
#
# Mechanical properties :
#
#
# Convention : Reuss Voigt Hill
#
# Bulk Modulus (GPa) = 52.54269 54.59204 53.56737
# Shear Modulus (GPa) = 20.81652 21.61333 21.21493
#
# Velocity S-wave (km/s) = 3.48105 3.54704 3.51420
# Velocity P-wave (km/s) = 6.83688 6.96810 6.90280
#
# Compressibility (1/GPa) = 0.01903214
#
# Stress axis : x y z
#
# Youngs Moduli (GPa) = 72.58914 62.76131 57.56776
#
# Poissons Ratio (x) = 0.30204 0.33104
# Poissons Ratio (y) = 0.34933 0.19926
# Poissons Ratio (z) = 0.41742 0.21723
#
# Static dielectric constant tensor:
#      x y z
#    x 3.232300 0.000000 0.000000 
#    y 0.000000 3.146780 0.000000 
#    z 0.000000 0.000000 3.290960 
# 
# 
# High freq. dielectric constant tensor:
#      x y z
#    x 1.663850 0.000000 0.000000 
#    y 0.000000 1.649280 0.000000 
#    z 0.000000 0.000000 1.637650 
# 
# From -- ./inp_files/70541.got.cif
#   From: 2010.03.12/outbox.cif.g09.slc.cpg/sg65_36_cif.got.tgz:70541.got - 2010.04.10 20:52:16.
