data_PCOD8266761
_publ_section_title
;
Structure prediction by ZEFSAII (Michael W. Deem and Ramdas Pophale) SiO2 
 PCOD8266761
Probable space group: C M M M
;
_chemical_formula_sum "Si O2"
_cell_formula_units_Z 104
_cell_length_a 8.847916
_cell_length_b 28.649645
_cell_length_c 23.250298
_cell_angle_alpha 90.000000
_cell_angle_beta 90.000000
_cell_angle_gamma 90.000000
_cell_volume 5893.709958
_symmetry_space_group_name_H-M "C M M M"
_symmetry_group_IT_number 65
_symmetry_cell_setting 'orthorhombic'
loop_
_space_group_symop_operation_xyz
x,y,z
-x,-y,z
x,-y,-z
-x,y,-z
-x,-y,-z
x,y,-z
-x,y,z
x,-y,z
1/2+x,1/2+y,z
1/2-x,1/2-y,z
1/2+x,1/2-y,-z
1/2-x,1/2+y,-z
1/2-x,1/2-y,-z
1/2+x,1/2+y,-z
1/2-x,1/2+y,z
1/2+x,1/2-y,z
loop_
_atom_site_type_symbol
_atom_site_label
_atom_site_fract_x
_atom_site_fract_y
_atom_site_fract_z
Si Si1 0.819139 0.301429 0.000000
Si Si2 0.178716 0.800615 0.114760
Si Si3 0.673386 0.146107 0.784690
Si Si4 0.827338 0.552019 0.731232
Si Si5 0.677170 0.447800 0.612089
Si Si6 0.676171 0.860253 0.435944
Si Si7 0.823828 0.299643 0.668689
O O1 0.750000 0.250000 0.000000
O O2 0.754262 0.324840 0.058215
O O3 0.000000 0.301568 0.000000
O O4 0.250000 0.750000 0.126982
O O5 0.213138 0.833875 0.168187
O O6 0.000000 0.795312 0.106122
O O7 0.500000 0.157151 0.802040
O O8 0.702626 0.090361 0.780751
O O9 0.713060 0.168295 0.723233
O O10 0.795180 0.500000 0.756115
O O11 0.721683 0.563351 0.677510
O O12 0.000000 0.556553 0.709595
O O13 0.500000 0.443047 0.606190
O O14 0.731517 0.500000 0.595365
O O15 0.751434 0.411289 0.568889
O O16 0.709439 0.840655 0.500000
O O17 0.500000 0.866549 0.424467
O O18 0.743530 0.824515 0.388581
O O19 0.750000 0.250000 0.678328
O O20 0.000000 0.291297 0.661049
#
# Coordination Sequence:
#
# PCOD8266761 Si02
#       7
#     8  16  16  16  16  16  16
#     4  10  18  32  52  74 105 144 181 218 258 297
#     4  11  21  33  50  76 109 145 182 216 254 300
#     4  10  19  33  52  77 106 134 170 212 255 301
#     4   9  17  32  55  78 102 134 169 205 249 303
#     4  10  20  33  51  76 104 129 156 198 255 313
#     4  10  21  38  56  72  93 127 171 212 253 307
#     4  10  21  36  52  73  98 129 165 211 257 303
#
# _framework density 17.64593
#
# number of rings (size 3 to 8) (size 9 to 14) (size 15 to 20)
#    0.000    2.000    1.538    3.923    0.000    4.923 
#    0.000    1.538    0.000    0.000    0.000    0.538 
#    0.000    4.308    0.000    0.000    0.000    0.000 
#
# Total GULP energy -644741.665767 kJ/mol
# GULP energy per Si atom -12398.878188 kJ/mol
# Density = 1.760577 g / cm^3
# Si number density = 17.645930 Si / 1000 Ang^3
#
#
#
# Elastic Constant Matrix: (Units=GPa)
#
#
# Indices 1 2 3 4 5 6 
#
# 1 71.8991 29.7116 39.5520 0.0000 0.0000 0.0000
# 2 29.7116 93.2394 40.1016 0.0000 0.0000 0.0000
# 3 39.5520 40.1016 100.6921 0.0000 0.0000 0.0000
# 4 0.0000 0.0000 0.0000 12.3316 0.0000 0.0000
# 5 0.0000 0.0000 0.0000 0.0000 24.8840 0.0000
# 6 0.0000 0.0000 0.0000 0.0000 0.0000 22.9836
#
#
#
# Elastic Compliance Matrix: (Units=1/GPa)
#
#
# Indices 1 2 3 4 5 6 
#
# 1 0.018573 -0.003356 -0.005959 0.000000 0.000000 0.000000
# 2 -0.003356 0.013548 -0.004078 0.000000 0.000000 0.000000
# 3 -0.005959 -0.004078 0.013896 0.000000 0.000000 0.000000
# 4 0.000000 0.000000 0.000000 0.081093 0.000000 0.000000
# 5 0.000000 0.000000 0.000000 0.000000 0.040187 0.000000
# 6 0.000000 0.000000 0.000000 0.000000 0.000000 0.043509
#
#
# Mechanical properties :
#
#
# Convention : Reuss Voigt Hill
#
# Bulk Modulus (GPa) = 51.99498 53.84012 52.91755
# Shear Modulus (GPa) = 20.49170 22.47086 21.48128
#
# Velocity S-wave (km/s) = 3.41144 3.57239 3.49284
# Velocity P-wave (km/s) = 6.71170 6.89881 6.80590
#
# Compressibility (1/GPa) = 0.01923262
#
# Stress axis : x y z
#
# Youngs Moduli (GPa) = 53.84098 73.81115 71.96319
#
# Poissons Ratio (x) = 0.24767 0.42884
# Poissons Ratio (y) = 0.18066 0.29344
# Poissons Ratio (z) = 0.32085 0.30097
#
# Static dielectric constant tensor:
#      x y z
#    x 3.240750 0.000000 0.000000 
#    y 0.000000 3.331000 0.000000 
#    z 0.000000 0.000000 3.451680 
# 
# 
# High freq. dielectric constant tensor:
#      x y z
#    x 1.682070 0.000000 0.000000 
#    y 0.000000 1.670490 0.000000 
#    z 0.000000 0.000000 1.670840 
# 
# From -- ./inp_files/60396.got.cif
#   From: 2010.03.12/outbox.cif.g09.slc.cpg/sg65_31_cif.got.tgz:60396.got - 2010.04.10 20:52:16.
