data_PCOD8266401
_publ_section_title
;
Structure prediction by ZEFSAII (Michael W. Deem and Ramdas Pophale) SiO2 
 PCOD8266401
Probable space group: C M M M
;
_chemical_formula_sum "Si O2"
_cell_formula_units_Z 104
_cell_length_a 21.059614
_cell_length_b 13.740419
_cell_length_c 19.421279
_cell_angle_alpha 90.000000
_cell_angle_beta 90.000000
_cell_angle_gamma 90.000000
_cell_volume 5619.895115
_symmetry_space_group_name_H-M "C M M M"
_symmetry_group_IT_number 65
_symmetry_cell_setting 'orthorhombic'
loop_
_space_group_symop_operation_xyz
x,y,z
-x,-y,z
x,-y,-z
-x,y,-z
-x,-y,-z
x,y,-z
-x,y,z
x,-y,z
1/2+x,1/2+y,z
1/2-x,1/2-y,z
1/2+x,1/2-y,-z
1/2-x,1/2+y,-z
1/2-x,1/2-y,-z
1/2+x,1/2+y,-z
1/2-x,1/2+y,z
1/2+x,1/2-y,z
loop_
_atom_site_type_symbol
_atom_site_label
_atom_site_fract_x
_atom_site_fract_y
_atom_site_fract_z
Si Si1 0.880389 0.885018 0.720105
Si Si2 0.429639 0.285008 0.148099
Si Si3 0.075679 0.611173 0.500000
Si Si4 0.574936 0.790511 0.638703
Si Si5 0.245471 0.894092 0.212891
Si Si6 0.196485 0.167655 0.923980
Si Si7 0.883421 0.613314 0.226899
O O1 0.921389 0.859207 0.787732
O O2 0.901156 0.819348 0.655116
O O3 0.807717 0.852485 0.735848
O O4 0.887631 0.000000 0.703386
O O5 0.500000 0.303175 0.116340
O O6 0.375627 0.296185 0.089889
O O7 0.428560 0.174364 0.176598
O O8 0.101822 0.500000 0.500000
O O9 0.101563 0.670762 0.434009
O O10 0.000000 0.608020 0.500000
O O11 0.500000 0.787417 0.637437
O O12 0.597562 0.869390 0.694475
O O13 0.216666 0.905950 0.136002
O O14 0.312657 0.838125 0.215044
O O15 0.263675 0.000000 0.240335
O O16 0.250000 0.250000 0.921218
O O17 0.196901 0.118970 0.000000
O O18 0.889107 0.500000 0.207232
#
# Coordination Sequence:
#
# PCOD8266401 Si02
#       7
#    16  16   8  16  16  16  16
#     4   9  18  32  51  73 102 134 168 212 257 301
#     4  10  20  31  48  75 102 130 167 213 265 311
#     4   9  18  34  51  70 103 139 172 210 246 293
#     4  10  20  31  49  76 101 132 169 202 249 307
#     4   9  18  32  51  75  97 127 169 213 256 300
#     4  10  19  33  51  68  93 133 173 209 251 305
#     4  10  18  30  50  75 102 129 164 210 254 302
#
# _framework density 18.505683999999999
#
# number of rings (size 3 to 8) (size 9 to 14) (size 15 to 20)
#    0.000    2.385    1.538    2.308    0.000    3.692 
#    0.000    0.385    0.000    3.692    0.000    8.615 
#    0.000    0.000    0.000    0.000    0.000    0.000 
#
# Total GULP energy -644199.258553 kJ/mol
# GULP energy per Si atom -12388.447280 kJ/mol
# Density = 1.846356 g / cm^3
# Si number density = 18.505684 Si / 1000 Ang^3
#
#
#
# Elastic Constant Matrix: (Units=GPa)
#
#
# Indices 1 2 3 4 5 6 
#
# 1 -31.5416 32.3613 -76.5359 0.0000 0.0000 0.0000
# 2 32.3613 97.0902 35.5305 0.0000 0.0000 0.0000
# 3 -76.5359 35.5305 22.6858 0.0000 0.0000 0.0000
# 4 0.0000 0.0000 0.0000 13.4747 0.0000 0.0000
# 5 0.0000 0.0000 0.0000 0.0000 20.5517 0.0000
# 6 0.0000 0.0000 0.0000 0.0000 0.0000 16.5312
#
#
#
# Elastic Compliance Matrix: (Units=1/GPa)
#
#
# Indices 1 2 3 4 5 6 
#
# 1 -0.001178 0.004327 -0.010751 0.000000 0.000000 0.000000
# 2 0.004327 0.008236 0.001699 0.000000 0.000000 0.000000
# 3 -0.010751 0.001699 0.005149 0.000000 0.000000 0.000000
# 4 0.000000 0.000000 0.000000 0.074213 0.000000 0.000000
# 5 0.000000 0.000000 0.000000 0.000000 0.048658 0.000000
# 6 0.000000 0.000000 0.000000 0.000000 0.000000 0.060492
#
#
# Mechanical properties :
#
#
# Convention : Reuss Voigt Hill
#
# Bulk Modulus (GPa) = 362.69197 7.88292 185.28744
# Shear Modulus (GPa) = 24.27912 16.57007 20.42460
#
# Velocity S-wave (km/s) = 3.62606 2.99558 3.32579
# Velocity P-wave (km/s) = 14.62689 4.02910 10.72799
#
# Compressibility (1/GPa) = 0.00275716
#
# Stress axis : x y z
#
# Youngs Moduli (GPa) = -848.95781 121.42251 194.21320
#
# Poissons Ratio (x) = -0.52538 2.08795
# Poissons Ratio (y) = 3.67336 -0.32998
# Poissons Ratio (z) = -9.12697 -0.20631
#
# Static dielectric constant tensor:
#      x y z
#    x 3.565370 0.000000 0.000000 
#    y 0.000000 3.304870 0.000000 
#    z 0.000000 0.000000 3.382680 
# 
# 
# High freq. dielectric constant tensor:
#      x y z
#    x 1.721850 0.000000 0.000000 
#    y 0.000000 1.717340 0.000000 
#    z 0.000000 0.000000 1.685860 
# 
# From -- ./inp_files/64688.got.cif
#   From: 2010.03.12/outbox.cif.g09.slc.cpg/sg65_33_cif.got.tgz:64688.got - 2010.04.10 20:52:16.
