data_PCOD8266443
_publ_section_title
;
Structure prediction by ZEFSAII (Michael W. Deem and Ramdas Pophale) SiO2 
 PCOD8266443
Probable space group: C M M M
;
_chemical_formula_sum "Si O2"
_cell_formula_units_Z 88
_cell_length_a 18.874913
_cell_length_b 8.863892
_cell_length_c 28.325335
_cell_angle_alpha 90.000000
_cell_angle_beta 90.000000
_cell_angle_gamma 90.000000
_cell_volume 4738.975564
_symmetry_space_group_name_H-M "C M M M"
_symmetry_group_IT_number 65
_symmetry_cell_setting 'orthorhombic'
loop_
_space_group_symop_operation_xyz
x,y,z
-x,-y,z
x,-y,-z
-x,y,-z
-x,-y,-z
x,y,-z
-x,y,z
x,-y,z
1/2+x,1/2+y,z
1/2-x,1/2-y,z
1/2+x,1/2-y,-z
1/2-x,1/2+y,-z
1/2-x,1/2-y,-z
1/2+x,1/2+y,-z
1/2-x,1/2+y,z
1/2+x,1/2-y,z
loop_
_atom_site_type_symbol
_atom_site_label
_atom_site_fract_x
_atom_site_fract_y
_atom_site_fract_z
Si Si1 0.172243 0.179352 0.411939
Si Si2 0.326392 0.176893 0.319358
Si Si3 0.081000 0.677988 0.129418
Si Si4 0.825871 0.675912 0.784122
Si Si5 0.579734 0.321087 0.500000
Si Si6 0.677236 0.676793 0.945617
O O1 0.250000 0.250000 0.419066
O O2 0.135246 0.240095 0.363353
O O3 0.121792 0.235751 0.453992
O O4 0.179091 0.000000 0.410493
O O5 0.250000 0.250000 0.316508
O O6 0.360898 0.207748 0.267759
O O7 0.321274 0.000000 0.330406
O O8 0.089422 0.500000 0.123172
O O9 0.120493 0.737234 0.176395
O O10 0.111823 0.758218 0.083411
O O11 0.000000 0.726926 0.134393
O O12 0.812875 0.500000 0.790357
O O13 0.750000 0.750000 0.791214
O O14 0.576026 0.500000 0.500000
O O15 0.500000 0.253655 0.500000
O O16 0.683142 0.500000 0.937738
O O17 0.750000 0.750000 0.927041
O O18 0.663922 0.719508 0.000000
#
# Coordination Sequence:
#
# PCOD8266443 Si02
#       6
#    16  16  16  16   8  16
#     4  10  18  30  51  74  96 123 158 201 244 289
#     4   9  16  28  47  72 100 126 158 201 246 291
#     4  10  21  36  53  75 105 140 175 209 249 299
#     4   9  18  32  51  74  99 130 166 205 248 293
#     4   9  19  34  49  67  94 129 164 196 236 287
#     4  10  21  37  57  80 105 133 168 211 257 304
#
# _framework density 18.569414999999999
#
# number of rings (size 3 to 8) (size 9 to 14) (size 15 to 20)
#    0.000    2.455    0.000    3.545    0.000    4.727 
#    0.000    4.091    0.000    5.455    0.000    0.000 
#    0.000    0.000    0.000    0.000    0.000    0.000 
#
# Total GULP energy -545404.167049 kJ/mol
# GULP energy per Si atom -12395.549251 kJ/mol
# Density = 1.852715 g / cm^3
# Si number density = 18.569415 Si / 1000 Ang^3
#
#
#
# Elastic Constant Matrix: (Units=GPa)
#
#
# Indices 1 2 3 4 5 6 
#
# 1 112.5137 36.9939 81.0729 0.0000 0.0000 0.0000
# 2 36.9939 61.2266 46.5780 0.0000 0.0000 0.0000
# 3 81.0729 46.5780 155.3404 0.0000 0.0000 0.0000
# 4 0.0000 0.0000 0.0000 24.7207 0.0000 0.0000
# 5 0.0000 0.0000 0.0000 0.0000 9.6593 0.0000
# 6 0.0000 0.0000 0.0000 0.0000 0.0000 20.3521
#
#
#
# Elastic Compliance Matrix: (Units=1/GPa)
#
#
# Indices 1 2 3 4 5 6 
#
# 1 0.014971 -0.004018 -0.006609 0.000000 0.000000 0.000000
# 2 -0.004018 0.022238 -0.004571 0.000000 0.000000 0.000000
# 3 -0.006609 -0.004571 0.011257 0.000000 0.000000 0.000000
# 4 0.000000 0.000000 0.000000 0.040452 0.000000 0.000000
# 5 0.000000 0.000000 0.000000 0.000000 0.103527 0.000000
# 6 0.000000 0.000000 0.000000 0.000000 0.000000 0.049135
#
#
# Mechanical properties :
#
#
# Convention : Reuss Voigt Hill
#
# Bulk Modulus (GPa) = 55.33815 73.15225 64.24520
# Shear Modulus (GPa) = 17.98576 21.90882 19.94729
#
# Velocity S-wave (km/s) = 3.11556 3.43860 3.28106
# Velocity P-wave (km/s) = 6.54276 7.43268 7.00187
#
# Compressibility (1/GPa) = 0.01807072
#
# Stress axis : x y z
#
# Youngs Moduli (GPa) = 66.79680 44.96844 88.83347
#
# Poissons Ratio (x) = 0.18069 0.58706
# Poissons Ratio (y) = 0.26840 0.40604
# Poissons Ratio (z) = 0.44143 0.20554
#
# Static dielectric constant tensor:
#      x y z
#    x 3.216960 0.000000 0.000000 
#    y 0.000000 3.359670 0.000000 
#    z 0.000000 0.000000 4.196910 
# 
# 
# High freq. dielectric constant tensor:
#      x y z
#    x 1.686870 0.000000 0.000000 
#    y 0.000000 1.716810 0.000000 
#    z 0.000000 0.000000 1.745260 
# 
# From -- ./inp_files/76535.got.cif
#   From: 2010.03.12/outbox.cif.g09.slc.cpg/sg65_39_cif.got.tgz:76535.got - 2010.04.10 20:52:16.
