data_PCOD8266701
_publ_section_title
;
Structure prediction by ZEFSAII (Michael W. Deem and Ramdas Pophale) SiO2 
 PCOD8266701
Probable space group: C M M M
;
_chemical_formula_sum "Si O2"
_cell_formula_units_Z 88
_cell_length_a 24.471591
_cell_length_b 20.160343
_cell_length_c 9.749188
_cell_angle_alpha 90.000000
_cell_angle_beta 90.000000
_cell_angle_gamma 90.000000
_cell_volume 4809.817161
_symmetry_space_group_name_H-M "C M M M"
_symmetry_group_IT_number 65
_symmetry_cell_setting 'orthorhombic'
loop_
_space_group_symop_operation_xyz
x,y,z
-x,-y,z
x,-y,-z
-x,y,-z
-x,-y,-z
x,y,-z
-x,y,z
x,-y,z
1/2+x,1/2+y,z
1/2-x,1/2-y,z
1/2+x,1/2-y,-z
1/2-x,1/2+y,-z
1/2-x,1/2-y,-z
1/2+x,1/2+y,-z
1/2-x,1/2+y,z
1/2+x,1/2-y,z
loop_
_atom_site_type_symbol
_atom_site_label
_atom_site_fract_x
_atom_site_fract_y
_atom_site_fract_z
Si Si1 0.817371 0.000000 0.336990
Si Si2 0.145236 0.368477 0.156714
Si Si3 0.062444 0.575850 0.348356
Si Si4 0.214822 0.500000 0.848262
Si Si5 0.383218 0.373392 0.662020
Si Si6 0.814862 0.744087 0.345379
Si Si7 0.500000 0.422831 0.663364
O O1 0.849334 0.064116 0.282458
O O2 0.810045 0.000000 0.500000
O O3 0.758142 0.000000 0.271713
O O4 0.088151 0.376460 0.235150
O O5 0.177819 0.436111 0.170151
O O6 0.177997 0.311899 0.233076
O O7 0.134342 0.348126 0.000000
O O8 0.088653 0.586487 0.500000
O O9 0.069672 0.500000 0.302287
O O10 0.000000 0.596318 0.355724
O O11 0.242025 0.500000 0.000000
O O12 0.384407 0.376060 0.500000
O O13 0.350372 0.307395 0.708382
O O14 0.446029 0.382180 0.716170
O O15 0.835056 0.725835 0.500000
O O16 0.750000 0.750000 0.350363
O O17 0.500000 0.500000 0.715915
O O18 0.500000 0.424941 0.500000
#
# Coordination Sequence:
#
# PCOD8266701 Si02
#       7
#     8  16  16   8  16  16   8
#     4  10  18  31  56  85 105 132 176 222 274 333
#     4  11  22  37  55  77 109 147 187 228 275 335
#     4   9  18  34  57  83 108 135 173 222 273 325
#     4  10  22  36  50  76 109 141 180 225 272 325
#     4   9  17  30  51  80 111 141 176 222 281 337
#     4  10  21  37  54  77 112 149 187 235 286 336
#     4   9  14  26  50  82 116 139 166 221 281 337
#
# _framework density 18.295914
#
# number of rings (size 3 to 8) (size 9 to 14) (size 15 to 20)
#    0.000    2.273    1.818    2.182    0.000    3.636 
#    1.636    1.818    0.000    0.000    0.000    2.545 
#    0.000    0.000    0.000    0.000    0.000    0.000 
#
# Total GULP energy -545243.065335 kJ/mol
# GULP energy per Si atom -12391.887849 kJ/mol
# Density = 1.825427 g / cm^3
# Si number density = 18.295914 Si / 1000 Ang^3
#
#
#
# Elastic Constant Matrix: (Units=GPa)
#
#
# Indices 1 2 3 4 5 6 
#
# 1 93.1645 36.8955 36.9497 0.0000 0.0000 0.0000
# 2 36.8955 104.0986 42.8827 0.0000 0.0000 0.0000
# 3 36.9497 42.8827 90.9262 0.0000 0.0000 0.0000
# 4 0.0000 0.0000 0.0000 122.7405 0.0000 0.0000
# 5 0.0000 0.0000 0.0000 0.0000 11.6433 0.0000
# 6 0.0000 0.0000 0.0000 0.0000 0.0000 47.3817
#
#
#
# Elastic Compliance Matrix: (Units=1/GPa)
#
#
# Indices 1 2 3 4 5 6 
#
# 1 0.013581 -0.003153 -0.004032 0.000000 0.000000 0.000000
# 2 -0.003153 0.012654 -0.004687 0.000000 0.000000 0.000000
# 3 -0.004032 -0.004687 0.014847 0.000000 0.000000 0.000000
# 4 0.000000 0.000000 0.000000 0.008147 0.000000 0.000000
# 5 0.000000 0.000000 0.000000 0.000000 0.085886 0.000000
# 6 0.000000 0.000000 0.000000 0.000000 0.000000 0.021105
#
#
# Mechanical properties :
#
#
# Convention : Reuss Voigt Hill
#
# Bulk Modulus (GPa) = 57.67279 57.96057 57.81668
# Shear Modulus (GPa) = 26.91866 47.78388 37.35127
#
# Velocity S-wave (km/s) = 3.83991 5.11605 4.52321
# Velocity P-wave (km/s) = 7.15894 8.16375 7.67780
#
# Compressibility (1/GPa) = 0.01733920
#
# Stress axis : x y z
#
# Youngs Moduli (GPa) = 73.62996 79.02388 67.35369
#
# Poissons Ratio (x) = 0.24913 0.27159
# Poissons Ratio (y) = 0.23212 0.31568
# Poissons Ratio (z) = 0.29690 0.37038
#
# Static dielectric constant tensor:
#      x y z
#    x 3.487710 0.000000 0.000000 
#    y 0.000000 3.477030 0.000000 
#    z 0.000000 0.000000 3.241860 
# 
# 
# High freq. dielectric constant tensor:
#      x y z
#    x 1.715450 0.000000 0.000000 
#    y 0.000000 1.705920 0.000000 
#    z 0.000000 0.000000 1.678310 
# 
# From -- ./inp_files/14086.got.cif
#   From: 2010.03.12/outbox.cif.g09.slc.cpg/sg65_8_cif.got.tgz:14086.got - 2010.04.10 20:52:16.
