data_PCOD8266224
_publ_section_title
;
Structure prediction by ZEFSAII (Michael W. Deem and Ramdas Pophale) SiO2 
 PCOD8266224
Probable space group: C M M M
;
_chemical_formula_sum "Si O2"
_cell_formula_units_Z 64
_cell_length_a 8.610266
_cell_length_b 16.070390
_cell_length_c 22.307619
_cell_angle_alpha 90.000000
_cell_angle_beta 90.000000
_cell_angle_gamma 90.000000
_cell_volume 3086.712661
_symmetry_space_group_name_H-M "C M M M"
_symmetry_group_IT_number 65
_symmetry_cell_setting 'orthorhombic'
loop_
_space_group_symop_operation_xyz
x,y,z
-x,-y,z
x,-y,-z
-x,y,-z
-x,-y,-z
x,y,-z
-x,y,z
x,-y,z
1/2+x,1/2+y,z
1/2-x,1/2-y,z
1/2+x,1/2-y,-z
1/2-x,1/2+y,-z
1/2-x,1/2-y,-z
1/2+x,1/2+y,-z
1/2-x,1/2+y,z
1/2+x,1/2-y,z
loop_
_atom_site_type_symbol
_atom_site_label
_atom_site_fract_x
_atom_site_fract_y
_atom_site_fract_z
Si Si1 0.821871 0.000000 0.429287
Si Si2 0.183690 0.337627 0.631823
Si Si3 0.684778 0.158304 0.120021
Si Si4 0.184218 0.843122 0.000000
Si Si5 0.815952 0.408288 0.754681
O O1 0.742723 0.915930 0.405806
O O2 0.803599 0.000000 0.500000
O O3 0.000000 0.000000 0.408805
O O4 0.250000 0.250000 0.607203
O O5 0.238698 0.347512 0.701249
O O6 0.000000 0.335689 0.626003
O O7 0.500000 0.157432 0.117487
O O8 0.750000 0.250000 0.120537
O O9 0.751223 0.116442 0.180445
O O10 0.751883 0.111890 0.060511
O O11 0.250000 0.750000 0.000000
O O12 0.000000 0.843216 0.000000
O O13 0.754226 0.500000 0.738422
O O14 0.000000 0.407786 0.758756
#
# Coordination Sequence:
#
# PCOD8266224 Si02
#       5
#     8  16  16   8  16
#     4  11  25  45  67  95 131 168 211 258 303 359
#     4  11  22  40  67  96 130 167 209 256 310 368
#     4  10  18  30  51  75 103 138 183 234 289 353
#     4  10  18  30  47  68 101 137 181 235 289 349
#     4   9  18  34  56  83 114 150 192 243 298 357
#
# _framework density 20.734033
#
# number of rings (size 3 to 8) (size 9 to 14) (size 15 to 20)
#    0.000    1.875    1.250    5.250    0.000    1.500 
#    0.000    4.375    0.000    3.750    0.000    0.000 
#    0.000    0.000    0.000    0.000    0.000    0.000 
#
# Total GULP energy -396608.590149 kJ/mol
# GULP energy per Si atom -12394.018442 kJ/mol
# Density = 2.068684 g / cm^3
# Si number density = 20.734033 Si / 1000 Ang^3
#
#
#
# Elastic Constant Matrix: (Units=GPa)
#
#
# Indices 1 2 3 4 5 6 
#
# 1 106.0074 36.7645 46.6853 0.0000 0.0000 0.0000
# 2 36.7645 126.2508 46.1552 0.0000 0.0000 0.0000
# 3 46.6853 46.1552 112.0476 0.0000 0.0000 0.0000
# 4 0.0000 0.0000 0.0000 54.7702 0.0000 0.0000
# 5 0.0000 0.0000 0.0000 0.0000 28.5354 0.0000
# 6 0.0000 0.0000 0.0000 0.0000 0.0000 24.5707
#
#
#
# Elastic Compliance Matrix: (Units=1/GPa)
#
#
# Indices 1 2 3 4 5 6 
#
# 1 0.011949 -0.001954 -0.004174 0.000000 0.000000 0.000000
# 2 -0.001954 0.009644 -0.003159 0.000000 0.000000 0.000000
# 3 -0.004174 -0.003159 0.011965 0.000000 0.000000 0.000000
# 4 0.000000 0.000000 0.000000 0.018258 0.000000 0.000000
# 5 0.000000 0.000000 0.000000 0.000000 0.035044 0.000000
# 6 0.000000 0.000000 0.000000 0.000000 0.000000 0.040699
#
#
# Mechanical properties :
#
#
# Convention : Reuss Voigt Hill
#
# Bulk Modulus (GPa) = 66.72961 67.05731 66.89346
# Shear Modulus (GPa) = 33.08462 35.88864 34.48663
#
# Velocity S-wave (km/s) = 3.99891 4.16493 4.08277
# Velocity P-wave (km/s) = 7.31951 7.45256 7.38634
#
# Compressibility (1/GPa) = 0.01498585
#
# Stress axis : x y z
#
# Youngs Moduli (GPa) = 83.68888 103.68648 83.57696
#
# Poissons Ratio (x) = 0.20257 0.34884
# Poissons Ratio (y) = 0.16350 0.26400
# Poissons Ratio (z) = 0.34931 0.32752
#
# Static dielectric constant tensor:
#      x y z
#    x 3.564210 0.000000 0.000000 
#    y 0.000000 3.676500 0.000000 
#    z 0.000000 0.000000 4.662880 
# 
# 
# High freq. dielectric constant tensor:
#      x y z
#    x 1.797400 0.000000 0.000000 
#    y 0.000000 1.796400 0.000000 
#    z 0.000000 0.000000 1.831340 
# 
# From -- ./inp_files/66829.got.cif
#   From: 2010.03.12/outbox.cif.g09.slc.cpg/sg65_34_cif.got.tgz:66829.got - 2010.04.10 20:52:16.
