data_PCOD8266072
_publ_section_title
;
Structure prediction by ZEFSAII (Michael W. Deem and Ramdas Pophale) SiO2 
 PCOD8266072
Probable space group: C M M M
;
_chemical_formula_sum "Si O2"
_cell_formula_units_Z 88
_cell_length_a 18.930319
_cell_length_b 8.832355
_cell_length_c 28.626278
_cell_angle_alpha 90.000000
_cell_angle_beta 90.000000
_cell_angle_gamma 90.000000
_cell_volume 4786.293577
_symmetry_space_group_name_H-M "C M M M"
_symmetry_group_IT_number 65
_symmetry_cell_setting 'orthorhombic'
loop_
_space_group_symop_operation_xyz
x,y,z
-x,-y,z
x,-y,-z
-x,y,-z
-x,-y,-z
x,y,-z
-x,y,z
x,-y,z
1/2+x,1/2+y,z
1/2-x,1/2-y,z
1/2+x,1/2-y,-z
1/2-x,1/2+y,-z
1/2-x,1/2-y,-z
1/2+x,1/2+y,-z
1/2-x,1/2+y,z
1/2+x,1/2-y,z
loop_
_atom_site_type_symbol
_atom_site_label
_atom_site_fract_x
_atom_site_fract_y
_atom_site_fract_z
Si Si1 0.421064 0.320086 0.364797
Si Si2 0.827566 0.179800 0.278407
Si Si3 0.826140 0.323274 0.084156
Si Si4 0.579135 0.819498 0.000000
Si Si5 0.823731 0.821358 0.552605
Si Si6 0.673786 0.177135 0.186770
O O1 0.500000 0.251646 0.362577
O O2 0.424425 0.500000 0.364402
O O3 0.376456 0.262171 0.320563
O O4 0.384368 0.262463 0.412494
O O5 0.750000 0.250000 0.284772
O O6 0.864720 0.239742 0.230277
O O7 0.821450 0.000000 0.277240
O O8 0.814054 0.500000 0.076610
O O9 0.750000 0.250000 0.077298
O O10 0.860548 0.292930 0.135691
O O11 0.880518 0.258375 0.045958
O O12 0.500000 0.752459 0.000000
O O13 0.576387 0.000000 0.000000
O O14 0.844071 0.770846 0.500000
O O15 0.750000 0.750000 0.568485
O O16 0.814978 0.000000 0.556112
O O17 0.750000 0.250000 0.183858
O O18 0.679027 0.000000 0.197946
#
# Coordination Sequence:
#
# PCOD8266072 Si02
#       6
#    16  16  16   8  16  16
#     4   9  18  31  46  67  94 122 154 189 223 264
#     4  10  18  29  48  69  90 119 152 187 226 266
#     4   9  17  29  48  71  91 116 149 186 226 265
#     4   9  17  30  47  67  92 121 152 182 218 269
#     4   9  17  30  50  73  94 118 149 187 229 270
#     4   9  16  27  44  68  94 116 146 187 227 266
#
# _framework density 18.385836000000001
#
# number of rings (size 3 to 8) (size 9 to 14) (size 15 to 20)
#    0.000    2.818    0.000    3.000    0.000    1.091 
#    0.000    3.636    0.000    7.091    0.000    2.545 
#    0.000    0.000    0.000    0.000    0.000    0.000 
#
# Total GULP energy -545276.999743 kJ/mol
# GULP energy per Si atom -12392.659085 kJ/mol
# Density = 1.834399 g / cm^3
# Si number density = 18.385836 Si / 1000 Ang^3
#
#
#
# Elastic Constant Matrix: (Units=GPa)
#
#
# Indices 1 2 3 4 5 6 
#
# 1 119.5905 22.8730 91.3838 0.0000 0.0000 0.0000
# 2 22.8730 42.4381 32.4411 0.0000 0.0000 0.0000
# 3 91.3838 32.4411 183.4949 0.0000 0.0000 0.0000
# 4 0.0000 0.0000 0.0000 14.7983 0.0000 0.0000
# 5 0.0000 0.0000 0.0000 0.0000 10.9713 0.0000
# 6 0.0000 0.0000 0.0000 0.0000 0.0000 15.8431
#
#
#
# Elastic Compliance Matrix: (Units=1/GPa)
#
#
# Indices 1 2 3 4 5 6 
#
# 1 0.013727 -0.002512 -0.006392 0.000000 0.000000 0.000000
# 2 -0.002512 0.027706 -0.003647 0.000000 0.000000 0.000000
# 3 -0.006392 -0.003647 0.009278 0.000000 0.000000 0.000000
# 4 0.000000 0.000000 0.000000 0.067575 0.000000 0.000000
# 5 0.000000 0.000000 0.000000 0.000000 0.091147 0.000000
# 6 0.000000 0.000000 0.000000 0.000000 0.000000 0.063119
#
#
# Mechanical properties :
#
#
# Convention : Reuss Voigt Hill
#
# Bulk Modulus (GPa) = 39.05070 70.99103 55.02086
# Shear Modulus (GPa) = 16.32973 21.57759 18.95366
#
# Velocity S-wave (km/s) = 2.98345 3.42950 3.21422
# Velocity P-wave (km/s) = 5.75792 7.37412 6.61556
#
# Compressibility (1/GPa) = 0.02560774
#
# Stress axis : x y z
#
# Youngs Moduli (GPa) = 72.85053 36.09365 107.78304
#
# Poissons Ratio (x) = 0.09067 0.68895
# Poissons Ratio (y) = 0.18301 0.39310
# Poissons Ratio (z) = 0.46566 0.13164
#
# Static dielectric constant tensor:
#      x y z
#    x 3.307420 0.000000 0.000000 
#    y 0.000000 3.154740 0.000000 
#    z 0.000000 0.000000 4.247830 
# 
# 
# High freq. dielectric constant tensor:
#      x y z
#    x 1.679370 0.000000 0.000000 
#    y 0.000000 1.687670 0.000000 
#    z 0.000000 0.000000 1.740050 
# 
# From -- ./inp_files/77837.got.cif
#   From: 2010.03.12/outbox.cif.g09.slc.cpg/sg65_39_cif.got.tgz:77837.got - 2010.04.10 20:52:16.
