data_PCOD8266129
_publ_section_title
;
Structure prediction by ZEFSAII (Michael W. Deem and Ramdas Pophale) SiO2 
 PCOD8266129
Probable space group: C M M M
;
_chemical_formula_sum "Si O2"
_cell_formula_units_Z 104
_cell_length_a 18.904107
_cell_length_b 13.882298
_cell_length_c 22.281214
_cell_angle_alpha 90.000000
_cell_angle_beta 90.000000
_cell_angle_gamma 90.000000
_cell_volume 5847.313508
_symmetry_space_group_name_H-M "C M M M"
_symmetry_group_IT_number 65
_symmetry_cell_setting 'orthorhombic'
loop_
_space_group_symop_operation_xyz
x,y,z
-x,-y,z
x,-y,-z
-x,y,-z
-x,-y,-z
x,y,-z
-x,y,z
x,-y,z
1/2+x,1/2+y,z
1/2-x,1/2-y,z
1/2+x,1/2-y,-z
1/2-x,1/2+y,-z
1/2-x,1/2-y,-z
1/2+x,1/2+y,-z
1/2-x,1/2+y,z
1/2+x,1/2-y,z
loop_
_atom_site_type_symbol
_atom_site_label
_atom_site_fract_x
_atom_site_fract_y
_atom_site_fract_z
Si Si1 0.818384 0.608994 0.728460
Si Si2 0.674808 0.613207 0.673327
Si Si3 0.279100 0.107369 0.134232
Si Si4 0.137983 0.788967 0.886437
Si Si5 0.579509 0.385350 0.567013
Si Si6 0.580756 0.393291 0.000000
Si Si7 0.418490 0.273679 0.243336
O O1 0.841123 0.500000 0.711881
O O2 0.755820 0.648795 0.684450
O O3 0.788197 0.615220 0.795010
O O4 0.886704 0.677205 0.725430
O O5 0.678488 0.500000 0.668882
O O6 0.638571 0.656876 0.612900
O O7 0.624576 0.637135 0.729544
O O8 0.197950 0.131709 0.123462
O O9 0.329068 0.183389 0.099643
O O10 0.296506 0.000000 0.110440
O O11 0.095104 0.826861 0.942707
O O12 0.087911 0.777663 0.828535
O O13 0.598415 0.348762 0.500000
O O14 0.500000 0.350248 0.584646
O O15 0.580843 0.500000 0.568891
O O16 0.619363 0.500000 0.000000
O O17 0.500000 0.418614 0.000000
O O18 0.500000 0.279681 0.261568
#
# Coordination Sequence:
#
# PCOD8266129 Si02
#       7
#    16  16  16  16  16   8  16
#     4   9  18  33  51  71  98 132 167 210 255 295
#     4  10  18  29  49  75 102 132 165 202 251 305
#     4   9  17  32  55  78  98 124 163 208 253 297
#     4  10  20  35  53  73 100 131 164 205 252 308
#     4   8  14  25  41  66 104 142 170 201 247 304
#     4  11  24  39  53  71 101 137 165 200 260 323
#     4  11  21  32  50  75 101 131 168 210 254 302
#
# _framework density 17.785945999999999
#
# number of rings (size 3 to 8) (size 9 to 14) (size 15 to 20)
#    0.000    2.385    1.538    2.308    0.000    3.077 
#    0.000    1.154    0.000    3.692    0.000    0.000 
#    0.000    0.000    0.000    9.231    0.000    0.154 
#
# Total GULP energy -644387.174833 kJ/mol
# GULP energy per Si atom -12392.061054 kJ/mol
# Density = 1.774546 g / cm^3
# Si number density = 17.785946 Si / 1000 Ang^3
#
#
#
# Elastic Constant Matrix: (Units=GPa)
#
#
# Indices 1 2 3 4 5 6 
#
# 1 50.4506 10.0104 12.8825 0.0000 0.0000 0.0000
# 2 10.0104 66.0622 23.3617 0.0000 0.0000 0.0000
# 3 12.8825 23.3617 53.5380 0.0000 0.0000 0.0000
# 4 0.0000 0.0000 0.0000 21.7538 0.0000 0.0000
# 5 0.0000 0.0000 0.0000 0.0000 29.7279 0.0000
# 6 0.0000 0.0000 0.0000 0.0000 0.0000 20.8745
#
#
#
# Elastic Compliance Matrix: (Units=1/GPa)
#
#
# Indices 1 2 3 4 5 6 
#
# 1 0.021274 -0.001671 -0.004390 0.000000 0.000000 0.000000
# 2 -0.001671 0.018031 -0.007466 0.000000 0.000000 0.000000
# 3 -0.004390 -0.007466 0.022992 0.000000 0.000000 0.000000
# 4 0.000000 0.000000 0.000000 0.045969 0.000000 0.000000
# 5 0.000000 0.000000 0.000000 0.000000 0.033638 0.000000
# 6 0.000000 0.000000 0.000000 0.000000 0.000000 0.047905
#
#
# Mechanical properties :
#
#
# Convention : Reuss Voigt Hill
#
# Bulk Modulus (GPa) = 28.37404 29.17334 28.77369
# Shear Modulus (GPa) = 21.87124 22.72431 22.29778
#
# Velocity S-wave (km/s) = 3.51050 3.57831 3.54457
# Velocity P-wave (km/s) = 5.69379 5.78882 5.74150
#
# Compressibility (1/GPa) = 0.03524348
#
# Stress axis : x y z
#
# Youngs Moduli (GPa) = 47.00595 55.46132 43.49285
#
# Poissons Ratio (x) = 0.09269 0.19092
# Poissons Ratio (y) = 0.07856 0.32470
# Poissons Ratio (z) = 0.20634 0.41405
#
# Static dielectric constant tensor:
#      x y z
#    x 3.315090 0.000000 0.000000 
#    y 0.000000 3.447060 0.000000 
#    z 0.000000 0.000000 3.411530 
# 
# 
# High freq. dielectric constant tensor:
#      x y z
#    x 1.679180 0.000000 0.000000 
#    y 0.000000 1.677670 0.000000 
#    z 0.000000 0.000000 1.670370 
# 
# From -- ./inp_files/70542.got.cif
#   From: 2010.03.12/outbox.cif.g09.slc.cpg/sg65_36_cif.got.tgz:70542.got - 2010.04.10 20:52:16.
