data_PCOD8266503
_publ_section_title
;
Structure prediction by ZEFSAII (Michael W. Deem and Ramdas Pophale) SiO2 
 PCOD8266503
Probable space group: C M M M
;
_chemical_formula_sum "Si O2"
_cell_formula_units_Z 112
_cell_length_a 18.406459
_cell_length_b 18.409981
_cell_length_c 17.580564
_cell_angle_alpha 90.000000
_cell_angle_beta 90.000000
_cell_angle_gamma 90.000000
_cell_volume 5957.394931
_symmetry_space_group_name_H-M "C M M M"
_symmetry_group_IT_number 65
_symmetry_cell_setting 'orthorhombic'
loop_
_space_group_symop_operation_xyz
x,y,z
-x,-y,z
x,-y,-z
-x,y,-z
-x,-y,-z
x,y,-z
-x,y,z
x,-y,z
1/2+x,1/2+y,z
1/2-x,1/2-y,z
1/2+x,1/2-y,-z
1/2-x,1/2+y,-z
1/2-x,1/2-y,-z
1/2+x,1/2+y,-z
1/2-x,1/2+y,z
1/2+x,1/2-y,z
loop_
_atom_site_type_symbol
_atom_site_label
_atom_site_fract_x
_atom_site_fract_y
_atom_site_fract_z
Si Si1 0.677449 0.793649 0.913557
Si Si2 0.266237 0.412950 0.148629
Si Si3 0.792914 0.083808 0.412978
Si Si4 0.280036 0.168435 0.706674
Si Si5 0.577756 0.579586 0.861620
Si Si6 0.916870 0.276993 0.227707
Si Si7 0.420423 0.621231 0.697811
O O1 0.750000 0.750000 0.890724
O O2 0.700456 0.878127 0.900028
O O3 0.611174 0.769463 0.859538
O O4 0.652676 0.781196 0.000000
O O5 0.258648 0.500000 0.148828
O O6 0.265042 0.382207 0.234795
O O7 0.344672 0.387591 0.110528
O O8 0.802783 0.107453 0.500000
O O9 0.729447 0.133526 0.376569
O O10 0.867248 0.099802 0.369477
O O11 0.770652 0.000000 0.406178
O O12 0.250000 0.250000 0.710659
O O13 0.365340 0.165577 0.728509
O O14 0.500000 0.622191 0.879970
O O15 0.570296 0.500000 0.897967
O O16 0.585563 0.568974 0.770672
O O17 0.907054 0.201984 0.271072
O O18 0.000000 0.304558 0.227430
O O19 0.500000 0.615323 0.660787
#
# Coordination Sequence:
#
# PCOD8266503 Si02
#       7
#    16  16  16  16  16  16  16
#     4  10  21  36  54  80 115 149 182 224 280 337
#     4  10  18  30  53  79 103 139 187 233 278 327
#     4  11  23  36  53  82 117 154 191 226 275 334
#     4  11  19  35  56  80 109 144 187 236 279 319
#     4   9  15  23  41  70 102 136 176 218 257 304
#     4  10  20  35  58  83 107 140 186 235 280 329
#     4  10  18  31  51  78 112 150 187 223 266 323
#
# _framework density 18.800163000000001
#
# number of rings (size 3 to 8) (size 9 to 14) (size 15 to 20)
#    0.000    1.857    2.857    3.429    0.000    2.000 
#    0.000    0.714    0.000   12.429    0.000    7.000 
#    0.000    0.000    0.000    3.714    0.000    0.000 
#
# Total GULP energy -693738.799939 kJ/mol
# GULP energy per Si atom -12388.192856 kJ/mol
# Density = 1.875737 g / cm^3
# Si number density = 18.800163 Si / 1000 Ang^3
#
#
#
# Elastic Constant Matrix: (Units=GPa)
#
#
# Indices 1 2 3 4 5 6 
#
# 1 100.3289 20.3168 17.9638 0.0000 0.0000 0.0000
# 2 20.3168 60.9614 10.6329 0.0000 0.0000 0.0000
# 3 17.9638 10.6329 79.8352 0.0000 0.0000 0.0000
# 4 0.0000 0.0000 0.0000 19.4138 0.0000 0.0000
# 5 0.0000 0.0000 0.0000 0.0000 16.8570 0.0000
# 6 0.0000 0.0000 0.0000 0.0000 0.0000 20.7577
#
#
#
# Elastic Compliance Matrix: (Units=1/GPa)
#
#
# Indices 1 2 3 4 5 6 
#
# 1 0.011002 -0.003312 -0.002035 0.000000 0.000000 0.000000
# 2 -0.003312 0.017791 -0.001624 0.000000 0.000000 0.000000
# 3 -0.002035 -0.001624 0.013200 0.000000 0.000000 0.000000
# 4 0.000000 0.000000 0.000000 0.051510 0.000000 0.000000
# 5 0.000000 0.000000 0.000000 0.000000 0.059322 0.000000
# 6 0.000000 0.000000 0.000000 0.000000 0.000000 0.048175
#
#
# Mechanical properties :
#
#
# Convention : Reuss Voigt Hill
#
# Bulk Modulus (GPa) = 35.64856 37.66140 36.65498
# Shear Modulus (GPa) = 22.29239 24.21985 23.25612
#
# Velocity S-wave (km/s) = 3.44722 3.59315 3.52094
# Velocity P-wave (km/s) = 5.90317 6.10658 6.00573
#
# Compressibility (1/GPa) = 0.02805162
#
# Stress axis : x y z
#
# Youngs Moduli (GPa) = 90.89134 56.20861 75.75806
#
# Poissons Ratio (x) = 0.18615 0.15413
# Poissons Ratio (y) = 0.30102 0.12305
# Poissons Ratio (z) = 0.18492 0.09130
#
# Static dielectric constant tensor:
#      x y z
#    x 3.697030 0.000000 0.000000 
#    y 0.000000 3.420070 0.000000 
#    z 0.000000 0.000000 3.272260 
# 
# 
# High freq. dielectric constant tensor:
#      x y z
#    x 1.729470 0.000000 0.000000 
#    y 0.000000 1.720770 0.000000 
#    z 0.000000 0.000000 1.703280 
# 
# From -- ./inp_files/56045.got.cif
#   From: 2010.03.12/outbox.cif.g09.slc.cpg/sg65_29_cif.got.tgz:56045.got - 2010.04.10 20:52:16.
