data_PCOD8266417
_publ_section_title
;
Structure prediction by ZEFSAII (Michael W. Deem and Ramdas Pophale) SiO2 
 PCOD8266417
Probable space group: C M M M
;
_chemical_formula_sum "Si O2"
_cell_formula_units_Z 72
_cell_length_a 18.186568
_cell_length_b 9.787741
_cell_length_c 21.715034
_cell_angle_alpha 90.000000
_cell_angle_beta 90.000000
_cell_angle_gamma 90.000000
_cell_volume 3865.393688
_symmetry_space_group_name_H-M "C M M M"
_symmetry_group_IT_number 65
_symmetry_cell_setting 'orthorhombic'
loop_
_space_group_symop_operation_xyz
x,y,z
-x,-y,z
x,-y,-z
-x,y,-z
-x,-y,-z
x,y,-z
-x,y,z
x,-y,z
1/2+x,1/2+y,z
1/2-x,1/2-y,z
1/2+x,1/2-y,-z
1/2-x,1/2+y,-z
1/2-x,1/2-y,-z
1/2+x,1/2+y,-z
1/2-x,1/2+y,z
1/2+x,1/2-y,z
loop_
_atom_site_type_symbol
_atom_site_label
_atom_site_fract_x
_atom_site_fract_y
_atom_site_fract_z
Si Si1 0.837563 0.500000 0.931037
Si Si2 0.086688 0.157299 0.403019
Si Si3 0.836957 0.250289 0.147826
Si Si4 0.914800 0.844037 0.737653
Si Si5 0.337498 0.500000 0.931111
Si Si6 0.327184 0.169932 0.500000
O O1 0.866908 0.625369 0.891800
O O2 0.750057 0.500000 0.935937
O O3 0.871021 0.500000 0.000000
O O4 0.107736 0.187057 0.332434
O O5 0.128887 0.274290 0.440778
O O6 0.000000 0.174047 0.414375
O O7 0.109154 0.000000 0.420698
O O8 0.750000 0.250000 0.155382
O O9 0.870002 0.253184 0.216433
O O10 0.866918 0.126311 0.107525
O O11 0.000000 0.814484 0.747189
O O12 0.895279 0.000000 0.753533
O O13 0.370970 0.500000 0.000000
O O14 0.250000 0.250000 0.500000
O O15 0.321200 0.000000 0.500000
#
# Coordination Sequence:
#
# PCOD8266417 Si02
#       6
#     8  16  16  16   8   8
#     4   9  18  30  45  71 105 138 177 226 281 331
#     4   9  19  38  63  86 112 152 193 228 276 337
#     4  10  18  30  50  77 104 137 180 226 276 324
#     4   9  18  35  58  81 107 142 183 224 266 319
#     4   9  16  28  49  73  99 134 179 228 269 321
#     4  12  25  40  59  89 123 153 185 230 281 322
#
# _framework density 18.626821
#
# number of rings (size 3 to 8) (size 9 to 14) (size 15 to 20)
#    0.000    2.444    1.111    3.333    0.000    5.333 
#    2.000    0.556    0.000    4.000    0.000    0.000 
#    0.000    0.000    0.000    0.000    0.000    0.000 
#
# Total GULP energy -446095.331950 kJ/mol
# GULP energy per Si atom -12391.536999 kJ/mol
# Density = 1.858443 g / cm^3
# Si number density = 18.626821 Si / 1000 Ang^3
#
#
#
# Elastic Constant Matrix: (Units=GPa)
#
#
# Indices 1 2 3 4 5 6 
#
# 1 45.3039 39.2645 47.6121 0.0000 0.0000 0.0000
# 2 39.2645 147.2196 76.9499 0.0000 0.0000 0.0000
# 3 47.6121 76.9499 164.3459 0.0000 0.0000 0.0000
# 4 0.0000 0.0000 0.0000 35.6556 0.0000 0.0000
# 5 0.0000 0.0000 0.0000 0.0000 2.7411 0.0000
# 6 0.0000 0.0000 0.0000 0.0000 0.0000 25.3112
#
#
#
# Elastic Compliance Matrix: (Units=1/GPa)
#
#
# Indices 1 2 3 4 5 6 
#
# 1 0.034578 -0.005278 -0.007546 0.000000 0.000000 0.000000
# 2 -0.005278 0.009799 -0.003059 0.000000 0.000000 0.000000
# 3 -0.007546 -0.003059 0.009703 0.000000 0.000000 0.000000
# 4 0.000000 0.000000 0.000000 0.028046 0.000000 0.000000
# 5 0.000000 0.000000 0.000000 0.000000 0.364813 0.000000
# 6 0.000000 0.000000 0.000000 0.000000 0.000000 0.039508
#
#
# Mechanical properties :
#
#
# Convention : Reuss Voigt Hill
#
# Bulk Modulus (GPa) = 44.81479 76.05804 60.43642
# Shear Modulus (GPa) = 9.51198 25.61111 17.56155
#
# Velocity S-wave (km/s) = 2.26223 3.71207 3.07385
# Velocity P-wave (km/s) = 5.56193 7.70024 6.71673
#
# Compressibility (1/GPa) = 0.02231406
#
# Stress axis : x y z
#
# Youngs Moduli (GPa) = 28.91983 102.04924 103.05764
#
# Poissons Ratio (x) = 0.53860 0.77771
# Poissons Ratio (y) = 0.15264 0.31527
# Poissons Ratio (z) = 0.21824 0.31218
#
# Static dielectric constant tensor:
#      x y z
#    x 3.050910 0.000000 0.000000 
#    y 0.000000 3.498010 0.000000 
#    z 0.000000 0.000000 3.603480 
# 
# 
# High freq. dielectric constant tensor:
#      x y z
#    x 1.688580 0.000000 0.000000 
#    y 0.000000 1.716600 0.000000 
#    z 0.000000 0.000000 1.743310 
# 
# From -- ./inp_files/64452.got.cif
#   From: 2010.03.12/outbox.cif.g09.slc.cpg/sg65_33_cif.got.tgz:64452.got - 2010.04.10 20:52:16.
