data_PCOD8266226
_publ_section_title
;
Structure prediction by ZEFSAII (Michael W. Deem and Ramdas Pophale) SiO2 
 PCOD8266226
Probable space group: C M M M
;
_chemical_formula_sum "Si O2"
_cell_formula_units_Z 88
_cell_length_a 27.769620
_cell_length_b 19.406267
_cell_length_c 9.113413
_cell_angle_alpha 90.000000
_cell_angle_beta 90.000000
_cell_angle_gamma 90.000000
_cell_volume 4911.260736
_symmetry_space_group_name_H-M "C M M M"
_symmetry_group_IT_number 65
_symmetry_cell_setting 'orthorhombic'
loop_
_space_group_symop_operation_xyz
x,y,z
-x,-y,z
x,-y,-z
-x,y,-z
-x,-y,-z
x,y,-z
-x,y,z
x,-y,z
1/2+x,1/2+y,z
1/2-x,1/2-y,z
1/2+x,1/2-y,-z
1/2-x,1/2+y,-z
1/2-x,1/2-y,-z
1/2+x,1/2+y,-z
1/2-x,1/2+y,z
1/2+x,1/2-y,z
loop_
_atom_site_type_symbol
_atom_site_label
_atom_site_fract_x
_atom_site_fract_y
_atom_site_fract_z
Si Si1 0.000000 0.423234 0.825569
Si Si2 0.727881 0.418489 0.837747
Si Si3 0.678140 0.079757 0.327567
Si Si4 0.092943 0.342249 0.826278
Si Si5 0.554188 0.303983 0.174384
Si Si6 0.877809 0.923149 0.825005
O O1 0.047353 0.385175 0.767854
O O2 0.000000 0.500000 0.760873
O O3 0.000000 0.422968 0.000000
O O4 0.726835 0.500000 0.851714
O O5 0.769457 0.394765 0.726597
O O6 0.675282 0.395886 0.776919
O O7 0.737765 0.386786 0.000000
O O8 0.675441 0.089825 0.500000
O O9 0.639838 0.128941 0.251759
O O10 0.668812 0.000000 0.282981
O O11 0.084048 0.263487 0.778533
O O12 0.099652 0.350017 0.000000
O O13 0.500000 0.302378 0.239704
O O14 0.582013 0.370844 0.237177
O O15 0.550946 0.306667 0.000000
O O16 0.888475 0.000000 0.762816
O O17 0.879151 0.925151 0.000000
#
# Coordination Sequence:
#
# PCOD8266226 Si02
#       6
#     8  16  16  16  16  16
#     4   9  16  26  43  65  86 114 158 201 229 263
#     4   8  14  27  47  69  93 123 158 193 231 278
#     4  10  20  32  47  69  95 122 156 200 245 284
#     4  10  18  30  47  68  94 127 162 195 233 278
#     4   9  16  27  44  68  98 128 158 194 236 280
#     4   8  14  25  44  71  99 125 155 192 234 282
#
# _framework density 17.918006999999999
#
# number of rings (size 3 to 8) (size 9 to 14) (size 15 to 20)
#    0.000    3.000    0.909    2.182    0.000    2.182 
#    0.000    3.182    0.000    8.182    0.000    0.000 
#    0.000    0.000    0.000    8.727    0.000    9.091 
#
# Total GULP energy -545365.733555 kJ/mol
# GULP energy per Si atom -12394.675763 kJ/mol
# Density = 1.787722 g / cm^3
# Si number density = 17.918007 Si / 1000 Ang^3
#
#
#
# Elastic Constant Matrix: (Units=GPa)
#
#
# Indices 1 2 3 4 5 6 
#
# 1 153.0987 78.7799 35.4793 0.0000 0.0000 0.0000
# 2 78.7799 117.4467 25.5068 0.0000 0.0000 0.0000
# 3 35.4793 25.5068 33.2702 0.0000 0.0000 0.0000
# 4 0.0000 0.0000 0.0000 9.7898 0.0000 0.0000
# 5 0.0000 0.0000 0.0000 0.0000 -1.4307 0.0000
# 6 0.0000 0.0000 0.0000 0.0000 0.0000 13.8954
#
#
#
# Elastic Compliance Matrix: (Units=1/GPa)
#
#
# Indices 1 2 3 4 5 6 
#
# 1 0.011353 -0.005982 -0.007520 0.000000 0.000000 0.000000
# 2 -0.005982 0.013367 -0.003869 0.000000 0.000000 0.000000
# 3 -0.007520 -0.003869 0.041043 0.000000 0.000000 0.000000
# 4 0.000000 0.000000 0.000000 0.102147 0.000000 0.000000
# 5 0.000000 0.000000 0.000000 0.000000 -0.698946 0.000000
# 6 0.000000 0.000000 0.000000 0.000000 0.000000 0.071966
#
#
# Mechanical properties :
#
#
# Convention : Reuss Voigt Hill
#
# Bulk Modulus (GPa) = 32.23709 64.81641 48.52675
# Shear Modulus (GPa) = -12.07767 15.38754 1.65493
#
# Velocity S-wave (km/s) = -2.59907 2.93367 0.96209
# Velocity P-wave (km/s) = 3.00394 6.90852 5.32688
#
# Compressibility (1/GPa) = 0.03102017
#
# Stress axis : x y z
#
# Youngs Moduli (GPa) = 88.08614 74.81041 24.36470
#
# Poissons Ratio (x) = 0.44749 0.18323
# Poissons Ratio (y) = 0.52690 0.09427
# Poissons Ratio (z) = 0.66245 0.28945
#
# Static dielectric constant tensor:
#      x y z
#    x 3.678800 0.000000 0.000000 
#    y 0.000000 3.356080 0.000000 
#    z 0.000000 0.000000 2.824170 
# 
# 
# High freq. dielectric constant tensor:
#      x y z
#    x 1.708110 0.000000 0.000000 
#    y 0.000000 1.678980 0.000000 
#    z 0.000000 0.000000 1.635660 
# 
# From -- ./inp_files/11763.got.cif
#   From: 2010.03.12/outbox.cif.g09.slc.cpg/sg65_6_cif.got.tgz:11763.got - 2010.04.10 20:52:16.
