data_PCOD8266935
_publ_section_title
;
Structure prediction by ZEFSAII (Michael W. Deem and Ramdas Pophale) SiO2 
 PCOD8266935
Probable space group: C M M M
;
_chemical_formula_sum "Si O2"
_cell_formula_units_Z 88
_cell_length_a 28.584700
_cell_length_b 7.894135
_cell_length_c 19.449360
_cell_angle_alpha 90.000000
_cell_angle_beta 90.000000
_cell_angle_gamma 90.000000
_cell_volume 4388.776883
_symmetry_space_group_name_H-M "C M M M"
_symmetry_group_IT_number 65
_symmetry_cell_setting 'orthorhombic'
loop_
_space_group_symop_operation_xyz
x,y,z
-x,-y,z
x,-y,-z
-x,y,-z
-x,-y,-z
x,y,-z
-x,y,z
x,-y,z
1/2+x,1/2+y,z
1/2-x,1/2-y,z
1/2+x,1/2-y,-z
1/2-x,1/2+y,-z
1/2-x,1/2-y,-z
1/2+x,1/2+y,-z
1/2-x,1/2+y,z
1/2+x,1/2-y,z
loop_
_atom_site_type_symbol
_atom_site_label
_atom_site_fract_x
_atom_site_fract_y
_atom_site_fract_z
Si Si1 0.950763 0.000000 0.861726
Si Si2 0.397604 0.305219 0.637061
Si Si3 0.928926 0.682035 0.779521
Si Si4 0.800216 0.302561 0.317859
Si Si5 0.053301 0.798538 0.500000
Si Si6 0.674042 0.187593 0.832364
Si Si7 0.153260 0.000000 0.919570
O O1 0.956306 0.163465 0.812935
O O2 0.902958 0.000000 0.905318
O O3 0.000000 0.000000 0.905943
O O4 0.411287 0.500000 0.645468
O O5 0.421969 0.204292 0.698352
O O6 0.341147 0.289204 0.639450
O O7 0.418549 0.230645 0.566401
O O8 0.954653 0.500000 0.790495
O O9 0.879949 0.671748 0.817167
O O10 0.809406 0.500000 0.325174
O O11 0.750000 0.250000 0.349125
O O12 0.800486 0.249884 0.237276
O O13 0.000000 0.729231 0.500000
O O14 0.053279 0.000000 0.500000
O O15 0.679629 0.333507 0.889886
O O16 0.692529 0.000000 0.856678
O O17 0.161120 0.000000 0.000000
#
# Coordination Sequence:
#
# PCOD8266935 Si02
#       7
#     8  16  16  16   8  16   8
#     4  10  20  33  50  75 106 138 175 233 296 332
#     4  10  18  33  55  81 113 148 186 232 280 337
#     4   9  17  32  52  75 102 135 178 229 283 332
#     4  10  20  33  56  88 113 141 180 229 284 336
#     4   9  20  36  54  77 108 154 200 233 277 335
#     4   8  17  32  51  77 106 135 176 224 266 320
#     4  10  20  33  54  76 101 147 188 218 267 336
#
# _framework density 20.051145000000002
#
# number of rings (size 3 to 8) (size 9 to 14) (size 15 to 20)
#    0.000    2.636    0.909    2.182    5.091    1.636 
#    0.000    2.273    0.000    4.364    0.000    5.091 
#    0.000    0.000    0.000    0.000    0.000    0.000 
#
# Total GULP energy -545158.109743 kJ/mol
# GULP energy per Si atom -12389.957040 kJ/mol
# Density = 2.000551 g / cm^3
# Si number density = 20.051145 Si / 1000 Ang^3
#
#
#
# Elastic Constant Matrix: (Units=GPa)
#
#
# Indices 1 2 3 4 5 6 
#
# 1 81.9465 7.6795 20.6415 0.0000 0.0000 0.0000
# 2 7.6795 118.2666 45.6054 0.0000 0.0000 0.0000
# 3 20.6415 45.6054 106.1206 0.0000 0.0000 0.0000
# 4 0.0000 0.0000 0.0000 20.9180 0.0000 0.0000
# 5 0.0000 0.0000 0.0000 0.0000 12.2122 0.0000
# 6 0.0000 0.0000 0.0000 0.0000 0.0000 14.7482
#
#
#
# Elastic Compliance Matrix: (Units=1/GPa)
#
#
# Indices 1 2 3 4 5 6 
#
# 1 0.012834 0.000155 -0.002563 0.000000 0.000000 0.000000
# 2 0.000155 0.010137 -0.004386 0.000000 0.000000 0.000000
# 3 -0.002563 -0.004386 0.011807 0.000000 0.000000 0.000000
# 4 0.000000 0.000000 0.000000 0.047806 0.000000 0.000000
# 5 0.000000 0.000000 0.000000 0.000000 0.081885 0.000000
# 6 0.000000 0.000000 0.000000 0.000000 0.000000 0.067805
#
#
# Mechanical properties :
#
#
# Convention : Reuss Voigt Hill
#
# Bulk Modulus (GPa) = 47.19446 50.46516 48.82981
# Shear Modulus (GPa) = 19.76868 25.06952 22.41910
#
# Velocity S-wave (km/s) = 3.14333 3.53976 3.34742
# Velocity P-wave (km/s) = 6.06318 6.47529 6.27262
#
# Compressibility (1/GPa) = 0.02118893
#
# Stress axis : x y z
#
# Youngs Moduli (GPa) = 77.91711 98.64945 84.69661
#
# Poissons Ratio (x) = -0.01529 0.21707
# Poissons Ratio (y) = -0.01207 0.37152
# Poissons Ratio (z) = 0.19970 0.43272
#
# Static dielectric constant tensor:
#      x y z
#    x 3.606700 0.000000 0.000000 
#    y 0.000000 3.910760 0.000000 
#    z 0.000000 0.000000 3.364760 
# 
# 
# High freq. dielectric constant tensor:
#      x y z
#    x 1.777860 0.000000 0.000000 
#    y 0.000000 1.794310 0.000000 
#    z 0.000000 0.000000 1.739380 
# 
# From -- ./inp_files/58091.got.cif
#   From: 2010.03.12/outbox.cif.g09.slc.cpg/sg65_30_cif.got.tgz:58091.got - 2010.04.10 20:52:16.
