data_PCOD8266627
_publ_section_title
;
Structure prediction by ZEFSAII (Michael W. Deem and Ramdas Pophale) SiO2 
 PCOD8266627
Probable space group: C M M M
;
_chemical_formula_sum "Si O2"
_cell_formula_units_Z 72
_cell_length_a 21.650024
_cell_length_b 17.664628
_cell_length_c 10.060421
_cell_angle_alpha 90.000000
_cell_angle_beta 90.000000
_cell_angle_gamma 90.000000
_cell_volume 3847.503586
_symmetry_space_group_name_H-M "C M M M"
_symmetry_group_IT_number 65
_symmetry_cell_setting 'orthorhombic'
loop_
_space_group_symop_operation_xyz
x,y,z
-x,-y,z
x,-y,-z
-x,y,-z
-x,-y,-z
x,y,-z
-x,y,z
x,-y,z
1/2+x,1/2+y,z
1/2-x,1/2-y,z
1/2+x,1/2-y,-z
1/2-x,1/2+y,-z
1/2-x,1/2-y,-z
1/2+x,1/2+y,-z
1/2-x,1/2+y,z
1/2+x,1/2-y,z
loop_
_atom_site_type_symbol
_atom_site_label
_atom_site_fract_x
_atom_site_fract_y
_atom_site_fract_z
Si Si1 0.569456 0.909656 0.000000
Si Si2 0.239424 0.838063 0.651746
Si Si3 0.569105 0.090323 0.500000
Si Si4 0.389771 0.588671 0.346681
Si Si5 0.500000 0.410467 0.153525
Si Si6 0.856499 0.410334 0.250214
O O1 0.606990 0.878011 0.124685
O O2 0.500000 0.876669 0.000000
O O3 0.566553 0.000000 0.000000
O O4 0.253259 0.862029 0.500000
O O5 0.250000 0.750000 0.674353
O O6 0.170382 0.862318 0.689688
O O7 0.286409 0.881728 0.748114
O O8 0.500000 0.123474 0.500000
O O9 0.605493 0.122270 0.374158
O O10 0.566962 0.000000 0.500000
O O11 0.411105 0.604040 0.500000
O O12 0.374592 0.500000 0.329402
O O13 0.440762 0.615933 0.239799
O O14 0.500000 0.500000 0.145363
O O15 0.500000 0.378226 0.000000
O O16 0.855408 0.500000 0.249524
#
# Coordination Sequence:
#
# PCOD8266627 Si02
#       6
#     8  16   8  16   8  16
#     4   9  18  32  51  76 106 137 169 210 254 296
#     4  10  20  34  53  75 106 136 171 214 261 303
#     4   9  16  26  47  76 100 125 163 212 252 286
#     4   9  17  31  55  80 102 133 171 209 255 312
#     4   9  17  31  53  83 109 127 160 215 266 304
#     4  10  18  31  52  76 102 132 173 212 251 302
#
# _framework density 18.713432000000001
#
# number of rings (size 3 to 8) (size 9 to 14) (size 15 to 20)
#    0.000    2.556    1.111    1.667    0.000    4.889 
#    2.000    0.556    4.889    0.000    0.000    0.000 
#    0.000    0.000    0.000    0.000    0.000    0.000 
#
# Total GULP energy -446285.901535 kJ/mol
# GULP energy per Si atom -12396.830598 kJ/mol
# Density = 1.867084 g / cm^3
# Si number density = 18.713432 Si / 1000 Ang^3
#
#
#
# Elastic Constant Matrix: (Units=GPa)
#
#
# Indices 1 2 3 4 5 6 
#
# 1 175.4893 37.7760 94.8375 0.0000 0.0000 0.0000
# 2 37.7760 30.9564 26.0980 0.0000 0.0000 0.0000
# 3 94.8375 26.0980 154.0809 0.0000 0.0000 0.0000
# 4 0.0000 0.0000 0.0000 8.6168 0.0000 0.0000
# 5 0.0000 0.0000 0.0000 0.0000 30.6621 0.0000
# 6 0.0000 0.0000 0.0000 0.0000 0.0000 9.2078
#
#
#
# Elastic Compliance Matrix: (Units=1/GPa)
#
#
# Indices 1 2 3 4 5 6 
#
# 1 0.010065 -0.008236 -0.004800 0.000000 0.000000 0.000000
# 2 -0.008236 0.044424 -0.002455 0.000000 0.000000 0.000000
# 3 -0.004800 -0.002455 0.009861 0.000000 0.000000 0.000000
# 4 0.000000 0.000000 0.000000 0.116052 0.000000 0.000000
# 5 0.000000 0.000000 0.000000 0.000000 0.032614 0.000000
# 6 0.000000 0.000000 0.000000 0.000000 0.000000 0.108604
#
#
# Mechanical properties :
#
#
# Convention : Reuss Voigt Hill
#
# Bulk Modulus (GPa) = 29.96988 75.32773 52.64880
# Shear Modulus (GPa) = 13.74668 23.15168 18.44918
#
# Velocity S-wave (km/s) = 2.71327 3.52116 3.14328
# Velocity P-wave (km/s) = 5.08584 7.54136 6.43187
#
# Compressibility (1/GPa) = 0.03336684
#
# Stress axis : x y z
#
# Youngs Moduli (GPa) = 99.35058 22.51055 101.41403
#
# Poissons Ratio (x) = 0.18539 0.48682
# Poissons Ratio (y) = 0.81823 0.24900
# Poissons Ratio (z) = 0.47691 0.05527
#
# Static dielectric constant tensor:
#      x y z
#    x 3.562520 0.000000 0.000000 
#    y 0.000000 2.728460 0.000000 
#    z 0.000000 0.000000 3.631330 
# 
# 
# High freq. dielectric constant tensor:
#      x y z
#    x 1.739770 0.000000 0.000000 
#    y 0.000000 1.680050 0.000000 
#    z 0.000000 0.000000 1.721550 
# 
# From -- ./inp_files/11285.got.cif
#   From: 2010.03.12/outbox.cif.g09.slc.cpg/sg65_6_cif.got.tgz:11285.got - 2010.04.10 20:52:16.
