data_PCOD8266956
_publ_section_title
;
Structure prediction by ZEFSAII (Michael W. Deem and Ramdas Pophale) SiO2 
 PCOD8266956
Probable space group: C M M M
;
_chemical_formula_sum "Si O2"
_cell_formula_units_Z 96
_cell_length_a 15.565714
_cell_length_b 23.233721
_cell_length_c 13.516186
_cell_angle_alpha 90.000000
_cell_angle_beta 90.000000
_cell_angle_gamma 90.000000
_cell_volume 4888.121317
_symmetry_space_group_name_H-M "C M M M"
_symmetry_group_IT_number 65
_symmetry_cell_setting 'orthorhombic'
loop_
_space_group_symop_operation_xyz
x,y,z
-x,-y,z
x,-y,-z
-x,y,-z
-x,-y,-z
x,y,-z
-x,y,z
x,-y,z
1/2+x,1/2+y,z
1/2-x,1/2-y,z
1/2+x,1/2-y,-z
1/2-x,1/2+y,-z
1/2-x,1/2-y,-z
1/2+x,1/2+y,-z
1/2-x,1/2+y,z
1/2+x,1/2-y,z
loop_
_atom_site_type_symbol
_atom_site_label
_atom_site_fract_x
_atom_site_fract_y
_atom_site_fract_z
Si Si1 0.769878 0.000000 0.385970
Si Si2 0.905079 0.709144 0.696547
Si Si3 0.597649 0.500000 0.790123
Si Si4 0.234147 0.614572 0.697404
Si Si5 0.180564 0.106437 0.112387
Si Si6 0.151348 0.763708 0.110522
Si Si7 0.597362 0.668825 0.386047
O O1 0.712438 0.943568 0.362619
O O2 0.799972 0.000000 0.500000
O O3 0.851207 0.000000 0.313020
O O4 0.835868 0.661272 0.667190
O O5 0.904121 0.728067 0.811403
O O6 0.884581 0.763582 0.627869
O O7 0.000000 0.684478 0.674252
O O8 0.500000 0.500000 0.757621
O O9 0.616007 0.444074 0.856932
O O10 0.235080 0.604157 0.816174
O O11 0.332634 0.632955 0.674413
O O12 0.133466 0.168266 0.122711
O O13 0.212811 0.097628 0.000000
O O14 0.250000 0.750000 0.134097
O O15 0.126663 0.743194 0.000000
O O16 0.608933 0.652752 0.500000
O O17 0.500000 0.653631 0.350340
#
# Coordination Sequence:
#
# PCOD8266956 Si02
#       7
#     8  16   8  16  16  16  16
#     4  10  24  42  62  84 105 141 195 240 291 354
#     4  11  22  36  56  84 116 151 194 237 288 348
#     4  10  23  39  56  86 123 153 190 233 278 342
#     4  11  21  39  60  82 113 152 189 240 291 337
#     4  10  20  34  56  81 114 160 198 228 274 331
#     4  10  18  33  57  84 117 157 196 237 287 338
#     4  10  21  36  57  85 114 145 184 230 286 352
#
# _framework density 19.639446
#
# number of rings (size 3 to 8) (size 9 to 14) (size 15 to 20)
#    0.000    1.667    3.333    1.250    0.000    6.500 
#    0.000    2.083    0.000    0.500    0.000    0.000 
#    0.000    5.333    0.000    0.000    0.000    0.000 
#
# Total GULP energy -595109.763080 kJ/mol
# GULP energy per Si atom -12398.120064 kJ/mol
# Density = 1.959475 g / cm^3
# Si number density = 19.639446 Si / 1000 Ang^3
#
#
#
# Elastic Constant Matrix: (Units=GPa)
#
#
# Indices 1 2 3 4 5 6 
#
# 1 65.1982 47.8832 16.6909 0.0000 0.0000 0.0000
# 2 47.8832 121.2480 27.9520 0.0000 0.0000 0.0000
# 3 16.6909 27.9520 99.6528 0.0000 0.0000 0.0000
# 4 0.0000 0.0000 0.0000 18.9592 0.0000 0.0000
# 5 0.0000 0.0000 0.0000 0.0000 16.2877 0.0000
# 6 0.0000 0.0000 0.0000 0.0000 0.0000 15.2419
#
#
#
# Elastic Compliance Matrix: (Units=1/GPa)
#
#
# Indices 1 2 3 4 5 6 
#
# 1 0.021765 -0.008291 -0.001320 0.000000 0.000000 0.000000
# 2 -0.008291 0.011976 -0.001971 0.000000 0.000000 0.000000
# 3 -0.001320 -0.001971 0.010809 0.000000 0.000000 0.000000
# 4 0.000000 0.000000 0.000000 0.052745 0.000000 0.000000
# 5 0.000000 0.000000 0.000000 0.000000 0.061396 0.000000
# 6 0.000000 0.000000 0.000000 0.000000 0.000000 0.065609
#
#
# Mechanical properties :
#
#
# Convention : Reuss Voigt Hill
#
# Bulk Modulus (GPa) = 46.75794 52.35013 49.55404
# Shear Modulus (GPa) = 19.63933 23.00262 21.32098
#
# Velocity S-wave (km/s) = 3.16570 3.42606 3.29845
# Velocity P-wave (km/s) = 6.10099 6.50876 6.30817
#
# Compressibility (1/GPa) = 0.02138674
#
# Stress axis : x y z
#
# Youngs Moduli (GPa) = 45.94546 83.49919 92.51868
#
# Poissons Ratio (x) = 0.69230 0.12211
# Poissons Ratio (y) = 0.38094 0.18231
# Poissons Ratio (z) = 0.06064 0.16454
#
# Static dielectric constant tensor:
#      x y z
#    x 3.272680 0.000000 0.000000 
#    y 0.000000 3.783600 0.000000 
#    z 0.000000 0.000000 3.745630 
# 
# 
# High freq. dielectric constant tensor:
#      x y z
#    x 1.723400 0.000000 0.000000 
#    y 0.000000 1.766130 0.000000 
#    z 0.000000 0.000000 1.781330 
# 
# From -- ./inp_files/40706.got.cif
#   From: 2010.03.12/outbox.cif.g09.slc.cpg/sg65_21_cif.got.tgz:40706.got - 2010.04.10 20:52:16.
