data_PCOD8266432
_publ_section_title
;
Structure prediction by ZEFSAII (Michael W. Deem and Ramdas Pophale) SiO2 
 PCOD8266432
Probable space group: C M M M
;
_chemical_formula_sum "Si O2"
_cell_formula_units_Z 88
_cell_length_a 7.605387
_cell_length_b 27.189332
_cell_length_c 23.156446
_cell_angle_alpha 90.000000
_cell_angle_beta 90.000000
_cell_angle_gamma 90.000000
_cell_volume 4788.414766
_symmetry_space_group_name_H-M "C M M M"
_symmetry_group_IT_number 65
_symmetry_cell_setting 'orthorhombic'
loop_
_space_group_symop_operation_xyz
x,y,z
-x,-y,z
x,-y,-z
-x,y,-z
-x,-y,-z
x,y,-z
-x,y,z
x,-y,z
1/2+x,1/2+y,z
1/2-x,1/2-y,z
1/2+x,1/2-y,-z
1/2-x,1/2+y,-z
1/2-x,1/2-y,-z
1/2+x,1/2+y,-z
1/2-x,1/2+y,z
1/2+x,1/2-y,z
loop_
_atom_site_type_symbol
_atom_site_label
_atom_site_fract_x
_atom_site_fract_y
_atom_site_fract_z
Si Si1 0.796249 0.806491 0.666294
Si Si2 0.795110 0.693719 0.000000
Si Si3 0.000000 0.556529 0.609971
Si Si4 0.292874 0.807231 0.875032
Si Si5 0.000000 0.557144 0.253537
Si Si6 0.796314 0.124558 0.434060
Si Si7 0.800016 0.128619 0.230040
O O1 0.750000 0.750000 0.669247
O O2 0.734873 0.829343 0.605259
O O3 0.715010 0.836846 0.719732
O O4 0.000000 0.812562 0.673809
O O5 0.750000 0.750000 0.000000
O O6 0.722945 0.673522 0.938436
O O7 0.000000 0.685034 0.000000
O O8 0.823313 0.578343 0.582037
O O9 0.000000 0.500000 0.593140
O O10 0.000000 0.565113 0.678045
O O11 0.500000 0.815058 0.868785
O O12 0.250000 0.750000 0.864827
O O13 0.194483 0.840561 0.828799
O O14 0.824805 0.581024 0.225728
O O15 0.000000 0.500000 0.236761
O O16 0.765356 0.140518 0.500000
O O17 0.000000 0.110187 0.422945
O O18 0.000000 0.111394 0.243631
#
# Coordination Sequence:
#
# PCOD8266432 Si02
#       7
#    16   8   8  16   8  16  16
#     4  10  22  35  54  80 110 148 187 226 272 326
#     4   8  16  28  44  72 116 159 196 233 271 323
#     4  11  23  40  65  88 107 142 188 235 293 342
#     4  10  18  30  50  81 120 161 197 233 278 332
#     4  11  24  41  64  86 112 147 183 239 299 341
#     4  10  22  40  57  80 116 148 182 229 278 336
#     4  11  22  38  58  84 114 146 189 234 283 342
#
# _framework density 18.377689
#
# number of rings (size 3 to 8) (size 9 to 14) (size 15 to 20)
#    0.000    1.818    2.727    1.364    2.545    4.000 
#    0.000    2.727    0.000    0.000    0.000    1.273 
#    0.000    1.455    0.000    0.000    0.000    0.000 
#
# Total GULP energy -545344.675707 kJ/mol
# GULP energy per Si atom -12394.197175 kJ/mol
# Density = 1.833586 g / cm^3
# Si number density = 18.377689 Si / 1000 Ang^3
#
#
#
# Elastic Constant Matrix: (Units=GPa)
#
#
# Indices 1 2 3 4 5 6 
#
# 1 79.3183 42.4476 28.5959 0.0000 0.0000 0.0000
# 2 42.4476 116.9024 55.9396 0.0000 0.0000 0.0000
# 3 28.5959 55.9396 132.7639 0.0000 0.0000 0.0000
# 4 0.0000 0.0000 0.0000 22.4265 0.0000 0.0000
# 5 0.0000 0.0000 0.0000 0.0000 15.9860 0.0000
# 6 0.0000 0.0000 0.0000 0.0000 0.0000 27.8314
#
#
#
# Elastic Compliance Matrix: (Units=1/GPa)
#
#
# Indices 1 2 3 4 5 6 
#
# 1 0.015808 -0.005149 -0.001235 0.000000 0.000000 0.000000
# 2 -0.005149 0.012391 -0.004112 0.000000 0.000000 0.000000
# 3 -0.001235 -0.004112 0.009531 0.000000 0.000000 0.000000
# 4 0.000000 0.000000 0.000000 0.044590 0.000000 0.000000
# 5 0.000000 0.000000 0.000000 0.000000 0.062555 0.000000
# 6 0.000000 0.000000 0.000000 0.000000 0.000000 0.035931
#
#
# Mechanical properties :
#
#
# Convention : Reuss Voigt Hill
#
# Bulk Modulus (GPa) = 59.74509 64.77230 62.25870
# Shear Modulus (GPa) = 24.11055 26.71555 25.41305
#
# Velocity S-wave (km/s) = 3.62601 3.81687 3.72266
# Velocity P-wave (km/s) = 7.07889 7.39907 7.24075
#
# Compressibility (1/GPa) = 0.01673778
#
# Stress axis : x y z
#
# Youngs Moduli (GPa) = 63.25807 80.70131 104.92210
#
# Poissons Ratio (x) = 0.41552 0.12963
# Poissons Ratio (y) = 0.32570 0.43145
# Poissons Ratio (z) = 0.07815 0.33185
#
# Static dielectric constant tensor:
#      x y z
#    x 3.689520 0.000000 0.000000 
#    y 0.000000 2.989070 0.000000 
#    z 0.000000 0.000000 3.891120 
# 
# 
# High freq. dielectric constant tensor:
#      x y z
#    x 1.723290 0.000000 0.000000 
#    y 0.000000 1.673720 0.000000 
#    z 0.000000 0.000000 1.726040 
# 
# From -- ./inp_files/59870.got.cif
#   From: 2010.03.12/outbox.cif.g09.slc.cpg/sg65_30_cif.got.tgz:59870.got - 2010.04.10 20:52:16.
