data_PCOD8266244
_publ_section_title
;
Structure prediction by ZEFSAII (Michael W. Deem and Ramdas Pophale) SiO2 
 PCOD8266244
Probable space group: C M M M
;
_chemical_formula_sum "Si O2"
_cell_formula_units_Z 80
_cell_length_a 23.568281
_cell_length_b 25.597994
_cell_length_c 8.972549
_cell_angle_alpha 90.000000
_cell_angle_beta 90.000000
_cell_angle_gamma 90.000000
_cell_volume 5413.145233
_symmetry_space_group_name_H-M "C M M M"
_symmetry_group_IT_number 65
_symmetry_cell_setting 'orthorhombic'
loop_
_space_group_symop_operation_xyz
x,y,z
-x,-y,z
x,-y,-z
-x,y,-z
-x,-y,-z
x,y,-z
-x,y,z
x,-y,z
1/2+x,1/2+y,z
1/2-x,1/2-y,z
1/2+x,1/2-y,-z
1/2-x,1/2+y,-z
1/2-x,1/2-y,-z
1/2+x,1/2+y,-z
1/2-x,1/2+y,z
1/2+x,1/2-y,z
loop_
_atom_site_type_symbol
_atom_site_label
_atom_site_fract_x
_atom_site_fract_y
_atom_site_fract_z
Si Si1 0.284439 0.303418 0.167743
Si Si2 0.378950 0.752076 0.672627
Si Si3 0.688279 0.141989 0.673101
Si Si4 0.887758 0.560065 0.170741
Si Si5 0.000000 0.402490 0.322247
Si Si6 0.000000 0.715472 0.323284
O O1 0.250000 0.250000 0.172475
O O2 0.346536 0.292861 0.236153
O O3 0.251199 0.346267 0.264916
O O4 0.291269 0.324330 0.000000
O O5 0.374472 0.737025 0.500000
O O6 0.352963 0.809128 0.700709
O O7 0.443975 0.753571 0.730026
O O8 0.692927 0.128071 0.500000
O O9 0.663675 0.092917 0.760858
O O10 0.869537 0.500000 0.181821
O O11 0.944914 0.568172 0.263176
O O12 0.897969 0.576998 0.000000
O O13 0.000000 0.404453 0.500000
O O14 0.000000 0.343311 0.259940
O O15 0.000000 0.710803 0.500000
#
# Coordination Sequence:
#
# PCOD8266244 Si02
#       6
#    16  16  16  16   8   8
#     4   9  17  28  42  62  86 108 135 172 216 263
#     4   9  16  28  44  62  84 110 142 177 215 257
#     4  10  18  30  48  64  80 107 145 183 219 260
#     4  11  23  35  45  61  86 114 145 186 233 269
#     4  11  20  34  49  62  80 112 154 191 225 259
#     4   9  16  28  44  63  86 112 143 183 220 251
#
# _framework density 14.778839
#
# number of rings (size 3 to 8) (size 9 to 14) (size 15 to 20)
#    0.000    2.200    2.000    2.400    0.000    6.000 
#    0.000    0.500    0.000    0.000    0.000    0.000 
#    0.000    0.000    0.000    0.900    0.000   17.400 
#
# Total GULP energy -496022.659769 kJ/mol
# GULP energy per Si atom -12400.566494 kJ/mol
# Density = 1.474520 g / cm^3
# Si number density = 14.778839 Si / 1000 Ang^3
#
#
#
# Elastic Constant Matrix: (Units=GPa)
#
#
# Indices 1 2 3 4 5 6 
#
# 1 106.0655 45.2059 47.4761 0.0000 0.0000 0.0000
# 2 45.2059 49.9485 37.3672 0.0000 0.0000 0.0000
# 3 47.4761 37.3672 92.6136 0.0000 0.0000 0.0000
# 4 0.0000 0.0000 0.0000 20.8899 0.0000 0.0000
# 5 0.0000 0.0000 0.0000 0.0000 20.7800 0.0000
# 6 0.0000 0.0000 0.0000 0.0000 0.0000 17.1554
#
#
#
# Elastic Compliance Matrix: (Units=1/GPa)
#
#
# Indices 1 2 3 4 5 6 
#
# 1 0.016060 -0.011997 -0.003392 0.000000 0.000000 0.000000
# 2 -0.011997 0.037639 -0.009036 0.000000 0.000000 0.000000
# 3 -0.003392 -0.009036 0.016182 0.000000 0.000000 0.000000
# 4 0.000000 0.000000 0.000000 0.047870 0.000000 0.000000
# 5 0.000000 0.000000 0.000000 0.000000 0.048123 0.000000
# 6 0.000000 0.000000 0.000000 0.000000 0.000000 0.058291
#
#
# Mechanical properties :
#
#
# Convention : Reuss Voigt Hill
#
# Bulk Modulus (GPa) = 47.55145 56.52511 52.03828
# Shear Modulus (GPa) = 17.85551 19.67030 18.76291
#
# Velocity S-wave (km/s) = 3.47966 3.65221 3.56698
# Velocity P-wave (km/s) = 6.95624 7.49101 7.22857
#
# Compressibility (1/GPa) = 0.02102985
#
# Stress axis : x y z
#
# Youngs Moduli (GPa) = 62.26742 26.56832 61.79591
#
# Poissons Ratio (x) = 0.31875 0.20962
# Poissons Ratio (y) = 0.74704 0.55840
# Poissons Ratio (z) = 0.21122 0.24008
#
# Static dielectric constant tensor:
#      x y z
#    x 2.991100 0.000000 0.000000 
#    y 0.000000 2.594400 0.000000 
#    z 0.000000 0.000000 2.962420 
# 
# 
# High freq. dielectric constant tensor:
#      x y z
#    x 1.557710 0.000000 0.000000 
#    y 0.000000 1.520620 0.000000 
#    z 0.000000 0.000000 1.575300 
# 
# From -- ./inp_files/11568.got.cif
#   From: 2010.03.12/outbox.cif.g09.slc.cpg/sg65_6_cif.got.tgz:11568.got - 2010.04.10 20:52:16.
