data_PCOD8266776
_publ_section_title
;
Structure prediction by ZEFSAII (Michael W. Deem and Ramdas Pophale) SiO2 
 PCOD8266776
Probable space group: C M M M
;
_chemical_formula_sum "Si O2"
_cell_formula_units_Z 64
_cell_length_a 8.562438
_cell_length_b 24.871179
_cell_length_c 14.515040
_cell_angle_alpha 90.000000
_cell_angle_beta 90.000000
_cell_angle_gamma 90.000000
_cell_volume 3091.092846
_symmetry_space_group_name_H-M "C M M M"
_symmetry_group_IT_number 65
_symmetry_cell_setting 'orthorhombic'
loop_
_space_group_symop_operation_xyz
x,y,z
-x,-y,z
x,-y,-z
-x,y,-z
-x,-y,-z
x,y,-z
-x,y,z
x,-y,z
1/2+x,1/2+y,z
1/2-x,1/2-y,z
1/2+x,1/2-y,-z
1/2-x,1/2+y,-z
1/2-x,1/2-y,-z
1/2+x,1/2+y,-z
1/2-x,1/2+y,z
1/2+x,1/2-y,z
loop_
_atom_site_type_symbol
_atom_site_label
_atom_site_fract_x
_atom_site_fract_y
_atom_site_fract_z
Si Si1 0.818396 0.308104 0.193098
Si Si2 0.312469 0.689100 0.000000
Si Si3 0.320756 0.404558 0.720907
Si Si4 0.173210 0.562436 0.099670
Si Si5 0.178195 0.500000 0.608727
O O1 0.750000 0.250000 0.213038
O O2 0.753727 0.335444 0.097043
O O3 0.771135 0.347468 0.277671
O O4 0.000000 0.300134 0.185649
O O5 0.250000 0.750000 0.000000
O O6 0.500000 0.687184 0.000000
O O7 0.500000 0.393497 0.698540
O O8 0.301730 0.429615 0.822057
O O9 0.256278 0.445525 0.645106
O O10 0.151316 0.500000 0.085104
O O11 0.000000 0.586312 0.127343
O O12 0.228776 0.587074 0.000000
O O13 0.194896 0.500000 0.500000
O O14 0.000000 0.500000 0.642300
#
# Coordination Sequence:
#
# PCOD8266776 Si02
#       5
#    16   8  16  16   8
#     4  11  22  38  58  83 120 165 212 257 302 354
#     4  10  18  32  52  79 116 161 214 260 301 348
#     4  12  24  38  60  91 124 159 202 251 304 365
#     4   9  18  33  53  78 115 160 204 245 293 351
#     4  11  25  47  72  95 120 153 197 250 311 376
#
# _framework density 20.704651999999999
#
# number of rings (size 3 to 8) (size 9 to 14) (size 15 to 20)
#    0.000    1.375    1.250    8.250    1.750    1.500 
#    0.000    1.250    0.000    0.750    0.000    0.000 
#    0.000    0.000    0.000    0.000    0.000    0.000 
#
# Total GULP energy -396678.570606 kJ/mol
# GULP energy per Si atom -12396.205331 kJ/mol
# Density = 2.065753 g / cm^3
# Si number density = 20.704652 Si / 1000 Ang^3
#
#
#
# Elastic Constant Matrix: (Units=GPa)
#
#
# Indices 1 2 3 4 5 6 
#
# 1 168.2980 33.8327 31.0159 0.0000 0.0000 0.0000
# 2 33.8327 101.5546 33.9031 0.0000 0.0000 0.0000
# 3 31.0159 33.9031 61.5839 0.0000 0.0000 0.0000
# 4 0.0000 0.0000 0.0000 23.9511 0.0000 0.0000
# 5 0.0000 0.0000 0.0000 0.0000 20.1802 0.0000
# 6 0.0000 0.0000 0.0000 0.0000 0.0000 31.1054
#
#
#
# Elastic Compliance Matrix: (Units=1/GPa)
#
#
# Indices 1 2 3 4 5 6 
#
# 1 0.006698 -0.001354 -0.002628 0.000000 0.000000 0.000000
# 2 -0.001354 0.012338 -0.006110 0.000000 0.000000 0.000000
# 3 -0.002628 -0.006110 0.020925 0.000000 0.000000 0.000000
# 4 0.000000 0.000000 0.000000 0.041752 0.000000 0.000000
# 5 0.000000 0.000000 0.000000 0.000000 0.049554 0.000000
# 6 0.000000 0.000000 0.000000 0.000000 0.000000 0.032149
#
#
# Mechanical properties :
#
#
# Convention : Reuss Voigt Hill
#
# Bulk Modulus (GPa) = 50.56443 58.77110 54.66776
# Shear Modulus (GPa) = 26.28908 30.55965 28.42436
#
# Velocity S-wave (km/s) = 3.56718 3.84602 3.70922
# Velocity P-wave (km/s) = 6.43748 6.94043 6.69368
#
# Compressibility (1/GPa) = 0.01977675
#
# Stress axis : x y z
#
# Youngs Moduli (GPa) = 149.28932 81.05087 47.78878
#
# Poissons Ratio (x) = 0.10976 0.12559
# Poissons Ratio (y) = 0.20217 0.29200
# Poissons Ratio (z) = 0.39234 0.49524
#
# Static dielectric constant tensor:
#      x y z
#    x 3.793650 0.000000 0.000000 
#    y 0.000000 4.162880 0.000000 
#    z 0.000000 0.000000 3.487960 
# 
# 
# High freq. dielectric constant tensor:
#      x y z
#    x 1.815770 0.000000 0.000000 
#    y 0.000000 1.846360 0.000000 
#    z 0.000000 0.000000 1.762080 
# 
# From -- ./inp_files/36413.got.cif
#   From: 2010.03.12/outbox.cif.g09.slc.cpg/sg65_19_cif.got.tgz:36413.got - 2010.04.10 20:52:16.
