data_PCOD8266381
_publ_section_title
;
Structure prediction by ZEFSAII (Michael W. Deem and Ramdas Pophale) SiO2 
 PCOD8266381
Probable space group: C M M M
;
_chemical_formula_sum "Si O2"
_cell_formula_units_Z 104
_cell_length_a 9.244596
_cell_length_b 28.919991
_cell_length_c 23.267994
_cell_angle_alpha 90.000000
_cell_angle_beta 90.000000
_cell_angle_gamma 90.000000
_cell_volume 6220.782731
_symmetry_space_group_name_H-M "C M M M"
_symmetry_group_IT_number 65
_symmetry_cell_setting 'orthorhombic'
loop_
_space_group_symop_operation_xyz
x,y,z
-x,-y,z
x,-y,-z
-x,y,-z
-x,-y,-z
x,y,-z
-x,y,z
x,-y,z
1/2+x,1/2+y,z
1/2-x,1/2-y,z
1/2+x,1/2-y,-z
1/2-x,1/2+y,-z
1/2-x,1/2-y,-z
1/2+x,1/2+y,-z
1/2-x,1/2+y,z
1/2+x,1/2-y,z
loop_
_atom_site_type_symbol
_atom_site_label
_atom_site_fract_x
_atom_site_fract_y
_atom_site_fract_z
Si Si1 0.165424 0.054100 0.327752
Si Si2 0.169094 0.447234 0.215651
Si Si3 0.670990 0.886635 0.106213
Si Si4 0.672972 0.607906 0.563243
Si Si5 0.328718 0.948203 0.000000
Si Si6 0.842498 0.790682 0.567356
Si Si7 0.169992 0.202769 0.932833
O O1 0.252690 0.071759 0.272552
O O2 0.231706 0.074995 0.386466
O O3 0.000000 0.069567 0.319557
O O4 0.181676 0.000000 0.334527
O O5 0.217495 0.500000 0.200780
O O6 0.212217 0.412871 0.164621
O O7 0.000000 0.445944 0.227543
O O8 0.500000 0.876148 0.101508
O O9 0.724252 0.920497 0.055716
O O10 0.758789 0.838813 0.103294
O O11 0.729116 0.591563 0.500000
O O12 0.500000 0.608780 0.561555
O O13 0.731221 0.659405 0.577206
O O14 0.500000 0.952415 0.000000
O O15 0.261486 0.000000 0.000000
O O16 0.858735 0.781240 0.500000
O O17 0.750000 0.750000 0.596818
O O18 0.000000 0.789396 0.596759
O O19 0.250000 0.250000 0.914605
O O20 0.000000 0.206824 0.918440
O O21 0.195941 0.192812 0.000000
#
# Coordination Sequence:
#
# PCOD8266381 Si02
#       7
#    16  16  16  16   8  16  16
#     4   9  17  29  46  67  89 117 155 194 231 275
#     4   9  18  32  49  69  94 126 161 194 231 280
#     4  10  18  30  50  73  96 124 160 199 238 278
#     4   8  14  25  42  65  91 116 145 186 235 281
#     4   9  16  26  44  71  98 121 150 191 234 277
#     4   8  13  22  37  57  82 110 137 168 209 258
#     4  10  20  33  50  72 100 130 161 196 238 286
#
# _framework density 16.718153999999998
#
# number of rings (size 3 to 8) (size 9 to 14) (size 15 to 20)
#    0.000    3.000    0.769    1.846    0.000    3.385 
#    0.000    2.308    0.000    4.154    0.000    6.462 
#    0.000    0.000    0.000    0.000    0.000    0.000 
#
# Total GULP energy -644522.730676 kJ/mol
# GULP energy per Si atom -12394.667898 kJ/mol
# Density = 1.668010 g / cm^3
# Si number density = 16.718154 Si / 1000 Ang^3
#
#
#
# Elastic Constant Matrix: (Units=GPa)
#
#
# Indices 1 2 3 4 5 6 
#
# 1 50.7630 43.5124 40.4402 0.0000 0.0000 0.0000
# 2 43.5124 104.9904 69.3580 0.0000 0.0000 0.0000
# 3 40.4402 69.3580 125.3749 0.0000 0.0000 0.0000
# 4 0.0000 0.0000 0.0000 14.3666 0.0000 0.0000
# 5 0.0000 0.0000 0.0000 0.0000 20.3848 0.0000
# 6 0.0000 0.0000 0.0000 0.0000 0.0000 25.6007
#
#
#
# Elastic Compliance Matrix: (Units=1/GPa)
#
#
# Indices 1 2 3 4 5 6 
#
# 1 0.032247 -0.010233 -0.004741 0.000000 0.000000 0.000000
# 2 -0.010233 0.018257 -0.006799 0.000000 0.000000 0.000000
# 3 -0.004741 -0.006799 0.013267 0.000000 0.000000 0.000000
# 4 0.000000 0.000000 0.000000 0.069606 0.000000 0.000000
# 5 0.000000 0.000000 0.000000 0.000000 0.049056 0.000000
# 6 0.000000 0.000000 0.000000 0.000000 0.000000 0.039061
#
#
# Mechanical properties :
#
#
# Convention : Reuss Voigt Hill
#
# Bulk Modulus (GPa) = 49.44256 65.30549 57.37402
# Shear Modulus (GPa) = 18.39704 20.59159 19.49432
#
# Velocity S-wave (km/s) = 3.32086 3.51335 3.41846
# Velocity P-wave (km/s) = 6.65902 7.45692 7.06923
#
# Compressibility (1/GPa) = 0.02022549
#
# Stress axis : x y z
#
# Youngs Moduli (GPa) = 31.01030 54.77222 75.37704
#
# Poissons Ratio (x) = 0.56048 0.35733
# Poissons Ratio (y) = 0.31733 0.51252
# Poissons Ratio (z) = 0.14701 0.37242
#
# Static dielectric constant tensor:
#      x y z
#    x 3.080860 0.000000 0.000000 
#    y 0.000000 3.233840 0.000000 
#    z 0.000000 0.000000 3.102450 
# 
# 
# High freq. dielectric constant tensor:
#      x y z
#    x 1.618640 0.000000 0.000000 
#    y 0.000000 1.647420 0.000000 
#    z 0.000000 0.000000 1.621020 
# 
# From -- ./inp_files/68567.got.cif
#   From: 2010.03.12/outbox.cif.g09.slc.cpg/sg65_35_cif.got.tgz:68567.got - 2010.04.10 20:52:16.
