data_PCOD8266943
_publ_section_title
;
Structure prediction by ZEFSAII (Michael W. Deem and Ramdas Pophale) SiO2 
 PCOD8266943
Probable space group: C M M M
;
_chemical_formula_sum "Si O2"
_cell_formula_units_Z 104
_cell_length_a 21.557034
_cell_length_b 8.809008
_cell_length_c 26.374621
_cell_angle_alpha 90.000000
_cell_angle_beta 90.000000
_cell_angle_gamma 90.000000
_cell_volume 5008.437270
_symmetry_space_group_name_H-M "C M M M"
_symmetry_group_IT_number 65
_symmetry_cell_setting 'orthorhombic'
loop_
_space_group_symop_operation_xyz
x,y,z
-x,-y,z
x,-y,-z
-x,y,-z
-x,-y,-z
x,y,-z
-x,y,z
x,-y,z
1/2+x,1/2+y,z
1/2-x,1/2-y,z
1/2+x,1/2-y,-z
1/2-x,1/2+y,-z
1/2-x,1/2-y,-z
1/2+x,1/2+y,-z
1/2-x,1/2+y,z
1/2+x,1/2-y,z
loop_
_atom_site_type_symbol
_atom_site_label
_atom_site_fract_x
_atom_site_fract_y
_atom_site_fract_z
Si Si1 0.188040 0.676109 0.309501
Si Si2 0.000000 0.819292 0.784820
Si Si3 0.000000 0.820117 0.669864
Si Si4 0.116052 0.179914 0.392854
Si Si5 0.626131 0.822086 0.793139
Si Si6 0.429575 0.680730 0.500000
Si Si7 0.314230 0.679871 0.115927
Si Si8 0.069996 0.325216 0.059749
O O1 0.198162 0.500000 0.317315
O O2 0.250000 0.750000 0.287939
O O3 0.174831 0.747771 0.364877
O O4 0.136529 0.711957 0.266572
O O5 0.060627 0.748887 0.810937
O O6 0.000000 0.760913 0.726902
O O7 0.000000 0.000000 0.790111
O O8 0.941231 0.757305 0.639706
O O9 0.000000 0.000000 0.668512
O O10 0.108011 0.238018 0.450611
O O11 0.121783 0.000000 0.391530
O O12 0.678803 0.740956 0.826561
O O13 0.627121 0.000000 0.804620
O O14 0.433957 0.500000 0.500000
O O15 0.500000 0.745312 0.500000
O O16 0.308155 0.500000 0.115199
O O17 0.250000 0.750000 0.093399
O O18 0.375483 0.727167 0.084813
O O19 0.079317 0.500000 0.075812
O O20 0.000000 0.271770 0.076110
O O21 0.076731 0.305934 0.000000
#
# Coordination Sequence:
#
# PCOD8266943 Si02
#       8
#    16   8   8  16  16   8  16  16
#     4  11  24  40  59  81 108 149 196 241 293 351
#     4  11  21  35  58  91 122 157 202 244 298 361
#     4   9  16  28  53  84 113 144 178 225 276 335
#     4  10  18  33  56  84 114 144 182 229 280 341
#     4  11  24  41  61  88 124 162 201 251 308 365
#     4   9  16  28  54  87 114 141 178 222 279 346
#     4  12  26  43  65  94 130 171 218 268 319 376
#     4   9  20  42  71 100 132 172 216 264 321 379
#
# _framework density 20.764959999999999
#
# number of rings (size 3 to 8) (size 9 to 14) (size 15 to 20)
#    0.000    1.615    2.308    3.462    1.077    4.000 
#    0.000    1.923    0.000    0.462    0.000    0.000 
#    0.000    0.000    0.000    0.000    0.000    0.000 
#
# Total GULP energy -644698.415785 kJ/mol
# GULP energy per Si atom -12398.046457 kJ/mol
# Density = 2.071770 g / cm^3
# Si number density = 20.764960 Si / 1000 Ang^3
#
#
#
# Elastic Constant Matrix: (Units=GPa)
#
#
# Indices 1 2 3 4 5 6 
#
# 1 130.2153 57.9353 35.8420 0.0000 0.0000 0.0000
# 2 57.9353 108.0785 34.7312 0.0000 0.0000 0.0000
# 3 35.8420 34.7312 74.6133 0.0000 0.0000 0.0000
# 4 0.0000 0.0000 0.0000 26.5498 0.0000 0.0000
# 5 0.0000 0.0000 0.0000 0.0000 30.6578 0.0000
# 6 0.0000 0.0000 0.0000 0.0000 0.0000 28.4975
#
#
#
# Elastic Compliance Matrix: (Units=1/GPa)
#
#
# Indices 1 2 3 4 5 6 
#
# 1 0.010584 -0.004750 -0.002873 0.000000 0.000000 0.000000
# 2 -0.004750 0.013012 -0.003775 0.000000 0.000000 0.000000
# 3 -0.002873 -0.003775 0.016540 0.000000 0.000000 0.000000
# 4 0.000000 0.000000 0.000000 0.037665 0.000000 0.000000
# 5 0.000000 0.000000 0.000000 0.000000 0.032618 0.000000
# 6 0.000000 0.000000 0.000000 0.000000 0.000000 0.035091
#
#
# Mechanical properties :
#
#
# Convention : Reuss Voigt Hill
#
# Bulk Modulus (GPa) = 57.67304 63.32489 60.49896
# Shear Modulus (GPa) = 28.72149 29.43427 29.07788
#
# Velocity S-wave (km/s) = 3.72314 3.76905 3.74616
# Velocity P-wave (km/s) = 6.80565 7.03585 6.92171
#
# Compressibility (1/GPa) = 0.01733913
#
# Stress axis : x y z
#
# Youngs Moduli (GPa) = 94.48349 76.85230 60.46047
#
# Poissons Ratio (x) = 0.36506 0.17370
# Poissons Ratio (y) = 0.44882 0.22824
# Poissons Ratio (z) = 0.27145 0.29012
#
# Static dielectric constant tensor:
#      x y z
#    x 3.838740 0.000000 0.000000 
#    y 0.000000 3.442890 0.000000 
#    z 0.000000 0.000000 3.835390 
# 
# 
# High freq. dielectric constant tensor:
#      x y z
#    x 1.816880 0.000000 0.000000 
#    y 0.000000 1.792250 0.000000 
#    z 0.000000 0.000000 1.815990 
# 
# From -- ./inp_files/75547.got.cif
#   From: 2010.03.12/outbox.cif.g09.slc.cpg/sg65_38_cif.got.tgz:75547.got - 2010.04.10 20:52:16.
