data_PCOD8266508
_publ_section_title
;
Structure prediction by ZEFSAII (Michael W. Deem and Ramdas Pophale) SiO2 
 PCOD8266508
Probable space group: C M M M
;
_chemical_formula_sum "Si O2"
_cell_formula_units_Z 64
_cell_length_a 18.070326
_cell_length_b 20.562945
_cell_length_c 8.976256
_cell_angle_alpha 90.000000
_cell_angle_beta 90.000000
_cell_angle_gamma 90.000000
_cell_volume 3335.389302
_symmetry_space_group_name_H-M "C M M M"
_symmetry_group_IT_number 65
_symmetry_cell_setting 'orthorhombic'
loop_
_space_group_symop_operation_xyz
x,y,z
-x,-y,z
x,-y,-z
-x,y,-z
-x,-y,-z
x,y,-z
-x,y,z
x,-y,z
1/2+x,1/2+y,z
1/2-x,1/2-y,z
1/2+x,1/2-y,-z
1/2-x,1/2+y,-z
1/2-x,1/2-y,-z
1/2+x,1/2+y,-z
1/2-x,1/2+y,z
1/2+x,1/2-y,z
loop_
_atom_site_type_symbol
_atom_site_label
_atom_site_fract_x
_atom_site_fract_y
_atom_site_fract_z
Si Si1 0.350094 0.630164 0.673140
Si Si2 0.823332 0.640965 0.331780
Si Si3 0.844536 0.000000 0.825668
Si Si4 0.805795 0.500000 0.331574
Si Si5 0.084976 0.252717 0.170752
O O1 0.365387 0.621132 0.500000
O O2 0.263654 0.643008 0.705533
O O3 0.379461 0.565264 0.755210
O O4 0.396884 0.690507 0.730861
O O5 0.837535 0.666054 0.500000
O O6 0.853082 0.566317 0.313331
O O7 0.866113 0.685794 0.217171
O O8 0.757435 0.000000 0.792120
O O9 0.860072 0.000000 0.000000
O O10 0.769954 0.500000 0.500000
O O11 0.000000 0.272035 0.194836
O O12 0.102686 0.236186 0.000000
#
# Coordination Sequence:
#
# PCOD8266508 Si02
#       5
#    16  16   8   8  16
#     4  10  20  36  58  82 107 137 177 221 262 311
#     4   9  18  34  57  82 106 136 175 218 264 314
#     4  10  18  30  53  84 113 138 167 210 265 318
#     4   8  16  32  53  80 111 137 171 220 263 307
#     4  11  24  38  51  74 109 144 179 221 267 315
#
# _framework density 19.188165000000001
#
# number of rings (size 3 to 8) (size 9 to 14) (size 15 to 20)
#    0.000    2.250    0.000    4.875    0.000   10.000 
#    0.000    1.250    0.000    7.500    0.000    0.000 
#    0.000    0.000    0.000    0.000    0.000    0.000 
#
# Total GULP energy -396750.514754 kJ/mol
# GULP energy per Si atom -12398.453586 kJ/mol
# Density = 1.914449 g / cm^3
# Si number density = 19.188165 Si / 1000 Ang^3
#
#
#
# Elastic Constant Matrix: (Units=GPa)
#
#
# Indices 1 2 3 4 5 6 
#
# 1 30.8335 14.1690 27.0942 0.0000 0.0000 0.0000
# 2 14.1690 114.5624 45.0319 0.0000 0.0000 0.0000
# 3 27.0942 45.0319 110.8818 0.0000 0.0000 0.0000
# 4 0.0000 0.0000 0.0000 34.2433 0.0000 0.0000
# 5 0.0000 0.0000 0.0000 0.0000 23.5080 0.0000
# 6 0.0000 0.0000 0.0000 0.0000 0.0000 -5.0180
#
#
#
# Elastic Compliance Matrix: (Units=1/GPa)
#
#
# Indices 1 2 3 4 5 6 
#
# 1 0.041478 -0.001364 -0.009581 0.000000 0.000000 0.000000
# 2 -0.001364 0.010432 -0.003903 0.000000 0.000000 0.000000
# 3 -0.009581 -0.003903 0.012945 0.000000 0.000000 0.000000
# 4 0.000000 0.000000 0.000000 0.029203 0.000000 0.000000
# 5 0.000000 0.000000 0.000000 0.000000 0.042539 0.000000
# 6 0.000000 0.000000 0.000000 0.000000 0.000000 -0.199282
#
#
# Mechanical properties :
#
#
# Convention : Reuss Voigt Hill
#
# Bulk Modulus (GPa) = 28.44292 47.65200 38.04746
# Shear Modulus (GPa) = -235.09356 21.87883 -106.60736
#
# Velocity S-wave (km/s) = -11.08089 3.38039 -7.46187
# Velocity P-wave (km/s) = 12.20080 6.33435 7.37345
#
# Compressibility (1/GPa) = 0.03515814
#
# Stress axis : x y z
#
# Youngs Moduli (GPa) = 24.10891 95.85994 77.24899
#
# Poissons Ratio (x) = 0.13073 0.74016
# Poissons Ratio (y) = 0.03288 0.30154
# Poissons Ratio (z) = 0.23100 0.37418
#
# Static dielectric constant tensor:
#      x y z
#    x 3.099750 0.000000 0.000000 
#    y 0.000000 3.858650 0.000000 
#    z 0.000000 0.000000 3.510430 
# 
# 
# High freq. dielectric constant tensor:
#      x y z
#    x 1.699380 0.000000 0.000000 
#    y 0.000000 1.769690 0.000000 
#    z 0.000000 0.000000 1.752260 
# 
# From -- ./inp_files/8860.got.cif
#   From: 2010.03.12/outbox.cif.g09.slc.cpg/sg65_5_cif.got.tgz:8860.got - 2010.04.10 20:52:16.
