data_PCOD8266834
_publ_section_title
;
Structure prediction by ZEFSAII (Michael W. Deem and Ramdas Pophale) SiO2 
 PCOD8266834
Probable space group: C M M M
;
_chemical_formula_sum "Si O2"
_cell_formula_units_Z 104
_cell_length_a 27.017691
_cell_length_b 21.585478
_cell_length_c 9.391729
_cell_angle_alpha 90.000000
_cell_angle_beta 90.000000
_cell_angle_gamma 90.000000
_cell_volume 5477.160319
_symmetry_space_group_name_H-M "C M M M"
_symmetry_group_IT_number 65
_symmetry_cell_setting 'orthorhombic'
loop_
_space_group_symop_operation_xyz
x,y,z
-x,-y,z
x,-y,-z
-x,y,-z
-x,-y,-z
x,y,-z
-x,y,z
x,-y,z
1/2+x,1/2+y,z
1/2-x,1/2-y,z
1/2+x,1/2-y,-z
1/2-x,1/2+y,-z
1/2-x,1/2-y,-z
1/2+x,1/2+y,-z
1/2-x,1/2+y,z
1/2+x,1/2-y,z
loop_
_atom_site_type_symbol
_atom_site_label
_atom_site_fract_x
_atom_site_fract_y
_atom_site_fract_z
Si Si1 0.881451 0.113010 0.831206
Si Si2 0.715591 0.191838 0.831611
Si Si3 0.945804 0.000000 0.169006
Si Si4 0.556242 0.705290 0.339363
Si Si5 0.274171 0.570452 0.831166
Si Si6 0.618732 0.178232 0.338725
Si Si7 0.445149 0.931276 0.669367
O O1 0.902137 0.174262 0.758742
O O2 0.827363 0.093890 0.775522
O O3 0.918111 0.060185 0.776804
O O4 0.881311 0.122835 0.000000
O O5 0.750000 0.250000 0.786015
O O6 0.736076 0.124116 0.781155
O O7 0.663184 0.202867 0.757901
O O8 0.708255 0.192617 0.000000
O O9 0.000000 0.000000 0.237577
O O10 0.947772 0.000000 0.000000
O O11 0.559020 0.678854 0.500000
O O12 0.500000 0.697904 0.280058
O O13 0.571374 0.776839 0.337588
O O14 0.262200 0.500000 0.773039
O O15 0.275674 0.566808 0.000000
O O16 0.638728 0.170028 0.500000
O O17 0.597219 0.114528 0.272443
O O18 0.446767 0.926373 0.500000
O O19 0.500000 0.915125 0.729011
O O20 0.429936 0.000000 0.718979
#
# Coordination Sequence:
#
# PCOD8266834 Si02
#       7
#    16  16   8  16  16  16  16
#     4  10  18  32  54  77 100 129 171 215 250 289
#     4  10  21  36  53  75 102 132 171 216 259 304
#     4   9  16  26  45  75 103 123 155 207 254 285
#     4  10  21  35  50  72 105 141 171 202 250 310
#     4   9  17  32  54  77 101 134 172 209 254 308
#     4  10  20  34  53  76 102 132 168 211 256 303
#     4   8  14  27  50  78 104 131 165 204 247 300
#
# _framework density 18.987940999999999
#
# number of rings (size 3 to 8) (size 9 to 14) (size 15 to 20)
#    0.000    2.538    0.769    2.308    0.000    5.538 
#    0.000    1.154    0.000    3.692    0.000    1.077 
#    0.000    0.000    0.000    0.000    0.000    0.000 
#
# Total GULP energy -644432.586802 kJ/mol
# GULP energy per Si atom -12392.934362 kJ/mol
# Density = 1.894472 g / cm^3
# Si number density = 18.987941 Si / 1000 Ang^3
#
#
#
# Elastic Constant Matrix: (Units=GPa)
#
#
# Indices 1 2 3 4 5 6 
#
# 1 89.1807 40.1884 21.8887 0.0000 0.0000 0.0000
# 2 40.1884 113.4794 23.1455 0.0000 0.0000 0.0000
# 3 21.8887 23.1455 26.0724 0.0000 0.0000 0.0000
# 4 0.0000 0.0000 0.0000 17.0124 0.0000 0.0000
# 5 0.0000 0.0000 0.0000 0.0000 20.7406 0.0000
# 6 0.0000 0.0000 0.0000 0.0000 0.0000 43.9247
#
#
#
# Elastic Compliance Matrix: (Units=1/GPa)
#
#
# Indices 1 2 3 4 5 6 
#
# 1 0.015113 -0.003376 -0.009691 0.000000 0.000000 0.000000
# 2 -0.003376 0.011514 -0.007388 0.000000 0.000000 0.000000
# 3 -0.009691 -0.007388 0.053050 0.000000 0.000000 0.000000
# 4 0.000000 0.000000 0.000000 0.058781 0.000000 0.000000
# 5 0.000000 0.000000 0.000000 0.000000 0.048215 0.000000
# 6 0.000000 0.000000 0.000000 0.000000 0.000000 0.022766
#
#
# Mechanical properties :
#
#
# Convention : Reuss Voigt Hill
#
# Bulk Modulus (GPa) = 25.79488 44.35307 35.07397
# Shear Modulus (GPa) = 18.99187 25.90287 22.44737
#
# Velocity S-wave (km/s) = 3.16604 3.69748 3.44203
# Velocity P-wave (km/s) = 5.19417 6.45273 5.85735
#
# Compressibility (1/GPa) = 0.03876739
#
# Stress axis : x y z
#
# Youngs Moduli (GPa) = 66.16820 86.84717 18.85031
#
# Poissons Ratio (x) = 0.29316 0.18268
# Poissons Ratio (y) = 0.22335 0.13927
# Poissons Ratio (z) = 0.64125 0.64162
#
# Static dielectric constant tensor:
#      x y z
#    x 3.525090 0.000000 0.000000 
#    y 0.000000 3.763940 0.000000 
#    z 0.000000 0.000000 2.941080 
# 
# 
# High freq. dielectric constant tensor:
#      x y z
#    x 1.742270 0.000000 0.000000 
#    y 0.000000 1.754470 0.000000 
#    z 0.000000 0.000000 1.682470 
# 
# From -- ./inp_files/16521.got.cif
#   From: 2010.03.12/outbox.cif.g09.slc.cpg/sg65_9_cif.got.tgz:16521.got - 2010.04.10 20:52:16.
