data_PCOD8266787
_publ_section_title
;
Structure prediction by ZEFSAII (Michael W. Deem and Ramdas Pophale) SiO2 
 PCOD8266787
Probable space group: C M M M
;
_chemical_formula_sum "Si O2"
_cell_formula_units_Z 96
_cell_length_a 8.669485
_cell_length_b 18.989398
_cell_length_c 31.392001
_cell_angle_alpha 90.000000
_cell_angle_beta 90.000000
_cell_angle_gamma 90.000000
_cell_volume 5168.011793
_symmetry_space_group_name_H-M "C M M M"
_symmetry_group_IT_number 65
_symmetry_cell_setting 'orthorhombic'
loop_
_space_group_symop_operation_xyz
x,y,z
-x,-y,z
x,-y,-z
-x,y,-z
-x,-y,-z
x,y,-z
-x,y,z
x,-y,z
1/2+x,1/2+y,z
1/2-x,1/2-y,z
1/2+x,1/2-y,-z
1/2-x,1/2+y,-z
1/2-x,1/2-y,-z
1/2+x,1/2+y,-z
1/2-x,1/2+y,z
1/2+x,1/2-y,z
loop_
_atom_site_type_symbol
_atom_site_label
_atom_site_fract_x
_atom_site_fract_y
_atom_site_fract_z
Si Si1 0.317080 0.078767 0.545014
Si Si2 0.682700 0.828024 0.204201
Si Si3 0.679805 0.326394 0.118937
Si Si4 0.319449 0.673202 0.709890
Si Si5 0.323521 0.081846 0.048694
Si Si6 0.678123 0.916184 0.637142
O O1 0.264867 0.117044 0.500000
O O2 0.500000 0.074918 0.546525
O O3 0.265838 0.112774 0.590199
O O4 0.250045 0.000000 0.543446
O O5 0.500000 0.829067 0.204881
O O6 0.750000 0.750000 0.203435
O O7 0.744034 0.863990 0.160694
O O8 0.746578 0.863009 0.247613
O O9 0.500000 0.317797 0.127204
O O10 0.750000 0.250000 0.109979
O O11 0.708700 0.374723 0.078201
O O12 0.500000 0.681843 0.716672
O O13 0.250000 0.750000 0.700591
O O14 0.286325 0.621486 0.670989
O O15 0.500000 0.099895 0.060417
O O16 0.290362 0.000000 0.055840
O O17 0.289609 0.102853 0.000000
O O18 0.500000 0.896190 0.645829
O O19 0.700687 0.000000 0.639831
#
# Coordination Sequence:
#
# PCOD8266787 Si02
#       6
#    16  16  16  16  16  16
#     4   7  10  19  39  67  95 123 157 196 238 288
#     4  10  18  32  53  75 100 129 165 206 250 299
#     4  11  21  34  54  80 108 135 168 210 253 296
#     4  11  21  34  52  73  99 131 169 207 246 297
#     4   9  19  37  58  78 104 139 175 210 252 302
#     4   9  17  30  49  74 103 131 161 201 249 297
#
# _framework density 18.575810000000001
#
# number of rings (size 3 to 8) (size 9 to 14) (size 15 to 20)
#    0.000    2.500    0.000    8.500    0.000    1.333 
#    0.000    1.667    0.000    6.000    0.000    2.333 
#    0.000    0.000    0.000    0.000    0.000    0.000 
#
# Total GULP energy -594701.029718 kJ/mol
# GULP energy per Si atom -12389.604786 kJ/mol
# Density = 1.853353 g / cm^3
# Si number density = 18.575810 Si / 1000 Ang^3
#
#
#
# Elastic Constant Matrix: (Units=GPa)
#
#
# Indices 1 2 3 4 5 6 
#
# 1 127.3787 25.2754 56.8133 0.0000 0.0000 0.0000
# 2 25.2754 35.5618 43.4310 0.0000 0.0000 0.0000
# 3 56.8133 43.4310 166.9947 0.0000 0.0000 0.0000
# 4 0.0000 0.0000 0.0000 25.6582 0.0000 0.0000
# 5 0.0000 0.0000 0.0000 0.0000 26.1989 0.0000
# 6 0.0000 0.0000 0.0000 0.0000 0.0000 21.8756
#
#
#
# Elastic Compliance Matrix: (Units=1/GPa)
#
#
# Indices 1 2 3 4 5 6 
#
# 1 0.009661 -0.004180 -0.002200 0.000000 0.000000 0.000000
# 2 -0.004180 0.043018 -0.009766 0.000000 0.000000 0.000000
# 3 -0.002200 -0.009766 0.009276 0.000000 0.000000 0.000000
# 4 0.000000 0.000000 0.000000 0.038974 0.000000 0.000000
# 5 0.000000 0.000000 0.000000 0.000000 0.038169 0.000000
# 6 0.000000 0.000000 0.000000 0.000000 0.000000 0.045713
#
#
# Mechanical properties :
#
#
# Convention : Reuss Voigt Hill
#
# Bulk Modulus (GPa) = 33.71065 64.55274 49.13169
# Shear Modulus (GPa) = 22.02732 28.37425 25.20079
#
# Velocity S-wave (km/s) = 3.44729 3.91254 3.68726
# Velocity P-wave (km/s) = 5.83370 7.43216 6.68091
#
# Compressibility (1/GPa) = 0.02966421
#
# Stress axis : x y z
#
# Youngs Moduli (GPa) = 103.50719 23.24621 107.80098
#
# Poissons Ratio (x) = 0.09717 0.23713
# Poissons Ratio (y) = 0.43268 1.05275
# Poissons Ratio (z) = 0.22768 0.22701
#
# Static dielectric constant tensor:
#      x y z
#    x 3.230990 0.000000 0.000000 
#    y 0.000000 2.908390 0.000000 
#    z 0.000000 0.000000 4.291530 
# 
# 
# High freq. dielectric constant tensor:
#      x y z
#    x 1.710590 0.000000 0.000000 
#    y 0.000000 1.664450 0.000000 
#    z 0.000000 0.000000 1.753140 
# 
# From -- ./inp_files/73192.got.cif
#   From: 2010.03.12/outbox.cif.g09.slc.cpg/sg65_37_cif.got.tgz:73192.got - 2010.04.10 20:52:16.
