data_PCOD8266052
_publ_section_title
;
Structure prediction by ZEFSAII (Michael W. Deem and Ramdas Pophale) SiO2 
 PCOD8266052
Probable space group: C M M M
;
_chemical_formula_sum "Si O2"
_cell_formula_units_Z 104
_cell_length_a 24.011379
_cell_length_b 28.028839
_cell_length_c 9.157994
_cell_angle_alpha 90.000000
_cell_angle_beta 90.000000
_cell_angle_gamma 90.000000
_cell_volume 6163.431397
_symmetry_space_group_name_H-M "C M M M"
_symmetry_group_IT_number 65
_symmetry_cell_setting 'orthorhombic'
loop_
_space_group_symop_operation_xyz
x,y,z
-x,-y,z
x,-y,-z
-x,y,-z
-x,-y,-z
x,y,-z
-x,y,z
x,-y,z
1/2+x,1/2+y,z
1/2-x,1/2-y,z
1/2+x,1/2-y,-z
1/2-x,1/2+y,-z
1/2-x,1/2-y,-z
1/2+x,1/2+y,-z
1/2-x,1/2+y,z
1/2+x,1/2-y,z
loop_
_atom_site_type_symbol
_atom_site_label
_atom_site_fract_x
_atom_site_fract_y
_atom_site_fract_z
Si Si1 0.066156 0.273285 0.161567
Si Si2 0.064932 0.620786 0.170384
Si Si3 0.063163 0.181920 0.671880
Si Si4 0.437948 0.500000 0.326818
Si Si5 0.850312 0.555458 0.669177
Si Si6 0.132110 0.090367 0.673321
Si Si7 0.737819 0.555350 0.171508
O O1 0.085671 0.325782 0.213405
O O2 0.088257 0.231383 0.266355
O O3 0.000000 0.273776 0.158932
O O4 0.089469 0.262796 0.000000
O O5 0.096921 0.583696 0.271014
O O6 0.000000 0.614386 0.204621
O O7 0.076951 0.610992 0.000000
O O8 0.063542 0.186081 0.500000
O O9 0.101817 0.138638 0.724080
O O10 0.000000 0.172918 0.728071
O O11 0.500000 0.500000 0.259515
O O12 0.441705 0.500000 0.500000
O O13 0.406033 0.546797 0.271833
O O14 0.840390 0.567493 0.500000
O O15 0.863057 0.500000 0.693234
O O16 0.796109 0.571279 0.759218
O O17 0.141806 0.088375 0.500000
O O18 0.190855 0.087832 0.754573
O O19 0.725510 0.500000 0.206922
O O20 0.739709 0.565314 0.000000
#
# Coordination Sequence:
#
# PCOD8266052 Si02
#       7
#    16  16  16   8  16  16  16
#     4   8  15  29  48  69  95 129 165 197 233 283
#     4   9  18  33  53  77 104 133 163 193 232 285
#     4   9  17  28  44  70 100 128 163 205 246 290
#     4   9  16  26  43  67  95 129 164 199 244 295
#     4  10  21  35  52  75 102 130 161 197 238 286
#     4  10  18  29  47  69  95 128 166 207 247 290
#     4  10  20  34  51  69  92 125 168 209 245 289
#
# _framework density 16.873718
#
# number of rings (size 3 to 8) (size 9 to 14) (size 15 to 20)
#    0.000    2.692    0.769    2.308    0.000    5.231 
#    0.000    3.077    0.000    2.769    0.000    6.462 
#    0.000    0.000    0.000    0.000    0.000    0.000 
#
# Total GULP energy -644743.250870 kJ/mol
# GULP energy per Si atom -12398.908671 kJ/mol
# Density = 1.683531 g / cm^3
# Si number density = 16.873718 Si / 1000 Ang^3
#
#
#
# Elastic Constant Matrix: (Units=GPa)
#
#
# Indices 1 2 3 4 5 6 
#
# 1 85.1144 56.0249 42.9446 0.0000 0.0000 0.0000
# 2 56.0249 104.8066 45.8791 0.0000 0.0000 0.0000
# 3 42.9446 45.8791 59.8894 0.0000 0.0000 0.0000
# 4 0.0000 0.0000 0.0000 29.5008 0.0000 0.0000
# 5 0.0000 0.0000 0.0000 0.0000 25.9424 0.0000
# 6 0.0000 0.0000 0.0000 0.0000 0.0000 12.2468
#
#
#
# Elastic Compliance Matrix: (Units=1/GPa)
#
#
# Indices 1 2 3 4 5 6 
#
# 1 0.021440 -0.007118 -0.009921 0.000000 0.000000 0.000000
# 2 -0.007118 0.016718 -0.007703 0.000000 0.000000 0.000000
# 3 -0.009921 -0.007703 0.029713 0.000000 0.000000 0.000000
# 4 0.000000 0.000000 0.000000 0.033897 0.000000 0.000000
# 5 0.000000 0.000000 0.000000 0.000000 0.038547 0.000000
# 6 0.000000 0.000000 0.000000 0.000000 0.000000 0.081654
#
#
# Mechanical properties :
#
#
# Convention : Reuss Voigt Hill
#
# Bulk Modulus (GPa) = 54.38793 59.94529 57.16661
# Shear Modulus (GPa) = 18.01267 20.53546 19.27407
#
# Velocity S-wave (km/s) = 3.27080 3.49235 3.38339
# Velocity P-wave (km/s) = 6.82397 7.20173 7.01539
#
# Compressibility (1/GPa) = 0.01838643
#
# Stress axis : x y z
#
# Youngs Moduli (GPa) = 46.64251 59.81424 33.65554
#
# Poissons Ratio (x) = 0.42574 0.33390
# Poissons Ratio (y) = 0.33199 0.25926
# Poissons Ratio (z) = 0.46274 0.46078
#
# Static dielectric constant tensor:
#      x y z
#    x 3.008280 0.000000 0.000000 
#    y 0.000000 3.269560 0.000000 
#    z 0.000000 0.000000 3.087110 
# 
# 
# High freq. dielectric constant tensor:
#      x y z
#    x 1.631230 0.000000 0.000000 
#    y 0.000000 1.648450 0.000000 
#    z 0.000000 0.000000 1.643270 
# 
# From -- ./inp_files/14750.got.cif
#   From: 2010.03.12/outbox.cif.g09.slc.cpg/sg65_8_cif.got.tgz:14750.got - 2010.04.10 20:52:16.
