data_PCOD8266203
_publ_section_title
;
Structure prediction by ZEFSAII (Michael W. Deem and Ramdas Pophale) SiO2 
 PCOD8266203
Probable space group: C M M M
;
_chemical_formula_sum "Si O2"
_cell_formula_units_Z 88
_cell_length_a 27.417641
_cell_length_b 8.710037
_cell_length_c 21.363394
_cell_angle_alpha 90.000000
_cell_angle_beta 90.000000
_cell_angle_gamma 90.000000
_cell_volume 5101.763656
_symmetry_space_group_name_H-M "C M M M"
_symmetry_group_IT_number 65
_symmetry_cell_setting 'orthorhombic'
loop_
_space_group_symop_operation_xyz
x,y,z
-x,-y,z
x,-y,-z
-x,y,-z
-x,-y,-z
x,y,-z
-x,y,z
x,-y,z
1/2+x,1/2+y,z
1/2-x,1/2-y,z
1/2+x,1/2-y,-z
1/2-x,1/2+y,-z
1/2-x,1/2-y,-z
1/2+x,1/2+y,-z
1/2-x,1/2+y,z
1/2+x,1/2-y,z
loop_
_atom_site_type_symbol
_atom_site_label
_atom_site_fract_x
_atom_site_fract_y
_atom_site_fract_z
Si Si1 0.198084 0.820624 0.133164
Si Si2 0.555549 0.180135 0.192084
Si Si3 0.696078 0.317072 0.500000
Si Si4 0.856259 0.819428 0.257782
Si Si5 0.389501 0.177690 0.069515
Si Si6 0.196457 0.318392 0.626614
O O1 0.250000 0.750000 0.118464
O O2 0.178636 0.767063 0.200985
O O3 0.160315 0.770006 0.079995
O O4 0.203821 0.000000 0.131201
O O5 0.500000 0.230649 0.202824
O O6 0.588298 0.274291 0.241125
O O7 0.569908 0.224123 0.120688
O O8 0.562938 0.000000 0.204076
O O9 0.695467 0.500000 0.500000
O O10 0.750000 0.250000 0.500000
O O11 0.671839 0.252162 0.436462
O O12 0.839828 0.724551 0.317882
O O13 0.852855 0.000000 0.271283
O O14 0.376171 0.000000 0.076070
O O15 0.409729 0.215895 0.000000
O O16 0.201338 0.500000 0.619998
O O17 0.250000 0.250000 0.639808
#
# Coordination Sequence:
#
# PCOD8266203 Si02
#       6
#    16  16   8  16  16  16
#     4  10  20  32  47  66  91 123 158 196 236 281
#     4   9  18  33  52  73  96 121 152 195 246 295
#     4  10  18  30  46  68 101 138 173 204 234 272
#     4  10  20  33  49  71  96 125 162 201 242 287
#     4   9  18  32  49  69  93 121 154 192 235 287
#     4  11  20  31  48  72 103 137 170 202 238 279
#
# _framework density 17.248937999999999
#
# number of rings (size 3 to 8) (size 9 to 14) (size 15 to 20)
#    0.000    2.182    0.000    5.182    0.000    5.091 
#    0.000    1.818    0.000    0.000    0.000    5.727 
#    0.000    5.091    0.000    0.000    0.000    0.000 
#
# Total GULP energy -545602.867312 kJ/mol
# GULP energy per Si atom -12400.065166 kJ/mol
# Density = 1.720968 g / cm^3
# Si number density = 17.248938 Si / 1000 Ang^3
#
#
#
# Elastic Constant Matrix: (Units=GPa)
#
#
# Indices 1 2 3 4 5 6 
#
# 1 83.1982 25.5156 32.4418 0.0000 0.0000 0.0000
# 2 25.5156 83.3699 40.3880 0.0000 0.0000 0.0000
# 3 32.4418 40.3880 112.7361 0.0000 0.0000 0.0000
# 4 0.0000 0.0000 0.0000 26.3623 0.0000 0.0000
# 5 0.0000 0.0000 0.0000 0.0000 21.7397 0.0000
# 6 0.0000 0.0000 0.0000 0.0000 0.0000 24.8385
#
#
#
# Elastic Compliance Matrix: (Units=1/GPa)
#
#
# Indices 1 2 3 4 5 6 
#
# 1 0.014072 -0.002838 -0.003033 0.000000 0.000000 0.000000
# 2 -0.002838 0.015086 -0.004588 0.000000 0.000000 0.000000
# 3 -0.003033 -0.004588 0.011387 0.000000 0.000000 0.000000
# 4 0.000000 0.000000 0.000000 0.037933 0.000000 0.000000
# 5 0.000000 0.000000 0.000000 0.000000 0.045999 0.000000
# 6 0.000000 0.000000 0.000000 0.000000 0.000000 0.040260
#
#
# Mechanical properties :
#
#
# Convention : Reuss Voigt Hill
#
# Bulk Modulus (GPa) = 50.94811 52.88835 51.91823
# Shear Modulus (GPa) = 26.01505 26.65203 26.33354
#
# Velocity S-wave (km/s) = 3.88778 3.93509 3.91151
# Velocity P-wave (km/s) = 7.05367 7.16763 7.11088
#
# Compressibility (1/GPa) = 0.01962781
#
# Stress axis : x y z
#
# Youngs Moduli (GPa) = 71.06107 66.28754 87.82161
#
# Poissons Ratio (x) = 0.18810 0.26636
# Poissons Ratio (y) = 0.20164 0.40292
# Poissons Ratio (z) = 0.21553 0.30412
#
# Static dielectric constant tensor:
#      x y z
#    x 3.031670 0.000000 0.000000 
#    y 0.000000 3.274280 0.000000 
#    z 0.000000 0.000000 3.568340 
# 
# 
# High freq. dielectric constant tensor:
#      x y z
#    x 1.636300 0.000000 0.000000 
#    y 0.000000 1.675890 0.000000 
#    z 0.000000 0.000000 1.666890 
# 
# From -- ./inp_files/65768.got.cif
#   From: 2010.03.12/outbox.cif.g09.slc.cpg/sg65_33_cif.got.tgz:65768.got - 2010.04.10 20:52:16.
