data_PCOD8266779
_publ_section_title
;
Structure prediction by ZEFSAII (Michael W. Deem and Ramdas Pophale) SiO2 
 PCOD8266779
Probable space group: C M M M
;
_chemical_formula_sum "Si O2"
_cell_formula_units_Z 104
_cell_length_a 9.341111
_cell_length_b 26.527727
_cell_length_c 23.952102
_cell_angle_alpha 90.000000
_cell_angle_beta 90.000000
_cell_angle_gamma 90.000000
_cell_volume 5935.293570
_symmetry_space_group_name_H-M "C M M M"
_symmetry_group_IT_number 65
_symmetry_cell_setting 'orthorhombic'
loop_
_space_group_symop_operation_xyz
x,y,z
-x,-y,z
x,-y,-z
-x,y,-z
-x,-y,-z
x,y,-z
-x,y,z
x,-y,z
1/2+x,1/2+y,z
1/2-x,1/2-y,z
1/2+x,1/2-y,-z
1/2-x,1/2+y,-z
1/2-x,1/2-y,-z
1/2+x,1/2+y,-z
1/2-x,1/2+y,z
1/2+x,1/2-y,z
loop_
_atom_site_type_symbol
_atom_site_label
_atom_site_fract_x
_atom_site_fract_y
_atom_site_fract_z
Si Si1 0.336220 0.297243 0.850178
Si Si2 0.832905 0.907460 0.862405
Si Si3 0.165302 0.797452 0.278245
Si Si4 0.835915 0.558479 0.435904
Si Si5 0.330254 0.500000 0.937738
Si Si6 0.338165 0.942697 0.759580
Si Si7 0.831292 0.099275 0.337438
O O1 0.500000 0.281219 0.854474
O O2 0.250000 0.250000 0.876223
O O3 0.309079 0.349807 0.884073
O O4 0.290762 0.307239 0.786041
O O5 0.744573 0.910976 0.805800
O O6 0.000000 0.916327 0.848069
O O7 0.777925 0.948895 0.906938
O O8 0.250000 0.750000 0.302976
O O9 0.206058 0.845140 0.315698
O O10 0.000000 0.784520 0.283039
O O11 0.811782 0.573725 0.500000
O O12 0.798359 0.500000 0.426705
O O13 0.728565 0.592765 0.399849
O O14 0.000000 0.568752 0.418306
O O15 0.500000 0.500000 0.940882
O O16 0.264320 0.500000 0.000000
O O17 0.500000 0.921922 0.752526
O O18 0.252986 0.940008 0.701520
O O19 0.341155 0.000000 0.779790
O O20 0.000000 0.088001 0.335562
#
# Coordination Sequence:
#
# PCOD8266779 Si02
#       7
#    16  16  16  16   8  16  16
#     4   9  17  30  47  71 100 135 171 207 255 308
#     4  10  18  32  53  74 103 136 169 213 259 303
#     4   9  18  31  46  68  99 129 163 201 248 304
#     4   9  19  36  54  72  98 132 169 208 249 297
#     4   9  18  32  55  83 105 135 178 219 260 305
#     4  11  22  32  45  71 105 136 168 202 248 309
#     4  11  21  33  50  74 102 131 166 208 254 304
#
# _framework density 17.522300999999999
#
# number of rings (size 3 to 8) (size 9 to 14) (size 15 to 20)
#    0.000    2.231    2.308    1.846    0.000    5.231 
#    0.000    0.769    0.000    1.846    0.000    0.000 
#    0.000    0.000    0.000    0.000    0.000    0.000 
#
# Total GULP energy -644690.367454 kJ/mol
# GULP energy per Si atom -12397.891682 kJ/mol
# Density = 1.748242 g / cm^3
# Si number density = 17.522301 Si / 1000 Ang^3
#
#
#
# Elastic Constant Matrix: (Units=GPa)
#
#
# Indices 1 2 3 4 5 6 
#
# 1 72.0924 46.2860 31.9788 0.0000 0.0000 0.0000
# 2 46.2860 120.2249 37.4351 0.0000 0.0000 0.0000
# 3 31.9788 37.4351 68.5365 0.0000 0.0000 0.0000
# 4 0.0000 0.0000 0.0000 15.5639 0.0000 0.0000
# 5 0.0000 0.0000 0.0000 0.0000 12.5453 0.0000
# 6 0.0000 0.0000 0.0000 0.0000 0.0000 30.3341
#
#
#
# Elastic Compliance Matrix: (Units=1/GPa)
#
#
# Indices 1 2 3 4 5 6 
#
# 1 0.020472 -0.005913 -0.006322 0.000000 0.000000 0.000000
# 2 -0.005913 0.011730 -0.003648 0.000000 0.000000 0.000000
# 3 -0.006322 -0.003648 0.019533 0.000000 0.000000 0.000000
# 4 0.000000 0.000000 0.000000 0.064251 0.000000 0.000000
# 5 0.000000 0.000000 0.000000 0.000000 0.079711 0.000000
# 6 0.000000 0.000000 0.000000 0.000000 0.000000 0.032966
#
#
# Mechanical properties :
#
#
# Convention : Reuss Voigt Hill
#
# Bulk Modulus (GPa) = 50.07891 54.69485 52.38688
# Shear Modulus (GPa) = 18.72048 21.36559 20.04303
#
# Velocity S-wave (km/s) = 3.27215 3.49569 3.38577
# Velocity P-wave (km/s) = 6.55119 6.89749 6.72657
#
# Compressibility (1/GPa) = 0.01996849
#
# Stress axis : x y z
#
# Youngs Moduli (GPa) = 48.84744 85.25061 51.19437
#
# Poissons Ratio (x) = 0.50408 0.32367
# Poissons Ratio (y) = 0.28883 0.18676
# Poissons Ratio (z) = 0.30883 0.31100
#
# Static dielectric constant tensor:
#      x y z
#    x 3.214020 0.000000 0.000000 
#    y 0.000000 3.352220 0.000000 
#    z 0.000000 0.000000 3.055310 
# 
# 
# High freq. dielectric constant tensor:
#      x y z
#    x 1.672750 0.000000 0.000000 
#    y 0.000000 1.679600 0.000000 
#    z 0.000000 0.000000 1.642710 
# 
# From -- ./inp_files/68178.got.cif
#   From: 2010.03.12/outbox.cif.g09.slc.cpg/sg65_35_cif.got.tgz:68178.got - 2010.04.10 20:52:16.
