data_PCOD8266386
_publ_section_title
;
Structure prediction by ZEFSAII (Michael W. Deem and Ramdas Pophale) SiO2 
 PCOD8266386
Probable space group: C M M M
;
_chemical_formula_sum "Si O2"
_cell_formula_units_Z 80
_cell_length_a 9.285159
_cell_length_b 23.869152
_cell_length_c 20.452786
_cell_angle_alpha 90.000000
_cell_angle_beta 90.000000
_cell_angle_gamma 90.000000
_cell_volume 4532.927881
_symmetry_space_group_name_H-M "C M M M"
_symmetry_group_IT_number 65
_symmetry_cell_setting 'orthorhombic'
loop_
_space_group_symop_operation_xyz
x,y,z
-x,-y,z
x,-y,-z
-x,y,-z
-x,-y,-z
x,y,-z
-x,y,z
x,-y,z
1/2+x,1/2+y,z
1/2-x,1/2-y,z
1/2+x,1/2-y,-z
1/2-x,1/2+y,-z
1/2-x,1/2-y,-z
1/2+x,1/2+y,-z
1/2-x,1/2+y,z
1/2+x,1/2-y,z
loop_
_atom_site_type_symbol
_atom_site_label
_atom_site_fract_x
_atom_site_fract_y
_atom_site_fract_z
Si Si1 0.330575 0.387916 0.313147
Si Si2 0.171653 0.000000 0.898156
Si Si3 0.832242 0.563855 0.424876
Si Si4 0.670111 0.378881 0.071024
Si Si5 0.329230 0.500000 0.753411
Si Si6 0.671019 0.691452 0.195074
O O1 0.500000 0.387713 0.325919
O O2 0.250141 0.387991 0.382991
O O3 0.272436 0.444961 0.281620
O O4 0.287484 0.338177 0.263668
O O5 0.229996 0.057222 0.930804
O O6 0.234017 0.000000 0.825517
O O7 0.000000 0.000000 0.900662
O O8 0.800805 0.578461 0.500000
O O9 0.778462 0.500000 0.410178
O O10 0.000000 0.568320 0.409130
O O11 0.500000 0.381174 0.080521
O O12 0.731019 0.343653 0.132479
O O13 0.710717 0.351741 0.000000
O O14 0.500000 0.500000 0.756404
O O15 0.500000 0.699790 0.190083
O O16 0.750000 0.750000 0.193972
#
# Coordination Sequence:
#
# PCOD8266386 Si02
#       6
#    16   8  16  16   8  16
#     4  10  18  30  50  73  98 128 164 205 245 286
#     4   9  13  22  41  68 100 126 152 195 250 299
#     4   9  18  31  47  73 109 139 158 183 229 291
#     4   9  16  26  43  69  99 128 159 199 248 298
#     4   9  14  23  42  69  97 122 151 196 250 290
#     4  10  21  35  50  70  96 128 169 213 250 287
#
# _framework density 17.648637000000001
#
# number of rings (size 3 to 8) (size 9 to 14) (size 15 to 20)
#    0.000    2.600    3.000    0.900    0.000    2.800 
#    0.000    1.000    0.000    0.600    0.000    0.000 
#    0.000    1.600    0.000    0.000    0.000    0.000 
#
# Total GULP energy -495569.761888 kJ/mol
# GULP energy per Si atom -12389.244047 kJ/mol
# Density = 1.760847 g / cm^3
# Si number density = 17.648637 Si / 1000 Ang^3
#
#
#
# Elastic Constant Matrix: (Units=GPa)
#
#
# Indices 1 2 3 4 5 6 
#
# 1 26.7462 31.5139 40.4016 0.0000 0.0000 0.0000
# 2 31.5139 116.6086 62.9791 0.0000 0.0000 0.0000
# 3 40.4016 62.9791 142.8628 0.0000 0.0000 0.0000
# 4 0.0000 0.0000 0.0000 5.0192 0.0000 0.0000
# 5 0.0000 0.0000 0.0000 0.0000 13.8257 0.0000
# 6 0.0000 0.0000 0.0000 0.0000 0.0000 24.3000
#
#
#
# Elastic Compliance Matrix: (Units=1/GPa)
#
#
# Indices 1 2 3 4 5 6 
#
# 1 0.075717 -0.011679 -0.016264 0.000000 0.000000 0.000000
# 2 -0.011679 0.013057 -0.002453 0.000000 0.000000 0.000000
# 3 -0.016264 -0.002453 0.012681 0.000000 0.000000 0.000000
# 4 0.000000 0.000000 0.000000 0.199236 0.000000 0.000000
# 5 0.000000 0.000000 0.000000 0.000000 0.072329 0.000000
# 6 0.000000 0.000000 0.000000 0.000000 0.000000 0.041152
#
#
# Mechanical properties :
#
#
# Convention : Reuss Voigt Hill
#
# Bulk Modulus (GPa) = 24.59284 61.77853 43.18569
# Shear Modulus (GPa) = 10.23503 18.71719 14.47611
#
# Velocity S-wave (km/s) = 2.41079 3.26014 2.86709
# Velocity P-wave (km/s) = 4.65985 7.01798 5.95677
#
# Compressibility (1/GPa) = 0.04066224
#
# Stress axis : x y z
#
# Youngs Moduli (GPa) = 13.20704 76.58824 78.85954
#
# Poissons Ratio (x) = 0.89444 1.28261
# Poissons Ratio (y) = 0.15424 0.19346
# Poissons Ratio (z) = 0.21481 0.18789
#
# Static dielectric constant tensor:
#      x y z
#    x 2.762020 0.000000 0.000000 
#    y 0.000000 3.170670 0.000000 
#    z 0.000000 0.000000 3.532940 
# 
# 
# High freq. dielectric constant tensor:
#      x y z
#    x 1.629280 0.000000 0.000000 
#    y 0.000000 1.660730 0.000000 
#    z 0.000000 0.000000 1.700670 
# 
# From -- ./inp_files/59688.got.cif
#   From: 2010.03.12/outbox.cif.g09.slc.cpg/sg65_30_cif.got.tgz:59688.got - 2010.04.10 20:52:16.
