data_PCOD8266965
_publ_section_title
;
Structure prediction by ZEFSAII (Michael W. Deem and Ramdas Pophale) SiO2 
 PCOD8266965
Probable space group: C M M M
;
_chemical_formula_sum "Si O2"
_cell_formula_units_Z 64
_cell_length_a 8.551873
_cell_length_b 15.257567
_cell_length_c 23.949820
_cell_angle_alpha 90.000000
_cell_angle_beta 90.000000
_cell_angle_gamma 90.000000
_cell_volume 3124.991081
_symmetry_space_group_name_H-M "C M M M"
_symmetry_group_IT_number 65
_symmetry_cell_setting 'orthorhombic'
loop_
_space_group_symop_operation_xyz
x,y,z
-x,-y,z
x,-y,-z
-x,y,-z
-x,-y,-z
x,y,-z
-x,y,z
x,-y,z
1/2+x,1/2+y,z
1/2-x,1/2-y,z
1/2+x,1/2-y,-z
1/2-x,1/2+y,-z
1/2-x,1/2-y,-z
1/2+x,1/2+y,-z
1/2-x,1/2+y,z
1/2+x,1/2-y,z
loop_
_atom_site_type_symbol
_atom_site_label
_atom_site_fract_x
_atom_site_fract_y
_atom_site_fract_z
Si Si1 0.815450 0.901759 0.000000
Si Si2 0.683386 0.000000 0.192383
Si Si3 0.814796 0.347703 0.614658
Si Si4 0.185673 0.847354 0.500000
Si Si5 0.316473 0.839487 0.885359
Si Si6 0.182972 0.000000 0.687282
O O1 0.758170 0.851438 0.054230
O O2 0.000000 0.903775 0.000000
O O3 0.745350 0.000000 0.000000
O O4 0.732243 0.916071 0.156490
O O5 0.788676 0.000000 0.247045
O O6 0.500000 0.000000 0.207900
O O7 0.750000 0.250000 0.625420
O O8 0.750800 0.390682 0.556737
O O9 0.761275 0.411899 0.663593
O O10 0.000000 0.342150 0.612292
O O11 0.250000 0.750000 0.500000
O O12 0.000000 0.850988 0.500000
O O13 0.500000 0.834800 0.892891
O O14 0.250000 0.750000 0.859046
O O15 0.000000 0.000000 0.673615
#
# Coordination Sequence:
#
# PCOD8266965 Si02
#       6
#     8   8  16   8  16   8
#     4  11  22  37  62  94 128 162 200 247 301 361
#     4  10  24  45  64  85 119 162 205 256 308 362
#     4  11  22  40  64  92 126 164 206 254 309 370
#     4  10  18  33  58  91 127 162 202 249 307 371
#     4  11  23  41  65  92 124 161 203 248 302 362
#     4  12  26  43  64  91 122 162 209 260 311 368
#
# _framework density 20.480059000000001
#
# number of rings (size 3 to 8) (size 9 to 14) (size 15 to 20)
#    0.000    1.125    1.250    7.500    0.000    4.000 
#    0.000    5.000    0.000    0.000    0.000    0.000 
#    0.000    0.000    0.000    0.000    0.000    0.000 
#
# Total GULP energy -396912.474371 kJ/mol
# GULP energy per Si atom -12403.514824 kJ/mol
# Density = 2.043345 g / cm^3
# Si number density = 20.480059 Si / 1000 Ang^3
#
#
#
# Elastic Constant Matrix: (Units=GPa)
#
#
# Indices 1 2 3 4 5 6 
#
# 1 151.8270 50.8791 52.7299 0.0000 0.0000 0.0000
# 2 50.8791 146.7766 61.1366 0.0000 0.0000 0.0000
# 3 52.7299 61.1366 133.7157 0.0000 0.0000 0.0000
# 4 0.0000 0.0000 0.0000 54.1684 0.0000 0.0000
# 5 0.0000 0.0000 0.0000 0.0000 35.2908 0.0000
# 6 0.0000 0.0000 0.0000 0.0000 0.0000 33.3368
#
#
#
# Elastic Compliance Matrix: (Units=1/GPa)
#
#
# Indices 1 2 3 4 5 6 
#
# 1 0.008000 -0.001802 -0.002331 0.000000 0.000000 0.000000
# 2 -0.001802 0.008822 -0.003323 0.000000 0.000000 0.000000
# 3 -0.002331 -0.003323 0.009917 0.000000 0.000000 0.000000
# 4 0.000000 0.000000 0.000000 0.018461 0.000000 0.000000
# 5 0.000000 0.000000 0.000000 0.000000 0.028336 0.000000
# 6 0.000000 0.000000 0.000000 0.000000 0.000000 0.029997
#
#
# Mechanical properties :
#
#
# Convention : Reuss Voigt Hill
#
# Bulk Modulus (GPa) = 84.55130 84.64560 84.59845
# Shear Modulus (GPa) = 40.85430 42.39744 41.62587
#
# Velocity S-wave (km/s) = 4.47120 4.55486 4.51322
# Velocity P-wave (km/s) = 8.24802 8.31161 8.27987
#
# Compressibility (1/GPa) = 0.01182714
#
# Stress axis : x y z
#
# Youngs Moduli (GPa) = 125.00215 113.35494 100.83868
#
# Poissons Ratio (x) = 0.20430 0.23502
# Poissons Ratio (y) = 0.22529 0.33506
# Poissons Ratio (z) = 0.29134 0.37665
#
# Static dielectric constant tensor:
#      x y z
#    x 3.767110 0.000000 0.000000 
#    y 0.000000 2.919070 0.000000 
#    z 0.000000 0.000000 3.917820 
# 
# 
# High freq. dielectric constant tensor:
#      x y z
#    x 1.815030 0.000000 0.000000 
#    y 0.000000 1.808000 0.000000 
#    z 0.000000 0.000000 1.801600 
# 
# From -- ./inp_files/66909.got.cif
#   From: 2010.03.12/outbox.cif.g09.slc.cpg/sg65_34_cif.got.tgz:66909.got - 2010.04.10 20:52:16.
