data_PCOD8266459
_publ_section_title
;
Structure prediction by ZEFSAII (Michael W. Deem and Ramdas Pophale) SiO2 
 PCOD8266459
Probable space group: C M M M
;
_chemical_formula_sum "Si O2"
_cell_formula_units_Z 96
_cell_length_a 27.634065
_cell_length_b 14.173592
_cell_length_c 14.363840
_cell_angle_alpha 90.000000
_cell_angle_beta 90.000000
_cell_angle_gamma 90.000000
_cell_volume 5625.942131
_symmetry_space_group_name_H-M "C M M M"
_symmetry_group_IT_number 65
_symmetry_cell_setting 'orthorhombic'
loop_
_space_group_symop_operation_xyz
x,y,z
-x,-y,z
x,-y,-z
-x,y,-z
-x,-y,-z
x,y,-z
-x,y,z
x,-y,z
1/2+x,1/2+y,z
1/2-x,1/2-y,z
1/2+x,1/2-y,-z
1/2-x,1/2+y,-z
1/2-x,1/2-y,-z
1/2+x,1/2+y,-z
1/2-x,1/2+y,z
1/2+x,1/2-y,z
loop_
_atom_site_type_symbol
_atom_site_label
_atom_site_fract_x
_atom_site_fract_y
_atom_site_fract_z
Si Si1 0.365978 0.284829 0.890053
Si Si2 0.944788 0.765686 0.395324
Si Si3 0.556435 0.391261 0.224266
Si Si4 0.825987 0.396191 0.206994
Si Si5 0.734361 0.355918 0.101243
Si Si6 0.131675 0.392528 0.396714
O O1 0.414764 0.331014 0.852044
O O2 0.357260 0.180652 0.848325
O O3 0.321323 0.354928 0.863658
O O4 0.370389 0.272785 0.000000
O O5 0.935397 0.802817 0.500000
O O6 0.931249 0.851194 0.326585
O O7 0.913665 0.673399 0.372907
O O8 0.000000 0.734270 0.381145
O O9 0.500000 0.380506 0.200254
O O10 0.572562 0.500000 0.221384
O O11 0.848726 0.500000 0.187597
O O12 0.769590 0.402002 0.177126
O O13 0.827452 0.374461 0.318054
O O14 0.750000 0.250000 0.085638
O O15 0.738483 0.407347 0.000000
O O16 0.152961 0.369644 0.500000
O O17 0.112929 0.500000 0.393264
#
# Coordination Sequence:
#
# PCOD8266459 Si02
#       6
#    16  16  16  16  16  16
#     4  10  20  35  53  74 102 133 169 214 257 296
#     4   9  17  31  52  75  99 128 164 209 256 298
#     4  10  21  36  53  74  99 129 169 212 256 308
#     4  10  18  30  51  77 104 136 167 201 248 300
#     4   8  16  30  48  71  98 127 163 207 246 283
#     4   9  17  29  48  76 106 135 166 198 240 299
#
# _framework density 17.063808999999999
#
# number of rings (size 3 to 8) (size 9 to 14) (size 15 to 20)
#    0.000    2.667    1.667    1.500    0.000    3.333 
#    0.000    5.833    0.000    6.000    0.000    3.500 
#    0.000    0.000    0.000    0.000    0.000    0.000 
#
# Total GULP energy -594814.683305 kJ/mol
# GULP energy per Si atom -12391.972569 kJ/mol
# Density = 1.702497 g / cm^3
# Si number density = 17.063809 Si / 1000 Ang^3
#
#
#
# Elastic Constant Matrix: (Units=GPa)
#
#
# Indices 1 2 3 4 5 6 
#
# 1 74.6330 42.1003 60.1531 0.0000 0.0000 0.0000
# 2 42.1003 96.9377 59.1661 0.0000 0.0000 0.0000
# 3 60.1531 59.1661 129.0477 0.0000 0.0000 0.0000
# 4 0.0000 0.0000 0.0000 5.7576 0.0000 0.0000
# 5 0.0000 0.0000 0.0000 0.0000 1.7603 0.0000
# 6 0.0000 0.0000 0.0000 0.0000 0.0000 18.8087
#
#
#
# Elastic Compliance Matrix: (Units=1/GPa)
#
#
# Indices 1 2 3 4 5 6 
#
# 1 0.022950 -0.004774 -0.008509 0.000000 0.000000 0.000000
# 2 -0.004774 0.015317 -0.004798 0.000000 0.000000 0.000000
# 3 -0.008509 -0.004798 0.013915 0.000000 0.000000 0.000000
# 4 0.000000 0.000000 0.000000 0.173683 0.000000 0.000000
# 5 0.000000 0.000000 0.000000 0.000000 0.568095 0.000000
# 6 0.000000 0.000000 0.000000 0.000000 0.000000 0.053167
#
#
# Mechanical properties :
#
#
# Convention : Reuss Voigt Hill
#
# Bulk Modulus (GPa) = 62.41545 69.27302 65.84423
# Shear Modulus (GPa) = 5.62665 14.54525 10.08595
#
# Velocity S-wave (km/s) = 1.81785 2.92276 2.43384
# Velocity P-wave (km/s) = 6.40806 7.21628 6.82414
#
# Compressibility (1/GPa) = 0.01602167
#
# Stress axis : x y z
#
# Youngs Moduli (GPa) = 43.57333 65.28555 71.86521
#
# Poissons Ratio (x) = 0.31165 0.61150
# Poissons Ratio (y) = 0.20801 0.34478
# Poissons Ratio (z) = 0.37076 0.31321
#
# Static dielectric constant tensor:
#      x y z
#    x 3.292480 0.000000 0.000000 
#    y 0.000000 3.195490 0.000000 
#    z 0.000000 0.000000 3.386760 
# 
# 
# High freq. dielectric constant tensor:
#      x y z
#    x 1.637490 0.000000 0.000000 
#    y 0.000000 1.658850 0.000000 
#    z 0.000000 0.000000 1.664120 
# 
# From -- ./inp_files/44115.got.cif
#   From: 2010.03.12/outbox.cif.g09.slc.cpg/sg65_23_cif.got.tgz:44115.got - 2010.04.10 20:52:16.
