data_PCOD8266465
_publ_section_title
;
Structure prediction by ZEFSAII (Michael W. Deem and Ramdas Pophale) SiO2 
 PCOD8266465
Probable space group: C M M M
;
_chemical_formula_sum "Si O2"
_cell_formula_units_Z 96
_cell_length_a 23.691195
_cell_length_b 8.701203
_cell_length_c 25.455793
_cell_angle_alpha 90.000000
_cell_angle_beta 90.000000
_cell_angle_gamma 90.000000
_cell_volume 5247.505459
_symmetry_space_group_name_H-M "C M M M"
_symmetry_group_IT_number 65
_symmetry_cell_setting 'orthorhombic'
loop_
_space_group_symop_operation_xyz
x,y,z
-x,-y,z
x,-y,-z
-x,y,-z
-x,-y,-z
x,y,-z
-x,y,z
x,-y,z
1/2+x,1/2+y,z
1/2-x,1/2-y,z
1/2+x,1/2-y,-z
1/2-x,1/2+y,-z
1/2-x,1/2-y,-z
1/2+x,1/2+y,-z
1/2-x,1/2+y,z
1/2+x,1/2-y,z
loop_
_atom_site_type_symbol
_atom_site_label
_atom_site_fract_x
_atom_site_fract_y
_atom_site_fract_z
Si Si1 0.000000 0.178466 0.172818
Si Si2 0.382605 0.818128 0.844695
Si Si3 0.500000 0.828519 0.279475
Si Si4 0.436696 0.182587 0.558072
Si Si5 0.190585 0.681079 0.058369
Si Si6 0.616546 0.176333 0.338271
Si Si7 0.188111 0.818898 0.250537
O O1 0.054118 0.260502 0.148420
O O2 0.000000 0.198771 0.235332
O O3 0.000000 0.000000 0.158449
O O4 0.353604 0.762264 0.898429
O O5 0.353256 0.744636 0.794096
O O6 0.380605 0.000000 0.837107
O O7 0.445102 0.805758 0.314024
O O8 0.500000 0.000000 0.253958
O O9 0.415451 0.233019 0.500000
O O10 0.500000 0.248828 0.567783
O O11 0.391464 0.239346 0.601908
O O12 0.440443 0.000000 0.562401
O O13 0.196517 0.500000 0.059168
O O14 0.250000 0.750000 0.075091
O O15 0.172324 0.738111 0.000000
O O16 0.662909 0.276261 0.307604
O O17 0.637234 0.000000 0.336677
O O18 0.250000 0.750000 0.243170
O O19 0.192281 0.000000 0.244972
#
# Coordination Sequence:
#
# PCOD8266465 Si02
#       7
#     8  16   8  16  16  16  16
#     4  12  24  36  53  80 113 148 185 222 264 321
#     4  11  22  38  59  82 112 146 179 220 269 323
#     4  10  18  30  51  77 109 146 181 213 262 321
#     4   8  13  23  44  77 111 140 173 213 258 313
#     4   9  19  36  59  85 110 140 180 224 270 318
#     4  10  18  31  53  80 110 144 178 218 266 321
#     4  12  25  39  55  78 107 140 180 226 272 323
#
# _framework density 18.294407
#
# number of rings (size 3 to 8) (size 9 to 14) (size 15 to 20)
#    0.000    1.833    2.500    3.750    0.000    2.667 
#    0.000    0.417    0.000    3.500    0.000    1.167 
#    0.000    0.000    0.000    0.000    0.000    0.000 
#
# Total GULP energy -595070.587034 kJ/mol
# GULP energy per Si atom -12397.303897 kJ/mol
# Density = 1.825277 g / cm^3
# Si number density = 18.294407 Si / 1000 Ang^3
#
#
#
# Elastic Constant Matrix: (Units=GPa)
#
#
# Indices 1 2 3 4 5 6 
#
# 1 115.6859 35.0857 64.4339 0.0000 0.0000 0.0000
# 2 35.0857 71.2997 36.9099 0.0000 0.0000 0.0000
# 3 64.4339 36.9099 135.8497 0.0000 0.0000 0.0000
# 4 0.0000 0.0000 0.0000 12.0413 0.0000 0.0000
# 5 0.0000 0.0000 0.0000 0.0000 13.4154 0.0000
# 6 0.0000 0.0000 0.0000 0.0000 0.0000 23.6580
#
#
#
# Elastic Compliance Matrix: (Units=1/GPa)
#
#
# Indices 1 2 3 4 5 6 
#
# 1 0.012487 -0.003583 -0.004949 0.000000 0.000000 0.000000
# 2 -0.003583 0.017349 -0.003014 0.000000 0.000000 0.000000
# 3 -0.004949 -0.003014 0.010528 0.000000 0.000000 0.000000
# 4 0.000000 0.000000 0.000000 0.083048 0.000000 0.000000
# 5 0.000000 0.000000 0.000000 0.000000 0.074541 0.000000
# 6 0.000000 0.000000 0.000000 0.000000 0.000000 0.042269
#
#
# Mechanical properties :
#
#
# Convention : Reuss Voigt Hill
#
# Bulk Modulus (GPa) = 57.90100 66.18824 62.04462
# Shear Modulus (GPa) = 18.58245 22.25000 20.41622
#
# Velocity S-wave (km/s) = 3.19053 3.49122 3.34426
# Velocity P-wave (km/s) = 6.72985 7.24634 6.99287
#
# Compressibility (1/GPa) = 0.01727086
#
# Stress axis : x y z
#
# Youngs Moduli (GPa) = 80.08109 57.64115 94.98879
#
# Poissons Ratio (x) = 0.20651 0.47014
# Poissons Ratio (y) = 0.28691 0.28632
# Poissons Ratio (z) = 0.39635 0.17375
#
# Static dielectric constant tensor:
#      x y z
#    x 3.371600 0.000000 0.000000 
#    y 0.000000 3.228620 0.000000 
#    z 0.000000 0.000000 3.803190 
# 
# 
# High freq. dielectric constant tensor:
#      x y z
#    x 1.696800 0.000000 0.000000 
#    y 0.000000 1.690980 0.000000 
#    z 0.000000 0.000000 1.716700 
# 
# From -- ./inp_files/75732.got.cif
#   From: 2010.03.12/outbox.cif.g09.slc.cpg/sg65_38_cif.got.tgz:75732.got - 2010.04.10 20:52:16.
