data_PCOD8266924
_publ_section_title
;
Structure prediction by ZEFSAII (Michael W. Deem and Ramdas Pophale) SiO2 
 PCOD8266924
Probable space group: C M M M
;
_chemical_formula_sum "Si O2"
_cell_formula_units_Z 88
_cell_length_a 23.706152
_cell_length_b 9.070175
_cell_length_c 22.863965
_cell_angle_alpha 90.000000
_cell_angle_beta 90.000000
_cell_angle_gamma 90.000000
_cell_volume 4916.185683
_symmetry_space_group_name_H-M "C M M M"
_symmetry_group_IT_number 65
_symmetry_cell_setting 'orthorhombic'
loop_
_space_group_symop_operation_xyz
x,y,z
-x,-y,z
x,-y,-z
-x,y,-z
-x,-y,-z
x,y,-z
-x,y,z
x,-y,z
1/2+x,1/2+y,z
1/2-x,1/2-y,z
1/2+x,1/2-y,-z
1/2-x,1/2+y,-z
1/2-x,1/2-y,-z
1/2+x,1/2+y,-z
1/2-x,1/2+y,z
1/2+x,1/2-y,z
loop_
_atom_site_type_symbol
_atom_site_label
_atom_site_fract_x
_atom_site_fract_y
_atom_site_fract_z
Si Si1 0.387381 0.167181 0.776733
Si Si2 0.433195 0.834537 0.000000
Si Si3 0.000000 0.661679 0.294932
Si Si4 0.500000 0.672607 0.590505
Si Si5 0.434630 0.673415 0.116671
Si Si6 0.887152 0.330858 0.435584
Si Si7 0.690130 0.825466 0.670830
O O1 0.446149 0.177899 0.744576
O O2 0.392019 0.272293 0.832849
O O3 0.339328 0.222167 0.731749
O O4 0.375233 0.000000 0.797368
O O5 0.412484 0.748740 0.057410
O O6 0.500000 0.839457 0.000000
O O7 0.408123 0.000000 0.000000
O O8 0.000000 0.792862 0.340907
O O9 0.000000 0.500000 0.325879
O O10 0.500000 0.500000 0.579490
O O11 0.555435 0.739710 0.561464
O O12 0.500000 0.716805 0.129996
O O13 0.428503 0.500000 0.109467
O O14 0.858317 0.317041 0.500000
O O15 0.902139 0.500000 0.421040
O O16 0.846109 0.269159 0.384930
O O17 0.750000 0.750000 0.667446
O O18 0.697487 0.000000 0.667771
#
# Coordination Sequence:
#
# PCOD8266924 Si02
#       7
#    16   8   8   8  16  16  16
#     4  10  19  33  54  76 101 136 178 217 258 315
#     4   9  17  29  45  67 102 149 190 213 243 300
#     4  10  18  33  55  75 103 139 177 214 258 322
#     4  12  23  33  52  83 115 137 165 214 269 315
#     4  10  19  29  45  74 111 143 174 215 264 308
#     4  10  21  39  60  78 102 141 180 211 257 325
#     4  10  22  39  57  78 102 134 177 225 270 316
#
# _framework density 17.900055999999999
#
# number of rings (size 3 to 8) (size 9 to 14) (size 15 to 20)
#    0.000    1.909    2.727    1.909    0.000    5.818 
#    0.000    0.000    0.000    0.000    0.000    0.636 
#    0.000    0.000    0.000    0.000    0.000    0.000 
#
# Total GULP energy -545517.586930 kJ/mol
# GULP energy per Si atom -12398.126976 kJ/mol
# Density = 1.785931 g / cm^3
# Si number density = 17.900056 Si / 1000 Ang^3
#
#
#
# Elastic Constant Matrix: (Units=GPa)
#
#
# Indices 1 2 3 4 5 6 
#
# 1 98.3202 37.9300 51.6544 0.0000 0.0000 0.0000
# 2 37.9300 83.3096 57.7363 0.0000 0.0000 0.0000
# 3 51.6544 57.7363 148.1847 0.0000 0.0000 0.0000
# 4 0.0000 0.0000 0.0000 21.7397 0.0000 0.0000
# 5 0.0000 0.0000 0.0000 0.0000 11.2772 0.0000
# 6 0.0000 0.0000 0.0000 0.0000 0.0000 27.8494
#
#
#
# Elastic Compliance Matrix: (Units=1/GPa)
#
#
# Indices 1 2 3 4 5 6 
#
# 1 0.013315 -0.003898 -0.003123 0.000000 0.000000 0.000000
# 2 -0.003898 0.017585 -0.005493 0.000000 0.000000 0.000000
# 3 -0.003123 -0.005493 0.009977 0.000000 0.000000 0.000000
# 4 0.000000 0.000000 0.000000 0.045999 0.000000 0.000000
# 5 0.000000 0.000000 0.000000 0.000000 0.088675 0.000000
# 6 0.000000 0.000000 0.000000 0.000000 0.000000 0.035907
#
#
# Mechanical properties :
#
#
# Convention : Reuss Voigt Hill
#
# Bulk Modulus (GPa) = 63.09135 69.38398 66.23767
# Shear Modulus (GPa) = 20.68098 24.33952 22.51025
#
# Velocity S-wave (km/s) = 3.40274 3.69147 3.55004
# Velocity P-wave (km/s) = 7.12469 7.55085 7.34086
#
# Compressibility (1/GPa) = 0.01585003
#
# Stress axis : x y z
#
# Youngs Moduli (GPa) = 75.10198 56.86736 100.23188
#
# Poissons Ratio (x) = 0.22168 0.31298
# Poissons Ratio (y) = 0.29276 0.55053
# Poissons Ratio (z) = 0.23451 0.31235
#
# Static dielectric constant tensor:
#      x y z
#    x 2.971760 0.000000 0.000000 
#    y 0.000000 3.282670 0.000000 
#    z 0.000000 0.000000 3.518590 
# 
# 
# High freq. dielectric constant tensor:
#      x y z
#    x 1.652580 0.000000 0.000000 
#    y 0.000000 1.688960 0.000000 
#    z 0.000000 0.000000 1.705980 
# 
# From -- ./inp_files/71109.got.cif
#   From: 2010.03.12/outbox.cif.g09.slc.cpg/sg65_36_cif.got.tgz:71109.got - 2010.04.10 20:52:16.
