data_PCOD8266109
_publ_section_title
;
Structure prediction by ZEFSAII (Michael W. Deem and Ramdas Pophale) SiO2 
 PCOD8266109
Probable space group: C M M M
;
_chemical_formula_sum "Si O2"
_cell_formula_units_Z 88
_cell_length_a 17.293905
_cell_length_b 18.308548
_cell_length_c 14.167732
_cell_angle_alpha 90.000000
_cell_angle_beta 90.000000
_cell_angle_gamma 90.000000
_cell_volume 4485.876418
_symmetry_space_group_name_H-M "C M M M"
_symmetry_group_IT_number 65
_symmetry_cell_setting 'orthorhombic'
loop_
_space_group_symop_operation_xyz
x,y,z
-x,-y,z
x,-y,-z
-x,y,-z
-x,-y,-z
x,y,-z
-x,y,z
x,-y,z
1/2+x,1/2+y,z
1/2-x,1/2-y,z
1/2+x,1/2-y,-z
1/2-x,1/2+y,-z
1/2-x,1/2-y,-z
1/2+x,1/2+y,-z
1/2-x,1/2+y,z
1/2+x,1/2-y,z
loop_
_atom_site_type_symbol
_atom_site_label
_atom_site_fract_x
_atom_site_fract_y
_atom_site_fract_z
Si Si1 0.586476 0.176744 0.201252
Si Si2 0.269854 0.913129 0.787413
Si Si3 0.585141 0.238769 0.603737
Si Si4 0.175474 0.199404 0.106293
Si Si5 0.916163 0.000000 0.388744
Si Si6 0.193641 0.872632 0.607909
O O1 0.500000 0.155824 0.165786
O O2 0.648089 0.114857 0.169526
O O3 0.588217 0.178362 0.315128
O O4 0.607667 0.257118 0.160786
O O5 0.197633 0.877095 0.843492
O O6 0.265684 0.884463 0.678500
O O7 0.265338 0.000000 0.796696
O O8 0.595619 0.202114 0.500000
O O9 0.500000 0.278004 0.607316
O O10 0.656361 0.293427 0.618998
O O11 0.250000 0.250000 0.107184
O O12 0.147759 0.182705 0.000000
O O13 0.870684 0.071084 0.355983
O O14 0.925857 0.000000 0.500000
O O15 0.000000 0.000000 0.339449
O O16 0.220538 0.887193 0.500000
#
# Coordination Sequence:
#
# PCOD8266109 Si02
#       6
#    16  16  16  16   8  16
#     4  10  21  37  58  83 111 147 191 235 277 324
#     4  11  22  36  55  83 117 151 189 227 272 335
#     4   9  17  30  50  78 110 142 182 233 282 324
#     4   9  19  38  62  84 106 136 178 229 283 335
#     4   9  16  26  42  68 104 146 186 221 270 332
#     4  10  18  29  48  76 110 149 188 231 277 326
#
# _framework density 19.617125999999999
#
# number of rings (size 3 to 8) (size 9 to 14) (size 15 to 20)
#    0.000    2.273    2.727    0.545    0.000    4.000 
#    0.000    1.818    0.000    0.000    0.000   10.182 
#    0.000    0.000    0.000    0.000    0.000    0.000 
#
# Total GULP energy -545261.739758 kJ/mol
# GULP energy per Si atom -12392.312267 kJ/mol
# Density = 1.957248 g / cm^3
# Si number density = 19.617126 Si / 1000 Ang^3
#
#
#
# Elastic Constant Matrix: (Units=GPa)
#
#
# Indices 1 2 3 4 5 6 
#
# 1 95.2326 22.7281 16.6384 0.0000 0.0000 0.0000
# 2 22.7281 68.9690 21.9505 0.0000 0.0000 0.0000
# 3 16.6384 21.9505 92.9055 0.0000 0.0000 0.0000
# 4 0.0000 0.0000 0.0000 17.2760 0.0000 0.0000
# 5 0.0000 0.0000 0.0000 0.0000 15.7400 0.0000
# 6 0.0000 0.0000 0.0000 0.0000 0.0000 24.0151
#
#
#
# Elastic Compliance Matrix: (Units=1/GPa)
#
#
# Indices 1 2 3 4 5 6 
#
# 1 0.011532 -0.003399 -0.001262 0.000000 0.000000 0.000000
# 2 -0.003399 0.016680 -0.003332 0.000000 0.000000 0.000000
# 3 -0.001262 -0.003332 0.011777 0.000000 0.000000 0.000000
# 4 0.000000 0.000000 0.000000 0.057884 0.000000 0.000000
# 5 0.000000 0.000000 0.000000 0.000000 0.063532 0.000000
# 6 0.000000 0.000000 0.000000 0.000000 0.000000 0.041640
#
#
# Mechanical properties :
#
#
# Convention : Reuss Voigt Hill
#
# Bulk Modulus (GPa) = 41.66194 42.19345 41.92770
# Shear Modulus (GPa) = 22.02323 24.45888 23.24106
#
# Velocity S-wave (km/s) = 3.35424 3.53485 3.44573
# Velocity P-wave (km/s) = 6.02369 6.18186 6.10329
#
# Compressibility (1/GPa) = 0.02400272
#
# Stress axis : x y z
#
# Youngs Moduli (GPa) = 86.71329 59.95288 84.91136
#
# Poissons Ratio (x) = 0.20375 0.10719
# Poissons Ratio (y) = 0.29470 0.28294
# Poissons Ratio (z) = 0.10946 0.19978
#
# Static dielectric constant tensor:
#      x y z
#    x 3.722910 0.000000 0.000000 
#    y 0.000000 3.190640 0.000000 
#    z 0.000000 0.000000 3.644600 
# 
# 
# High freq. dielectric constant tensor:
#      x y z
#    x 1.760040 0.000000 0.000000 
#    y 0.000000 1.729370 0.000000 
#    z 0.000000 0.000000 1.755010 
# 
# From -- ./inp_files/42465.got.cif
#   From: 2010.03.12/outbox.cif.g09.slc.cpg/sg65_22_cif.got.tgz:42465.got - 2010.04.10 20:52:16.
