data_PCOD8266903
_publ_section_title
;
Structure prediction by ZEFSAII (Michael W. Deem and Ramdas Pophale) SiO2 
 PCOD8266903
Probable space group: C M M M
;
_chemical_formula_sum "Si O2"
_cell_formula_units_Z 88
_cell_length_a 13.815778
_cell_length_b 20.672478
_cell_length_c 16.462322
_cell_angle_alpha 90.000000
_cell_angle_beta 90.000000
_cell_angle_gamma 90.000000
_cell_volume 4701.743975
_symmetry_space_group_name_H-M "C M M M"
_symmetry_group_IT_number 65
_symmetry_cell_setting 'orthorhombic'
loop_
_space_group_symop_operation_xyz
x,y,z
-x,-y,z
x,-y,-z
-x,y,-z
-x,-y,-z
x,y,-z
-x,y,z
x,-y,z
1/2+x,1/2+y,z
1/2-x,1/2-y,z
1/2+x,1/2-y,-z
1/2-x,1/2+y,-z
1/2-x,1/2-y,-z
1/2+x,1/2+y,-z
1/2-x,1/2+y,z
1/2+x,1/2-y,z
loop_
_atom_site_type_symbol
_atom_site_label
_atom_site_fract_x
_atom_site_fract_y
_atom_site_fract_z
Si Si1 0.191673 0.661132 0.135144
Si Si2 0.608432 0.705346 0.091707
Si Si3 0.110225 0.576100 0.000000
Si Si4 0.500000 0.617923 0.404302
Si Si5 0.684977 0.814320 0.684095
Si Si6 0.000000 0.263444 0.596821
Si Si7 0.295429 0.427532 0.595324
O O1 0.309579 0.665575 0.140539
O O2 0.141374 0.720383 0.088880
O O3 0.162698 0.598729 0.082990
O O4 0.152585 0.660843 0.227095
O O5 0.500000 0.697525 0.130406
O O6 0.606090 0.679284 0.000000
O O7 0.116258 0.500000 0.000000
O O8 0.000000 0.601009 0.000000
O O9 0.500000 0.625090 0.500000
O O10 0.500000 0.690520 0.368353
O O11 0.406465 0.578346 0.375643
O O12 0.750000 0.750000 0.690934
O O13 0.593081 0.799967 0.629573
O O14 0.736524 0.873998 0.642173
O O15 0.000000 0.266369 0.500000
O O16 0.285459 0.413643 0.500000
O O17 0.258906 0.500000 0.616520
#
# Coordination Sequence:
#
# PCOD8266903 Si02
#       7
#    16  16   8   8  16   8  16
#     4  11  21  37  57  88 119 152 190 241 296 348
#     4  10  18  32  59  88 116 149 186 231 286 353
#     4  11  24  41  63  85 115 161 205 246 290 349
#     4   9  17  32  61  89 113 146 193 248 297 354
#     4  12  24  37  60  93 123 155 198 256 311 363
#     4  11  24  39  59  90 125 159 199 257 319 375
#     4  10  21  39  60  82 114 157 202 246 298 362
#
# _framework density 18.716460000000001
#
# number of rings (size 3 to 8) (size 9 to 14) (size 15 to 20)
#    0.000    1.364    5.455    1.909    2.545    2.545 
#    1.636    0.455    0.000    2.727    0.000    0.000 
#    0.000    0.000    0.000    0.000    0.000    0.000 
#
# Total GULP energy -545462.468390 kJ/mol
# GULP energy per Si atom -12396.874282 kJ/mol
# Density = 1.867386 g / cm^3
# Si number density = 18.716460 Si / 1000 Ang^3
#
#
#
# Elastic Constant Matrix: (Units=GPa)
#
#
# Indices 1 2 3 4 5 6 
#
# 1 104.7242 33.5836 34.0552 0.0000 0.0000 0.0000
# 2 33.5836 101.1493 45.7168 0.0000 0.0000 0.0000
# 3 34.0552 45.7168 102.2643 0.0000 0.0000 0.0000
# 4 0.0000 0.0000 0.0000 7.3687 0.0000 0.0000
# 5 0.0000 0.0000 0.0000 0.0000 16.6914 0.0000
# 6 0.0000 0.0000 0.0000 0.0000 0.0000 32.6599
#
#
#
# Elastic Compliance Matrix: (Units=1/GPa)
#
#
# Indices 1 2 3 4 5 6 
#
# 1 0.011210 -0.002550 -0.002593 0.000000 0.000000 0.000000
# 2 -0.002550 0.012970 -0.004949 0.000000 0.000000 0.000000
# 3 -0.002593 -0.004949 0.012855 0.000000 0.000000 0.000000
# 4 0.000000 0.000000 0.000000 0.135710 0.000000 0.000000
# 5 0.000000 0.000000 0.000000 0.000000 0.059911 0.000000
# 6 0.000000 0.000000 0.000000 0.000000 0.000000 0.030619
#
#
# Mechanical properties :
#
#
# Convention : Reuss Voigt Hill
#
# Bulk Modulus (GPa) = 59.34611 59.42767 59.38689
# Shear Modulus (GPa) = 17.29661 24.32948 20.81305
#
# Velocity S-wave (km/s) = 3.04326 3.60932 3.33831
# Velocity P-wave (km/s) = 6.64270 7.01356 6.83065
#
# Compressibility (1/GPa) = 0.01685030
#
# Stress axis : x y z
#
# Youngs Moduli (GPa) = 89.20721 77.10238 77.79372
#
# Poissons Ratio (x) = 0.19660 0.20173
# Poissons Ratio (y) = 0.22747 0.38500
# Poissons Ratio (z) = 0.23132 0.38157
#
# Static dielectric constant tensor:
#      x y z
#    x 3.465320 0.000000 0.000000 
#    y 0.000000 3.250000 0.000000 
#    z 0.000000 0.000000 3.361630 
# 
# 
# High freq. dielectric constant tensor:
#      x y z
#    x 1.733820 0.000000 0.000000 
#    y 0.000000 1.705210 0.000000 
#    z 0.000000 0.000000 1.720510 
# 
# From -- ./inp_files/40255.got.cif
#   From: 2010.03.12/outbox.cif.g09.slc.cpg/sg65_21_cif.got.tgz:40255.got - 2010.04.10 20:52:16.
