data_PCOD8266748
_publ_section_title
;
Structure prediction by ZEFSAII (Michael W. Deem and Ramdas Pophale) SiO2 
 PCOD8266748
Probable space group: C M M M
;
_chemical_formula_sum "Si O2"
_cell_formula_units_Z 96
_cell_length_a 28.318571
_cell_length_b 8.793657
_cell_length_c 23.448159
_cell_angle_alpha 90.000000
_cell_angle_beta 90.000000
_cell_angle_gamma 90.000000
_cell_volume 5839.149660
_symmetry_space_group_name_H-M "C M M M"
_symmetry_group_IT_number 65
_symmetry_cell_setting 'orthorhombic'
loop_
_space_group_symop_operation_xyz
x,y,z
-x,-y,z
x,-y,-z
-x,y,-z
-x,-y,-z
x,y,-z
-x,y,z
x,-y,z
1/2+x,1/2+y,z
1/2-x,1/2-y,z
1/2+x,1/2-y,-z
1/2-x,1/2+y,-z
1/2-x,1/2-y,-z
1/2+x,1/2+y,-z
1/2-x,1/2+y,z
1/2+x,1/2-y,z
loop_
_atom_site_type_symbol
_atom_site_label
_atom_site_fract_x
_atom_site_fract_y
_atom_site_fract_z
Si Si1 0.556325 0.328817 0.000000
Si Si2 0.801192 0.319899 0.384864
Si Si3 0.943791 0.671220 0.113445
Si Si4 0.197837 0.817699 0.500000
Si Si5 0.612632 0.321431 0.336793
Si Si6 0.446627 0.679541 0.771549
Si Si7 0.555490 0.825955 0.435188
O O1 0.576890 0.249074 0.943410
O O2 0.574780 0.500000 0.000000
O O3 0.500000 0.320711 0.000000
O O4 0.796264 0.500000 0.390051
O O5 0.750000 0.250000 0.371843
O O6 0.825179 0.249291 0.442471
O O7 0.837750 0.270111 0.335868
O O8 0.925242 0.500000 0.114528
O O9 0.924842 0.754205 0.170101
O O10 0.000000 0.680477 0.112059
O O11 0.250000 0.750000 0.500000
O O12 0.197382 0.000000 0.500000
O O13 0.623099 0.500000 0.334569
O O14 0.584624 0.264121 0.281257
O O15 0.582016 0.286163 0.392651
O O16 0.500000 0.739489 0.761805
O O17 0.446285 0.500000 0.776721
O O18 0.569124 0.781548 0.500000
O O19 0.500000 0.805555 0.425901
O O20 0.570553 0.000000 0.422725
#
# Coordination Sequence:
#
# PCOD8266748 Si02
#       7
#     8  16  16   8  16  16  16
#     4   9  15  23  37  57  83 117 154 189 228 271
#     4  11  22  37  54  72  94 118 145 183 231 284
#     4   9  16  25  39  60  86 116 153 195 232 266
#     4  10  18  32  52  72  91 110 135 170 218 274
#     4  11  22  34  50  71  93 120 155 193 233 281
#     4   9  18  32  47  64  90 124 160 195 230 270
#     4   9  19  35  51  67  90 119 152 192 235 277
#
# _framework density 16.440750000000001
#
# number of rings (size 3 to 8) (size 9 to 14) (size 15 to 20)
#    0.000    2.250    0.000    5.500    1.167    5.667 
#    0.000    2.500    0.000    0.000    0.000    0.000 
#    0.000    0.000    0.000    0.750    0.000   10.083 
#
# Total GULP energy -595138.003195 kJ/mol
# GULP energy per Si atom -12398.708400 kJ/mol
# Density = 1.640333 g / cm^3
# Si number density = 16.440750 Si / 1000 Ang^3
#
#
#
# Elastic Constant Matrix: (Units=GPa)
#
#
# Indices 1 2 3 4 5 6 
#
# 1 51.9407 30.2097 50.2464 0.0000 0.0000 0.0000
# 2 30.2097 91.3392 48.1820 0.0000 0.0000 0.0000
# 3 50.2464 48.1820 129.6302 0.0000 0.0000 0.0000
# 4 0.0000 0.0000 0.0000 26.6154 0.0000 0.0000
# 5 0.0000 0.0000 0.0000 0.0000 7.7885 0.0000
# 6 0.0000 0.0000 0.0000 0.0000 0.0000 20.9320
#
#
#
# Elastic Compliance Matrix: (Units=1/GPa)
#
#
# Indices 1 2 3 4 5 6 
#
# 1 0.032623 -0.005124 -0.010741 0.000000 0.000000 0.000000
# 2 -0.005124 0.014423 -0.003375 0.000000 0.000000 0.000000
# 3 -0.010741 -0.003375 0.013132 0.000000 0.000000 0.000000
# 4 0.000000 0.000000 0.000000 0.037572 0.000000 0.000000
# 5 0.000000 0.000000 0.000000 0.000000 0.128394 0.000000
# 6 0.000000 0.000000 0.000000 0.000000 0.000000 0.047774
#
#
# Mechanical properties :
#
#
# Convention : Reuss Voigt Hill
#
# Bulk Modulus (GPa) = 46.08454 58.90959 52.49707
# Shear Modulus (GPa) = 15.64309 20.68532 18.16420
#
# Velocity S-wave (km/s) = 3.08796 3.55092 3.32750
# Velocity P-wave (km/s) = 6.38792 7.26094 6.83838
#
# Compressibility (1/GPa) = 0.02169925
#
# Stress axis : x y z
#
# Youngs Moduli (GPa) = 30.65298 69.33293 76.15093
#
# Poissons Ratio (x) = 0.35527 0.81791
# Poissons Ratio (y) = 0.15707 0.25699
# Poissons Ratio (z) = 0.32923 0.23398
#
# Static dielectric constant tensor:
#      x y z
#    x 2.817640 0.000000 0.000000 
#    y 0.000000 3.127720 0.000000 
#    z 0.000000 0.000000 3.307140 
# 
# 
# High freq. dielectric constant tensor:
#      x y z
#    x 1.589150 0.000000 0.000000 
#    y 0.000000 1.644400 0.000000 
#    z 0.000000 0.000000 1.625600 
# 
# From -- ./inp_files/71763.got.cif
#   From: 2010.03.12/outbox.cif.g09.slc.cpg/sg65_36_cif.got.tgz:71763.got - 2010.04.10 20:52:16.
