data_PCOD8266705
_publ_section_title
;
Structure prediction by ZEFSAII (Michael W. Deem and Ramdas Pophale) SiO2 
 PCOD8266705
Probable space group: C M M M
;
_chemical_formula_sum "Si O2"
_cell_formula_units_Z 120
_cell_length_a 20.660350
_cell_length_b 17.128806
_cell_length_c 21.773167
_cell_angle_alpha 90.000000
_cell_angle_beta 90.000000
_cell_angle_gamma 90.000000
_cell_volume 7705.243516
_symmetry_space_group_name_H-M "C M M M"
_symmetry_group_IT_number 65
_symmetry_cell_setting 'orthorhombic'
loop_
_space_group_symop_operation_xyz
x,y,z
-x,-y,z
x,-y,-z
-x,y,-z
-x,-y,-z
x,y,-z
-x,y,z
x,-y,z
1/2+x,1/2+y,z
1/2-x,1/2-y,z
1/2+x,1/2-y,-z
1/2-x,1/2+y,-z
1/2-x,1/2-y,-z
1/2+x,1/2+y,-z
1/2-x,1/2+y,z
1/2+x,1/2-y,z
loop_
_atom_site_type_symbol
_atom_site_label
_atom_site_fract_x
_atom_site_fract_y
_atom_site_fract_z
Si Si1 0.184191 0.410432 0.188274
Si Si2 0.575681 0.659428 0.308311
Si Si3 0.929389 0.696790 0.766880
Si Si4 0.000000 0.914014 0.071660
Si Si5 0.603978 0.696165 0.874574
Si Si6 0.693325 0.810728 0.930944
Si Si7 0.576489 0.412714 0.566946
Si Si8 0.326766 0.588912 0.212114
O O1 0.162801 0.500000 0.183421
O O2 0.127503 0.365067 0.223878
O O3 0.194277 0.379869 0.118765
O O4 0.250264 0.400864 0.227936
O O5 0.500000 0.634341 0.297030
O O6 0.584711 0.751494 0.294023
O O7 0.597557 0.645869 0.378785
O O8 0.624669 0.607748 0.267695
O O9 0.935442 0.758792 0.822143
O O10 0.000000 0.655079 0.761435
O O11 0.062673 0.867641 0.091148
O O12 0.000000 0.000000 0.102782
O O13 0.000000 0.924353 0.000000
O O14 0.628142 0.759994 0.923398
O O15 0.662697 0.648329 0.843979
O O16 0.750000 0.750000 0.918645
O O17 0.695970 0.846136 0.000000
O O18 0.603127 0.384293 0.500000
O O19 0.500000 0.415829 0.563775
O O20 0.602852 0.500000 0.581101
O O21 0.339476 0.500000 0.191111
#
# Coordination Sequence:
#
# PCOD8266705 Si02
#       8
#    16  16  16   8  16  16  16  16
#     4  10  21  35  50  69  91 114 146 191 244 285
#     4   9  17  27  43  69  97 127 163 190 217 262
#     4   9  18  32  51  69  87 113 149 191 234 279
#     4  11  22  32  42  60  87 117 146 176 215 262
#     4  10  18  32  46  64  85 114 146 181 219 270
#     4  10  19  33  52  67  83 112 147 182 227 285
#     4   8  13  22  37  61  98 138 167 191 219 253
#     4  10  19  29  43  65  93 120 149 186 225 272
#
# _framework density 15.57381
#
# number of rings (size 3 to 8) (size 9 to 14) (size 15 to 20)
#    0.000    2.467    2.000    1.600    0.933    1.333 
#    0.000    0.000    0.000    0.000    0.000    3.733 
#    0.000    1.600    0.000    5.200    0.000    0.000 
#
# Total GULP energy -743414.069746 kJ/mol
# GULP energy per Si atom -12390.234496 kJ/mol
# Density = 1.553836 g / cm^3
# Si number density = 15.573810 Si / 1000 Ang^3
#
#
#
# Elastic Constant Matrix: (Units=GPa)
#
#
# Indices 1 2 3 4 5 6 
#
# 1 83.4235 43.2621 33.5325 0.0000 0.0000 0.0000
# 2 43.2621 83.8078 42.6996 0.0000 0.0000 0.0000
# 3 33.5325 42.6996 91.6451 0.0000 0.0000 0.0000
# 4 0.0000 0.0000 0.0000 19.4017 0.0000 0.0000
# 5 0.0000 0.0000 0.0000 0.0000 11.7609 0.0000
# 6 0.0000 0.0000 0.0000 0.0000 0.0000 22.9082
#
#
#
# Elastic Compliance Matrix: (Units=1/GPa)
#
#
# Indices 1 2 3 4 5 6 
#
# 1 0.016891 -0.007304 -0.002777 0.000000 0.000000 0.000000
# 2 -0.007304 0.018805 -0.006089 0.000000 0.000000 0.000000
# 3 -0.002777 -0.006089 0.014765 0.000000 0.000000 0.000000
# 4 0.000000 0.000000 0.000000 0.051542 0.000000 0.000000
# 5 0.000000 0.000000 0.000000 0.000000 0.085027 0.000000
# 6 0.000000 0.000000 0.000000 0.000000 0.000000 0.043652
#
#
# Mechanical properties :
#
#
# Convention : Reuss Voigt Hill
#
# Bulk Modulus (GPa) = 55.18797 55.31830 55.25314
# Shear Modulus (GPa) = 18.58296 20.10633 19.34465
#
# Velocity S-wave (km/s) = 3.45805 3.59700 3.52821
# Velocity P-wave (km/s) = 7.17338 7.26969 7.22170
#
# Compressibility (1/GPa) = 0.01811989
#
# Stress axis : x y z
#
# Youngs Moduli (GPa) = 59.20220 53.17743 67.72859
#
# Poissons Ratio (x) = 0.38843 0.18809
# Poissons Ratio (y) = 0.43244 0.41240
# Poissons Ratio (z) = 0.16441 0.32380
#
# Static dielectric constant tensor:
#      x y z
#    x 2.942840 0.000000 0.000000 
#    y 0.000000 2.916120 0.000000 
#    z 0.000000 0.000000 3.036650 
# 
# 
# High freq. dielectric constant tensor:
#      x y z
#    x 1.589620 0.000000 0.000000 
#    y 0.000000 1.585800 0.000000 
#    z 0.000000 0.000000 1.576330 
# 
# From -- ./inp_files/70686.got.cif
#   From: 2010.03.12/outbox.cif.g09.slc.cpg/sg65_36_cif.got.tgz:70686.got - 2010.04.10 20:52:16.
