data_PCOD8266036
_publ_section_title
;
Structure prediction by ZEFSAII (Michael W. Deem and Ramdas Pophale) SiO2 
 PCOD8266036
Probable space group: C M M M
;
_chemical_formula_sum "Si O2"
_cell_formula_units_Z 88
_cell_length_a 18.888093
_cell_length_b 18.329552
_cell_length_c 14.002176
_cell_angle_alpha 90.000000
_cell_angle_beta 90.000000
_cell_angle_gamma 90.000000
_cell_volume 4847.697313
_symmetry_space_group_name_H-M "C M M M"
_symmetry_group_IT_number 65
_symmetry_cell_setting 'orthorhombic'
loop_
_space_group_symop_operation_xyz
x,y,z
-x,-y,z
x,-y,-z
-x,y,-z
-x,-y,-z
x,y,-z
-x,y,z
x,-y,z
1/2+x,1/2+y,z
1/2-x,1/2-y,z
1/2+x,1/2-y,-z
1/2-x,1/2+y,-z
1/2-x,1/2-y,-z
1/2+x,1/2+y,-z
1/2-x,1/2+y,z
1/2+x,1/2-y,z
loop_
_atom_site_type_symbol
_atom_site_label
_atom_site_fract_x
_atom_site_fract_y
_atom_site_fract_z
Si Si1 0.377950 0.418955 0.258692
Si Si2 0.000000 0.084957 0.601759
Si Si3 0.193366 0.687368 0.110226
Si Si4 0.173208 0.714747 0.610482
Si Si5 0.717150 0.081976 0.723303
Si Si6 0.916181 0.228722 0.782274
O O1 0.397639 0.500000 0.217601
O O2 0.429475 0.392904 0.343232
O O3 0.299948 0.420276 0.302035
O O4 0.392128 0.353428 0.183231
O O5 0.000000 0.126030 0.500000
O O6 0.000000 0.000000 0.584635
O O7 0.250000 0.750000 0.135903
O O8 0.209963 0.614890 0.170297
O O9 0.115642 0.716280 0.139322
O O10 0.195065 0.665307 0.000000
O O11 0.149408 0.718335 0.500000
O O12 0.250000 0.750000 0.626738
O O13 0.177056 0.630213 0.644192
O O14 0.116454 0.755566 0.677072
O O15 0.685463 0.000000 0.721909
O O16 0.000000 0.238843 0.779466
#
# Coordination Sequence:
#
# PCOD8266036 Si02
#       6
#    16   8  16  16  16  16
#     4  10  18  29  46  73 109 144 176 213 254 304
#     4   9  18  28  38  62 105 151 186 211 239 285
#     4  10  20  37  58  79 105 136 174 222 272 320
#     4  10  20  35  52  75 109 147 186 225 262 303
#     4  10  19  34  56  80 106 136 176 222 270 317
#     4  11  20  34  54  78 108 144 184 217 260 318
#
# _framework density 18.152949
#
# number of rings (size 3 to 8) (size 9 to 14) (size 15 to 20)
#    0.000    1.909    4.545    1.091    0.000    2.909 
#    0.000    1.818    0.000    9.273    0.000   11.455 
#    0.000    0.000    0.000    0.000    0.000    0.000 
#
# Total GULP energy -545278.711274 kJ/mol
# GULP energy per Si atom -12392.697983 kJ/mol
# Density = 1.811163 g / cm^3
# Si number density = 18.152949 Si / 1000 Ang^3
#
#
#
# Elastic Constant Matrix: (Units=GPa)
#
#
# Indices 1 2 3 4 5 6 
#
# 1 86.9183 31.9337 10.9081 0.0000 0.0000 0.0000
# 2 31.9337 122.8863 27.5216 0.0000 0.0000 0.0000
# 3 10.9081 27.5216 75.3834 0.0000 0.0000 0.0000
# 4 0.0000 0.0000 0.0000 17.5915 0.0000 0.0000
# 5 0.0000 0.0000 0.0000 0.0000 16.5549 0.0000
# 6 0.0000 0.0000 0.0000 0.0000 0.0000 22.7713
#
#
#
# Elastic Compliance Matrix: (Units=1/GPa)
#
#
# Indices 1 2 3 4 5 6 
#
# 1 0.012752 -0.003159 -0.000692 0.000000 0.000000 0.000000
# 2 -0.003159 0.009645 -0.003064 0.000000 0.000000 0.000000
# 3 -0.000692 -0.003064 0.014484 0.000000 0.000000 0.000000
# 4 0.000000 0.000000 0.000000 0.056846 0.000000 0.000000
# 5 0.000000 0.000000 0.000000 0.000000 0.060405 0.000000
# 6 0.000000 0.000000 0.000000 0.000000 0.000000 0.043915
#
#
# Mechanical properties :
#
#
# Convention : Reuss Voigt Hill
#
# Bulk Modulus (GPa) = 43.38112 47.32385 45.35249
# Shear Modulus (GPa) = 22.77270 25.70518 24.23894
#
# Velocity S-wave (km/s) = 3.54572 3.76710 3.65809
# Velocity P-wave (km/s) = 6.38062 6.71175 6.54828
#
# Compressibility (1/GPa) = 0.02305150
#
# Stress axis : x y z
#
# Youngs Moduli (GPa) = 78.41610 103.68368 69.04019
#
# Poissons Ratio (x) = 0.32753 0.04778
# Poissons Ratio (y) = 0.24771 0.21154
# Poissons Ratio (z) = 0.05427 0.31769
#
# Static dielectric constant tensor:
#      x y z
#    x 3.174770 0.000000 0.000000 
#    y 0.000000 3.595480 0.000000 
#    z 0.000000 0.000000 3.228020 
# 
# 
# High freq. dielectric constant tensor:
#      x y z
#    x 1.692060 0.000000 0.000000 
#    y 0.000000 1.710450 0.000000 
#    z 0.000000 0.000000 1.676200 
# 
# From -- ./inp_files/43990.got.cif
#   From: 2010.03.12/outbox.cif.g09.slc.cpg/sg65_22_cif.got.tgz:43990.got - 2010.04.10 20:52:16.
