data_PCOD8266978
_publ_section_title
;
Structure prediction by ZEFSAII (Michael W. Deem and Ramdas Pophale) SiO2 
 PCOD8266978
Probable space group: C M M M
;
_chemical_formula_sum "Si O2"
_cell_formula_units_Z 88
_cell_length_a 8.649867
_cell_length_b 23.866432
_cell_length_c 22.995849
_cell_angle_alpha 90.000000
_cell_angle_beta 90.000000
_cell_angle_gamma 90.000000
_cell_volume 4747.296700
_symmetry_space_group_name_H-M "C M M M"
_symmetry_group_IT_number 65
_symmetry_cell_setting 'orthorhombic'
loop_
_space_group_symop_operation_xyz
x,y,z
-x,-y,z
x,-y,-z
-x,y,-z
-x,-y,-z
x,y,-z
-x,y,z
x,-y,z
1/2+x,1/2+y,z
1/2-x,1/2-y,z
1/2+x,1/2-y,-z
1/2-x,1/2+y,-z
1/2-x,1/2-y,-z
1/2+x,1/2+y,-z
1/2-x,1/2+y,z
1/2+x,1/2-y,z
loop_
_atom_site_type_symbol
_atom_site_label
_atom_site_fract_x
_atom_site_fract_y
_atom_site_fract_z
Si Si1 0.316824 0.311847 0.784666
Si Si2 0.316543 0.310076 0.435521
Si Si3 0.181886 0.564630 0.000000
Si Si4 0.819860 0.122141 0.327751
Si Si5 0.321605 0.500000 0.704308
Si Si6 0.821004 0.500000 0.823077
Si Si7 0.818414 0.105360 0.116565
O O1 0.500000 0.308888 0.780941
O O2 0.250000 0.250000 0.781034
O O3 0.250081 0.349272 0.730872
O O4 0.267916 0.339802 0.846413
O O5 0.261568 0.329428 0.500000
O O6 0.500000 0.307158 0.433352
O O7 0.250000 0.250000 0.419842
O O8 0.248325 0.351884 0.386661
O O9 0.234742 0.601392 0.945236
O O10 0.248506 0.500000 0.000000
O O11 0.000000 0.560320 0.000000
O O12 0.788448 0.055775 0.332589
O O13 0.000000 0.135005 0.326367
O O14 0.500000 0.500000 0.727601
O O15 0.194461 0.500000 0.754385
O O16 0.730755 0.553094 0.845658
O O17 0.000000 0.500000 0.843007
O O18 0.000000 0.104489 0.105420
#
# Coordination Sequence:
#
# PCOD8266978 Si02
#       7
#    16  16   8  16   8   8  16
#     4  10  21  36  55  79 105 138 180 222 266 316
#     4   9  17  30  49  74 104 138 179 223 266 313
#     4  11  23  37  56  87 117 138 173 225 270 306
#     4   9  17  31  52  77 104 138 178 219 263 318
#     4  10  18  34  54  73 104 144 177 212 268 332
#     4  12  22  33  53  83 113 139 172 224 275 312
#     4  11  22  38  59  81 108 146 184 214 260 328
#
# _framework density 18.536864999999999
#
# number of rings (size 3 to 8) (size 9 to 14) (size 15 to 20)
#    0.000    1.909    2.727    2.182    0.000    1.818 
#    0.000    1.818    0.000    2.727    0.000    0.000 
#    0.000    3.636    0.000    0.000    0.000    0.000 
#
# Total GULP energy -545371.418640 kJ/mol
# GULP energy per Si atom -12394.804969 kJ/mol
# Density = 1.849467 g / cm^3
# Si number density = 18.536865 Si / 1000 Ang^3
#
#
#
# Elastic Constant Matrix: (Units=GPa)
#
#
# Indices 1 2 3 4 5 6 
#
# 1 21.6202 18.1954 23.0176 0.0000 0.0000 0.0000
# 2 18.1954 147.3347 85.8240 0.0000 0.0000 0.0000
# 3 23.0176 85.8240 161.4951 0.0000 0.0000 0.0000
# 4 0.0000 0.0000 0.0000 36.0074 0.0000 0.0000
# 5 0.0000 0.0000 0.0000 0.0000 14.2099 0.0000
# 6 0.0000 0.0000 0.0000 0.0000 0.0000 16.8183
#
#
#
# Elastic Compliance Matrix: (Units=1/GPa)
#
#
# Indices 1 2 3 4 5 6 
#
# 1 0.055586 -0.003258 -0.006191 0.000000 0.000000 0.000000
# 2 -0.003258 0.010021 -0.004861 0.000000 0.000000 0.000000
# 3 -0.006191 -0.004861 0.009658 0.000000 0.000000 0.000000
# 4 0.000000 0.000000 0.000000 0.027772 0.000000 0.000000
# 5 0.000000 0.000000 0.000000 0.000000 0.070373 0.000000
# 6 0.000000 0.000000 0.000000 0.000000 0.000000 0.059459
#
#
# Mechanical properties :
#
#
# Convention : Reuss Voigt Hill
#
# Bulk Modulus (GPa) = 21.43883 64.94710 43.19297
# Shear Modulus (GPa) = 18.04793 26.96798 22.50796
#
# Velocity S-wave (km/s) = 3.12368 3.81836 3.48836
# Velocity P-wave (km/s) = 4.95988 7.38597 6.29099
#
# Compressibility (1/GPa) = 0.04664434
#
# Stress axis : x y z
#
# Youngs Moduli (GPa) = 17.99003 99.78604 103.54109
#
# Poissons Ratio (x) = 0.32515 0.64102
# Poissons Ratio (y) = 0.05862 0.50335
# Poissons Ratio (z) = 0.11138 0.48509
#
# Static dielectric constant tensor:
#      x y z
#    x 3.190460 0.000000 0.000000 
#    y 0.000000 3.380500 0.000000 
#    z 0.000000 0.000000 3.815580 
# 
# 
# High freq. dielectric constant tensor:
#      x y z
#    x 1.697130 0.000000 0.000000 
#    y 0.000000 1.714190 0.000000 
#    z 0.000000 0.000000 1.726140 
# 
# From -- ./inp_files/59899.got.cif
#   From: 2010.03.12/outbox.cif.g09.slc.cpg/sg65_30_cif.got.tgz:59899.got - 2010.04.10 20:52:16.
