data_PCOD8266336
_publ_section_title
;
Structure prediction by ZEFSAII (Michael W. Deem and Ramdas Pophale) SiO2 
 PCOD8266336
Probable space group: C M M M
;
_chemical_formula_sum "Si O2"
_cell_formula_units_Z 104
_cell_length_a 19.818088
_cell_length_b 8.884753
_cell_length_c 32.832686
_cell_angle_alpha 90.000000
_cell_angle_beta 90.000000
_cell_angle_gamma 90.000000
_cell_volume 5781.140504
_symmetry_space_group_name_H-M "C M M M"
_symmetry_group_IT_number 65
_symmetry_cell_setting 'orthorhombic'
loop_
_space_group_symop_operation_xyz
x,y,z
-x,-y,z
x,-y,-z
-x,y,-z
-x,-y,-z
x,y,-z
-x,y,z
x,-y,z
1/2+x,1/2+y,z
1/2-x,1/2-y,z
1/2+x,1/2-y,-z
1/2-x,1/2+y,-z
1/2-x,1/2-y,-z
1/2+x,1/2+y,-z
1/2-x,1/2+y,z
1/2+x,1/2-y,z
loop_
_atom_site_type_symbol
_atom_site_label
_atom_site_fract_x
_atom_site_fract_y
_atom_site_fract_z
Si Si1 0.576722 0.676223 0.346425
Si Si2 0.318887 0.176207 0.895325
Si Si3 0.578179 0.327144 0.046498
Si Si4 0.176655 0.820677 0.418511
Si Si5 0.324128 0.180639 0.500000
Si Si6 0.076040 0.677900 0.263109
Si Si7 0.180812 0.322219 0.803184
O O1 0.500000 0.726587 0.357009
O O2 0.580213 0.500000 0.338895
O O3 0.626413 0.725180 0.382440
O O4 0.602956 0.755612 0.305500
O O5 0.250000 0.250000 0.911430
O O6 0.380326 0.220712 0.923943
O O7 0.335183 0.230036 0.849310
O O8 0.308494 0.000000 0.897237
O O9 0.500000 0.293265 0.054186
O O10 0.594993 0.500000 0.056305
O O11 0.597416 0.289676 0.000000
O O12 0.250000 0.750000 0.409465
O O13 0.142345 0.746562 0.458879
O O14 0.183597 0.000000 0.423922
O O15 0.250000 0.250000 0.500000
O O16 0.324281 0.000000 0.500000
O O17 0.079713 0.500000 0.266361
O O18 0.121391 0.737776 0.225899
O O19 0.000000 0.733790 0.254635
O O20 0.188027 0.500000 0.800446
O O21 0.250000 0.250000 0.787538
#
# Coordination Sequence:
#
# PCOD8266336 Si02
#       7
#    16  16  16  16   8  16  16
#     4   9  19  35  52  71  97 129 164 201 240 284
#     4  10  20  34  53  76 103 135 170 209 251 299
#     4   9  19  36  55  75 102 134 167 207 254 301
#     4  10  19  32  51  73  98 127 160 199 241 286
#     4  10  18  30  49  72  99 127 159 199 239 284
#     4   9  18  33  52  72  96 128 163 199 242 290
#     4   9  19  34  51  73 101 131 163 202 247 292
#
# _framework density 17.989529999999998
#
# number of rings (size 3 to 8) (size 9 to 14) (size 15 to 20)
#    0.000    2.615    0.000    3.000    0.000    4.615 
#    0.000    5.769    0.000    4.154    0.000    0.000 
#    0.000    0.000    0.000    0.000    0.000    0.000 
#
# Total GULP energy -644759.282515 kJ/mol
# GULP energy per Si atom -12399.216971 kJ/mol
# Density = 1.794859 g / cm^3
# Si number density = 17.989530 Si / 1000 Ang^3
#
#
#
# Elastic Constant Matrix: (Units=GPa)
#
#
# Indices 1 2 3 4 5 6 
#
# 1 93.1499 35.3512 78.3164 0.0000 0.0000 0.0000
# 2 35.3512 57.0421 43.4577 0.0000 0.0000 0.0000
# 3 78.3164 43.4577 129.1529 0.0000 0.0000 0.0000
# 4 0.0000 0.0000 0.0000 31.5420 0.0000 0.0000
# 5 0.0000 0.0000 0.0000 0.0000 32.9910 0.0000
# 6 0.0000 0.0000 0.0000 0.0000 0.0000 28.5181
#
#
#
# Elastic Compliance Matrix: (Units=1/GPa)
#
#
# Indices 1 2 3 4 5 6 
#
# 1 0.022857 -0.004849 -0.012228 0.000000 0.000000 0.000000
# 2 -0.004849 0.024603 -0.005338 0.000000 0.000000 0.000000
# 3 -0.012228 -0.005338 0.016954 0.000000 0.000000 0.000000
# 4 0.000000 0.000000 0.000000 0.031704 0.000000 0.000000
# 5 0.000000 0.000000 0.000000 0.000000 0.030311 0.000000
# 6 0.000000 0.000000 0.000000 0.000000 0.000000 0.035065
#
#
# Mechanical properties :
#
#
# Convention : Reuss Voigt Hill
#
# Bulk Modulus (GPa) = 51.06538 65.95506 58.51022
# Shear Modulus (GPa) = 23.49044 26.75819 25.12432
#
# Velocity S-wave (km/s) = 3.61748 3.86091 3.74118
# Velocity P-wave (km/s) = 6.77466 7.52450 7.15940
#
# Compressibility (1/GPa) = 0.01958274
#
# Stress axis : x y z
#
# Youngs Moduli (GPa) = 43.75082 40.64572 58.98293
#
# Poissons Ratio (x) = 0.19709 0.72127
# Poissons Ratio (y) = 0.21215 0.31486
# Poissons Ratio (z) = 0.53500 0.21697
#
# Static dielectric constant tensor:
#      x y z
#    x 3.320430 0.000000 0.000000 
#    y 0.000000 3.257180 0.000000 
#    z 0.000000 0.000000 3.645650 
# 
# 
# High freq. dielectric constant tensor:
#      x y z
#    x 1.685420 0.000000 0.000000 
#    y 0.000000 1.696460 0.000000 
#    z 0.000000 0.000000 1.705010 
# 
# From -- ./inp_files/73329.got.cif
#   From: 2010.03.12/outbox.cif.g09.slc.cpg/sg65_37_cif.got.tgz:73329.got - 2010.04.10 20:52:16.
