data_PCOD8266040
_publ_section_title
;
Structure prediction by ZEFSAII (Michael W. Deem and Ramdas Pophale) SiO2 
 PCOD8266040
Probable space group: C M M M
;
_chemical_formula_sum "Si O2"
_cell_formula_units_Z 104
_cell_length_a 29.146905
_cell_length_b 17.568959
_cell_length_c 12.957072
_cell_angle_alpha 90.000000
_cell_angle_beta 90.000000
_cell_angle_gamma 90.000000
_cell_volume 6635.067522
_symmetry_space_group_name_H-M "C M M M"
_symmetry_group_IT_number 65
_symmetry_cell_setting 'orthorhombic'
loop_
_space_group_symop_operation_xyz
x,y,z
-x,-y,z
x,-y,-z
-x,y,-z
-x,-y,-z
x,y,-z
-x,y,z
x,-y,z
1/2+x,1/2+y,z
1/2-x,1/2-y,z
1/2+x,1/2-y,-z
1/2-x,1/2+y,-z
1/2-x,1/2-y,-z
1/2+x,1/2+y,-z
1/2-x,1/2+y,z
1/2+x,1/2-y,z
loop_
_atom_site_type_symbol
_atom_site_label
_atom_site_fract_x
_atom_site_fract_y
_atom_site_fract_z
Si Si1 0.551836 0.794850 0.380998
Si Si2 0.645455 0.276178 0.379641
Si Si3 0.447664 0.082955 0.000000
Si Si4 0.419211 0.086309 0.785630
Si Si5 0.281209 0.178491 0.273004
Si Si6 0.705699 0.585254 0.378114
Si Si7 0.825421 0.584410 0.884275
O O1 0.555952 0.820731 0.500000
O O2 0.500000 0.763820 0.358657
O O3 0.590534 0.730423 0.356909
O O4 0.561871 0.868395 0.311815
O O5 0.656196 0.268136 0.500000
O O6 0.671262 0.205818 0.325054
O O7 0.664639 0.358073 0.340113
O O8 0.435807 0.126124 0.893417
O O9 0.500000 0.064395 0.000000
O O10 0.420619 0.000000 0.000000
O O11 0.364560 0.086176 0.796275
O O12 0.438328 0.000000 0.775607
O O13 0.250000 0.250000 0.253392
O O14 0.255274 0.117035 0.344249
O O15 0.288022 0.142695 0.159292
O O16 0.705982 0.581173 0.500000
O O17 0.697529 0.500000 0.332757
O O18 0.804092 0.500000 0.889439
O O19 0.841946 0.609006 0.000000
#
# Coordination Sequence:
#
# PCOD8266040 Si02
#       7
#    16  16   8  16  16  16  16
#     4  10  20  32  46  64  88 120 152 182 223 274
#     4   9  17  30  46  65  91 119 146 179 221 265
#     4   9  16  26  42  62  79 102 143 189 224 251
#     4  10  18  30  45  61  83 115 153 187 220 259
#     4  10  18  29  47  67  89 117 148 179 221 266
#     4   9  17  29  47  70  92 114 145 185 223 262
#     4  10  19  31  45  61  86 118 151 186 222 261
#
# _framework density 15.674294
#
# number of rings (size 3 to 8) (size 9 to 14) (size 15 to 20)
#    0.000    2.385    2.308    1.385    0.000    3.385 
#    0.000    0.769    0.000    0.462    0.000    3.231 
#    0.000    0.000    0.000    0.000    0.000   10.615 
#
# Total GULP energy -644216.232780 kJ/mol
# GULP energy per Si atom -12388.773707 kJ/mol
# Density = 1.563862 g / cm^3
# Si number density = 15.674294 Si / 1000 Ang^3
#
#
#
# Elastic Constant Matrix: (Units=GPa)
#
#
# Indices 1 2 3 4 5 6 
#
# 1 86.9520 43.8305 29.5287 0.0000 0.0000 0.0000
# 2 43.8305 89.8030 35.2181 0.0000 0.0000 0.0000
# 3 29.5287 35.2181 55.3029 0.0000 0.0000 0.0000
# 4 0.0000 0.0000 0.0000 21.2574 0.0000 0.0000
# 5 0.0000 0.0000 0.0000 0.0000 22.1915 0.0000
# 6 0.0000 0.0000 0.0000 0.0000 0.0000 13.0786
#
#
#
# Elastic Compliance Matrix: (Units=1/GPa)
#
#
# Indices 1 2 3 4 5 6 
#
# 1 0.016158 -0.006002 -0.004805 0.000000 0.000000 0.000000
# 2 -0.006002 0.017071 -0.007667 0.000000 0.000000 0.000000
# 3 -0.004805 -0.007667 0.025531 0.000000 0.000000 0.000000
# 4 0.000000 0.000000 0.000000 0.047043 0.000000 0.000000
# 5 0.000000 0.000000 0.000000 0.000000 0.045062 0.000000
# 6 0.000000 0.000000 0.000000 0.000000 0.000000 0.076461
#
#
# Mechanical properties :
#
#
# Convention : Reuss Voigt Hill
#
# Bulk Modulus (GPa) = 45.84665 49.91249 47.87957
# Shear Modulus (GPa) = 18.41323 19.53754 18.97539
#
# Velocity S-wave (km/s) = 3.43117 3.53437 3.48315
# Velocity P-wave (km/s) = 6.70897 6.96910 6.84027
#
# Compressibility (1/GPa) = 0.02181184
#
# Stress axis : x y z
#
# Youngs Moduli (GPa) = 61.88967 58.57718 39.16880
#
# Poissons Ratio (x) = 0.35156 0.18822
# Poissons Ratio (y) = 0.37144 0.30031
# Poissons Ratio (z) = 0.29740 0.44911
#
# Static dielectric constant tensor:
#      x y z
#    x 3.114970 0.000000 0.000000 
#    y 0.000000 3.008650 0.000000 
#    z 0.000000 0.000000 2.967890 
# 
# 
# High freq. dielectric constant tensor:
#      x y z
#    x 1.599950 0.000000 0.000000 
#    y 0.000000 1.572550 0.000000 
#    z 0.000000 0.000000 1.595260 
# 
# From -- ./inp_files/34121.got.cif
#   From: 2010.03.12/outbox.cif.g09.slc.cpg/sg65_18_cif.got.tgz:34121.got - 2010.04.10 20:52:16.
