data_PCOD8266542
_publ_section_title
;
Structure prediction by ZEFSAII (Michael W. Deem and Ramdas Pophale) SiO2 
 PCOD8266542
Probable space group: C M M M
;
_chemical_formula_sum "Si O2"
_cell_formula_units_Z 104
_cell_length_a 19.470774
_cell_length_b 27.682633
_cell_length_c 11.878355
_cell_angle_alpha 90.000000
_cell_angle_beta 90.000000
_cell_angle_gamma 90.000000
_cell_volume 6402.460557
_symmetry_space_group_name_H-M "C M M M"
_symmetry_group_IT_number 65
_symmetry_cell_setting 'orthorhombic'
loop_
_space_group_symop_operation_xyz
x,y,z
-x,-y,z
x,-y,-z
-x,y,-z
-x,-y,-z
x,y,-z
-x,y,z
x,-y,z
1/2+x,1/2+y,z
1/2-x,1/2-y,z
1/2+x,1/2-y,-z
1/2-x,1/2+y,-z
1/2-x,1/2-y,-z
1/2+x,1/2+y,-z
1/2-x,1/2+y,z
1/2+x,1/2-y,z
loop_
_atom_site_type_symbol
_atom_site_label
_atom_site_fract_x
_atom_site_fract_y
_atom_site_fract_z
Si Si1 0.710731 0.387893 0.126077
Si Si2 0.128220 0.943760 0.280586
Si Si3 0.417205 0.612574 0.500000
Si Si4 0.580983 0.276666 0.500000
Si Si5 0.297960 0.204776 0.867963
Si Si6 0.000000 0.056487 0.126024
Si Si7 0.426000 0.329944 0.877876
Si Si8 0.422225 0.237324 0.266829
O O1 0.702180 0.430148 0.219738
O O2 0.763787 0.346402 0.162229
O O3 0.635506 0.365934 0.127835
O O4 0.728257 0.407637 0.000000
O O5 0.116315 0.912708 0.392133
O O6 0.068262 0.929767 0.194480
O O7 0.129605 0.000000 0.313129
O O8 0.500000 0.606737 0.500000
O O9 0.391466 0.668291 0.500000
O O10 0.500000 0.281622 0.500000
O O11 0.604947 0.244827 0.606435
O O12 0.250000 0.250000 0.830435
O O13 0.369626 0.203565 0.800714
O O14 0.313199 0.209141 0.000000
O O15 0.000000 0.000000 0.108055
O O16 0.000000 0.080532 0.000000
O O17 0.500000 0.357782 0.860712
O O18 0.420774 0.290588 0.782747
O O19 0.425430 0.303589 0.000000
O O20 0.500000 0.215665 0.261198
#
# Coordination Sequence:
#
# PCOD8266542 Si02
#       8
#    16  16   8   8  16   8  16  16
#     4  10  20  32  47  68  94 124 155 196 249 298
#     4  11  22  34  48  64  89 124 165 210 249 289
#     4  11  21  34  48  66  93 131 175 215 253 288
#     4   9  20  33  48  70  94 128 165 207 244 278
#     4  10  19  32  49  71  99 126 152 193 245 297
#     4   9  18  31  47  67  87 110 149 205 257 287
#     4   9  16  25  41  64  86 114 152 191 231 279
#     4  10  18  31  49  68  93 124 162 199 235 281
#
# _framework density 16.243756000000001
#
# number of rings (size 3 to 8) (size 9 to 14) (size 15 to 20)
#    0.000    2.077    2.308    2.077    1.077    3.385 
#    0.000    1.154    0.000    0.000    0.000    0.000 
#    0.000    0.615    0.000    3.385    0.000    6.308 
#
# Total GULP energy -644341.509256 kJ/mol
# GULP energy per Si atom -12391.182870 kJ/mol
# Density = 1.620678 g / cm^3
# Si number density = 16.243756 Si / 1000 Ang^3
#
#
#
# Elastic Constant Matrix: (Units=GPa)
#
#
# Indices 1 2 3 4 5 6 
#
# 1 64.9110 36.1374 37.3586 0.0000 0.0000 0.0000
# 2 36.1374 47.5045 26.0364 0.0000 0.0000 0.0000
# 3 37.3586 26.0364 96.6329 0.0000 0.0000 0.0000
# 4 0.0000 0.0000 0.0000 20.4832 0.0000 0.0000
# 5 0.0000 0.0000 0.0000 0.0000 20.3879 0.0000
# 6 0.0000 0.0000 0.0000 0.0000 0.0000 26.7970
#
#
#
# Elastic Compliance Matrix: (Units=1/GPa)
#
#
# Indices 1 2 3 4 5 6 
#
# 1 0.029691 -0.019119 -0.006327 0.000000 0.000000 0.000000
# 2 -0.019119 0.037009 -0.002580 0.000000 0.000000 0.000000
# 3 -0.006327 -0.002580 0.013490 0.000000 0.000000 0.000000
# 4 0.000000 0.000000 0.000000 0.048820 0.000000 0.000000
# 5 0.000000 0.000000 0.000000 0.000000 0.049049 0.000000
# 6 0.000000 0.000000 0.000000 0.000000 0.000000 0.037318
#
#
# Mechanical properties :
#
#
# Convention : Reuss Voigt Hill
#
# Bulk Modulus (GPa) = 41.42979 45.34593 43.38786
# Shear Modulus (GPa) = 17.89073 20.83470 19.36272
#
# Velocity S-wave (km/s) = 3.32232 3.58527 3.45629
# Velocity P-wave (km/s) = 6.34646 6.71680 6.53425
#
# Compressibility (1/GPa) = 0.02413722
#
# Stress axis : x y z
#
# Youngs Moduli (GPa) = 33.68011 27.02075 74.12982
#
# Poissons Ratio (x) = 0.51660 0.46905
# Poissons Ratio (y) = 0.64391 0.19127
# Poissons Ratio (z) = 0.21311 0.06972
#
# Static dielectric constant tensor:
#      x y z
#    x 2.970050 0.000000 0.000000 
#    y 0.000000 2.935680 0.000000 
#    z 0.000000 0.000000 3.624330 
# 
# 
# High freq. dielectric constant tensor:
#      x y z
#    x 1.586970 0.000000 0.000000 
#    y 0.000000 1.599110 0.000000 
#    z 0.000000 0.000000 1.638970 
# 
# From -- ./inp_files/29749.got.cif
#   From: 2010.03.12/outbox.cif.g09.slc.cpg/sg65_15_cif.got.tgz:29749.got - 2010.04.10 20:52:16.
