data_PCOD8266543
_publ_section_title
;
Structure prediction by ZEFSAII (Michael W. Deem and Ramdas Pophale) SiO2 
 PCOD8266543
Probable space group: C M M M
;
_chemical_formula_sum "Si O2"
_cell_formula_units_Z 72
_cell_length_a 11.716545
_cell_length_b 28.383705
_cell_length_c 12.823701
_cell_angle_alpha 90.000000
_cell_angle_beta 90.000000
_cell_angle_gamma 90.000000
_cell_volume 4264.636628
_symmetry_space_group_name_H-M "C M M M"
_symmetry_group_IT_number 65
_symmetry_cell_setting 'orthorhombic'
loop_
_space_group_symop_operation_xyz
x,y,z
-x,-y,z
x,-y,-z
-x,y,-z
-x,-y,-z
x,y,-z
-x,y,z
x,-y,z
1/2+x,1/2+y,z
1/2-x,1/2-y,z
1/2+x,1/2-y,-z
1/2-x,1/2+y,-z
1/2-x,1/2-y,-z
1/2+x,1/2+y,-z
1/2-x,1/2+y,z
1/2+x,1/2-y,z
loop_
_atom_site_type_symbol
_atom_site_label
_atom_site_fract_x
_atom_site_fract_y
_atom_site_fract_z
Si Si1 0.000000 0.351496 0.376897
Si Si2 0.130002 0.056121 0.000000
Si Si3 0.748825 0.946097 0.794932
Si Si4 0.000000 0.552884 0.264497
Si Si5 0.223379 0.699245 0.378973
Si Si6 0.868928 0.888078 0.620335
O O1 0.000000 0.407008 0.352135
O O2 0.111464 0.325543 0.328878
O O3 0.000000 0.348074 0.500000
O O4 0.192676 0.076534 0.102682
O O5 0.000000 0.073864 0.000000
O O6 0.138323 0.000000 0.000000
O O7 0.612250 0.941123 0.807200
O O8 0.790659 0.921296 0.689957
O O9 0.787030 0.000000 0.784335
O O10 0.000000 0.500000 0.315321
O O11 0.197070 0.707411 0.500000
O O12 0.250000 0.750000 0.326137
O O13 0.333079 0.666110 0.362092
O O14 0.848935 0.902592 0.500000
O O15 0.000000 0.893715 0.653164
#
# Coordination Sequence:
#
# PCOD8266543 Si02
#       6
#     8   8  16   8  16  16
#     4  10  18  31  49  69 100 140 178 210 246 302
#     4   9  18  33  53  73  94 126 168 211 250 293
#     4  10  20  34  51  72  99 131 168 207 248 295
#     4  10  20  32  48  72 103 135 167 207 250 300
#     4   9  18  30  46  68  95 129 168 210 252 293
#     4  10  20  32  47  70 101 131 163 203 248 302
#
# _framework density 16.883033000000001
#
# number of rings (size 3 to 8) (size 9 to 14) (size 15 to 20)
#    0.000    2.333    2.222    0.667    1.556    2.444 
#    0.000    5.556    0.000    0.000    0.000    0.778 
#    0.000    0.000    0.000    0.000    0.000    0.000 
#
# Total GULP energy -446273.082268 kJ/mol
# GULP energy per Si atom -12396.474507 kJ/mol
# Density = 1.684461 g / cm^3
# Si number density = 16.883033 Si / 1000 Ang^3
#
#
#
# Elastic Constant Matrix: (Units=GPa)
#
#
# Indices 1 2 3 4 5 6 
#
# 1 133.7464 43.4153 44.1383 0.0000 0.0000 0.0000
# 2 43.4153 92.5847 32.5656 0.0000 0.0000 0.0000
# 3 44.1383 32.5656 65.9599 0.0000 0.0000 0.0000
# 4 0.0000 0.0000 0.0000 2.4652 0.0000 0.0000
# 5 0.0000 0.0000 0.0000 0.0000 21.2813 0.0000
# 6 0.0000 0.0000 0.0000 0.0000 0.0000 25.1653
#
#
#
# Elastic Compliance Matrix: (Units=1/GPa)
#
#
# Indices 1 2 3 4 5 6 
#
# 1 0.010194 -0.002881 -0.005399 0.000000 0.000000 0.000000
# 2 -0.002881 0.013885 -0.004927 0.000000 0.000000 0.000000
# 3 -0.005399 -0.004927 0.021206 0.000000 0.000000 0.000000
# 4 0.000000 0.000000 0.000000 0.405640 0.000000 0.000000
# 5 0.000000 0.000000 0.000000 0.000000 0.046990 0.000000
# 6 0.000000 0.000000 0.000000 0.000000 0.000000 0.039737
#
#
# Mechanical properties :
#
#
# Convention : Reuss Voigt Hill
#
# Bulk Modulus (GPa) = 52.99323 59.16994 56.08159
# Shear Modulus (GPa) = 8.76644 21.26049 15.01346
#
# Velocity S-wave (km/s) = 2.28117 3.55248 2.98529
# Velocity P-wave (km/s) = 6.19636 7.20763 6.72104
#
# Compressibility (1/GPa) = 0.01887033
#
# Stress axis : x y z
#
# Youngs Moduli (GPa) = 98.09889 72.01973 47.15601
#
# Poissons Ratio (x) = 0.20750 0.25459
# Poissons Ratio (y) = 0.28264 0.23235
# Poissons Ratio (z) = 0.52963 0.35487
#
# Static dielectric constant tensor:
#      x y z
#    x 3.507160 0.000000 0.000000 
#    y 0.000000 3.157610 0.000000 
#    z 0.000000 0.000000 2.866620 
# 
# 
# High freq. dielectric constant tensor:
#      x y z
#    x 1.673330 0.000000 0.000000 
#    y 0.000000 1.637780 0.000000 
#    z 0.000000 0.000000 1.603060 
# 
# From -- ./inp_files/22541.got.cif
#   From: 2010.03.12/outbox.cif.g09.slc.cpg/sg65_12_cif.got.tgz:22541.got - 2010.04.10 20:52:16.
