data_PCOD8266878
_publ_section_title
;
Structure prediction by ZEFSAII (Michael W. Deem and Ramdas Pophale) SiO2 
 PCOD8266878
Probable space group: C M M M
;
_chemical_formula_sum "Si O2"
_cell_formula_units_Z 56
_cell_length_a 8.611790
_cell_length_b 18.670909
_cell_length_c 17.742679
_cell_angle_alpha 90.000000
_cell_angle_beta 90.000000
_cell_angle_gamma 90.000000
_cell_volume 2852.844423
_symmetry_space_group_name_H-M "C M M M"
_symmetry_group_IT_number 65
_symmetry_cell_setting 'orthorhombic'
loop_
_space_group_symop_operation_xyz
x,y,z
-x,-y,z
x,-y,-z
-x,y,-z
-x,-y,-z
x,y,-z
-x,y,z
x,-y,z
1/2+x,1/2+y,z
1/2-x,1/2-y,z
1/2+x,1/2-y,-z
1/2-x,1/2+y,-z
1/2-x,1/2-y,-z
1/2+x,1/2+y,-z
1/2-x,1/2+y,z
1/2+x,1/2-y,z
loop_
_atom_site_type_symbol
_atom_site_label
_atom_site_fract_x
_atom_site_fract_y
_atom_site_fract_z
Si Si1 0.320183 0.083681 0.785728
Si Si2 0.683617 0.829516 0.500000
Si Si3 0.318538 0.673935 0.912565
Si Si4 0.818141 0.171542 0.347713
O O1 0.500000 0.101350 0.771891
O O2 0.268164 0.111833 0.867253
O O3 0.217731 0.120987 0.722145
O O4 0.286167 0.000000 0.783137
O O5 0.500000 0.830770 0.500000
O O6 0.750000 0.750000 0.500000
O O7 0.746009 0.865656 0.576948
O O8 0.500000 0.673181 0.893943
O O9 0.250000 0.750000 0.886980
O O10 0.284691 0.659415 0.000000
O O11 0.750000 0.250000 0.332209
O O12 0.000000 0.179444 0.359100
#
# Coordination Sequence:
#
# PCOD8266878 Si02
#       4
#    16   8  16  16
#     4  11  24  40  57  80 113 151 189 230 279 333
#     4  10  18  32  55  84 115 144 183 231 279 329
#     4  10  21  38  61  87 114 145 184 230 278 330
#     4  11  21  36  59  85 114 147 187 232 279 331
#
# _framework density 19.629531
#
# number of rings (size 3 to 8) (size 9 to 14) (size 15 to 20)
#    0.000    1.429    0.000    8.143    0.000    4.571 
#    0.000    3.571    0.000    4.286    0.000    0.000 
#    0.000    0.000    0.000    0.000    0.000    0.000 
#
# Total GULP energy -347303.961860 kJ/mol
# GULP energy per Si atom -12403.712924 kJ/mol
# Density = 1.958485 g / cm^3
# Si number density = 19.629531 Si / 1000 Ang^3
#
#
#
# Elastic Constant Matrix: (Units=GPa)
#
#
# Indices 1 2 3 4 5 6 
#
# 1 148.5393 50.7980 47.4220 0.0000 0.0000 0.0000
# 2 50.7980 85.0042 53.7298 0.0000 0.0000 0.0000
# 3 47.4220 53.7298 115.7514 0.0000 0.0000 0.0000
# 4 0.0000 0.0000 0.0000 4.3965 0.0000 0.0000
# 5 0.0000 0.0000 0.0000 0.0000 38.7237 0.0000
# 6 0.0000 0.0000 0.0000 0.0000 0.0000 28.3815
#
#
#
# Elastic Compliance Matrix: (Units=1/GPa)
#
#
# Indices 1 2 3 4 5 6 
#
# 1 0.008672 -0.004156 -0.001624 0.000000 0.000000 0.000000
# 2 -0.004156 0.018641 -0.006950 0.000000 0.000000 0.000000
# 3 -0.001624 -0.006950 0.012530 0.000000 0.000000 0.000000
# 4 0.000000 0.000000 0.000000 0.227454 0.000000 0.000000
# 5 0.000000 0.000000 0.000000 0.000000 0.025824 0.000000
# 6 0.000000 0.000000 0.000000 0.000000 0.000000 0.035234
#
#
# Mechanical properties :
#
#
# Convention : Reuss Voigt Hill
#
# Bulk Modulus (GPa) = 69.52289 72.57717 71.05003
# Shear Modulus (GPa) = 13.94274 27.45667 20.69971
#
# Velocity S-wave (km/s) = 2.66803 3.74403 3.25086
# Velocity P-wave (km/s) = 6.70713 7.46620 7.09682
#
# Compressibility (1/GPa) = 0.01438375
#
# Stress axis : x y z
#
# Youngs Moduli (GPa) = 115.31558 53.64598 79.80540
#
# Poissons Ratio (x) = 0.22295 0.12957
# Poissons Ratio (y) = 0.47925 0.55465
# Poissons Ratio (z) = 0.18723 0.37284
#
# Static dielectric constant tensor:
#      x y z
#    x 3.619980 0.000000 0.000000 
#    y 0.000000 3.321050 0.000000 
#    z 0.000000 0.000000 4.072940 
# 
# 
# High freq. dielectric constant tensor:
#      x y z
#    x 1.786290 0.000000 0.000000 
#    y 0.000000 1.734970 0.000000 
#    z 0.000000 0.000000 1.786180 
# 
# From -- ./inp_files/48758.got.cif
#   From: 2010.03.12/outbox.cif.g09.slc.cpg/sg65_25_cif.got.tgz:48758.got - 2010.04.10 20:52:16.
