data_PCOD8266101
_publ_section_title
;
Structure prediction by ZEFSAII (Michael W. Deem and Ramdas Pophale) SiO2 
 PCOD8266101
Probable space group: C M M M
;
_chemical_formula_sum "Si O2"
_cell_formula_units_Z 104
_cell_length_a 9.187994
_cell_length_b 28.832006
_cell_length_c 23.351783
_cell_angle_alpha 90.000000
_cell_angle_beta 90.000000
_cell_angle_gamma 90.000000
_cell_volume 6186.081093
_symmetry_space_group_name_H-M "C M M M"
_symmetry_group_IT_number 65
_symmetry_cell_setting 'orthorhombic'
loop_
_space_group_symop_operation_xyz
x,y,z
-x,-y,z
x,-y,-z
-x,y,-z
-x,-y,-z
x,y,-z
-x,y,z
x,-y,z
1/2+x,1/2+y,z
1/2-x,1/2-y,z
1/2+x,1/2-y,-z
1/2-x,1/2+y,-z
1/2-x,1/2-y,-z
1/2+x,1/2+y,-z
1/2-x,1/2+y,z
1/2+x,1/2-y,z
loop_
_atom_site_type_symbol
_atom_site_label
_atom_site_fract_x
_atom_site_fract_y
_atom_site_fract_z
Si Si1 0.840538 0.555088 0.500000
Si Si2 0.169697 0.106652 0.065366
Si Si3 0.672683 0.887241 0.271338
Si Si4 0.330252 0.703989 0.241663
Si Si5 0.667501 0.295134 0.107469
Si Si6 0.829808 0.446835 0.161847
Si Si7 0.326009 0.948123 0.377318
O O1 0.856894 0.500000 0.500000
O O2 0.762675 0.569156 0.560336
O O3 0.000000 0.578329 0.500000
O O4 0.227742 0.158911 0.076211
O O5 0.250418 0.069708 0.104658
O O6 0.000000 0.104883 0.080876
O O7 0.199884 0.092630 0.000000
O O8 0.500000 0.878732 0.271420
O O9 0.756713 0.838968 0.273434
O O10 0.721112 0.916612 0.215965
O O11 0.727476 0.914306 0.327486
O O12 0.500000 0.706830 0.257116
O O13 0.250000 0.750000 0.264072
O O14 0.303915 0.697901 0.174405
O O15 0.500000 0.286986 0.093024
O O16 0.750000 0.250000 0.083699
O O17 0.788060 0.500000 0.174234
O O18 0.000000 0.441070 0.151300
O O19 0.500000 0.948776 0.380461
O O20 0.269549 0.000000 0.363340
#
# Coordination Sequence:
#
# PCOD8266101 Si02
#       7
#     8  16  16  16  16  16  16
#     4   7  10  18  34  60  96 133 164 195 230 267
#     4  10  21  37  53  69  91 120 155 193 235 284
#     4  10  18  29  48  73  99 126 157 193 235 278
#     4  10  19  32  50  71  96 123 153 190 235 284
#     4   9  18  32  50  71  93 116 144 182 229 281
#     4  10  21  35  50  69  94 123 156 195 235 274
#     4   8  13  22  39  66 100 134 165 196 230 271
#
# _framework density 16.811935999999999
#
# number of rings (size 3 to 8) (size 9 to 14) (size 15 to 20)
#    0.000    2.692    1.538    1.846    0.000    4.308 
#    0.000    1.538    0.000    1.385    0.000    1.077 
#    0.000    1.846    0.000    0.000    0.000    0.000 
#
# Total GULP energy -644603.877822 kJ/mol
# GULP energy per Si atom -12396.228420 kJ/mol
# Density = 1.677367 g / cm^3
# Si number density = 16.811936 Si / 1000 Ang^3
#
#
#
# Elastic Constant Matrix: (Units=GPa)
#
#
# Indices 1 2 3 4 5 6 
#
# 1 40.4192 42.6195 33.5298 0.0000 0.0000 0.0000
# 2 42.6195 121.3200 62.1154 0.0000 0.0000 0.0000
# 3 33.5298 62.1154 109.3789 0.0000 0.0000 0.0000
# 4 0.0000 0.0000 0.0000 22.1439 0.0000 0.0000
# 5 0.0000 0.0000 0.0000 0.0000 9.9842 0.0000
# 6 0.0000 0.0000 0.0000 0.0000 0.0000 28.1884
#
#
#
# Elastic Compliance Matrix: (Units=1/GPa)
#
#
# Indices 1 2 3 4 5 6 
#
# 1 0.042230 -0.011572 -0.006374 0.000000 0.000000 0.000000
# 2 -0.011572 0.014793 -0.004853 0.000000 0.000000 0.000000
# 3 -0.006374 -0.004853 0.013853 0.000000 0.000000 0.000000
# 4 0.000000 0.000000 0.000000 0.045159 0.000000 0.000000
# 5 0.000000 0.000000 0.000000 0.000000 0.100158 0.000000
# 6 0.000000 0.000000 0.000000 0.000000 0.000000 0.035476
#
#
# Mechanical properties :
#
#
# Convention : Reuss Voigt Hill
#
# Bulk Modulus (GPa) = 39.56157 60.84972 50.20564
# Shear Modulus (GPa) = 16.35632 20.92020 18.63826
#
# Velocity S-wave (km/s) = 3.12252 3.53138 3.33323
# Velocity P-wave (km/s) = 6.04839 7.27327 6.68893
#
# Compressibility (1/GPa) = 0.02527706
#
# Stress axis : x y z
#
# Youngs Moduli (GPa) = 23.67986 67.60071 72.18867
#
# Poissons Ratio (x) = 0.78227 0.46012
# Poissons Ratio (y) = 0.27402 0.35036
# Poissons Ratio (z) = 0.15093 0.32809
#
# Static dielectric constant tensor:
#      x y z
#    x 2.892420 0.000000 0.000000 
#    y 0.000000 3.148800 0.000000 
#    z 0.000000 0.000000 3.309090 
# 
# 
# High freq. dielectric constant tensor:
#      x y z
#    x 1.619410 0.000000 0.000000 
#    y 0.000000 1.642410 0.000000 
#    z 0.000000 0.000000 1.640220 
# 
# From -- ./inp_files/60877.got.cif
#   From: 2010.03.12/outbox.cif.g09.slc.cpg/sg65_31_cif.got.tgz:60877.got - 2010.04.10 20:52:16.
