data_PCOD8266734
_publ_section_title
;
Structure prediction by ZEFSAII (Michael W. Deem and Ramdas Pophale) SiO2 
 PCOD8266734
Probable space group: C M M M
;
_chemical_formula_sum "Si O2"
_cell_formula_units_Z 104
_cell_length_a 23.877802
_cell_length_b 8.714999
_cell_length_c 28.296428
_cell_angle_alpha 90.000000
_cell_angle_beta 90.000000
_cell_angle_gamma 90.000000
_cell_volume 5888.345766
_symmetry_space_group_name_H-M "C M M M"
_symmetry_group_IT_number 65
_symmetry_cell_setting 'orthorhombic'
loop_
_space_group_symop_operation_xyz
x,y,z
-x,-y,z
x,-y,-z
-x,y,-z
-x,-y,-z
x,y,-z
-x,y,z
x,-y,z
1/2+x,1/2+y,z
1/2-x,1/2-y,z
1/2+x,1/2-y,-z
1/2-x,1/2+y,-z
1/2-x,1/2-y,-z
1/2+x,1/2+y,-z
1/2-x,1/2+y,z
1/2+x,1/2-y,z
loop_
_atom_site_type_symbol
_atom_site_label
_atom_site_fract_x
_atom_site_fract_y
_atom_site_fract_z
Si Si1 0.434118 0.819712 0.602603
Si Si2 0.121837 0.678888 0.860312
Si Si3 0.000000 0.676658 0.164815
Si Si4 0.188727 0.682487 0.768902
Si Si5 0.061157 0.681081 0.500000
Si Si6 0.000000 0.822017 0.737514
Si Si7 0.309902 0.181978 0.052399
Si Si8 0.387648 0.681620 0.307771
O O1 0.500000 0.773111 0.608601
O O2 0.410654 0.772141 0.550060
O O3 0.392359 0.729126 0.637471
O O4 0.427432 0.000000 0.611629
O O5 0.134313 0.500000 0.859802
O O6 0.149217 0.744607 0.811912
O O7 0.148678 0.750482 0.907737
O O8 0.055680 0.712664 0.864954
O O9 0.000000 0.793596 0.207424
O O10 0.000000 0.500000 0.182848
O O11 0.191814 0.500000 0.767602
O O12 0.250000 0.750000 0.777123
O O13 0.164669 0.741466 0.718854
O O14 0.053811 0.500000 0.500000
O O15 0.000000 0.757427 0.500000
O O16 0.944205 0.749108 0.715462
O O17 0.000000 0.000000 0.725798
O O18 0.250000 0.250000 0.064264
O O19 0.306184 0.000000 0.054905
O O20 0.330183 0.233886 0.000000
O O21 0.381571 0.500000 0.302728
#
# Coordination Sequence:
#
# PCOD8266734 Si02
#       8
#    16  16   8  16   8   8  16  16
#     4   9  16  27  46  70  98 133 170 205 244 290
#     4   9  18  31  50  74  98 126 161 200 240 290
#     4  10  18  32  51  70  95 129 166 198 236 294
#     4  11  22  36  52  72  97 128 165 205 250 295
#     4   7  12  24  41  65  96 129 166 205 241 284
#     4  10  20  32  46  68 100 131 165 204 243 284
#     4   9  17  31  50  72  97 125 160 202 246 290
#     4  11  21  33  48  71 102 133 166 205 247 294
#
# _framework density 17.662006000000002
#
# number of rings (size 3 to 8) (size 9 to 14) (size 15 to 20)
#    0.000    2.385    2.308    2.308    0.000    0.615 
#    0.000    2.308    0.000    3.692    0.000    0.538 
#    0.000    3.077    0.000    0.000    0.000    0.000 
#
# Total GULP energy -644377.510494 kJ/mol
# GULP energy per Si atom -12391.875202 kJ/mol
# Density = 1.762181 g / cm^3
# Si number density = 17.662006 Si / 1000 Ang^3
#
#
#
# Elastic Constant Matrix: (Units=GPa)
#
#
# Indices 1 2 3 4 5 6 
#
# 1 105.6257 24.4859 64.1589 0.0000 0.0000 0.0000
# 2 24.4859 36.8803 23.8701 0.0000 0.0000 0.0000
# 3 64.1589 23.8701 147.6849 0.0000 0.0000 0.0000
# 4 0.0000 0.0000 0.0000 16.1548 0.0000 0.0000
# 5 0.0000 0.0000 0.0000 0.0000 18.8444 0.0000
# 6 0.0000 0.0000 0.0000 0.0000 0.0000 21.5271
#
#
#
# Elastic Compliance Matrix: (Units=1/GPa)
#
#
# Indices 1 2 3 4 5 6 
#
# 1 0.013943 -0.005960 -0.005094 0.000000 0.000000 0.000000
# 2 -0.005960 0.032831 -0.002717 0.000000 0.000000 0.000000
# 3 -0.005094 -0.002717 0.009423 0.000000 0.000000 0.000000
# 4 0.000000 0.000000 0.000000 0.061901 0.000000 0.000000
# 5 0.000000 0.000000 0.000000 0.000000 0.053066 0.000000
# 6 0.000000 0.000000 0.000000 0.000000 0.000000 0.046453
#
#
# Mechanical properties :
#
#
# Convention : Reuss Voigt Hill
#
# Bulk Modulus (GPa) = 34.89865 57.24674 46.07269
# Shear Modulus (GPa) = 19.63004 23.15033 21.39019
#
# Velocity S-wave (km/s) = 3.33742 3.62434 3.48384
# Velocity P-wave (km/s) = 5.88670 7.07087 6.50579
#
# Compressibility (1/GPa) = 0.02865440
#
# Stress axis : x y z
#
# Youngs Moduli (GPa) = 71.71888 30.45943 106.11970
#
# Poissons Ratio (x) = 0.18155 0.54058
# Poissons Ratio (y) = 0.42747 0.28833
# Poissons Ratio (z) = 0.36534 0.08276
#
# Static dielectric constant tensor:
#      x y z
#    x 3.165590 0.000000 0.000000 
#    y 0.000000 2.992850 0.000000 
#    z 0.000000 0.000000 3.645860 
# 
# 
# High freq. dielectric constant tensor:
#      x y z
#    x 1.655260 0.000000 0.000000 
#    y 0.000000 1.660430 0.000000 
#    z 0.000000 0.000000 1.691960 
# 
# From -- ./inp_files/71906.got.cif
#   From: 2010.03.12/outbox.cif.g09.slc.cpg/sg65_36_cif.got.tgz:71906.got - 2010.04.10 20:52:16.
