data_PCOD8266074
_publ_section_title
;
Structure prediction by ZEFSAII (Michael W. Deem and Ramdas Pophale) SiO2 
 PCOD8266074
Probable space group: C M M M
;
_chemical_formula_sum "Si O2"
_cell_formula_units_Z 88
_cell_length_a 18.720100
_cell_length_b 8.780816
_cell_length_c 28.935011
_cell_angle_alpha 90.000000
_cell_angle_beta 90.000000
_cell_angle_gamma 90.000000
_cell_volume 4756.272109
_symmetry_space_group_name_H-M "C M M M"
_symmetry_group_IT_number 65
_symmetry_cell_setting 'orthorhombic'
loop_
_space_group_symop_operation_xyz
x,y,z
-x,-y,z
x,-y,-z
-x,y,-z
-x,-y,-z
x,y,-z
-x,y,z
x,-y,z
1/2+x,1/2+y,z
1/2-x,1/2-y,z
1/2+x,1/2-y,-z
1/2-x,1/2+y,-z
1/2-x,1/2-y,-z
1/2+x,1/2+y,-z
1/2-x,1/2+y,z
1/2+x,1/2-y,z
loop_
_atom_site_type_symbol
_atom_site_label
_atom_site_fract_x
_atom_site_fract_y
_atom_site_fract_z
Si Si1 0.080754 0.180822 0.412589
Si Si2 0.328699 0.319532 0.325343
Si Si3 0.173116 0.678139 0.133210
Si Si4 0.827421 0.678131 0.765985
Si Si5 0.671263 0.318955 0.500000
Si Si6 0.579676 0.819186 0.949336
O O1 0.119672 0.237519 0.366124
O O2 0.127297 0.240462 0.455653
O O3 0.000000 0.247438 0.414727
O O4 0.076995 0.000000 0.413902
O O5 0.321850 0.500000 0.324601
O O6 0.250000 0.250000 0.332362
O O7 0.365576 0.260844 0.277400
O O8 0.182614 0.500000 0.125325
O O9 0.250000 0.750000 0.130191
O O10 0.136172 0.707943 0.183728
O O11 0.125927 0.751787 0.092312
O O12 0.821987 0.500000 0.755077
O O13 0.750000 0.750000 0.769399
O O14 0.678517 0.500000 0.500000
O O15 0.750000 0.250000 0.500000
O O16 0.500000 0.753360 0.944464
O O17 0.577546 0.000000 0.944790
O O18 0.610855 0.773187 0.000000
#
# Coordination Sequence:
#
# PCOD8266074 Si02
#       6
#    16  16  16  16   8  16
#     4   9  18  32  50  72  96 124 157 189 223 266
#     4  10  18  29  48  70  92 119 153 191 224 262
#     4   9  17  28  44  67  91 115 146 185 226 266
#     4   9  16  27  43  64  91 120 150 184 223 267
#     4  10  19  33  55  77  97 122 154 192 228 268
#     4   8  14  26  44  64  86 114 148 183 219 264
#
# _framework density 18.501885000000001
#
# number of rings (size 3 to 8) (size 9 to 14) (size 15 to 20)
#    0.000    2.909    0.000    3.545    0.000    2.182 
#    0.000    1.818    0.000    7.091    0.000    1.273 
#    0.000    0.000    0.000    0.000    0.000    0.000 
#
# Total GULP energy -545154.062809 kJ/mol
# GULP energy per Si atom -12389.865064 kJ/mol
# Density = 1.845977 g / cm^3
# Si number density = 18.501885 Si / 1000 Ang^3
#
#
#
# Elastic Constant Matrix: (Units=GPa)
#
#
# Indices 1 2 3 4 5 6 
#
# 1 103.3132 19.7940 87.5807 0.0000 0.0000 0.0000
# 2 19.7940 40.8392 34.8715 0.0000 0.0000 0.0000
# 3 87.5807 34.8715 214.9880 0.0000 0.0000 0.0000
# 4 0.0000 0.0000 0.0000 15.6934 0.0000 0.0000
# 5 0.0000 0.0000 0.0000 0.0000 17.2858 0.0000
# 6 0.0000 0.0000 0.0000 0.0000 0.0000 14.9715
#
#
#
# Elastic Compliance Matrix: (Units=1/GPa)
#
#
# Indices 1 2 3 4 5 6 
#
# 1 0.014982 -0.002380 -0.005717 0.000000 0.000000 0.000000
# 2 -0.002380 0.028801 -0.003702 0.000000 0.000000 0.000000
# 3 -0.005717 -0.003702 0.007581 0.000000 0.000000 0.000000
# 4 0.000000 0.000000 0.000000 0.063721 0.000000 0.000000
# 5 0.000000 0.000000 0.000000 0.000000 0.057851 0.000000
# 6 0.000000 0.000000 0.000000 0.000000 0.000000 0.066794
#
#
# Mechanical properties :
#
#
# Convention : Reuss Voigt Hill
#
# Bulk Modulus (GPa) = 36.01584 71.51476 53.76530
# Shear Modulus (GPa) = 18.34307 24.04975 21.19641
#
# Velocity S-wave (km/s) = 3.15209 3.60926 3.38839
# Velocity P-wave (km/s) = 5.72327 7.49037 6.66564
#
# Compressibility (1/GPa) = 0.02776556
#
# Stress axis : x y z
#
# Youngs Moduli (GPa) = 66.74736 34.72129 131.90900
#
# Poissons Ratio (x) = 0.08262 0.75416
# Poissons Ratio (y) = 0.15883 0.48834
# Poissons Ratio (z) = 0.38161 0.12854
#
# Static dielectric constant tensor:
#      x y z
#    x 3.316550 0.000000 0.000000 
#    y 0.000000 3.086340 0.000000 
#    z 0.000000 0.000000 4.317520 
# 
# 
# High freq. dielectric constant tensor:
#      x y z
#    x 1.686660 0.000000 0.000000 
#    y 0.000000 1.683230 0.000000 
#    z 0.000000 0.000000 1.747930 
# 
# From -- ./inp_files/77859.got.cif
#   From: 2010.03.12/outbox.cif.g09.slc.cpg/sg65_39_cif.got.tgz:77859.got - 2010.04.10 20:52:16.
