data_PCOD8266901
_publ_section_title
;
Structure prediction by ZEFSAII (Michael W. Deem and Ramdas Pophale) SiO2 
 PCOD8266901
Probable space group: C M M M
;
_chemical_formula_sum "Si O2"
_cell_formula_units_Z 88
_cell_length_a 22.214123
_cell_length_b 13.725618
_cell_length_c 15.109022
_cell_angle_alpha 90.000000
_cell_angle_beta 90.000000
_cell_angle_gamma 90.000000
_cell_volume 4606.779585
_symmetry_space_group_name_H-M "C M M M"
_symmetry_group_IT_number 65
_symmetry_cell_setting 'orthorhombic'
loop_
_space_group_symop_operation_xyz
x,y,z
-x,-y,z
x,-y,-z
-x,y,-z
-x,-y,-z
x,y,-z
-x,y,z
x,-y,z
1/2+x,1/2+y,z
1/2-x,1/2-y,z
1/2+x,1/2-y,-z
1/2-x,1/2+y,-z
1/2-x,1/2-y,-z
1/2+x,1/2+y,-z
1/2-x,1/2+y,z
1/2+x,1/2-y,z
loop_
_atom_site_type_symbol
_atom_site_label
_atom_site_fract_x
_atom_site_fract_y
_atom_site_fract_z
Si Si1 0.344854 0.195681 0.352824
Si Si2 0.216684 0.105863 0.651198
Si Si3 0.429509 0.115102 0.500000
Si Si4 0.762135 0.859489 0.158041
Si Si5 0.570352 0.792609 0.000000
Si Si6 0.632176 0.891743 0.835836
Si Si7 0.351885 0.389489 0.000000
O O1 0.284213 0.136778 0.377308
O O2 0.332147 0.310665 0.371932
O O3 0.399539 0.161633 0.413479
O O4 0.365558 0.175963 0.251677
O O5 0.215110 0.084890 0.755885
O O6 0.201214 0.000000 0.606681
O O7 0.500000 0.141449 0.500000
O O8 0.419145 0.000000 0.500000
O O9 0.750000 0.750000 0.189780
O O10 0.699187 0.902648 0.122904
O O11 0.812137 0.866417 0.084488
O O12 0.590683 0.845955 0.089166
O O13 0.500000 0.791806 0.000000
O O14 0.591313 0.680821 0.000000
O O15 0.608028 0.000000 0.811656
O O16 0.375173 0.500000 0.000000
#
# Coordination Sequence:
#
# PCOD8266901 Si02
#       7
#    16  16   8  16   8  16   8
#     4  10  20  38  58  86 119 146 183 232 279 335
#     4  10  18  32  58  89 120 149 175 216 283 353
#     4  11  24  41  61  83 109 149 199 240 276 323
#     4  11  17  33  54  84 115 142 178 225 281 337
#     4  12  26  40  52  75 109 147 197 243 276 324
#     4  11  21  36  58  83 114 146 177 227 290 344
#     4  12  22  34  54  75 107 152 192 234 283 331
#
# _framework density 19.102281999999999
#
# number of rings (size 3 to 8) (size 9 to 14) (size 15 to 20)
#    0.000    1.182    5.455    5.455    0.000    3.091 
#    0.000    1.364    0.000    1.091    0.000    0.000 
#    0.000    0.000    0.000    0.000    0.000    0.000 
#
# Total GULP energy -545381.489373 kJ/mol
# GULP energy per Si atom -12395.033849 kJ/mol
# Density = 1.905880 g / cm^3
# Si number density = 19.102282 Si / 1000 Ang^3
#
#
#
# Elastic Constant Matrix: (Units=GPa)
#
#
# Indices 1 2 3 4 5 6 
#
# 1 122.1344 51.8746 57.0082 0.0000 0.0000 0.0000
# 2 51.8746 173.2408 33.2516 0.0000 0.0000 0.0000
# 3 57.0082 33.2516 80.0884 0.0000 0.0000 0.0000
# 4 0.0000 0.0000 0.0000 11.9993 0.0000 0.0000
# 5 0.0000 0.0000 0.0000 0.0000 24.9234 0.0000
# 6 0.0000 0.0000 0.0000 0.0000 0.0000 -0.6375
#
#
#
# Elastic Compliance Matrix: (Units=1/GPa)
#
#
# Indices 1 2 3 4 5 6 
#
# 1 0.013061 -0.002311 -0.008338 0.000000 0.000000 0.000000
# 2 -0.002311 0.006681 -0.001129 0.000000 0.000000 0.000000
# 3 -0.008338 -0.001129 0.018890 0.000000 0.000000 0.000000
# 4 0.000000 0.000000 0.000000 0.083338 0.000000 0.000000
# 5 0.000000 0.000000 0.000000 0.000000 0.040123 0.000000
# 6 0.000000 0.000000 0.000000 0.000000 0.000000 -1.568607
#
#
# Mechanical properties :
#
#
# Convention : Reuss Voigt Hill
#
# Bulk Modulus (GPa) = 66.32620 73.30361 69.81491
# Shear Modulus (GPa) = -3.62862 22.81233 9.59185
#
# Velocity S-wave (km/s) = -1.37975 3.45950 2.24326
# Velocity P-wave (km/s) = 5.67968 7.37666 6.58308
#
# Compressibility (1/GPa) = 0.01507700
#
# Stress axis : x y z
#
# Youngs Moduli (GPa) = 76.56511 149.68041 52.93861
#
# Poissons Ratio (x) = 0.34585 0.44138
# Poissons Ratio (y) = 0.17691 0.05977
# Poissons Ratio (z) = 0.63837 0.16901
#
# Static dielectric constant tensor:
#      x y z
#    x 3.225390 0.000000 0.000000 
#    y 0.000000 3.924640 0.000000 
#    z 0.000000 0.000000 3.327040 
# 
# 
# High freq. dielectric constant tensor:
#      x y z
#    x 1.701150 0.000000 0.000000 
#    y 0.000000 1.762950 0.000000 
#    z 0.000000 0.000000 1.741050 
# 
# From -- ./inp_files/44062.got.cif
#   From: 2010.03.12/outbox.cif.g09.slc.cpg/sg65_23_cif.got.tgz:44062.got - 2010.04.10 20:52:16.
