data_PCOD8266895
_publ_section_title
;
Structure prediction by ZEFSAII (Michael W. Deem and Ramdas Pophale) SiO2 
 PCOD8266895
Probable space group: C M M M
;
_chemical_formula_sum "Si O2"
_cell_formula_units_Z 72
_cell_length_a 22.734790
_cell_length_b 19.087011
_cell_length_c 8.834908
_cell_angle_alpha 90.000000
_cell_angle_beta 90.000000
_cell_angle_gamma 90.000000
_cell_volume 3833.812793
_symmetry_space_group_name_H-M "C M M M"
_symmetry_group_IT_number 65
_symmetry_cell_setting 'orthorhombic'
loop_
_space_group_symop_operation_xyz
x,y,z
-x,-y,z
x,-y,-z
-x,y,-z
-x,-y,-z
x,y,-z
-x,y,z
x,-y,z
1/2+x,1/2+y,z
1/2-x,1/2-y,z
1/2+x,1/2-y,-z
1/2-x,1/2+y,-z
1/2-x,1/2-y,-z
1/2+x,1/2+y,-z
1/2-x,1/2+y,z
1/2+x,1/2-y,z
loop_
_atom_site_type_symbol
_atom_site_label
_atom_site_fract_x
_atom_site_fract_y
_atom_site_fract_z
Si Si1 0.000000 0.421365 0.820016
Si Si2 0.434903 0.676236 0.820786
Si Si3 0.329158 0.581362 0.822915
Si Si4 0.107018 0.673264 0.820134
Si Si5 0.730535 0.173407 0.678693
O O1 0.058132 0.381509 0.762246
O O2 0.000000 0.500000 0.753841
O O3 0.000000 0.422188 0.000000
O O4 0.500000 0.661319 0.753508
O O5 0.391143 0.614556 0.770094
O O6 0.410727 0.750059 0.758718
O O7 0.439185 0.680781 0.000000
O O8 0.331704 0.500000 0.783614
O O9 0.277261 0.615791 0.728532
O O10 0.317957 0.595220 0.000000
O O11 0.168841 0.650935 0.750239
O O12 0.112504 0.672538 0.000000
O O13 0.724477 0.173456 0.500000
O O14 0.750000 0.250000 0.738910
#
# Coordination Sequence:
#
# PCOD8266895 Si02
#       5
#     8  16  16  16  16
#     4   9  18  32  53  85 116 138 171 222 275 328
#     4   9  16  29  53  83 110 138 176 222 273 325
#     4  10  21  36  56  83 112 143 181 226 275 325
#     4  10  18  32  57  82 107 143 182 223 271 323
#     4  11  23  37  55  80 110 147 188 228 273 323
#
# _framework density 18.780259000000001
#
# number of rings (size 3 to 8) (size 9 to 14) (size 15 to 20)
#    0.000    2.111    3.333    0.667    0.000    2.667 
#    0.000    5.000    0.000    2.667    0.000    1.556 
#    0.000    0.000    0.000    0.000    0.000    0.000 
#
# Total GULP energy -446453.990193 kJ/mol
# GULP energy per Si atom -12401.499728 kJ/mol
# Density = 1.873751 g / cm^3
# Si number density = 18.780259 Si / 1000 Ang^3
#
#
#
# Elastic Constant Matrix: (Units=GPa)
#
#
# Indices 1 2 3 4 5 6 
#
# 1 175.6807 68.8877 28.6097 0.0000 0.0000 0.0000
# 2 68.8877 140.3610 23.5292 0.0000 0.0000 0.0000
# 3 28.6097 23.5292 27.6727 0.0000 0.0000 0.0000
# 4 0.0000 0.0000 0.0000 16.9648 0.0000 0.0000
# 5 0.0000 0.0000 0.0000 0.0000 -1.1279 0.0000
# 6 0.0000 0.0000 0.0000 0.0000 0.0000 35.4156
#
#
#
# Elastic Compliance Matrix: (Units=1/GPa)
#
#
# Indices 1 2 3 4 5 6 
#
# 1 0.007716 -0.002857 -0.005548 0.000000 0.000000 0.000000
# 2 -0.002857 0.009367 -0.005010 0.000000 0.000000 0.000000
# 3 -0.005548 -0.005010 0.046133 0.000000 0.000000 0.000000
# 4 0.000000 0.000000 0.000000 0.058946 0.000000 0.000000
# 5 0.000000 0.000000 0.000000 0.000000 -0.886617 0.000000
# 6 0.000000 0.000000 0.000000 0.000000 0.000000 0.028236
#
#
# Mechanical properties :
#
#
# Convention : Reuss Voigt Hill
#
# Bulk Modulus (GPa) = 27.48423 65.08529 46.28476
# Shear Modulus (GPa) = -7.17092 25.09637 8.96273
#
# Velocity S-wave (km/s) = -1.95617 3.65953 2.18696
# Velocity P-wave (km/s) = 3.09261 7.25174 5.57458
#
# Compressibility (1/GPa) = 0.03638450
#
# Stress axis : x y z
#
# Youngs Moduli (GPa) = 129.60318 106.76336 21.67651
#
# Poissons Ratio (x) = 0.30500 0.12026
# Poissons Ratio (y) = 0.37025 0.10861
# Poissons Ratio (z) = 0.71905 0.53494
#
# Static dielectric constant tensor:
#      x y z
#    x 3.678520 0.000000 0.000000 
#    y 0.000000 3.548640 0.000000 
#    z 0.000000 0.000000 2.975410 
# 
# 
# High freq. dielectric constant tensor:
#      x y z
#    x 1.748140 0.000000 0.000000 
#    y 0.000000 1.730150 0.000000 
#    z 0.000000 0.000000 1.684560 
# 
# From -- ./inp_files/9201.got.cif
#   From: 2010.03.12/outbox.cif.g09.slc.cpg/sg65_5_cif.got.tgz:9201.got - 2010.04.10 20:52:16.
