data_PCOD8266793
_publ_section_title
;
Structure prediction by ZEFSAII (Michael W. Deem and Ramdas Pophale) SiO2 
 PCOD8266793
Probable space group: C M M M
;
_chemical_formula_sum "Si O2"
_cell_formula_units_Z 96
_cell_length_a 19.005335
_cell_length_b 8.697859
_cell_length_c 30.972484
_cell_angle_alpha 90.000000
_cell_angle_beta 90.000000
_cell_angle_gamma 90.000000
_cell_volume 5119.928894
_symmetry_space_group_name_H-M "C M M M"
_symmetry_group_IT_number 65
_symmetry_cell_setting 'orthorhombic'
loop_
_space_group_symop_operation_xyz
x,y,z
-x,-y,z
x,-y,-z
-x,y,-z
-x,-y,-z
x,y,-z
-x,y,z
x,-y,z
1/2+x,1/2+y,z
1/2-x,1/2-y,z
1/2+x,1/2-y,-z
1/2-x,1/2+y,-z
1/2-x,1/2-y,-z
1/2+x,1/2+y,-z
1/2-x,1/2+y,z
1/2+x,1/2-y,z
loop_
_atom_site_type_symbol
_atom_site_label
_atom_site_fract_x
_atom_site_fract_y
_atom_site_fract_z
Si Si1 0.172102 0.182407 0.206603
Si Si2 0.081759 0.175833 0.950584
Si Si3 0.916509 0.672766 0.452811
Si Si4 0.826734 0.680391 0.706443
Si Si5 0.173708 0.679569 0.879736
Si Si6 0.917155 0.824144 0.366421
O O1 0.250000 0.250000 0.205885
O O2 0.137027 0.246544 0.250526
O O3 0.136202 0.244142 0.162559
O O4 0.171168 0.000000 0.207256
O O5 0.125363 0.290947 0.920969
O O6 0.000000 0.208648 0.943099
O O7 0.099965 0.000000 0.938634
O O8 0.102361 0.209218 0.000000
O O9 0.888936 0.729956 0.500000
O O10 0.889065 0.500000 0.443944
O O11 0.889789 0.783915 0.414680
O O12 0.000000 0.673027 0.453496
O O13 0.818456 0.500000 0.713080
O O14 0.750000 0.750000 0.697287
O O15 0.877816 0.714423 0.666831
O O16 0.182175 0.500000 0.871553
O O17 0.250000 0.750000 0.888748
O O18 0.000000 0.793012 0.362116
O O19 0.897977 0.000000 0.356579
#
# Coordination Sequence:
#
# PCOD8266793 Si02
#       6
#    16  16  16  16  16  16
#     4  10  18  32  53  76 103 133 169 210 254 303
#     4   9  19  37  58  78 104 139 175 211 256 309
#     4   8  14  26  45  69  97 130 168 208 251 300
#     4  11  21  35  55  77 103 135 173 211 252 306
#     4  11  21  34  54  80 108 136 171 214 257 300
#     4  10  20  33  50  75 106 136 169 211 257 302
#
# _framework density 18.750260999999998
#
# number of rings (size 3 to 8) (size 9 to 14) (size 15 to 20)
#    0.000    2.167    0.000    8.000    0.000    2.333 
#    0.000    3.333    0.000    5.500    0.000    0.000 
#    0.000    0.000    0.000    0.000    0.000    0.000 
#
# Total GULP energy -595055.961151 kJ/mol
# GULP energy per Si atom -12396.999191 kJ/mol
# Density = 1.870759 g / cm^3
# Si number density = 18.750261 Si / 1000 Ang^3
#
#
#
# Elastic Constant Matrix: (Units=GPa)
#
#
# Indices 1 2 3 4 5 6 
#
# 1 36.2303 30.2189 41.8033 0.0000 0.0000 0.0000
# 2 30.2189 146.4857 59.4083 0.0000 0.0000 0.0000
# 3 41.8033 59.4083 145.6294 0.0000 0.0000 0.0000
# 4 0.0000 0.0000 0.0000 38.1997 0.0000 0.0000
# 5 0.0000 0.0000 0.0000 0.0000 25.9771 0.0000
# 6 0.0000 0.0000 0.0000 0.0000 0.0000 23.0241
#
#
#
# Elastic Compliance Matrix: (Units=1/GPa)
#
#
# Indices 1 2 3 4 5 6 
#
# 1 0.043835 -0.004721 -0.010657 0.000000 0.000000 0.000000
# 2 -0.004721 0.008688 -0.002189 0.000000 0.000000 0.000000
# 3 -0.010657 -0.002189 0.010819 0.000000 0.000000 0.000000
# 4 0.000000 0.000000 0.000000 0.026178 0.000000 0.000000
# 5 0.000000 0.000000 0.000000 0.000000 0.038495 0.000000
# 6 0.000000 0.000000 0.000000 0.000000 0.000000 0.043433
#
#
# Mechanical properties :
#
#
# Convention : Reuss Voigt Hill
#
# Bulk Modulus (GPa) = 35.45073 65.68958 50.57016
# Shear Modulus (GPa) = 23.14964 30.56784 26.85874
#
# Velocity S-wave (km/s) = 3.51754 4.04203 3.78887
# Velocity P-wave (km/s) = 5.95360 7.54281 6.79483
#
# Compressibility (1/GPa) = 0.02820816
#
# Stress axis : x y z
#
# Youngs Moduli (GPa) = 22.81269 115.09712 92.42995
#
# Poissons Ratio (x) = 0.54335 0.98505
# Poissons Ratio (y) = 0.10769 0.20235
# Poissons Ratio (z) = 0.24312 0.25197
#
# Static dielectric constant tensor:
#      x y z
#    x 2.951930 0.000000 0.000000 
#    y 0.000000 3.462950 0.000000 
#    z 0.000000 0.000000 4.149240 
# 
# 
# High freq. dielectric constant tensor:
#      x y z
#    x 1.675460 0.000000 0.000000 
#    y 0.000000 1.737590 0.000000 
#    z 0.000000 0.000000 1.751750 
# 
# From -- ./inp_files/75352.got.cif
#   From: 2010.03.12/outbox.cif.g09.slc.cpg/sg65_38_cif.got.tgz:75352.got - 2010.04.10 20:52:16.
