data_PCOD8266110
_publ_section_title
;
Structure prediction by ZEFSAII (Michael W. Deem and Ramdas Pophale) SiO2 
 PCOD8266110
Probable space group: C M M M
;
_chemical_formula_sum "Si O2"
_cell_formula_units_Z 68
_cell_length_a 8.741714
_cell_length_b 20.999793
_cell_length_c 17.575941
_cell_angle_alpha 90.000000
_cell_angle_beta 90.000000
_cell_angle_gamma 90.000000
_cell_volume 3226.489035
_symmetry_space_group_name_H-M "C M M M"
_symmetry_group_IT_number 65
_symmetry_cell_setting 'orthorhombic'
loop_
_space_group_symop_operation_xyz
x,y,z
-x,-y,z
x,-y,-z
-x,y,-z
-x,-y,-z
x,y,-z
-x,y,z
x,-y,z
1/2+x,1/2+y,z
1/2-x,1/2-y,z
1/2+x,1/2-y,-z
1/2-x,1/2+y,-z
1/2-x,1/2-y,-z
1/2+x,1/2+y,-z
1/2-x,1/2+y,z
1/2+x,1/2-y,z
loop_
_atom_site_type_symbol
_atom_site_label
_atom_site_fract_x
_atom_site_fract_y
_atom_site_fract_z
Si Si1 0.682074 0.685310 0.689163
Si Si2 0.683155 0.132597 0.834690
Si Si3 0.681524 0.429376 0.414605
Si Si4 0.746848 0.000000 0.000000
Si Si5 0.169093 0.000000 0.835872
Si Si6 0.665078 0.137464 0.000000
O O1 0.500000 0.687866 0.690269
O O2 0.750000 0.750000 0.652657
O O3 0.747510 0.681641 0.774668
O O4 0.746018 0.625513 0.640577
O O5 0.500000 0.133693 0.834999
O O6 0.739628 0.062533 0.809887
O O7 0.747693 0.153863 0.919273
O O8 0.743968 0.417492 0.500000
O O9 0.500000 0.425920 0.415543
O O10 0.733663 0.500000 0.386292
O O11 0.855195 0.000000 0.926492
O O12 0.637733 0.061306 0.000000
O O13 0.000000 0.000000 0.797517
O O14 0.500000 0.171289 0.000000
#
# Coordination Sequence:
#
# PCOD8266110 Si02
#       6
#    16  16  16   4   8   8
#     4  11  23  38  58  85 119 157 196 240 290 350
#     4  10  20  35  54  79 111 150 196 246 296 347
#     4   8  16  34  61  91 119 149 189 235 283 340
#     4   8  14  24  42  70 105 138 177 232 287 344
#     4  10  18  29  48  77 109 144 186 234 291 348
#     4   8  15  29  50  73 103 145 192 241 295 347
#
# _framework density 21.075538999999999
#
# number of rings (size 3 to 8) (size 9 to 14) (size 15 to 20)
#    0.000    2.588    0.000    2.824    1.647    3.294 
#    0.000    2.353    0.000    2.118    0.000    6.588 
#    0.000    0.000    0.000    0.000    0.000    0.000 
#
# Total GULP energy -421255.673917 kJ/mol
# GULP energy per Si atom -12389.872762 kJ/mol
# Density = 2.102757 g / cm^3
# Si number density = 21.075539 Si / 1000 Ang^3
#
#
#
# Elastic Constant Matrix: (Units=GPa)
#
#
# Indices 1 2 3 4 5 6 
#
# 1 74.0694 27.1486 21.2829 0.0000 0.0000 0.0000
# 2 27.1486 131.6635 68.8990 0.0000 0.0000 0.0000
# 3 21.2829 68.8990 111.1977 0.0000 0.0000 0.0000
# 4 0.0000 0.0000 0.0000 22.2115 0.0000 0.0000
# 5 0.0000 0.0000 0.0000 0.0000 14.8135 0.0000
# 6 0.0000 0.0000 0.0000 0.0000 0.0000 28.9167
#
#
#
# Elastic Compliance Matrix: (Units=1/GPa)
#
#
# Indices 1 2 3 4 5 6 
#
# 1 0.014748 -0.002314 -0.001389 0.000000 0.000000 0.000000
# 2 -0.002314 0.011602 -0.006746 0.000000 0.000000 0.000000
# 3 -0.001389 -0.006746 0.013439 0.000000 0.000000 0.000000
# 4 0.000000 0.000000 0.000000 0.045022 0.000000 0.000000
# 5 0.000000 0.000000 0.000000 0.000000 0.067506 0.000000
# 6 0.000000 0.000000 0.000000 0.000000 0.000000 0.034582
#
#
# Mechanical properties :
#
#
# Convention : Reuss Voigt Hill
#
# Bulk Modulus (GPa) = 52.93500 61.28796 57.11148
# Shear Modulus (GPa) = 23.35418 26.49502 24.92460
#
# Velocity S-wave (km/s) = 3.33245 3.54947 3.44267
# Velocity P-wave (km/s) = 6.32284 6.77802 6.55438
#
# Compressibility (1/GPa) = 0.01889109
#
# Stress axis : x y z
#
# Youngs Moduli (GPa) = 67.80512 86.18838 74.41185
#
# Poissons Ratio (x) = 0.19946 0.10334
# Poissons Ratio (y) = 0.15692 0.50199
# Poissons Ratio (z) = 0.09417 0.58143
#
# Static dielectric constant tensor:
#      x y z
#    x 3.304600 0.000000 0.000000 
#    y 0.000000 3.846730 0.000000 
#    z 0.000000 0.000000 4.090400 
# 
# 
# High freq. dielectric constant tensor:
#      x y z
#    x 1.786790 0.000000 0.000000 
#    y 0.000000 1.816530 0.000000 
#    z 0.000000 0.000000 1.827720 
# 
# From -- ./inp_files/49263.got.cif
#   From: 2010.03.12/outbox.cif.g09.slc.cpg/sg65_25_cif.got.tgz:49263.got - 2010.04.10 20:52:16.
