data_PCOD8266477
_publ_section_title
;
Structure prediction by ZEFSAII (Michael W. Deem and Ramdas Pophale) SiO2 
 PCOD8266477
Probable space group: C M M M
;
_chemical_formula_sum "Si O2"
_cell_formula_units_Z 80
_cell_length_a 18.177878
_cell_length_b 8.738719
_cell_length_c 25.819706
_cell_angle_alpha 90.000000
_cell_angle_beta 90.000000
_cell_angle_gamma 90.000000
_cell_volume 4101.495616
_symmetry_space_group_name_H-M "C M M M"
_symmetry_group_IT_number 65
_symmetry_cell_setting 'orthorhombic'
loop_
_space_group_symop_operation_xyz
x,y,z
-x,-y,z
x,-y,-z
-x,y,-z
-x,-y,-z
x,y,-z
-x,y,z
x,-y,z
1/2+x,1/2+y,z
1/2-x,1/2-y,z
1/2+x,1/2-y,-z
1/2-x,1/2+y,-z
1/2-x,1/2-y,-z
1/2+x,1/2+y,-z
1/2-x,1/2+y,z
1/2+x,1/2-y,z
loop_
_atom_site_type_symbol
_atom_site_label
_atom_site_fract_x
_atom_site_fract_y
_atom_site_fract_z
Si Si1 0.085871 0.175863 0.707181
Si Si2 0.584757 0.680455 0.894170
Si Si3 0.170410 0.179343 0.603422
Si Si4 0.912679 0.327950 0.000000
Si Si5 0.670598 0.820617 0.200844
Si Si6 0.668601 0.181677 0.500000
O O1 0.118245 0.216950 0.651364
O O2 0.120828 0.285499 0.749675
O O3 0.000000 0.208914 0.705298
O O4 0.102665 0.000000 0.722094
O O5 0.500000 0.729813 0.885515
O O6 0.593192 0.500000 0.892753
O O7 0.615513 0.740514 0.949032
O O8 0.634080 0.752557 0.850063
O O9 0.250000 0.250000 0.614975
O O10 0.131526 0.255087 0.552732
O O11 0.179783 0.000000 0.593750
O O12 0.881210 0.500000 0.000000
O O13 0.000000 0.327815 0.000000
O O14 0.750000 0.750000 0.210253
O O15 0.678490 0.000000 0.193654
O O16 0.750000 0.250000 0.500000
O O17 0.668275 0.000000 0.500000
#
# Coordination Sequence:
#
# PCOD8266477 Si02
#       6
#    16  16  16   8  16   8
#     4  10  22  40  60  83 112 146 184 228 279 334
#     4  10  20  36  59  86 117 152 189 230 277 329
#     4  10  19  33  55  81 110 144 183 226 272 325
#     4   9  17  31  54  85 118 151 190 231 271 323
#     4  12  25  40  59  83 112 147 187 232 282 334
#     4  10  18  30  51  78 109 143 181 225 271 322
#
# _framework density 19.50508
#
# number of rings (size 3 to 8) (size 9 to 14) (size 15 to 20)
#    0.000    1.700    0.000    6.600    0.000    8.400 
#    0.000    1.000    0.000    3.000    0.000    0.000 
#    0.000    0.000    0.000    0.000    0.000    0.000 
#
# Total GULP energy -496093.001940 kJ/mol
# GULP energy per Si atom -12402.325048 kJ/mol
# Density = 1.946069 g / cm^3
# Si number density = 19.505080 Si / 1000 Ang^3
#
#
#
# Elastic Constant Matrix: (Units=GPa)
#
#
# Indices 1 2 3 4 5 6 
#
# 1 76.9416 27.4422 52.2824 0.0000 0.0000 0.0000
# 2 27.4422 102.5101 54.8652 0.0000 0.0000 0.0000
# 3 52.2824 54.8652 156.9174 0.0000 0.0000 0.0000
# 4 0.0000 0.0000 0.0000 47.0282 0.0000 0.0000
# 5 0.0000 0.0000 0.0000 0.0000 34.1125 0.0000
# 6 0.0000 0.0000 0.0000 0.0000 0.0000 24.8554
#
#
#
# Elastic Compliance Matrix: (Units=1/GPa)
#
#
# Indices 1 2 3 4 5 6 
#
# 1 0.017090 -0.001879 -0.005037 0.000000 0.000000 0.000000
# 2 -0.001879 0.012208 -0.003642 0.000000 0.000000 0.000000
# 3 -0.005037 -0.003642 0.009325 0.000000 0.000000 0.000000
# 4 0.000000 0.000000 0.000000 0.021264 0.000000 0.000000
# 5 0.000000 0.000000 0.000000 0.000000 0.029315 0.000000
# 6 0.000000 0.000000 0.000000 0.000000 0.000000 0.040233
#
#
# Mechanical properties :
#
#
# Convention : Reuss Voigt Hill
#
# Bulk Modulus (GPa) = 57.12591 67.28318 62.20454
# Shear Modulus (GPa) = 31.97242 34.65118 33.31180
#
# Velocity S-wave (km/s) = 4.05308 4.21945 4.13710
# Velocity P-wave (km/s) = 7.15923 7.63600 7.40145
#
# Compressibility (1/GPa) = 0.01750519
#
# Stress axis : x y z
#
# Youngs Moduli (GPa) = 58.51455 81.91661 107.24415
#
# Poissons Ratio (x) = 0.15393 0.54019
# Poissons Ratio (y) = 0.10995 0.39061
# Poissons Ratio (z) = 0.29474 0.29836
#
# Static dielectric constant tensor:
#      x y z
#    x 3.353000 0.000000 0.000000 
#    y 0.000000 3.691900 0.000000 
#    z 0.000000 0.000000 4.042510 
# 
# 
# High freq. dielectric constant tensor:
#      x y z
#    x 1.732520 0.000000 0.000000 
#    y 0.000000 1.772350 0.000000 
#    z 0.000000 0.000000 1.783880 
# 
# From -- ./inp_files/75085.got.cif
#   From: 2010.03.12/outbox.cif.g09.slc.cpg/sg65_38_cif.got.tgz:75085.got - 2010.04.10 20:52:16.
