data_PCOD8266112
_publ_section_title
;
Structure prediction by ZEFSAII (Michael W. Deem and Ramdas Pophale) SiO2 
 PCOD8266112
Probable space group: C M M M
;
_chemical_formula_sum "Si O2"
_cell_formula_units_Z 112
_cell_length_a 14.960687
_cell_length_b 25.545521
_cell_length_c 14.627018
_cell_angle_alpha 90.000000
_cell_angle_beta 90.000000
_cell_angle_gamma 90.000000
_cell_volume 5590.132441
_symmetry_space_group_name_H-M "C M M M"
_symmetry_group_IT_number 65
_symmetry_cell_setting 'orthorhombic'
loop_
_space_group_symop_operation_xyz
x,y,z
-x,-y,z
x,-y,-z
-x,y,-z
-x,-y,-z
x,y,-z
-x,y,z
x,-y,z
1/2+x,1/2+y,z
1/2-x,1/2-y,z
1/2+x,1/2-y,-z
1/2-x,1/2+y,-z
1/2-x,1/2-y,-z
1/2+x,1/2+y,-z
1/2-x,1/2+y,z
1/2+x,1/2-y,z
loop_
_atom_site_type_symbol
_atom_site_label
_atom_site_fract_x
_atom_site_fract_y
_atom_site_fract_z
Si Si1 0.725301 0.131882 0.103702
Si Si2 0.899131 0.719472 0.841289
Si Si3 0.902297 0.839222 0.803008
Si Si4 0.646247 0.671510 0.602444
Si Si5 0.603104 0.938933 0.225457
Si Si6 0.400775 0.218555 0.634850
Si Si7 0.328777 0.114343 0.597553
O O1 0.676921 0.188908 0.102061
O O2 0.819287 0.127600 0.158658
O O3 0.657558 0.090729 0.147716
O O4 0.745545 0.115465 0.000000
O O5 0.883562 0.781479 0.843135
O O6 0.884974 0.699717 0.738329
O O7 0.000000 0.706379 0.876246
O O8 0.913307 0.840443 0.692139
O O9 0.000000 0.858924 0.839037
O O10 0.608149 0.656377 0.500000
O O11 0.664736 0.734382 0.603125
O O12 0.733853 0.638529 0.624219
O O13 0.500000 0.922273 0.216820
O O14 0.637296 0.925561 0.326827
O O15 0.616678 0.000000 0.209270
O O16 0.500000 0.241828 0.620614
O O17 0.390499 0.165170 0.579459
O O18 0.325322 0.084029 0.500000
#
# Coordination Sequence:
#
# PCOD8266112 Si02
#       7
#    16  16  16  16  16  16  16
#     4  12  24  40  63  87 115 153 198 248 303 358
#     4   9  18  33  55  85 123 163 198 234 280 340
#     4  10  21  37  58  88 127 164 198 237 281 340
#     4  10  19  32  53  85 123 163 202 235 272 329
#     4  11  25  45  66  88 116 147 188 247 305 357
#     4  10  18  29  48  80 125 165 197 233 272 327
#     4  11  21  34  57  87 120 161 199 232 280 348
#
# _framework density 20.035304
#
# number of rings (size 3 to 8) (size 9 to 14) (size 15 to 20)
#    0.000    1.571    2.857    3.429    0.000    9.429 
#    0.000    2.857    0.000    0.429    0.000    1.000 
#    0.000    2.286    0.000    0.000    0.000    0.000 
#
# Total GULP energy -693733.208195 kJ/mol
# GULP energy per Si atom -12388.093003 kJ/mol
# Density = 1.998970 g / cm^3
# Si number density = 20.035304 Si / 1000 Ang^3
#
#
#
# Elastic Constant Matrix: (Units=GPa)
#
#
# Indices 1 2 3 4 5 6 
#
# 1 116.4561 32.4332 43.0354 0.0000 0.0000 0.0000
# 2 32.4332 48.5830 24.2249 0.0000 0.0000 0.0000
# 3 43.0354 24.2249 112.5747 0.0000 0.0000 0.0000
# 4 0.0000 0.0000 0.0000 8.3145 0.0000 0.0000
# 5 0.0000 0.0000 0.0000 0.0000 9.2785 0.0000
# 6 0.0000 0.0000 0.0000 0.0000 0.0000 25.0671
#
#
#
# Elastic Compliance Matrix: (Units=1/GPa)
#
#
# Indices 1 2 3 4 5 6 
#
# 1 0.011412 -0.006098 -0.003051 0.000000 0.000000 0.000000
# 2 -0.006098 0.026315 -0.003332 0.000000 0.000000 0.000000
# 3 -0.003051 -0.003332 0.010766 0.000000 0.000000 0.000000
# 4 0.000000 0.000000 0.000000 0.120271 0.000000 0.000000
# 5 0.000000 0.000000 0.000000 0.000000 0.107776 0.000000
# 6 0.000000 0.000000 0.000000 0.000000 0.000000 0.039893
#
#
# Mechanical properties :
#
#
# Convention : Reuss Voigt Hill
#
# Bulk Modulus (GPa) = 42.49193 53.00008 47.74600
# Shear Modulus (GPa) = 14.31685 20.39339 17.35512
#
# Velocity S-wave (km/s) = 2.67607 3.19387 2.94637
# Velocity P-wave (km/s) = 5.55005 6.33339 5.95461
#
# Compressibility (1/GPa) = 0.02353388
#
# Stress axis : x y z
#
# Youngs Moduli (GPa) = 87.62353 38.00065 92.88360
#
# Poissons Ratio (x) = 0.23171 0.28335
# Poissons Ratio (y) = 0.53430 0.30947
# Poissons Ratio (z) = 0.26731 0.12661
#
# Static dielectric constant tensor:
#      x y z
#    x 3.731590 0.000000 0.000000 
#    y 0.000000 3.151130 0.000000 
#    z 0.000000 0.000000 -9.323330 
# 
# 
# High freq. dielectric constant tensor:
#      x y z
#    x 1.788750 0.000000 0.000000 
#    y 0.000000 1.724270 0.000000 
#    z 0.000000 0.000000 1.786520 
# 
# From -- ./inp_files/41072.got.cif
#   From: 2010.03.12/outbox.cif.g09.slc.cpg/sg65_21_cif.got.tgz:41072.got - 2010.04.10 20:52:16.
