data_PCOD8266717
_publ_section_title
;
Structure prediction by ZEFSAII (Michael W. Deem and Ramdas Pophale) SiO2 
 PCOD8266717
Probable space group: C M M M
;
_chemical_formula_sum "Si O2"
_cell_formula_units_Z 88
_cell_length_a 18.679488
_cell_length_b 21.251639
_cell_length_c 12.889097
_cell_angle_alpha 90.000000
_cell_angle_beta 90.000000
_cell_angle_gamma 90.000000
_cell_volume 5116.581429
_symmetry_space_group_name_H-M "C M M M"
_symmetry_group_IT_number 65
_symmetry_cell_setting 'orthorhombic'
loop_
_space_group_symop_operation_xyz
x,y,z
-x,-y,z
x,-y,-z
-x,y,-z
-x,-y,-z
x,y,-z
-x,y,z
x,-y,z
1/2+x,1/2+y,z
1/2-x,1/2-y,z
1/2+x,1/2-y,-z
1/2-x,1/2+y,-z
1/2-x,1/2-y,-z
1/2+x,1/2+y,-z
1/2-x,1/2+y,z
1/2+x,1/2-y,z
loop_
_atom_site_type_symbol
_atom_site_label
_atom_site_fract_x
_atom_site_fract_y
_atom_site_fract_z
Si Si1 0.679178 0.815611 0.619242
Si Si2 0.082190 0.246234 0.120516
Si Si3 0.580708 0.429649 0.377555
Si Si4 0.833044 0.813588 0.703155
Si Si5 0.085375 0.500000 0.115968
Si Si6 0.917726 0.623439 0.229561
O O1 0.699247 0.830176 0.500000
O O2 0.747471 0.820964 0.695704
O O3 0.645697 0.745072 0.627964
O O4 0.621969 0.865769 0.660769
O O5 0.138065 0.201875 0.181633
O O6 0.094301 0.318604 0.151685
O O7 0.000000 0.226590 0.145432
O O8 0.099456 0.238287 0.000000
O O9 0.585730 0.425406 0.500000
O O10 0.500000 0.414919 0.340724
O O11 0.602889 0.500000 0.340871
O O12 0.633525 0.379231 0.329672
O O13 0.114093 0.438452 0.175103
O O14 0.000000 0.500000 0.110712
O O15 0.117187 0.500000 0.000000
O O16 0.000000 0.613500 0.257863
#
# Coordination Sequence:
#
# PCOD8266717 Si02
#       6
#    16  16  16  16   8  16
#     4  10  20  33  49  71 100 131 165 205 250 302
#     4   9  17  30  50  76 102 127 161 207 253 296
#     4   9  17  29  47  72  97 122 159 204 245 290
#     4  10  18  32  50  70  97 130 164 200 248 300
#     4   9  16  30  53  73  93 125 161 202 250 293
#     4   9  18  32  49  72  99 128 168 210 248 294
#
# _framework density 17.198983999999999
#
# number of rings (size 3 to 8) (size 9 to 14) (size 15 to 20)
#    0.000    2.636    0.000    3.818    0.000    3.273 
#    1.636    8.636    0.000    2.182    0.000    2.545 
#    0.000    0.000    0.000    0.000    0.000    0.000 
#
# Total GULP energy -545412.869332 kJ/mol
# GULP energy per Si atom -12395.747030 kJ/mol
# Density = 1.715984 g / cm^3
# Si number density = 17.198984 Si / 1000 Ang^3
#
#
#
# Elastic Constant Matrix: (Units=GPa)
#
#
# Indices 1 2 3 4 5 6 
#
# 1 70.3018 49.6244 53.3401 0.0000 0.0000 0.0000
# 2 49.6244 116.6712 41.3750 0.0000 0.0000 0.0000
# 3 53.3401 41.3750 101.9531 0.0000 0.0000 0.0000
# 4 0.0000 0.0000 0.0000 22.1903 0.0000 0.0000
# 5 0.0000 0.0000 0.0000 0.0000 25.2316 0.0000
# 6 0.0000 0.0000 0.0000 0.0000 0.0000 23.8611
#
#
#
# Elastic Compliance Matrix: (Units=1/GPa)
#
#
# Indices 1 2 3 4 5 6 
#
# 1 0.028937 -0.008106 -0.011850 0.000000 0.000000 0.000000
# 2 -0.008106 0.012282 -0.000744 0.000000 0.000000 0.000000
# 3 -0.011850 -0.000744 0.016310 0.000000 0.000000 0.000000
# 4 0.000000 0.000000 0.000000 0.045065 0.000000 0.000000
# 5 0.000000 0.000000 0.000000 0.000000 0.039633 0.000000
# 6 0.000000 0.000000 0.000000 0.000000 0.000000 0.041909
#
#
# Mechanical properties :
#
#
# Convention : Reuss Voigt Hill
#
# Bulk Modulus (GPa) = 61.99333 64.17834 63.08583
# Shear Modulus (GPa) = 21.65338 23.89571 22.77454
#
# Velocity S-wave (km/s) = 3.55208 3.73147 3.64288
# Velocity P-wave (km/s) = 7.27640 7.48073 7.37927
#
# Compressibility (1/GPa) = 0.01613077
#
# Stress axis : x y z
#
# Youngs Moduli (GPa) = 34.55826 81.41697 61.31261
#
# Poissons Ratio (x) = 0.65993 0.72654
# Poissons Ratio (y) = 0.28011 0.04561
# Poissons Ratio (z) = 0.40951 0.06056
#
# Static dielectric constant tensor:
#      x y z
#    x 3.151670 0.000000 0.000000 
#    y 0.000000 3.697410 0.000000 
#    z 0.000000 0.000000 3.061810 
# 
# 
# High freq. dielectric constant tensor:
#      x y z
#    x 1.650290 0.000000 0.000000 
#    y 0.000000 1.660740 0.000000 
#    z 0.000000 0.000000 1.647420 
# 
# From -- ./inp_files/26818.got.cif
#   From: 2010.03.12/outbox.cif.g09.slc.cpg/sg65_14_cif.got.tgz:26818.got - 2010.04.10 20:52:16.
