data_PCOD8266435
_publ_section_title
;
Structure prediction by ZEFSAII (Michael W. Deem and Ramdas Pophale) SiO2 
 PCOD8266435
Probable space group: C M M M
;
_chemical_formula_sum "Si O2"
_cell_formula_units_Z 72
_cell_length_a 8.786792
_cell_length_b 19.022062
_cell_length_c 24.585217
_cell_angle_alpha 90.000000
_cell_angle_beta 90.000000
_cell_angle_gamma 90.000000
_cell_volume 4109.244521
_symmetry_space_group_name_H-M "C M M M"
_symmetry_group_IT_number 65
_symmetry_cell_setting 'orthorhombic'
loop_
_space_group_symop_operation_xyz
x,y,z
-x,-y,z
x,-y,-z
-x,y,-z
-x,-y,-z
x,y,-z
-x,y,z
x,-y,z
1/2+x,1/2+y,z
1/2-x,1/2-y,z
1/2+x,1/2-y,-z
1/2-x,1/2+y,-z
1/2-x,1/2-y,-z
1/2+x,1/2+y,-z
1/2-x,1/2+y,z
1/2+x,1/2-y,z
loop_
_atom_site_type_symbol
_atom_site_label
_atom_site_fract_x
_atom_site_fract_y
_atom_site_fract_z
Si Si1 0.820306 0.676326 0.561189
Si Si2 0.181107 0.421583 0.343164
Si Si3 0.331068 0.319598 0.135178
Si Si4 0.000000 0.081680 0.063973
Si Si5 0.819597 0.674726 0.245640
O O1 0.768910 0.655968 0.500000
O O2 0.750000 0.750000 0.579492
O O3 0.759886 0.616765 0.602239
O O4 0.000000 0.684127 0.565059
O O5 0.249759 0.500000 0.342328
O O6 0.240710 0.380852 0.289897
O O7 0.000000 0.424176 0.343181
O O8 0.500000 0.296939 0.155764
O O9 0.250000 0.250000 0.110635
O O10 0.348969 0.380423 0.089142
O O11 0.236654 0.349913 0.186083
O O12 0.000000 0.000000 0.080069
O O13 0.000000 0.092769 0.000000
O O14 0.750000 0.750000 0.260354
O O15 0.000000 0.679079 0.246670
#
# Coordination Sequence:
#
# PCOD8266435 Si02
#       5
#    16  16  16   8  16
#     4   9  17  30  49  69  89 118 156 200 245 291
#     4   9  18  30  44  68  97 125 160 199 243 293
#     4   9  18  32  54  78 103 131 171 211 247 294
#     4   9  20  36  54  78 109 141 168 204 257 304
#     4  10  18  30  51  72  99 131 162 204 248 291
#
# _framework density 17.521470000000001
#
# number of rings (size 3 to 8) (size 9 to 14) (size 15 to 20)
#    0.667    2.111    0.000    3.333    0.000    1.778 
#    0.000    3.333    0.000    5.333    0.000    9.333 
#    0.000    0.000    0.000    0.000    0.000    0.000 
#
# Total GULP energy -446161.268721 kJ/mol
# GULP energy per Si atom -12393.368576 kJ/mol
# Density = 1.748159 g / cm^3
# Si number density = 17.521470 Si / 1000 Ang^3
#
#
#
# Elastic Constant Matrix: (Units=GPa)
#
#
# Indices 1 2 3 4 5 6 
#
# 1 49.0462 28.2877 24.9933 0.0000 0.0000 0.0000
# 2 28.2877 159.1489 102.9608 0.0000 0.0000 0.0000
# 3 24.9933 102.9608 130.5488 0.0000 0.0000 0.0000
# 4 0.0000 0.0000 0.0000 30.2282 0.0000 0.0000
# 5 0.0000 0.0000 0.0000 0.0000 18.7259 0.0000
# 6 0.0000 0.0000 0.0000 0.0000 0.0000 22.1154
#
#
#
# Elastic Compliance Matrix: (Units=1/GPa)
#
#
# Indices 1 2 3 4 5 6 
#
# 1 0.023085 -0.002540 -0.002416 0.000000 0.000000 0.000000
# 2 -0.002540 0.013109 -0.009852 0.000000 0.000000 0.000000
# 3 -0.002416 -0.009852 0.015893 0.000000 0.000000 0.000000
# 4 0.000000 0.000000 0.000000 0.033082 0.000000 0.000000
# 5 0.000000 0.000000 0.000000 0.000000 0.053402 0.000000
# 6 0.000000 0.000000 0.000000 0.000000 0.000000 0.045217
#
#
# Mechanical properties :
#
#
# Convention : Reuss Voigt Hill
#
# Bulk Modulus (GPa) = 44.50472 72.35861 58.43167
# Shear Modulus (GPa) = 22.63514 26.38070 24.50792
#
# Velocity S-wave (km/s) = 3.59813 3.88444 3.74403
# Velocity P-wave (km/s) = 6.53585 7.84253 7.21882
#
# Compressibility (1/GPa) = 0.02246953
#
# Stress axis : x y z
#
# Youngs Moduli (GPa) = 43.31768 76.28435 62.92103
#
# Poissons Ratio (x) = 0.19376 0.15204
# Poissons Ratio (y) = 0.11003 0.61992
# Poissons Ratio (z) = 0.10467 0.75158
#
# Static dielectric constant tensor:
#      x y z
#    x 3.004020 0.000000 0.000000 
#    y 0.000000 3.422420 0.000000 
#    z 0.000000 0.000000 3.314580 
# 
# 
# High freq. dielectric constant tensor:
#      x y z
#    x 1.651890 0.000000 0.000000 
#    y 0.000000 1.673380 0.000000 
#    z 0.000000 0.000000 1.679380 
# 
# From -- ./inp_files/67211.got.cif
#   From: 2010.03.12/outbox.cif.g09.slc.cpg/sg65_34_cif.got.tgz:67211.got - 2010.04.10 20:52:16.
