data_PCOD8266062
_publ_section_title
;
Structure prediction by ZEFSAII (Michael W. Deem and Ramdas Pophale) SiO2 
 PCOD8266062
Probable space group: C M M M
;
_chemical_formula_sum "Si O2"
_cell_formula_units_Z 112
_cell_length_a 14.900680
_cell_length_b 29.482262
_cell_length_c 14.333541
_cell_angle_alpha 90.000000
_cell_angle_beta 90.000000
_cell_angle_gamma 90.000000
_cell_volume 6296.807004
_symmetry_space_group_name_H-M "C M M M"
_symmetry_group_IT_number 65
_symmetry_cell_setting 'orthorhombic'
loop_
_space_group_symop_operation_xyz
x,y,z
-x,-y,z
x,-y,-z
-x,y,-z
-x,-y,-z
x,y,-z
-x,y,z
x,-y,z
1/2+x,1/2+y,z
1/2-x,1/2-y,z
1/2+x,1/2-y,-z
1/2-x,1/2+y,-z
1/2-x,1/2-y,-z
1/2+x,1/2+y,-z
1/2-x,1/2+y,z
1/2+x,1/2-y,z
loop_
_atom_site_type_symbol
_atom_site_label
_atom_site_fract_x
_atom_site_fract_y
_atom_site_fract_z
Si Si1 0.102723 0.709895 0.208554
Si Si2 0.355529 0.751807 0.396863
Si Si3 0.603110 0.878507 0.108289
Si Si4 0.607196 0.611982 0.791522
Si Si5 0.243770 0.948013 0.891999
Si Si6 0.602423 0.650269 0.398686
Si Si7 0.606731 0.297286 0.105198
O O1 0.112067 0.711604 0.320849
O O2 0.144161 0.663529 0.167791
O O3 0.147995 0.754534 0.162209
O O4 0.000000 0.708820 0.177771
O O5 0.391604 0.765663 0.500000
O O6 0.250000 0.750000 0.397900
O O7 0.392938 0.702717 0.367950
O O8 0.500000 0.890247 0.135550
O O9 0.664578 0.921637 0.132416
O O10 0.609446 0.865102 0.000000
O O11 0.500000 0.604276 0.798278
O O12 0.658829 0.568808 0.832018
O O13 0.640776 0.619115 0.684366
O O14 0.639044 0.655877 0.849362
O O15 0.261532 0.000000 0.866052
O O16 0.218141 0.941949 0.000000
O O17 0.651426 0.642656 0.500000
O O18 0.500000 0.636787 0.410838
O O19 0.500000 0.295396 0.108205
O O20 0.643434 0.295242 0.000000
#
# Coordination Sequence:
#
# PCOD8266062 Si02
#       7
#    16  16  16  16  16  16  16
#     4  10  18  29  47  71  99 133 166 202 248 293
#     4  10  20  30  42  66 101 140 176 209 244 285
#     4   9  19  35  54  76 101 131 169 213 258 302
#     4  10  19  32  51  76 104 136 170 203 248 303
#     4  10  22  38  55  76 100 129 168 213 260 308
#     4   9  17  31  50  70  96 134 176 211 244 289
#     4   9  16  26  42  67 100 135 166 194 229 284
#
# _framework density 17.786791999999998
#
# number of rings (size 3 to 8) (size 9 to 14) (size 15 to 20)
#    0.000    2.429    1.429    1.286    2.000    4.000 
#    0.000    2.143    0.000    3.857    0.000    2.000 
#    0.000    0.000    0.000    4.429    0.000    0.286 
#
# Total GULP energy -694180.232348 kJ/mol
# GULP energy per Si atom -12396.075578 kJ/mol
# Density = 1.774631 g / cm^3
# Si number density = 17.786792 Si / 1000 Ang^3
#
#
#
# Elastic Constant Matrix: (Units=GPa)
#
#
# Indices 1 2 3 4 5 6 
#
# 1 43.9129 31.4615 26.2051 0.0000 0.0000 0.0000
# 2 31.4615 114.3639 57.9671 0.0000 0.0000 0.0000
# 3 26.2051 57.9671 113.1330 0.0000 0.0000 0.0000
# 4 0.0000 0.0000 0.0000 20.0284 0.0000 0.0000
# 5 0.0000 0.0000 0.0000 0.0000 19.2059 0.0000
# 6 0.0000 0.0000 0.0000 0.0000 0.0000 25.0986
#
#
#
# Elastic Compliance Matrix: (Units=1/GPa)
#
#
# Indices 1 2 3 4 5 6 
#
# 1 0.029411 -0.006265 -0.003602 0.000000 0.000000 0.000000
# 2 -0.006265 0.013146 -0.005285 0.000000 0.000000 0.000000
# 3 -0.003602 -0.005285 0.012381 0.000000 0.000000 0.000000
# 4 0.000000 0.000000 0.000000 0.049929 0.000000 0.000000
# 5 0.000000 0.000000 0.000000 0.000000 0.052067 0.000000
# 6 0.000000 0.000000 0.000000 0.000000 0.000000 0.039843
#
#
# Mechanical properties :
#
#
# Convention : Reuss Voigt Hill
#
# Bulk Modulus (GPa) = 40.59409 55.85302 48.22355
# Shear Modulus (GPa) = 21.25011 23.25164 22.25087
#
# Velocity S-wave (km/s) = 3.46021 3.61950 3.54075
# Velocity P-wave (km/s) = 6.23187 6.99552 6.62471
#
# Compressibility (1/GPa) = 0.02463413
#
# Stress axis : x y z
#
# Youngs Moduli (GPa) = 34.00130 76.06807 80.76679
#
# Poissons Ratio (x) = 0.47656 0.29095
# Poissons Ratio (y) = 0.21302 0.42682
# Poissons Ratio (z) = 0.12249 0.40199
#
# Static dielectric constant tensor:
#      x y z
#    x 3.105570 0.000000 0.000000 
#    y 0.000000 2.878000 0.000000 
#    z 0.000000 0.000000 3.672300 
# 
# 
# High freq. dielectric constant tensor:
#      x y z
#    x 1.675450 0.000000 0.000000 
#    y 0.000000 1.652380 0.000000 
#    z 0.000000 0.000000 1.693910 
# 
# From -- ./inp_files/41051.got.cif
#   From: 2010.03.12/outbox.cif.g09.slc.cpg/sg65_21_cif.got.tgz:41051.got - 2010.04.10 20:52:16.
