data_PCOD8266839
_publ_section_title
;
Structure prediction by ZEFSAII (Michael W. Deem and Ramdas Pophale) SiO2 
 PCOD8266839
Probable space group: C M M M
;
_chemical_formula_sum "Si O2"
_cell_formula_units_Z 96
_cell_length_a 13.642090
_cell_length_b 24.604845
_cell_length_c 15.109050
_cell_angle_alpha 90.000000
_cell_angle_beta 90.000000
_cell_angle_gamma 90.000000
_cell_volume 5071.526537
_symmetry_space_group_name_H-M "C M M M"
_symmetry_group_IT_number 65
_symmetry_cell_setting 'orthorhombic'
loop_
_space_group_symop_operation_xyz
x,y,z
-x,-y,z
x,-y,-z
-x,y,-z
-x,-y,-z
x,y,-z
-x,y,z
x,-y,z
1/2+x,1/2+y,z
1/2-x,1/2-y,z
1/2+x,1/2-y,-z
1/2-x,1/2+y,-z
1/2-x,1/2-y,-z
1/2+x,1/2+y,-z
1/2-x,1/2+y,z
1/2+x,1/2-y,z
loop_
_atom_site_type_symbol
_atom_site_label
_atom_site_fract_x
_atom_site_fract_y
_atom_site_fract_z
Si Si1 0.384670 0.613795 0.898294
Si Si2 0.814833 0.000000 0.097103
Si Si3 0.385929 0.659470 0.398225
Si Si4 0.729779 0.689401 0.768348
Si Si5 0.762755 0.940731 0.601598
Si Si6 0.611089 0.105347 0.272682
Si Si7 0.105909 0.500000 0.848749
O O1 0.500000 0.618663 0.893394
O O2 0.351185 0.555527 0.855919
O O3 0.341385 0.661625 0.839176
O O4 0.347206 0.619193 0.000000
O O5 0.697100 0.000000 0.085224
O O6 0.863532 0.000000 0.000000
O O7 0.361161 0.676685 0.500000
O O8 0.500000 0.667736 0.377981
O O9 0.321720 0.693861 0.328566
O O10 0.358970 0.596063 0.382613
O O11 0.750000 0.750000 0.801782
O O12 0.832307 0.656870 0.768332
O O13 0.740416 0.948821 0.500000
O O14 0.665943 0.911770 0.638165
O O15 0.780981 0.000000 0.646276
O O16 0.500000 0.123136 0.294409
O O17 0.613364 0.054152 0.208596
O O18 0.000000 0.500000 0.898477
#
# Coordination Sequence:
#
# PCOD8266839 Si02
#       7
#    16   8  16  16  16  16   8
#     4  10  21  38  61  89 118 146 181 230 287 344
#     4  10  19  35  60  88 116 144 181 228 281 339
#     4   9  19  36  56  80 111 145 184 232 284 336
#     4  11  23  38  59  81 109 149 193 234 281 334
#     4   9  17  29  48  76 109 142 177 220 273 335
#     4  10  20  34  51  74 106 143 182 227 275 326
#     4  10  18  32  54  78 108 144 180 221 275 326
#
# _framework density 18.929210999999999
#
# number of rings (size 3 to 8) (size 9 to 14) (size 15 to 20)
#    0.000    2.167    2.500    0.750    0.000    3.833 
#    0.000    2.500    0.000    0.500    0.000    0.000 
#    0.000    0.000    0.000    0.000    0.000    0.000 
#
# Total GULP energy -594944.504347 kJ/mol
# GULP energy per Si atom -12394.677174 kJ/mol
# Density = 1.888613 g / cm^3
# Si number density = 18.929211 Si / 1000 Ang^3
#
#
#
# Elastic Constant Matrix: (Units=GPa)
#
#
# Indices 1 2 3 4 5 6 
#
# 1 98.4800 39.7686 24.2932 0.0000 0.0000 0.0000
# 2 39.7686 133.1755 32.7614 0.0000 0.0000 0.0000
# 3 24.2932 32.7614 55.4440 0.0000 0.0000 0.0000
# 4 0.0000 0.0000 0.0000 -14.1856 0.0000 0.0000
# 5 0.0000 0.0000 0.0000 0.0000 25.7420 0.0000
# 6 0.0000 0.0000 0.0000 0.0000 0.0000 0.0960
#
#
#
# Elastic Compliance Matrix: (Units=1/GPa)
#
#
# Indices 1 2 3 4 5 6 
#
# 1 0.012171 -0.002718 -0.003727 0.000000 0.000000 0.000000
# 2 -0.002718 0.009393 -0.004359 0.000000 0.000000 0.000000
# 3 -0.003727 -0.004359 0.022245 0.000000 0.000000 0.000000
# 4 0.000000 0.000000 0.000000 -0.070494 0.000000 0.000000
# 5 0.000000 0.000000 0.000000 0.000000 0.038847 0.000000
# 6 0.000000 0.000000 0.000000 0.000000 0.000000 10.420193
#
#
# Mechanical properties :
#
#
# Convention : Reuss Voigt Hill
#
# Bulk Modulus (GPa) = 45.04305 53.41623 49.22964
# Shear Modulus (GPa) = 0.47795 15.01555 7.74675
#
# Velocity S-wave (km/s) = 0.50303 2.81952 2.02518
# Velocity P-wave (km/s) = 4.91778 6.23537 5.61535
#
# Compressibility (1/GPa) = 0.02220099
#
# Stress axis : x y z
#
# Youngs Moduli (GPa) = 82.16111 106.46396 44.95360
#
# Poissons Ratio (x) = 0.28934 0.16754
# Poissons Ratio (y) = 0.22329 0.19597
# Poissons Ratio (z) = 0.30622 0.46412
#
# Static dielectric constant tensor:
#      x y z
#    x 3.599360 0.000000 0.000000 
#    y 0.000000 3.460370 0.000000 
#    z 0.000000 0.000000 3.421830 
# 
# 
# High freq. dielectric constant tensor:
#      x y z
#    x 1.739350 0.000000 0.000000 
#    y 0.000000 1.725780 0.000000 
#    z 0.000000 0.000000 1.725250 
# 
# From -- ./inp_files/40701.got.cif
#   From: 2010.03.12/outbox.cif.g09.slc.cpg/sg65_21_cif.got.tgz:40701.got - 2010.04.10 20:52:16.
