data_PCOD8266683
_publ_section_title
;
Structure prediction by ZEFSAII (Michael W. Deem and Ramdas Pophale) SiO2 
 PCOD8266683
Probable space group: C M M M
;
_chemical_formula_sum "Si O2"
_cell_formula_units_Z 64
_cell_length_a 24.358103
_cell_length_b 18.527362
_cell_length_c 7.717702
_cell_angle_alpha 90.000000
_cell_angle_beta 90.000000
_cell_angle_gamma 90.000000
_cell_volume 3482.932478
_symmetry_space_group_name_H-M "C M M M"
_symmetry_group_IT_number 65
_symmetry_cell_setting 'orthorhombic'
loop_
_space_group_symop_operation_xyz
x,y,z
-x,-y,z
x,-y,-z
-x,y,-z
-x,-y,-z
x,y,-z
-x,y,z
x,-y,z
1/2+x,1/2+y,z
1/2-x,1/2-y,z
1/2+x,1/2-y,-z
1/2-x,1/2+y,-z
1/2-x,1/2-y,-z
1/2+x,1/2+y,-z
1/2-x,1/2+y,z
1/2+x,1/2-y,z
loop_
_atom_site_type_symbol
_atom_site_label
_atom_site_fract_x
_atom_site_fract_y
_atom_site_fract_z
Si Si1 0.937607 0.198889 0.306051
Si Si2 0.343188 0.085771 0.000000
Si Si3 0.353333 0.582360 0.204206
Si Si4 0.265849 0.085494 0.693362
Si Si5 0.064052 0.695913 0.000000
O O1 0.932698 0.231118 0.500000
O O2 0.900988 0.127689 0.293603
O O3 0.918567 0.259381 0.170170
O O4 0.000000 0.175663 0.264089
O O5 0.310303 0.113877 0.830912
O O6 0.403019 0.121180 0.000000
O O7 0.351171 0.000000 0.000000
O O8 0.359424 0.500000 0.268183
O O9 0.294628 0.615283 0.261490
O O10 0.359085 0.587869 0.000000
O O11 0.282991 0.110506 0.500000
O O12 0.263271 0.000000 0.709159
O O13 0.000000 0.675961 0.000000
#
# Coordination Sequence:
#
# PCOD8266683 Si02
#       5
#    16   8  16  16   8
#     4  10  21  37  55  75 105 147 187 219 259 309
#     4  10  20  36  59  84 105 129 169 217 266 326
#     4  10  18  31  54  81 111 145 182 222 257 296
#     4   9  17  31  52  79 111 142 170 208 262 315
#     4  10  22  40  58  77 105 137 171 217 271 322
#
# _framework density 18.375319000000001
#
# number of rings (size 3 to 8) (size 9 to 14) (size 15 to 20)
#    0.000    2.250    2.500    0.750    0.000    3.250 
#    0.000    5.000    0.000    3.000    0.000    7.000 
#    0.000    0.000    0.000    0.000    0.000    0.000 
#
# Total GULP energy -396800.944725 kJ/mol
# GULP energy per Si atom -12400.029523 kJ/mol
# Density = 1.833350 g / cm^3
# Si number density = 18.375319 Si / 1000 Ang^3
#
#
#
# Elastic Constant Matrix: (Units=GPa)
#
#
# Indices 1 2 3 4 5 6 
#
# 1 107.9445 53.4230 46.8634 0.0000 0.0000 0.0000
# 2 53.4230 58.4887 35.6090 0.0000 0.0000 0.0000
# 3 46.8634 35.6090 133.4322 0.0000 0.0000 0.0000
# 4 0.0000 0.0000 0.0000 10.2074 0.0000 0.0000
# 5 0.0000 0.0000 0.0000 0.0000 20.0236 0.0000
# 6 0.0000 0.0000 0.0000 0.0000 0.0000 24.7082
#
#
#
# Elastic Compliance Matrix: (Units=1/GPa)
#
#
# Indices 1 2 3 4 5 6 
#
# 1 0.017449 -0.014575 -0.002239 0.000000 0.000000 0.000000
# 2 -0.014575 0.032588 -0.003578 0.000000 0.000000 0.000000
# 3 -0.002239 -0.003578 0.009236 0.000000 0.000000 0.000000
# 4 0.000000 0.000000 0.000000 0.097968 0.000000 0.000000
# 5 0.000000 0.000000 0.000000 0.000000 0.049941 0.000000
# 6 0.000000 0.000000 0.000000 0.000000 0.000000 0.040472
#
#
# Mechanical properties :
#
#
# Convention : Reuss Voigt Hill
#
# Bulk Modulus (GPa) = 54.08398 63.51734 58.80066
# Shear Modulus (GPa) = 16.97207 21.91917 19.44562
#
# Velocity S-wave (km/s) = 3.04243 3.45753 3.25660
# Velocity P-wave (km/s) = 6.46828 7.11203 6.79778
#
# Compressibility (1/GPa) = 0.01848976
#
# Stress axis : x y z
#
# Youngs Moduli (GPa) = 57.30878 30.68595 108.27691
#
# Poissons Ratio (x) = 0.44725 0.24242
# Poissons Ratio (y) = 0.83527 0.38740
# Poissons Ratio (z) = 0.12831 0.10979
#
# Static dielectric constant tensor:
#      x y z
#    x 3.348300 0.000000 0.000000 
#    y 0.000000 2.944640 0.000000 
#    z 0.000000 0.000000 3.688940 
# 
# 
# High freq. dielectric constant tensor:
#      x y z
#    x 1.711830 0.000000 0.000000 
#    y 0.000000 1.668300 0.000000 
#    z 0.000000 0.000000 1.734540 
# 
# From -- ./inp_files/8851.got.cif
#   From: 2010.03.12/outbox.cif.g09.slc.cpg/sg65_5_cif.got.tgz:8851.got - 2010.04.10 20:52:16.
