data_PCOD8266385
_publ_section_title
;
Structure prediction by ZEFSAII (Michael W. Deem and Ramdas Pophale) SiO2 
 PCOD8266385
Probable space group: C M M M
;
_chemical_formula_sum "Si O2"
_cell_formula_units_Z 120
_cell_length_a 27.295862
_cell_length_b 9.464355
_cell_length_c 25.544710
_cell_angle_alpha 90.000000
_cell_angle_beta 90.000000
_cell_angle_gamma 90.000000
_cell_volume 6599.162344
_symmetry_space_group_name_H-M "C M M M"
_symmetry_group_IT_number 65
_symmetry_cell_setting 'orthorhombic'
loop_
_space_group_symop_operation_xyz
x,y,z
-x,-y,z
x,-y,-z
-x,y,-z
-x,-y,-z
x,y,-z
-x,y,z
x,-y,z
1/2+x,1/2+y,z
1/2-x,1/2-y,z
1/2+x,1/2-y,-z
1/2-x,1/2+y,-z
1/2-x,1/2-y,-z
1/2+x,1/2+y,-z
1/2-x,1/2+y,z
1/2+x,1/2-y,z
loop_
_atom_site_type_symbol
_atom_site_label
_atom_site_fract_x
_atom_site_fract_y
_atom_site_fract_z
Si Si1 0.295821 0.838299 0.760846
Si Si2 0.299215 0.662664 0.941180
Si Si3 0.500000 0.168184 0.559050
Si Si4 0.639683 0.835907 0.859387
Si Si5 0.945181 0.841977 0.831797
Si Si6 0.444875 0.657206 0.710198
Si Si7 0.905123 0.665620 0.623253
Si Si8 0.797863 0.664458 0.640671
O O1 0.250000 0.750000 0.781715
O O2 0.340021 0.807823 0.800790
O O3 0.309286 0.795690 0.701280
O O4 0.279714 0.000000 0.763326
O O5 0.290011 0.500000 0.924096
O O6 0.250000 0.750000 0.938407
O O7 0.335203 0.738741 0.901956
O O8 0.320968 0.667903 0.000000
O O9 0.500000 0.226217 0.500000
O O10 0.448535 0.223243 0.584939
O O11 0.500000 0.000000 0.560271
O O12 0.584216 0.781099 0.860722
O O13 0.642822 0.000000 0.875226
O O14 0.944106 0.807143 0.770762
O O15 0.000000 0.834836 0.853671
O O16 0.923748 0.000000 0.841997
O O17 0.500000 0.669965 0.688479
O O18 0.424533 0.500000 0.699421
O O19 0.411368 0.768367 0.680333
O O20 0.911179 0.500000 0.629804
O O21 0.847998 0.700072 0.607328
O O22 0.784900 0.500000 0.634616
O O23 0.750000 0.750000 0.619995
#
# Coordination Sequence:
#
# PCOD8266385 Si02
#       8
#    16  16   8  16  16  16  16  16
#     4   9  18  30  43  65  98 130 161 196 234 284
#     4  10  21  37  56  77 101 129 163 206 256 308
#     4   9  18  32  51  77 103 127 163 213 268 317
#     4  11  21  32  50  75 101 131 167 209 255 300
#     4   9  19  34  49  68  99 137 171 203 242 295
#     4   9  17  29  46  71 102 134 168 204 246 298
#     4  10  18  30  50  73  97 129 168 211 256 304
#     4   9  18  31  46  67  97 131 168 203 239 290
#
# _framework density 18.184127
#
# number of rings (size 3 to 8) (size 9 to 14) (size 15 to 20)
#    0.000    2.467    0.667    2.800    0.000    5.333 
#    0.000    4.000    0.000    1.600    0.000    2.800 
#    0.000    0.000    0.000    0.000    0.000    0.000 
#
# Total GULP energy -743489.058508 kJ/mol
# GULP energy per Si atom -12391.484308 kJ/mol
# Density = 1.814274 g / cm^3
# Si number density = 18.184127 Si / 1000 Ang^3
#
#
#
# Elastic Constant Matrix: (Units=GPa)
#
#
# Indices 1 2 3 4 5 6 
#
# 1 122.5025 54.0211 41.0215 0.0000 0.0000 0.0000
# 2 54.0211 76.6059 32.5264 0.0000 0.0000 0.0000
# 3 41.0215 32.5264 46.9909 0.0000 0.0000 0.0000
# 4 0.0000 0.0000 0.0000 17.5447 0.0000 0.0000
# 5 0.0000 0.0000 0.0000 0.0000 13.4375 0.0000
# 6 0.0000 0.0000 0.0000 0.0000 0.0000 31.3192
#
#
#
# Elastic Compliance Matrix: (Units=1/GPa)
#
#
# Indices 1 2 3 4 5 6 
#
# 1 0.013414 -0.006355 -0.007311 0.000000 0.000000 0.000000
# 2 -0.006355 0.021498 -0.009333 0.000000 0.000000 0.000000
# 3 -0.007311 -0.009333 0.034123 0.000000 0.000000 0.000000
# 4 0.000000 0.000000 0.000000 0.056997 0.000000 0.000000
# 5 0.000000 0.000000 0.000000 0.000000 0.074418 0.000000
# 6 0.000000 0.000000 0.000000 0.000000 0.000000 0.031929
#
#
# Mechanical properties :
#
#
# Convention : Reuss Voigt Hill
#
# Bulk Modulus (GPa) = 43.40821 55.69302 49.55061
# Shear Modulus (GPa) = 17.47912 20.36232 18.92072
#
# Velocity S-wave (km/s) = 3.10373 3.34995 3.22919
# Velocity P-wave (km/s) = 6.06362 6.75697 6.41966
#
# Compressibility (1/GPa) = 0.02303712
#
# Stress axis : x y z
#
# Youngs Moduli (GPa) = 74.55106 46.51632 29.30579
#
# Poissons Ratio (x) = 0.29561 0.21425
# Poissons Ratio (y) = 0.47376 0.27351
# Poissons Ratio (z) = 0.54504 0.43413
#
# Static dielectric constant tensor:
#      x y z
#    x 3.729620 0.000000 0.000000 
#    y 0.000000 3.412660 0.000000 
#    z 0.000000 0.000000 3.203370 
# 
# 
# High freq. dielectric constant tensor:
#      x y z
#    x 1.707590 0.000000 0.000000 
#    y 0.000000 1.702130 0.000000 
#    z 0.000000 0.000000 1.666610 
# 
# From -- ./inp_files/76118.got.cif
#   From: 2010.03.12/outbox.cif.g09.slc.cpg/sg65_39_cif.got.tgz:76118.got - 2010.04.10 20:52:16.
