data_PCOD8266912
_publ_section_title
;
Structure prediction by ZEFSAII (Michael W. Deem and Ramdas Pophale) SiO2 
 PCOD8266912
Probable space group: C M M M
;
_chemical_formula_sum "Si O2"
_cell_formula_units_Z 72
_cell_length_a 16.293073
_cell_length_b 25.621534
_cell_length_c 9.953759
_cell_angle_alpha 90.000000
_cell_angle_beta 90.000000
_cell_angle_gamma 90.000000
_cell_volume 4155.231770
_symmetry_space_group_name_H-M "C M M M"
_symmetry_group_IT_number 65
_symmetry_cell_setting 'orthorhombic'
loop_
_space_group_symop_operation_xyz
x,y,z
-x,-y,z
x,-y,-z
-x,y,-z
-x,-y,-z
x,y,-z
-x,y,z
x,-y,z
1/2+x,1/2+y,z
1/2-x,1/2-y,z
1/2+x,1/2-y,-z
1/2-x,1/2+y,-z
1/2-x,1/2-y,-z
1/2+x,1/2+y,-z
1/2-x,1/2+y,z
1/2+x,1/2-y,z
loop_
_atom_site_type_symbol
_atom_site_label
_atom_site_fract_x
_atom_site_fract_y
_atom_site_fract_z
Si Si1 0.184207 0.942052 0.240539
Si Si2 0.407773 0.419349 0.500000
Si Si3 0.754041 0.189517 0.000000
Si Si4 0.286944 0.154021 0.284770
Si Si5 0.596054 0.192174 0.500000
Si Si6 0.598361 0.384540 0.000000
Si Si7 0.837515 0.808847 0.500000
O O1 0.131722 0.946576 0.373127
O O2 0.264167 0.907244 0.274929
O O3 0.124686 0.916988 0.129725
O O4 0.212725 0.000000 0.195145
O O5 0.500000 0.436482 0.500000
O O6 0.401781 0.356189 0.500000
O O7 0.750000 0.250000 0.000000
O O8 0.704392 0.172232 0.131847
O O9 0.848693 0.169178 0.000000
O O10 0.370937 0.163006 0.366210
O O11 0.217328 0.186562 0.365412
O O12 0.500000 0.185394 0.500000
O O13 0.618090 0.253404 0.500000
O O14 0.500000 0.373195 0.000000
#
# Coordination Sequence:
#
# PCOD8266912 Si02
#       7
#    16   8   8  16   8   8   8
#     4  10  20  33  50  69  96 136 168 198 244 297
#     4  10  19  28  41  68 100 126 161 202 235 279
#     4  10  18  33  53  72 101 141 172 200 245 297
#     4   9  19  34  51  72  99 129 169 207 243 305
#     4  11  20  33  54  75  97 127 166 216 265 304
#     4  10  21  34  50  77 108 134 168 208 243 289
#     4   9  17  32  50  69  97 134 164 193 246 311
#
# _framework density 17.327552000000001
#
# number of rings (size 3 to 8) (size 9 to 14) (size 15 to 20)
#    0.000    2.222    0.000    5.000    0.000    2.667 
#    0.000    9.444    0.000    1.333    0.000    0.000 
#    0.000    5.333    0.000    0.000    0.000    0.000 
#
# Total GULP energy -446186.834465 kJ/mol
# GULP energy per Si atom -12394.078735 kJ/mol
# Density = 1.728811 g / cm^3
# Si number density = 17.327552 Si / 1000 Ang^3
#
#
#
# Elastic Constant Matrix: (Units=GPa)
#
#
# Indices 1 2 3 4 5 6 
#
# 1 106.5533 57.0805 42.8102 0.0000 0.0000 0.0000
# 2 57.0805 132.0885 38.1659 0.0000 0.0000 0.0000
# 3 42.8102 38.1659 140.1943 0.0000 0.0000 0.0000
# 4 0.0000 0.0000 0.0000 -3.5020 0.0000 0.0000
# 5 0.0000 0.0000 0.0000 0.0000 27.1188 0.0000
# 6 0.0000 0.0000 0.0000 0.0000 0.0000 11.2974
#
#
#
# Elastic Compliance Matrix: (Units=1/GPa)
#
#
# Indices 1 2 3 4 5 6 
#
# 1 0.013068 -0.004878 -0.002663 0.000000 0.000000 0.000000
# 2 -0.004878 0.010038 -0.001243 0.000000 0.000000 0.000000
# 3 -0.002663 -0.001243 0.008284 0.000000 0.000000 0.000000
# 4 0.000000 0.000000 0.000000 -0.285551 0.000000 0.000000
# 5 0.000000 0.000000 0.000000 0.000000 0.036875 0.000000
# 6 0.000000 0.000000 0.000000 0.000000 0.000000 0.088516
#
#
# Mechanical properties :
#
#
# Convention : Reuss Voigt Hill
#
# Bulk Modulus (GPa) = 72.34282 72.77214 72.55748
# Shear Modulus (GPa) = -46.90595 23.03480 -11.93558
#
# Velocity S-wave (km/s) = -5.20854 3.65001 -2.62739
# Velocity P-wave (km/s) = 2.38095 7.73644 5.72370
#
# Compressibility (1/GPa) = 0.01382307
#
# Stress axis : x y z
#
# Youngs Moduli (GPa) = 76.52456 99.62399 120.70851
#
# Poissons Ratio (x) = 0.48594 0.32139
# Poissons Ratio (y) = 0.37327 0.15006
# Poissons Ratio (z) = 0.20375 0.12385
#
# Static dielectric constant tensor:
#      x y z
#    x 2.976250 0.000000 0.000000 
#    y 0.000000 3.310980 0.000000 
#    z 0.000000 0.000000 3.390470 
# 
# 
# High freq. dielectric constant tensor:
#      x y z
#    x 1.626580 0.000000 0.000000 
#    y 0.000000 1.675010 0.000000 
#    z 0.000000 0.000000 1.691150 
# 
# From -- ./inp_files/7484.got.cif
#   From: 2010.03.12/outbox.cif.g09.slc.cpg/sg65_4_cif.got.tgz:7484.got - 2010.04.10 20:52:16.
