data_PCOD8266833
_publ_section_title
;
Structure prediction by ZEFSAII (Michael W. Deem and Ramdas Pophale) SiO2 
 PCOD8266833
Probable space group: C M M M
;
_chemical_formula_sum "Si O2"
_cell_formula_units_Z 48
_cell_length_a 8.898391
_cell_length_b 33.991017
_cell_length_c 9.594175
_cell_angle_alpha 90.000000
_cell_angle_beta 90.000000
_cell_angle_gamma 90.000000
_cell_volume 2901.905593
_symmetry_space_group_name_H-M "C M M M"
_symmetry_group_IT_number 65
_symmetry_cell_setting 'orthorhombic'
loop_
_space_group_symop_operation_xyz
x,y,z
-x,-y,z
x,-y,-z
-x,y,-z
-x,-y,-z
x,y,-z
-x,y,z
x,-y,z
1/2+x,1/2+y,z
1/2-x,1/2-y,z
1/2+x,1/2-y,-z
1/2-x,1/2+y,-z
1/2-x,1/2-y,-z
1/2+x,1/2+y,-z
1/2-x,1/2+y,z
1/2+x,1/2-y,z
loop_
_atom_site_type_symbol
_atom_site_label
_atom_site_fract_x
_atom_site_fract_y
_atom_site_fract_z
Si Si1 0.321434 0.292585 0.000000
Si Si2 0.672785 0.421160 0.664595
Si Si3 0.830691 0.500000 0.665745
Si Si4 0.170432 0.642873 0.153043
O O1 0.250000 0.250000 0.000000
O O2 0.262467 0.315990 0.861995
O O3 0.500000 0.289885 0.000000
O O4 0.693244 0.417262 0.500000
O O5 0.500000 0.421767 0.709099
O O6 0.746932 0.461256 0.721566
O O7 0.752496 0.384063 0.732644
O O8 0.828495 0.500000 0.500000
O O9 0.000000 0.500000 0.723776
O O10 0.000000 0.651918 0.200482
O O11 0.171513 0.621880 0.000000
#
# Coordination Sequence:
#
# PCOD8266833 Si02
#       4
#     8  16   8  16
#     4  10  18  32  54  77 100 127 160 198 238 290
#     4  10  19  31  49  73 100 131 167 206 246 289
#     4   9  17  29  46  67  94 131 170 206 243 286
#     4   9  19  33  50  74 100 128 164 202 242 290
#
# _framework density 16.540854
#
# number of rings (size 3 to 8) (size 9 to 14) (size 15 to 20)
#    1.000    1.500    0.000    3.500    0.000    4.000 
#    0.000    0.833    0.000    6.000    0.000    0.000 
#    0.000    0.000    0.000    0.000    0.000    0.000 
#
# Total GULP energy -297443.313350 kJ/mol
# GULP energy per Si atom -12393.471390 kJ/mol
# Density = 1.650321 g / cm^3
# Si number density = 16.540854 Si / 1000 Ang^3
#
#
#
# Elastic Constant Matrix: (Units=GPa)
#
#
# Indices 1 2 3 4 5 6 
#
# 1 184.8334 85.7858 33.5162 0.0000 0.0000 0.0000
# 2 85.7858 145.3719 28.6202 0.0000 0.0000 0.0000
# 3 33.5162 28.6202 20.6576 0.0000 0.0000 0.0000
# 4 0.0000 0.0000 0.0000 24.1625 0.0000 0.0000
# 5 0.0000 0.0000 0.0000 0.0000 25.3082 0.0000
# 6 0.0000 0.0000 0.0000 0.0000 0.0000 37.5300
#
#
#
# Elastic Compliance Matrix: (Units=1/GPa)
#
#
# Indices 1 2 3 4 5 6 
#
# 1 0.008635 -0.003214 -0.009557 0.000000 0.000000 0.000000
# 2 -0.003214 0.010655 -0.009548 0.000000 0.000000 0.000000
# 3 -0.009557 -0.009548 0.077142 0.000000 0.000000 0.000000
# 4 0.000000 0.000000 0.000000 0.041386 0.000000 0.000000
# 5 0.000000 0.000000 0.000000 0.000000 0.039513 0.000000
# 6 0.000000 0.000000 0.000000 0.000000 0.000000 0.026645
#
#
# Mechanical properties :
#
#
# Convention : Reuss Voigt Hill
#
# Bulk Modulus (GPa) = 19.30695 71.85636 45.58166
# Shear Modulus (GPa) = 18.80550 30.92951 24.86750
#
# Velocity S-wave (km/s) = 3.37547 4.32891 3.88158
# Velocity P-wave (km/s) = 5.18549 8.27780 6.90693
#
# Compressibility (1/GPa) = 0.05179481
#
# Stress axis : x y z
#
# Youngs Moduli (GPa) = 115.80774 93.85003 12.96309
#
# Poissons Ratio (x) = 0.30164 0.12389
# Poissons Ratio (y) = 0.37222 0.12377
# Poissons Ratio (z) = 1.10677 0.89605
#
# Static dielectric constant tensor:
#      x y z
#    x 3.346000 0.000000 0.000000 
#    y 0.000000 3.034980 0.000000 
#    z 0.000000 0.000000 2.733380 
# 
# 
# High freq. dielectric constant tensor:
#      x y z
#    x 1.662310 0.000000 0.000000 
#    y 0.000000 1.631020 0.000000 
#    z 0.000000 0.000000 1.595540 
# 
# From -- ./inp_files/20239.got.cif
#   From: 2010.03.12/outbox.cif.g09.slc.cpg/sg65_11_cif.got.tgz:20239.got - 2010.04.10 20:52:16.
