data_PCOD8266211
_publ_section_title
;
Structure prediction by ZEFSAII (Michael W. Deem and Ramdas Pophale) SiO2 
 PCOD8266211
Probable space group: C M M M
;
_chemical_formula_sum "Si O2"
_cell_formula_units_Z 88
_cell_length_a 23.675549
_cell_length_b 16.478905
_cell_length_c 15.621384
_cell_angle_alpha 90.000000
_cell_angle_beta 90.000000
_cell_angle_gamma 90.000000
_cell_volume 6094.638022
_symmetry_space_group_name_H-M "C M M M"
_symmetry_group_IT_number 65
_symmetry_cell_setting 'orthorhombic'
loop_
_space_group_symop_operation_xyz
x,y,z
-x,-y,z
x,-y,-z
-x,y,-z
-x,-y,-z
x,y,-z
-x,y,z
x,-y,z
1/2+x,1/2+y,z
1/2-x,1/2-y,z
1/2+x,1/2-y,-z
1/2-x,1/2+y,-z
1/2-x,1/2-y,-z
1/2+x,1/2+y,-z
1/2-x,1/2+y,z
1/2+x,1/2-y,z
loop_
_atom_site_type_symbol
_atom_site_label
_atom_site_fract_x
_atom_site_fract_y
_atom_site_fract_z
Si Si1 0.138138 0.350112 0.101007
Si Si2 0.933430 0.088276 0.500000
Si Si3 0.063599 0.500000 0.101704
Si Si4 0.127157 0.173177 0.158646
Si Si5 0.736720 0.593440 0.900089
Si Si6 0.065340 0.096420 0.314394
Si Si7 0.566609 0.406935 0.000000
O O1 0.095762 0.419784 0.133786
O O2 0.122250 0.269853 0.152809
O O3 0.201195 0.376946 0.124022
O O4 0.131890 0.333766 0.000000
O O5 0.917248 0.130571 0.590437
O O6 0.000000 0.075488 0.500000
O O7 0.904315 0.000000 0.500000
O O8 0.000000 0.500000 0.138351
O O9 0.063884 0.500000 0.000000
O O10 0.192350 0.147058 0.152118
O O11 0.104192 0.145291 0.249663
O O12 0.090279 0.133282 0.084747
O O13 0.730026 0.500000 0.874069
O O14 0.724376 0.606253 0.000000
O O15 0.000000 0.115194 0.294094
O O16 0.076247 0.000000 0.307347
O O17 0.585867 0.500000 0.000000
O O18 0.500000 0.396939 0.000000
#
# Coordination Sequence:
#
# PCOD8266211 Si02
#       7
#    16   8   8  16  16  16   8
#     4  10  19  33  44  62  84 115 156 198 228 260
#     4   7  12  26  46  62  81 115 149 183 222 259
#     4   9  18  32  48  60  78 113 155 201 240 264
#     4  12  20  28  43  66  89 119 153 183 222 266
#     4  10  18  30  47  60  83 116 159 195 225 256
#     4   9  17  29  44  64  91 119 150 183 220 265
#     4  11  22  32  37  53  93 131 150 167 204 263
#
# _framework density 14.438921000000001
#
# number of rings (size 3 to 8) (size 9 to 14) (size 15 to 20)
#    0.000    2.091    2.727    3.818    0.000    4.364 
#    0.000    0.000    0.000    0.000    0.000    2.545 
#    0.000    0.727    0.000    4.091    0.000    0.000 
#
# Total GULP energy -545460.274606 kJ/mol
# GULP energy per Si atom -12396.824423 kJ/mol
# Density = 1.440606 g / cm^3
# Si number density = 14.438921 Si / 1000 Ang^3
#
#
#
# Elastic Constant Matrix: (Units=GPa)
#
#
# Indices 1 2 3 4 5 6 
#
# 1 88.4442 58.0501 43.8332 0.0000 0.0000 0.0000
# 2 58.0501 107.7552 39.0219 0.0000 0.0000 0.0000
# 3 43.8332 39.0219 84.9895 0.0000 0.0000 0.0000
# 4 0.0000 0.0000 0.0000 -9.3858 0.0000 0.0000
# 5 0.0000 0.0000 0.0000 0.0000 12.2168 0.0000
# 6 0.0000 0.0000 0.0000 0.0000 0.0000 12.5117
#
#
#
# Elastic Compliance Matrix: (Units=1/GPa)
#
#
# Indices 1 2 3 4 5 6 
#
# 1 0.020069 -0.008472 -0.006461 0.000000 0.000000 0.000000
# 2 -0.008472 0.014707 -0.002383 0.000000 0.000000 0.000000
# 3 -0.006461 -0.002383 0.016193 0.000000 0.000000 0.000000
# 4 0.000000 0.000000 0.000000 -0.106544 0.000000 0.000000
# 5 0.000000 0.000000 0.000000 0.000000 0.081854 0.000000
# 6 0.000000 0.000000 0.000000 0.000000 0.000000 0.079925
#
#
# Mechanical properties :
#
#
# Convention : Reuss Voigt Hill
#
# Bulk Modulus (GPa) = 61.21113 62.55546 61.88330
# Shear Modulus (GPa) = 34.18051 12.42080 23.30066
#
# Velocity S-wave (km/s) = 4.87072 2.93615 4.02150
# Velocity P-wave (km/s) = 8.60912 7.41032 8.03212
#
# Compressibility (1/GPa) = 0.01633690
#
# Stress axis : x y z
#
# Youngs Moduli (GPa) = 49.82784 67.99291 61.75671
#
# Poissons Ratio (x) = 0.57603 0.39900
# Poissons Ratio (y) = 0.42214 0.14719
# Poissons Ratio (z) = 0.32193 0.16205
#
# Static dielectric constant tensor:
#      x y z
#    x 2.865750 0.000000 0.000000 
#    y 0.000000 2.810750 0.000000 
#    z 0.000000 0.000000 2.701860 
# 
# 
# High freq. dielectric constant tensor:
#      x y z
#    x 1.553780 0.000000 0.000000 
#    y 0.000000 1.546680 0.000000 
#    z 0.000000 0.000000 1.511350 
# 
# From -- ./inp_files/45632.got.cif
#   From: 2010.03.12/outbox.cif.g09.slc.cpg/sg65_23_cif.got.tgz:45632.got - 2010.04.10 20:52:16.
