data_PCOD8266103
_publ_section_title
;
Structure prediction by ZEFSAII (Michael W. Deem and Ramdas Pophale) SiO2 
 PCOD8266103
Probable space group: C M M M
;
_chemical_formula_sum "Si O2"
_cell_formula_units_Z 104
_cell_length_a 29.930375
_cell_length_b 21.758748
_cell_length_c 7.863954
_cell_angle_alpha 90.000000
_cell_angle_beta 90.000000
_cell_angle_gamma 90.000000
_cell_volume 5121.380282
_symmetry_space_group_name_H-M "C M M M"
_symmetry_group_IT_number 65
_symmetry_cell_setting 'orthorhombic'
loop_
_space_group_symop_operation_xyz
x,y,z
-x,-y,z
x,-y,-z
-x,y,-z
-x,-y,-z
x,y,-z
-x,y,z
x,-y,z
1/2+x,1/2+y,z
1/2-x,1/2-y,z
1/2+x,1/2-y,-z
1/2-x,1/2+y,-z
1/2-x,1/2-y,-z
1/2+x,1/2+y,-z
1/2-x,1/2+y,z
1/2+x,1/2-y,z
loop_
_atom_site_type_symbol
_atom_site_label
_atom_site_fract_x
_atom_site_fract_y
_atom_site_fract_z
Si Si1 0.948505 0.347058 0.196242
Si Si2 0.636426 0.369526 0.192831
Si Si3 0.950732 0.929273 0.696847
Si Si4 0.275398 0.811378 0.201646
Si Si5 0.447510 0.933352 0.500000
Si Si6 0.867990 0.735756 0.200400
Si Si7 0.723943 0.431387 0.797477
O O1 0.933554 0.400579 0.324508
O O2 0.916578 0.290721 0.247691
O O3 0.000000 0.326984 0.225288
O O4 0.941017 0.368356 0.000000
O O5 0.586607 0.395737 0.194551
O O6 0.636861 0.303111 0.285623
O O7 0.673659 0.415477 0.269973
O O8 0.651092 0.358794 0.000000
O O9 0.939128 0.920577 0.500000
O O10 0.000000 0.901876 0.737975
O O11 0.950426 0.000000 0.748310
O O12 0.250000 0.750000 0.270199
O O13 0.327085 0.807365 0.262893
O O14 0.255697 0.876175 0.273065
O O15 0.270791 0.812687 0.000000
O O16 0.500000 0.940713 0.500000
O O17 0.424132 0.000000 0.500000
O O18 0.864558 0.742435 0.000000
O O19 0.736694 0.500000 0.726645
O O20 0.726284 0.434169 0.000000
#
# Coordination Sequence:
#
# PCOD8266103 Si02
#       7
#    16  16  16  16   8  16  16
#     4   9  18  33  52  78 113 145 177 224 271 316
#     4  10  18  29  48  74 100 127 165 211 258 307
#     4   9  19  35  49  63  92 132 169 206 250 302
#     4   9  14  25  44  66  97 136 171 207 257 315
#     4   9  18  34  56  80 105 140 185 223 268 331
#     4   9  17  29  47  72 102 138 176 210 257 318
#     4   9  16  25  41  70 103 129 161 211 260 302
#
# _framework density 20.307026
#
# number of rings (size 3 to 8) (size 9 to 14) (size 15 to 20)
#    0.000    2.846    1.538    0.923    0.000    2.154 
#    1.385    4.615    0.000    2.769    2.000    1.615 
#    0.000    0.000    0.000    0.000    0.000    0.000 
#
# Total GULP energy -644202.484115 kJ/mol
# GULP energy per Si atom -12388.509310 kJ/mol
# Density = 2.026081 g / cm^3
# Si number density = 20.307026 Si / 1000 Ang^3
#
#
#
# Elastic Constant Matrix: (Units=GPa)
#
#
# Indices 1 2 3 4 5 6 
#
# 1 130.7131 69.7083 9.1895 0.0000 0.0000 0.0000
# 2 69.7083 164.5497 21.9486 0.0000 0.0000 0.0000
# 3 9.1895 21.9486 34.4648 0.0000 0.0000 0.0000
# 4 0.0000 0.0000 0.0000 -67.9088 0.0000 0.0000
# 5 0.0000 0.0000 0.0000 0.0000 -0.2029 0.0000
# 6 0.0000 0.0000 0.0000 0.0000 0.0000 34.3966
#
#
#
# Elastic Compliance Matrix: (Units=1/GPa)
#
#
# Indices 1 2 3 4 5 6 
#
# 1 0.009883 -0.004191 0.000034 0.000000 0.000000 0.000000
# 2 -0.004191 0.008419 -0.004244 0.000000 0.000000 0.000000
# 3 0.000034 -0.004244 0.031709 0.000000 0.000000 0.000000
# 4 0.000000 0.000000 0.000000 -0.014726 0.000000 0.000000
# 5 0.000000 0.000000 0.000000 0.000000 -4.929154 0.000000
# 6 0.000000 0.000000 0.000000 0.000000 0.000000 0.029073
#
#
# Mechanical properties :
#
#
# Convention : Reuss Voigt Hill
#
# Bulk Modulus (GPa) = 30.11294 59.04669 44.57981
# Shear Modulus (GPa) = -1.03371 8.51574 3.74101
#
# Velocity S-wave (km/s) = -0.71425 2.05002 1.35876
# Velocity P-wave (km/s) = 3.76574 5.89437 4.94593
#
# Compressibility (1/GPa) = 0.03320832
#
# Stress axis : x y z
#
# Youngs Moduli (GPa) = 101.18214 118.78103 31.53704
#
# Poissons Ratio (x) = 0.49785 -0.00107
# Poissons Ratio (y) = 0.42409 0.13384
# Poissons Ratio (z) = -0.00344 0.50410
#
# Static dielectric constant tensor:
#      x y z
#    x 3.840570 0.000000 0.000000 
#    y 0.000000 3.968000 0.000000 
#    z 0.000000 0.000000 3.226610 
# 
# 
# High freq. dielectric constant tensor:
#      x y z
#    x 1.792010 0.000000 0.000000 
#    y 0.000000 1.787220 0.000000 
#    z 0.000000 0.000000 1.750710 
# 
# From -- ./inp_files/18626.got.cif
#   From: 2010.03.12/outbox.cif.g09.slc.cpg/sg65_10_cif.got.tgz:18626.got - 2010.04.10 20:52:16.
