data_PCOD8266930
_publ_section_title
;
Structure prediction by ZEFSAII (Michael W. Deem and Ramdas Pophale) SiO2 
 PCOD8266930
Probable space group: C M M M
;
_chemical_formula_sum "Si O2"
_cell_formula_units_Z 88
_cell_length_a 20.001148
_cell_length_b 17.395108
_cell_length_c 14.302228
_cell_angle_alpha 90.000000
_cell_angle_beta 90.000000
_cell_angle_gamma 90.000000
_cell_volume 4976.061624
_symmetry_space_group_name_H-M "C M M M"
_symmetry_group_IT_number 65
_symmetry_cell_setting 'orthorhombic'
loop_
_space_group_symop_operation_xyz
x,y,z
-x,-y,z
x,-y,-z
-x,y,-z
-x,-y,-z
x,y,-z
-x,y,z
x,-y,z
1/2+x,1/2+y,z
1/2-x,1/2-y,z
1/2+x,1/2-y,-z
1/2-x,1/2+y,-z
1/2-x,1/2-y,-z
1/2+x,1/2+y,-z
1/2-x,1/2+y,z
1/2+x,1/2-y,z
loop_
_atom_site_type_symbol
_atom_site_label
_atom_site_fract_x
_atom_site_fract_y
_atom_site_fract_z
Si Si1 0.862046 0.632257 0.215829
Si Si2 0.192850 0.808808 0.394737
Si Si3 0.922846 0.693458 0.395142
Si Si4 0.825792 0.223271 0.895115
Si Si5 0.210287 0.912014 0.227530
Si Si6 0.576907 0.000000 0.101085
O O1 0.891582 0.633967 0.321004
O O2 0.866069 0.717114 0.170002
O O3 0.789057 0.595916 0.213906
O O4 0.907764 0.577005 0.156268
O O5 0.212468 0.832758 0.500000
O O6 0.250000 0.750000 0.355161
O O7 0.119529 0.771852 0.390349
O O8 0.191892 0.884573 0.331829
O O9 0.916651 0.658014 0.500000
O O10 0.000000 0.712103 0.371151
O O11 0.750000 0.250000 0.900222
O O12 0.829671 0.138953 0.848513
O O13 0.856320 0.219957 0.000000
O O14 0.188064 0.000000 0.214487
O O15 0.500000 0.000000 0.080732
O O16 0.614681 0.000000 0.000000
#
# Coordination Sequence:
#
# PCOD8266930 Si02
#       6
#    16  16  16  16  16   8
#     4  11  19  36  55  78 110 146 182 223 269 326
#     4  10  18  33  55  77 108 143 180 226 274 328
#     4  10  20  34  57  84 108 141 182 223 271 328
#     4   9  18  32  51  76 105 139 180 225 273 323
#     4  11  20  32  51  80 111 141 181 229 279 325
#     4  11  24  38  53  79 115 153 187 222 270 326
#
# _framework density 17.684669
#
# number of rings (size 3 to 8) (size 9 to 14) (size 15 to 20)
#    0.000    1.727    4.545    1.636    0.000    1.455 
#    0.000    0.455    0.000    2.182    0.000    2.545 
#    0.000    1.455    0.000    0.000    0.000    0.000 
#
# Total GULP energy -545547.230373 kJ/mol
# GULP energy per Si atom -12398.800690 kJ/mol
# Density = 1.764442 g / cm^3
# Si number density = 17.684669 Si / 1000 Ang^3
#
#
#
# Elastic Constant Matrix: (Units=GPa)
#
#
# Indices 1 2 3 4 5 6 
#
# 1 52.8795 19.9011 16.7426 0.0000 0.0000 0.0000
# 2 19.9011 129.8919 60.5989 0.0000 0.0000 0.0000
# 3 16.7426 60.5989 133.3433 0.0000 0.0000 0.0000
# 4 0.0000 0.0000 0.0000 -11.4054 0.0000 0.0000
# 5 0.0000 0.0000 0.0000 0.0000 18.3236 0.0000
# 6 0.0000 0.0000 0.0000 0.0000 0.0000 17.1138
#
#
#
# Elastic Compliance Matrix: (Units=1/GPa)
#
#
# Indices 1 2 3 4 5 6 
#
# 1 0.020284 -0.002436 -0.001440 0.000000 0.000000 0.000000
# 2 -0.002436 0.010063 -0.004267 0.000000 0.000000 0.000000
# 3 -0.001440 -0.004267 0.009619 0.000000 0.000000 0.000000
# 4 0.000000 0.000000 0.000000 -0.087678 0.000000 0.000000
# 5 0.000000 0.000000 0.000000 0.000000 0.054574 0.000000
# 6 0.000000 0.000000 0.000000 0.000000 0.000000 0.058432
#
#
# Mechanical properties :
#
#
# Convention : Reuss Voigt Hill
#
# Bulk Modulus (GPa) = 42.23003 56.73333 49.48168
# Shear Modulus (GPa) = 55.88233 19.39789 37.64011
#
# Velocity S-wave (km/s) = 5.62742 3.31550 4.61847
# Velocity P-wave (km/s) = 8.13358 6.84156 7.51539
#
# Compressibility (1/GPa) = 0.02367983
#
# Stress axis : x y z
#
# Youngs Moduli (GPa) = 49.30098 99.37656 103.95570
#
# Poissons Ratio (x) = 0.24208 0.14967
# Poissons Ratio (y) = 0.12010 0.44360
# Poissons Ratio (z) = 0.07098 0.42406
#
# Static dielectric constant tensor:
#      x y z
#    x 3.104890 0.000000 0.000000 
#    y 0.000000 3.101020 0.000000 
#    z 0.000000 0.000000 3.642230 
# 
# 
# High freq. dielectric constant tensor:
#      x y z
#    x 1.655520 0.000000 0.000000 
#    y 0.000000 1.658600 0.000000 
#    z 0.000000 0.000000 1.708210 
# 
# From -- ./inp_files/42467.got.cif
#   From: 2010.03.12/outbox.cif.g09.slc.cpg/sg65_22_cif.got.tgz:42467.got - 2010.04.10 20:52:16.
