data_PCOD8266506
_publ_section_title
;
Structure prediction by ZEFSAII (Michael W. Deem and Ramdas Pophale) SiO2 
 PCOD8266506
Probable space group: C M M M
;
_chemical_formula_sum "Si O2"
_cell_formula_units_Z 120
_cell_length_a 17.685928
_cell_length_b 19.925161
_cell_length_c 18.003555
_cell_angle_alpha 90.000000
_cell_angle_beta 90.000000
_cell_angle_gamma 90.000000
_cell_volume 6344.362095
_symmetry_space_group_name_H-M "C M M M"
_symmetry_group_IT_number 65
_symmetry_cell_setting 'orthorhombic'
loop_
_space_group_symop_operation_xyz
x,y,z
-x,-y,z
x,-y,-z
-x,y,-z
-x,-y,-z
x,y,-z
-x,y,z
x,-y,z
1/2+x,1/2+y,z
1/2-x,1/2-y,z
1/2+x,1/2-y,-z
1/2-x,1/2+y,-z
1/2-x,1/2-y,-z
1/2+x,1/2+y,-z
1/2-x,1/2+y,z
1/2+x,1/2-y,z
loop_
_atom_site_type_symbol
_atom_site_label
_atom_site_fract_x
_atom_site_fract_y
_atom_site_fract_z
Si Si1 0.588609 0.380878 0.583176
Si Si2 0.344014 0.888552 0.319465
Si Si3 0.823414 0.924079 0.277739
Si Si4 0.086037 0.500000 0.412600
Si Si5 0.411785 0.074668 0.166629
Si Si6 0.584574 0.317213 0.804535
Si Si7 0.090156 0.704978 0.084152
Si Si8 0.416623 0.243981 0.649715
O O1 0.612382 0.403329 0.500000
O O2 0.500000 0.392360 0.596577
O O3 0.631314 0.424467 0.644613
O O4 0.608579 0.302224 0.592954
O O5 0.258693 0.894275 0.292370
O O6 0.399505 0.905071 0.251692
O O7 0.355175 0.814391 0.352199
O O8 0.365640 0.936614 0.386615
O O9 0.862738 0.881530 0.211827
O O10 0.817439 0.000000 0.248705
O O11 0.083603 0.500000 0.500000
O O12 0.000000 0.500000 0.380870
O O13 0.500000 0.070213 0.151128
O O14 0.376800 0.133859 0.114999
O O15 0.376380 0.000000 0.150134
O O16 0.500000 0.342384 0.826058
O O17 0.619591 0.269556 0.869175
O O18 0.579935 0.272676 0.731877
O O19 0.000000 0.703231 0.090638
O O20 0.118206 0.713731 0.000000
O O21 0.500000 0.216307 0.627845
#
# Coordination Sequence:
#
# PCOD8266506 Si02
#       8
#    16  16  16   8  16  16  16  16
#     4   9  20  38  58  80 104 134 176 228 290 351
#     4  12  21  35  54  78 108 148 187 230 278 323
#     4  11  23  37  53  80 109 142 187 238 287 334
#     4  11  24  38  52  76 110 152 196 229 266 326
#     4  10  18  30  53  81 112 151 189 225 267 324
#     4   9  18  34  56  82 110 144 182 228 279 334
#     4   9  17  31  54  87 120 146 180 229 280 328
#     4   9  17  32  56  80 104 136 181 226 266 321
#
# _framework density 18.914429999999999
#
# number of rings (size 3 to 8) (size 9 to 14) (size 15 to 20)
#    0.000    2.067    2.667    2.400    0.000    4.800 
#    0.000    4.000    0.000    2.000    0.000    1.867 
#    0.000    0.000    0.000    0.000    0.000    0.000 
#
# Total GULP energy -743775.551434 kJ/mol
# GULP energy per Si atom -12396.259191 kJ/mol
# Density = 1.887138 g / cm^3
# Si number density = 18.914430 Si / 1000 Ang^3
#
#
#
# Elastic Constant Matrix: (Units=GPa)
#
#
# Indices 1 2 3 4 5 6 
#
# 1 55.0476 33.0301 1.5337 0.0000 0.0000 0.0000
# 2 33.0301 89.6193 12.3595 0.0000 0.0000 0.0000
# 3 1.5337 12.3595 76.4482 0.0000 0.0000 0.0000
# 4 0.0000 0.0000 0.0000 23.2549 0.0000 0.0000
# 5 0.0000 0.0000 0.0000 0.0000 11.1507 0.0000
# 6 0.0000 0.0000 0.0000 0.0000 0.0000 -317.2863
#
#
#
# Elastic Compliance Matrix: (Units=1/GPa)
#
#
# Indices 1 2 3 4 5 6 
#
# 1 0.023391 -0.008751 0.000946 0.000000 0.000000 0.000000
# 2 -0.008751 0.014687 -0.002199 0.000000 0.000000 0.000000
# 3 0.000946 -0.002199 0.013417 0.000000 0.000000 0.000000
# 4 0.000000 0.000000 0.000000 0.043002 0.000000 0.000000
# 5 0.000000 0.000000 0.000000 0.000000 0.089681 0.000000
# 6 0.000000 0.000000 0.000000 0.000000 0.000000 -0.003152
#
#
# Mechanical properties :
#
#
# Convention : Reuss Voigt Hill
#
# Bulk Modulus (GPa) = 31.76043 34.99575 33.37809
# Shear Modulus (GPa) = 23.63729 -44.96335 -10.66303
#
# Velocity S-wave (km/s) = 3.53894 -4.88094 -2.37692
# Velocity P-wave (km/s) = 5.79024 3.63627 3.18625
#
# Compressibility (1/GPa) = 0.03148572
#
# Stress axis : x y z
#
# Youngs Moduli (GPa) = 42.75194 68.08771 74.53076
#
# Poissons Ratio (x) = 0.59586 -0.07047
# Poissons Ratio (y) = 0.37413 0.16388
# Poissons Ratio (z) = -0.04042 0.14972
#
# Static dielectric constant tensor:
#      x y z
#    x 3.278930 0.000000 0.000000 
#    y 0.000000 3.842650 0.000000 
#    z 0.000000 0.000000 3.399540 
# 
# 
# High freq. dielectric constant tensor:
#      x y z
#    x 1.708110 0.000000 0.000000 
#    y 0.000000 1.741260 0.000000 
#    z 0.000000 0.000000 1.714340 
# 
# From -- ./inp_files/54963.got.cif
#   From: 2010.03.12/outbox.cif.g09.slc.cpg/sg65_28_cif.got.tgz:54963.got - 2010.04.10 20:52:16.
