data_PCOD8266674
_publ_section_title
;
Structure prediction by ZEFSAII (Michael W. Deem and Ramdas Pophale) SiO2 
 PCOD8266674
Probable space group: C M M M
;
_chemical_formula_sum "Si O2"
_cell_formula_units_Z 96
_cell_length_a 23.575119
_cell_length_b 25.207168
_cell_length_c 9.067149
_cell_angle_alpha 90.000000
_cell_angle_beta 90.000000
_cell_angle_gamma 90.000000
_cell_volume 5388.261965
_symmetry_space_group_name_H-M "C M M M"
_symmetry_group_IT_number 65
_symmetry_cell_setting 'orthorhombic'
loop_
_space_group_symop_operation_xyz
x,y,z
-x,-y,z
x,-y,-z
-x,y,-z
-x,-y,-z
x,y,-z
-x,y,z
x,-y,z
1/2+x,1/2+y,z
1/2-x,1/2-y,z
1/2+x,1/2-y,-z
1/2-x,1/2+y,-z
1/2-x,1/2-y,-z
1/2+x,1/2+y,-z
1/2-x,1/2+y,z
1/2+x,1/2-y,z
loop_
_atom_site_type_symbol
_atom_site_label
_atom_site_fract_x
_atom_site_fract_y
_atom_site_fract_z
Si Si1 0.064093 0.689767 0.671487
Si Si2 0.367275 0.898836 0.174946
Si Si3 0.565274 0.687872 0.669837
Si Si4 0.873633 0.903541 0.174321
Si Si5 0.748441 0.559534 0.825428
Si Si6 0.067055 0.000000 0.331753
Si Si7 0.936429 0.500000 0.175480
O O1 0.069700 0.676638 0.500000
O O2 0.109339 0.655647 0.760452
O O3 0.078486 0.750915 0.702210
O O4 0.000000 0.677074 0.725123
O O5 0.302934 0.907698 0.231551
O O6 0.404769 0.947795 0.234373
O O7 0.370151 0.895090 0.000000
O O8 0.577949 0.673807 0.500000
O O9 0.500000 0.674841 0.706558
O O10 0.605857 0.654100 0.774931
O O11 0.808317 0.910109 0.223948
O O12 0.911341 0.947869 0.250912
O O13 0.880494 0.909594 0.000000
O O14 0.748505 0.500000 0.758310
O O15 0.751744 0.554737 0.000000
O O16 0.088667 0.000000 0.500000
O O17 0.000000 0.000000 0.324568
O O18 0.000000 0.500000 0.239235
O O19 0.936315 0.500000 0.000000
#
# Coordination Sequence:
#
# PCOD8266674 Si02
#       7
#    16  16  16  16  16   8   8
#     4   9  19  36  55  75 105 142 173 210 266 320
#     4  10  18  31  54  78 102 136 177 216 255 306
#     4   9  19  37  57  75 102 141 176 210 264 326
#     4  11  21  34  55  80 105 135 176 223 264 305
#     4   9  17  33  53  74 104 142 174 208 260 312
#     4  11  23  36  51  75 109 143 172 209 262 323
#     4   9  16  25  43  75 105 125 156 207 258 298
#
# _framework density 17.816506
#
# number of rings (size 3 to 8) (size 9 to 14) (size 15 to 20)
#    0.000    2.333    1.667    2.750    0.000    4.667 
#    0.000    4.583    0.000    6.500    0.000    0.000 
#    0.000    0.000    0.000    0.000    0.000    0.000 
#
# Total GULP energy -595221.377516 kJ/mol
# GULP energy per Si atom -12400.445365 kJ/mol
# Density = 1.777595 g / cm^3
# Si number density = 17.816506 Si / 1000 Ang^3
#
#
#
# Elastic Constant Matrix: (Units=GPa)
#
#
# Indices 1 2 3 4 5 6 
#
# 1 141.9604 74.6625 46.3267 0.0000 0.0000 0.0000
# 2 74.6625 112.2842 42.7072 0.0000 0.0000 0.0000
# 3 46.3267 42.7072 54.3868 0.0000 0.0000 0.0000
# 4 0.0000 0.0000 0.0000 18.7316 0.0000 0.0000
# 5 0.0000 0.0000 0.0000 0.0000 16.5822 0.0000
# 6 0.0000 0.0000 0.0000 0.0000 0.0000 24.2711
#
#
#
# Elastic Compliance Matrix: (Units=1/GPa)
#
#
# Indices 1 2 3 4 5 6 
#
# 1 0.011921 -0.005795 -0.005603 0.000000 0.000000 0.000000
# 2 -0.005795 0.015516 -0.007248 0.000000 0.000000 0.000000
# 3 -0.005603 -0.007248 0.028851 0.000000 0.000000 0.000000
# 4 0.000000 0.000000 0.000000 0.053386 0.000000 0.000000
# 5 0.000000 0.000000 0.000000 0.000000 0.060305 0.000000
# 6 0.000000 0.000000 0.000000 0.000000 0.000000 0.041201
#
#
# Mechanical properties :
#
#
# Convention : Reuss Voigt Hill
#
# Bulk Modulus (GPa) = 52.64456 70.66936 61.65696
# Shear Modulus (GPa) = 19.62287 21.57931 20.60109
#
# Velocity S-wave (km/s) = 3.32232 3.48400 3.40412
# Velocity P-wave (km/s) = 6.65803 7.47901 7.08043
#
# Compressibility (1/GPa) = 0.01899531
#
# Stress axis : x y z
#
# Youngs Moduli (GPa) = 83.88681 64.44870 34.66103
#
# Poissons Ratio (x) = 0.37351 0.19422
# Poissons Ratio (y) = 0.48616 0.25121
# Poissons Ratio (z) = 0.47004 0.46709
#
# Static dielectric constant tensor:
#      x y z
#    x 3.479650 0.000000 0.000000 
#    y 0.000000 3.318950 0.000000 
#    z 0.000000 0.000000 3.035730 
# 
# 
# High freq. dielectric constant tensor:
#      x y z
#    x 1.694560 0.000000 0.000000 
#    y 0.000000 1.692040 0.000000 
#    z 0.000000 0.000000 1.664260 
# 
# From -- ./inp_files/14375.got.cif
#   From: 2010.03.12/outbox.cif.g09.slc.cpg/sg65_8_cif.got.tgz:14375.got - 2010.04.10 20:52:16.
