data_PCOD8266532
_publ_section_title
;
Structure prediction by ZEFSAII (Michael W. Deem and Ramdas Pophale) SiO2 
 PCOD8266532
Probable space group: C M M M
;
_chemical_formula_sum "Si O2"
_cell_formula_units_Z 88
_cell_length_a 10.368748
_cell_length_b 18.748159
_cell_length_c 25.434832
_cell_angle_alpha 90.000000
_cell_angle_beta 90.000000
_cell_angle_gamma 90.000000
_cell_volume 4944.402542
_symmetry_space_group_name_H-M "C M M M"
_symmetry_group_IT_number 65
_symmetry_cell_setting 'orthorhombic'
loop_
_space_group_symop_operation_xyz
x,y,z
-x,-y,z
x,-y,-z
-x,y,-z
-x,-y,-z
x,y,-z
-x,y,z
x,-y,z
1/2+x,1/2+y,z
1/2-x,1/2-y,z
1/2+x,1/2-y,-z
1/2-x,1/2+y,-z
1/2-x,1/2-y,-z
1/2+x,1/2+y,-z
1/2-x,1/2+y,z
1/2+x,1/2-y,z
loop_
_atom_site_type_symbol
_atom_site_label
_atom_site_fract_x
_atom_site_fract_y
_atom_site_fract_z
Si Si1 0.500000 0.831287 0.222968
Si Si2 0.500000 0.085048 0.331841
Si Si3 0.254083 0.167185 0.846471
Si Si4 0.500000 0.415222 0.323586
Si Si5 0.742097 0.584589 0.389320
Si Si6 0.500000 0.664742 0.216019
Si Si7 0.852553 0.582924 0.940501
Si Si8 0.646964 0.414950 0.500000
O O1 0.500000 0.875043 0.276611
O O2 0.374207 0.853553 0.190294
O O3 0.500000 0.746932 0.234478
O O4 0.376856 0.110931 0.365306
O O5 0.500000 0.000000 0.321950
O O6 0.250000 0.250000 0.860160
O O7 0.260915 0.126068 0.901481
O O8 0.124308 0.144071 0.817665
O O9 0.500000 0.500000 0.321052
O O10 0.373966 0.386105 0.353525
O O11 0.500000 0.385399 0.265735
O O12 0.738081 0.500000 0.390357
O O13 0.722833 0.613792 0.448652
O O14 0.840064 0.500000 0.927298
O O15 0.000000 0.608069 0.933136
O O16 0.807066 0.598375 0.000000
O O17 0.643677 0.500000 0.500000
O O18 0.500000 0.386282 0.500000
#
# Coordination Sequence:
#
# PCOD8266532 Si02
#       8
#     8   8  16   8  16   8  16   8
#     4  10  20  36  52  70 101 139 174 211 254 307
#     4  10  20  31  46  73 101 126 164 216 260 295
#     4  10  20  35  54  76 104 136 175 217 255 304
#     4  10  18  31  48  69  97 128 164 204 242 299
#     4   9  17  28  45  70  98 126 161 205 252 300
#     4  10  22  34  50  76 103 137 172 207 258 307
#     4   9  18  34  57  82 106 136 176 216 255 307
#     4   9  14  25  45  67  96 132 161 196 252 309
#
# _framework density 17.797903999999999
#
# number of rings (size 3 to 8) (size 9 to 14) (size 15 to 20)
#    0.000    2.455    1.818    1.636    0.000    2.182 
#    0.000    2.273    0.000    1.091    0.000    3.818 
#    0.000    0.000    0.000    0.000    0.000    0.000 
#
# Total GULP energy -545609.906138 kJ/mol
# GULP energy per Si atom -12400.225140 kJ/mol
# Density = 1.775740 g / cm^3
# Si number density = 17.797904 Si / 1000 Ang^3
#
#
#
# Elastic Constant Matrix: (Units=GPa)
#
#
# Indices 1 2 3 4 5 6 
#
# 1 156.4702 33.0204 87.5676 0.0000 0.0000 0.0000
# 2 33.0204 31.4969 52.0326 0.0000 0.0000 0.0000
# 3 87.5676 52.0326 170.1162 0.0000 0.0000 0.0000
# 4 0.0000 0.0000 0.0000 -4.1055 0.0000 0.0000
# 5 0.0000 0.0000 0.0000 0.0000 30.1523 0.0000
# 6 0.0000 0.0000 0.0000 0.0000 0.0000 0.0288
#
#
#
# Elastic Compliance Matrix: (Units=1/GPa)
#
#
# Indices 1 2 3 4 5 6 
#
# 1 0.009183 -0.003675 -0.003603 0.000000 0.000000 0.000000
# 2 -0.003675 0.065648 -0.018187 0.000000 0.000000 0.000000
# 3 -0.003603 -0.018187 0.013296 0.000000 0.000000 0.000000
# 4 0.000000 0.000000 0.000000 -0.243578 0.000000 0.000000
# 5 0.000000 0.000000 0.000000 0.000000 0.033165 0.000000
# 6 0.000000 0.000000 0.000000 0.000000 0.000000 34.743273
#
#
# Mechanical properties :
#
#
# Convention : Reuss Voigt Hill
#
# Bulk Modulus (GPa) = 26.88513 78.14717 52.51615
# Shear Modulus (GPa) = 0.14416 17.57930 8.86173
#
# Velocity S-wave (km/s) = 0.28491 3.14621 2.23381
# Velocity P-wave (km/s) = 3.90472 7.56317 6.01865
#
# Compressibility (1/GPa) = 0.03719529
#
# Stress axis : x y z
#
# Youngs Moduli (GPa) = 108.89858 15.23280 75.21188
#
# Poissons Ratio (x) = 0.05599 0.27097
# Poissons Ratio (y) = 0.40024 1.36792
# Poissons Ratio (z) = 0.39233 0.27705
#
# Static dielectric constant tensor:
#      x y z
#    x 3.374080 0.000000 0.000000 
#    y 0.000000 2.906110 0.000000 
#    z 0.000000 0.000000 3.391240 
# 
# 
# High freq. dielectric constant tensor:
#      x y z
#    x 1.694290 0.000000 0.000000 
#    y 0.000000 1.649000 0.000000 
#    z 0.000000 0.000000 1.701540 
# 
# From -- ./inp_files/67732.got.cif
#   From: 2010.03.12/outbox.cif.g09.slc.cpg/sg65_34_cif.got.tgz:67732.got - 2010.04.10 20:52:16.
