data_PCOD8266499
_publ_section_title
;
Structure prediction by ZEFSAII (Michael W. Deem and Ramdas Pophale) SiO2 
 PCOD8266499
Probable space group: C M M M
;
_chemical_formula_sum "Si O2"
_cell_formula_units_Z 88
_cell_length_a 22.278842
_cell_length_b 22.565457
_cell_length_c 8.980565
_cell_angle_alpha 90.000000
_cell_angle_beta 90.000000
_cell_angle_gamma 90.000000
_cell_volume 4514.819659
_symmetry_space_group_name_H-M "C M M M"
_symmetry_group_IT_number 65
_symmetry_cell_setting 'orthorhombic'
loop_
_space_group_symop_operation_xyz
x,y,z
-x,-y,z
x,-y,-z
-x,y,-z
-x,-y,-z
x,y,-z
-x,y,z
x,-y,z
1/2+x,1/2+y,z
1/2-x,1/2-y,z
1/2+x,1/2-y,-z
1/2-x,1/2+y,-z
1/2-x,1/2-y,-z
1/2+x,1/2+y,-z
1/2-x,1/2+y,z
1/2+x,1/2-y,z
loop_
_atom_site_type_symbol
_atom_site_label
_atom_site_fract_x
_atom_site_fract_y
_atom_site_fract_z
Si Si1 0.928977 0.000000 0.823225
Si Si2 0.000000 0.788224 0.674909
Si Si3 0.500000 0.168558 0.830586
Si Si4 0.154989 0.095019 0.673839
Si Si5 0.130861 0.341625 0.169485
Si Si6 0.879643 0.793832 0.176781
Si Si7 0.210770 0.435933 0.328667
O O1 0.897761 0.058191 0.753675
O O2 0.000000 0.000000 0.783869
O O3 0.918910 0.000000 0.000000
O O4 0.000000 0.718216 0.704943
O O5 0.057541 0.816256 0.754347
O O6 0.000000 0.801695 0.500000
O O7 0.562385 0.132543 0.810706
O O8 0.500000 0.196630 0.000000
O O9 0.138948 0.101596 0.500000
O O10 0.165997 0.159575 0.749961
O O11 0.218193 0.063043 0.697632
O O12 0.134758 0.273591 0.227176
O O13 0.177827 0.381912 0.252057
O O14 0.150797 0.342991 0.000000
O O15 0.880425 0.799233 0.000000
O O16 0.195343 0.428587 0.500000
O O17 0.186996 0.500000 0.270363
#
# Coordination Sequence:
#
# PCOD8266499 Si02
#       7
#     8   8   8  16  16  16  16
#     4  11  25  43  63  89 121 158 199 246 298 342
#     4  10  18  30  52  82 114 152 194 228 280 349
#     4   8  16  34  55  81 119 152 182 231 288 337
#     4  11  23  41  62  85 117 156 201 244 289 346
#     4   9  19  36  60  87 116 153 193 238 289 349
#     4  10  21  37  56  84 120 153 191 242 296 345
#     4  10  22  41  60  81 114 154 194 242 295 348
#
# _framework density 19.491364999999998
#
# number of rings (size 3 to 8) (size 9 to 14) (size 15 to 20)
#    0.000    2.091    0.909    3.273    1.273    6.909 
#    0.000    4.091    0.000    2.727    0.000    0.000 
#    0.000    0.000    0.000    0.000    0.000    0.000 
#
# Total GULP energy -545256.508730 kJ/mol
# GULP energy per Si atom -12392.193380 kJ/mol
# Density = 1.944700 g / cm^3
# Si number density = 19.491365 Si / 1000 Ang^3
#
#
#
# Elastic Constant Matrix: (Units=GPa)
#
#
# Indices 1 2 3 4 5 6 
#
# 1 67.2026 50.0771 43.0203 0.0000 0.0000 0.0000
# 2 50.0771 127.0562 56.1176 0.0000 0.0000 0.0000
# 3 43.0203 56.1176 96.1294 0.0000 0.0000 0.0000
# 4 0.0000 0.0000 0.0000 32.8918 0.0000 0.0000
# 5 0.0000 0.0000 0.0000 0.0000 34.1197 0.0000
# 6 0.0000 0.0000 0.0000 0.0000 0.0000 40.3915
#
#
#
# Elastic Compliance Matrix: (Units=1/GPa)
#
#
# Indices 1 2 3 4 5 6 
#
# 1 0.024189 -0.006404 -0.007087 0.000000 0.000000 0.000000
# 2 -0.006404 0.012300 -0.004315 0.000000 0.000000 0.000000
# 3 -0.007087 -0.004315 0.016093 0.000000 0.000000 0.000000
# 4 0.000000 0.000000 0.000000 0.030403 0.000000 0.000000
# 5 0.000000 0.000000 0.000000 0.000000 0.029309 0.000000
# 6 0.000000 0.000000 0.000000 0.000000 0.000000 0.024758
#
#
# Mechanical properties :
#
#
# Convention : Reuss Voigt Hill
#
# Bulk Modulus (GPa) = 58.92181 65.42426 62.17303
# Shear Modulus (GPa) = 28.03974 30.89214 29.46594
#
# Velocity S-wave (km/s) = 3.79697 3.98542 3.89233
# Velocity P-wave (km/s) = 7.03690 7.40383 7.22269
#
# Compressibility (1/GPa) = 0.01697165
#
# Stress axis : x y z
#
# Youngs Moduli (GPa) = 41.34143 81.30032 62.13879
#
# Poissons Ratio (x) = 0.52061 0.44037
# Poissons Ratio (y) = 0.26473 0.26811
# Poissons Ratio (z) = 0.29298 0.35079
#
# Static dielectric constant tensor:
#      x y z
#    x 3.636880 0.000000 0.000000 
#    y 0.000000 3.484310 0.000000 
#    z 0.000000 0.000000 3.520030 
# 
# 
# High freq. dielectric constant tensor:
#      x y z
#    x 1.757570 0.000000 0.000000 
#    y 0.000000 1.749750 0.000000 
#    z 0.000000 0.000000 1.760140 
# 
# From -- ./inp_files/14082.got.cif
#   From: 2010.03.12/outbox.cif.g09.slc.cpg/sg65_8_cif.got.tgz:14082.got - 2010.04.10 20:52:16.
