data_PCOD8266085
_publ_section_title
;
Structure prediction by ZEFSAII (Michael W. Deem and Ramdas Pophale) SiO2 
 PCOD8266085
Probable space group: C M M M
;
_chemical_formula_sum "Si O2"
_cell_formula_units_Z 96
_cell_length_a 8.452877
_cell_length_b 27.575074
_cell_length_c 23.921649
_cell_angle_alpha 90.000000
_cell_angle_beta 90.000000
_cell_angle_gamma 90.000000
_cell_volume 5575.866277
_symmetry_space_group_name_H-M "C M M M"
_symmetry_group_IT_number 65
_symmetry_cell_setting 'orthorhombic'
loop_
_space_group_symop_operation_xyz
x,y,z
-x,-y,z
x,-y,-z
-x,y,-z
-x,-y,-z
x,y,-z
-x,y,z
x,-y,z
1/2+x,1/2+y,z
1/2-x,1/2-y,z
1/2+x,1/2-y,-z
1/2-x,1/2+y,-z
1/2-x,1/2-y,-z
1/2+x,1/2+y,-z
1/2-x,1/2+y,z
1/2+x,1/2-y,z
loop_
_atom_site_type_symbol
_atom_site_label
_atom_site_fract_x
_atom_site_fract_y
_atom_site_fract_z
Si Si1 0.685205 0.112157 0.667156
Si Si2 0.814781 0.802306 0.268074
Si Si3 0.686982 0.801990 0.062237
Si Si4 0.183299 0.055232 0.767515
Si Si5 0.687890 0.945778 0.438101
Si Si6 0.685997 0.138802 0.833350
O O1 0.500000 0.124018 0.663963
O O2 0.779418 0.161364 0.680613
O O3 0.713131 0.071939 0.714835
O O4 0.752495 0.091313 0.608548
O O5 0.750000 0.750000 0.285098
O O6 0.726150 0.820828 0.212832
O O7 0.000000 0.800242 0.255972
O O8 0.500000 0.799086 0.062837
O O9 0.750000 0.750000 0.081660
O O10 0.745434 0.842382 0.106230
O O11 0.749927 0.815293 0.000000
O O12 0.224981 0.088351 0.821043
O O13 0.000000 0.061879 0.752147
O O14 0.224958 0.000000 0.782582
O O15 0.741570 0.928292 0.500000
O O16 0.500000 0.947572 0.434390
O O17 0.754250 0.000000 0.426675
O O18 0.500000 0.129193 0.832696
#
# Coordination Sequence:
#
# PCOD8266085 Si02
#       6
#    16  16  16  16  16  16
#     4  10  18  29  48  72  95 121 154 189 227 273
#     4  11  21  33  48  67  94 123 153 190 230 273
#     4   9  18  31  47  69  95 121 149 183 224 270
#     4  10  20  32  46  66  94 125 155 190 231 272
#     4   8  14  25  43  69  98 124 150 183 223 267
#     4  10  19  31  49  71  94 121 153 188 227 273
#
# _framework density 17.217055999999999
#
# number of rings (size 3 to 8) (size 9 to 14) (size 15 to 20)
#    0.000    2.333    0.000    6.500    0.000    4.667 
#    0.000    0.000    0.000    3.000    0.000    9.333 
#    0.000    0.000    0.000    0.000    0.000    0.000 
#
# Total GULP energy -595126.056843 kJ/mol
# GULP energy per Si atom -12398.459518 kJ/mol
# Density = 1.717787 g / cm^3
# Si number density = 17.217056 Si / 1000 Ang^3
#
#
#
# Elastic Constant Matrix: (Units=GPa)
#
#
# Indices 1 2 3 4 5 6 
#
# 1 30.9358 14.8603 5.6061 0.0000 0.0000 0.0000
# 2 14.8603 129.4671 65.3417 0.0000 0.0000 0.0000
# 3 5.6061 65.3417 114.6363 0.0000 0.0000 0.0000
# 4 0.0000 0.0000 0.0000 17.9795 0.0000 0.0000
# 5 0.0000 0.0000 0.0000 0.0000 12.5012 0.0000
# 6 0.0000 0.0000 0.0000 0.0000 0.0000 26.3345
#
#
#
# Elastic Compliance Matrix: (Units=1/GPa)
#
#
# Indices 1 2 3 4 5 6 
#
# 1 0.034263 -0.004334 0.000795 0.000000 0.000000 0.000000
# 2 -0.004334 0.011391 -0.006281 0.000000 0.000000 0.000000
# 3 0.000795 -0.006281 0.012265 0.000000 0.000000 0.000000
# 4 0.000000 0.000000 0.000000 0.055619 0.000000 0.000000
# 5 0.000000 0.000000 0.000000 0.000000 0.079993 0.000000
# 6 0.000000 0.000000 0.000000 0.000000 0.000000 0.037973
#
#
# Mechanical properties :
#
#
# Convention : Reuss Voigt Hill
#
# Bulk Modulus (GPa) = 26.12445 49.62838 37.87641
# Shear Modulus (GPa) = 18.94635 23.97843 21.46239
#
# Velocity S-wave (km/s) = 3.32089 3.73596 3.53452
# Velocity P-wave (km/s) = 5.46909 6.89185 6.22127
#
# Compressibility (1/GPa) = 0.03827832
#
# Stress axis : x y z
#
# Youngs Moduli (GPa) = 29.18624 87.78514 81.53577
#
# Poissons Ratio (x) = 0.38044 -0.06479
# Poissons Ratio (y) = 0.12649 0.51213
# Poissons Ratio (z) = -0.02319 0.55139
#
# Static dielectric constant tensor:
#      x y z
#    x 3.116130 0.000000 0.000000 
#    y 0.000000 3.317060 0.000000 
#    z 0.000000 0.000000 3.468670 
# 
# 
# High freq. dielectric constant tensor:
#      x y z
#    x 1.660780 0.000000 0.000000 
#    y 0.000000 1.655340 0.000000 
#    z 0.000000 0.000000 1.654760 
# 
# From -- ./inp_files/68067.got.cif
#   From: 2010.03.12/outbox.cif.g09.slc.cpg/sg65_35_cif.got.tgz:68067.got - 2010.04.10 20:52:16.
