data_PCOD8266564
_publ_section_title
;
Structure prediction by ZEFSAII (Michael W. Deem and Ramdas Pophale) SiO2 
 PCOD8266564
Probable space group: C M M M
;
_chemical_formula_sum "Si O2"
_cell_formula_units_Z 112
_cell_length_a 14.131452
_cell_length_b 35.247934
_cell_length_c 13.153660
_cell_angle_alpha 90.000000
_cell_angle_beta 90.000000
_cell_angle_gamma 90.000000
_cell_volume 6551.897072
_symmetry_space_group_name_H-M "C M M M"
_symmetry_group_IT_number 65
_symmetry_cell_setting 'orthorhombic'
loop_
_space_group_symop_operation_xyz
x,y,z
-x,-y,z
x,-y,-z
-x,y,-z
-x,-y,-z
x,y,-z
-x,y,z
x,-y,z
1/2+x,1/2+y,z
1/2-x,1/2-y,z
1/2+x,1/2-y,-z
1/2-x,1/2+y,-z
1/2-x,1/2-y,-z
1/2+x,1/2+y,-z
1/2-x,1/2+y,z
1/2+x,1/2-y,z
loop_
_atom_site_type_symbol
_atom_site_label
_atom_site_fract_x
_atom_site_fract_y
_atom_site_fract_z
Si Si1 0.391960 0.955448 0.883183
Si Si2 0.388478 0.150514 0.388503
Si Si3 0.260424 0.174902 0.118971
Si Si4 0.779298 0.398379 0.754212
Si Si5 0.110122 0.121989 0.618556
Si Si6 0.389064 0.219038 0.746328
Si Si7 0.108301 0.803583 0.732111
O O1 0.500000 0.942245 0.858704
O O2 0.314913 0.936935 0.806991
O O3 0.383022 0.000000 0.866115
O O4 0.367767 0.944973 0.000000
O O5 0.343900 0.150186 0.500000
O O6 0.500000 0.150227 0.391456
O O7 0.353266 0.112831 0.333107
O O8 0.350788 0.188864 0.335874
O O9 0.286850 0.133203 0.158370
O O10 0.336489 0.207436 0.149512
O O11 0.158935 0.185104 0.164240
O O12 0.252705 0.173662 0.000000
O O13 0.676288 0.402103 0.697409
O O14 0.134189 0.113853 0.500000
O O15 0.130353 0.166780 0.640876
O O16 0.000000 0.111921 0.640687
O O17 0.500000 0.215141 0.766203
O O18 0.361349 0.260582 0.703419
O O19 0.000000 0.804535 0.761801
#
# Coordination Sequence:
#
# PCOD8266564 Si02
#       7
#    16  16  16  16  16  16  16
#     4   9  18  33  55  83 109 130 153 181 217 267
#     4   9  17  28  43  65  92 122 155 190 233 287
#     4  10  20  31  43  61  86 118 155 192 233 283
#     4  10  18  31  50  71  96 125 155 192 235 278
#     4   9  18  32  50  71  93 122 164 209 248 284
#     4   9  18  30  42  60  86 116 154 199 243 286
#     4   9  18  31  45  62  85 114 154 204 250 286
#
# _framework density 17.094286
#
# number of rings (size 3 to 8) (size 9 to 14) (size 15 to 20)
#    0.000    2.714    0.000    2.143    0.000    2.857 
#    0.000    4.286    0.000    8.571    0.000    7.000 
#    0.000    0.000    0.000    0.000    0.000    0.000 
#
# Total GULP energy -693950.874849 kJ/mol
# GULP energy per Si atom -12391.979908 kJ/mol
# Density = 1.705538 g / cm^3
# Si number density = 17.094286 Si / 1000 Ang^3
#
#
#
# Elastic Constant Matrix: (Units=GPa)
#
#
# Indices 1 2 3 4 5 6 
#
# 1 57.9464 36.7250 40.9194 0.0000 0.0000 0.0000
# 2 36.7250 63.4990 38.2892 0.0000 0.0000 0.0000
# 3 40.9194 38.2892 117.4572 0.0000 0.0000 0.0000
# 4 0.0000 0.0000 0.0000 20.1890 0.0000 0.0000
# 5 0.0000 0.0000 0.0000 0.0000 25.9637 0.0000
# 6 0.0000 0.0000 0.0000 0.0000 0.0000 25.0145
#
#
#
# Elastic Compliance Matrix: (Units=1/GPa)
#
#
# Indices 1 2 3 4 5 6 
#
# 1 0.030330 -0.013903 -0.006034 0.000000 0.000000 0.000000
# 2 -0.013903 0.025974 -0.003624 0.000000 0.000000 0.000000
# 3 -0.006034 -0.003624 0.011797 0.000000 0.000000 0.000000
# 4 0.000000 0.000000 0.000000 0.049532 0.000000 0.000000
# 5 0.000000 0.000000 0.000000 0.000000 0.038515 0.000000
# 6 0.000000 0.000000 0.000000 0.000000 0.000000 0.039977
#
#
# Mechanical properties :
#
#
# Convention : Reuss Voigt Hill
#
# Bulk Modulus (GPa) = 47.66519 52.30776 49.98648
# Shear Modulus (GPa) = 19.98087 22.43136 21.20612
#
# Velocity S-wave (km/s) = 3.42257 3.62638 3.52595
# Velocity P-wave (km/s) = 6.60022 6.94263 6.77359
#
# Compressibility (1/GPa) = 0.02097967
#
# Stress axis : x y z
#
# Youngs Moduli (GPa) = 32.97112 38.49991 84.76634
#
# Poissons Ratio (x) = 0.53526 0.51148
# Poissons Ratio (y) = 0.45839 0.30717
# Poissons Ratio (z) = 0.19895 0.13951
#
# Static dielectric constant tensor:
#      x y z
#    x 3.503530 0.000000 0.000000 
#    y 0.000000 2.974650 0.000000 
#    z 0.000000 0.000000 3.187520 
# 
# 
# High freq. dielectric constant tensor:
#      x y z
#    x 1.670690 0.000000 0.000000 
#    y 0.000000 1.628410 0.000000 
#    z 0.000000 0.000000 1.652490 
# 
# From -- ./inp_files/25545.got.cif
#   From: 2010.03.12/outbox.cif.g09.slc.cpg/sg65_13_cif.got.tgz:25545.got - 2010.04.10 20:52:16.
