data_PCOD8266296
_publ_section_title
;
Structure prediction by ZEFSAII (Michael W. Deem and Ramdas Pophale) SiO2 
 PCOD8266296
Probable space group: C M M M
;
_chemical_formula_sum "Si O2"
_cell_formula_units_Z 104
_cell_length_a 7.998959
_cell_length_b 24.265651
_cell_length_c 29.545657
_cell_angle_alpha 90.000000
_cell_angle_beta 90.000000
_cell_angle_gamma 90.000000
_cell_volume 5734.810471
_symmetry_space_group_name_H-M "C M M M"
_symmetry_group_IT_number 65
_symmetry_cell_setting 'orthorhombic'
loop_
_space_group_symop_operation_xyz
x,y,z
-x,-y,z
x,-y,-z
-x,y,-z
-x,-y,-z
x,y,-z
-x,y,z
x,-y,z
1/2+x,1/2+y,z
1/2-x,1/2-y,z
1/2+x,1/2-y,-z
1/2-x,1/2+y,-z
1/2-x,1/2-y,-z
1/2+x,1/2+y,-z
1/2-x,1/2+y,z
1/2+x,1/2-y,z
loop_
_atom_site_type_symbol
_atom_site_label
_atom_site_fract_x
_atom_site_fract_y
_atom_site_fract_z
Si Si1 0.807549 0.390018 0.291959
Si Si2 0.802676 0.189377 0.949972
Si Si3 0.500000 0.435008 0.449777
Si Si4 0.700947 0.619397 0.866796
Si Si5 0.308078 0.064503 0.612078
Si Si6 0.812237 0.000000 0.145594
Si Si7 0.196721 0.500000 0.757367
Si Si8 0.809567 0.187673 0.218062
O O1 0.771390 0.395517 0.345372
O O2 0.748923 0.447147 0.270832
O O3 0.713560 0.339437 0.267709
O O4 0.000000 0.378868 0.282651
O O5 0.750000 0.250000 0.935021
O O6 0.730470 0.148568 0.912056
O O7 0.000000 0.185102 0.951264
O O8 0.729447 0.175062 0.000000
O O9 0.500000 0.500000 0.453677
O O10 0.500000 0.408510 0.500000
O O11 0.671697 0.416661 0.424999
O O12 0.500000 0.617429 0.864708
O O13 0.775649 0.557085 0.869915
O O14 0.774506 0.650844 0.822174
O O15 0.500000 0.073480 0.594794
O O16 0.285336 0.000000 0.625415
O O17 0.813780 0.000000 0.199478
O O18 0.000000 0.000000 0.126818
O O19 0.000000 0.500000 0.769362
O O20 0.750000 0.250000 0.218664
O O21 0.000000 0.190094 0.205124
#
# Coordination Sequence:
#
# PCOD8266296 Si02
#       8
#    16  16   8  16  16   8   8  16
#     4  10  19  32  49  71 100 131 167 208 248 297
#     4   9  17  31  50  70  91 118 156 202 248 295
#     4   9  18  30  44  70 104 140 182 220 255 308
#     4   9  18  31  48  70  95 123 158 199 243 296
#     4   9  17  30  47  70 101 138 174 214 261 306
#     4  10  18  32  47  68  96 124 159 197 241 293
#     4  10  18  30  48  71  97 126 166 207 243 282
#     4  11  22  34  48  68  96 132 165 201 249 300
#
# _framework density 18.134862999999999
#
# number of rings (size 3 to 8) (size 9 to 14) (size 15 to 20)
#    0.000    2.385    2.308    0.923    1.077    0.308 
#    0.000    3.462    0.000    2.308    0.000    0.000 
#    0.000    3.692    0.308    0.000    0.000    0.000 
#
# Total GULP energy -644358.415152 kJ/mol
# GULP energy per Si atom -12391.507984 kJ/mol
# Density = 1.809359 g / cm^3
# Si number density = 18.134863 Si / 1000 Ang^3
#
#
#
# Elastic Constant Matrix: (Units=GPa)
#
#
# Indices 1 2 3 4 5 6 
#
# 1 46.2501 25.0759 36.6340 0.0000 0.0000 0.0000
# 2 25.0759 132.4476 66.6377 0.0000 0.0000 0.0000
# 3 36.6340 66.6377 128.5917 0.0000 0.0000 0.0000
# 4 0.0000 0.0000 0.0000 -2.6825 0.0000 0.0000
# 5 0.0000 0.0000 0.0000 0.0000 17.5592 0.0000
# 6 0.0000 0.0000 0.0000 0.0000 0.0000 13.6894
#
#
#
# Elastic Compliance Matrix: (Units=1/GPa)
#
#
# Indices 1 2 3 4 5 6 
#
# 1 0.028221 -0.001756 -0.007130 0.000000 0.000000 0.000000
# 2 -0.001756 0.010322 -0.004849 0.000000 0.000000 0.000000
# 3 -0.007130 -0.004849 0.012320 0.000000 0.000000 0.000000
# 4 0.000000 0.000000 0.000000 -0.372785 0.000000 0.000000
# 5 0.000000 0.000000 0.000000 0.000000 0.056950 0.000000
# 6 0.000000 0.000000 0.000000 0.000000 0.000000 0.073049
#
#
# Mechanical properties :
#
#
# Convention : Reuss Voigt Hill
#
# Bulk Modulus (GPa) = 42.74497 62.66497 52.70497
# Shear Modulus (GPa) = -31.91734 17.64267 -7.13734
#
# Velocity S-wave (km/s) = -4.19979 3.12245 -1.98601
# Velocity P-wave (km/s) = 0.32277 6.90142 4.88538
#
# Compressibility (1/GPa) = 0.02339456
#
# Stress axis : x y z
#
# Youngs Moduli (GPa) = 35.43462 96.87903 81.16554
#
# Poissons Ratio (x) = 0.17010 0.57870
# Poissons Ratio (y) = 0.06221 0.39356
# Poissons Ratio (z) = 0.25265 0.46975
#
# Static dielectric constant tensor:
#      x y z
#    x 3.199360 0.000000 0.000000 
#    y 0.000000 3.211920 0.000000 
#    z 0.000000 0.000000 3.481930 
# 
# 
# High freq. dielectric constant tensor:
#      x y z
#    x 1.689710 0.000000 0.000000 
#    y 0.000000 1.679750 0.000000 
#    z 0.000000 0.000000 1.691360 
# 
# From -- ./inp_files/73426.got.cif
#   From: 2010.03.12/outbox.cif.g09.slc.cpg/sg65_37_cif.got.tgz:73426.got - 2010.04.10 20:52:16.
