data_PCOD8266794
_publ_section_title
;
Structure prediction by ZEFSAII (Michael W. Deem and Ramdas Pophale) SiO2 
 PCOD8266794
Probable space group: C M M M
;
_chemical_formula_sum "Si O2"
_cell_formula_units_Z 88
_cell_length_a 19.091626
_cell_length_b 8.671318
_cell_length_c 28.363379
_cell_angle_alpha 90.000000
_cell_angle_beta 90.000000
_cell_angle_gamma 90.000000
_cell_volume 4695.544919
_symmetry_space_group_name_H-M "C M M M"
_symmetry_group_IT_number 65
_symmetry_cell_setting 'orthorhombic'
loop_
_space_group_symop_operation_xyz
x,y,z
-x,-y,z
x,-y,-z
-x,y,-z
-x,-y,-z
x,y,-z
-x,y,z
x,-y,z
1/2+x,1/2+y,z
1/2-x,1/2-y,z
1/2+x,1/2-y,-z
1/2-x,1/2+y,-z
1/2-x,1/2-y,-z
1/2+x,1/2+y,-z
1/2-x,1/2+y,z
1/2+x,1/2-y,z
loop_
_atom_site_type_symbol
_atom_site_label
_atom_site_fract_x
_atom_site_fract_y
_atom_site_fract_z
Si Si1 0.673769 0.680272 0.594759
Si Si2 0.326910 0.183605 0.136839
Si Si3 0.422444 0.817140 0.779033
Si Si4 0.082154 0.676939 0.326737
Si Si5 0.827598 0.317306 0.500000
Si Si6 0.921618 0.316756 0.052345
O O1 0.682235 0.500000 0.586525
O O2 0.750000 0.750000 0.604815
O O3 0.624053 0.711751 0.638814
O O4 0.637108 0.754773 0.548103
O O5 0.250000 0.250000 0.136837
O O6 0.367206 0.247191 0.183043
O O7 0.367368 0.248203 0.090796
O O8 0.323819 0.000000 0.136765
O O9 0.500000 0.749797 0.789978
O O10 0.398678 0.770263 0.726407
O O11 0.426832 0.000000 0.782362
O O12 0.104722 0.500000 0.335384
O O13 0.000000 0.697167 0.335828
O O14 0.828639 0.500000 0.500000
O O15 0.750000 0.250000 0.500000
O O16 0.922234 0.500000 0.054373
O O17 0.000000 0.256095 0.063768
O O18 0.898678 0.260981 0.000000
#
# Coordination Sequence:
#
# PCOD8266794 Si02
#       6
#    16  16  16  16   8  16
#     4  11  21  34  53  77 105 135 170 208 248 295
#     4  10  19  30  46  70  99 127 157 197 246 294
#     4   8  15  30  52  72  90 121 165 205 239 284
#     4   9  18  34  54  75 100 129 163 205 254 304
#     4  10  18  32  53  76 103 134 171 209 249 295
#     4   8  14  26  46  70  92 119 162 209 243 279
#
# _framework density 18.741168999999999
#
# number of rings (size 3 to 8) (size 9 to 14) (size 15 to 20)
#    0.000    2.727    0.000    5.727    0.000    3.636 
#    0.000    3.182    0.000    6.000    0.000    1.273 
#    0.000    0.000    0.000    0.000    0.000    0.000 
#
# Total GULP energy -545415.236409 kJ/mol
# GULP energy per Si atom -12395.800827 kJ/mol
# Density = 1.869851 g / cm^3
# Si number density = 18.741169 Si / 1000 Ang^3
#
#
#
# Elastic Constant Matrix: (Units=GPa)
#
#
# Indices 1 2 3 4 5 6 
#
# 1 105.1267 27.7733 90.0494 0.0000 0.0000 0.0000
# 2 27.7733 71.5511 39.4339 0.0000 0.0000 0.0000
# 3 90.0494 39.4339 176.0603 0.0000 0.0000 0.0000
# 4 0.0000 0.0000 0.0000 16.7220 0.0000 0.0000
# 5 0.0000 0.0000 0.0000 0.0000 32.3636 0.0000
# 6 0.0000 0.0000 0.0000 0.0000 0.0000 26.3683
#
#
#
# Elastic Compliance Matrix: (Units=1/GPa)
#
#
# Indices 1 2 3 4 5 6 
#
# 1 0.017198 -0.002085 -0.008329 0.000000 0.000000 0.000000
# 2 -0.002085 0.016197 -0.002561 0.000000 0.000000 0.000000
# 3 -0.008329 -0.002561 0.010514 0.000000 0.000000 0.000000
# 4 0.000000 0.000000 0.000000 0.059801 0.000000 0.000000
# 5 0.000000 0.000000 0.000000 0.000000 0.030899 0.000000
# 6 0.000000 0.000000 0.000000 0.000000 0.000000 0.037924
#
#
# Mechanical properties :
#
#
# Convention : Reuss Voigt Hill
#
# Bulk Modulus (GPa) = 55.68755 74.13902 64.91329
# Shear Modulus (GPa) = 24.45349 28.12288 26.28819
#
# Velocity S-wave (km/s) = 3.61612 3.87795 3.74932
# Velocity P-wave (km/s) = 6.87122 7.72636 7.31130
#
# Compressibility (1/GPa) = 0.01795733
#
# Stress axis : x y z
#
# Youngs Moduli (GPa) = 58.14727 61.73987 95.11461
#
# Poissons Ratio (x) = 0.12873 0.79222
# Poissons Ratio (y) = 0.12124 0.24362
# Poissons Ratio (z) = 0.48431 0.15814
#
# Static dielectric constant tensor:
#      x y z
#    x 3.361790 0.000000 0.000000 
#    y 0.000000 3.021880 0.000000 
#    z 0.000000 0.000000 4.041480 
# 
# 
# High freq. dielectric constant tensor:
#      x y z
#    x 1.711060 0.000000 0.000000 
#    y 0.000000 1.689440 0.000000 
#    z 0.000000 0.000000 1.748550 
# 
# From -- ./inp_files/67559.got.cif
#   From: 2010.03.12/outbox.cif.g09.slc.cpg/sg65_34_cif.got.tgz:67559.got - 2010.04.10 20:52:16.
