data_PCOD8266940
_publ_section_title
;
Structure prediction by ZEFSAII (Michael W. Deem and Ramdas Pophale) SiO2 
 PCOD8266940
Probable space group: C M M M
;
_chemical_formula_sum "Si O2"
_cell_formula_units_Z 64
_cell_length_a 14.400032
_cell_length_b 8.621082
_cell_length_c 26.152920
_cell_angle_alpha 90.000000
_cell_angle_beta 90.000000
_cell_angle_gamma 90.000000
_cell_volume 3246.724352
_symmetry_space_group_name_H-M "C M M M"
_symmetry_group_IT_number 65
_symmetry_cell_setting 'orthorhombic'
loop_
_space_group_symop_operation_xyz
x,y,z
-x,-y,z
x,-y,-z
-x,y,-z
-x,-y,-z
x,y,-z
-x,y,z
x,-y,z
1/2+x,1/2+y,z
1/2-x,1/2-y,z
1/2+x,1/2-y,-z
1/2-x,1/2+y,-z
1/2-x,1/2-y,-z
1/2+x,1/2+y,-z
1/2-x,1/2+y,z
1/2+x,1/2-y,z
loop_
_atom_site_type_symbol
_atom_site_label
_atom_site_fract_x
_atom_site_fract_y
_atom_site_fract_z
Si Si1 0.647772 0.816136 0.603535
Si Si2 0.000000 0.321819 0.216225
Si Si3 0.851798 0.319168 0.131489
Si Si4 0.853267 0.815485 0.500000
Si Si5 0.500000 0.317383 0.058515
Si Si6 0.500000 0.318758 0.324398
O O1 0.750000 0.750000 0.610357
O O2 0.599209 0.748933 0.551749
O O3 0.590654 0.761734 0.652403
O O4 0.650640 0.000000 0.600215
O O5 0.091811 0.285251 0.183388
O O6 0.000000 0.500000 0.234770
O O7 0.000000 0.207083 0.263960
O O8 0.844140 0.500000 0.120760
O O9 0.750000 0.250000 0.137147
O O10 0.906191 0.246124 0.083948
O O11 0.750000 0.750000 0.500000
O O12 0.855944 0.000000 0.500000
O O13 0.500000 0.500000 0.064240
O O14 0.500000 0.263204 0.000000
O O15 0.500000 0.500000 0.336840
#
# Coordination Sequence:
#
# PCOD8266940 Si02
#       6
#    16   8  16   8   8   8
#     4  11  22  39  60  84 114 149 187 231 282 340
#     4   9  21  41  59  81 113 149 190 240 290 338
#     4  10  21  38  62  88 117 154 197 240 286 341
#     4  10  18  33  56  83 113 146 184 227 277 339
#     4  10  21  37  58  87 124 161 198 242 289 336
#     4  12  25  40  59  86 115 148 188 235 289 344
#
# _framework density 19.712175999999999
#
# number of rings (size 3 to 8) (size 9 to 14) (size 15 to 20)
#    0.000    1.625    0.000    7.875    0.000    6.000 
#    0.000    5.000    0.000    0.000    0.000    0.000 
#    0.000    0.000    0.000    0.000    0.000    0.000 
#
# Total GULP energy -396856.386520 kJ/mol
# GULP energy per Si atom -12401.762079 kJ/mol
# Density = 1.966731 g / cm^3
# Si number density = 19.712176 Si / 1000 Ang^3
#
#
#
# Elastic Constant Matrix: (Units=GPa)
#
#
# Indices 1 2 3 4 5 6 
#
# 1 139.6060 51.5970 61.1065 0.0000 0.0000 0.0000
# 2 51.5970 162.6262 67.7387 0.0000 0.0000 0.0000
# 3 61.1065 67.7387 140.3703 0.0000 0.0000 0.0000
# 4 0.0000 0.0000 0.0000 36.7581 0.0000 0.0000
# 5 0.0000 0.0000 0.0000 0.0000 19.5313 0.0000
# 6 0.0000 0.0000 0.0000 0.0000 0.0000 33.7172
#
#
#
# Elastic Compliance Matrix: (Units=1/GPa)
#
#
# Indices 1 2 3 4 5 6 
#
# 1 0.009154 -0.001558 -0.003233 0.000000 0.000000 0.000000
# 2 -0.001558 0.007961 -0.003164 0.000000 0.000000 0.000000
# 3 -0.003233 -0.003164 0.010058 0.000000 0.000000 0.000000
# 4 0.000000 0.000000 0.000000 0.027205 0.000000 0.000000
# 5 0.000000 0.000000 0.000000 0.000000 0.051200 0.000000
# 6 0.000000 0.000000 0.000000 0.000000 0.000000 0.029658
#
#
# Mechanical properties :
#
#
# Convention : Reuss Voigt Hill
#
# Bulk Modulus (GPa) = 88.77773 89.27633 89.02703
# Shear Modulus (GPa) = 32.27886 35.47867 33.87876
#
# Velocity S-wave (km/s) = 4.05100 4.24705 4.15018
# Velocity P-wave (km/s) = 8.18631 8.33296 8.25996
#
# Compressibility (1/GPa) = 0.01126409
#
# Stress axis : x y z
#
# Youngs Moduli (GPa) = 109.24312 125.61194 99.42063
#
# Poissons Ratio (x) = 0.19564 0.32146
# Poissons Ratio (y) = 0.17015 0.31454
# Poissons Ratio (z) = 0.35321 0.39740
#
# Static dielectric constant tensor:
#      x y z
#    x 3.585800 0.000000 0.000000 
#    y 0.000000 3.694180 0.000000 
#    z 0.000000 0.000000 3.784160 
# 
# 
# High freq. dielectric constant tensor:
#      x y z
#    x 1.769690 0.000000 0.000000 
#    y 0.000000 1.786550 0.000000 
#    z 0.000000 0.000000 1.770860 
# 
# From -- ./inp_files/69602.got.cif
#   From: 2010.03.12/outbox.cif.g09.slc.cpg/sg65_35_cif.got.tgz:69602.got - 2010.04.10 20:52:16.
