data_PCOD8266186
_publ_section_title
;
Structure prediction by ZEFSAII (Michael W. Deem and Ramdas Pophale) SiO2 
 PCOD8266186
Probable space group: C M M M
;
_chemical_formula_sum "Si O2"
_cell_formula_units_Z 80
_cell_length_a 15.419578
_cell_length_b 23.796238
_cell_length_c 13.600091
_cell_angle_alpha 90.000000
_cell_angle_beta 90.000000
_cell_angle_gamma 90.000000
_cell_volume 4990.253483
_symmetry_space_group_name_H-M "C M M M"
_symmetry_group_IT_number 65
_symmetry_cell_setting 'orthorhombic'
loop_
_space_group_symop_operation_xyz
x,y,z
-x,-y,z
x,-y,-z
-x,y,-z
-x,-y,-z
x,y,-z
-x,y,z
x,-y,z
1/2+x,1/2+y,z
1/2-x,1/2-y,z
1/2+x,1/2-y,-z
1/2-x,1/2+y,-z
1/2-x,1/2-y,-z
1/2+x,1/2+y,-z
1/2-x,1/2+y,z
1/2+x,1/2-y,z
loop_
_atom_site_type_symbol
_atom_site_label
_atom_site_fract_x
_atom_site_fract_y
_atom_site_fract_z
Si Si1 0.397408 0.062919 0.608158
Si Si2 0.751505 0.061933 0.885767
Si Si3 0.904522 0.862527 0.116355
Si Si4 0.648063 0.241776 0.887447
Si Si5 0.600609 0.126938 0.201651
O O1 0.360768 0.079910 0.500000
O O2 0.500000 0.062157 0.603422
O O3 0.367492 0.108589 0.689083
O O4 0.364502 0.000000 0.636381
O O5 0.829996 0.097945 0.836603
O O6 0.659001 0.092085 0.874323
O O7 0.750029 0.000000 0.837065
O O8 0.770760 0.056104 0.000000
O O9 0.895765 0.798502 0.153254
O O10 0.000000 0.885507 0.145569
O O11 0.891544 0.861171 0.000000
O O12 0.750000 0.250000 0.881706
O O13 0.615908 0.192865 0.814954
O O14 0.620043 0.227835 0.000000
O O15 0.500000 0.111336 0.184210
#
# Coordination Sequence:
#
# PCOD8266186 Si02
#       5
#    16  16  16  16  16
#     4   8  15  29  47  66  90 120 153 187 222 267
#     4  10  20  31  42  62  93 123 151 186 227 271
#     4   9  17  30  46  61  80 114 160 200 226 253
#     4  10  18  30  46  64  91 125 157 189 225 266
#     4  11  20  29  46  70  94 121 151 183 225 276
#
# _framework density 16.03125
#
# number of rings (size 3 to 8) (size 9 to 14) (size 15 to 20)
#    0.000    2.400    2.000    2.400    0.000    4.000 
#    0.000    3.000    0.000    0.600    0.000    0.000 
#    0.000    0.800    0.000    4.200    0.000    0.400 
#
# Total GULP energy -495728.524748 kJ/mol
# GULP energy per Si atom -12393.213119 kJ/mol
# Density = 1.599476 g / cm^3
# Si number density = 16.031250 Si / 1000 Ang^3
#
#
#
# Elastic Constant Matrix: (Units=GPa)
#
#
# Indices 1 2 3 4 5 6 
#
# 1 89.7892 47.4841 11.5419 0.0000 0.0000 0.0000
# 2 47.4841 122.2041 30.3306 0.0000 0.0000 0.0000
# 3 11.5419 30.3306 45.1716 0.0000 0.0000 0.0000
# 4 0.0000 0.0000 0.0000 19.9485 0.0000 0.0000
# 5 0.0000 0.0000 0.0000 0.0000 5.6998 0.0000
# 6 0.0000 0.0000 0.0000 0.0000 0.0000 21.3225
#
#
#
# Elastic Compliance Matrix: (Units=1/GPa)
#
#
# Indices 1 2 3 4 5 6 
#
# 1 0.014018 -0.005469 0.000091 0.000000 0.000000 0.000000
# 2 -0.005469 0.011953 -0.006629 0.000000 0.000000 0.000000
# 3 0.000091 -0.006629 0.026566 0.000000 0.000000 0.000000
# 4 0.000000 0.000000 0.000000 0.050129 0.000000 0.000000
# 5 0.000000 0.000000 0.000000 0.000000 0.175446 0.000000
# 6 0.000000 0.000000 0.000000 0.000000 0.000000 0.046899
#
#
# Mechanical properties :
#
#
# Convention : Reuss Voigt Hill
#
# Bulk Modulus (GPa) = 35.06048 48.43090 41.74569
# Shear Modulus (GPa) = 13.94572 20.58138 17.26355
#
# Velocity S-wave (km/s) = 2.95262 3.58694 3.28513
# Velocity P-wave (km/s) = 5.79150 6.88700 6.36287
#
# Compressibility (1/GPa) = 0.02852214
#
# Stress axis : x y z
#
# Youngs Moduli (GPa) = 71.33705 83.65782 37.64278
#
# Poissons Ratio (x) = 0.45756 -0.00341
# Poissons Ratio (y) = 0.39017 0.24952
# Poissons Ratio (z) = -0.00647 0.55454
#
# Static dielectric constant tensor:
#      x y z
#    x 3.002870 0.000000 0.000000 
#    y 0.000000 3.320160 0.000000 
#    z 0.000000 0.000000 2.911090 
# 
# 
# High freq. dielectric constant tensor:
#      x y z
#    x 1.610090 0.000000 0.000000 
#    y 0.000000 1.623940 0.000000 
#    z 0.000000 0.000000 1.560880 
# 
# From -- ./inp_files/24997.got.cif
#   From: 2010.03.12/outbox.cif.g09.slc.cpg/sg65_13_cif.got.tgz:24997.got - 2010.04.10 20:52:16.
