data_PCOD8266948
_publ_section_title
;
Structure prediction by ZEFSAII (Michael W. Deem and Ramdas Pophale) SiO2 
 PCOD8266948
Probable space group: C M M M
;
_chemical_formula_sum "Si O2"
_cell_formula_units_Z 104
_cell_length_a 13.506686
_cell_length_b 22.966412
_cell_length_c 17.809804
_cell_angle_alpha 90.000000
_cell_angle_beta 90.000000
_cell_angle_gamma 90.000000
_cell_volume 5524.603257
_symmetry_space_group_name_H-M "C M M M"
_symmetry_group_IT_number 65
_symmetry_cell_setting 'orthorhombic'
loop_
_space_group_symop_operation_xyz
x,y,z
-x,-y,z
x,-y,-z
-x,y,-z
-x,-y,-z
x,y,-z
-x,y,z
x,-y,z
1/2+x,1/2+y,z
1/2-x,1/2-y,z
1/2+x,1/2-y,-z
1/2-x,1/2+y,-z
1/2-x,1/2-y,-z
1/2+x,1/2+y,-z
1/2-x,1/2+y,z
1/2+x,1/2-y,z
loop_
_atom_site_type_symbol
_atom_site_label
_atom_site_fract_x
_atom_site_fract_y
_atom_site_fract_z
Si Si1 0.385485 0.933176 0.688546
Si Si2 0.202021 0.338376 0.587160
Si Si3 0.000000 0.064176 0.088739
Si Si4 0.357364 0.259702 0.795032
Si Si5 0.317736 0.357215 0.087632
Si Si6 0.606225 0.720307 0.635214
Si Si7 0.890879 0.367710 0.841602
O O1 0.500000 0.927370 0.666611
O O2 0.321588 0.899137 0.627063
O O3 0.365114 0.906906 0.770255
O O4 0.350653 0.000000 0.688506
O O5 0.177219 0.344284 0.500000
O O6 0.317832 0.324592 0.598316
O O7 0.136860 0.287259 0.622829
O O8 0.102186 0.094955 0.114464
O O9 0.000000 0.000000 0.125032
O O10 0.000000 0.060174 0.000000
O O11 0.250000 0.250000 0.759830
O O12 0.349256 0.299201 0.868861
O O13 0.411685 0.289654 0.724865
O O14 0.406030 0.199278 0.818913
O O15 0.203241 0.376098 0.102931
O O16 0.328441 0.343585 0.000000
O O17 0.500000 0.709214 0.596420
O O18 0.000000 0.386601 0.875374
#
# Coordination Sequence:
#
# PCOD8266948 Si02
#       7
#    16  16   8  16  16  16  16
#     4  10  21  39  61  84 112 149 194 238 281 337
#     4  11  22  36  55  86 118 147 187 236 287 341
#     4   9  20  40  60  76 106 152 196 242 291 332
#     4  10  18  33  57  79 113 154 191 230 284 342
#     4  10  22  37  55  85 120 152 194 245 294 339
#     4  11  20  34  56  82 115 154 189 227 282 349
#     4  10  20  35  57  84 115 154 191 231 292 354
#
# _framework density 18.824881000000001
#
# number of rings (size 3 to 8) (size 9 to 14) (size 15 to 20)
#    0.000    1.769    3.077    2.769    2.154    6.154 
#    0.000    0.769    0.000    0.462    0.000    5.385 
#    0.000    0.000    0.000    0.000    0.000    0.000 
#
# Total GULP energy -644465.285141 kJ/mol
# GULP energy per Si atom -12393.563176 kJ/mol
# Density = 1.878203 g / cm^3
# Si number density = 18.824881 Si / 1000 Ang^3
#
#
#
# Elastic Constant Matrix: (Units=GPa)
#
#
# Indices 1 2 3 4 5 6 
#
# 1 134.4695 42.3049 27.5410 0.0000 0.0000 0.0000
# 2 42.3049 121.2669 44.0631 0.0000 0.0000 0.0000
# 3 27.5410 44.0631 88.0367 0.0000 0.0000 0.0000
# 4 0.0000 0.0000 0.0000 13.8055 0.0000 0.0000
# 5 0.0000 0.0000 0.0000 0.0000 35.1462 0.0000
# 6 0.0000 0.0000 0.0000 0.0000 0.0000 19.2177
#
#
#
# Elastic Compliance Matrix: (Units=1/GPa)
#
#
# Indices 1 2 3 4 5 6 
#
# 1 0.008499 -0.002443 -0.001436 0.000000 0.000000 0.000000
# 2 -0.002443 0.010782 -0.004632 0.000000 0.000000 0.000000
# 3 -0.001436 -0.004632 0.014126 0.000000 0.000000 0.000000
# 4 0.000000 0.000000 0.000000 0.072435 0.000000 0.000000
# 5 0.000000 0.000000 0.000000 0.000000 0.028453 0.000000
# 6 0.000000 0.000000 0.000000 0.000000 0.000000 0.052035
#
#
# Mechanical properties :
#
#
# Convention : Reuss Voigt Hill
#
# Bulk Modulus (GPa) = 61.03146 63.51012 62.27079
# Shear Modulus (GPa) = 23.94464 28.95813 26.45139
#
# Velocity S-wave (km/s) = 3.57033 3.92636 3.75257
# Velocity P-wave (km/s) = 7.03473 7.37331 7.20601
#
# Compressibility (1/GPa) = 0.01638499
#
# Stress axis : x y z
#
# Youngs Moduli (GPa) = 117.65506 92.74974 70.78901
#
# Poissons Ratio (x) = 0.22662 0.10165
# Poissons Ratio (y) = 0.28747 0.32789
# Poissons Ratio (z) = 0.16896 0.42961
#
# Static dielectric constant tensor:
#      x y z
#    x 3.714420 0.000000 0.000000 
#    y 0.000000 3.404870 0.000000 
#    z 0.000000 0.000000 3.268030 
# 
# 
# High freq. dielectric constant tensor:
#      x y z
#    x 1.748750 0.000000 0.000000 
#    y 0.000000 1.705880 0.000000 
#    z 0.000000 0.000000 1.719930 
# 
# From -- ./inp_files/53308.got.cif
#   From: 2010.03.12/outbox.cif.g09.slc.cpg/sg65_27_cif.got.tgz:53308.got - 2010.04.10 20:52:16.
