data_PCOD8266913
_publ_section_title
;
Structure prediction by ZEFSAII (Michael W. Deem and Ramdas Pophale) SiO2 
 PCOD8266913
Probable space group: C M M M
;
_chemical_formula_sum "Si O2"
_cell_formula_units_Z 88
_cell_length_a 23.792217
_cell_length_b 9.015379
_cell_length_c 23.350982
_cell_angle_alpha 90.000000
_cell_angle_beta 90.000000
_cell_angle_gamma 90.000000
_cell_volume 5008.688814
_symmetry_space_group_name_H-M "C M M M"
_symmetry_group_IT_number 65
_symmetry_cell_setting 'orthorhombic'
loop_
_space_group_symop_operation_xyz
x,y,z
-x,-y,z
x,-y,-z
-x,y,-z
-x,-y,-z
x,y,-z
-x,y,z
x,-y,z
1/2+x,1/2+y,z
1/2-x,1/2-y,z
1/2+x,1/2-y,-z
1/2-x,1/2+y,-z
1/2-x,1/2-y,-z
1/2+x,1/2+y,-z
1/2-x,1/2+y,z
1/2+x,1/2-y,z
loop_
_atom_site_type_symbol
_atom_site_label
_atom_site_fract_x
_atom_site_fract_y
_atom_site_fract_z
Si Si1 0.191562 0.828781 0.500000
Si Si2 0.119629 0.670558 0.065711
Si Si3 0.119511 0.176141 0.729819
Si Si4 0.000000 0.669720 0.114942
Si Si5 0.810366 0.825067 0.376357
Si Si6 0.310110 0.324391 0.839211
Si Si7 0.500000 0.676019 0.234486
O O1 0.250000 0.750000 0.500000
O O2 0.161461 0.788712 0.560704
O O3 0.205887 0.000000 0.500000
O O4 0.133497 0.500000 0.080591
O O5 0.158762 0.776163 0.103158
O O6 0.054251 0.704960 0.076643
O O7 0.133225 0.706056 0.000000
O O8 0.147755 0.239069 0.671846
O O9 0.153986 0.232083 0.784871
O O10 0.055675 0.237409 0.733583
O O11 0.118893 0.000000 0.728610
O O12 0.000000 0.500000 0.136200
O O13 0.000000 0.775571 0.169142
O O14 0.750000 0.750000 0.369201
O O15 0.801647 0.000000 0.368096
O O16 0.302807 0.500000 0.839311
O O17 0.250000 0.250000 0.835135
O O18 0.500000 0.500000 0.234508
#
# Coordination Sequence:
#
# PCOD8266913 Si02
#       7
#     8  16  16   8  16  16   8
#     4   8  14  24  42  65  95 127 161 198 235 278
#     4  10  21  37  56  77 101 129 159 196 245 297
#     4   9  18  31  50  72  97 127 162 199 243 290
#     4  10  19  34  56  80 101 123 156 202 248 289
#     4   9  16  28  45  70  98 129 162 198 240 284
#     4  11  22  36  53  74  99 130 165 203 245 294
#     4  10  18  33  53  72  96 128 161 198 242 294
#
# _framework density 17.569468000000001
#
# number of rings (size 3 to 8) (size 9 to 14) (size 15 to 20)
#    0.000    2.364    1.818    1.364    0.000    1.818 
#    0.000    1.818    0.000    2.182    0.000    3.818 
#    0.000    0.000    0.000   14.182    0.000   10.182 
#
# Total GULP energy -545356.870527 kJ/mol
# GULP energy per Si atom -12394.474330 kJ/mol
# Density = 1.752948 g / cm^3
# Si number density = 17.569468 Si / 1000 Ang^3
#
#
#
# Elastic Constant Matrix: (Units=GPa)
#
#
# Indices 1 2 3 4 5 6 
#
# 1 135.5196 33.4385 73.8103 0.0000 0.0000 0.0000
# 2 33.4385 34.8929 32.1431 0.0000 0.0000 0.0000
# 3 73.8103 32.1431 159.5870 0.0000 0.0000 0.0000
# 4 0.0000 0.0000 0.0000 19.1023 0.0000 0.0000
# 5 0.0000 0.0000 0.0000 0.0000 14.7838 0.0000
# 6 0.0000 0.0000 0.0000 0.0000 0.0000 -2.2701
#
#
#
# Elastic Compliance Matrix: (Units=1/GPa)
#
#
# Indices 1 2 3 4 5 6 
#
# 1 0.011205 -0.007323 -0.003708 0.000000 0.000000 0.000000
# 2 -0.007323 0.039973 -0.004664 0.000000 0.000000 0.000000
# 3 -0.003708 -0.004664 0.008920 0.000000 0.000000 0.000000
# 4 0.000000 0.000000 0.000000 0.052350 0.000000 0.000000
# 5 0.000000 0.000000 0.000000 0.000000 0.067642 0.000000
# 6 0.000000 0.000000 0.000000 0.000000 0.000000 -0.440513
#
#
# Mechanical properties :
#
#
# Convention : Reuss Voigt Hill
#
# Bulk Modulus (GPa) = 34.83151 67.64258 51.23705
# Shear Modulus (GPa) = -22.78287 19.03036 -1.87625
#
# Velocity S-wave (km/s) = -3.60492 3.29469 -1.03452
# Velocity P-wave (km/s) = 1.59398 7.28402 5.27247
#
# Compressibility (1/GPa) = 0.02870964
#
# Stress axis : x y z
#
# Youngs Moduli (GPa) = 89.24473 25.01663 112.10208
#
# Poissons Ratio (x) = 0.18319 0.41563
# Poissons Ratio (y) = 0.65351 0.52289
# Poissons Ratio (z) = 0.33088 0.11669
#
# Static dielectric constant tensor:
#      x y z
#    x 3.367920 0.000000 0.000000 
#    y 0.000000 3.004830 0.000000 
#    z 0.000000 0.000000 3.753010 
# 
# 
# High freq. dielectric constant tensor:
#      x y z
#    x 1.667980 0.000000 0.000000 
#    y 0.000000 1.660710 0.000000 
#    z 0.000000 0.000000 1.690680 
# 
# From -- ./inp_files/65266.got.cif
#   From: 2010.03.12/outbox.cif.g09.slc.cpg/sg65_33_cif.got.tgz:65266.got - 2010.04.10 20:52:16.
