data_PCOD8266880
_publ_section_title
;
Structure prediction by ZEFSAII (Michael W. Deem and Ramdas Pophale) SiO2 
 PCOD8266880
Probable space group: C M M M
;
_chemical_formula_sum "Si O2"
_cell_formula_units_Z 72
_cell_length_a 18.219603
_cell_length_b 8.584945
_cell_length_c 23.334332
_cell_angle_alpha 90.000000
_cell_angle_beta 90.000000
_cell_angle_gamma 90.000000
_cell_volume 3649.822965
_symmetry_space_group_name_H-M "C M M M"
_symmetry_group_IT_number 65
_symmetry_cell_setting 'orthorhombic'
loop_
_space_group_symop_operation_xyz
x,y,z
-x,-y,z
x,-y,-z
-x,y,-z
-x,-y,-z
x,y,-z
-x,y,z
x,-y,z
1/2+x,1/2+y,z
1/2-x,1/2-y,z
1/2+x,1/2-y,-z
1/2-x,1/2+y,-z
1/2-x,1/2-y,-z
1/2+x,1/2+y,-z
1/2-x,1/2+y,z
1/2+x,1/2-y,z
loop_
_atom_site_type_symbol
_atom_site_label
_atom_site_fract_x
_atom_site_fract_y
_atom_site_fract_z
Si Si1 0.413345 0.678740 0.778515
Si Si2 0.669504 0.814885 0.671958
Si Si3 0.331568 0.684182 0.000000
Si Si4 0.330720 0.182873 0.116230
Si Si5 0.582158 0.815016 0.563299
O O1 0.500000 0.695174 0.778114
O O2 0.388009 0.500000 0.784214
O O3 0.383849 0.750370 0.720139
O O4 0.382700 0.776543 0.831298
O O5 0.750000 0.750000 0.682018
O O6 0.638732 0.752576 0.610942
O O7 0.670952 0.000000 0.675059
O O8 0.250000 0.750000 0.000000
O O9 0.368504 0.746875 0.941503
O O10 0.332973 0.500000 0.000000
O O11 0.250000 0.250000 0.127704
O O12 0.323567 0.000000 0.108959
O O13 0.607478 0.757409 0.500000
O O14 0.500000 0.752150 0.576331
O O15 0.580555 0.000000 0.564837
#
# Coordination Sequence:
#
# PCOD8266880 Si02
#       5
#    16  16   8  16  16
#     4  11  24  41  59  80 109 144 183 230 284 337
#     4  11  22  36  56  82 112 146 186 230 277 329
#     4  10  18  32  55  84 117 150 187 227 273 325
#     4  11  21  36  59  86 116 148 187 230 274 326
#     4   8  15  30  53  80 109 143 184 228 274 326
#
# _framework density 19.726984999999999
#
# number of rings (size 3 to 8) (size 9 to 14) (size 15 to 20)
#    0.000    1.778    0.000    7.667    0.000    3.111 
#    0.000    0.556    0.000    5.333    0.000    7.778 
#    0.000    0.000    0.000    0.000    0.000    0.000 
#
# Total GULP energy -446386.903825 kJ/mol
# GULP energy per Si atom -12399.636217 kJ/mol
# Density = 1.968209 g / cm^3
# Si number density = 19.726985 Si / 1000 Ang^3
#
#
#
# Elastic Constant Matrix: (Units=GPa)
#
#
# Indices 1 2 3 4 5 6 
#
# 1 65.1665 35.4431 44.5765 0.0000 0.0000 0.0000
# 2 35.4431 126.8158 48.2091 0.0000 0.0000 0.0000
# 3 44.5765 48.2091 155.3436 0.0000 0.0000 0.0000
# 4 0.0000 0.0000 0.0000 32.4275 0.0000 0.0000
# 5 0.0000 0.0000 0.0000 0.0000 -12.3181 0.0000
# 6 0.0000 0.0000 0.0000 0.0000 0.0000 19.1442
#
#
#
# Elastic Compliance Matrix: (Units=1/GPa)
#
#
# Indices 1 2 3 4 5 6 
#
# 1 0.020747 -0.004008 -0.004710 0.000000 0.000000 0.000000
# 2 -0.004008 0.009714 -0.001865 0.000000 0.000000 0.000000
# 3 -0.004710 -0.001865 0.008367 0.000000 0.000000 0.000000
# 4 0.000000 0.000000 0.000000 0.030838 0.000000 0.000000
# 5 0.000000 0.000000 0.000000 0.000000 -0.081181 0.000000
# 6 0.000000 0.000000 0.000000 0.000000 0.000000 0.052235
#
#
# Mechanical properties :
#
#
# Convention : Reuss Voigt Hill
#
# Bulk Modulus (GPa) = 56.61170 67.08704 61.84937
# Shear Modulus (GPa) = 73.77568 22.45720 48.11644
#
# Velocity S-wave (km/s) = 6.12205 3.37768 4.94410
# Velocity P-wave (km/s) = 8.87314 7.02091 8.00081
#
# Compressibility (1/GPa) = 0.01766419
#
# Stress axis : x y z
#
# Youngs Moduli (GPa) = 48.20041 102.93899 119.51106
#
# Poissons Ratio (x) = 0.41259 0.56284
# Poissons Ratio (y) = 0.19319 0.22285
# Poissons Ratio (z) = 0.22700 0.19194
#
# Static dielectric constant tensor:
#      x y z
#    x 3.459970 0.000000 0.000000 
#    y 0.000000 3.562470 0.000000 
#    z 0.000000 0.000000 4.350510 
# 
# 
# High freq. dielectric constant tensor:
#      x y z
#    x 1.750790 0.000000 0.000000 
#    y 0.000000 1.764280 0.000000 
#    z 0.000000 0.000000 1.794430 
# 
# From -- ./inp_files/70328.got.cif
#   From: 2010.03.12/outbox.cif.g09.slc.cpg/sg65_36_cif.got.tgz:70328.got - 2010.04.10 20:52:16.
