data_PCOD8266130
_publ_section_title
;
Structure prediction by ZEFSAII (Michael W. Deem and Ramdas Pophale) SiO2 
 PCOD8266130
Probable space group: C M M M
;
_chemical_formula_sum "Si O2"
_cell_formula_units_Z 120
_cell_length_a 14.740085
_cell_length_b 32.852085
_cell_length_c 14.231419
_cell_angle_alpha 90.000000
_cell_angle_beta 90.000000
_cell_angle_gamma 90.000000
_cell_volume 6891.458276
_symmetry_space_group_name_H-M "C M M M"
_symmetry_group_IT_number 65
_symmetry_cell_setting 'orthorhombic'
loop_
_space_group_symop_operation_xyz
x,y,z
-x,-y,z
x,-y,-z
-x,y,-z
-x,-y,-z
x,y,-z
-x,y,z
x,-y,z
1/2+x,1/2+y,z
1/2-x,1/2-y,z
1/2+x,1/2-y,-z
1/2-x,1/2+y,-z
1/2-x,1/2-y,-z
1/2+x,1/2+y,-z
1/2-x,1/2+y,z
1/2+x,1/2-y,z
loop_
_atom_site_type_symbol
_atom_site_label
_atom_site_fract_x
_atom_site_fract_y
_atom_site_fract_z
Si Si1 0.102059 0.651749 0.108696
Si Si2 0.392038 0.423976 0.266742
Si Si3 0.392691 0.647921 0.602554
Si Si4 0.107082 0.000000 0.606849
Si Si5 0.607324 0.260609 0.604109
Si Si6 0.401437 0.311395 0.105186
Si Si7 0.215821 0.112078 0.890470
Si Si8 0.653392 0.764681 0.204335
O O1 0.176268 0.616575 0.132386
O O2 0.121529 0.692462 0.165810
O O3 0.000000 0.635817 0.132036
O O4 0.110936 0.663641 0.000000
O O5 0.500000 0.425661 0.244877
O O6 0.358988 0.383206 0.319110
O O7 0.361378 0.460943 0.333500
O O8 0.332817 0.423633 0.170342
O O9 0.353361 0.635678 0.500000
O O10 0.500000 0.645591 0.596773
O O11 0.361850 0.693366 0.628639
O O12 0.148238 0.000000 0.500000
O O13 0.000000 0.000000 0.596635
O O14 0.642179 0.248184 0.500000
O O15 0.500000 0.256342 0.607686
O O16 0.652290 0.231520 0.682000
O O17 0.500000 0.333215 0.109325
O O18 0.328046 0.344478 0.137574
O O19 0.411182 0.272084 0.171908
O O20 0.378811 0.296251 0.000000
O O21 0.199246 0.101639 0.000000
O O22 0.750000 0.750000 0.164881
#
# Coordination Sequence:
#
# PCOD8266130 Si02
#       8
#    16  16  16   8  16  16  16  16
#     4  10  21  36  51  67  91 124 164 213 262 300
#     4  10  18  29  49  75 105 136 161 187 226 277
#     4   8  14  25  43  65  88 118 157 197 232 269
#     4   9  18  32  51  79 114 145 167 187 219 270
#     4   9  18  31  44  59  83 118 160 204 247 288
#     4  10  19  30  45  66  93 124 160 203 247 291
#     4  10  20  33  48  69  96 127 166 202 238 288
#     4  12  21  29  45  65  90 123 163 210 257 306
#
# _framework density 17.412860999999999
#
# number of rings (size 3 to 8) (size 9 to 14) (size 15 to 20)
#    0.000    2.200    1.333    4.000    0.000    5.333 
#    0.000    0.333    0.000    1.200    0.000    0.467 
#    0.000    2.667    0.000    0.000    0.000    0.000 
#
# Total GULP energy -743574.964655 kJ/mol
# GULP energy per Si atom -12392.916078 kJ/mol
# Density = 1.737323 g / cm^3
# Si number density = 17.412861 Si / 1000 Ang^3
#
#
#
# Elastic Constant Matrix: (Units=GPa)
#
#
# Indices 1 2 3 4 5 6 
#
# 1 83.0823 22.9350 34.2111 0.0000 0.0000 0.0000
# 2 22.9350 45.9059 45.1005 0.0000 0.0000 0.0000
# 3 34.2111 45.1005 107.4536 0.0000 0.0000 0.0000
# 4 0.0000 0.0000 0.0000 24.8280 0.0000 0.0000
# 5 0.0000 0.0000 0.0000 0.0000 16.7447 0.0000
# 6 0.0000 0.0000 0.0000 0.0000 0.0000 14.7090
#
#
#
# Elastic Compliance Matrix: (Units=1/GPa)
#
#
# Indices 1 2 3 4 5 6 
#
# 1 0.014396 -0.004577 -0.002663 0.000000 0.000000 0.000000
# 2 -0.004577 0.038525 -0.014712 0.000000 0.000000 0.000000
# 3 -0.002663 -0.014712 0.016329 0.000000 0.000000 0.000000
# 4 0.000000 0.000000 0.000000 0.040277 0.000000 0.000000
# 5 0.000000 0.000000 0.000000 0.000000 0.059720 0.000000
# 6 0.000000 0.000000 0.000000 0.000000 0.000000 0.067986
#
#
# Mechanical properties :
#
#
# Convention : Reuss Voigt Hill
#
# Bulk Modulus (GPa) = 39.45306 48.99280 44.22293
# Shear Modulus (GPa) = 17.26611 20.20269 18.73440
#
# Velocity S-wave (km/s) = 3.15234 3.40989 3.28364
# Velocity P-wave (km/s) = 5.99636 6.61061 6.31096
#
# Compressibility (1/GPa) = 0.02534657
#
# Stress axis : x y z
#
# Youngs Moduli (GPa) = 69.46384 25.95749 61.24016
#
# Poissons Ratio (x) = 0.11880 0.16305
# Poissons Ratio (y) = 0.31791 0.90099
# Poissons Ratio (z) = 0.18495 0.38190
#
# Static dielectric constant tensor:
#      x y z
#    x 3.186720 0.000000 0.000000 
#    y 0.000000 2.912590 0.000000 
#    z 0.000000 0.000000 3.633760 
# 
# 
# High freq. dielectric constant tensor:
#      x y z
#    x 1.649090 0.000000 0.000000 
#    y 0.000000 1.619400 0.000000 
#    z 0.000000 0.000000 1.688560 
# 
# From -- ./inp_files/41463.got.cif
#   From: 2010.03.12/outbox.cif.g09.slc.cpg/sg65_21_cif.got.tgz:41463.got - 2010.04.10 20:52:16.
