data_PCOD8266540
_publ_section_title
;
Structure prediction by ZEFSAII (Michael W. Deem and Ramdas Pophale) SiO2 
 PCOD8266540
Probable space group: C M M M
;
_chemical_formula_sum "Si O2"
_cell_formula_units_Z 72
_cell_length_a 19.144535
_cell_length_b 27.878133
_cell_length_c 8.451041
_cell_angle_alpha 90.000000
_cell_angle_beta 90.000000
_cell_angle_gamma 90.000000
_cell_volume 4510.437992
_symmetry_space_group_name_H-M "C M M M"
_symmetry_group_IT_number 65
_symmetry_cell_setting 'orthorhombic'
loop_
_space_group_symop_operation_xyz
x,y,z
-x,-y,z
x,-y,-z
-x,y,-z
-x,-y,-z
x,y,-z
-x,y,z
x,-y,z
1/2+x,1/2+y,z
1/2-x,1/2-y,z
1/2+x,1/2-y,-z
1/2-x,1/2+y,-z
1/2-x,1/2-y,-z
1/2+x,1/2+y,-z
1/2-x,1/2+y,z
1/2+x,1/2-y,z
loop_
_atom_site_type_symbol
_atom_site_label
_atom_site_fract_x
_atom_site_fract_y
_atom_site_fract_z
Si Si1 0.347920 0.274564 0.814564
Si Si2 0.000000 0.760408 0.187035
Si Si3 0.080201 0.500000 0.313414
Si Si4 0.866636 0.402333 0.187405
Si Si5 0.216075 0.319852 0.315649
Si Si6 0.000000 0.345251 0.812028
O O1 0.428072 0.286858 0.762563
O O2 0.297801 0.309710 0.716889
O O3 0.330964 0.218727 0.779227
O O4 0.336523 0.283395 0.000000
O O5 0.000000 0.707507 0.263461
O O6 0.000000 0.753803 0.000000
O O7 0.076104 0.500000 0.500000
O O8 0.126030 0.544553 0.254717
O O9 0.000000 0.500000 0.244350
O O10 0.799791 0.373886 0.256718
O O11 0.932911 0.373079 0.251068
O O12 0.860976 0.404894 0.000000
O O13 0.200737 0.314159 0.500000
O O14 0.000000 0.344110 0.000000
#
# Coordination Sequence:
#
# PCOD8266540 Si02
#       6
#    16   8   8  16  16   8
#     4  10  18  31  49  68  90 123 161 197 234 286
#     4   9  16  28  47  71  92 116 159 205 235 270
#     4  11  23  35  47  71 101 124 153 200 249 283
#     4  11  20  34  52  67  88 126 169 202 233 281
#     4  11  21  32  44  66  96 125 156 198 243 284
#     4   9  16  27  45  68  89 117 161 203 234 267
#
# _framework density 15.962973
#
# number of rings (size 3 to 8) (size 9 to 14) (size 15 to 20)
#    0.000    1.667    3.333    5.000    0.000    0.444 
#    0.000    3.333    0.000    0.000    0.000    0.000 
#    0.000    0.889    0.000    9.556    0.000    4.222 
#
# Total GULP energy -446295.733820 kJ/mol
# GULP energy per Si atom -12397.103717 kJ/mol
# Density = 1.592664 g / cm^3
# Si number density = 15.962973 Si / 1000 Ang^3
#
#
#
# Elastic Constant Matrix: (Units=GPa)
#
#
# Indices 1 2 3 4 5 6 
#
# 1 107.1465 44.8683 16.9871 0.0000 0.0000 0.0000
# 2 44.8683 96.0396 19.5604 0.0000 0.0000 0.0000
# 3 16.9871 19.5604 60.1508 0.0000 0.0000 0.0000
# 4 0.0000 0.0000 0.0000 21.2568 0.0000 0.0000
# 5 0.0000 0.0000 0.0000 0.0000 14.3225 0.0000
# 6 0.0000 0.0000 0.0000 0.0000 0.0000 27.4566
#
#
#
# Elastic Compliance Matrix: (Units=1/GPa)
#
#
# Indices 1 2 3 4 5 6 
#
# 1 0.011753 -0.005156 -0.001642 0.000000 0.000000 0.000000
# 2 -0.005156 0.013413 -0.002906 0.000000 0.000000 0.000000
# 3 -0.001642 -0.002906 0.018034 0.000000 0.000000 0.000000
# 4 0.000000 0.000000 0.000000 0.047044 0.000000 0.000000
# 5 0.000000 0.000000 0.000000 0.000000 0.069820 0.000000
# 6 0.000000 0.000000 0.000000 0.000000 0.000000 0.036421
#
#
# Mechanical properties :
#
#
# Convention : Reuss Voigt Hill
#
# Bulk Modulus (GPa) = 42.03271 47.35206 44.69239
# Shear Modulus (GPa) = 22.33911 24.73525 23.53718
#
# Velocity S-wave (km/s) = 3.74496 3.94069 3.84407
# Velocity P-wave (km/s) = 6.71477 7.10165 6.91092
#
# Compressibility (1/GPa) = 0.02379099
#
# Stress axis : x y z
#
# Youngs Moduli (GPa) = 85.08787 74.55434 55.45219
#
# Poissons Ratio (x) = 0.38441 0.09107
# Poissons Ratio (y) = 0.43872 0.16112
# Poissons Ratio (z) = 0.13974 0.21663
#
# Static dielectric constant tensor:
#      x y z
#    x 3.227700 0.000000 0.000000 
#    y 0.000000 -1.955680 0.000000 
#    z 0.000000 0.000000 2.901780 
# 
# 
# High freq. dielectric constant tensor:
#      x y z
#    x 1.604280 0.000000 0.000000 
#    y 0.000000 1.579440 0.000000 
#    z 0.000000 0.000000 1.614020 
# 
# From -- ./inp_files/12030.got.cif
#   From: 2010.03.12/outbox.cif.g09.slc.cpg/sg65_7_cif.got.tgz:12030.got - 2010.04.10 20:52:16.
