data_PCOD8266854
_publ_section_title
;
Structure prediction by ZEFSAII (Michael W. Deem and Ramdas Pophale) SiO2 
 PCOD8266854
Probable space group: C M M M
;
_chemical_formula_sum "Si O2"
_cell_formula_units_Z 88
_cell_length_a 11.905850
_cell_length_b 26.834426
_cell_length_c 14.776940
_cell_angle_alpha 90.000000
_cell_angle_beta 90.000000
_cell_angle_gamma 90.000000
_cell_volume 4721.035070
_symmetry_space_group_name_H-M "C M M M"
_symmetry_group_IT_number 65
_symmetry_cell_setting 'orthorhombic'
loop_
_space_group_symop_operation_xyz
x,y,z
-x,-y,z
x,-y,-z
-x,y,-z
-x,-y,-z
x,y,-z
-x,y,z
x,-y,z
1/2+x,1/2+y,z
1/2-x,1/2-y,z
1/2+x,1/2-y,-z
1/2-x,1/2+y,-z
1/2-x,1/2-y,-z
1/2+x,1/2+y,-z
1/2-x,1/2+y,z
1/2+x,1/2-y,z
loop_
_atom_site_type_symbol
_atom_site_label
_atom_site_fract_x
_atom_site_fract_y
_atom_site_fract_z
Si Si1 0.632807 0.394820 0.815709
Si Si2 0.500000 0.159331 0.895682
Si Si3 0.210155 0.694507 0.780745
Si Si4 0.500000 0.055516 0.817097
Si Si5 0.289958 0.944287 0.313831
Si Si6 0.868917 0.649799 0.399644
Si Si7 0.133138 0.055540 0.000000
O O1 0.500000 0.390453 0.809983
O O2 0.684405 0.340494 0.801910
O O3 0.673984 0.433041 0.738449
O O4 0.675541 0.415271 0.912091
O O5 0.608497 0.181863 0.847085
O O6 0.500000 0.098944 0.891798
O O7 0.500000 0.175849 0.000000
O O8 0.250000 0.750000 0.798652
O O9 0.175442 0.688107 0.675655
O O10 0.390381 0.063014 0.756655
O O11 0.500000 0.000000 0.861317
O O12 0.307988 0.904080 0.392931
O O13 0.286817 0.000000 0.354790
O O14 0.843660 0.671358 0.500000
O O15 0.000000 0.641218 0.384498
O O16 0.000000 0.051803 0.000000
O O17 0.185442 0.000000 0.000000
#
# Coordination Sequence:
#
# PCOD8266854 Si02
#       7
#    16   8  16   8  16  16   8
#     4  10  21  35  54  83 112 154 203 244 289 350
#     4  12  24  43  62  90 124 156 204 247 293 358
#     4  11  24  42  63  83 120 156 195 247 304 348
#     4  10  18  35  58  85 118 160 198 235 297 355
#     4  10  18  32  54  81 121 157 191 237 293 357
#     4  10  19  36  62  89 117 148 194 252 305 356
#     4   9  18  34  53  77 111 147 195 246 279 328
#
# _framework density 18.639980999999999
#
# number of rings (size 3 to 8) (size 9 to 14) (size 15 to 20)
#    0.000    1.727    5.455    0.545    2.545    2.364 
#    0.000    0.909    0.000    8.727    0.000    5.091 
#    0.000    0.000    0.000    0.000    0.000    0.000 
#
# Total GULP energy -545556.108184 kJ/mol
# GULP energy per Si atom -12399.002459 kJ/mol
# Density = 1.859756 g / cm^3
# Si number density = 18.639981 Si / 1000 Ang^3
#
#
#
# Elastic Constant Matrix: (Units=GPa)
#
#
# Indices 1 2 3 4 5 6 
#
# 1 92.7741 30.5142 43.3548 0.0000 0.0000 0.0000
# 2 30.5142 110.4666 42.9032 0.0000 0.0000 0.0000
# 3 43.3548 42.9032 110.1448 0.0000 0.0000 0.0000
# 4 0.0000 0.0000 0.0000 12.5447 0.0000 0.0000
# 5 0.0000 0.0000 0.0000 0.0000 21.8752 0.0000
# 6 0.0000 0.0000 0.0000 0.0000 0.0000 23.3829
#
#
#
# Elastic Compliance Matrix: (Units=1/GPa)
#
#
# Indices 1 2 3 4 5 6 
#
# 1 0.013563 -0.001971 -0.004571 0.000000 0.000000 0.000000
# 2 -0.001971 0.010953 -0.003490 0.000000 0.000000 0.000000
# 3 -0.004571 -0.003490 0.012238 0.000000 0.000000 0.000000
# 4 0.000000 0.000000 0.000000 0.079715 0.000000 0.000000
# 5 0.000000 0.000000 0.000000 0.000000 0.045714 0.000000
# 6 0.000000 0.000000 0.000000 0.000000 0.000000 0.042766
#
#
# Mechanical properties :
#
#
# Convention : Reuss Voigt Hill
#
# Bulk Modulus (GPa) = 59.92118 60.77000 60.34559
# Shear Modulus (GPa) = 21.68475 24.66810 23.17642
#
# Velocity S-wave (km/s) = 3.41449 3.64180 3.52997
# Velocity P-wave (km/s) = 6.91096 7.09622 7.00420
#
# Compressibility (1/GPa) = 0.01668859
#
# Stress axis : x y z
#
# Youngs Moduli (GPa) = 73.72831 91.30237 81.71507
#
# Poissons Ratio (x) = 0.17999 0.37351
# Poissons Ratio (y) = 0.14534 0.28521
# Poissons Ratio (z) = 0.33700 0.31867
#
# Static dielectric constant tensor:
#      x y z
#    x 3.371310 0.000000 0.000000 
#    y 0.000000 3.455400 0.000000 
#    z 0.000000 0.000000 3.392750 
# 
# 
# High freq. dielectric constant tensor:
#      x y z
#    x 1.722280 0.000000 0.000000 
#    y 0.000000 1.721470 0.000000 
#    z 0.000000 0.000000 1.711340 
# 
# From -- ./inp_files/38707.got.cif
#   From: 2010.03.12/outbox.cif.g09.slc.cpg/sg65_20_cif.got.tgz:38707.got - 2010.04.10 20:52:16.
