data_PCOD8266051
_publ_section_title
;
Structure prediction by ZEFSAII (Michael W. Deem and Ramdas Pophale) SiO2 
 PCOD8266051
Probable space group: C M M M
;
_chemical_formula_sum "Si O2"
_cell_formula_units_Z 88
_cell_length_a 8.809495
_cell_length_b 18.487015
_cell_length_c 28.735282
_cell_angle_alpha 90.000000
_cell_angle_beta 90.000000
_cell_angle_gamma 90.000000
_cell_volume 4679.864411
_symmetry_space_group_name_H-M "C M M M"
_symmetry_group_IT_number 65
_symmetry_cell_setting 'orthorhombic'
loop_
_space_group_symop_operation_xyz
x,y,z
-x,-y,z
x,-y,-z
-x,y,-z
-x,-y,-z
x,y,-z
-x,y,z
x,-y,z
1/2+x,1/2+y,z
1/2-x,1/2-y,z
1/2+x,1/2-y,-z
1/2-x,1/2+y,-z
1/2-x,1/2-y,-z
1/2+x,1/2+y,-z
1/2-x,1/2+y,z
1/2+x,1/2-y,z
loop_
_atom_site_type_symbol
_atom_site_label
_atom_site_fract_x
_atom_site_fract_y
_atom_site_fract_z
Si Si1 0.823633 0.172593 0.000000
Si Si2 0.324548 0.417192 0.446383
Si Si3 0.680414 0.081082 0.279974
Si Si4 0.180120 0.329298 0.808702
Si Si5 0.320704 0.670751 0.099455
Si Si6 0.821317 0.671851 0.632550
O O1 0.750000 0.250000 0.000000
O O2 0.783422 0.131741 0.950892
O O3 0.000000 0.188893 0.000000
O O4 0.291667 0.399049 0.500000
O O5 0.500000 0.403341 0.434492
O O6 0.280651 0.500000 0.435608
O O7 0.221227 0.364651 0.416140
O O8 0.500000 0.078498 0.280849
O O9 0.737623 0.121719 0.233821
O O10 0.742121 0.122924 0.325253
O O11 0.747770 0.000000 0.280310
O O12 0.250000 0.250000 0.802460
O O13 0.240937 0.367797 0.856374
O O14 0.000000 0.323221 0.810326
O O15 0.500000 0.674727 0.108522
O O16 0.250000 0.750000 0.097127
O O17 0.750000 0.750000 0.636923
O O18 0.000000 0.680364 0.635485
#
# Coordination Sequence:
#
# PCOD8266051 Si02
#       6
#     8  16  16  16  16  16
#     4   8  14  22  34  54  83 120 153 187 231 277
#     4   9  19  37  59  82 110 142 174 211 255 300
#     4   9  19  35  53  73  97 127 164 205 249 297
#     4  10  18  29  47  69  95 125 156 194 241 290
#     4   9  15  24  38  59  89 121 155 192 233 282
#     4  11  22  36  56  80 107 138 173 213 255 301
#
# _framework density 18.803964000000001
#
# number of rings (size 3 to 8) (size 9 to 14) (size 15 to 20)
#    0.000    2.545    0.000    4.364    0.000    2.545 
#    0.000    3.636    0.000    6.545    0.000    0.636 
#    0.000    5.091    0.000    0.000    0.000    0.000 
#
# Total GULP energy -545227.157292 kJ/mol
# GULP energy per Si atom -12391.526302 kJ/mol
# Density = 1.876117 g / cm^3
# Si number density = 18.803964 Si / 1000 Ang^3
#
#
#
# Elastic Constant Matrix: (Units=GPa)
#
#
# Indices 1 2 3 4 5 6 
#
# 1 63.7163 32.1523 45.2133 0.0000 0.0000 0.0000
# 2 32.1523 103.0191 76.0577 0.0000 0.0000 0.0000
# 3 45.2133 76.0577 173.9477 0.0000 0.0000 0.0000
# 4 0.0000 0.0000 0.0000 10.7077 0.0000 0.0000
# 5 0.0000 0.0000 0.0000 0.0000 24.3860 0.0000
# 6 0.0000 0.0000 0.0000 0.0000 0.0000 -0.5506
#
#
#
# Elastic Compliance Matrix: (Units=1/GPa)
#
#
# Indices 1 2 3 4 5 6 
#
# 1 0.020094 -0.003567 -0.003663 0.000000 0.000000 0.000000
# 2 -0.003567 0.014967 -0.005617 0.000000 0.000000 0.000000
# 3 -0.003663 -0.005617 0.009157 0.000000 0.000000 0.000000
# 4 0.000000 0.000000 0.000000 0.093391 0.000000 0.000000
# 5 0.000000 0.000000 0.000000 0.000000 0.041007 0.000000
# 6 0.000000 0.000000 0.000000 0.000000 0.000000 -1.816106
#
#
# Mechanical properties :
#
#
# Convention : Reuss Voigt Hill
#
# Bulk Modulus (GPa) = 53.98499 71.94775 62.96637
# Shear Modulus (GPa) = -3.11406 19.39260 8.13927
#
# Velocity S-wave (km/s) = -1.28828 3.21488 2.08276
# Velocity P-wave (km/s) = 5.15352 7.21981 6.27234
#
# Compressibility (1/GPa) = 0.01852367
#
# Stress axis : x y z
#
# Youngs Moduli (GPa) = 49.76620 66.81244 109.20375
#
# Poissons Ratio (x) = 0.23830 0.40006
# Poissons Ratio (y) = 0.17750 0.61343
# Poissons Ratio (z) = 0.18231 0.37530
#
# Static dielectric constant tensor:
#      x y z
#    x 3.234600 0.000000 0.000000 
#    y 0.000000 3.153420 0.000000 
#    z 0.000000 0.000000 4.263610 
# 
# 
# High freq. dielectric constant tensor:
#      x y z
#    x 1.720100 0.000000 0.000000 
#    y 0.000000 1.687300 0.000000 
#    z 0.000000 0.000000 1.761560 
# 
# From -- ./inp_files/76806.got.cif
#   From: 2010.03.12/outbox.cif.g09.slc.cpg/sg65_39_cif.got.tgz:76806.got - 2010.04.10 20:52:16.
