data_PCOD8266291
_publ_section_title
;
Structure prediction by ZEFSAII (Michael W. Deem and Ramdas Pophale) SiO2 
 PCOD8266291
Probable space group: C M M M
;
_chemical_formula_sum "Si O2"
_cell_formula_units_Z 88
_cell_length_a 19.320503
_cell_length_b 19.716349
_cell_length_c 13.198169
_cell_angle_alpha 90.000000
_cell_angle_beta 90.000000
_cell_angle_gamma 90.000000
_cell_volume 5027.575614
_symmetry_space_group_name_H-M "C M M M"
_symmetry_group_IT_number 65
_symmetry_cell_setting 'orthorhombic'
loop_
_space_group_symop_operation_xyz
x,y,z
-x,-y,z
x,-y,-z
-x,y,-z
-x,-y,-z
x,y,-z
-x,y,z
x,-y,z
1/2+x,1/2+y,z
1/2-x,1/2-y,z
1/2+x,1/2-y,-z
1/2-x,1/2+y,-z
1/2-x,1/2-y,-z
1/2+x,1/2+y,-z
1/2-x,1/2+y,z
1/2+x,1/2-y,z
loop_
_atom_site_type_symbol
_atom_site_label
_atom_site_fract_x
_atom_site_fract_y
_atom_site_fract_z
Si Si1 0.579154 0.422456 0.766851
Si Si2 0.922303 0.419518 0.000000
Si Si3 0.209549 0.079022 0.890303
Si Si4 0.418347 0.311883 0.609925
Si Si5 0.081063 0.340077 0.381689
Si Si6 0.346910 0.080237 0.795529
O O1 0.500000 0.406649 0.799797
O O2 0.585704 0.500000 0.727914
O O3 0.630013 0.408114 0.859994
O O4 0.607479 0.372140 0.681121
O O5 0.886021 0.393400 0.103133
O O6 0.920847 0.500000 0.000000
O O7 0.000000 0.390765 0.000000
O O8 0.266734 0.104403 0.809105
O O9 0.223894 0.000000 0.902873
O O10 0.220682 0.114114 0.000000
O O11 0.384274 0.324232 0.500000
O O12 0.500000 0.315824 0.599493
O O13 0.398418 0.236936 0.648942
O O14 0.099548 0.354057 0.500000
O O15 0.124136 0.388089 0.307683
O O16 0.000000 0.353515 0.363950
O O17 0.355238 0.000000 0.783005
#
# Coordination Sequence:
#
# PCOD8266291 Si02
#       6
#    16   8  16  16  16  16
#     4   9  17  29  50  78  97 116 156 204 244 289
#     4   9  16  26  44  70  92 117 160 206 242 275
#     4   9  17  31  49  69  97 131 160 192 246 301
#     4   8  15  30  50  70  96 128 157 192 243 295
#     4   9  18  32  50  71  97 133 169 199 239 288
#     4  10  18  30  48  70  98 131 165 203 241 283
#
# _framework density 17.503466
#
# number of rings (size 3 to 8) (size 9 to 14) (size 15 to 20)
#    0.000    3.000    0.909    1.636    0.000    2.182 
#    0.000    6.364    2.000    6.545    0.000    0.000 
#    0.000    0.000    0.000    0.000    0.000    0.000 
#
# Total GULP energy -545135.530804 kJ/mol
# GULP energy per Si atom -12389.443882 kJ/mol
# Density = 1.746363 g / cm^3
# Si number density = 17.503466 Si / 1000 Ang^3
#
#
#
# Elastic Constant Matrix: (Units=GPa)
#
#
# Indices 1 2 3 4 5 6 
#
# 1 100.8353 35.2392 58.8387 0.0000 0.0000 0.0000
# 2 35.2392 61.5895 54.5064 0.0000 0.0000 0.0000
# 3 58.8387 54.5064 121.1366 0.0000 0.0000 0.0000
# 4 0.0000 0.0000 0.0000 -1.4668 0.0000 0.0000
# 5 0.0000 0.0000 0.0000 0.0000 16.1776 0.0000
# 6 0.0000 0.0000 0.0000 0.0000 0.0000 11.4251
#
#
#
# Elastic Compliance Matrix: (Units=1/GPa)
#
#
# Indices 1 2 3 4 5 6 
#
# 1 0.014248 -0.003369 -0.005405 0.000000 0.000000 0.000000
# 2 -0.003369 0.027777 -0.010862 0.000000 0.000000 0.000000
# 3 -0.005405 -0.010862 0.015768 0.000000 0.000000 0.000000
# 4 0.000000 0.000000 0.000000 -0.681774 0.000000 0.000000
# 5 0.000000 0.000000 0.000000 0.000000 0.061814 0.000000
# 6 0.000000 0.000000 0.000000 0.000000 0.000000 0.087527
#
#
# Mechanical properties :
#
#
# Convention : Reuss Voigt Hill
#
# Bulk Modulus (GPa) = 53.99187 64.52554 59.25871
# Shear Modulus (GPa) = -11.64972 14.22567 1.28797
#
# Velocity S-wave (km/s) = -2.58266 2.85394 0.85874
# Velocity P-wave (km/s) = 4.69253 6.91408 5.90865
#
# Compressibility (1/GPa) = 0.01852131
#
# Stress axis : x y z
#
# Youngs Moduli (GPa) = 70.18367 36.00089 63.42045
#
# Poissons Ratio (x) = 0.12129 0.34277
# Poissons Ratio (y) = 0.23646 0.68887
# Poissons Ratio (z) = 0.37932 0.39104
#
# Static dielectric constant tensor:
#      x y z
#    x 3.221600 0.000000 0.000000 
#    y 0.000000 3.111550 0.000000 
#    z 0.000000 0.000000 5.330300 
# 
# 
# High freq. dielectric constant tensor:
#      x y z
#    x 1.668610 0.000000 0.000000 
#    y 0.000000 1.644720 0.000000 
#    z 0.000000 0.000000 1.674490 
# 
# From -- ./inp_files/26826.got.cif
#   From: 2010.03.12/outbox.cif.g09.slc.cpg/sg65_14_cif.got.tgz:26826.got - 2010.04.10 20:52:16.
