data_PCOD8266536
_publ_section_title
;
Structure prediction by ZEFSAII (Michael W. Deem and Ramdas Pophale) SiO2 
 PCOD8266536
Probable space group: C M M M
;
_chemical_formula_sum "Si O2"
_cell_formula_units_Z 128
_cell_length_a 17.707678
_cell_length_b 22.398897
_cell_length_c 18.281681
_cell_angle_alpha 90.000000
_cell_angle_beta 90.000000
_cell_angle_gamma 90.000000
_cell_volume 7251.108028
_symmetry_space_group_name_H-M "C M M M"
_symmetry_group_IT_number 65
_symmetry_cell_setting 'orthorhombic'
loop_
_space_group_symop_operation_xyz
x,y,z
-x,-y,z
x,-y,-z
-x,y,-z
-x,-y,-z
x,y,-z
-x,y,z
x,-y,z
1/2+x,1/2+y,z
1/2-x,1/2-y,z
1/2+x,1/2-y,-z
1/2-x,1/2+y,-z
1/2-x,1/2-y,-z
1/2+x,1/2+y,-z
1/2-x,1/2+y,z
1/2+x,1/2-y,z
loop_
_atom_site_type_symbol
_atom_site_label
_atom_site_fract_x
_atom_site_fract_y
_atom_site_fract_z
Si Si1 0.313409 0.067812 0.585135
Si Si2 0.089130 0.840355 0.918499
Si Si3 0.702835 0.189253 0.229454
Si Si4 0.912148 0.067136 0.799766
Si Si5 0.086183 0.203793 0.583390
Si Si6 0.669861 0.221473 0.921126
Si Si7 0.814974 0.883555 0.678147
Si Si8 0.086975 0.671567 0.350707
O O1 0.305915 0.080981 0.500000
O O2 0.230526 0.077677 0.619275
O O3 0.375812 0.111635 0.618407
O O4 0.339560 0.000000 0.600472
O O5 0.122446 0.887899 0.860479
O O6 0.112790 0.773756 0.895477
O O7 0.000000 0.844707 0.918447
O O8 0.120669 0.855076 0.000000
O O9 0.750000 0.250000 0.230321
O O10 0.676008 0.174342 0.145855
O O11 0.756026 0.138089 0.260707
O O12 0.626964 0.193856 0.276844
O O13 0.875069 0.075877 0.720290
O O14 0.000000 0.079849 0.788719
O O15 0.897151 0.000000 0.827376
O O16 0.105442 0.186439 0.500000
O O17 0.143590 0.170827 0.637439
O O18 0.096067 0.275077 0.590922
O O19 0.000000 0.185525 0.602814
O O20 0.750000 0.250000 0.935360
O O21 0.643573 0.193039 0.000000
O O22 0.000000 0.657721 0.333309
#
# Coordination Sequence:
#
# PCOD8266536 Si02
#       8
#    16  16  16  16  16  16  16  16
#     4  10  22  38  56  75  96 130 172 212 256 301
#     4   9  18  31  47  68  94 126 163 203 244 285
#     4  10  18  31  48  74 101 134 166 198 242 297
#     4  10  20  32  48  70  96 131 171 207 245 288
#     4  10  20  33  51  76 103 133 165 203 255 307
#     4   9  17  29  46  69  99 132 164 197 237 288
#     4  11  20  34  51  72 103 132 165 210 249 298
#     4  10  21  35  53  78 106 132 162 206 254 304
#
# _framework density 17.652474000000002
#
# number of rings (size 3 to 8) (size 9 to 14) (size 15 to 20)
#    0.000    2.125    1.250    3.000    0.000    1.750 
#    0.000    3.750    0.000    0.000    0.000    5.250 
#    0.000    4.500    0.000    4.500    0.000    0.000 
#
# Total GULP energy -793314.839224 kJ/mol
# GULP energy per Si atom -12395.544363 kJ/mol
# Density = 1.761230 g / cm^3
# Si number density = 17.652474 Si / 1000 Ang^3
#
#
#
# Elastic Constant Matrix: (Units=GPa)
#
#
# Indices 1 2 3 4 5 6 
#
# 1 69.8109 28.6626 49.0849 0.0000 0.0000 0.0000
# 2 28.6626 59.9642 45.3614 0.0000 0.0000 0.0000
# 3 49.0849 45.3614 134.5343 0.0000 0.0000 0.0000
# 4 0.0000 0.0000 0.0000 22.5275 0.0000 0.0000
# 5 0.0000 0.0000 0.0000 0.0000 22.9575 0.0000
# 6 0.0000 0.0000 0.0000 0.0000 0.0000 20.8813
#
#
#
# Elastic Compliance Matrix: (Units=1/GPa)
#
#
# Indices 1 2 3 4 5 6 
#
# 1 0.020569 -0.005577 -0.005624 0.000000 0.000000 0.000000
# 2 -0.005577 0.023899 -0.006023 0.000000 0.000000 0.000000
# 3 -0.005624 -0.006023 0.011516 0.000000 0.000000 0.000000
# 4 0.000000 0.000000 0.000000 0.044390 0.000000 0.000000
# 5 0.000000 0.000000 0.000000 0.000000 0.043559 0.000000
# 6 0.000000 0.000000 0.000000 0.000000 0.000000 0.047890
#
#
# Mechanical properties :
#
#
# Convention : Reuss Voigt Hill
#
# Bulk Modulus (GPa) = 46.43731 56.72526 51.58129
# Shear Modulus (GPa) = 21.41796 22.68664 22.05230
#
# Velocity S-wave (km/s) = 3.48704 3.58883 3.53830
# Velocity P-wave (km/s) = 6.52504 7.02689 6.78061
#
# Compressibility (1/GPa) = 0.02153441
#
# Stress axis : x y z
#
# Youngs Moduli (GPa) = 48.61783 41.84287 86.83722
#
# Poissons Ratio (x) = 0.23337 0.48837
# Poissons Ratio (y) = 0.27116 0.52304
# Poissons Ratio (z) = 0.27342 0.25203
#
# Static dielectric constant tensor:
#      x y z
#    x 3.365180 0.000000 0.000000 
#    y 0.000000 3.205680 0.000000 
#    z 0.000000 0.000000 3.688680 
# 
# 
# High freq. dielectric constant tensor:
#      x y z
#    x 1.680870 0.000000 0.000000 
#    y 0.000000 1.652100 0.000000 
#    z 0.000000 0.000000 1.696780 
# 
# From -- ./inp_files/55126.got.cif
#   From: 2010.03.12/outbox.cif.g09.slc.cpg/sg65_28_cif.got.tgz:55126.got - 2010.04.10 20:52:16.
