data_PCOD8266023
_publ_section_title
;
Structure prediction by ZEFSAII (Michael W. Deem and Ramdas Pophale) SiO2 
 PCOD8266023
Probable space group: C M M M
;
_chemical_formula_sum "Si O2"
_cell_formula_units_Z 120
_cell_length_a 9.637817
_cell_length_b 28.667283
_cell_length_c 28.358926
_cell_angle_alpha 90.000000
_cell_angle_beta 90.000000
_cell_angle_gamma 90.000000
_cell_volume 7835.288443
_symmetry_space_group_name_H-M "C M M M"
_symmetry_group_IT_number 65
_symmetry_cell_setting 'orthorhombic'
loop_
_space_group_symop_operation_xyz
x,y,z
-x,-y,z
x,-y,-z
-x,y,-z
-x,-y,-z
x,y,-z
-x,y,z
x,-y,z
1/2+x,1/2+y,z
1/2-x,1/2-y,z
1/2+x,1/2-y,-z
1/2-x,1/2+y,-z
1/2-x,1/2-y,-z
1/2+x,1/2+y,-z
1/2-x,1/2+y,z
1/2+x,1/2-y,z
loop_
_atom_site_type_symbol
_atom_site_label
_atom_site_fract_x
_atom_site_fract_y
_atom_site_fract_z
Si Si1 0.166210 0.947373 0.398866
Si Si2 0.651895 0.444676 0.500000
Si Si3 0.334739 0.552594 0.219757
Si Si4 0.664826 0.392284 0.690477
Si Si5 0.840991 0.793104 0.834839
Si Si6 0.162934 0.106890 0.127918
Si Si7 0.339333 0.293523 0.274510
Si Si8 0.340609 0.053169 0.945040
O O1 0.226798 0.930783 0.450373
O O2 0.224155 0.912875 0.358549
O O3 0.000000 0.946157 0.401162
O O4 0.215294 0.000000 0.386935
O O5 0.634856 0.500000 0.500000
O O6 0.500000 0.421138 0.500000
O O7 0.500000 0.553792 0.221091
O O8 0.277801 0.500000 0.218805
O O9 0.273755 0.578018 0.265996
O O10 0.281285 0.578988 0.173356
O O11 0.500000 0.396629 0.691595
O O12 0.708966 0.338410 0.695505
O O13 0.750000 0.750000 0.853293
O O14 0.804112 0.838503 0.865385
O O15 0.810117 0.804508 0.780241
O O16 0.000000 0.778680 0.841595
O O17 0.243127 0.089017 0.082294
O O18 0.000000 0.098316 0.120528
O O19 0.500000 0.281882 0.283048
O O20 0.250000 0.250000 0.292608
O O21 0.500000 0.062453 0.931322
O O22 0.299761 0.000000 0.932295
O O23 0.316892 0.062340 0.000000
#
# Coordination Sequence:
#
# PCOD8266023 Si02
#       8
#    16   8  16  16  16  16  16  16
#     4   8  12  17  27  45  71 104 138 169 204 246
#     4   7  10  16  24  38  65 100 137 173 203 237
#     4   9  15  22  34  55  83 109 130 157 199 249
#     4   9  14  21  33  51  76 106 136 166 201 246
#     4   9  17  29  44  63  88 113 140 175 213 252
#     4  10  18  29  46  69  91 111 139 177 216 250
#     4   9  16  27  41  57  80 107 138 174 207 242
#     4   9  19  35  51  67  90 119 148 176 205 242
#
# _framework density 15.315326000000001
#
# number of rings (size 3 to 8) (size 9 to 14) (size 15 to 20)
#    0.000    3.133    1.333    2.000    0.000    3.200 
#    0.000    0.667    0.000    0.400    0.000    0.467 
#    0.000    1.600    0.000    0.000    0.000    3.867 
#
# Total GULP energy -743624.453152 kJ/mol
# GULP energy per Si atom -12393.740886 kJ/mol
# Density = 1.528047 g / cm^3
# Si number density = 15.315326 Si / 1000 Ang^3
#
#
#
# Elastic Constant Matrix: (Units=GPa)
#
#
# Indices 1 2 3 4 5 6 
#
# 1 31.8877 42.6285 32.7449 0.0000 0.0000 0.0000
# 2 42.6285 121.7872 64.7882 0.0000 0.0000 0.0000
# 3 32.7449 64.7882 99.4624 0.0000 0.0000 0.0000
# 4 0.0000 0.0000 0.0000 17.9456 0.0000 0.0000
# 5 0.0000 0.0000 0.0000 0.0000 6.8056 0.0000
# 6 0.0000 0.0000 0.0000 0.0000 0.0000 20.7311
#
#
#
# Elastic Compliance Matrix: (Units=1/GPa)
#
#
# Indices 1 2 3 4 5 6 
#
# 1 0.064904 -0.017370 -0.010053 0.000000 0.000000 0.000000
# 2 -0.017370 0.017214 -0.005494 0.000000 0.000000 0.000000
# 3 -0.010053 -0.005494 0.016943 0.000000 0.000000 0.000000
# 4 0.000000 0.000000 0.000000 0.055724 0.000000 0.000000
# 5 0.000000 0.000000 0.000000 0.000000 0.146937 0.000000
# 6 0.000000 0.000000 0.000000 0.000000 0.000000 0.048237
#
#
# Mechanical properties :
#
#
# Convention : Reuss Voigt Hill
#
# Bulk Modulus (GPa) = 30.09702 59.27337 44.68519
# Shear Modulus (GPa) = 11.71320 16.62818 14.17069
#
# Velocity S-wave (km/s) = 2.76851 3.29860 3.04511
# Velocity P-wave (km/s) = 5.46934 7.30026 6.45010
#
# Compressibility (1/GPa) = 0.03322589
#
# Stress axis : x y z
#
# Youngs Moduli (GPa) = 15.40727 58.09280 59.02282
#
# Poissons Ratio (x) = 1.00908 0.59336
# Poissons Ratio (y) = 0.26763 0.32429
# Poissons Ratio (z) = 0.15489 0.31918
#
# Static dielectric constant tensor:
#      x y z
#    x 2.493510 0.000000 0.000000 
#    y 0.000000 2.951620 0.000000 
#    z 0.000000 0.000000 3.066090 
# 
# 
# High freq. dielectric constant tensor:
#      x y z
#    x 1.536300 0.000000 0.000000 
#    y 0.000000 1.581340 0.000000 
#    z 0.000000 0.000000 1.580770 
# 
# From -- ./inp_files/69396.got.cif
#   From: 2010.03.12/outbox.cif.g09.slc.cpg/sg65_35_cif.got.tgz:69396.got - 2010.04.10 20:52:16.
