data_PCOD8266980
_publ_section_title
;
Structure prediction by ZEFSAII (Michael W. Deem and Ramdas Pophale) SiO2 
 PCOD8266980
Probable space group: C M M M
;
_chemical_formula_sum "Si O2"
_cell_formula_units_Z 88
_cell_length_a 23.124896
_cell_length_b 9.278766
_cell_length_c 22.593635
_cell_angle_alpha 90.000000
_cell_angle_beta 90.000000
_cell_angle_gamma 90.000000
_cell_volume 4847.927531
_symmetry_space_group_name_H-M "C M M M"
_symmetry_group_IT_number 65
_symmetry_cell_setting 'orthorhombic'
loop_
_space_group_symop_operation_xyz
x,y,z
-x,-y,z
x,-y,-z
-x,y,-z
-x,-y,-z
x,y,-z
-x,y,z
x,-y,z
1/2+x,1/2+y,z
1/2-x,1/2-y,z
1/2+x,1/2-y,-z
1/2-x,1/2+y,-z
1/2-x,1/2-y,-z
1/2+x,1/2+y,-z
1/2-x,1/2+y,z
1/2+x,1/2-y,z
loop_
_atom_site_type_symbol
_atom_site_label
_atom_site_fract_x
_atom_site_fract_y
_atom_site_fract_z
Si Si1 0.000000 0.171928 0.635623
Si Si2 0.386008 0.834840 0.170505
Si Si3 0.113438 0.668453 0.611345
Si Si4 0.565609 0.331313 0.067081
Si Si5 0.309459 0.832486 0.500000
Si Si6 0.808865 0.668601 0.722796
Si Si7 0.000000 0.663509 0.244857
O O1 0.943711 0.236003 0.603437
O O2 0.000000 0.220896 0.703434
O O3 0.000000 0.000000 0.631235
O O4 0.388147 0.743848 0.110226
O O5 0.333401 0.784972 0.212860
O O6 0.444716 0.808762 0.205331
O O7 0.378252 0.000000 0.152307
O O8 0.096659 0.500000 0.609339
O O9 0.155290 0.711754 0.558079
O O10 0.143978 0.708400 0.673220
O O11 0.500000 0.276142 0.078628
O O12 0.568556 0.500000 0.078756
O O13 0.583784 0.294386 0.000000
O O14 0.250000 0.750000 0.500000
O O15 0.294859 0.000000 0.500000
O O16 0.795617 0.500000 0.720704
O O17 0.750000 0.750000 0.709109
O O18 0.000000 0.500000 0.270899
#
# Coordination Sequence:
#
# PCOD8266980 Si02
#       7
#     8  16  16  16   8  16   8
#     4  12  24  35  55  87 114 144 183 227 277 324
#     4  10  19  32  53  78 104 141 178 216 267 319
#     4  10  21  40  60  81 113 150 182 220 274 336
#     4   9  18  31  47  73 110 144 172 212 266 318
#     4  10  22  39  64  87 109 150 194 230 275 324
#     4  10  21  36  55  78 107 140 178 225 272 317
#     4  10  18  34  54  76 112 147 174 216 273 334
#
# _framework density 18.152087000000002
#
# number of rings (size 3 to 8) (size 9 to 14) (size 15 to 20)
#    0.000    2.000    2.727    1.909    0.000    3.636 
#    0.000    2.727    0.000    0.545    0.000    0.000 
#    0.000    0.000    0.000    0.000    0.000    0.000 
#
# Total GULP energy -545646.205974 kJ/mol
# GULP energy per Si atom -12401.050136 kJ/mol
# Density = 1.811077 g / cm^3
# Si number density = 18.152087 Si / 1000 Ang^3
#
#
#
# Elastic Constant Matrix: (Units=GPa)
#
#
# Indices 1 2 3 4 5 6 
#
# 1 112.3422 60.7913 45.5219 0.0000 0.0000 0.0000
# 2 60.7913 77.6808 53.5975 0.0000 0.0000 0.0000
# 3 45.5219 53.5975 120.8312 0.0000 0.0000 0.0000
# 4 0.0000 0.0000 0.0000 25.5421 0.0000 0.0000
# 5 0.0000 0.0000 0.0000 0.0000 770.7104 0.0000
# 6 0.0000 0.0000 0.0000 0.0000 0.0000 33.3441
#
#
#
# Elastic Compliance Matrix: (Units=1/GPa)
#
#
# Indices 1 2 3 4 5 6 
#
# 1 0.015476 -0.011656 -0.000660 0.000000 0.000000 0.000000
# 2 -0.011656 0.027329 -0.007731 0.000000 0.000000 0.000000
# 3 -0.000660 -0.007731 0.011954 0.000000 0.000000 0.000000
# 4 0.000000 0.000000 0.000000 0.039151 0.000000 0.000000
# 5 0.000000 0.000000 0.000000 0.000000 0.001298 0.000000
# 6 0.000000 0.000000 0.000000 0.000000 0.000000 0.029990
#
#
# Mechanical properties :
#
#
# Convention : Reuss Voigt Hill
#
# Bulk Modulus (GPa) = 68.19061 70.07507 69.13284
# Shear Modulus (GPa) = 29.38046 175.98222 102.68134
#
# Velocity S-wave (km/s) = 4.02751 9.85694 7.52928
# Velocity P-wave (km/s) = 7.69907 12.97050 10.66559
#
# Compressibility (1/GPa) = 0.01466478
#
# Stress axis : x y z
#
# Youngs Moduli (GPa) = 64.61552 36.59107 83.65280
#
# Poissons Ratio (x) = 0.42649 0.05524
# Poissons Ratio (y) = 0.75314 0.64674
# Poissons Ratio (z) = 0.04267 0.28290
#
# Static dielectric constant tensor:
#      x y z
#    x 3.269640 0.000000 0.000000 
#    y 0.000000 3.221150 0.000000 
#    z 0.000000 0.000000 3.433940 
# 
# 
# High freq. dielectric constant tensor:
#      x y z
#    x 1.692110 0.000000 0.000000 
#    y 0.000000 1.692080 0.000000 
#    z 0.000000 0.000000 1.708530 
# 
# From -- ./inp_files/71113.got.cif
#   From: 2010.03.12/outbox.cif.g09.slc.cpg/sg65_36_cif.got.tgz:71113.got - 2010.04.10 20:52:16.
