data_PCOD8266393
_publ_section_title
;
Structure prediction by ZEFSAII (Michael W. Deem and Ramdas Pophale) SiO2 
 PCOD8266393
Probable space group: C M M M
;
_chemical_formula_sum "Si O2"
_cell_formula_units_Z 80
_cell_length_a 25.504276
_cell_length_b 11.881925
_cell_length_c 16.248021
_cell_angle_alpha 90.000000
_cell_angle_beta 90.000000
_cell_angle_gamma 90.000000
_cell_volume 4923.798571
_symmetry_space_group_name_H-M "C M M M"
_symmetry_group_IT_number 65
_symmetry_cell_setting 'orthorhombic'
loop_
_space_group_symop_operation_xyz
x,y,z
-x,-y,z
x,-y,-z
-x,y,-z
-x,-y,-z
x,y,-z
-x,y,z
x,-y,z
1/2+x,1/2+y,z
1/2-x,1/2-y,z
1/2+x,1/2-y,-z
1/2-x,1/2+y,-z
1/2-x,1/2-y,-z
1/2+x,1/2+y,-z
1/2-x,1/2+y,z
1/2+x,1/2-y,z
loop_
_atom_site_type_symbol
_atom_site_label
_atom_site_fract_x
_atom_site_fract_y
_atom_site_fract_z
Si Si1 0.440757 0.500000 0.273305
Si Si2 0.561159 0.721391 0.828125
Si Si3 0.397876 0.133595 0.691838
Si Si4 0.562385 0.371957 0.000000
Si Si5 0.000000 0.366388 0.407260
Si Si6 0.809894 0.237480 0.404304
Si Si7 0.856699 0.000000 0.406659
O O1 0.500000 0.500000 0.302175
O O2 0.427008 0.607532 0.219754
O O3 0.409697 0.500000 0.356973
O O4 0.500000 0.754599 0.827064
O O5 0.594731 0.820411 0.784930
O O6 0.581222 0.699758 0.920996
O O7 0.448016 0.177043 0.639171
O O8 0.345355 0.180107 0.650305
O O9 0.394251 0.000000 0.695144
O O10 0.585369 0.500000 0.000000
O O11 0.500000 0.383057 0.000000
O O12 0.000000 0.500000 0.409025
O O13 0.000000 0.317651 0.500000
O O14 0.818286 0.269453 0.500000
O O15 0.750000 0.250000 0.377301
O O16 0.822525 0.108494 0.385316
O O17 0.875113 0.000000 0.500000
#
# Coordination Sequence:
#
# PCOD8266393 Si02
#       7
#     8  16  16   8   8  16   8
#     4  10  18  30  50  74 105 139 167 205 257 303
#     4  10  18  31  50  75 106 136 170 212 255 304
#     4  11  21  33  51  74 104 141 176 211 258 312
#     4   9  16  28  49  77 102 135 175 211 252 310
#     4   9  18  32  48  68  97 136 180 214 242 294
#     4  10  22  37  53  73 100 136 179 225 262 298
#     4  10  20  35  51  73 104 135 173 217 260 302
#
# _framework density 16.247617999999999
#
# number of rings (size 3 to 8) (size 9 to 14) (size 15 to 20)
#    0.000    2.000    4.000    0.600    1.400    1.400 
#    0.000    0.500    0.000    1.800    0.000    0.700 
#    0.000    0.000    0.000    0.000    0.000    0.000 
#
# Total GULP energy -495997.664534 kJ/mol
# GULP energy per Si atom -12399.941613 kJ/mol
# Density = 1.621064 g / cm^3
# Si number density = 16.247618 Si / 1000 Ang^3
#
#
#
# Elastic Constant Matrix: (Units=GPa)
#
#
# Indices 1 2 3 4 5 6 
#
# 1 90.3522 46.0385 61.3019 0.0000 0.0000 0.0000
# 2 46.0385 99.3602 58.3649 0.0000 0.0000 0.0000
# 3 61.3019 58.3649 120.9434 0.0000 0.0000 0.0000
# 4 0.0000 0.0000 0.0000 33.5029 0.0000 0.0000
# 5 0.0000 0.0000 0.0000 0.0000 15.5144 0.0000
# 6 0.0000 0.0000 0.0000 0.0000 0.0000 31.9396
#
#
#
# Elastic Compliance Matrix: (Units=1/GPa)
#
#
# Indices 1 2 3 4 5 6 
#
# 1 0.018025 -0.004166 -0.007126 0.000000 0.000000 0.000000
# 2 -0.004166 0.015009 -0.005131 0.000000 0.000000 0.000000
# 3 -0.007126 -0.005131 0.014356 0.000000 0.000000 0.000000
# 4 0.000000 0.000000 0.000000 0.029848 0.000000 0.000000
# 5 0.000000 0.000000 0.000000 0.000000 0.064456 0.000000
# 6 0.000000 0.000000 0.000000 0.000000 0.000000 0.031309
#
#
# Mechanical properties :
#
#
# Convention : Reuss Voigt Hill
#
# Bulk Modulus (GPa) = 68.75710 71.34070 70.04890
# Shear Modulus (GPa) = 23.73047 25.85475 24.79261
#
# Velocity S-wave (km/s) = 3.82586 3.99343 3.91054
# Velocity P-wave (km/s) = 7.86933 8.07880 7.97476
#
# Compressibility (1/GPa) = 0.01454395
#
# Stress axis : x y z
#
# Youngs Moduli (GPa) = 55.47704 66.62673 69.65507
#
# Poissons Ratio (x) = 0.27759 0.49636
# Poissons Ratio (y) = 0.23113 0.35742
# Poissons Ratio (z) = 0.39532 0.34188
#
# Static dielectric constant tensor:
#      x y z
#    x 2.875340 0.000000 0.000000 
#    y 0.000000 3.096180 0.000000 
#    z 0.000000 0.000000 3.200040 
# 
# 
# High freq. dielectric constant tensor:
#      x y z
#    x 1.595940 0.000000 0.000000 
#    y 0.000000 1.629060 0.000000 
#    z 0.000000 0.000000 1.618990 
# 
# From -- ./inp_files/55635.got.cif
#   From: 2010.03.12/outbox.cif.g09.slc.cpg/sg65_28_cif.got.tgz:55635.got - 2010.04.10 20:52:16.
