data_PCOD8266651
_publ_section_title
;
Structure prediction by ZEFSAII (Michael W. Deem and Ramdas Pophale) SiO2 
 PCOD8266651
Probable space group: C M M M
;
_chemical_formula_sum "Si O2"
_cell_formula_units_Z 100
_cell_length_a 20.695177
_cell_length_b 8.619735
_cell_length_c 27.157445
_cell_angle_alpha 90.000000
_cell_angle_beta 90.000000
_cell_angle_gamma 90.000000
_cell_volume 4844.533553
_symmetry_space_group_name_H-M "C M M M"
_symmetry_group_IT_number 65
_symmetry_cell_setting 'orthorhombic'
loop_
_space_group_symop_operation_xyz
x,y,z
-x,-y,z
x,-y,-z
-x,y,-z
-x,-y,-z
x,y,-z
-x,y,z
x,-y,z
1/2+x,1/2+y,z
1/2-x,1/2-y,z
1/2+x,1/2-y,-z
1/2-x,1/2+y,-z
1/2-x,1/2-y,-z
1/2+x,1/2+y,-z
1/2-x,1/2+y,z
1/2+x,1/2-y,z
loop_
_atom_site_type_symbol
_atom_site_label
_atom_site_fract_x
_atom_site_fract_y
_atom_site_fract_z
Si Si1 0.000000 0.686480 0.896551
Si Si2 0.859265 0.335162 0.000000
Si Si3 0.574215 0.681222 0.738583
Si Si4 0.071112 0.816029 0.626433
Si Si5 0.682229 0.683833 0.444075
Si Si6 0.685431 0.817836 0.803036
Si Si7 0.632677 0.317549 0.103866
Si Si8 0.000000 0.292643 0.000000
O O1 0.067116 0.739218 0.872598
O O2 0.000000 0.500000 0.905224
O O3 0.000000 0.793520 0.947474
O O4 0.844552 0.239115 0.049687
O O5 0.933819 0.389541 0.000000
O O6 0.679708 0.000000 0.000000
O O7 0.500000 0.718861 0.753266
O O8 0.588587 0.500000 0.746571
O O9 0.587085 0.731392 0.682294
O O10 0.621988 0.781018 0.771589
O O11 0.125016 0.746404 0.589784
O O12 0.000000 0.751749 0.611555
O O13 0.070019 0.000000 0.622202
O O14 0.669465 0.738801 0.500000
O O15 0.684740 0.500000 0.440331
O O16 0.750000 0.750000 0.424492
O O17 0.750000 0.750000 0.776553
O O18 0.685231 0.734359 0.856434
O O19 0.690986 0.000000 0.810158
O O20 0.624045 0.500000 0.102277
#
# Coordination Sequence:
#
# PCOD8266651 Si02
#       8
#     8   8  16  16  16  16  16   4
#     4  10  18  31  52  81 113 149 188 229 275 326
#     4  10  18  33  55  82 115 152 190 232 281 335
#     4   9  19  38  63  88 116 149 189 237 293 355
#     4   8  15  30  53  81 111 144 185 237 290 339
#     4   9  17  29  47  74 110 152 197 241 286 338
#     4  12  26  44  63  85 116 151 191 239 292 350
#     4  11  22  37  58  86 117 151 191 234 285 344
#     4   8  13  24  45  72 107 142 177 220 263 306
#
# _framework density 20.641821
#
# number of rings (size 3 to 8) (size 9 to 14) (size 15 to 20)
#    0.000    2.240    0.000    6.000    1.120    1.280 
#    0.000    6.800    0.000    1.440    0.000    2.240 
#    0.000    0.000    0.000    0.000    0.000    0.000 
#
# Total GULP energy -619427.526493 kJ/mol
# GULP energy per Si atom -12388.550530 kJ/mol
# Density = 2.059484 g / cm^3
# Si number density = 20.641821 Si / 1000 Ang^3
#
#
#
# Elastic Constant Matrix: (Units=GPa)
#
#
# Indices 1 2 3 4 5 6 
#
# 1 119.8752 36.9907 70.0402 0.0000 0.0000 0.0000
# 2 36.9907 98.0686 33.8250 0.0000 0.0000 0.0000
# 3 70.0402 33.8250 103.1481 0.0000 0.0000 0.0000
# 4 0.0000 0.0000 0.0000 18.6901 0.0000 0.0000
# 5 0.0000 0.0000 0.0000 0.0000 20.1873 0.0000
# 6 0.0000 0.0000 0.0000 0.0000 0.0000 28.4576
#
#
#
# Elastic Compliance Matrix: (Units=1/GPa)
#
#
# Indices 1 2 3 4 5 6 
#
# 1 0.014274 -0.002301 -0.008938 0.000000 0.000000 0.000000
# 2 -0.002301 0.011868 -0.002329 0.000000 0.000000 0.000000
# 3 -0.008938 -0.002329 0.016528 0.000000 0.000000 0.000000
# 4 0.000000 0.000000 0.000000 0.053504 0.000000 0.000000
# 5 0.000000 0.000000 0.000000 0.000000 0.049536 0.000000
# 6 0.000000 0.000000 0.000000 0.000000 0.000000 0.035140
#
#
# Mechanical properties :
#
#
# Convention : Reuss Voigt Hill
#
# Bulk Modulus (GPa) = 64.37797 66.97820 65.67808
# Shear Modulus (GPa) = 23.45587 25.48272 24.46930
#
# Velocity S-wave (km/s) = 3.37460 3.51738 3.44673
# Velocity P-wave (km/s) = 6.81467 7.00102 6.90847
#
# Compressibility (1/GPa) = 0.01553327
#
# Stress axis : x y z
#
# Youngs Moduli (GPa) = 70.05531 84.25742 60.50421
#
# Poissons Ratio (x) = 0.19391 0.54079
# Poissons Ratio (y) = 0.16122 0.14093
# Poissons Ratio (z) = 0.62616 0.19626
#
# Static dielectric constant tensor:
#      x y z
#    x 4.032630 0.000000 0.000000 
#    y 0.000000 3.347910 0.000000 
#    z 0.000000 0.000000 3.801530 
# 
# 
# High freq. dielectric constant tensor:
#      x y z
#    x 1.812340 0.000000 0.000000 
#    y 0.000000 1.783340 0.000000 
#    z 0.000000 0.000000 1.800540 
# 
# From -- ./inp_files/75572.got.cif
#   From: 2010.03.12/outbox.cif.g09.slc.cpg/sg65_38_cif.got.tgz:75572.got - 2010.04.10 20:52:16.
