data_PCOD8266526
_publ_section_title
;
Structure prediction by ZEFSAII (Michael W. Deem and Ramdas Pophale) SiO2 
 PCOD8266526
Probable space group: C M M M
;
_chemical_formula_sum "Si O2"
_cell_formula_units_Z 80
_cell_length_a 29.146367
_cell_length_b 7.872174
_cell_length_c 22.516356
_cell_angle_alpha 90.000000
_cell_angle_beta 90.000000
_cell_angle_gamma 90.000000
_cell_volume 5166.271438
_symmetry_space_group_name_H-M "C M M M"
_symmetry_group_IT_number 65
_symmetry_cell_setting 'orthorhombic'
loop_
_space_group_symop_operation_xyz
x,y,z
-x,-y,z
x,-y,-z
-x,y,-z
-x,-y,-z
x,y,-z
-x,y,z
x,-y,z
1/2+x,1/2+y,z
1/2-x,1/2-y,z
1/2+x,1/2-y,-z
1/2-x,1/2+y,-z
1/2-x,1/2-y,-z
1/2+x,1/2+y,-z
1/2-x,1/2+y,z
1/2+x,1/2-y,z
loop_
_atom_site_type_symbol
_atom_site_label
_atom_site_fract_x
_atom_site_fract_y
_atom_site_fract_z
Si Si1 0.701353 0.700186 0.933371
Si Si2 0.449035 0.701002 0.777052
Si Si3 0.945252 0.500000 0.432914
Si Si4 0.946927 0.300375 0.000000
Si Si5 0.554669 0.689441 0.354804
Si Si6 0.607776 0.697216 0.885337
O O1 0.695985 0.500000 0.936512
O O2 0.750000 0.750000 0.903203
O O3 0.658449 0.777718 0.896454
O O4 0.699572 0.777611 0.000000
O O5 0.500000 0.780008 0.785201
O O6 0.452625 0.500000 0.784867
O O7 0.429324 0.743003 0.711492
O O8 0.415627 0.781964 0.827129
O O9 0.926549 0.500000 0.500000
O O10 0.926342 0.670127 0.400756
O O11 0.000000 0.500000 0.431569
O O12 0.924206 0.221032 0.057920
O O13 0.939438 0.500000 0.000000
O O14 0.000000 0.248946 0.000000
O O15 0.500000 0.684819 0.355561
O O16 0.573133 0.500000 0.371690
O O17 0.613841 0.500000 0.872432
#
# Coordination Sequence:
#
# PCOD8266526 Si02
#       6
#    16  16   8   8  16  16
#     4   9  17  29  44  61  77  96 125 164 209 253
#     4   8  14  25  42  60  76  99 132 169 204 239
#     4   9  16  24  36  56  78 103 139 175 203 232
#     4  11  23  33  38  55  86 107 124 163 218 259
#     4   8  14  25  38  53  76 104 134 169 205 239
#     4  10  18  31  48  62  74  98 139 174 203 250
#
# _framework density 15.485056
#
# number of rings (size 3 to 8) (size 9 to 14) (size 15 to 20)
#    0.000    3.000    1.000    2.100    0.000    2.800 
#    1.800    2.000    0.000    0.000    0.000    0.000 
#    0.000    0.000    0.000    0.000    0.000    1.000 
#
# Total GULP energy -495673.580960 kJ/mol
# GULP energy per Si atom -12391.839524 kJ/mol
# Density = 1.544981 g / cm^3
# Si number density = 15.485056 Si / 1000 Ang^3
#
#
#
# Elastic Constant Matrix: (Units=GPa)
#
#
# Indices 1 2 3 4 5 6 
#
# 1 88.2910 15.5911 44.0712 0.0000 0.0000 0.0000
# 2 15.5911 44.6260 37.2182 0.0000 0.0000 0.0000
# 3 44.0712 37.2182 125.7697 0.0000 0.0000 0.0000
# 4 0.0000 0.0000 0.0000 12.6669 0.0000 0.0000
# 5 0.0000 0.0000 0.0000 0.0000 4.4587 0.0000
# 6 0.0000 0.0000 0.0000 0.0000 0.0000 11.5792
#
#
#
# Elastic Compliance Matrix: (Units=1/GPa)
#
#
# Indices 1 2 3 4 5 6 
#
# 1 0.013764 -0.001044 -0.004514 0.000000 0.000000 0.000000
# 2 -0.001044 0.029830 -0.008462 0.000000 0.000000 0.000000
# 3 -0.004514 -0.008462 0.012037 0.000000 0.000000 0.000000
# 4 0.000000 0.000000 0.000000 0.078946 0.000000 0.000000
# 5 0.000000 0.000000 0.000000 0.000000 0.224279 0.000000
# 6 0.000000 0.000000 0.000000 0.000000 0.000000 0.086361
#
#
# Mechanical properties :
#
#
# Convention : Reuss Voigt Hill
#
# Bulk Modulus (GPa) = 36.24301 50.27194 43.25748
# Shear Modulus (GPa) = 10.36369 16.52806 13.44587
#
# Velocity S-wave (km/s) = 2.58983 3.27059 2.94991
# Velocity P-wave (km/s) = 5.69201 6.84088 6.29272
#
# Compressibility (1/GPa) = 0.02759152
#
# Stress axis : x y z
#
# Youngs Moduli (GPa) = 72.65457 33.52303 83.07845
#
# Poissons Ratio (x) = 0.03500 0.37502
# Poissons Ratio (y) = 0.07585 0.70298
# Poissons Ratio (z) = 0.32797 0.28366
#
# Static dielectric constant tensor:
#      x y z
#    x 2.973230 0.000000 0.000000 
#    y 0.000000 2.920810 0.000000 
#    z 0.000000 0.000000 3.082930 
# 
# 
# High freq. dielectric constant tensor:
#      x y z
#    x 1.548230 0.000000 0.000000 
#    y 0.000000 1.588450 0.000000 
#    z 0.000000 0.000000 1.576100 
# 
# From -- ./inp_files/66163.got.cif
#   From: 2010.03.12/outbox.cif.g09.slc.cpg/sg65_34_cif.got.tgz:66163.got - 2010.04.10 20:52:16.
