data_PCOD8266666
_publ_section_title
;
Structure prediction by ZEFSAII (Michael W. Deem and Ramdas Pophale) SiO2 
 PCOD8266666
Probable space group: C M M M
;
_chemical_formula_sum "Si O2"
_cell_formula_units_Z 96
_cell_length_a 25.580839
_cell_length_b 9.009131
_cell_length_c 23.472235
_cell_angle_alpha 90.000000
_cell_angle_beta 90.000000
_cell_angle_gamma 90.000000
_cell_volume 5409.437793
_symmetry_space_group_name_H-M "C M M M"
_symmetry_group_IT_number 65
_symmetry_cell_setting 'orthorhombic'
loop_
_space_group_symop_operation_xyz
x,y,z
-x,-y,z
x,-y,-z
-x,y,-z
-x,-y,-z
x,y,-z
-x,y,z
x,-y,z
1/2+x,1/2+y,z
1/2-x,1/2-y,z
1/2+x,1/2-y,-z
1/2-x,1/2+y,-z
1/2-x,1/2-y,-z
1/2+x,1/2+y,-z
1/2-x,1/2+y,z
1/2+x,1/2-y,z
loop_
_atom_site_type_symbol
_atom_site_label
_atom_site_fract_x
_atom_site_fract_y
_atom_site_fract_z
Si Si1 0.500000 0.331177 0.932784
Si Si2 0.594206 0.824380 0.128155
Si Si3 0.195539 0.825691 0.434625
Si Si4 0.441314 0.175576 0.749355
Si Si5 0.500000 0.823827 0.436477
Si Si6 0.197332 0.325727 0.935102
Si Si7 0.601971 0.176089 0.369900
O O1 0.500000 0.500000 0.911205
O O2 0.551128 0.250515 0.910595
O O3 0.500000 0.320867 0.000000
O O4 0.587854 0.771277 0.193428
O O5 0.650574 0.772182 0.105636
O O6 0.587097 0.000000 0.122296
O O7 0.180421 0.789615 0.500000
O O8 0.250000 0.750000 0.418372
O O9 0.152277 0.759487 0.393118
O O10 0.200811 0.000000 0.424231
O O11 0.500000 0.243876 0.746987
O O12 0.406885 0.226144 0.695431
O O13 0.446800 0.000000 0.748175
O O14 0.500000 0.757502 0.500000
O O15 0.448388 0.767319 0.404681
O O16 0.500000 0.000000 0.437182
O O17 0.205452 0.500000 0.931189
O O18 0.250000 0.250000 0.912490
O O19 0.185017 0.276482 0.000000
O O20 0.610089 0.000000 0.376166
#
# Coordination Sequence:
#
# PCOD8266666 Si02
#       7
#     8  16  16  16   8  16  16
#     4  11  23  34  47  75 111 139 168 217 278 325
#     4  10  19  34  56  77 101 137 181 219 255 311
#     4  10  21  37  56  78 105 138 177 221 270 320
#     4   9  16  30  53  79 104 137 177 214 252 299
#     4   9  16  25  43  73 103 131 166 205 244 296
#     4   9  18  32  51  75 100 130 169 211 258 309
#     4  10  18  31  53  79 107 138 175 214 256 310
#
# _framework density 17.746760999999999
#
# number of rings (size 3 to 8) (size 9 to 14) (size 15 to 20)
#    0.000    2.333    1.667    1.750    0.000    3.667 
#    0.000    3.750    0.000    3.500    0.000    0.000 
#    0.000    0.000    0.000    0.000    0.000    0.000 
#
# Total GULP energy -595217.238521 kJ/mol
# GULP energy per Si atom -12400.359136 kJ/mol
# Density = 1.770637 g / cm^3
# Si number density = 17.746761 Si / 1000 Ang^3
#
#
#
# Elastic Constant Matrix: (Units=GPa)
#
#
# Indices 1 2 3 4 5 6 
#
# 1 171.0158 48.6642 89.1641 0.0000 0.0000 0.0000
# 2 48.6642 41.6087 33.3640 0.0000 0.0000 0.0000
# 3 89.1641 33.3640 126.9360 0.0000 0.0000 0.0000
# 4 0.0000 0.0000 0.0000 17.4779 0.0000 0.0000
# 5 0.0000 0.0000 0.0000 0.0000 14.8745 0.0000
# 6 0.0000 0.0000 0.0000 0.0000 0.0000 28.4482
#
#
#
# Elastic Compliance Matrix: (Units=1/GPa)
#
#
# Indices 1 2 3 4 5 6 
#
# 1 0.011236 -0.008632 -0.005624 0.000000 0.000000 0.000000
# 2 -0.008632 0.037082 -0.003684 0.000000 0.000000 0.000000
# 3 -0.005624 -0.003684 0.012796 0.000000 0.000000 0.000000
# 4 0.000000 0.000000 0.000000 0.057215 0.000000 0.000000
# 5 0.000000 0.000000 0.000000 0.000000 0.067229 0.000000
# 6 0.000000 0.000000 0.000000 0.000000 0.000000 0.035152
#
#
# Mechanical properties :
#
#
# Convention : Reuss Voigt Hill
#
# Bulk Modulus (GPa) = 39.62461 75.77167 57.69814
# Shear Modulus (GPa) = 18.86790 23.38465 21.12627
#
# Velocity S-wave (km/s) = 3.26417 3.63393 3.45400
# Velocity P-wave (km/s) = 6.04836 7.77149 6.96343
#
# Compressibility (1/GPa) = 0.02523684
#
# Stress axis : x y z
#
# Youngs Moduli (GPa) = 89.00279 26.96693 78.14719
#
# Poissons Ratio (x) = 0.23277 0.43946
# Poissons Ratio (y) = 0.76823 0.28787
# Poissons Ratio (z) = 0.50051 0.09934
#
# Static dielectric constant tensor:
#      x y z
#    x 3.656820 0.000000 0.000000 
#    y 0.000000 3.036270 0.000000 
#    z 0.000000 0.000000 3.525650 
# 
# 
# High freq. dielectric constant tensor:
#      x y z
#    x 1.691350 0.000000 0.000000 
#    y 0.000000 1.658330 0.000000 
#    z 0.000000 0.000000 1.690430 
# 
# From -- ./inp_files/71457.got.cif
#   From: 2010.03.12/outbox.cif.g09.slc.cpg/sg65_36_cif.got.tgz:71457.got - 2010.04.10 20:52:16.
