data_PCOD8266213
_publ_section_title
;
Structure prediction by ZEFSAII (Michael W. Deem and Ramdas Pophale) SiO2 
 PCOD8266213
Probable space group: C M M M
;
_chemical_formula_sum "Si O2"
_cell_formula_units_Z 104
_cell_length_a 27.233687
_cell_length_b 8.967617
_cell_length_c 26.747940
_cell_angle_alpha 90.000000
_cell_angle_beta 90.000000
_cell_angle_gamma 90.000000
_cell_volume 6532.415997
_symmetry_space_group_name_H-M "C M M M"
_symmetry_group_IT_number 65
_symmetry_cell_setting 'orthorhombic'
loop_
_space_group_symop_operation_xyz
x,y,z
-x,-y,z
x,-y,-z
-x,y,-z
-x,-y,-z
x,y,-z
-x,y,z
x,-y,z
1/2+x,1/2+y,z
1/2-x,1/2-y,z
1/2+x,1/2-y,-z
1/2-x,1/2+y,-z
1/2-x,1/2-y,-z
1/2+x,1/2+y,-z
1/2-x,1/2+y,z
1/2+x,1/2-y,z
loop_
_atom_site_type_symbol
_atom_site_label
_atom_site_fract_x
_atom_site_fract_y
_atom_site_fract_z
Si Si1 0.944494 0.826017 0.657570
Si Si2 0.555341 0.824678 0.151909
Si Si3 0.393181 0.823203 0.747033
Si Si4 0.558316 0.669055 0.054377
Si Si5 0.851148 0.825053 0.600524
Si Si6 0.196741 0.178945 0.500000
Si Si7 0.198704 0.177148 0.298262
O O1 0.933290 0.730448 0.706746
O O2 0.907352 0.777328 0.612985
O O3 0.000000 0.794884 0.639617
O O4 0.936061 0.000000 0.670695
O O5 0.500000 0.762309 0.159328
O O6 0.587910 0.773670 0.198655
O O7 0.579743 0.763236 0.100712
O O8 0.554075 0.000000 0.147624
O O9 0.341585 0.740656 0.739723
O O10 0.386467 0.000000 0.742178
O O11 0.500000 0.680555 0.054907
O O12 0.575771 0.500000 0.061517
O O13 0.577250 0.728557 0.000000
O O14 0.832633 0.757022 0.548198
O O15 0.815891 0.772333 0.645598
O O16 0.847951 0.000000 0.595085
O O17 0.250000 0.250000 0.500000
O O18 0.201138 0.000000 0.500000
O O19 0.250000 0.250000 0.283661
O O20 0.201495 0.000000 0.293005
#
# Coordination Sequence:
#
# PCOD8266213 Si02
#       7
#    16  16  16  16  16   8  16
#     4   9  17  30  46  63  86 116 148 180 215 257
#     4   9  17  27  39  58  85 115 146 180 215 251
#     4  10  19  30  44  64  89 115 146 182 218 258
#     4   8  14  24  37  54  78 110 147 182 214 250
#     4   8  16  29  45  66  89 112 140 174 211 257
#     4  10  18  30  47  65  87 111 138 176 221 264
#     4  10  19  32  48  66  88 113 142 175 216 263
#
# _framework density 15.920602000000001
#
# number of rings (size 3 to 8) (size 9 to 14) (size 15 to 20)
#    0.000    2.923    0.000    3.231    0.000    2.462 
#    0.000    6.538    0.000    2.308    0.000    0.000 
#    0.000    6.154    0.000    2.000    0.000    2.923 
#
# Total GULP energy -644510.323796 kJ/mol
# GULP energy per Si atom -12394.429304 kJ/mol
# Density = 1.588437 g / cm^3
# Si number density = 15.920602 Si / 1000 Ang^3
#
#
#
# Elastic Constant Matrix: (Units=GPa)
#
#
# Indices 1 2 3 4 5 6 
#
# 1 107.7760 31.7023 63.3873 0.0000 0.0000 0.0000
# 2 31.7023 40.9827 36.8831 0.0000 0.0000 0.0000
# 3 63.3873 36.8831 149.2290 0.0000 0.0000 0.0000
# 4 0.0000 0.0000 0.0000 20.6728 0.0000 0.0000
# 5 0.0000 0.0000 0.0000 0.0000 16.6144 0.0000
# 6 0.0000 0.0000 0.0000 0.0000 0.0000 21.5677
#
#
#
# Elastic Compliance Matrix: (Units=1/GPa)
#
#
# Indices 1 2 3 4 5 6 
#
# 1 0.013740 -0.006914 -0.004127 0.000000 0.000000 0.000000
# 2 -0.006914 0.034860 -0.005679 0.000000 0.000000 0.000000
# 3 -0.004127 -0.005679 0.009858 0.000000 0.000000 0.000000
# 4 0.000000 0.000000 0.000000 0.048373 0.000000 0.000000
# 5 0.000000 0.000000 0.000000 0.000000 0.060189 0.000000
# 6 0.000000 0.000000 0.000000 0.000000 0.000000 0.046366
#
#
# Mechanical properties :
#
#
# Convention : Reuss Voigt Hill
#
# Bulk Modulus (GPa) = 39.97324 62.43703 51.20514
# Shear Modulus (GPa) = 19.59523 22.83863 21.21693
#
# Velocity S-wave (km/s) = 3.51210 3.79163 3.65454
# Velocity P-wave (km/s) = 6.45049 7.64667 7.07391
#
# Compressibility (1/GPa) = 0.02501673
#
# Stress axis : x y z
#
# Youngs Moduli (GPa) = 72.78202 28.68635 101.44179
#
# Poissons Ratio (x) = 0.19833 0.41868
# Poissons Ratio (y) = 0.50321 0.57610
# Poissons Ratio (z) = 0.30039 0.16291
#
# Static dielectric constant tensor:
#      x y z
#    x 2.924310 0.000000 0.000000 
#    y 0.000000 2.913830 0.000000 
#    z 0.000000 0.000000 3.385770 
# 
# 
# High freq. dielectric constant tensor:
#      x y z
#    x 1.586590 0.000000 0.000000 
#    y 0.000000 1.602190 0.000000 
#    z 0.000000 0.000000 1.609350 
# 
# From -- ./inp_files/75981.got.cif
#   From: 2010.03.12/outbox.cif.g09.slc.cpg/sg65_38_cif.got.tgz:75981.got - 2010.04.10 20:52:16.
