data_PCOD8266118
_publ_section_title
;
Structure prediction by ZEFSAII (Michael W. Deem and Ramdas Pophale) SiO2 
 PCOD8266118
Probable space group: C M M M
;
_chemical_formula_sum "Si O2"
_cell_formula_units_Z 96
_cell_length_a 12.619058
_cell_length_b 26.002925
_cell_length_c 18.149899
_cell_angle_alpha 90.000000
_cell_angle_beta 90.000000
_cell_angle_gamma 90.000000
_cell_volume 5955.570259
_symmetry_space_group_name_H-M "C M M M"
_symmetry_group_IT_number 65
_symmetry_cell_setting 'orthorhombic'
loop_
_space_group_symop_operation_xyz
x,y,z
-x,-y,z
x,-y,-z
-x,y,-z
-x,-y,-z
x,y,-z
-x,y,z
x,-y,z
1/2+x,1/2+y,z
1/2-x,1/2-y,z
1/2+x,1/2-y,-z
1/2-x,1/2+y,-z
1/2-x,1/2-y,-z
1/2+x,1/2+y,-z
1/2-x,1/2+y,z
1/2+x,1/2-y,z
loop_
_atom_site_type_symbol
_atom_site_label
_atom_site_fract_x
_atom_site_fract_y
_atom_site_fract_z
Si Si1 0.874705 0.942101 0.081818
Si Si2 0.500000 0.337715 0.588315
Si Si3 0.500000 0.440237 0.680548
Si Si4 0.686779 0.604572 0.226862
Si Si5 0.118788 0.557611 0.703859
Si Si6 0.880542 0.635615 0.416816
Si Si7 0.794554 0.804900 0.329841
O O1 0.831863 0.899901 0.139484
O O2 0.000000 0.940444 0.082360
O O3 0.836626 0.000000 0.102929
O O4 0.832733 0.927759 0.000000
O O5 0.500000 0.337206 0.500000
O O6 0.500000 0.397874 0.614605
O O7 0.601924 0.306220 0.618018
O O8 0.500000 0.500000 0.651973
O O9 0.604210 0.431952 0.730170
O O10 0.806784 0.587385 0.239844
O O11 0.676598 0.663089 0.255830
O O12 0.158847 0.500000 0.696862
O O13 0.125651 0.580237 0.621682
O O14 0.000000 0.561806 0.735663
O O15 0.842208 0.628040 0.500000
O O16 0.802729 0.673614 0.376095
O O17 0.000000 0.658087 0.412797
O O18 0.750000 0.750000 0.304285
#
# Coordination Sequence:
#
# PCOD8266118 Si02
#       7
#    16   8   8  16  16  16  16
#     4   9  16  26  46  79 111 131 147 174 223 287
#     4  10  22  35  48  71  97 124 163 208 252 301
#     4  10  18  29  49  74 100 131 157 187 240 307
#     4  10  18  31  49  69  98 127 158 193 233 284
#     4   9  17  28  43  64  90 123 161 194 226 271
#     4   9  18  31  46  65  88 116 154 199 246 289
#     4  10  22  36  49  67  90 120 165 207 247 288
#
# _framework density 16.119364000000001
#
# number of rings (size 3 to 8) (size 9 to 14) (size 15 to 20)
#    0.000    2.500    0.833    2.500    1.167    1.833 
#    0.000    1.667    0.000    7.000    0.000    2.333 
#    0.000    0.000    0.000    0.000    0.000    0.000 
#
# Total GULP energy -594888.390934 kJ/mol
# GULP energy per Si atom -12393.508144 kJ/mol
# Density = 1.608268 g / cm^3
# Si number density = 16.119364 Si / 1000 Ang^3
#
#
#
# Elastic Constant Matrix: (Units=GPa)
#
#
# Indices 1 2 3 4 5 6 
#
# 1 61.1477 31.0001 32.3011 0.0000 0.0000 0.0000
# 2 31.0001 87.2717 42.3844 0.0000 0.0000 0.0000
# 3 32.3011 42.3844 122.6684 0.0000 0.0000 0.0000
# 4 0.0000 0.0000 0.0000 14.7478 0.0000 0.0000
# 5 0.0000 0.0000 0.0000 0.0000 19.0625 0.0000
# 6 0.0000 0.0000 0.0000 0.0000 0.0000 23.3497
#
#
#
# Elastic Compliance Matrix: (Units=1/GPa)
#
#
# Indices 1 2 3 4 5 6 
#
# 1 0.021176 -0.005785 -0.003577 0.000000 0.000000 0.000000
# 2 -0.005785 0.015349 -0.003780 0.000000 0.000000 0.000000
# 3 -0.003577 -0.003780 0.010400 0.000000 0.000000 0.000000
# 4 0.000000 0.000000 0.000000 0.067807 0.000000 0.000000
# 5 0.000000 0.000000 0.000000 0.000000 0.052459 0.000000
# 6 0.000000 0.000000 0.000000 0.000000 0.000000 0.042827
#
#
# Mechanical properties :
#
#
# Convention : Reuss Voigt Hill
#
# Bulk Modulus (GPa) = 48.44729 53.60658 51.02693
# Shear Modulus (GPa) = 20.56059 22.45880 21.50970
#
# Velocity S-wave (km/s) = 3.57532 3.73672 3.65691
# Velocity P-wave (km/s) = 6.86764 7.20733 7.03953
#
# Compressibility (1/GPa) = 0.02064099
#
# Stress axis : x y z
#
# Youngs Moduli (GPa) = 47.22265 65.15012 96.15187
#
# Poissons Ratio (x) = 0.37687 0.34398
# Poissons Ratio (y) = 0.27317 0.36348
# Poissons Ratio (z) = 0.16894 0.24628
#
# Static dielectric constant tensor:
#      x y z
#    x 3.519750 0.000000 0.000000 
#    y 0.000000 3.023580 0.000000 
#    z 0.000000 0.000000 3.060840 
# 
# 
# High freq. dielectric constant tensor:
#      x y z
#    x 1.629040 0.000000 0.000000 
#    y 0.000000 1.602620 0.000000 
#    z 0.000000 0.000000 1.597370 
# 
# From -- ./inp_files/61912.got.cif
#   From: 2010.03.12/outbox.cif.g09.slc.cpg/sg65_31_cif.got.tgz:61912.got - 2010.04.10 20:52:16.
