data_PCOD8266246
_publ_section_title
;
Structure prediction by ZEFSAII (Michael W. Deem and Ramdas Pophale) SiO2 
 PCOD8266246
Probable space group: C M M M
;
_chemical_formula_sum "Si O2"
_cell_formula_units_Z 104
_cell_length_a 29.129095
_cell_length_b 28.175104
_cell_length_c 8.860622
_cell_angle_alpha 90.000000
_cell_angle_beta 90.000000
_cell_angle_gamma 90.000000
_cell_volume 7272.047875
_symmetry_space_group_name_H-M "C M M M"
_symmetry_group_IT_number 65
_symmetry_cell_setting 'orthorhombic'
loop_
_space_group_symop_operation_xyz
x,y,z
-x,-y,z
x,-y,-z
-x,y,-z
-x,-y,-z
x,y,-z
-x,y,z
x,-y,z
1/2+x,1/2+y,z
1/2-x,1/2-y,z
1/2+x,1/2-y,-z
1/2-x,1/2+y,-z
1/2-x,1/2-y,-z
1/2+x,1/2+y,-z
1/2-x,1/2+y,z
1/2+x,1/2-y,z
loop_
_atom_site_type_symbol
_atom_site_label
_atom_site_fract_x
_atom_site_fract_y
_atom_site_fract_z
Si Si1 0.448938 0.807424 0.178227
Si Si2 0.214661 0.792729 0.331405
Si Si3 0.416226 0.090046 0.821996
Si Si4 0.715514 0.143759 0.822406
Si Si5 0.000000 0.447787 0.337491
Si Si6 0.823587 0.554344 0.321341
Si Si7 0.853190 0.272380 0.177673
O O1 0.500000 0.794704 0.246266
O O2 0.431779 0.858251 0.234870
O O3 0.407267 0.772306 0.225035
O O4 0.453875 0.808500 0.000000
O O5 0.204684 0.811441 0.500000
O O6 0.250000 0.750000 0.334498
O O7 0.236029 0.834755 0.231812
O O8 0.167620 0.773687 0.258766
O O9 0.457321 0.057194 0.773303
O O10 0.372686 0.071203 0.734257
O O11 0.406033 0.088708 0.000000
O O12 0.712438 0.091718 0.747964
O O13 0.672830 0.178406 0.775246
O O14 0.716542 0.137137 0.000000
O O15 0.000000 0.500000 0.397859
O O16 0.000000 0.418375 0.500000
O O17 0.821510 0.557585 0.500000
O O18 0.813321 0.500000 0.268490
O O19 0.846886 0.265789 0.000000
#
# Coordination Sequence:
#
# PCOD8266246 Si02
#       7
#    16  16  16  16   8  16  16
#     4   9  16  28  45  63  82 105 137 178 219 255
#     4   9  17  28  43  65  88 108 130 163 211 261
#     4  11  20  33  49  61  74 100 141 182 219 261
#     4  10  18  30  48  66  83 106 139 177 212 254
#     4  11  23  35  43  55  75  97 127 175 231 273
#     4  11  23  35  45  60  85 113 139 174 222 267
#     4   9  16  28  45  64  84 107 136 173 214 255
#
# _framework density 14.301335999999999
#
# number of rings (size 3 to 8) (size 9 to 14) (size 15 to 20)
#    0.000    2.077    2.308    2.538    0.000    6.154 
#    0.000    0.000    0.000    0.000    0.000    0.000 
#    0.000    0.000    0.000    0.000    0.000    0.769 
#
# Total GULP energy -644255.807861 kJ/mol
# GULP energy per Si atom -12389.534767 kJ/mol
# Density = 1.426879 g / cm^3
# Si number density = 14.301336 Si / 1000 Ang^3
#
#
#
# Elastic Constant Matrix: (Units=GPa)
#
#
# Indices 1 2 3 4 5 6 
#
# 1 87.5566 57.4924 30.3883 0.0000 0.0000 0.0000
# 2 57.4924 66.3715 28.6817 0.0000 0.0000 0.0000
# 3 30.3883 28.6817 47.6246 0.0000 0.0000 0.0000
# 4 0.0000 0.0000 0.0000 20.3411 0.0000 0.0000
# 5 0.0000 0.0000 0.0000 0.0000 18.0517 0.0000
# 6 0.0000 0.0000 0.0000 0.0000 0.0000 18.9981
#
#
#
# Elastic Compliance Matrix: (Units=1/GPa)
#
#
# Indices 1 2 3 4 5 6 
#
# 1 0.027113 -0.021642 -0.004266 0.000000 0.000000 0.000000
# 2 -0.021642 0.037643 -0.008861 0.000000 0.000000 0.000000
# 3 -0.004266 -0.008861 0.029056 0.000000 0.000000 0.000000
# 4 0.000000 0.000000 0.000000 0.049162 0.000000 0.000000
# 5 0.000000 0.000000 0.000000 0.000000 0.055396 0.000000
# 6 0.000000 0.000000 0.000000 0.000000 0.000000 0.052637
#
#
# Mechanical properties :
#
#
# Convention : Reuss Voigt Hill
#
# Bulk Modulus (GPa) = 41.19744 48.29750 44.74747
# Shear Modulus (GPa) = 15.21442 17.14419 16.17931
#
# Velocity S-wave (km/s) = 3.26520 3.46610 3.36715
# Velocity P-wave (km/s) = 6.56389 7.06138 6.81718
#
# Compressibility (1/GPa) = 0.02427335
#
# Stress axis : x y z
#
# Youngs Moduli (GPa) = 36.88305 26.56564 34.41612
#
# Poissons Ratio (x) = 0.57493 0.14683
# Poissons Ratio (y) = 0.79822 0.30495
# Poissons Ratio (z) = 0.15735 0.23539
#
# Static dielectric constant tensor:
#      x y z
#    x 2.889060 0.000000 0.000000 
#    y 0.000000 2.735020 0.000000 
#    z 0.000000 0.000000 2.820950 
# 
# 
# High freq. dielectric constant tensor:
#      x y z
#    x 1.527150 0.000000 0.000000 
#    y 0.000000 1.509860 0.000000 
#    z 0.000000 0.000000 1.552920 
# 
# From -- ./inp_files/15035.got.cif
#   From: 2010.03.12/outbox.cif.g09.slc.cpg/sg65_8_cif.got.tgz:15035.got - 2010.04.10 20:52:16.
