data_PCOD8266406
_publ_section_title
;
Structure prediction by ZEFSAII (Michael W. Deem and Ramdas Pophale) SiO2 
 PCOD8266406
Probable space group: C M M M
;
_chemical_formula_sum "Si O2"
_cell_formula_units_Z 56
_cell_length_a 8.726856
_cell_length_b 23.380411
_cell_length_c 15.494527
_cell_angle_alpha 90.000000
_cell_angle_beta 90.000000
_cell_angle_gamma 90.000000
_cell_volume 3161.464243
_symmetry_space_group_name_H-M "C M M M"
_symmetry_group_IT_number 65
_symmetry_cell_setting 'orthorhombic'
loop_
_space_group_symop_operation_xyz
x,y,z
-x,-y,z
x,-y,-z
-x,y,-z
-x,-y,-z
x,y,-z
-x,y,z
x,-y,z
1/2+x,1/2+y,z
1/2-x,1/2-y,z
1/2+x,1/2-y,-z
1/2-x,1/2+y,-z
1/2-x,1/2-y,-z
1/2+x,1/2+y,-z
1/2-x,1/2+y,z
1/2+x,1/2-y,z
loop_
_atom_site_type_symbol
_atom_site_label
_atom_site_fract_x
_atom_site_fract_y
_atom_site_fract_z
Si Si1 0.680075 0.614464 0.660322
Si Si2 0.180546 0.188169 0.500000
Si Si3 0.318946 0.687459 0.173947
Si Si4 0.682346 0.813178 0.000000
Si Si5 0.180703 0.500000 0.598348
O O1 0.500000 0.603705 0.653091
O O2 0.739770 0.654944 0.583876
O O3 0.725298 0.644541 0.749629
O O4 0.763716 0.554246 0.652547
O O5 0.250000 0.250000 0.500000
O O6 0.000000 0.194152 0.500000
O O7 0.500000 0.694418 0.163136
O O8 0.250000 0.750000 0.193253
O O9 0.246972 0.658346 0.087663
O O10 0.750000 0.750000 0.000000
O O11 0.500000 0.813672 0.000000
O O12 0.247762 0.500000 0.500000
O O13 0.000000 0.500000 0.594355
#
# Coordination Sequence:
#
# PCOD8266406 Si02
#       5
#    16   8  16   8   8
#     4  10  21  36  55  75 103 141 177 214 260 312
#     4  10  20  33  50  75 105 138 170 206 255 310
#     4  10  19  32  52  80 109 140 175 214 261 313
#     4  10  18  30  50  75 106 143 174 212 260 310
#     4  11  23  37  55  78 101 134 181 227 264 300
#
# _framework density 17.713311000000001
#
# number of rings (size 3 to 8) (size 9 to 14) (size 15 to 20)
#    0.000    1.857    1.429    5.143    0.000    4.000 
#    0.000    0.000    0.000    0.857    0.000    6.000 
#    0.000    0.000    0.000    0.000    0.000    0.000 
#
# Total GULP energy -347203.318714 kJ/mol
# GULP energy per Si atom -12400.118526 kJ/mol
# Density = 1.767300 g / cm^3
# Si number density = 17.713311 Si / 1000 Ang^3
#
#
#
# Elastic Constant Matrix: (Units=GPa)
#
#
# Indices 1 2 3 4 5 6 
#
# 1 80.0434 46.1055 62.5437 0.0000 0.0000 0.0000
# 2 46.1055 128.2582 76.8035 0.0000 0.0000 0.0000
# 3 62.5437 76.8035 178.0660 0.0000 0.0000 0.0000
# 4 0.0000 0.0000 0.0000 19.6199 0.0000 0.0000
# 5 0.0000 0.0000 0.0000 0.0000 23.8886 0.0000
# 6 0.0000 0.0000 0.0000 0.0000 0.0000 30.4751
#
#
#
# Elastic Compliance Matrix: (Units=1/GPa)
#
#
# Indices 1 2 3 4 5 6 
#
# 1 0.018440 -0.003708 -0.004878 0.000000 0.000000 0.000000
# 2 -0.003708 0.011257 -0.003553 0.000000 0.000000 0.000000
# 3 -0.004878 -0.003553 0.008862 0.000000 0.000000 0.000000
# 4 0.000000 0.000000 0.000000 0.050969 0.000000 0.000000
# 5 0.000000 0.000000 0.000000 0.000000 0.041861 0.000000
# 6 0.000000 0.000000 0.000000 0.000000 0.000000 0.032814
#
#
# Mechanical properties :
#
#
# Convention : Reuss Voigt Hill
#
# Bulk Modulus (GPa) = 70.01915 84.14145 77.08030
# Shear Modulus (GPa) = 25.87444 28.19104 27.03274
#
# Velocity S-wave (km/s) = 3.82610 3.99371 3.91080
# Velocity P-wave (km/s) = 7.68984 8.29887 8.00015
#
# Compressibility (1/GPa) = 0.01428181
#
# Stress axis : x y z
#
# Youngs Moduli (GPa) = 54.22913 88.83051 112.84591
#
# Poissons Ratio (x) = 0.32938 0.55042
# Poissons Ratio (y) = 0.20108 0.40096
# Poissons Ratio (z) = 0.26451 0.31563
#
# Static dielectric constant tensor:
#      x y z
#    x 3.282890 0.000000 0.000000 
#    y 0.000000 3.028080 0.000000 
#    z 0.000000 0.000000 3.925140 
# 
# 
# High freq. dielectric constant tensor:
#      x y z
#    x 1.691260 0.000000 0.000000 
#    y 0.000000 1.659590 0.000000 
#    z 0.000000 0.000000 1.700210 
# 
# From -- ./inp_files/35827.got.cif
#   From: 2010.03.12/outbox.cif.g09.slc.cpg/sg65_18_cif.got.tgz:35827.got - 2010.04.10 20:52:16.
