data_PCOD8266152
_publ_section_title
;
Structure prediction by ZEFSAII (Michael W. Deem and Ramdas Pophale) SiO2 
 PCOD8266152
Probable space group: C M M M
;
_chemical_formula_sum "Si O2"
_cell_formula_units_Z 80
_cell_length_a 24.716911
_cell_length_b 9.161965
_cell_length_c 20.238634
_cell_angle_alpha 90.000000
_cell_angle_beta 90.000000
_cell_angle_gamma 90.000000
_cell_volume 4583.149445
_symmetry_space_group_name_H-M "C M M M"
_symmetry_group_IT_number 65
_symmetry_cell_setting 'orthorhombic'
loop_
_space_group_symop_operation_xyz
x,y,z
-x,-y,z
x,-y,-z
-x,y,-z
-x,-y,-z
x,y,-z
-x,y,z
x,-y,z
1/2+x,1/2+y,z
1/2-x,1/2-y,z
1/2+x,1/2-y,-z
1/2-x,1/2+y,-z
1/2-x,1/2-y,-z
1/2+x,1/2+y,-z
1/2-x,1/2+y,z
1/2+x,1/2-y,z
loop_
_atom_site_type_symbol
_atom_site_label
_atom_site_fract_x
_atom_site_fract_y
_atom_site_fract_z
Si Si1 0.500000 0.164095 0.244563
Si Si2 0.192982 0.329238 0.000000
Si Si3 0.807043 0.829535 0.357191
Si Si4 0.000000 0.172322 0.887430
Si Si5 0.617038 0.835763 0.738942
Si Si6 0.194902 0.167174 0.500000
Si Si7 0.393072 0.830220 0.892846
O O1 0.500000 0.289039 0.189785
O O2 0.554858 0.180009 0.287138
O O3 0.500000 0.000000 0.211469
O O4 0.250000 0.250000 0.000000
O O5 0.159037 0.282602 0.064815
O O6 0.204992 0.500000 0.000000
O O7 0.750000 0.750000 0.349707
O O8 0.847188 0.776986 0.300895
O O9 0.834559 0.796520 0.429961
O O10 0.796957 0.000000 0.346774
O O11 0.054630 0.240548 0.918674
O O12 0.000000 0.000000 0.899053
O O13 0.619718 0.796239 0.816355
O O14 0.638317 0.000000 0.726638
O O15 0.250000 0.250000 0.500000
O O16 0.211369 0.000000 0.500000
O O17 0.406030 0.000000 0.903799
#
# Coordination Sequence:
#
# PCOD8266152 Si02
#       7
#     8   8  16   8  16   8  16
#     4   8  16  32  51  70  99 134 161 192 239 290
#     4  10  22  39  56  71  93 132 172 202 241 292
#     4  10  19  31  48  71  98 127 160 198 240 286
#     4  10  18  29  51  80 102 121 155 204 248 283
#     4   9  17  31  51  74  98 125 159 198 239 284
#     4   8  16  30  46  65  92 125 159 196 238 282
#     4   9  19  36  54  72  98 131 163 197 243 295
#
# _framework density 17.455245000000001
#
# number of rings (size 3 to 8) (size 9 to 14) (size 15 to 20)
#    0.000    2.800    0.000    2.700    0.000    6.000 
#    0.000    4.000    0.000    0.600    0.000    4.200 
#    0.000    0.000    0.000    0.000    0.000    0.000 
#
# Total GULP energy -495580.943713 kJ/mol
# GULP energy per Si atom -12389.523593 kJ/mol
# Density = 1.741552 g / cm^3
# Si number density = 17.455245 Si / 1000 Ang^3
#
#
#
# Elastic Constant Matrix: (Units=GPa)
#
#
# Indices 1 2 3 4 5 6 
#
# 1 135.0776 62.4125 64.8370 0.0000 0.0000 0.0000
# 2 62.4125 85.5740 46.7021 0.0000 0.0000 0.0000
# 3 64.8370 46.7021 94.4108 0.0000 0.0000 0.0000
# 4 0.0000 0.0000 0.0000 20.4587 0.0000 0.0000
# 5 0.0000 0.0000 0.0000 0.0000 -4.2598 0.0000
# 6 0.0000 0.0000 0.0000 0.0000 0.0000 33.3134
#
#
#
# Elastic Compliance Matrix: (Units=1/GPa)
#
#
# Indices 1 2 3 4 5 6 
#
# 1 0.013190 -0.006406 -0.005889 0.000000 0.000000 0.000000
# 2 -0.006406 0.019118 -0.005058 0.000000 0.000000 0.000000
# 3 -0.005889 -0.005058 0.017139 0.000000 0.000000 0.000000
# 4 0.000000 0.000000 0.000000 0.048879 0.000000 0.000000
# 5 0.000000 0.000000 0.000000 0.000000 -0.234750 0.000000
# 6 0.000000 0.000000 0.000000 0.000000 0.000000 0.030018
#
#
# Mechanical properties :
#
#
# Convention : Reuss Voigt Hill
#
# Bulk Modulus (GPa) = 67.84134 73.66286 70.75210
# Shear Modulus (GPa) = -74.86507 19.30984 -27.77762
#
# Velocity S-wave (km/s) = -6.55613 3.32964 -3.99352
# Velocity P-wave (km/s) = 4.28488 7.55477 4.39968
#
# Compressibility (1/GPa) = 0.01474028
#
# Stress axis : x y z
#
# Youngs Moduli (GPa) = 75.81605 52.30642 58.34755
#
# Poissons Ratio (x) = 0.33506 0.34364
# Poissons Ratio (y) = 0.48565 0.29512
# Poissons Ratio (z) = 0.44652 0.26457
#
# Static dielectric constant tensor:
#      x y z
#    x 3.221320 0.000000 0.000000 
#    y 0.000000 3.131730 0.000000 
#    z 0.000000 0.000000 3.450930 
# 
# 
# High freq. dielectric constant tensor:
#      x y z
#    x 1.662820 0.000000 0.000000 
#    y 0.000000 1.673960 0.000000 
#    z 0.000000 0.000000 1.662100 
# 
# From -- ./inp_files/70913.got.cif
#   From: 2010.03.12/outbox.cif.g09.slc.cpg/sg65_36_cif.got.tgz:70913.got - 2010.04.10 20:52:16.
