data_PCOD8266782
_publ_section_title
;
Structure prediction by ZEFSAII (Michael W. Deem and Ramdas Pophale) SiO2 
 PCOD8266782
Probable space group: C M M M
;
_chemical_formula_sum "Si O2"
_cell_formula_units_Z 80
_cell_length_a 8.942600
_cell_length_b 18.791112
_cell_length_c 26.091297
_cell_angle_alpha 90.000000
_cell_angle_beta 90.000000
_cell_angle_gamma 90.000000
_cell_volume 4384.418028
_symmetry_space_group_name_H-M "C M M M"
_symmetry_group_IT_number 65
_symmetry_cell_setting 'orthorhombic'
loop_
_space_group_symop_operation_xyz
x,y,z
-x,-y,z
x,-y,-z
-x,y,-z
-x,-y,-z
x,y,-z
-x,y,z
x,-y,z
1/2+x,1/2+y,z
1/2-x,1/2-y,z
1/2+x,1/2-y,-z
1/2-x,1/2+y,-z
1/2-x,1/2-y,-z
1/2+x,1/2+y,-z
1/2-x,1/2+y,z
1/2+x,1/2-y,z
loop_
_atom_site_type_symbol
_atom_site_label
_atom_site_fract_x
_atom_site_fract_y
_atom_site_fract_z
Si Si1 0.680011 0.671735 0.000000
Si Si2 0.677955 0.826966 0.898334
Si Si3 0.326650 0.416553 0.812860
Si Si4 0.665503 0.584524 0.698595
Si Si5 0.833149 0.415067 0.399825
Si Si6 0.167572 0.084839 0.500000
O O1 0.750000 0.750000 0.000000
O O2 0.745498 0.635594 0.051598
O O3 0.500000 0.671570 0.000000
O O4 0.500000 0.820074 0.905755
O O5 0.750000 0.750000 0.888901
O O6 0.714836 0.875849 0.850140
O O7 0.500000 0.396216 0.823030
O O8 0.303009 0.500000 0.821148
O O9 0.278562 0.393499 0.755247
O O10 0.500000 0.615108 0.689381
O O11 0.660960 0.500000 0.695510
O O12 0.768845 0.615926 0.653559
O O13 0.826389 0.500000 0.399202
O O14 0.744640 0.384919 0.448784
O O15 0.000000 0.386545 0.404993
O O16 0.000000 0.113337 0.500000
O O17 0.174944 0.000000 0.500000
#
# Coordination Sequence:
#
# PCOD8266782 Si02
#       6
#     8  16  16  16  16   8
#     4  10  18  32  53  74  97 124 157 193 233 281
#     4  11  21  34  53  76 101 127 159 196 235 280
#     4   9  18  33  51  71  97 128 161 197 238 283
#     4   8  14  25  40  56  77 109 146 180 218 270
#     4   9  15  21  30  46  69  97 133 178 223 265
#     4   9  15  21  29  41  61  93 134 177 220 267
#
# _framework density 18.246435000000002
#
# number of rings (size 3 to 8) (size 9 to 14) (size 15 to 20)
#    0.000    2.700    0.000    6.000    0.000    4.800 
#    0.000    2.500    0.000    3.000    0.000    0.000 
#    0.000    0.000    0.000    0.900    0.000   13.000 
#
# Total GULP energy -495737.005621 kJ/mol
# GULP energy per Si atom -12393.425141 kJ/mol
# Density = 1.820491 g / cm^3
# Si number density = 18.246435 Si / 1000 Ang^3
#
#
#
# Elastic Constant Matrix: (Units=GPa)
#
#
# Indices 1 2 3 4 5 6 
#
# 1 162.3088 21.6585 93.3592 0.0000 0.0000 0.0000
# 2 21.6585 18.6121 26.0468 0.0000 0.0000 0.0000
# 3 93.3592 26.0468 180.9366 0.0000 0.0000 0.0000
# 4 0.0000 0.0000 0.0000 -5.4221 0.0000 0.0000
# 5 0.0000 0.0000 0.0000 0.0000 38.5857 0.0000
# 6 0.0000 0.0000 0.0000 0.0000 0.0000 15.3831
#
#
#
# Elastic Compliance Matrix: (Units=1/GPa)
#
#
# Indices 1 2 3 4 5 6 
#
# 1 0.009125 -0.005046 -0.003982 0.000000 0.000000 0.000000
# 2 -0.005046 0.070073 -0.007484 0.000000 0.000000 0.000000
# 3 -0.003982 -0.007484 0.008659 0.000000 0.000000 0.000000
# 4 0.000000 0.000000 0.000000 -0.184431 0.000000 0.000000
# 5 0.000000 0.000000 0.000000 0.000000 0.025916 0.000000
# 6 0.000000 0.000000 0.000000 0.000000 0.000000 0.065007
#
#
# Mechanical properties :
#
#
# Convention : Reuss Voigt Hill
#
# Bulk Modulus (GPa) = 18.23696 71.55405 44.89550
# Shear Modulus (GPa) = 109.52913 24.42888 66.97901
#
# Velocity S-wave (km/s) = 7.75616 3.66297 6.06529
# Velocity P-wave (km/s) = 9.49880 7.56243 8.58538
#
# Compressibility (1/GPa) = 0.05483371
#
# Stress axis : x y z
#
# Youngs Moduli (GPa) = 109.59252 14.27074 115.49167
#
# Poissons Ratio (x) = 0.07201 0.45986
# Poissons Ratio (y) = 0.55300 0.86432
# Poissons Ratio (z) = 0.43637 0.10680
#
# Static dielectric constant tensor:
#      x y z
#    x 3.480140 0.000000 0.000000 
#    y 0.000000 2.618010 0.000000 
#    z 0.000000 0.000000 3.937200 
# 
# 
# High freq. dielectric constant tensor:
#      x y z
#    x 1.715260 0.000000 0.000000 
#    y 0.000000 1.622270 0.000000 
#    z 0.000000 0.000000 1.733700 
# 
# From -- ./inp_files/67770.got.cif
#   From: 2010.03.12/outbox.cif.g09.slc.cpg/sg65_34_cif.got.tgz:67770.got - 2010.04.10 20:52:16.
