data_PCOD8266217
_publ_section_title
;
Structure prediction by ZEFSAII (Michael W. Deem and Ramdas Pophale) SiO2 
 PCOD8266217
Probable space group: C M M M
;
_chemical_formula_sum "Si O2"
_cell_formula_units_Z 64
_cell_length_a 8.892850
_cell_length_b 19.517409
_cell_length_c 21.054296
_cell_angle_alpha 90.000000
_cell_angle_beta 90.000000
_cell_angle_gamma 90.000000
_cell_volume 3654.297110
_symmetry_space_group_name_H-M "C M M M"
_symmetry_group_IT_number 65
_symmetry_cell_setting 'orthorhombic'
loop_
_space_group_symop_operation_xyz
x,y,z
-x,-y,z
x,-y,-z
-x,y,-z
-x,-y,-z
x,y,-z
-x,y,z
x,-y,z
1/2+x,1/2+y,z
1/2-x,1/2-y,z
1/2+x,1/2-y,-z
1/2-x,1/2+y,-z
1/2-x,1/2-y,-z
1/2+x,1/2+y,-z
1/2-x,1/2+y,z
1/2+x,1/2-y,z
loop_
_atom_site_type_symbol
_atom_site_label
_atom_site_fract_x
_atom_site_fract_y
_atom_site_fract_z
Si Si1 0.821014 0.923747 0.761339
Si Si2 0.166338 0.918532 0.622930
Si Si3 0.332796 0.918183 0.500000
Si Si4 0.319908 0.324535 0.873146
Si Si5 0.180837 0.674517 0.000000
O O1 0.761680 0.899149 0.691753
O O2 0.766258 0.871116 0.814639
O O3 0.000000 0.926389 0.758174
O O4 0.759518 0.000000 0.777470
O O5 0.259059 0.887954 0.564027
O O6 0.000000 0.887237 0.617125
O O7 0.159423 0.000000 0.618353
O O8 0.500000 0.890396 0.500000
O O9 0.324038 0.000000 0.500000
O O10 0.500000 0.319858 0.879878
O O11 0.250000 0.250000 0.861763
O O12 0.247360 0.360092 0.936118
O O13 0.250000 0.750000 0.000000
O O14 0.000000 0.674676 0.000000
#
# Coordination Sequence:
#
# PCOD8266217 Si02
#       5
#    16  16   8  16   8
#     4   8  15  28  46  67  89 115 149 185 217 254
#     4   8  13  23  39  57  78 107 143 179 212 247
#     4   9  15  21  31  53  84 113 140 171 211 257
#     4  10  18  30  49  70  91 114 144 182 221 261
#     4  10  18  30  47  66  89 115 147 183 217 256
#
# _framework density 17.513627
#
# number of rings (size 3 to 8) (size 9 to 14) (size 15 to 20)
#    0.000    3.125    0.000    5.250    0.000    1.500 
#    0.000    3.125    0.000    9.750    0.000    0.875 
#    0.000    0.000    0.000    0.000    0.000    0.000 
#
# Total GULP energy -396447.738777 kJ/mol
# GULP energy per Si atom -12388.991837 kJ/mol
# Density = 1.747377 g / cm^3
# Si number density = 17.513627 Si / 1000 Ang^3
#
#
#
# Elastic Constant Matrix: (Units=GPa)
#
#
# Indices 1 2 3 4 5 6 
#
# 1 91.7841 21.4010 65.0703 0.0000 0.0000 0.0000
# 2 21.4010 42.1864 56.9761 0.0000 0.0000 0.0000
# 3 65.0703 56.9761 213.2467 0.0000 0.0000 0.0000
# 4 0.0000 0.0000 0.0000 6.9422 0.0000 0.0000
# 5 0.0000 0.0000 0.0000 0.0000 20.7637 0.0000
# 6 0.0000 0.0000 0.0000 0.0000 0.0000 12.2437
#
#
#
# Elastic Compliance Matrix: (Units=1/GPa)
#
#
# Indices 1 2 3 4 5 6 
#
# 1 0.014019 -0.002088 -0.003720 0.000000 0.000000 0.000000
# 2 -0.002088 0.037398 -0.009355 0.000000 0.000000 0.000000
# 3 -0.003720 -0.009355 0.008324 0.000000 0.000000 0.000000
# 4 0.000000 0.000000 0.000000 0.144046 0.000000 0.000000
# 5 0.000000 0.000000 0.000000 0.000000 0.048161 0.000000
# 6 0.000000 0.000000 0.000000 0.000000 0.000000 0.081675
#
#
# Mechanical properties :
#
#
# Convention : Reuss Voigt Hill
#
# Bulk Modulus (GPa) = 33.99532 70.45687 52.22610
# Shear Modulus (GPa) = 13.37775 21.57457 17.47616
#
# Velocity S-wave (km/s) = 2.76678 3.51361 3.16232
# Velocity P-wave (km/s) = 5.44607 7.53510 6.57409
#
# Compressibility (1/GPa) = 0.02941581
#
# Stress axis : x y z
#
# Youngs Moduli (GPa) = 71.33052 26.73917 120.13313
#
# Poissons Ratio (x) = 0.05582 0.44690
# Poissons Ratio (y) = 0.14892 1.12387
# Poissons Ratio (z) = 0.26535 0.25015
#
# Static dielectric constant tensor:
#      x y z
#    x 3.153120 0.000000 0.000000 
#    y 0.000000 2.770200 0.000000 
#    z 0.000000 0.000000 4.092410 
# 
# 
# High freq. dielectric constant tensor:
#      x y z
#    x 1.660600 0.000000 0.000000 
#    y 0.000000 1.607290 0.000000 
#    z 0.000000 0.000000 1.705910 
# 
# From -- ./inp_files/59148.got.cif
#   From: 2010.03.12/outbox.cif.g09.slc.cpg/sg65_30_cif.got.tgz:59148.got - 2010.04.10 20:52:16.
