data_PCOD8266117
_publ_section_title
;
Structure prediction by ZEFSAII (Michael W. Deem and Ramdas Pophale) SiO2 
 PCOD8266117
Probable space group: C M M M
;
_chemical_formula_sum "Si O2"
_cell_formula_units_Z 80
_cell_length_a 18.492643
_cell_length_b 8.799454
_cell_length_c 25.898669
_cell_angle_alpha 90.000000
_cell_angle_beta 90.000000
_cell_angle_gamma 90.000000
_cell_volume 4214.365094
_symmetry_space_group_name_H-M "C M M M"
_symmetry_group_IT_number 65
_symmetry_cell_setting 'orthorhombic'
loop_
_space_group_symop_operation_xyz
x,y,z
-x,-y,z
x,-y,-z
-x,y,-z
-x,-y,-z
x,y,-z
-x,y,z
x,-y,z
1/2+x,1/2+y,z
1/2-x,1/2-y,z
1/2+x,1/2-y,-z
1/2-x,1/2+y,-z
1/2-x,1/2-y,-z
1/2+x,1/2+y,-z
1/2-x,1/2+y,z
1/2+x,1/2-y,z
loop_
_atom_site_type_symbol
_atom_site_label
_atom_site_fract_x
_atom_site_fract_y
_atom_site_fract_z
Si Si1 0.581087 0.819331 0.744194
Si Si2 0.828523 0.822149 0.055949
Si Si3 0.670602 0.819728 0.157497
Si Si4 0.417244 0.324282 0.440520
Si Si5 0.671826 0.821162 0.352857
O O1 0.500000 0.752096 0.743803
O O2 0.621726 0.761477 0.795348
O O3 0.622855 0.757587 0.693919
O O4 0.578618 0.000000 0.743352
O O5 0.750000 0.750000 0.052516
O O6 0.867726 0.740398 0.104408
O O7 0.821754 0.000000 0.067739
O O8 0.867693 0.795203 0.000000
O O9 0.750000 0.750000 0.164129
O O10 0.676348 0.000000 0.156107
O O11 0.399095 0.291185 0.500000
O O12 0.500000 0.280072 0.428544
O O13 0.403549 0.500000 0.427401
O O14 0.364594 0.221265 0.406919
O O15 0.750000 0.750000 0.347989
O O16 0.680282 0.000000 0.349513
#
# Coordination Sequence:
#
# PCOD8266117 Si02
#       5
#    16  16  16  16  16
#     4   9  19  35  53  74 100 131 168 210 256 304
#     4   9  16  26  42  66  97 129 161 200 244 291
#     4  10  18  29  49  73  99 129 161 203 249 296
#     4   9  19  37  59  82 110 142 175 214 259 306
#     4  11  22  36  56  80 108 140 175 217 261 308
#
# _framework density 18.982693000000001
#
# number of rings (size 3 to 8) (size 9 to 14) (size 15 to 20)
#    0.000    2.400    0.000    4.800    0.000    3.200 
#    0.000    4.000    0.000    7.800    0.000    4.200 
#    0.000    0.000    0.000    0.000    0.000    0.000 
#
# Total GULP energy -495841.619431 kJ/mol
# GULP energy per Si atom -12396.040486 kJ/mol
# Density = 1.893949 g / cm^3
# Si number density = 18.982693 Si / 1000 Ang^3
#
#
#
# Elastic Constant Matrix: (Units=GPa)
#
#
# Indices 1 2 3 4 5 6 
#
# 1 115.8492 36.3195 79.0651 0.0000 0.0000 0.0000
# 2 36.3195 72.4221 46.6130 0.0000 0.0000 0.0000
# 3 79.0651 46.6130 162.9933 0.0000 0.0000 0.0000
# 4 0.0000 0.0000 0.0000 26.2397 0.0000 0.0000
# 5 0.0000 0.0000 0.0000 0.0000 17.7196 0.0000
# 6 0.0000 0.0000 0.0000 0.0000 0.0000 0.1952
#
#
#
# Elastic Compliance Matrix: (Units=1/GPa)
#
#
# Indices 1 2 3 4 5 6 
#
# 1 0.013456 -0.003122 -0.005635 0.000000 0.000000 0.000000
# 2 -0.003122 0.017647 -0.003532 0.000000 0.000000 0.000000
# 3 -0.005635 -0.003532 0.009879 0.000000 0.000000 0.000000
# 4 0.000000 0.000000 0.000000 0.038110 0.000000 0.000000
# 5 0.000000 0.000000 0.000000 0.000000 0.056435 0.000000
# 6 0.000000 0.000000 0.000000 0.000000 0.000000 5.122273
#
#
# Mechanical properties :
#
#
# Convention : Reuss Voigt Hill
#
# Bulk Modulus (GPa) = 60.95910 75.02888 67.99399
# Shear Modulus (GPa) = 0.94556 21.44869 11.19713
#
# Velocity S-wave (km/s) = 0.70654 3.36506 2.43134
# Velocity P-wave (km/s) = 5.73134 7.39654 6.61654
#
# Compressibility (1/GPa) = 0.01640444
#
# Stress axis : x y z
#
# Youngs Moduli (GPa) = 74.31598 56.66672 101.22820
#
# Poissons Ratio (x) = 0.17689 0.57038
# Poissons Ratio (y) = 0.23199 0.35759
# Poissons Ratio (z) = 0.41874 0.20017
#
# Static dielectric constant tensor:
#      x y z
#    x 3.292510 0.000000 0.000000 
#    y 0.000000 3.320550 0.000000 
#    z 0.000000 0.000000 4.123590 
# 
# 
# High freq. dielectric constant tensor:
#      x y z
#    x 1.707620 0.000000 0.000000 
#    y 0.000000 1.726870 0.000000 
#    z 0.000000 0.000000 1.763260 
# 
# From -- ./inp_files/75014.got.cif
#   From: 2010.03.12/outbox.cif.g09.slc.cpg/sg65_38_cif.got.tgz:75014.got - 2010.04.10 20:52:16.
