data_PCOD8266012
_publ_section_title
;
Structure prediction by ZEFSAII (Michael W. Deem and Ramdas Pophale) SiO2 
 PCOD8266012
Probable space group: C M M M
;
_chemical_formula_sum "Si O2"
_cell_formula_units_Z 112
_cell_length_a 27.332553
_cell_length_b 17.460479
_cell_length_c 14.035138
_cell_angle_alpha 90.000000
_cell_angle_beta 90.000000
_cell_angle_gamma 90.000000
_cell_volume 6698.121788
_symmetry_space_group_name_H-M "C M M M"
_symmetry_group_IT_number 65
_symmetry_cell_setting 'orthorhombic'
loop_
_space_group_symop_operation_xyz
x,y,z
-x,-y,z
x,-y,-z
-x,y,-z
-x,-y,-z
x,y,-z
-x,y,z
x,-y,z
1/2+x,1/2+y,z
1/2-x,1/2-y,z
1/2+x,1/2-y,-z
1/2-x,1/2+y,-z
1/2-x,1/2-y,-z
1/2+x,1/2+y,-z
1/2-x,1/2+y,z
1/2+x,1/2-y,z
loop_
_atom_site_type_symbol
_atom_site_label
_atom_site_fract_x
_atom_site_fract_y
_atom_site_fract_z
Si Si1 0.288644 0.314298 0.739656
Si Si2 0.557852 0.583246 0.393828
Si Si3 0.555529 0.263422 0.704755
Si Si4 0.144923 0.288226 0.609772
Si Si5 0.153459 0.912885 0.109854
Si Si6 0.445346 0.332367 0.105846
Si Si7 0.722598 0.912476 0.391820
O O1 0.250000 0.250000 0.775315
O O2 0.327633 0.276881 0.669103
O O3 0.314774 0.352445 0.830075
O O4 0.262608 0.380635 0.680050
O O5 0.578053 0.599994 0.500000
O O6 0.500000 0.579720 0.396782
O O7 0.578104 0.500000 0.358423
O O8 0.574463 0.651399 0.324924
O O9 0.500000 0.246846 0.671630
O O10 0.590363 0.201878 0.653490
O O11 0.561037 0.262104 0.819473
O O12 0.142462 0.262515 0.500000
O O13 0.171149 0.369457 0.621400
O O14 0.095438 0.897259 0.121915
O O15 0.163487 0.000000 0.143210
O O16 0.169020 0.902087 0.000000
O O17 0.500000 0.368711 0.120806
O O18 0.440518 0.296802 0.000000
O O19 0.741799 0.901515 0.500000
O O20 0.712401 0.000000 0.366789
#
# Coordination Sequence:
#
# PCOD8266012 Si02
#       7
#    16  16  16  16  16  16  16
#     4  10  19  33  51  71  96 124 159 199 242 282
#     4   8  14  24  36  52  79 115 150 179 211 259
#     4  10  18  29  46  67  92 124 157 192 235 279
#     4  10  19  31  48  73 100 123 155 196 233 278
#     4  10  20  33  49  70  97 127 161 201 242 283
#     4   9  18  32  48  66  91 125 164 198 227 270
#     4   9  18  33  53  73  95 126 158 190 234 287
#
# _framework density 16.721105000000001
#
# number of rings (size 3 to 8) (size 9 to 14) (size 15 to 20)
#    0.000    2.571    1.429    1.714    0.000    3.714 
#    0.000    2.857    0.000    3.000    0.000    2.000 
#    0.000    0.000    0.000    3.571    0.000    0.000 
#
# Total GULP energy -694039.342975 kJ/mol
# GULP energy per Si atom -12393.559696 kJ/mol
# Density = 1.668305 g / cm^3
# Si number density = 16.721105 Si / 1000 Ang^3
#
#
#
# Elastic Constant Matrix: (Units=GPa)
#
#
# Indices 1 2 3 4 5 6 
#
# 1 98.9660 46.8809 52.2460 0.0000 0.0000 0.0000
# 2 46.8809 79.8224 44.9477 0.0000 0.0000 0.0000
# 3 52.2460 44.9477 97.2265 0.0000 0.0000 0.0000
# 4 0.0000 0.0000 0.0000 18.8384 0.0000 0.0000
# 5 0.0000 0.0000 0.0000 0.0000 25.0426 0.0000
# 6 0.0000 0.0000 0.0000 0.0000 0.0000 18.8169
#
#
#
# Elastic Compliance Matrix: (Units=1/GPa)
#
#
# Indices 1 2 3 4 5 6 
#
# 1 0.016092 -0.006194 -0.005784 0.000000 0.000000 0.000000
# 2 -0.006194 0.019321 -0.005604 0.000000 0.000000 0.000000
# 3 -0.005784 -0.005604 0.015984 0.000000 0.000000 0.000000
# 4 0.000000 0.000000 0.000000 0.053083 0.000000 0.000000
# 5 0.000000 0.000000 0.000000 0.000000 0.039932 0.000000
# 6 0.000000 0.000000 0.000000 0.000000 0.000000 0.053144
#
#
# Mechanical properties :
#
#
# Convention : Reuss Voigt Hill
#
# Bulk Modulus (GPa) = 61.59965 62.68489 62.14227
# Shear Modulus (GPa) = 20.99693 21.33561 21.16627
#
# Velocity S-wave (km/s) = 3.54745 3.57595 3.56173
# Velocity P-wave (km/s) = 7.32794 7.39052 7.35929
#
# Compressibility (1/GPa) = 0.01623386
#
# Stress axis : x y z
#
# Youngs Moduli (GPa) = 62.14229 51.75667 62.56382
#
# Poissons Ratio (x) = 0.32060 0.36185
# Poissons Ratio (y) = 0.38493 0.35058
# Poissons Ratio (z) = 0.35941 0.29002
#
# Static dielectric constant tensor:
#      x y z
#    x 3.169070 0.000000 0.000000 
#    y 0.000000 2.979530 0.000000 
#    z 0.000000 0.000000 3.298340 
# 
# 
# High freq. dielectric constant tensor:
#      x y z
#    x 1.639930 0.000000 0.000000 
#    y 0.000000 1.604450 0.000000 
#    z 0.000000 0.000000 1.653540 
# 
# From -- ./inp_files/47059.got.cif
#   From: 2010.03.12/outbox.cif.g09.slc.cpg/sg65_24_cif.got.tgz:47059.got - 2010.04.10 20:52:16.
