data_PCOD8266840
_publ_section_title
;
Structure prediction by ZEFSAII (Michael W. Deem and Ramdas Pophale) SiO2 
 PCOD8266840
Probable space group: C M M M
;
_chemical_formula_sum "Si O2"
_cell_formula_units_Z 88
_cell_length_a 12.621431
_cell_length_b 25.854172
_cell_length_c 15.397131
_cell_angle_alpha 90.000000
_cell_angle_beta 90.000000
_cell_angle_gamma 90.000000
_cell_volume 5024.340176
_symmetry_space_group_name_H-M "C M M M"
_symmetry_group_IT_number 65
_symmetry_cell_setting 'orthorhombic'
loop_
_space_group_symop_operation_xyz
x,y,z
-x,-y,z
x,-y,-z
-x,y,-z
-x,-y,-z
x,y,-z
-x,y,z
x,-y,z
1/2+x,1/2+y,z
1/2-x,1/2-y,z
1/2+x,1/2-y,-z
1/2-x,1/2+y,-z
1/2-x,1/2-y,-z
1/2+x,1/2+y,-z
1/2-x,1/2+y,z
1/2+x,1/2-y,z
loop_
_atom_site_type_symbol
_atom_site_label
_atom_site_fract_x
_atom_site_fract_y
_atom_site_fract_z
Si Si1 0.119514 0.640185 0.401875
Si Si2 0.704526 0.304234 0.705043
Si Si3 0.683826 0.399545 0.182002
Si Si4 0.500000 0.440634 0.702184
Si Si5 0.500000 0.665865 0.603980
Si Si6 0.875696 0.941259 0.000000
Si Si7 0.618093 0.058060 0.735154
O O1 0.158601 0.634467 0.500000
O O2 0.197222 0.677254 0.351560
O O3 0.126117 0.583805 0.359239
O O4 0.000000 0.662587 0.396452
O O5 0.750000 0.250000 0.740473
O O6 0.675668 0.339600 0.788568
O O7 0.601713 0.303895 0.642664
O O8 0.604241 0.434335 0.238827
O O9 0.659642 0.407016 0.081447
O O10 0.804372 0.416702 0.195216
O O11 0.500000 0.500000 0.664679
O O12 0.500000 0.395795 0.628246
O O13 0.500000 0.670674 0.500000
O O14 0.000000 0.946946 0.000000
O O15 0.827100 0.000000 0.000000
O O16 0.500000 0.063345 0.774138
O O17 0.652604 0.000000 0.718853
#
# Coordination Sequence:
#
# PCOD8266840 Si02
#       7
#    16  16  16   8   8   8  16
#     4   9  18  31  48  73 101 132 178 225 260 304
#     4  10  22  38  54  73 102 144 179 222 275 314
#     4  10  20  35  53  80 109 135 174 218 260 326
#     4  10  18  32  54  78 113 149 172 210 277 337
#     4  10  22  35  51  81 110 138 189 234 266 319
#     4  11  20  32  58  91 115 133 161 208 267 324
#     4   9  17  30  48  70 102 143 176 207 253 309
#
# _framework density 17.514738000000001
#
# number of rings (size 3 to 8) (size 9 to 14) (size 15 to 20)
#    0.000    2.273    0.909    2.182    1.273    2.000 
#    0.000    2.727    0.000    8.182    0.000    0.000 
#    0.000    0.000    0.000    0.000    0.000    0.000 
#
# Total GULP energy -545338.414660 kJ/mol
# GULP energy per Si atom -12394.054879 kJ/mol
# Density = 1.747487 g / cm^3
# Si number density = 17.514738 Si / 1000 Ang^3
#
#
#
# Elastic Constant Matrix: (Units=GPa)
#
#
# Indices 1 2 3 4 5 6 
#
# 1 64.5077 36.1720 36.8026 0.0000 0.0000 0.0000
# 2 36.1720 106.1075 42.4200 0.0000 0.0000 0.0000
# 3 36.8026 42.4200 113.0245 0.0000 0.0000 0.0000
# 4 0.0000 0.0000 0.0000 19.8835 0.0000 0.0000
# 5 0.0000 0.0000 0.0000 0.0000 18.7763 0.0000
# 6 0.0000 0.0000 0.0000 0.0000 0.0000 27.3293
#
#
#
# Elastic Compliance Matrix: (Units=1/GPa)
#
#
# Indices 1 2 3 4 5 6 
#
# 1 0.021285 -0.005277 -0.004950 0.000000 0.000000 0.000000
# 2 -0.005277 0.012396 -0.002934 0.000000 0.000000 0.000000
# 3 -0.004950 -0.002934 0.011561 0.000000 0.000000 0.000000
# 4 0.000000 0.000000 0.000000 0.050293 0.000000 0.000000
# 5 0.000000 0.000000 0.000000 0.000000 0.053259 0.000000
# 6 0.000000 0.000000 0.000000 0.000000 0.000000 0.036591
#
#
# Mechanical properties :
#
#
# Convention : Reuss Voigt Hill
#
# Bulk Modulus (GPa) = 52.85618 57.15875 55.00746
# Shear Modulus (GPa) = 22.93424 24.41416 23.67420
#
# Velocity S-wave (km/s) = 3.62252 3.73758 3.68050
# Velocity P-wave (km/s) = 6.90945 7.16460 7.03818
#
# Compressibility (1/GPa) = 0.01891926
#
# Stress axis : x y z
#
# Youngs Moduli (GPa) = 46.98076 80.66821 86.49923
#
# Poissons Ratio (x) = 0.42570 0.42819
# Poissons Ratio (y) = 0.24792 0.25381
# Poissons Ratio (z) = 0.23257 0.23670
#
# Static dielectric constant tensor:
#      x y z
#    x 2.572790 0.000000 0.000000 
#    y 0.000000 3.321730 0.000000 
#    z 0.000000 0.000000 2.910400 
# 
# 
# High freq. dielectric constant tensor:
#      x y z
#    x 1.697020 0.000000 0.000000 
#    y 0.000000 1.670960 0.000000 
#    z 0.000000 0.000000 1.648810 
# 
# From -- ./inp_files/38679.got.cif
#   From: 2010.03.12/outbox.cif.g09.slc.cpg/sg65_20_cif.got.tgz:38679.got - 2010.04.10 20:52:16.
