data_PCOD8266039
_publ_section_title
;
Structure prediction by ZEFSAII (Michael W. Deem and Ramdas Pophale) SiO2 
 PCOD8266039
Probable space group: C M M M
;
_chemical_formula_sum "Si O2"
_cell_formula_units_Z 112
_cell_length_a 28.760242
_cell_length_b 25.399294
_cell_length_c 9.551997
_cell_angle_alpha 90.000000
_cell_angle_beta 90.000000
_cell_angle_gamma 90.000000
_cell_volume 6977.636780
_symmetry_space_group_name_H-M "C M M M"
_symmetry_group_IT_number 65
_symmetry_cell_setting 'orthorhombic'
loop_
_space_group_symop_operation_xyz
x,y,z
-x,-y,z
x,-y,-z
-x,y,-z
-x,-y,-z
x,y,-z
-x,y,z
x,-y,z
1/2+x,1/2+y,z
1/2-x,1/2-y,z
1/2+x,1/2-y,-z
1/2-x,1/2+y,-z
1/2-x,1/2-y,-z
1/2+x,1/2+y,-z
1/2-x,1/2+y,z
1/2+x,1/2-y,z
loop_
_atom_site_type_symbol
_atom_site_label
_atom_site_fract_x
_atom_site_fract_y
_atom_site_fract_z
Si Si1 0.791638 0.559325 0.661405
Si Si2 0.297214 0.440039 0.161582
Si Si3 0.549995 0.807228 0.665663
Si Si4 0.146842 0.344474 0.335952
Si Si5 0.304204 0.245411 0.837405
Si Si6 0.052810 0.812196 0.662527
Si Si7 0.864002 0.847079 0.162824
O O1 0.777068 0.564009 0.500000
O O2 0.807162 0.500000 0.699669
O O3 0.747540 0.577246 0.750724
O O4 0.834746 0.597184 0.697000
O O5 0.312079 0.500000 0.195818
O O6 0.339434 0.402008 0.201825
O O7 0.283467 0.433004 0.000000
O O8 0.546570 0.806855 0.500000
O O9 0.500000 0.827809 0.725829
O O10 0.593039 0.843095 0.716081
O O11 0.558549 0.747626 0.716340
O O12 0.150323 0.330655 0.500000
O O13 0.176652 0.302085 0.253778
O O14 0.250000 0.250000 0.802775
O O15 0.330034 0.299248 0.794126
O O16 0.312329 0.232370 0.000000
O O17 0.066028 0.817116 0.500000
O O18 0.088154 0.847382 0.751328
O O19 0.000000 0.831670 0.688304
O O20 0.876528 0.844133 0.000000
#
# Coordination Sequence:
#
# PCOD8266039 Si02
#       7
#    16  16  16  16  16  16  16
#     4   9  18  31  46  67  93 119 152 194 232 262
#     4   9  18  33  51  68  88 120 160 191 219 267
#     4   8  14  26  44  65  88 115 149 185 219 260
#     4  10  18  29  47  67  88 119 154 186 222 267
#     4  10  20  31  42  62  95 125 144 174 225 276
#     4   9  17  30  48  68  91 120 153 187 223 271
#     4  10  19  30  46  69  94 119 147 187 233 269
#
# _framework density 16.051279999999998
#
# number of rings (size 3 to 8) (size 9 to 14) (size 15 to 20)
#    0.000    2.714    1.429    1.714    0.000    2.857 
#    0.000    0.000    0.000    1.286    0.000    6.000 
#    0.000    0.000    0.000    4.857    0.000    5.143 
#
# Total GULP energy -694251.459918 kJ/mol
# GULP energy per Si atom -12397.347499 kJ/mol
# Density = 1.601475 g / cm^3
# Si number density = 16.051280 Si / 1000 Ang^3
#
#
#
# Elastic Constant Matrix: (Units=GPa)
#
#
# Indices 1 2 3 4 5 6 
#
# 1 148.0036 70.0714 52.8528 0.0000 0.0000 0.0000
# 2 70.0714 87.0179 38.3518 0.0000 0.0000 0.0000
# 3 52.8528 38.3518 42.6801 0.0000 0.0000 0.0000
# 4 0.0000 0.0000 0.0000 20.2033 0.0000 0.0000
# 5 0.0000 0.0000 0.0000 0.0000 18.6111 0.0000
# 6 0.0000 0.0000 0.0000 0.0000 0.0000 21.9845
#
#
#
# Elastic Compliance Matrix: (Units=1/GPa)
#
#
# Indices 1 2 3 4 5 6 
#
# 1 0.013726 -0.005897 -0.011699 0.000000 0.000000 0.000000
# 2 -0.005897 0.021561 -0.012072 0.000000 0.000000 0.000000
# 3 -0.011699 -0.012072 0.048765 0.000000 0.000000 0.000000
# 4 0.000000 0.000000 0.000000 0.049497 0.000000 0.000000
# 5 0.000000 0.000000 0.000000 0.000000 0.053731 0.000000
# 6 0.000000 0.000000 0.000000 0.000000 0.000000 0.045487
#
#
# Mechanical properties :
#
#
# Convention : Reuss Voigt Hill
#
# Bulk Modulus (GPa) = 40.45840 66.69485 53.57663
# Shear Modulus (GPa) = 16.64770 19.92148 18.28459
#
# Velocity S-wave (km/s) = 3.22399 3.52677 3.37877
# Velocity P-wave (km/s) = 6.25454 7.63056 6.97656
#
# Compressibility (1/GPa) = 0.02471674
#
# Stress axis : x y z
#
# Youngs Moduli (GPa) = 72.85343 46.38018 20.50643
#
# Poissons Ratio (x) = 0.27350 0.23990
# Poissons Ratio (y) = 0.42961 0.24755
# Poissons Ratio (z) = 0.85230 0.55990
#
# Static dielectric constant tensor:
#      x y z
#    x 3.341710 0.000000 0.000000 
#    y 0.000000 3.028210 0.000000 
#    z 0.000000 0.000000 2.916230 
# 
# 
# High freq. dielectric constant tensor:
#      x y z
#    x 1.619960 0.000000 0.000000 
#    y 0.000000 1.600870 0.000000 
#    z 0.000000 0.000000 1.603860 
# 
# From -- ./inp_files/31238.got.cif
#   From: 2010.03.12/outbox.cif.g09.slc.cpg/sg65_16_cif.got.tgz:31238.got - 2010.04.10 20:52:16.
