data_PCOD8266531
_publ_section_title
;
Structure prediction by ZEFSAII (Michael W. Deem and Ramdas Pophale) SiO2 
 PCOD8266531
Probable space group: C M M M
;
_chemical_formula_sum "Si O2"
_cell_formula_units_Z 72
_cell_length_a 14.755884
_cell_length_b 38.358512
_cell_length_c 8.035177
_cell_angle_alpha 90.000000
_cell_angle_beta 90.000000
_cell_angle_gamma 90.000000
_cell_volume 4548.020694
_symmetry_space_group_name_H-M "C M M M"
_symmetry_group_IT_number 65
_symmetry_cell_setting 'orthorhombic'
loop_
_space_group_symop_operation_xyz
x,y,z
-x,-y,z
x,-y,-z
-x,y,-z
-x,-y,-z
x,y,-z
-x,y,z
x,-y,z
1/2+x,1/2+y,z
1/2-x,1/2-y,z
1/2+x,1/2-y,-z
1/2-x,1/2+y,-z
1/2-x,1/2-y,-z
1/2+x,1/2+y,-z
1/2-x,1/2+y,z
1/2+x,1/2-y,z
loop_
_atom_site_type_symbol
_atom_site_label
_atom_site_fract_x
_atom_site_fract_y
_atom_site_fract_z
Si Si1 0.679117 0.340252 0.192537
Si Si2 0.394065 0.414408 0.189911
Si Si3 0.000000 0.270125 0.192384
Si Si4 0.000000 0.193855 0.199072
Si Si5 0.693341 0.216904 0.690371
Si Si6 0.606833 0.538680 0.500000
O O1 0.673448 0.381801 0.218874
O O2 0.587688 0.325047 0.270995
O O3 0.760449 0.320830 0.286045
O O4 0.689396 0.330667 0.000000
O O5 0.500000 0.403595 0.213085
O O6 0.363093 0.442264 0.328945
O O7 0.380922 0.428769 0.000000
O O8 0.092789 0.289487 0.238214
O O9 0.000000 0.232256 0.277325
O O10 0.000000 0.263545 0.000000
O O11 0.000000 0.191635 0.000000
O O12 0.681914 0.226100 0.500000
O O13 0.750000 0.250000 0.771865
O O14 0.650438 0.500000 0.500000
O O15 0.500000 0.535630 0.500000
#
# Coordination Sequence:
#
# PCOD8266531 Si02
#       6
#    16  16   8   8  16   8
#     4  10  18  31  48  68  89 119 162 203 241 281
#     4   9  17  29  46  68  94 124 159 200 239 276
#     4  11  21  35  51  63  83 119 160 204 244 286
#     4   9  16  27  47  67  85 112 157 207 241 276
#     4  11  23  34  45  66  93 120 153 199 251 293
#     4   9  18  30  44  66  95 127 161 191 227 282
#
# _framework density 15.831061999999999
#
# number of rings (size 3 to 8) (size 9 to 14) (size 15 to 20)
#    0.000    2.111    3.333    1.000    1.556    1.333 
#    0.000    2.778    0.000    0.000    0.000    0.000 
#    0.000    0.000    0.000    2.000    0.000   12.000 
#
# Total GULP energy -446059.694343 kJ/mol
# GULP energy per Si atom -12390.547065 kJ/mol
# Density = 1.579503 g / cm^3
# Si number density = 15.831062 Si / 1000 Ang^3
#
#
#
# Elastic Constant Matrix: (Units=GPa)
#
#
# Indices 1 2 3 4 5 6 
#
# 1 90.0070 33.4488 20.7447 0.0000 0.0000 0.0000
# 2 33.4488 93.3615 41.7191 0.0000 0.0000 0.0000
# 3 20.7447 41.7191 69.0175 0.0000 0.0000 0.0000
# 4 0.0000 0.0000 0.0000 22.4994 0.0000 0.0000
# 5 0.0000 0.0000 0.0000 0.0000 15.7139 0.0000
# 6 0.0000 0.0000 0.0000 0.0000 0.0000 11.3785
#
#
#
# Elastic Compliance Matrix: (Units=1/GPa)
#
#
# Indices 1 2 3 4 5 6 
#
# 1 0.012927 -0.003967 -0.001488 0.000000 0.000000 0.000000
# 2 -0.003967 0.015892 -0.008414 0.000000 0.000000 0.000000
# 3 -0.001488 -0.008414 0.020022 0.000000 0.000000 0.000000
# 4 0.000000 0.000000 0.000000 0.044446 0.000000 0.000000
# 5 0.000000 0.000000 0.000000 0.000000 0.063638 0.000000
# 6 0.000000 0.000000 0.000000 0.000000 0.000000 0.087885
#
#
# Mechanical properties :
#
#
# Convention : Reuss Voigt Hill
#
# Bulk Modulus (GPa) = 47.38303 49.35682 48.36993
# Shear Modulus (GPa) = 17.88382 20.34991 19.11686
#
# Velocity S-wave (km/s) = 3.36470 3.58920 3.47876
# Velocity P-wave (km/s) = 6.71493 6.95854 6.83782
#
# Compressibility (1/GPa) = 0.02110460
#
# Stress axis : x y z
#
# Youngs Moduli (GPa) = 77.35594 62.92461 49.94428
#
# Poissons Ratio (x) = 0.24960 0.07431
# Poissons Ratio (y) = 0.30684 0.42023
# Poissons Ratio (z) = 0.11510 0.52945
#
# Static dielectric constant tensor:
#      x y z
#    x 2.966830 0.000000 0.000000 
#    y 0.000000 2.926460 0.000000 
#    z 0.000000 0.000000 3.005140 
# 
# 
# High freq. dielectric constant tensor:
#      x y z
#    x 1.569800 0.000000 0.000000 
#    y 0.000000 1.583160 0.000000 
#    z 0.000000 0.000000 1.613120 
# 
# From -- ./inp_files/7728.got.cif
#   From: 2010.03.12/outbox.cif.g09.slc.cpg/sg65_4_cif.got.tgz:7728.got - 2010.04.10 20:52:16.
