data_PCOD8266718
_publ_section_title
;
Structure prediction by ZEFSAII (Michael W. Deem and Ramdas Pophale) SiO2 
 PCOD8266718
Probable space group: C M M M
;
_chemical_formula_sum "Si O2"
_cell_formula_units_Z 72
_cell_length_a 13.290695
_cell_length_b 18.791683
_cell_length_c 18.392105
_cell_angle_alpha 90.000000
_cell_angle_beta 90.000000
_cell_angle_gamma 90.000000
_cell_volume 4593.511490
_symmetry_space_group_name_H-M "C M M M"
_symmetry_group_IT_number 65
_symmetry_cell_setting 'orthorhombic'
loop_
_space_group_symop_operation_xyz
x,y,z
-x,-y,z
x,-y,-z
-x,y,-z
-x,-y,-z
x,y,-z
-x,y,z
x,-y,z
1/2+x,1/2+y,z
1/2-x,1/2-y,z
1/2+x,1/2-y,-z
1/2-x,1/2+y,-z
1/2-x,1/2-y,-z
1/2+x,1/2+y,-z
1/2-x,1/2+y,z
1/2+x,1/2-y,z
loop_
_atom_site_type_symbol
_atom_site_label
_atom_site_fract_x
_atom_site_fract_y
_atom_site_fract_z
Si Si1 0.616171 0.143469 0.273882
Si Si2 0.387148 0.000000 0.186257
Si Si3 0.750000 0.250000 0.816315
Si Si4 0.619343 0.920364 0.579915
Si Si5 0.616244 0.350184 0.915573
Si Si6 0.202665 0.000000 0.915331
O O1 0.500000 0.167465 0.272130
O O2 0.631822 0.068608 0.234862
O O3 0.680540 0.203493 0.235463
O O4 0.656759 0.132936 0.356728
O O5 0.500000 0.000000 0.154197
O O6 0.312676 0.000000 0.118885
O O7 0.681441 0.297566 0.867666
O O8 0.651553 0.891148 0.500000
O O9 0.500000 0.925859 0.585832
O O10 0.663792 0.000000 0.590835
O O11 0.500000 0.333891 0.900727
O O12 0.639166 0.431053 0.891730
O O13 0.643412 0.338111 0.000000
O O14 0.222872 0.000000 0.000000
#
# Coordination Sequence:
#
# PCOD8266718 Si02
#       6
#    16   8   8  16  16   8
#     4  10  19  31  48  71  97 126 156 192 236 279
#     4  10  18  32  50  70  98 125 155 198 238 280
#     4  12  21  32  49  68 100 130 152 190 239 296
#     4   8  13  24  45  70  93 119 153 191 228 270
#     4  10  21  36  52  69  90 122 164 204 240 280
#     4  10  19  35  54  70  90 121 162 205 240 277
#
# _framework density 15.674284
#
# number of rings (size 3 to 8) (size 9 to 14) (size 15 to 20)
#    0.000    2.222    3.333    2.000    0.000    1.556 
#    0.000    0.556    0.000    0.000    0.000    0.000 
#    0.000    0.000    0.000    7.556    0.000    1.111 
#
# Total GULP energy -446259.653815 kJ/mol
# GULP energy per Si atom -12396.101495 kJ/mol
# Density = 1.563861 g / cm^3
# Si number density = 15.674284 Si / 1000 Ang^3
#
#
#
# Elastic Constant Matrix: (Units=GPa)
#
#
# Indices 1 2 3 4 5 6 
#
# 1 72.3584 51.8230 57.7381 0.0000 0.0000 0.0000
# 2 51.8230 111.5982 70.5810 0.0000 0.0000 0.0000
# 3 57.7381 70.5810 101.6109 0.0000 0.0000 0.0000
# 4 0.0000 0.0000 0.0000 15.5143 0.0000 0.0000
# 5 0.0000 0.0000 0.0000 0.0000 15.1310 0.0000
# 6 0.0000 0.0000 0.0000 0.0000 0.0000 27.0016
#
#
#
# Elastic Compliance Matrix: (Units=1/GPa)
#
#
# Indices 1 2 3 4 5 6 
#
# 1 0.026770 -0.005013 -0.011729 0.000000 0.000000 0.000000
# 2 -0.005013 0.016920 -0.008905 0.000000 0.000000 0.000000
# 3 -0.011729 -0.008905 0.022692 0.000000 0.000000 0.000000
# 4 0.000000 0.000000 0.000000 0.064457 0.000000 0.000000
# 5 0.000000 0.000000 0.000000 0.000000 0.066090 0.000000
# 6 0.000000 0.000000 0.000000 0.000000 0.000000 0.037035
#
#
# Mechanical properties :
#
#
# Convention : Reuss Voigt Hill
#
# Bulk Modulus (GPa) = 66.27754 71.76129 69.01942
# Shear Modulus (GPa) = 17.22439 18.55774 17.89107
#
# Velocity S-wave (km/s) = 3.31855 3.44461 3.38217
# Velocity P-wave (km/s) = 7.55379 7.85510 7.70592
#
# Compressibility (1/GPa) = 0.01508807
#
# Stress axis : x y z
#
# Youngs Moduli (GPa) = 37.35592 59.10008 44.06874
#
# Poissons Ratio (x) = 0.29626 0.51689
# Poissons Ratio (y) = 0.18726 0.39243
# Poissons Ratio (z) = 0.43816 0.52628
#
# Static dielectric constant tensor:
#      x y z
#    x 2.813720 0.000000 0.000000 
#    y 0.000000 3.027550 0.000000 
#    z 0.000000 0.000000 3.233130 
# 
# 
# High freq. dielectric constant tensor:
#      x y z
#    x 1.577540 0.000000 0.000000 
#    y 0.000000 1.598130 0.000000 
#    z 0.000000 0.000000 1.607810 
# 
# From -- ./inp_files/51190.got.cif
#   From: 2010.03.12/outbox.cif.g09.slc.cpg/sg65_26_cif.got.tgz:51190.got - 2010.04.10 20:52:16.
