data_PCOD8266817
_publ_section_title
;
Structure prediction by ZEFSAII (Michael W. Deem and Ramdas Pophale) SiO2 
 PCOD8266817
Probable space group: C M M M
;
_chemical_formula_sum "Si O2"
_cell_formula_units_Z 104
_cell_length_a 8.628967
_cell_length_b 18.689338
_cell_length_c 33.447641
_cell_angle_alpha 90.000000
_cell_angle_beta 90.000000
_cell_angle_gamma 90.000000
_cell_volume 5394.090389
_symmetry_space_group_name_H-M "C M M M"
_symmetry_group_IT_number 65
_symmetry_cell_setting 'orthorhombic'
loop_
_space_group_symop_operation_xyz
x,y,z
-x,-y,z
x,-y,-z
-x,y,-z
-x,-y,-z
x,y,-z
-x,y,z
x,-y,z
1/2+x,1/2+y,z
1/2-x,1/2-y,z
1/2+x,1/2-y,-z
1/2-x,1/2+y,-z
1/2-x,1/2-y,-z
1/2+x,1/2+y,-z
1/2-x,1/2+y,z
1/2+x,1/2-y,z
loop_
_atom_site_type_symbol
_atom_site_label
_atom_site_fract_x
_atom_site_fract_y
_atom_site_fract_z
Si Si1 0.315746 0.579945 0.117032
Si Si2 0.318625 0.828169 0.419460
Si Si3 0.315786 0.670969 0.192541
Si Si4 0.816692 0.170555 0.500000
Si Si5 0.677600 0.416156 0.650409
Si Si6 0.817818 0.417745 0.265034
Si Si7 0.183371 0.174060 0.955241
O O1 0.500000 0.577106 0.117107
O O2 0.246537 0.500000 0.120414
O O3 0.256359 0.626671 0.154200
O O4 0.254930 0.614574 0.075656
O O5 0.500000 0.820741 0.425912
O O6 0.250000 0.750000 0.411654
O O7 0.245452 0.865752 0.459191
O O8 0.283434 0.877350 0.381822
O O9 0.500000 0.673351 0.195032
O O10 0.250000 0.750000 0.188938
O O11 0.249370 0.633147 0.231402
O O12 0.750000 0.250000 0.500000
O O13 0.000000 0.169540 0.500000
O O14 0.500000 0.391769 0.645689
O O15 0.697577 0.500000 0.643652
O O16 0.736726 0.394053 0.694033
O O17 0.777481 0.500000 0.254523
O O18 0.000000 0.406115 0.269433
O O19 0.250000 0.250000 0.941733
O O20 0.000000 0.179591 0.953550
O O21 0.239922 0.153633 0.000000
#
# Coordination Sequence:
#
# PCOD8266817 Si02
#       7
#    16  16  16   8  16  16  16
#     4   9  18  32  51  76 104 135 174 219 265 315
#     4  11  21  35  56  82 112 145 185 229 274 323
#     4  11  22  36  55  78 106 139 176 219 267 317
#     4  10  18  32  53  78 109 144 185 229 277 327
#     4  10  21  38  59  83 112 145 180 219 268 324
#     4  10  21  38  59  82 108 138 174 216 263 318
#     4   9  17  30  50  75 103 136 173 215 263 314
#
# _framework density 19.280360000000002
#
# number of rings (size 3 to 8) (size 9 to 14) (size 15 to 20)
#    0.000    2.000    0.000    5.308    0.000    3.385 
#    0.000    5.769    0.000    4.615    0.000    2.154 
#    0.000    0.000    0.000    0.000    0.000    0.000 
#
# Total GULP energy -644864.883087 kJ/mol
# GULP energy per Si atom -12401.247752 kJ/mol
# Density = 1.923648 g / cm^3
# Si number density = 19.280360 Si / 1000 Ang^3
#
#
#
# Elastic Constant Matrix: (Units=GPa)
#
#
# Indices 1 2 3 4 5 6 
#
# 1 88.1705 30.9854 34.6512 0.0000 0.0000 0.0000
# 2 30.9854 112.7016 82.0477 0.0000 0.0000 0.0000
# 3 34.6512 82.0477 149.8529 0.0000 0.0000 0.0000
# 4 0.0000 0.0000 0.0000 21.7801 0.0000 0.0000
# 5 0.0000 0.0000 0.0000 0.0000 24.3106 0.0000
# 6 0.0000 0.0000 0.0000 0.0000 0.0000 24.8800
#
#
#
# Elastic Compliance Matrix: (Units=1/GPa)
#
#
# Indices 1 2 3 4 5 6 
#
# 1 0.012816 -0.002271 -0.001720 0.000000 0.000000 0.000000
# 2 -0.002271 0.015156 -0.007773 0.000000 0.000000 0.000000
# 3 -0.001720 -0.007773 0.011327 0.000000 0.000000 0.000000
# 4 0.000000 0.000000 0.000000 0.045914 0.000000 0.000000
# 5 0.000000 0.000000 0.000000 0.000000 0.041134 0.000000
# 6 0.000000 0.000000 0.000000 0.000000 0.000000 0.040193
#
#
# Mechanical properties :
#
#
# Convention : Reuss Voigt Hill
#
# Bulk Modulus (GPa) = 63.41085 71.78817 67.59951
# Shear Modulus (GPa) = 25.59827 27.73018 26.66423
#
# Velocity S-wave (km/s) = 3.64770 3.79656 3.72287
# Velocity P-wave (km/s) = 7.12047 7.51885 7.32237
#
# Compressibility (1/GPa) = 0.01577017
#
# Stress axis : x y z
#
# Youngs Moduli (GPa) = 78.02870 65.97835 88.28537
#
# Poissons Ratio (x) = 0.14987 0.15183
# Poissons Ratio (y) = 0.17724 0.68626
# Poissons Ratio (z) = 0.13419 0.51287
#
# Static dielectric constant tensor:
#      x y z
#    x 3.470080 0.000000 0.000000 
#    y 0.000000 3.388670 0.000000 
#    z 0.000000 0.000000 3.946010 
# 
# 
# High freq. dielectric constant tensor:
#      x y z
#    x 1.746870 0.000000 0.000000 
#    y 0.000000 1.737900 0.000000 
#    z 0.000000 0.000000 1.770230 
# 
# From -- ./inp_files/73369.got.cif
#   From: 2010.03.12/outbox.cif.g09.slc.cpg/sg65_37_cif.got.tgz:73369.got - 2010.04.10 20:52:16.
