data_PCOD8266209
_publ_section_title
;
Structure prediction by ZEFSAII (Michael W. Deem and Ramdas Pophale) SiO2 
 PCOD8266209
Probable space group: C M M M
;
_chemical_formula_sum "Si O2"
_cell_formula_units_Z 120
_cell_length_a 28.570420
_cell_length_b 14.321164
_cell_length_c 15.584785
_cell_angle_alpha 90.000000
_cell_angle_beta 90.000000
_cell_angle_gamma 90.000000
_cell_volume 6376.696663
_symmetry_space_group_name_H-M "C M M M"
_symmetry_group_IT_number 65
_symmetry_cell_setting 'orthorhombic'
loop_
_space_group_symop_operation_xyz
x,y,z
-x,-y,z
x,-y,-z
-x,y,-z
-x,-y,-z
x,y,-z
-x,y,z
x,-y,z
1/2+x,1/2+y,z
1/2-x,1/2-y,z
1/2+x,1/2-y,-z
1/2-x,1/2+y,-z
1/2-x,1/2-y,-z
1/2+x,1/2+y,-z
1/2-x,1/2+y,z
1/2+x,1/2-y,z
loop_
_atom_site_type_symbol
_atom_site_label
_atom_site_fract_x
_atom_site_fract_y
_atom_site_fract_z
Si Si1 0.799004 0.109414 0.236394
Si Si2 0.946410 0.695187 0.155136
Si Si3 0.800930 0.783305 0.406622
Si Si4 0.192607 0.605236 0.811600
Si Si5 0.851153 0.396874 0.629588
Si Si6 0.948858 0.500000 0.900532
Si Si7 0.050037 0.603648 0.326141
Si Si8 0.853148 0.226612 0.900344
O O1 0.817369 0.152971 0.326981
O O2 0.744721 0.133543 0.219096
O O3 0.830147 0.146841 0.158173
O O4 0.807021 0.000000 0.244080
O O5 0.923690 0.596492 0.124304
O O6 0.947812 0.688121 0.257800
O O7 0.908958 0.771062 0.121929
O O8 0.000000 0.714117 0.120137
O O9 0.803363 0.835746 0.500000
O O10 0.750000 0.750000 0.382762
O O11 0.828958 0.687464 0.421321
O O12 0.192367 0.500000 0.849231
O O13 0.158033 0.614526 0.730919
O O14 0.174004 0.676044 0.883468
O O15 0.832838 0.500000 0.599286
O O16 0.906543 0.387783 0.609621
O O17 0.000000 0.500000 0.854944
O O18 0.955436 0.500000 0.000000
O O19 0.053410 0.500000 0.281217
O O20 0.000000 0.611559 0.375443
O O21 0.846860 0.200098 0.000000
#
# Coordination Sequence:
#
# PCOD8266209 Si02
#       8
#    16  16  16  16  16   8  16  16
#     4  11  23  42  60  75 106 145 188 241 289 325
#     4  10  18  30  46  71 109 143 177 224 278 333
#     4  11  21  35  58  88 116 141 177 223 277 339
#     4  10  20  35  55  78 110 150 181 217 270 328
#     4  10  18  32  53  79 117 153 178 209 260 324
#     4   9  16  24  36  60 100 142 167 197 257 325
#     4   9  15  25  46  73 104 147 190 217 244 300
#     4  12  24  36  55  80 108 146 194 236 275 326
#
# _framework density 18.818521
#
# number of rings (size 3 to 8) (size 9 to 14) (size 15 to 20)
#    0.000    1.667    4.667    0.800    0.933    2.933 
#    0.000    2.667    0.000    0.800    0.000    2.800 
#    0.000    0.000    0.000    5.600    0.000    0.133 
#
# Total GULP energy -743309.204355 kJ/mol
# GULP energy per Si atom -12388.486739 kJ/mol
# Density = 1.877569 g / cm^3
# Si number density = 18.818521 Si / 1000 Ang^3
#
#
#
# Elastic Constant Matrix: (Units=GPa)
#
#
# Indices 1 2 3 4 5 6 
#
# 1 114.5152 44.0065 26.1686 0.0000 0.0000 0.0000
# 2 44.0065 79.1917 36.0083 0.0000 0.0000 0.0000
# 3 26.1686 36.0083 90.5175 0.0000 0.0000 0.0000
# 4 0.0000 0.0000 0.0000 8.8770 0.0000 0.0000
# 5 0.0000 0.0000 0.0000 0.0000 26.7862 0.0000
# 6 0.0000 0.0000 0.0000 0.0000 0.0000 26.4300
#
#
#
# Elastic Compliance Matrix: (Units=1/GPa)
#
#
# Indices 1 2 3 4 5 6 
#
# 1 0.011167 -0.005784 -0.000928 0.000000 0.000000 0.000000
# 2 -0.005784 0.018412 -0.005652 0.000000 0.000000 0.000000
# 3 -0.000928 -0.005652 0.013564 0.000000 0.000000 0.000000
# 4 0.000000 0.000000 0.000000 0.112651 0.000000 0.000000
# 5 0.000000 0.000000 0.000000 0.000000 0.037333 0.000000
# 6 0.000000 0.000000 0.000000 0.000000 0.000000 0.037836
#
#
# Mechanical properties :
#
#
# Convention : Reuss Voigt Hill
#
# Bulk Modulus (GPa) = 54.30085 55.17681 54.73883
# Shear Modulus (GPa) = 19.09655 24.28805 21.69230
#
# Velocity S-wave (km/s) = 3.18901 3.59645 3.39884
# Velocity P-wave (km/s) = 6.51746 6.82862 6.67486
#
# Compressibility (1/GPa) = 0.01841592
#
# Stress axis : x y z
#
# Youngs Moduli (GPa) = 89.54936 54.31367 73.72348
#
# Poissons Ratio (x) = 0.31413 0.06839
# Poissons Ratio (y) = 0.51793 0.41670
# Poissons Ratio (z) = 0.08307 0.30699
#
# Static dielectric constant tensor:
#      x y z
#    x 3.540750 0.000000 0.000000 
#    y 0.000000 3.420410 0.000000 
#    z 0.000000 0.000000 3.164320 
# 
# 
# High freq. dielectric constant tensor:
#      x y z
#    x 1.734160 0.000000 0.000000 
#    y 0.000000 1.690720 0.000000 
#    z 0.000000 0.000000 1.716200 
# 
# From -- ./inp_files/48102.got.cif
#   From: 2010.03.12/outbox.cif.g09.slc.cpg/sg65_25_cif.got.tgz:48102.got - 2010.04.10 20:52:16.
