data_PCOD8266029
_publ_section_title
;
Structure prediction by ZEFSAII (Michael W. Deem and Ramdas Pophale) SiO2 
 PCOD8266029
Probable space group: C M M M
;
_chemical_formula_sum "Si O2"
_cell_formula_units_Z 88
_cell_length_a 26.939535
_cell_length_b 9.056931
_cell_length_c 21.466691
_cell_angle_alpha 90.000000
_cell_angle_beta 90.000000
_cell_angle_gamma 90.000000
_cell_volume 5237.647411
_symmetry_space_group_name_H-M "C M M M"
_symmetry_group_IT_number 65
_symmetry_cell_setting 'orthorhombic'
loop_
_space_group_symop_operation_xyz
x,y,z
-x,-y,z
x,-y,-z
-x,y,-z
-x,-y,-z
x,y,-z
-x,y,z
x,-y,z
1/2+x,1/2+y,z
1/2-x,1/2-y,z
1/2+x,1/2-y,-z
1/2-x,1/2+y,-z
1/2-x,1/2-y,-z
1/2+x,1/2+y,-z
1/2-x,1/2+y,z
1/2+x,1/2-y,z
loop_
_atom_site_type_symbol
_atom_site_label
_atom_site_fract_x
_atom_site_fract_y
_atom_site_fract_z
Si Si1 0.099499 0.672624 0.928818
Si Si2 0.199850 0.330102 0.867059
Si Si3 0.199435 0.832261 0.500000
Si Si4 0.358234 0.826237 0.744740
Si Si5 0.803614 0.826121 0.364713
Si Si6 0.443060 0.669868 0.815675
O O1 0.091846 0.500000 0.913489
O O2 0.156391 0.717390 0.914537
O O3 0.062959 0.766204 0.885400
O O4 0.086700 0.709546 0.000000
O O5 0.211928 0.500000 0.873853
O O6 0.250000 0.250000 0.885825
O O7 0.183178 0.291353 0.796840
O O8 0.250000 0.750000 0.500000
O O9 0.172336 0.797246 0.565911
O O10 0.215574 0.000000 0.500000
O O11 0.342732 0.745765 0.681737
O O12 0.411006 0.762627 0.766503
O O13 0.363960 0.000000 0.733270
O O14 0.750000 0.750000 0.357535
O O15 0.797654 0.000000 0.350559
O O16 0.500000 0.684906 0.795340
O O17 0.425670 0.500000 0.815193
#
# Coordination Sequence:
#
# PCOD8266029 Si02
#       6
#    16  16   8  16  16  16
#     4   9  19  35  51  68  93 124 157 191 230 283
#     4   9  18  30  44  64  91 122 155 190 226 268
#     4   8  16  28  42  64  97 136 171 200 230 269
#     4  10  20  33  49  70  95 125 161 198 238 286
#     4  10  18  29  46  70 102 137 170 201 234 273
#     4  10  21  36  53  73  95 117 147 194 247 294
#
# _framework density 16.801435999999999
#
# number of rings (size 3 to 8) (size 9 to 14) (size 15 to 20)
#    0.000    2.545    0.000    3.273    0.000    8.364 
#    0.000    1.818    0.000    0.000    0.000    0.636 
#    0.000    5.091    0.000    0.000    0.000    0.000 
#
# Total GULP energy -545410.185923 kJ/mol
# GULP energy per Si atom -12395.686044 kJ/mol
# Density = 1.676320 g / cm^3
# Si number density = 16.801436 Si / 1000 Ang^3
#
#
#
# Elastic Constant Matrix: (Units=GPa)
#
#
# Indices 1 2 3 4 5 6 
#
# 1 67.9455 37.3854 31.6881 0.0000 0.0000 0.0000
# 2 37.3854 86.3507 51.7381 0.0000 0.0000 0.0000
# 3 31.6881 51.7381 113.1705 0.0000 0.0000 0.0000
# 4 0.0000 0.0000 0.0000 27.2938 0.0000 0.0000
# 5 0.0000 0.0000 0.0000 0.0000 3.1627 0.0000
# 6 0.0000 0.0000 0.0000 0.0000 0.0000 27.8788
#
#
#
# Elastic Compliance Matrix: (Units=1/GPa)
#
#
# Indices 1 2 3 4 5 6 
#
# 1 0.019720 -0.007202 -0.002229 0.000000 0.000000 0.000000
# 2 -0.007202 0.018580 -0.006478 0.000000 0.000000 0.000000
# 3 -0.002229 -0.006478 0.012422 0.000000 0.000000 0.000000
# 4 0.000000 0.000000 0.000000 0.036638 0.000000 0.000000
# 5 0.000000 0.000000 0.000000 0.000000 0.316186 0.000000
# 6 0.000000 0.000000 0.000000 0.000000 0.000000 0.035870
#
#
# Mechanical properties :
#
#
# Convention : Reuss Voigt Hill
#
# Bulk Modulus (GPa) = 52.89850 56.56555 54.73203
# Shear Modulus (GPa) = 10.47044 21.44408 15.95726
#
# Velocity S-wave (km/s) = 2.49908 3.57644 3.08515
# Velocity P-wave (km/s) = 6.31507 7.12705 6.73331
#
# Compressibility (1/GPa) = 0.01890413
#
# Stress axis : x y z
#
# Youngs Moduli (GPa) = 50.70959 53.82134 80.50428
#
# Poissons Ratio (x) = 0.38763 0.17945
# Poissons Ratio (y) = 0.36522 0.52147
# Poissons Ratio (z) = 0.11303 0.34863
#
# Static dielectric constant tensor:
#      x y z
#    x 2.873220 0.000000 0.000000 
#    y 0.000000 3.241040 0.000000 
#    z 0.000000 0.000000 3.951500 
# 
# 
# High freq. dielectric constant tensor:
#      x y z
#    x 1.619470 0.000000 0.000000 
#    y 0.000000 1.659960 0.000000 
#    z 0.000000 0.000000 1.647190 
# 
# From -- ./inp_files/65762.got.cif
#   From: 2010.03.12/outbox.cif.g09.slc.cpg/sg65_33_cif.got.tgz:65762.got - 2010.04.10 20:52:16.
