data_PCOD8266173
_publ_section_title
;
Structure prediction by ZEFSAII (Michael W. Deem and Ramdas Pophale) SiO2 
 PCOD8266173
Probable space group: C M M M
;
_chemical_formula_sum "Si O2"
_cell_formula_units_Z 104
_cell_length_a 24.330874
_cell_length_b 21.164838
_cell_length_c 12.351739
_cell_angle_alpha 90.000000
_cell_angle_beta 90.000000
_cell_angle_gamma 90.000000
_cell_volume 6360.639245
_symmetry_space_group_name_H-M "C M M M"
_symmetry_group_IT_number 65
_symmetry_cell_setting 'orthorhombic'
loop_
_space_group_symop_operation_xyz
x,y,z
-x,-y,z
x,-y,-z
-x,y,-z
-x,-y,-z
x,y,-z
-x,y,z
x,-y,z
1/2+x,1/2+y,z
1/2-x,1/2-y,z
1/2+x,1/2-y,-z
1/2-x,1/2+y,-z
1/2-x,1/2-y,-z
1/2+x,1/2+y,-z
1/2-x,1/2+y,z
1/2+x,1/2-y,z
loop_
_atom_site_type_symbol
_atom_site_label
_atom_site_fract_x
_atom_site_fract_y
_atom_site_fract_z
Si Si1 0.260461 0.148077 0.182343
Si Si2 0.281883 0.073771 0.379691
Si Si3 0.560662 0.121675 0.000000
Si Si4 0.320700 0.928194 0.000000
Si Si5 0.829998 0.762652 0.875237
Si Si6 0.937343 0.500000 0.617876
Si Si7 0.399322 0.128582 0.377065
Si Si8 0.438257 0.217242 0.196395
O O1 0.244135 0.108266 0.290372
O O2 0.294167 0.101893 0.105727
O O3 0.201719 0.170765 0.135024
O O4 0.299697 0.209504 0.198054
O O5 0.255282 0.077567 0.500000
O O6 0.334440 0.119536 0.374969
O O7 0.294604 0.000000 0.351289
O O8 0.612612 0.075003 0.000000
O O9 0.565101 0.163718 0.893433
O O10 0.500000 0.087671 0.000000
O O11 0.302959 0.000000 0.000000
O O12 0.893143 0.770734 0.834940
O O13 0.828129 0.739576 0.000000
O O14 0.905111 0.500000 0.500000
O O15 0.922364 0.435666 0.680182
O O16 0.000000 0.500000 0.591990
O O17 0.421356 0.136145 0.500000
O O18 0.421399 0.188440 0.311986
O O19 0.500000 0.246340 0.202319
#
# Coordination Sequence:
#
# PCOD8266173 Si02
#       8
#    16  16   8   8  16   8  16  16
#     4  11  19  33  50  74  93 123 168 207 250 293
#     4  10  19  32  49  69 101 137 166 200 244 296
#     4  10  20  34  45  62  96 132 168 199 231 284
#     4  12  20  31  52  73  96 124 164 212 250 283
#     4  11  19  34  54  69  95 127 163 210 255 302
#     4   9  16  26  40  57  81 121 169 206 234 263
#     4  10  18  30  45  65  93 126 166 207 238 271
#     4  11  20  32  50  69  92 126 166 203 242 289
#
# _framework density 16.350557999999999
#
# number of rings (size 3 to 8) (size 9 to 14) (size 15 to 20)
#    0.000    1.462    6.154    1.385    0.000    1.077 
#    1.385    2.308    0.000    0.000    0.000    0.000 
#    0.000    3.077    0.000    1.692    0.000    0.000 
#
# Total GULP energy -644241.053228 kJ/mol
# GULP energy per Si atom -12389.251024 kJ/mol
# Density = 1.631334 g / cm^3
# Si number density = 16.350558 Si / 1000 Ang^3
#
#
#
# Elastic Constant Matrix: (Units=GPa)
#
#
# Indices 1 2 3 4 5 6 
#
# 1 103.5277 42.2412 26.1091 0.0000 0.0000 0.0000
# 2 42.2412 51.4114 29.6472 0.0000 0.0000 0.0000
# 3 26.1091 29.6472 82.9137 0.0000 0.0000 0.0000
# 4 0.0000 0.0000 0.0000 21.9579 0.0000 0.0000
# 5 0.0000 0.0000 0.0000 0.0000 78.0665 0.0000
# 6 0.0000 0.0000 0.0000 0.0000 0.0000 19.5099
#
#
#
# Elastic Compliance Matrix: (Units=1/GPa)
#
#
# Indices 1 2 3 4 5 6 
#
# 1 0.014540 -0.011724 -0.000387 0.000000 0.000000 0.000000
# 2 -0.011724 0.033956 -0.008450 0.000000 0.000000 0.000000
# 3 -0.000387 -0.008450 0.015204 0.000000 0.000000 0.000000
# 4 0.000000 0.000000 0.000000 0.045542 0.000000 0.000000
# 5 0.000000 0.000000 0.000000 0.000000 0.012810 0.000000
# 6 0.000000 0.000000 0.000000 0.000000 0.000000 0.051256
#
#
# Mechanical properties :
#
#
# Convention : Reuss Voigt Hill
#
# Bulk Modulus (GPa) = 44.28722 48.20530 46.24626
# Shear Modulus (GPa) = 22.52709 33.23056 27.87883
#
# Velocity S-wave (km/s) = 3.71584 4.51308 4.13373
# Velocity P-wave (km/s) = 6.74943 7.53018 7.15047
#
# Compressibility (1/GPa) = 0.02257988
#
# Stress axis : x y z
#
# Youngs Moduli (GPa) = 68.77458 29.44957 65.77264
#
# Poissons Ratio (x) = 0.34526 0.02543
# Poissons Ratio (y) = 0.80630 0.55577
# Poissons Ratio (z) = 0.02659 0.24885
#
# Static dielectric constant tensor:
#      x y z
#    x 3.180750 0.000000 0.000000 
#    y 0.000000 2.820160 0.000000 
#    z 0.000000 0.000000 3.292210 
# 
# 
# High freq. dielectric constant tensor:
#      x y z
#    x 1.608980 0.000000 0.000000 
#    y 0.000000 1.582220 0.000000 
#    z 0.000000 0.000000 1.635070 
# 
# From -- ./inp_files/32587.got.cif
#   From: 2010.03.12/outbox.cif.g09.slc.cpg/sg65_17_cif.got.tgz:32587.got - 2010.04.10 20:52:16.
