data_PCOD8266059
_publ_section_title
;
Structure prediction by ZEFSAII (Michael W. Deem and Ramdas Pophale) SiO2 
 PCOD8266059
Probable space group: C M M M
;
_chemical_formula_sum "Si O2"
_cell_formula_units_Z 88
_cell_length_a 17.826102
_cell_length_b 28.846299
_cell_length_c 9.560047
_cell_angle_alpha 90.000000
_cell_angle_beta 90.000000
_cell_angle_gamma 90.000000
_cell_volume 4915.939341
_symmetry_space_group_name_H-M "C M M M"
_symmetry_group_IT_number 65
_symmetry_cell_setting 'orthorhombic'
loop_
_space_group_symop_operation_xyz
x,y,z
-x,-y,z
x,-y,-z
-x,y,-z
-x,-y,-z
x,y,-z
-x,y,z
x,-y,z
1/2+x,1/2+y,z
1/2-x,1/2-y,z
1/2+x,1/2-y,-z
1/2-x,1/2+y,-z
1/2-x,1/2-y,-z
1/2+x,1/2+y,-z
1/2-x,1/2+y,z
1/2+x,1/2-y,z
loop_
_atom_site_type_symbol
_atom_site_label
_atom_site_fract_x
_atom_site_fract_y
_atom_site_fract_z
Si Si1 0.910951 0.293884 0.154274
Si Si2 0.211542 0.448239 0.665546
Si Si3 0.643887 0.608234 0.333857
Si Si4 0.085947 0.378734 0.663516
Si Si5 0.586788 0.690400 0.835941
Si Si6 0.500000 0.448583 0.665624
O O1 0.882150 0.332685 0.261761
O O2 0.885131 0.242478 0.199893
O O3 0.000000 0.293684 0.149182
O O4 0.879154 0.305705 0.000000
O O5 0.215812 0.452430 0.500000
O O6 0.212594 0.500000 0.731333
O O7 0.282292 0.418632 0.718294
O O8 0.134986 0.422720 0.711903
O O9 0.643869 0.616834 0.500000
O O10 0.639753 0.657256 0.255364
O O11 0.573620 0.577895 0.282702
O O12 0.094679 0.369304 0.500000
O O13 0.000000 0.389398 0.704997
O O14 0.500000 0.683583 0.791860
O O15 0.596835 0.680025 0.000000
O O16 0.500000 0.500000 0.731398
O O17 0.500000 0.452087 0.500000
#
# Coordination Sequence:
#
# PCOD8266059 Si02
#       6
#    16  16  16  16  16   8
#     4   8  15  29  49  71  95 126 159 190 233 287
#     4   9  18  32  49  70  98 128 156 194 244 287
#     4  10  18  29  47  71  95 124 163 201 234 272
#     4   9  17  30  50  75  97 120 156 199 239 282
#     4   9  17  30  48  70  98 130 160 193 236 283
#     4   9  16  26  43  67  91 117 157 201 232 267
#
# _framework density 17.900953000000001
#
# number of rings (size 3 to 8) (size 9 to 14) (size 15 to 20)
#    0.000    3.000    0.909    1.636    0.000    3.273 
#    0.000    5.455    0.000    9.818    0.000    2.545 
#    0.000    0.000    0.000    0.000    0.000    0.000 
#
# Total GULP energy -545450.698860 kJ/mol
# GULP energy per Si atom -12396.606792 kJ/mol
# Density = 1.786021 g / cm^3
# Si number density = 17.900953 Si / 1000 Ang^3
#
#
#
# Elastic Constant Matrix: (Units=GPa)
#
#
# Indices 1 2 3 4 5 6 
#
# 1 93.8319 69.1779 29.3735 0.0000 0.0000 0.0000
# 2 69.1779 161.6832 52.6805 0.0000 0.0000 0.0000
# 3 29.3735 52.6805 40.1886 0.0000 0.0000 0.0000
# 4 0.0000 0.0000 0.0000 7.5065 0.0000 0.0000
# 5 0.0000 0.0000 0.0000 0.0000 11.6229 0.0000
# 6 0.0000 0.0000 0.0000 0.0000 0.0000 28.2145
#
#
#
# Elastic Compliance Matrix: (Units=1/GPa)
#
#
# Indices 1 2 3 4 5 6 
#
# 1 0.016076 -0.005324 -0.004771 0.000000 0.000000 0.000000
# 2 -0.005324 0.012559 -0.012572 0.000000 0.000000 0.000000
# 3 -0.004771 -0.012572 0.044849 0.000000 0.000000 0.000000
# 4 0.000000 0.000000 0.000000 0.133219 0.000000 0.000000
# 5 0.000000 0.000000 0.000000 0.000000 0.086037 0.000000
# 6 0.000000 0.000000 0.000000 0.000000 0.000000 0.035443
#
#
# Mechanical properties :
#
#
# Convention : Reuss Voigt Hill
#
# Bulk Modulus (GPa) = 35.52288 66.46306 50.99297
# Shear Modulus (GPa) = 13.05827 19.10021 16.07924
#
# Velocity S-wave (km/s) = 2.70381 3.27003 3.00031
# Velocity P-wave (km/s) = 5.44377 7.17400 6.36792
#
# Compressibility (1/GPa) = 0.02815087
#
# Stress axis : x y z
#
# Youngs Moduli (GPa) = 62.20505 79.62535 22.29694
#
# Poissons Ratio (x) = 0.42389 0.10639
# Poissons Ratio (y) = 0.33115 0.28031
# Poissons Ratio (z) = 0.29680 1.00101
#
# Static dielectric constant tensor:
#      x y z
#    x 3.190470 0.000000 0.000000 
#    y 0.000000 3.599000 0.000000 
#    z 0.000000 0.000000 3.068340 
# 
# 
# High freq. dielectric constant tensor:
#      x y z
#    x 1.675930 0.000000 0.000000 
#    y 0.000000 1.703810 0.000000 
#    z 0.000000 0.000000 1.655490 
# 
# From -- ./inp_files/10065.got.cif
#   From: 2010.03.12/outbox.cif.g09.slc.cpg/sg65_6_cif.got.tgz:10065.got - 2010.04.10 20:52:16.
