data_PCOD8266896
_publ_section_title
;
Structure prediction by ZEFSAII (Michael W. Deem and Ramdas Pophale) SiO2 
 PCOD8266896
Probable space group: C M M M
;
_chemical_formula_sum "Si O2"
_cell_formula_units_Z 72
_cell_length_a 19.126290
_cell_length_b 22.620421
_cell_length_c 8.879455
_cell_angle_alpha 90.000000
_cell_angle_beta 90.000000
_cell_angle_gamma 90.000000
_cell_volume 3841.649428
_symmetry_space_group_name_H-M "C M M M"
_symmetry_group_IT_number 65
_symmetry_cell_setting 'orthorhombic'
loop_
_space_group_symop_operation_xyz
x,y,z
-x,-y,z
x,-y,-z
-x,y,-z
-x,-y,-z
x,y,-z
-x,y,z
x,-y,z
1/2+x,1/2+y,z
1/2-x,1/2-y,z
1/2+x,1/2-y,-z
1/2-x,1/2+y,-z
1/2-x,1/2-y,-z
1/2+x,1/2+y,-z
1/2-x,1/2+y,z
1/2+x,1/2-y,z
loop_
_atom_site_type_symbol
_atom_site_label
_atom_site_fract_x
_atom_site_fract_y
_atom_site_fract_z
Si Si1 0.421701 0.500000 0.821111
Si Si2 0.326567 0.262469 0.177066
Si Si3 0.920263 0.656502 0.821231
Si Si4 0.818472 0.567927 0.677598
Si Si5 0.675895 0.605365 0.176932
O O1 0.500000 0.500000 0.752674
O O2 0.381039 0.558277 0.763647
O O3 0.425868 0.500000 0.000000
O O4 0.250000 0.250000 0.248253
O O5 0.382116 0.215542 0.241776
O O6 0.352260 0.328945 0.214390
O O7 0.321513 0.252959 0.000000
O O8 0.885849 0.598864 0.748705
O O9 0.000000 0.659731 0.767639
O O10 0.914225 0.651537 0.000000
O O11 0.820329 0.575437 0.500000
O O12 0.820358 0.500000 0.727515
O O13 0.748658 0.597602 0.739522
O O14 0.689729 0.596952 0.000000
#
# Coordination Sequence:
#
# PCOD8266896 Si02
#       5
#     8  16  16  16  16
#     4   9  18  30  49  83 116 139 172 221 269 310
#     4   9  16  29  53  82 108 135 172 219 267 314
#     4  10  21  37  57  82 111 143 181 223 272 331
#     4  11  23  37  55  79 108 142 184 232 278 324
#     4  10  18  32  57  82 109 145 183 222 264 322
#
# _framework density 18.741951
#
# number of rings (size 3 to 8) (size 9 to 14) (size 15 to 20)
#    0.000    2.111    3.333    0.667    0.000    3.111 
#    0.000    8.889    0.000    1.333    0.000    0.000 
#    0.000    0.000    0.000    0.000    0.000    0.000 
#
# Total GULP energy -446404.133056 kJ/mol
# GULP energy per Si atom -12400.114807 kJ/mol
# Density = 1.869929 g / cm^3
# Si number density = 18.741951 Si / 1000 Ang^3
#
#
#
# Elastic Constant Matrix: (Units=GPa)
#
#
# Indices 1 2 3 4 5 6 
#
# 1 119.4906 32.4197 17.7723 0.0000 0.0000 0.0000
# 2 32.4197 84.8206 10.1366 0.0000 0.0000 0.0000
# 3 17.7723 10.1366 20.3752 0.0000 0.0000 0.0000
# 4 0.0000 0.0000 0.0000 14.6621 0.0000 0.0000
# 5 0.0000 0.0000 0.0000 0.0000 5.2135 0.0000
# 6 0.0000 0.0000 0.0000 0.0000 0.0000 37.6980
#
#
#
# Elastic Compliance Matrix: (Units=1/GPa)
#
#
# Indices 1 2 3 4 5 6 
#
# 1 0.010307 -0.003046 -0.007475 0.000000 0.000000 0.000000
# 2 -0.003046 0.013435 -0.004027 0.000000 0.000000 0.000000
# 3 -0.007475 -0.004027 0.057602 0.000000 0.000000 0.000000
# 4 0.000000 0.000000 0.000000 0.068203 0.000000 0.000000
# 5 0.000000 0.000000 0.000000 0.000000 0.191809 0.000000
# 6 0.000000 0.000000 0.000000 0.000000 0.000000 0.026527
#
#
# Mechanical properties :
#
#
# Convention : Reuss Voigt Hill
#
# Bulk Modulus (GPa) = 19.13920 38.37152 28.75536
# Shear Modulus (GPa) = 12.06575 22.47191 17.26883
#
# Velocity S-wave (km/s) = 2.54004 3.46644 3.03875
# Velocity P-wave (km/s) = 4.34011 6.04480 5.26195
#
# Compressibility (1/GPa) = 0.05224879
#
# Stress axis : x y z
#
# Youngs Moduli (GPa) = 97.02033 74.43174 17.36036
#
# Poissons Ratio (x) = 0.22674 0.12977
# Poissons Ratio (y) = 0.29555 0.06991
# Poissons Ratio (z) = 0.72522 0.29973
#
# Static dielectric constant tensor:
#      x y z
#    x 3.566980 0.000000 0.000000 
#    y 0.000000 3.740700 0.000000 
#    z 0.000000 0.000000 3.023260 
# 
# 
# High freq. dielectric constant tensor:
#      x y z
#    x 1.726610 0.000000 0.000000 
#    y 0.000000 1.747240 0.000000 
#    z 0.000000 0.000000 1.682880 
# 
# From -- ./inp_files/7262.got.cif
#   From: 2010.03.12/outbox.cif.g09.slc.cpg/sg65_4_cif.got.tgz:7262.got - 2010.04.10 20:52:16.
