data_PCOD8266874
_publ_section_title
;
Structure prediction by ZEFSAII (Michael W. Deem and Ramdas Pophale) SiO2 
 PCOD8266874
Probable space group: C M M M
;
_chemical_formula_sum "Si O2"
_cell_formula_units_Z 72
_cell_length_a 8.758473
_cell_length_b 18.349110
_cell_length_c 22.972945
_cell_angle_alpha 90.000000
_cell_angle_beta 90.000000
_cell_angle_gamma 90.000000
_cell_volume 3691.986230
_symmetry_space_group_name_H-M "C M M M"
_symmetry_group_IT_number 65
_symmetry_cell_setting 'orthorhombic'
loop_
_space_group_symop_operation_xyz
x,y,z
-x,-y,z
x,-y,-z
-x,y,-z
-x,-y,-z
x,y,-z
-x,y,z
x,-y,z
1/2+x,1/2+y,z
1/2-x,1/2-y,z
1/2+x,1/2-y,-z
1/2-x,1/2+y,-z
1/2-x,1/2-y,-z
1/2+x,1/2+y,-z
1/2-x,1/2+y,z
1/2+x,1/2-y,z
loop_
_atom_site_type_symbol
_atom_site_label
_atom_site_fract_x
_atom_site_fract_y
_atom_site_fract_z
Si Si1 0.678030 0.582454 0.433299
Si Si2 0.821807 0.327756 0.666760
Si Si3 0.679970 0.670611 0.116793
Si Si4 0.681945 0.830520 0.000000
Si Si5 0.676335 0.914777 0.780513
O O1 0.713358 0.602433 0.500000
O O2 0.500000 0.589857 0.419975
O O3 0.732718 0.500000 0.420117
O O4 0.767949 0.639162 0.394033
O O5 0.750000 0.250000 0.679282
O O6 0.774593 0.381441 0.718822
O O7 0.000000 0.316462 0.663171
O O8 0.500000 0.678705 0.108088
O O9 0.750000 0.750000 0.128971
O O10 0.715728 0.618512 0.170407
O O11 0.754084 0.632828 0.059088
O O12 0.750000 0.750000 0.000000
O O13 0.500000 0.831367 0.000000
O O14 0.500000 0.897134 0.795057
O O15 0.707477 0.000000 0.777030
#
# Coordination Sequence:
#
# PCOD8266874 Si02
#       5
#    16  16  16   8  16
#     4   9  19  37  60  85 114 148 185 227 277 332
#     4  11  23  38  58  84 113 147 187 232 279 329
#     4  11  21  35  57  85 115 147 187 230 274 327
#     4  10  18  32  55  82 113 148 185 227 277 327
#     4  10  22  40  59  81 111 145 183 229 282 336
#
# _framework density 19.501698999999999
#
# number of rings (size 3 to 8) (size 9 to 14) (size 15 to 20)
#    0.000    1.778    0.000    7.000    0.000    6.222 
#    0.000    1.667    0.000    3.333    0.000    0.000 
#    0.000    0.000    0.000    0.000    0.000    0.000 
#
# Total GULP energy -446488.389224 kJ/mol
# GULP energy per Si atom -12402.455256 kJ/mol
# Density = 1.945731 g / cm^3
# Si number density = 19.501699 Si / 1000 Ang^3
#
#
#
# Elastic Constant Matrix: (Units=GPa)
#
#
# Indices 1 2 3 4 5 6 
#
# 1 124.6874 51.3576 67.1820 0.0000 0.0000 0.0000
# 2 51.3576 102.1326 57.6109 0.0000 0.0000 0.0000
# 3 67.1820 57.6109 130.2692 0.0000 0.0000 0.0000
# 4 0.0000 0.0000 0.0000 94.7327 0.0000 0.0000
# 5 0.0000 0.0000 0.0000 0.0000 37.0389 0.0000
# 6 0.0000 0.0000 0.0000 0.0000 0.0000 19.6966
#
#
#
# Elastic Compliance Matrix: (Units=1/GPa)
#
#
# Indices 1 2 3 4 5 6 
#
# 1 0.011915 -0.003365 -0.004657 0.000000 0.000000 0.000000
# 2 -0.003365 0.013996 -0.004454 0.000000 0.000000 0.000000
# 3 -0.004657 -0.004454 0.012048 0.000000 0.000000 0.000000
# 4 0.000000 0.000000 0.000000 0.010556 0.000000 0.000000
# 5 0.000000 0.000000 0.000000 0.000000 0.026999 0.000000
# 6 0.000000 0.000000 0.000000 0.000000 0.000000 0.050770
#
#
# Mechanical properties :
#
#
# Convention : Reuss Voigt Hill
#
# Bulk Modulus (GPa) = 76.88114 78.82111 77.85113
# Shear Modulus (GPa) = 32.13972 42.35622 37.24797
#
# Velocity S-wave (km/s) = 4.06402 4.66545 4.37508
# Velocity P-wave (km/s) = 7.84411 8.33830 8.09497
#
# Compressibility (1/GPa) = 0.01300709
#
# Stress axis : x y z
#
# Youngs Moduli (GPa) = 83.92769 71.45034 83.00229
#
# Poissons Ratio (x) = 0.24041 0.38652
# Poissons Ratio (y) = 0.28239 0.36972
# Poissons Ratio (z) = 0.39083 0.31826
#
# Static dielectric constant tensor:
#      x y z
#    x 3.534850 0.000000 0.000000 
#    y 0.000000 3.352700 0.000000 
#    z 0.000000 0.000000 4.043080 
# 
# 
# High freq. dielectric constant tensor:
#      x y z
#    x 1.764260 0.000000 0.000000 
#    y 0.000000 1.744130 0.000000 
#    z 0.000000 0.000000 1.778190 
# 
# From -- ./inp_files/59206.got.cif
#   From: 2010.03.12/outbox.cif.g09.slc.cpg/sg65_30_cif.got.tgz:59206.got - 2010.04.10 20:52:16.
