data_PCOD8266219
_publ_section_title
;
Structure prediction by ZEFSAII (Michael W. Deem and Ramdas Pophale) SiO2 
 PCOD8266219
Probable space group: C M M M
;
_chemical_formula_sum "Si O2"
_cell_formula_units_Z 72
_cell_length_a 23.717663
_cell_length_b 22.867003
_cell_length_c 8.648383
_cell_angle_alpha 90.000000
_cell_angle_beta 90.000000
_cell_angle_gamma 90.000000
_cell_volume 4690.466701
_symmetry_space_group_name_H-M "C M M M"
_symmetry_group_IT_number 65
_symmetry_cell_setting 'orthorhombic'
loop_
_space_group_symop_operation_xyz
x,y,z
-x,-y,z
x,-y,-z
-x,y,-z
-x,-y,-z
x,y,-z
-x,y,z
x,-y,z
1/2+x,1/2+y,z
1/2-x,1/2-y,z
1/2+x,1/2-y,-z
1/2-x,1/2+y,-z
1/2-x,1/2-y,-z
1/2+x,1/2+y,-z
1/2-x,1/2+y,z
1/2+x,1/2-y,z
loop_
_atom_site_type_symbol
_atom_site_label
_atom_site_fract_x
_atom_site_fract_y
_atom_site_fract_z
Si Si1 0.206448 0.373373 0.823767
Si Si2 0.295331 0.698965 0.327153
Si Si3 0.500000 0.793459 0.670125
Si Si4 0.908438 0.500000 0.500000
Si Si5 0.881090 0.278272 0.819403
Si Si6 0.500000 0.904376 0.500000
Si Si7 0.159792 0.500000 0.821887
O O1 0.265041 0.359096 0.737541
O O2 0.153406 0.335464 0.755932
O O3 0.197521 0.442352 0.806866
O O4 0.214417 0.353922 0.000000
O O5 0.316394 0.686419 0.500000
O O6 0.250000 0.750000 0.320768
O O7 0.349103 0.718486 0.226708
O O8 0.500000 0.764117 0.500000
O O9 0.443906 0.774003 0.755903
O O10 0.500000 0.864225 0.654054
O O11 0.944064 0.441699 0.500000
O O12 0.878099 0.500000 0.667446
O O13 0.886936 0.282810 0.000000
O O14 0.131781 0.500000 0.000000
#
# Coordination Sequence:
#
# PCOD8266219 Si02
#       7
#    16  16   8   4  16   4   8
#     4   9  18  31  46  67  93 120 155 196 238 287
#     4   9  17  28  45  67  90 117 148 187 237 292
#     4  10  20  31  44  62  91 116 155 201 235 274
#     4  11  20  36  52  62  90 130 168 207 246 286
#     4  10  18  30  47  66  89 122 156 193 241 288
#     4   9  22  34  46  66  86 124 166 207 246 278
#     4  10  21  33  49  72  96 125 163 207 244 284
#
# _framework density 15.350286000000001
#
# number of rings (size 3 to 8) (size 9 to 14) (size 15 to 20)
#    0.333    2.111    0.000    3.000    1.556    3.556 
#    0.000    2.222    0.000    0.000    0.000    0.000 
#    0.000    0.889    0.000    9.556    0.000    4.222 
#
# Total GULP energy -446013.065578 kJ/mol
# GULP energy per Si atom -12389.251822 kJ/mol
# Density = 1.531535 g / cm^3
# Si number density = 15.350286 Si / 1000 Ang^3
#
#
#
# Elastic Constant Matrix: (Units=GPa)
#
#
# Indices 1 2 3 4 5 6 
#
# 1 108.5175 50.8775 44.0675 0.0000 0.0000 0.0000
# 2 50.8775 62.0041 32.3472 0.0000 0.0000 0.0000
# 3 44.0675 32.3472 81.8945 0.0000 0.0000 0.0000
# 4 0.0000 0.0000 0.0000 21.0513 0.0000 0.0000
# 5 0.0000 0.0000 0.0000 0.0000 28.5718 0.0000
# 6 0.0000 0.0000 0.0000 0.0000 0.0000 27.0404
#
#
#
# Elastic Compliance Matrix: (Units=1/GPa)
#
#
# Indices 1 2 3 4 5 6 
#
# 1 0.016117 -0.010958 -0.004344 0.000000 0.000000 0.000000
# 2 -0.010958 0.027765 -0.005070 0.000000 0.000000 0.000000
# 3 -0.004344 -0.005070 0.016551 0.000000 0.000000 0.000000
# 4 0.000000 0.000000 0.000000 0.047503 0.000000 0.000000
# 5 0.000000 0.000000 0.000000 0.000000 0.035000 0.000000
# 6 0.000000 0.000000 0.000000 0.000000 0.000000 0.036982
#
#
# Mechanical properties :
#
#
# Convention : Reuss Voigt Hill
#
# Bulk Modulus (GPa) = 50.79309 56.33337 53.56323
# Shear Modulus (GPa) = 22.00463 23.67430 22.83947
#
# Velocity S-wave (km/s) = 3.79027 3.93144 3.86150
# Velocity P-wave (km/s) = 7.23298 7.57539 7.40616
#
# Compressibility (1/GPa) = 0.01968772
#
# Stress axis : x y z
#
# Youngs Moduli (GPa) = 62.04633 36.01667 60.41936
#
# Poissons Ratio (x) = 0.39469 0.26247
# Poissons Ratio (y) = 0.67993 0.30632
# Poissons Ratio (z) = 0.26954 0.18260
#
# Static dielectric constant tensor:
#      x y z
#    x 2.825270 0.000000 0.000000 
#    y 0.000000 2.807440 0.000000 
#    z 0.000000 0.000000 3.168000 
# 
# 
# High freq. dielectric constant tensor:
#      x y z
#    x 1.568630 0.000000 0.000000 
#    y 0.000000 1.561020 0.000000 
#    z 0.000000 0.000000 1.603260 
# 
# From -- ./inp_files/16237.got.cif
#   From: 2010.03.12/outbox.cif.g09.slc.cpg/sg65_9_cif.got.tgz:16237.got - 2010.04.10 20:52:16.
