data_PCOD8266933
_publ_section_title
;
Structure prediction by ZEFSAII (Michael W. Deem and Ramdas Pophale) SiO2 
 PCOD8266933
Probable space group: C M M M
;
_chemical_formula_sum "Si O2"
_cell_formula_units_Z 104
_cell_length_a 9.230998
_cell_length_b 21.735708
_cell_length_c 26.504356
_cell_angle_alpha 90.000000
_cell_angle_beta 90.000000
_cell_angle_gamma 90.000000
_cell_volume 5317.894340
_symmetry_space_group_name_H-M "C M M M"
_symmetry_group_IT_number 65
_symmetry_cell_setting 'orthorhombic'
loop_
_space_group_symop_operation_xyz
x,y,z
-x,-y,z
x,-y,-z
-x,y,-z
-x,-y,-z
x,y,-z
-x,y,z
x,-y,z
1/2+x,1/2+y,z
1/2-x,1/2-y,z
1/2+x,1/2-y,-z
1/2-x,1/2+y,-z
1/2-x,1/2-y,-z
1/2+x,1/2+y,-z
1/2-x,1/2+y,z
1/2+x,1/2-y,z
loop_
_atom_site_type_symbol
_atom_site_label
_atom_site_fract_x
_atom_site_fract_y
_atom_site_fract_z
Si Si1 0.339433 0.500000 0.235142
Si Si2 0.671654 0.568273 0.057598
Si Si3 0.168265 0.688255 0.310263
Si Si4 0.167646 0.388832 0.596666
Si Si5 0.171807 0.928155 0.500000
Si Si6 0.330152 0.000000 0.664407
Si Si7 0.164981 0.867104 0.222412
Si Si8 0.328469 0.312597 0.881981
O O1 0.500000 0.500000 0.259103
O O2 0.228733 0.500000 0.280257
O O3 0.318863 0.562139 0.202268
O O4 0.500000 0.568804 0.062249
O O5 0.726863 0.500000 0.076229
O O6 0.732740 0.626910 0.088873
O O7 0.720936 0.577832 0.000000
O O8 0.250000 0.750000 0.297511
O O9 0.190712 0.672170 0.369534
O O10 0.232776 0.638607 0.271352
O O11 0.000000 0.694951 0.297982
O O12 0.267100 0.390402 0.547461
O O13 0.223750 0.441868 0.633234
O O14 0.000000 0.396968 0.580378
O O15 0.000000 0.923940 0.500000
O O16 0.222964 0.000000 0.500000
O O17 0.500000 0.000000 0.669872
O O18 0.209627 0.822133 0.177032
O O19 0.000000 0.853597 0.238959
O O20 0.500000 0.305121 0.890686
O O21 0.250000 0.250000 0.900637
#
# Coordination Sequence:
#
# PCOD8266933 Si02
#       8
#     8  16  16  16   8   8  16  16
#     4  10  20  32  51  81 111 140 177 224 275 320
#     4   8  15  30  54  82 109 141 186 238 286 333
#     4  11  23  39  59  80 105 143 186 225 266 319
#     4  10  21  37  57  79 106 139 173 210 260 322
#     4  11  23  35  54  85 114 137 166 212 267 316
#     4  10  18  33  55  80 107 135 171 215 263 320
#     4  10  21  35  53  80 113 147 180 223 276 329
#     4  10  21  35  53  79 112 148 188 233 281 335
#
# _framework density 19.556612000000001
#
# number of rings (size 3 to 8) (size 9 to 14) (size 15 to 20)
#    0.000    2.077    2.308    1.615    1.077    4.308 
#    0.000    0.385    0.000    0.462    0.000    1.077 
#    0.000    0.000    0.000    0.000    0.000    0.000 
#
# Total GULP energy -644433.579391 kJ/mol
# GULP energy per Si atom -12392.953450 kJ/mol
# Density = 1.951210 g / cm^3
# Si number density = 19.556612 Si / 1000 Ang^3
#
#
#
# Elastic Constant Matrix: (Units=GPa)
#
#
# Indices 1 2 3 4 5 6 
#
# 1 62.4582 38.4678 37.1915 0.0000 0.0000 0.0000
# 2 38.4678 129.1884 44.6121 0.0000 0.0000 0.0000
# 3 37.1915 44.6121 77.5994 0.0000 0.0000 0.0000
# 4 0.0000 0.0000 0.0000 29.5015 0.0000 0.0000
# 5 0.0000 0.0000 0.0000 0.0000 16.4971 0.0000
# 6 0.0000 0.0000 0.0000 0.0000 0.0000 25.6670
#
#
#
# Elastic Compliance Matrix: (Units=1/GPa)
#
#
# Indices 1 2 3 4 5 6 
#
# 1 0.023916 -0.003947 -0.009193 0.000000 0.000000 0.000000
# 2 -0.003947 0.010309 -0.004035 0.000000 0.000000 0.000000
# 3 -0.009193 -0.004035 0.019613 0.000000 0.000000 0.000000
# 4 0.000000 0.000000 0.000000 0.033897 0.000000 0.000000
# 5 0.000000 0.000000 0.000000 0.000000 0.060617 0.000000
# 6 0.000000 0.000000 0.000000 0.000000 0.000000 0.038961
#
#
# Mechanical properties :
#
#
# Convention : Reuss Voigt Hill
#
# Bulk Modulus (GPa) = 51.31554 56.64319 53.97937
# Shear Modulus (GPa) = 21.91466 24.26477 23.08971
#
# Velocity S-wave (km/s) = 3.35113 3.52624 3.43980
# Velocity P-wave (km/s) = 6.42416 6.75320 6.59074
#
# Compressibility (1/GPa) = 0.01948727
#
# Stress axis : x y z
#
# Youngs Moduli (GPa) = 41.81364 96.99996 50.98724
#
# Poissons Ratio (x) = 0.38282 0.46874
# Poissons Ratio (y) = 0.16502 0.20575
# Poissons Ratio (z) = 0.38441 0.39143
#
# Static dielectric constant tensor:
#      x y z
#    x 3.276380 0.000000 0.000000 
#    y 0.000000 3.843590 0.000000 
#    z 0.000000 0.000000 3.447820 
# 
# 
# High freq. dielectric constant tensor:
#      x y z
#    x 1.734250 0.000000 0.000000 
#    y 0.000000 1.771190 0.000000 
#    z 0.000000 0.000000 1.753020 
# 
# From -- ./inp_files/73398.got.cif
#   From: 2010.03.12/outbox.cif.g09.slc.cpg/sg65_37_cif.got.tgz:73398.got - 2010.04.10 20:52:16.
