data_PCOD8266161
_publ_section_title
;
Structure prediction by ZEFSAII (Michael W. Deem and Ramdas Pophale) SiO2 
 PCOD8266161
Probable space group: C M M M
;
_chemical_formula_sum "Si O2"
_cell_formula_units_Z 96
_cell_length_a 28.672278
_cell_length_b 28.583706
_cell_length_c 8.759827
_cell_angle_alpha 90.000000
_cell_angle_beta 90.000000
_cell_angle_gamma 90.000000
_cell_volume 7179.203507
_symmetry_space_group_name_H-M "C M M M"
_symmetry_group_IT_number 65
_symmetry_cell_setting 'orthorhombic'
loop_
_space_group_symop_operation_xyz
x,y,z
-x,-y,z
x,-y,-z
-x,y,-z
-x,-y,-z
x,y,-z
-x,y,z
x,-y,z
1/2+x,1/2+y,z
1/2-x,1/2-y,z
1/2+x,1/2-y,-z
1/2-x,1/2+y,-z
1/2-x,1/2-y,-z
1/2+x,1/2+y,-z
1/2-x,1/2+y,z
1/2+x,1/2-y,z
loop_
_atom_site_type_symbol
_atom_site_label
_atom_site_fract_x
_atom_site_fract_y
_atom_site_fract_z
Si Si1 0.398467 0.500000 0.823935
Si Si2 0.201324 0.000000 0.320519
Si Si3 0.324513 0.266121 0.172645
Si Si4 0.866380 0.850067 0.678160
Si Si5 0.781057 0.096008 0.182540
Si Si6 0.053587 0.096946 0.177420
Si Si7 0.272735 0.819390 0.170658
O O1 0.353059 0.500000 0.719168
O O2 0.429622 0.544713 0.784785
O O3 0.381990 0.500000 0.000000
O O4 0.227261 0.045034 0.251326
O O5 0.207678 0.000000 0.500000
O O6 0.360572 0.295335 0.275714
O O7 0.312430 0.214402 0.246626
O O8 0.276519 0.293802 0.167855
O O9 0.344273 0.261553 0.000000
O O10 0.857329 0.855780 0.500000
O O11 0.831126 0.884235 0.766574
O O12 0.918377 0.865436 0.722379
O O13 0.738479 0.129627 0.244488
O O14 0.781194 0.094157 0.000000
O O15 0.000000 0.101177 0.225577
O O16 0.060991 0.108537 0.000000
O O17 0.290848 0.827241 0.000000
#
# Coordination Sequence:
#
# PCOD8266161 Si02
#       7
#     8   8  16  16  16  16  16
#     4  10  19  32  48  58  67  89 120 156 198 241
#     4  12  22  29  39  59  79  97 122 156 193 232
#     4   8  13  25  42  57  73  93 117 144 175 218
#     4  11  20  28  39  58  79  96 115 147 189 231
#     4  10  18  30  44  55  71  98 126 152 183 221
#     4  10  20  33  47  59  70  90 124 161 196 237
#     4   7  12  23  41  59  71  89 120 150 175 208
#
# _framework density 13.371957
#
# number of rings (size 3 to 8) (size 9 to 14) (size 15 to 20)
#    0.000    2.500    1.667    5.000    0.000    1.333 
#    0.000    7.500    0.000    1.500    0.000    0.000 
#    0.000    0.000    0.000    0.000    0.000    0.000 
#
# Total GULP energy -594660.957937 kJ/mol
# GULP energy per Si atom -12388.769957 kJ/mol
# Density = 1.334152 g / cm^3
# Si number density = 13.371957 Si / 1000 Ang^3
#
#
#
# Elastic Constant Matrix: (Units=GPa)
#
#
# Indices 1 2 3 4 5 6 
#
# 1 39.9249 50.5315 20.3054 0.0000 0.0000 0.0000
# 2 50.5315 114.2743 37.9275 0.0000 0.0000 0.0000
# 3 20.3054 37.9275 61.5400 0.0000 0.0000 0.0000
# 4 0.0000 0.0000 0.0000 10.0033 0.0000 0.0000
# 5 0.0000 0.0000 0.0000 0.0000 4.0381 0.0000
# 6 0.0000 0.0000 0.0000 0.0000 0.0000 13.5881
#
#
#
# Elastic Compliance Matrix: (Units=1/GPa)
#
#
# Indices 1 2 3 4 5 6 
#
# 1 0.057720 -0.024140 -0.004167 0.000000 0.000000 0.000000
# 2 -0.024140 0.021098 -0.005037 0.000000 0.000000 0.000000
# 3 -0.004167 -0.005037 0.020729 0.000000 0.000000 0.000000
# 4 0.000000 0.000000 0.000000 0.099967 0.000000 0.000000
# 5 0.000000 0.000000 0.000000 0.000000 0.247640 0.000000
# 6 0.000000 0.000000 0.000000 0.000000 0.000000 0.073594
#
#
# Mechanical properties :
#
#
# Convention : Reuss Voigt Hill
#
# Bulk Modulus (GPa) = 30.43491 48.14088 39.28790
# Shear Modulus (GPa) = 8.35577 12.65757 10.50667
#
# Velocity S-wave (km/s) = 2.50246 3.07999 2.80612
# Velocity P-wave (km/s) = 5.58206 6.98054 6.32010
#
# Compressibility (1/GPa) = 0.03285700
#
# Stress axis : x y z
#
# Youngs Moduli (GPa) = 17.32503 47.39893 48.24146
#
# Poissons Ratio (x) = 1.14423 0.20102
# Poissons Ratio (y) = 0.41823 0.24301
# Poissons Ratio (z) = 0.07219 0.23876
#
# Static dielectric constant tensor:
#      x y z
#    x 2.449890 0.000000 0.000000 
#    y 0.000000 3.169980 0.000000 
#    z 0.000000 0.000000 2.567510 
# 
# 
# High freq. dielectric constant tensor:
#      x y z
#    x 1.454230 0.000000 0.000000 
#    y 0.000000 1.509590 0.000000 
#    z 0.000000 0.000000 1.500940 
# 
# From -- ./inp_files/19188.got.cif
#   From: 2010.03.12/outbox.cif.g09.slc.cpg/sg65_10_cif.got.tgz:19188.got - 2010.04.10 20:52:16.
