data_PCOD8266265
_publ_section_title
;
Structure prediction by ZEFSAII (Michael W. Deem and Ramdas Pophale) SiO2 
 PCOD8266265
Probable space group: C M M M
;
_chemical_formula_sum "Si O2"
_cell_formula_units_Z 96
_cell_length_a 27.324789
_cell_length_b 22.814134
_cell_length_c 8.901151
_cell_angle_alpha 90.000000
_cell_angle_beta 90.000000
_cell_angle_gamma 90.000000
_cell_volume 5548.900964
_symmetry_space_group_name_H-M "C M M M"
_symmetry_group_IT_number 65
_symmetry_cell_setting 'orthorhombic'
loop_
_space_group_symop_operation_xyz
x,y,z
-x,-y,z
x,-y,-z
-x,y,-z
-x,-y,-z
x,y,-z
-x,y,z
x,-y,z
1/2+x,1/2+y,z
1/2-x,1/2-y,z
1/2+x,1/2-y,-z
1/2-x,1/2+y,-z
1/2-x,1/2-y,-z
1/2+x,1/2+y,-z
1/2-x,1/2+y,z
1/2+x,1/2-y,z
loop_
_atom_site_type_symbol
_atom_site_label
_atom_site_fract_x
_atom_site_fract_y
_atom_site_fract_z
Si Si1 0.807767 0.813446 0.671678
Si Si2 0.788587 0.382728 0.670094
Si Si3 0.446286 0.731569 0.822418
Si Si4 0.351251 0.204266 0.822224
Si Si5 0.125516 0.000000 0.321535
Si Si6 0.737718 0.500000 0.320845
Si Si7 0.889594 0.882627 0.822126
O O1 0.826519 0.810092 0.500000
O O2 0.751307 0.831238 0.676328
O O3 0.814227 0.751211 0.751231
O O4 0.836898 0.863518 0.760358
O O5 0.806017 0.393713 0.500000
O O6 0.835578 0.360364 0.765229
O O7 0.766790 0.442856 0.738722
O O8 0.500000 0.744506 0.751738
O O9 0.406710 0.780172 0.768635
O O10 0.429122 0.666543 0.774009
O O11 0.449741 0.733969 0.000000
O O12 0.346732 0.208007 0.000000
O O13 0.181827 0.000000 0.262262
O O14 0.096815 0.056102 0.255977
O O15 0.122571 0.000000 0.500000
O O16 0.735437 0.500000 0.500000
O O17 0.887044 0.890460 0.000000
#
# Coordination Sequence:
#
# PCOD8266265 Si02
#       7
#    16  16  16  16   8   8  16
#     4  10  18  30  48  68  95 133 166 191 231 291
#     4  10  19  32  48  67  95 131 167 192 225 284
#     4   8  16  33  53  70  92 123 157 197 250 306
#     4  10  20  31  47  73  99 121 155 203 247 285
#     4  11  19  33  50  66  95 137 175 198 231 289
#     4   9  18  33  49  66  91 134 176 193 213 275
#     4  10  19  30  48  74  97 122 164 213 249 277
#
# _framework density 17.300722
#
# number of rings (size 3 to 8) (size 9 to 14) (size 15 to 20)
#    0.000    2.333    1.667    3.250    0.000    3.333 
#    0.000    0.833    0.000   20.500    0.000    0.583 
#    0.000    4.667    0.000    0.000    0.000    0.000 
#
# Total GULP energy -594994.055765 kJ/mol
# GULP energy per Si atom -12395.709495 kJ/mol
# Density = 1.726134 g / cm^3
# Si number density = 17.300722 Si / 1000 Ang^3
#
#
#
# Elastic Constant Matrix: (Units=GPa)
#
#
# Indices 1 2 3 4 5 6 
#
# 1 92.5390 42.8994 26.6569 0.0000 0.0000 0.0000
# 2 42.8994 62.3839 23.6292 0.0000 0.0000 0.0000
# 3 26.6569 23.6292 64.1798 0.0000 0.0000 0.0000
# 4 0.0000 0.0000 0.0000 28.8271 0.0000 0.0000
# 5 0.0000 0.0000 0.0000 0.0000 9.7170 0.0000
# 6 0.0000 0.0000 0.0000 0.0000 0.0000 9.7985
#
#
#
# Elastic Compliance Matrix: (Units=1/GPa)
#
#
# Indices 1 2 3 4 5 6 
#
# 1 0.016373 -0.010090 -0.003085 0.000000 0.000000 0.000000
# 2 -0.010090 0.024846 -0.004957 0.000000 0.000000 0.000000
# 3 -0.003085 -0.004957 0.018688 0.000000 0.000000 0.000000
# 4 0.000000 0.000000 0.000000 0.034690 0.000000 0.000000
# 5 0.000000 0.000000 0.000000 0.000000 0.102913 0.000000
# 6 0.000000 0.000000 0.000000 0.000000 0.000000 0.102057
#
#
# Mechanical properties :
#
#
# Convention : Reuss Voigt Hill
#
# Bulk Modulus (GPa) = 42.29817 45.05263 43.67540
# Shear Modulus (GPa) = 14.54714 18.06300 16.30507
#
# Velocity S-wave (km/s) = 2.90287 3.23470 3.07327
# Velocity P-wave (km/s) = 5.97808 6.32838 6.15572
#
# Compressibility (1/GPa) = 0.02364168
#
# Stress axis : x y z
#
# Youngs Moduli (GPa) = 61.07707 40.24791 53.51142
#
# Poissons Ratio (x) = 0.40612 0.16510
# Poissons Ratio (y) = 0.61629 0.26523
# Poissons Ratio (z) = 0.18845 0.19949
#
# Static dielectric constant tensor:
#      x y z
#    x 3.285060 0.000000 0.000000 
#    y 0.000000 3.333200 0.000000 
#    z 0.000000 0.000000 3.102110 
# 
# 
# High freq. dielectric constant tensor:
#      x y z
#    x 1.640410 0.000000 0.000000 
#    y 0.000000 1.658990 0.000000 
#    z 0.000000 0.000000 1.656510 
# 
# From -- ./inp_files/16698.got.cif
#   From: 2010.03.12/outbox.cif.g09.slc.cpg/sg65_9_cif.got.tgz:16698.got - 2010.04.10 20:52:16.
