data_PCOD8266513
_publ_section_title
;
Structure prediction by ZEFSAII (Michael W. Deem and Ramdas Pophale) SiO2 
 PCOD8266513
Probable space group: C M M M
;
_chemical_formula_sum "Si O2"
_cell_formula_units_Z 96
_cell_length_a 28.482921
_cell_length_b 27.903318
_cell_length_c 9.513060
_cell_angle_alpha 90.000000
_cell_angle_beta 90.000000
_cell_angle_gamma 90.000000
_cell_volume 7560.675691
_symmetry_space_group_name_H-M "C M M M"
_symmetry_group_IT_number 65
_symmetry_cell_setting 'orthorhombic'
loop_
_space_group_symop_operation_xyz
x,y,z
-x,-y,z
x,-y,-z
-x,y,-z
-x,-y,-z
x,y,-z
-x,y,z
x,-y,z
1/2+x,1/2+y,z
1/2-x,1/2-y,z
1/2+x,1/2-y,-z
1/2-x,1/2+y,-z
1/2-x,1/2-y,-z
1/2+x,1/2+y,-z
1/2-x,1/2+y,z
1/2+x,1/2-y,z
loop_
_atom_site_type_symbol
_atom_site_label
_atom_site_fract_x
_atom_site_fract_y
_atom_site_fract_z
Si Si1 0.404707 0.500000 0.830038
Si Si2 0.190735 0.000000 0.337283
Si Si3 0.324616 0.264708 0.158745
Si Si4 0.868126 0.839467 0.661175
Si Si5 0.776097 0.102730 0.339290
Si Si6 0.054269 0.086517 0.338979
Si Si7 0.270311 0.824671 0.158636
O O1 0.352264 0.500000 0.770200
O O2 0.432103 0.546048 0.772340
O O3 0.404189 0.500000 0.000000
O O4 0.223125 0.046117 0.308058
O O5 0.172466 0.000000 0.500000
O O6 0.364523 0.289746 0.252898
O O7 0.312442 0.210516 0.210519
O O8 0.277749 0.295687 0.168610
O O9 0.343404 0.263067 0.000000
O O10 0.864362 0.824587 0.500000
O O11 0.827008 0.876554 0.703083
O O12 0.917158 0.865201 0.696013
O O13 0.764794 0.113788 0.500000
O O14 0.734030 0.127577 0.252333
O O15 0.065360 0.069701 0.500000
O O16 0.000000 0.099259 0.320988
O O17 0.280181 0.841122 0.000000
#
# Coordination Sequence:
#
# PCOD8266513 Si02
#       7
#     8   8  16  16  16  16  16
#     4  12  23  31  42  57  70  86 116 158 194 223
#     4  10  18  31  43  52  72  97 122 148 181 227
#     4   8  14  24  37  52  71  93 108 128 169 213
#     4   9  16  26  40  56  68  84 113 146 175 211
#     4   9  16  25  39  53  68  89 115 147 176 205
#     4  10  20  34  47  54  67  93 119 146 188 234
#     4   8  14  24  36  51  72  92 110 132 165 211
#
# _framework density 12.697277
#
# number of rings (size 3 to 8) (size 9 to 14) (size 15 to 20)
#    0.000    2.833    1.667    2.000    0.000    3.333 
#    0.000    3.333    0.000    0.000    0.000    0.000 
#    0.000    0.000    0.000    0.000    0.000    0.000 
#
# Total GULP energy -594914.608095 kJ/mol
# GULP energy per Si atom -12394.054335 kJ/mol
# Density = 1.266838 g / cm^3
# Si number density = 12.697277 Si / 1000 Ang^3
#
#
#
# Elastic Constant Matrix: (Units=GPa)
#
#
# Indices 1 2 3 4 5 6 
#
# 1 40.3947 47.7270 36.3420 0.0000 0.0000 0.0000
# 2 47.7270 93.8446 54.0493 0.0000 0.0000 0.0000
# 3 36.3420 54.0493 71.0740 0.0000 0.0000 0.0000
# 4 0.0000 0.0000 0.0000 18.6697 0.0000 0.0000
# 5 0.0000 0.0000 0.0000 0.0000 11.1528 0.0000
# 6 0.0000 0.0000 0.0000 0.0000 0.0000 1.3954
#
#
#
# Elastic Compliance Matrix: (Units=1/GPa)
#
#
# Indices 1 2 3 4 5 6 
#
# 1 0.070624 -0.026902 -0.015654 0.000000 0.000000 0.000000
# 2 -0.026902 0.029208 -0.008456 0.000000 0.000000 0.000000
# 3 -0.015654 -0.008456 0.028505 0.000000 0.000000 0.000000
# 4 0.000000 0.000000 0.000000 0.053563 0.000000 0.000000
# 5 0.000000 0.000000 0.000000 0.000000 0.089664 0.000000
# 6 0.000000 0.000000 0.000000 0.000000 0.000000 0.716666
#
#
# Mechanical properties :
#
#
# Convention : Reuss Voigt Hill
#
# Bulk Modulus (GPa) = 38.00412 53.50555 45.75484
# Shear Modulus (GPa) = 4.54950 10.72324 7.63637
#
# Velocity S-wave (km/s) = 1.89495 2.90923 2.45504
# Velocity P-wave (km/s) = 5.89777 7.31544 6.64452
#
# Compressibility (1/GPa) = 0.02631294
#
# Stress axis : x y z
#
# Youngs Moduli (GPa) = 14.15944 34.23777 35.08214
#
# Poissons Ratio (x) = 0.92106 0.54918
# Poissons Ratio (y) = 0.38091 0.29664
# Poissons Ratio (z) = 0.22165 0.28950
#
# Static dielectric constant tensor:
#      x y z
#    x 2.335200 0.000000 0.000000 
#    y 0.000000 2.705530 0.000000 
#    z 0.000000 0.000000 2.676170 
# 
# 
# High freq. dielectric constant tensor:
#      x y z
#    x 1.431390 0.000000 0.000000 
#    y 0.000000 1.471230 0.000000 
#    z 0.000000 0.000000 1.486070 
# 
# From -- ./inp_files/19182.got.cif
#   From: 2010.03.12/outbox.cif.g09.slc.cpg/sg65_10_cif.got.tgz:19182.got - 2010.04.10 20:52:16.
