data_PCOD8266020
_publ_section_title
;
Structure prediction by ZEFSAII (Michael W. Deem and Ramdas Pophale) SiO2 
 PCOD8266020
Probable space group: C M M M
;
_chemical_formula_sum "Si O2"
_cell_formula_units_Z 88
_cell_length_a 18.008777
_cell_length_b 29.024819
_cell_length_c 9.115570
_cell_angle_alpha 90.000000
_cell_angle_beta 90.000000
_cell_angle_gamma 90.000000
_cell_volume 4764.722047
_symmetry_space_group_name_H-M "C M M M"
_symmetry_group_IT_number 65
_symmetry_cell_setting 'orthorhombic'
loop_
_space_group_symop_operation_xyz
x,y,z
-x,-y,z
x,-y,-z
-x,y,-z
-x,-y,-z
x,y,-z
-x,y,z
x,-y,z
1/2+x,1/2+y,z
1/2-x,1/2-y,z
1/2+x,1/2-y,-z
1/2-x,1/2+y,-z
1/2-x,1/2-y,-z
1/2+x,1/2+y,-z
1/2-x,1/2+y,z
1/2+x,1/2-y,z
loop_
_atom_site_type_symbol
_atom_site_label
_atom_site_fract_x
_atom_site_fract_y
_atom_site_fract_z
Si Si1 0.141925 0.392701 0.674193
Si Si2 0.412017 0.284196 0.662494
Si Si3 0.500000 0.948768 0.674196
Si Si4 0.214183 0.948113 0.674699
Si Si5 0.413599 0.194626 0.171987
Si Si6 0.917349 0.885376 0.325119
O O1 0.140873 0.385989 0.500000
O O2 0.215376 0.418857 0.729076
O O3 0.137492 0.342949 0.748782
O O4 0.072649 0.422624 0.730783
O O5 0.378265 0.275089 0.500000
O O6 0.500000 0.284475 0.650448
O O7 0.385146 0.244451 0.772798
O O8 0.388094 0.334597 0.723394
O O9 0.500000 0.951313 0.500000
O O10 0.500000 0.000000 0.741294
O O11 0.213919 0.949735 0.500000
O O12 0.139463 0.923799 0.735029
O O13 0.218161 0.000000 0.738181
O O14 0.500000 0.186862 0.214047
O O15 0.400840 0.191705 0.000000
O O16 0.920172 0.886181 0.500000
O O17 0.000000 0.895838 0.262312
#
# Coordination Sequence:
#
# PCOD8266020 Si02
#       6
#    16  16   8  16  16  16
#     4  10  18  29  46  68  95 128 163 197 234 277
#     4   8  14  26  46  69  93 123 158 191 229 282
#     4   9  16  26  43  65  87 117 161 203 232 265
#     4   9  17  28  44  69  98 125 157 198 239 278
#     4  10  19  30  46  69  96 124 158 200 242 282
#     4   8  14  26  45  70  98 126 155 190 235 287
#
# _framework density 18.469073999999999
#
# number of rings (size 3 to 8) (size 9 to 14) (size 15 to 20)
#    0.000    3.000    0.909    2.182    0.000    3.273 
#    0.000    2.727    0.000    9.273    0.000    0.000 
#    0.000    0.000    0.000    8.727    0.000    9.091 
#
# Total GULP energy -545412.161294 kJ/mol
# GULP energy per Si atom -12395.730939 kJ/mol
# Density = 1.842704 g / cm^3
# Si number density = 18.469074 Si / 1000 Ang^3
#
#
#
# Elastic Constant Matrix: (Units=GPa)
#
#
# Indices 1 2 3 4 5 6 
#
# 1 110.5928 75.0306 19.1058 0.0000 0.0000 0.0000
# 2 75.0306 161.3886 32.3086 0.0000 0.0000 0.0000
# 3 19.1058 32.3086 32.9297 0.0000 0.0000 0.0000
# 4 0.0000 0.0000 0.0000 1.8623 0.0000 0.0000
# 5 0.0000 0.0000 0.0000 0.0000 7.3323 0.0000
# 6 0.0000 0.0000 0.0000 0.0000 0.0000 31.6030
#
#
#
# Elastic Compliance Matrix: (Units=1/GPa)
#
#
# Indices 1 2 3 4 5 6 
#
# 1 0.013319 -0.005780 -0.002056 0.000000 0.000000 0.000000
# 2 -0.005780 0.010219 -0.006673 0.000000 0.000000 0.000000
# 3 -0.002056 -0.006673 0.038108 0.000000 0.000000 0.000000
# 4 0.000000 0.000000 0.000000 0.536957 0.000000 0.000000
# 5 0.000000 0.000000 0.000000 0.000000 0.136384 0.000000
# 6 0.000000 0.000000 0.000000 0.000000 0.000000 0.031643
#
#
# Mechanical properties :
#
#
# Convention : Reuss Voigt Hill
#
# Bulk Modulus (GPa) = 30.64939 61.97788 46.31364
# Shear Modulus (GPa) = 6.19944 20.05727 13.12835
#
# Velocity S-wave (km/s) = 1.83411 3.29901 2.66903
# Velocity P-wave (km/s) = 4.59524 6.93843 5.88465
#
# Compressibility (1/GPa) = 0.03262708
#
# Stress axis : x y z
#
# Youngs Moduli (GPa) = 75.07987 97.85256 26.24136
#
# Poissons Ratio (x) = 0.56564 0.05396
# Poissons Ratio (y) = 0.43400 0.17510
# Poissons Ratio (z) = 0.15439 0.65295
#
# Static dielectric constant tensor:
#      x y z
#    x 3.354870 0.000000 0.000000 
#    y 0.000000 3.763060 0.000000 
#    z 0.000000 0.000000 2.851850 
# 
# 
# High freq. dielectric constant tensor:
#      x y z
#    x 1.697000 0.000000 0.000000 
#    y 0.000000 1.732880 0.000000 
#    z 0.000000 0.000000 1.654730 
# 
# From -- ./inp_files/10070.got.cif
#   From: 2010.03.12/outbox.cif.g09.slc.cpg/sg65_6_cif.got.tgz:10070.got - 2010.04.10 20:52:16.
