data_PCOD8266133
_publ_section_title
;
Structure prediction by ZEFSAII (Michael W. Deem and Ramdas Pophale) SiO2 
 PCOD8266133
Probable space group: C M M M
;
_chemical_formula_sum "Si O2"
_cell_formula_units_Z 104
_cell_length_a 27.528896
_cell_length_b 8.972156
_cell_length_c 23.820104
_cell_angle_alpha 90.000000
_cell_angle_beta 90.000000
_cell_angle_gamma 90.000000
_cell_volume 5883.412035
_symmetry_space_group_name_H-M "C M M M"
_symmetry_group_IT_number 65
_symmetry_cell_setting 'orthorhombic'
loop_
_space_group_symop_operation_xyz
x,y,z
-x,-y,z
x,-y,-z
-x,y,-z
-x,-y,-z
x,y,-z
-x,y,z
x,-y,z
1/2+x,1/2+y,z
1/2-x,1/2-y,z
1/2+x,1/2-y,-z
1/2-x,1/2+y,-z
1/2-x,1/2-y,-z
1/2+x,1/2+y,-z
1/2-x,1/2+y,z
1/2+x,1/2-y,z
loop_
_atom_site_type_symbol
_atom_site_label
_atom_site_fract_x
_atom_site_fract_y
_atom_site_fract_z
Si Si1 0.698540 0.677124 0.269263
Si Si2 0.401732 0.174655 0.935964
Si Si3 0.858703 0.831021 0.160830
Si Si4 0.500000 0.334355 0.066282
Si Si5 0.054215 0.676875 0.562310
Si Si6 0.112775 0.324409 0.331894
Si Si7 0.945245 0.831818 0.241027
O O1 0.701434 0.500000 0.274261
O O2 0.750000 0.750000 0.281126
O O3 0.680335 0.724921 0.207008
O O4 0.661771 0.736554 0.316567
O O5 0.357910 0.231682 0.895734
O O6 0.451797 0.247903 0.914944
O O7 0.407633 0.000000 0.929638
O O8 0.389030 0.219388 0.000000
O O9 0.912260 0.814303 0.186464
O O10 0.847132 0.000000 0.143443
O O11 0.500000 0.500000 0.093593
O O12 0.500000 0.347540 0.000000
O O13 0.069975 0.731085 0.500000
O O14 0.051976 0.500000 0.564387
O O15 0.094059 0.732169 0.607260
O O16 0.000000 0.738681 0.576393
O O17 0.123342 0.500000 0.330551
O O18 0.070246 0.286014 0.288136
O O19 0.000000 0.797365 0.222098
O O20 0.939537 0.000000 0.265259
#
# Coordination Sequence:
#
# PCOD8266133 Si02
#       7
#    16  16  16   8  16  16  16
#     4  10  21  38  58  78  99 124 157 204 258 308
#     4  10  20  32  46  68  98 128 161 203 245 284
#     4   9  19  33  50  72  95 125 162 197 242 300
#     4   9  17  29  45  63  87 127 171 201 230 277
#     4   8  14  25  43  71 108 146 180 212 243 278
#     4  10  18  29  49  76 102 131 170 210 249 299
#     4   9  18  31  45  65  98 135 166 204 250 293
#
# _framework density 17.676817
#
# number of rings (size 3 to 8) (size 9 to 14) (size 15 to 20)
#    0.000    2.692    0.000    3.462    1.077    5.846 
#    0.000    0.000    0.000    2.769    0.000    5.385 
#    0.000    0.000    0.000    0.000    0.000    0.000 
#
# Total GULP energy -644591.298245 kJ/mol
# GULP energy per Si atom -12395.986505 kJ/mol
# Density = 1.763658 g / cm^3
# Si number density = 17.676817 Si / 1000 Ang^3
#
#
#
# Elastic Constant Matrix: (Units=GPa)
#
#
# Indices 1 2 3 4 5 6 
#
# 1 96.5219 31.4056 45.8841 0.0000 0.0000 0.0000
# 2 31.4056 66.3746 41.0271 0.0000 0.0000 0.0000
# 3 45.8841 41.0271 105.1675 0.0000 0.0000 0.0000
# 4 0.0000 0.0000 0.0000 20.3319 0.0000 0.0000
# 5 0.0000 0.0000 0.0000 0.0000 19.6201 0.0000
# 6 0.0000 0.0000 0.0000 0.0000 0.0000 23.1641
#
#
#
# Elastic Compliance Matrix: (Units=1/GPa)
#
#
# Indices 1 2 3 4 5 6 
#
# 1 0.013721 -0.003679 -0.004551 0.000000 0.000000 0.000000
# 2 -0.003679 0.020840 -0.006525 0.000000 0.000000 0.000000
# 3 -0.004551 -0.006525 0.014040 0.000000 0.000000 0.000000
# 4 0.000000 0.000000 0.000000 0.049184 0.000000 0.000000
# 5 0.000000 0.000000 0.000000 0.000000 0.050968 0.000000
# 6 0.000000 0.000000 0.000000 0.000000 0.000000 0.043170
#
#
# Mechanical properties :
#
#
# Convention : Reuss Voigt Hill
#
# Bulk Modulus (GPa) = 52.38181 56.07751 54.22966
# Shear Modulus (GPa) = 21.94948 22.60635 22.27791
#
# Velocity S-wave (km/s) = 3.52761 3.58001 3.55391
# Velocity P-wave (km/s) = 6.80364 6.99151 6.89821
#
# Compressibility (1/GPa) = 0.01909059
#
# Stress axis : x y z
#
# Youngs Moduli (GPa) = 72.88155 47.98517 71.22686
#
# Poissons Ratio (x) = 0.17654 0.32416
# Poissons Ratio (y) = 0.26813 0.46473
# Poissons Ratio (z) = 0.33169 0.31309
#
# Static dielectric constant tensor:
#      x y z
#    x 3.133150 0.000000 0.000000 
#    y 0.000000 3.187560 0.000000 
#    z 0.000000 0.000000 3.369650 
# 
# 
# High freq. dielectric constant tensor:
#      x y z
#    x 1.657480 0.000000 0.000000 
#    y 0.000000 1.675860 0.000000 
#    z 0.000000 0.000000 1.679040 
# 
# From -- ./inp_files/71860.got.cif
#   From: 2010.03.12/outbox.cif.g09.slc.cpg/sg65_36_cif.got.tgz:71860.got - 2010.04.10 20:52:16.
