data_PCOD8266796
_publ_section_title
;
Structure prediction by ZEFSAII (Michael W. Deem and Ramdas Pophale) SiO2 
 PCOD8266796
Probable space group: C M M M
;
_chemical_formula_sum "Si O2"
_cell_formula_units_Z 88
_cell_length_a 8.766014
_cell_length_b 19.450955
_cell_length_c 28.078057
_cell_angle_alpha 90.000000
_cell_angle_beta 90.000000
_cell_angle_gamma 90.000000
_cell_volume 4787.514919
_symmetry_space_group_name_H-M "C M M M"
_symmetry_group_IT_number 65
_symmetry_cell_setting 'orthorhombic'
loop_
_space_group_symop_operation_xyz
x,y,z
-x,-y,z
x,-y,-z
-x,y,-z
-x,-y,-z
x,y,-z
-x,y,z
x,-y,z
1/2+x,1/2+y,z
1/2-x,1/2-y,z
1/2+x,1/2-y,-z
1/2-x,1/2+y,-z
1/2-x,1/2-y,-z
1/2+x,1/2+y,-z
1/2-x,1/2+y,z
1/2+x,1/2-y,z
loop_
_atom_site_type_symbol
_atom_site_label
_atom_site_fract_x
_atom_site_fract_y
_atom_site_fract_z
Si Si1 0.824443 0.919438 0.326812
Si Si2 0.821498 0.579113 0.873107
Si Si3 0.681981 0.674190 0.500000
Si Si4 0.831350 0.581388 0.768240
Si Si5 0.178829 0.179637 0.053684
Si Si6 0.319784 0.174886 0.595853
O O1 0.786725 0.896278 0.272762
O O2 0.716669 0.876269 0.361316
O O3 0.000000 0.902293 0.337385
O O4 0.789135 0.000000 0.334177
O O5 0.774976 0.500000 0.877700
O O6 0.777861 0.607939 0.820278
O O7 0.726072 0.617769 0.912699
O O8 0.000000 0.589864 0.882244
O O9 0.500000 0.673185 0.500000
O O10 0.750000 0.750000 0.500000
O O11 0.746294 0.639878 0.548332
O O12 0.842334 0.500000 0.771794
O O13 0.000000 0.610577 0.755813
O O14 0.250000 0.250000 0.073370
O O15 0.000000 0.188185 0.054706
O O16 0.237410 0.164505 0.000000
O O17 0.500000 0.182608 0.589325
O O18 0.250000 0.250000 0.606153
#
# Coordination Sequence:
#
# PCOD8266796 Si02
#       6
#    16  16   8  16  16  16
#     4  10  20  34  53  78 107 138 172 210 255 305
#     4   9  18  33  54  79 105 133 167 208 252 299
#     4  10  18  32  53  76 103 134 171 211 255 307
#     4   8  15  30  51  74 101 134 170 206 248 300
#     4  10  21  36  53  73 100 135 172 210 254 305
#     4  11  21  35  55  78 105 136 173 214 257 304
#
# _framework density 18.381143999999999
#
# number of rings (size 3 to 8) (size 9 to 14) (size 15 to 20)
#    0.000    2.364    0.000    5.727    0.000    3.636 
#    0.000    5.000    0.000    7.091    0.000    0.000 
#    0.000    0.000    0.000    0.000    0.000    0.000 
#
# Total GULP energy -545476.228657 kJ/mol
# GULP energy per Si atom -12397.187015 kJ/mol
# Density = 1.833931 g / cm^3
# Si number density = 18.381144 Si / 1000 Ang^3
#
#
#
# Elastic Constant Matrix: (Units=GPa)
#
#
# Indices 1 2 3 4 5 6 
#
# 1 108.5383 35.1654 49.3573 0.0000 0.0000 0.0000
# 2 35.1654 53.7530 46.2891 0.0000 0.0000 0.0000
# 3 49.3573 46.2891 122.8573 0.0000 0.0000 0.0000
# 4 0.0000 0.0000 0.0000 61.9300 0.0000 0.0000
# 5 0.0000 0.0000 0.0000 0.0000 36.1421 0.0000
# 6 0.0000 0.0000 0.0000 0.0000 0.0000 27.8677
#
#
#
# Elastic Compliance Matrix: (Units=1/GPa)
#
#
# Indices 1 2 3 4 5 6 
#
# 1 0.012323 -0.005623 -0.002832 0.000000 0.000000 0.000000
# 2 -0.005623 0.030104 -0.009083 0.000000 0.000000 0.000000
# 3 -0.002832 -0.009083 0.012700 0.000000 0.000000 0.000000
# 4 0.000000 0.000000 0.000000 0.016147 0.000000 0.000000
# 5 0.000000 0.000000 0.000000 0.000000 0.027669 0.000000
# 6 0.000000 0.000000 0.000000 0.000000 0.000000 0.035884
#
#
# Mechanical properties :
#
#
# Convention : Reuss Voigt Hill
#
# Bulk Modulus (GPa) = 49.87527 60.75246 55.31387
# Shear Modulus (GPa) = 28.31465 35.47708 31.89587
#
# Velocity S-wave (km/s) = 3.92907 4.39803 4.17015
# Velocity P-wave (km/s) = 6.91204 7.67552 7.30376
#
# Compressibility (1/GPa) = 0.02005002
#
# Stress axis : x y z
#
# Youngs Moduli (GPa) = 81.14895 33.21787 78.74181
#
# Poissons Ratio (x) = 0.18678 0.22301
# Poissons Ratio (y) = 0.45629 0.71525
# Poissons Ratio (z) = 0.22983 0.30173
#
# Static dielectric constant tensor:
#      x y z
#    x 3.385390 0.000000 0.000000 
#    y 0.000000 3.036900 0.000000 
#    z 0.000000 0.000000 3.880210 
# 
# 
# High freq. dielectric constant tensor:
#      x y z
#    x 1.719810 0.000000 0.000000 
#    y 0.000000 1.674900 0.000000 
#    z 0.000000 0.000000 1.728830 
# 
# From -- ./inp_files/73132.got.cif
#   From: 2010.03.12/outbox.cif.g09.slc.cpg/sg65_37_cif.got.tgz:73132.got - 2010.04.10 20:52:16.
