data_PCOD8266308
_publ_section_title
;
Structure prediction by ZEFSAII (Michael W. Deem and Ramdas Pophale) SiO2 
 PCOD8266308
Probable space group: C M M M
;
_chemical_formula_sum "Si O2"
_cell_formula_units_Z 80
_cell_length_a 19.003684
_cell_length_b 8.956915
_cell_length_c 26.147681
_cell_angle_alpha 90.000000
_cell_angle_beta 90.000000
_cell_angle_gamma 90.000000
_cell_volume 4450.711369
_symmetry_space_group_name_H-M "C M M M"
_symmetry_group_IT_number 65
_symmetry_cell_setting 'orthorhombic'
loop_
_space_group_symop_operation_xyz
x,y,z
-x,-y,z
x,-y,-z
-x,y,-z
-x,-y,-z
x,y,-z
-x,y,z
x,-y,z
1/2+x,1/2+y,z
1/2-x,1/2-y,z
1/2+x,1/2-y,-z
1/2-x,1/2+y,-z
1/2-x,1/2-y,-z
1/2+x,1/2+y,-z
1/2-x,1/2+y,z
1/2+x,1/2-y,z
loop_
_atom_site_type_symbol
_atom_site_label
_atom_site_fract_x
_atom_site_fract_y
_atom_site_fract_z
Si Si1 0.916086 0.168099 0.000000
Si Si2 0.583949 0.168131 0.100716
Si Si3 0.325682 0.822534 0.398895
Si Si4 0.827366 0.820428 0.500000
Si Si5 0.080188 0.326115 0.302445
Si Si6 0.416183 0.668123 0.798981
O O1 0.886651 0.249095 0.050522
O O2 0.000000 0.171480 0.000000
O O3 0.887574 0.000000 0.000000
O O4 0.500000 0.172501 0.100934
O O5 0.614139 0.246757 0.151548
O O6 0.612232 0.000000 0.099751
O O7 0.250000 0.750000 0.388521
O O8 0.362914 0.745305 0.448479
O O9 0.374528 0.781388 0.351386
O O10 0.318266 0.000000 0.407347
O O11 0.750000 0.750000 0.500000
O O12 0.827081 0.000000 0.500000
O O13 0.084782 0.500000 0.290405
O O14 0.111868 0.242854 0.253050
O O15 0.000000 0.277000 0.313288
O O16 0.500000 0.675251 0.799706
O O17 0.388097 0.500000 0.801052
#
# Coordination Sequence:
#
# PCOD8266308 Si02
#       6
#     8  16  16   8  16  16
#     4   9  15  21  29  43  65  93 130 177 222 261
#     4   9  15  22  32  46  67  98 136 175 215 262
#     4  10  19  32  51  72  94 119 149 185 223 265
#     4  10  18  30  49  70  93 119 149 183 219 264
#     4   9  18  32  48  66  89 119 153 186 221 264
#     4   9  16  25  38  56  78 106 140 178 219 262
#
# _framework density 17.974654000000001
#
# number of rings (size 3 to 8) (size 9 to 14) (size 15 to 20)
#    0.000    2.700    0.000    4.200    0.000    7.600 
#    0.000    0.500    0.000    3.000    0.000    0.000 
#    0.000    0.000    0.000    0.900    0.000   13.200 
#
# Total GULP energy -495866.169224 kJ/mol
# GULP energy per Si atom -12396.654231 kJ/mol
# Density = 1.793374 g / cm^3
# Si number density = 17.974654 Si / 1000 Ang^3
#
#
#
# Elastic Constant Matrix: (Units=GPa)
#
#
# Indices 1 2 3 4 5 6 
#
# 1 24.1492 22.5003 36.3067 0.0000 0.0000 0.0000
# 2 22.5003 149.5682 106.8990 0.0000 0.0000 0.0000
# 3 36.3067 106.8990 213.8549 0.0000 0.0000 0.0000
# 4 0.0000 0.0000 0.0000 40.3099 0.0000 0.0000
# 5 0.0000 0.0000 0.0000 0.0000 -1.4029 0.0000
# 6 0.0000 0.0000 0.0000 0.0000 0.0000 12.2325
#
#
#
# Elastic Compliance Matrix: (Units=1/GPa)
#
#
# Indices 1 2 3 4 5 6 
#
# 1 0.056217 -0.002545 -0.008272 0.000000 0.000000 0.000000
# 2 -0.002545 0.010517 -0.004825 0.000000 0.000000 0.000000
# 3 -0.008272 -0.004825 0.008492 0.000000 0.000000 0.000000
# 4 0.000000 0.000000 0.000000 0.024808 0.000000 0.000000
# 5 0.000000 0.000000 0.000000 0.000000 -0.712803 0.000000
# 6 0.000000 0.000000 0.000000 0.000000 0.000000 0.081750
#
#
# Mechanical properties :
#
#
# Convention : Reuss Voigt Hill
#
# Bulk Modulus (GPa) = 22.75710 79.88714 51.32212
# Shear Modulus (GPa) = -10.30742 25.01898 7.35578
#
# Velocity S-wave (km/s) = -2.39726 3.73487 2.02514
# Velocity P-wave (km/s) = 2.24180 7.94606 5.83804
#
# Compressibility (1/GPa) = 0.04394234
#
# Stress axis : x y z
#
# Youngs Moduli (GPa) = 17.78834 95.07991 117.75199
#
# Poissons Ratio (x) = 0.24196 0.97404
# Poissons Ratio (y) = 0.04527 0.56819
# Poissons Ratio (z) = 0.14714 0.45879
#
# Static dielectric constant tensor:
#      x y z
#    x 2.627280 0.000000 0.000000 
#    y 0.000000 3.481300 0.000000 
#    z 0.000000 0.000000 3.823950 
# 
# 
# High freq. dielectric constant tensor:
#      x y z
#    x 1.610250 0.000000 0.000000 
#    y 0.000000 1.711930 0.000000 
#    z 0.000000 0.000000 1.721630 
# 
# From -- ./inp_files/71363.got.cif
#   From: 2010.03.12/outbox.cif.g09.slc.cpg/sg65_36_cif.got.tgz:71363.got - 2010.04.10 20:52:16.
