data_PCOD8266237
_publ_section_title
;
Structure prediction by ZEFSAII (Michael W. Deem and Ramdas Pophale) SiO2 
 PCOD8266237
Probable space group: C M M M
;
_chemical_formula_sum "Si O2"
_cell_formula_units_Z 88
_cell_length_a 8.742950
_cell_length_b 27.453088
_cell_length_c 21.690739
_cell_angle_alpha 90.000000
_cell_angle_beta 90.000000
_cell_angle_gamma 90.000000
_cell_volume 5206.232339
_symmetry_space_group_name_H-M "C M M M"
_symmetry_group_IT_number 65
_symmetry_cell_setting 'orthorhombic'
loop_
_space_group_symop_operation_xyz
x,y,z
-x,-y,z
x,-y,-z
-x,y,-z
-x,-y,-z
x,y,-z
-x,y,z
x,-y,z
1/2+x,1/2+y,z
1/2-x,1/2-y,z
1/2+x,1/2-y,-z
1/2-x,1/2+y,-z
1/2-x,1/2-y,-z
1/2+x,1/2+y,-z
1/2-x,1/2+y,z
1/2+x,1/2-y,z
loop_
_atom_site_type_symbol
_atom_site_label
_atom_site_fract_x
_atom_site_fract_y
_atom_site_fract_z
Si Si1 0.323782 0.198468 0.000000
Si Si2 0.680912 0.644691 0.247144
Si Si3 0.319245 0.055407 0.311214
Si Si4 0.820261 0.699396 0.640522
Si Si5 0.820270 0.394558 0.432623
Si Si6 0.819096 0.696057 0.866186
O O1 0.250000 0.250000 0.000000
O O2 0.281251 0.173121 0.065391
O O3 0.500000 0.209644 0.000000
O O4 0.500000 0.646675 0.249214
O O5 0.736502 0.590025 0.262247
O O6 0.747293 0.683791 0.294843
O O7 0.740559 0.658338 0.179808
O O8 0.500000 0.065173 0.307014
O O9 0.260277 0.067867 0.380620
O O10 0.276381 0.000000 0.295617
O O11 0.750000 0.750000 0.617923
O O12 0.779315 0.660214 0.588027
O O13 0.000000 0.704403 0.650671
O O14 0.744899 0.404868 0.500000
O O15 0.000000 0.400856 0.438768
O O16 0.750000 0.750000 0.858046
O O17 0.000000 0.698827 0.853579
#
# Coordination Sequence:
#
# PCOD8266237 Si02
#       6
#     8  16  16  16  16  16
#     4   8  16  28  44  66  95 130 161 190 222 261
#     4  11  21  32  47  68  93 123 158 194 232 273
#     4   9  18  33  52  72  93 117 147 188 237 284
#     4  10  19  31  46  65  91 123 157 193 231 272
#     4   8  15  28  46  69  94 118 147 184 227 279
#     4  10  18  30  47  70 100 131 162 192 225 266
#
# _framework density 16.902819000000001
#
# number of rings (size 3 to 8) (size 9 to 14) (size 15 to 20)
#    0.000    2.545    0.000    4.364    0.000    1.818 
#    0.000    1.818    0.000   13.091    0.000    5.727 
#    0.000    5.091    0.000    0.000    0.000    0.000 
#
# Total GULP energy -545288.993803 kJ/mol
# GULP energy per Si atom -12392.931677 kJ/mol
# Density = 1.686435 g / cm^3
# Si number density = 16.902819 Si / 1000 Ang^3
#
#
#
# Elastic Constant Matrix: (Units=GPa)
#
#
# Indices 1 2 3 4 5 6 
#
# 1 74.0500 33.7780 37.6812 0.0000 0.0000 0.0000
# 2 33.7780 86.7419 42.8269 0.0000 0.0000 0.0000
# 3 37.6812 42.8269 129.6002 0.0000 0.0000 0.0000
# 4 0.0000 0.0000 0.0000 17.4891 0.0000 0.0000
# 5 0.0000 0.0000 0.0000 0.0000 14.2749 0.0000
# 6 0.0000 0.0000 0.0000 0.0000 0.0000 24.2114
#
#
#
# Elastic Compliance Matrix: (Units=1/GPa)
#
#
# Indices 1 2 3 4 5 6 
#
# 1 0.017597 -0.005170 -0.003408 0.000000 0.000000 0.000000
# 2 -0.005170 0.015295 -0.003551 0.000000 0.000000 0.000000
# 3 -0.003408 -0.003551 0.009880 0.000000 0.000000 0.000000
# 4 0.000000 0.000000 0.000000 0.057179 0.000000 0.000000
# 5 0.000000 0.000000 0.000000 0.000000 0.070053 0.000000
# 6 0.000000 0.000000 0.000000 0.000000 0.000000 0.041303
#
#
# Mechanical properties :
#
#
# Convention : Reuss Voigt Hill
#
# Bulk Modulus (GPa) = 54.01193 57.66271 55.83732
# Shear Modulus (GPa) = 20.68378 22.93548 21.80963
#
# Velocity S-wave (km/s) = 3.50192 3.68761 3.59597
# Velocity P-wave (km/s) = 6.95522 7.23323 7.09559
#
# Compressibility (1/GPa) = 0.01851443
#
# Stress axis : x y z
#
# Youngs Moduli (GPa) = 56.82884 65.38131 101.21072
#
# Poissons Ratio (x) = 0.33800 0.34491
# Poissons Ratio (y) = 0.29379 0.35942
# Poissons Ratio (z) = 0.19367 0.23218
#
# Static dielectric constant tensor:
#      x y z
#    x 3.052440 0.000000 0.000000 
#    y 0.000000 3.006570 0.000000 
#    z 0.000000 0.000000 3.519410 
# 
# 
# High freq. dielectric constant tensor:
#      x y z
#    x 1.645240 0.000000 0.000000 
#    y 0.000000 1.626120 0.000000 
#    z 0.000000 0.000000 1.655670 
# 
# From -- ./inp_files/60662.got.cif
#   From: 2010.03.12/outbox.cif.g09.slc.cpg/sg65_31_cif.got.tgz:60662.got - 2010.04.10 20:52:16.
