data_PCOD8266232
_publ_section_title
;
Structure prediction by ZEFSAII (Michael W. Deem and Ramdas Pophale) SiO2 
 PCOD8266232
Probable space group: C M M M
;
_chemical_formula_sum "Si O2"
_cell_formula_units_Z 120
_cell_length_a 8.764209
_cell_length_b 27.482527
_cell_length_c 25.973670
_cell_angle_alpha 90.000000
_cell_angle_beta 90.000000
_cell_angle_gamma 90.000000
_cell_volume 6256.085960
_symmetry_space_group_name_H-M "C M M M"
_symmetry_group_IT_number 65
_symmetry_cell_setting 'orthorhombic'
loop_
_space_group_symop_operation_xyz
x,y,z
-x,-y,z
x,-y,-z
-x,y,-z
-x,-y,-z
x,y,-z
-x,y,z
x,-y,z
1/2+x,1/2+y,z
1/2-x,1/2-y,z
1/2+x,1/2-y,-z
1/2-x,1/2+y,-z
1/2-x,1/2-y,-z
1/2+x,1/2+y,-z
1/2-x,1/2+y,z
1/2+x,1/2-y,z
loop_
_atom_site_type_symbol
_atom_site_label
_atom_site_fract_x
_atom_site_fract_y
_atom_site_fract_z
Si Si1 0.820211 0.351556 0.896536
Si Si2 0.819365 0.301573 0.206836
Si Si3 0.682647 0.803579 0.000000
Si Si4 0.320950 0.054862 0.160608
Si Si5 0.679175 0.602260 0.440938
Si Si6 0.670774 0.797991 0.561039
Si Si7 0.820884 0.893224 0.254653
Si Si8 0.174940 0.444055 0.651795
O O1 0.762839 0.316873 0.850353
O O2 0.770542 0.407449 0.884475
O O3 0.000000 0.348644 0.900565
O O4 0.751796 0.332667 0.950418
O O5 0.750000 0.250000 0.221959
O O6 0.760685 0.341504 0.246984
O O7 0.000000 0.298951 0.209843
O O8 0.750000 0.750000 0.000000
O O9 0.500000 0.800491 0.000000
O O10 0.500000 0.060808 0.172319
O O11 0.234185 0.067090 0.213125
O O12 0.280701 0.000000 0.142873
O O13 0.727006 0.592978 0.500000
O O14 0.500000 0.596668 0.433279
O O15 0.729157 0.655844 0.422477
O O16 0.766845 0.562866 0.406526
O O17 0.663679 0.793353 0.500000
O O18 0.500000 0.803039 0.583683
O O19 0.750000 0.750000 0.584680
O O20 0.779373 0.911870 0.311106
O O21 0.000000 0.885939 0.249625
O O22 0.193180 0.500000 0.667257
O O23 0.000000 0.427367 0.656444
#
# Coordination Sequence:
#
# PCOD8266232 Si02
#       8
#    16  16   8  16  16  16  16  16
#     4   8  16  29  47  73 105 141 181 225 268 317
#     4  10  19  34  55  80 111 145 181 220 268 322
#     4  10  18  30  47  69 101 139 182 228 273 320
#     4   9  17  32  53  75 102 137 176 220 273 327
#     4  10  21  37  57  82 112 144 179 219 261 307
#     4   9  16  28  49  76 105 137 173 211 251 296
#     4  11  22  36  56  82 109 137 173 217 266 320
#     4  11  24  41  60  81 107 140 176 216 265 318
#
# _framework density 19.181322999999999
#
# number of rings (size 3 to 8) (size 9 to 14) (size 15 to 20)
#    0.000    2.267    0.000    4.400    0.000    5.600 
#    0.000    5.000    0.000    2.000    0.000    0.000 
#    0.000    4.800    0.000    0.000    0.000    0.000 
#
# Total GULP energy -744029.210747 kJ/mol
# GULP energy per Si atom -12400.486846 kJ/mol
# Density = 1.913767 g / cm^3
# Si number density = 19.181323 Si / 1000 Ang^3
#
#
#
# Elastic Constant Matrix: (Units=GPa)
#
#
# Indices 1 2 3 4 5 6 
#
# 1 78.6506 38.5437 26.0402 0.0000 0.0000 0.0000
# 2 38.5437 127.2801 50.0178 0.0000 0.0000 0.0000
# 3 26.0402 50.0178 92.2291 0.0000 0.0000 0.0000
# 4 0.0000 0.0000 0.0000 24.5747 0.0000 0.0000
# 5 0.0000 0.0000 0.0000 0.0000 19.1226 0.0000
# 6 0.0000 0.0000 0.0000 0.0000 0.0000 30.9977
#
#
#
# Elastic Compliance Matrix: (Units=1/GPa)
#
#
# Indices 1 2 3 4 5 6 
#
# 1 0.015304 -0.003732 -0.002297 0.000000 0.000000 0.000000
# 2 -0.003732 0.010895 -0.004855 0.000000 0.000000 0.000000
# 3 -0.002297 -0.004855 0.014124 0.000000 0.000000 0.000000
# 4 0.000000 0.000000 0.000000 0.040692 0.000000 0.000000
# 5 0.000000 0.000000 0.000000 0.000000 0.052294 0.000000
# 6 0.000000 0.000000 0.000000 0.000000 0.000000 0.032260
#
#
# Mechanical properties :
#
#
# Convention : Reuss Voigt Hill
#
# Bulk Modulus (GPa) = 53.89328 58.59593 56.24460
# Shear Modulus (GPa) = 25.83697 27.17620 26.50658
#
# Velocity S-wave (km/s) = 3.67411 3.76813 3.72142
# Velocity P-wave (km/s) = 6.79386 7.03893 6.91748
#
# Compressibility (1/GPa) = 0.01855519
#
# Stress axis : x y z
#
# Youngs Moduli (GPa) = 65.34337 91.78932 70.80166
#
# Poissons Ratio (x) = 0.34253 0.16264
# Poissons Ratio (y) = 0.24384 0.34372
# Poissons Ratio (z) = 0.15010 0.44561
#
# Static dielectric constant tensor:
#      x y z
#    x 3.417960 0.000000 0.000000 
#    y 0.000000 3.624500 0.000000 
#    z 0.000000 0.000000 3.489650 
# 
# 
# High freq. dielectric constant tensor:
#      x y z
#    x 1.739900 0.000000 0.000000 
#    y 0.000000 1.753090 0.000000 
#    z 0.000000 0.000000 1.725380 
# 
# From -- ./inp_files/73945.got.cif
#   From: 2010.03.12/outbox.cif.g09.slc.cpg/sg65_37_cif.got.tgz:73945.got - 2010.04.10 20:52:16.
