data_PCOD8266026
_publ_section_title
;
Structure prediction by ZEFSAII (Michael W. Deem and Ramdas Pophale) SiO2 
 PCOD8266026
Probable space group: C M M M
;
_chemical_formula_sum "Si O2"
_cell_formula_units_Z 120
_cell_length_a 19.081175
_cell_length_b 18.820754
_cell_length_c 19.245947
_cell_angle_alpha 90.000000
_cell_angle_beta 90.000000
_cell_angle_gamma 90.000000
_cell_volume 6911.644917
_symmetry_space_group_name_H-M "C M M M"
_symmetry_group_IT_number 65
_symmetry_cell_setting 'orthorhombic'
loop_
_space_group_symop_operation_xyz
x,y,z
-x,-y,z
x,-y,-z
-x,y,-z
-x,-y,-z
x,y,-z
-x,y,z
x,-y,z
1/2+x,1/2+y,z
1/2-x,1/2-y,z
1/2+x,1/2-y,-z
1/2-x,1/2+y,-z
1/2-x,1/2-y,-z
1/2+x,1/2+y,-z
1/2-x,1/2+y,z
1/2+x,1/2-y,z
loop_
_atom_site_type_symbol
_atom_site_label
_atom_site_fract_x
_atom_site_fract_y
_atom_site_fract_z
Si Si1 0.079413 0.344588 0.423252
Si Si2 0.922893 0.676086 0.819702
Si Si3 0.371075 0.080297 0.705955
Si Si4 0.175668 0.787048 0.248075
Si Si5 0.416868 0.419019 0.500000
Si Si6 0.580484 0.312858 0.381110
Si Si7 0.152332 0.419215 0.920643
Si Si8 0.760265 0.077982 0.802621
O O1 0.100448 0.371557 0.500000
O O2 0.131760 0.380501 0.368285
O O3 0.085088 0.259704 0.423976
O O4 0.000000 0.367899 0.405186
O O5 0.925132 0.620496 0.756079
O O6 0.866226 0.736536 0.804315
O O7 0.905365 0.634921 0.891014
O O8 0.000000 0.710054 0.826981
O O9 0.294425 0.084280 0.739345
O O10 0.396911 0.000000 0.696326
O O11 0.250000 0.750000 0.266776
O O12 0.131710 0.805219 0.316128
O O13 0.182917 0.860843 0.206670
O O14 0.386853 0.500000 0.500000
O O15 0.500000 0.420036 0.500000
O O16 0.392420 0.377107 0.569486
O O17 0.500000 0.326160 0.356395
O O18 0.123923 0.500000 0.913500
O O19 0.223161 0.410686 0.876613
O O20 0.168920 0.399593 0.000000
O O21 0.796101 0.000000 0.800482
#
# Coordination Sequence:
#
# PCOD8266026 Si02
#       8
#    16  16  16  16   8  16  16  16
#     4  10  18  29  46  69  98 133 170 209 255 308
#     4  11  21  33  52  80 111 141 178 223 269 319
#     4  10  19  32  50  72 101 137 176 216 264 315
#     4  12  20  34  56  80 103 142 184 219 262 327
#     4   9  18  34  55  78 101 129 173 230 291 341
#     4  10  19  33  54  77 101 131 171 223 273 323
#     4   9  18  34  56  82 113 148 182 213 257 319
#     4   9  19  36  55  76 105 141 179 222 265 313
#
# _framework density 17.362003000000001
#
# number of rings (size 3 to 8) (size 9 to 14) (size 15 to 20)
#    0.000    1.933    4.667    2.000    0.000    2.933 
#    0.000    3.000    1.467    1.200    0.000    0.000 
#    0.000    0.000    0.000   14.533    0.000    0.000 
#
# Total GULP energy -743790.883029 kJ/mol
# GULP energy per Si atom -12396.514717 kJ/mol
# Density = 1.732249 g / cm^3
# Si number density = 17.362003 Si / 1000 Ang^3
#
#
#
# Elastic Constant Matrix: (Units=GPa)
#
#
# Indices 1 2 3 4 5 6 
#
# 1 73.9528 45.1263 39.5671 0.0000 0.0000 0.0000
# 2 45.1263 120.9330 57.2671 0.0000 0.0000 0.0000
# 3 39.5671 57.2671 131.5665 0.0000 0.0000 0.0000
# 4 0.0000 0.0000 0.0000 25.7464 0.0000 0.0000
# 5 0.0000 0.0000 0.0000 0.0000 14.6895 0.0000
# 6 0.0000 0.0000 0.0000 0.0000 0.0000 17.1314
#
#
#
# Elastic Compliance Matrix: (Units=1/GPa)
#
#
# Indices 1 2 3 4 5 6 
#
# 1 0.018538 -0.005388 -0.003230 0.000000 0.000000 0.000000
# 2 -0.005388 0.011982 -0.003595 0.000000 0.000000 0.000000
# 3 -0.003230 -0.003595 0.010137 0.000000 0.000000 0.000000
# 4 0.000000 0.000000 0.000000 0.038840 0.000000 0.000000
# 5 0.000000 0.000000 0.000000 0.000000 0.068076 0.000000
# 6 0.000000 0.000000 0.000000 0.000000 0.000000 0.058372
#
#
# Mechanical properties :
#
#
# Convention : Reuss Voigt Hill
#
# Bulk Modulus (GPa) = 61.61015 67.81924 64.71469
# Shear Modulus (GPa) = 21.20608 23.81291 22.50949
#
# Velocity S-wave (km/s) = 3.49866 3.70747 3.60457
# Velocity P-wave (km/s) = 7.20302 7.58114 7.39450
#
# Compressibility (1/GPa) = 0.01623109
#
# Stress axis : x y z
#
# Youngs Moduli (GPa) = 53.94324 83.45851 98.64976
#
# Poissons Ratio (x) = 0.44968 0.31862
# Poissons Ratio (y) = 0.29065 0.35465
# Poissons Ratio (z) = 0.17423 0.30004
#
# Static dielectric constant tensor:
#      x y z
#    x 2.950560 0.000000 0.000000 
#    y 0.000000 3.492970 0.000000 
#    z 0.000000 0.000000 3.214630 
# 
# 
# High freq. dielectric constant tensor:
#      x y z
#    x 1.635890 0.000000 0.000000 
#    y 0.000000 1.675980 0.000000 
#    z 0.000000 0.000000 1.664920 
# 
# From -- ./inp_files/56101.got.cif
#   From: 2010.03.12/outbox.cif.g09.slc.cpg/sg65_29_cif.got.tgz:56101.got - 2010.04.10 20:52:16.
