data_PCOD8266727
_publ_section_title
;
Structure prediction by ZEFSAII (Michael W. Deem and Ramdas Pophale) SiO2 
 PCOD8266727
Probable space group: C M M M
;
_chemical_formula_sum "Si O2"
_cell_formula_units_Z 80
_cell_length_a 9.134512
_cell_length_b 27.791181
_cell_length_c 23.260689
_cell_angle_alpha 90.000000
_cell_angle_beta 90.000000
_cell_angle_gamma 90.000000
_cell_volume 5904.932372
_symmetry_space_group_name_H-M "C M M M"
_symmetry_group_IT_number 65
_symmetry_cell_setting 'orthorhombic'
loop_
_space_group_symop_operation_xyz
x,y,z
-x,-y,z
x,-y,-z
-x,y,-z
-x,-y,-z
x,y,-z
-x,y,z
x,-y,z
1/2+x,1/2+y,z
1/2-x,1/2-y,z
1/2+x,1/2-y,-z
1/2-x,1/2+y,-z
1/2-x,1/2-y,-z
1/2+x,1/2+y,-z
1/2-x,1/2+y,z
1/2+x,1/2-y,z
loop_
_atom_site_type_symbol
_atom_site_label
_atom_site_fract_x
_atom_site_fract_y
_atom_site_fract_z
Si Si1 0.324554 0.801432 0.000000
Si Si2 0.834112 0.878186 0.062985
Si Si3 0.328761 0.055709 0.847692
Si Si4 0.162160 0.557181 0.719382
Si Si5 0.663974 0.442576 0.389110
Si Si6 0.335254 0.057363 0.500000
O O1 0.250000 0.750000 0.000000
O O2 0.265956 0.829909 0.056966
O O3 0.500000 0.797762 0.000000
O O4 0.767225 0.913859 0.109023
O O5 0.000000 0.864269 0.081175
O O6 0.835554 0.903914 0.000000
O O7 0.500000 0.064623 0.858973
O O8 0.285576 0.072412 0.783091
O O9 0.289685 0.000000 0.856909
O O10 0.156520 0.500000 0.716475
O O11 0.269242 0.577839 0.670388
O O12 0.000000 0.577683 0.707263
O O13 0.500000 0.422772 0.394568
O O14 0.666252 0.500000 0.388849
O O15 0.755065 0.422720 0.443241
O O16 0.500000 0.077192 0.500000
O O17 0.333365 0.000000 0.500000
#
# Coordination Sequence:
#
# PCOD8266727 Si02
#       6
#     8  16  16  16  16   8
#     4  10  18  32  51  66  81  98 118 147 185 225
#     4   9  19  31  42  61  82 100 125 154 187 225
#     4   9  17  28  41  56  75 102 132 160 191 226
#     4   8  14  24  35  46  62  86 117 148 179 219
#     4   9  15  21  29  42  58  76 103 140 181 220
#     4   9  15  21  29  39  53  75 101 135 180 221
#
# _framework density 13.547995999999999
#
# number of rings (size 3 to 8) (size 9 to 14) (size 15 to 20)
#    0.600    2.500    0.000    3.300    0.000    5.200 
#    0.000    4.000    0.000    0.000    0.000    0.000 
#    0.000    0.000    0.000    0.000    0.000    0.000 
#
# Total GULP energy -495606.269330 kJ/mol
# GULP energy per Si atom -12390.156733 kJ/mol
# Density = 1.351716 g / cm^3
# Si number density = 13.547996 Si / 1000 Ang^3
#
#
#
# Elastic Constant Matrix: (Units=GPa)
#
#
# Indices 1 2 3 4 5 6 
#
# 1 125.9928 35.3941 68.6085 0.0000 0.0000 0.0000
# 2 35.3941 33.7371 29.4166 0.0000 0.0000 0.0000
# 3 68.6085 29.4166 106.5458 0.0000 0.0000 0.0000
# 4 0.0000 0.0000 0.0000 -0.8153 0.0000 0.0000
# 5 0.0000 0.0000 0.0000 0.0000 26.2725 0.0000
# 6 0.0000 0.0000 0.0000 0.0000 0.0000 15.6633
#
#
#
# Elastic Compliance Matrix: (Units=1/GPa)
#
#
# Indices 1 2 3 4 5 6 
#
# 1 0.014036 -0.009015 -0.006549 0.000000 0.000000 0.000000
# 2 -0.009015 0.044829 -0.006572 0.000000 0.000000 0.000000
# 3 -0.006549 -0.006572 0.015417 0.000000 0.000000 0.000000
# 4 0.000000 0.000000 0.000000 -1.226563 0.000000 0.000000
# 5 0.000000 0.000000 0.000000 0.000000 0.038063 0.000000
# 6 0.000000 0.000000 0.000000 0.000000 0.000000 0.063844
#
#
# Mechanical properties :
#
#
# Convention : Reuss Voigt Hill
#
# Bulk Modulus (GPa) = 33.32216 59.23490 46.27853
# Shear Modulus (GPa) = -5.01958 17.08120 6.03081
#
# Velocity S-wave (km/s) = -1.92693 3.55461 2.11213
# Velocity P-wave (km/s) = 4.43827 7.78872 6.33887
#
# Compressibility (1/GPa) = 0.03001006
#
# Stress axis : x y z
#
# Youngs Moduli (GPa) = 71.24716 22.30710 64.86172
#
# Poissons Ratio (x) = 0.20109 0.42479
# Poissons Ratio (y) = 0.64226 0.42628
# Poissons Ratio (z) = 0.46661 0.14661
#
# Static dielectric constant tensor:
#      x y z
#    x 2.870020 0.000000 0.000000 
#    y 0.000000 2.109620 0.000000 
#    z 0.000000 0.000000 2.827260 
# 
# 
# High freq. dielectric constant tensor:
#      x y z
#    x 1.532450 0.000000 0.000000 
#    y 0.000000 1.434330 0.000000 
#    z 0.000000 0.000000 1.522100 
# 
# From -- ./inp_files/60601.got.cif
#   From: 2010.03.12/outbox.cif.g09.slc.cpg/sg65_31_cif.got.tgz:60601.got - 2010.04.10 20:52:16.
