data_PCOD8266379
_publ_section_title
;
Structure prediction by ZEFSAII (Michael W. Deem and Ramdas Pophale) SiO2 
 PCOD8266379
Probable space group: C M M M
;
_chemical_formula_sum "Si O2"
_cell_formula_units_Z 96
_cell_length_a 8.934498
_cell_length_b 25.522674
_cell_length_c 24.890888
_cell_angle_alpha 90.000000
_cell_angle_beta 90.000000
_cell_angle_gamma 90.000000
_cell_volume 5675.925937
_symmetry_space_group_name_H-M "C M M M"
_symmetry_group_IT_number 65
_symmetry_cell_setting 'orthorhombic'
loop_
_space_group_symop_operation_xyz
x,y,z
-x,-y,z
x,-y,-z
-x,y,-z
-x,-y,-z
x,y,-z
-x,y,z
x,-y,z
1/2+x,1/2+y,z
1/2-x,1/2-y,z
1/2+x,1/2-y,-z
1/2-x,1/2+y,-z
1/2-x,1/2-y,-z
1/2+x,1/2+y,-z
1/2-x,1/2+y,z
1/2+x,1/2-y,z
loop_
_atom_site_type_symbol
_atom_site_label
_atom_site_fract_x
_atom_site_fract_y
_atom_site_fract_z
Si Si1 0.330464 0.500000 0.357544
Si Si2 0.174870 0.697294 0.439225
Si Si3 0.173871 0.106105 0.755634
Si Si4 0.324201 0.000000 0.751795
Si Si5 0.674106 0.194532 0.056690
Si Si6 0.332599 0.387087 0.628831
Si Si7 0.177328 0.692917 0.826668
O O1 0.500000 0.500000 0.331427
O O2 0.205478 0.500000 0.311706
O O3 0.312087 0.552905 0.392632
O O4 0.230186 0.685987 0.500000
O O5 0.250000 0.750000 0.416597
O O6 0.215412 0.648864 0.401603
O O7 0.000000 0.706035 0.437069
O O8 0.249960 0.052376 0.776773
O O9 0.198489 0.113047 0.692179
O O10 0.252919 0.155185 0.782752
O O11 0.000000 0.104870 0.771011
O O12 0.500000 0.000000 0.764045
O O13 0.500000 0.205785 0.057682
O O14 0.750000 0.250000 0.054817
O O15 0.716399 0.167932 0.113889
O O16 0.715926 0.163935 0.000000
O O17 0.500000 0.366814 0.616309
O O18 0.250000 0.750000 0.820004
O O19 0.000000 0.697508 0.817248
#
# Coordination Sequence:
#
# PCOD8266379 Si02
#       7
#     8  16  16   8  16  16  16
#     4   8  16  32  51  73 100 126 153 186 229 278
#     4  10  21  36  53  72  94 122 157 196 235 276
#     4  10  20  34  50  70  98 129 160 195 236 281
#     4  10  18  30  50  73  94 121 160 199 235 279
#     4   8  14  25  41  61  87 120 157 195 233 276
#     4   9  18  33  53  73  94 123 156 190 229 276
#     4  10  19  30  45  68  98 130 162 196 238 285
#
# _framework density 16.913539
#
# number of rings (size 3 to 8) (size 9 to 14) (size 15 to 20)
#    0.000    2.667    0.000    3.250    0.000    5.667 
#    0.000    0.417    0.000    2.500    0.000    0.583 
#    0.000    4.667    0.000    0.000    0.000    0.000 
#
# Total GULP energy -594651.356615 kJ/mol
# GULP energy per Si atom -12388.569929 kJ/mol
# Density = 1.687504 g / cm^3
# Si number density = 16.913539 Si / 1000 Ang^3
#
#
#
# Elastic Constant Matrix: (Units=GPa)
#
#
# Indices 1 2 3 4 5 6 
#
# 1 86.0306 48.8790 33.0375 0.0000 0.0000 0.0000
# 2 48.8790 114.7094 47.8667 0.0000 0.0000 0.0000
# 3 33.0375 47.8667 56.7629 0.0000 0.0000 0.0000
# 4 0.0000 0.0000 0.0000 -0.8561 0.0000 0.0000
# 5 0.0000 0.0000 0.0000 0.0000 19.3166 0.0000
# 6 0.0000 0.0000 0.0000 0.0000 0.0000 30.1173
#
#
#
# Elastic Compliance Matrix: (Units=1/GPa)
#
#
# Indices 1 2 3 4 5 6 
#
# 1 0.016431 -0.004646 -0.005646 0.000000 0.000000 0.000000
# 2 -0.004646 0.014764 -0.009746 0.000000 0.000000 0.000000
# 3 -0.005646 -0.009746 0.029122 0.000000 0.000000 0.000000
# 4 0.000000 0.000000 0.000000 -1.168139 0.000000 0.000000
# 5 0.000000 0.000000 0.000000 0.000000 0.051769 0.000000
# 6 0.000000 0.000000 0.000000 0.000000 0.000000 0.033203
#
#
# Mechanical properties :
#
#
# Convention : Reuss Voigt Hill
#
# Bulk Modulus (GPa) = 49.40286 57.45215 53.42751
# Shear Modulus (GPa) = -5.12282 18.23021 6.55370
#
# Velocity S-wave (km/s) = -1.74224 3.28662 1.97059
# Velocity P-wave (km/s) = 5.02248 6.96020 6.06917
#
# Compressibility (1/GPa) = 0.02024174
#
# Stress axis : x y z
#
# Youngs Moduli (GPa) = 60.85910 67.73094 34.33805
#
# Poissons Ratio (x) = 0.31465 0.19387
# Poissons Ratio (y) = 0.28273 0.33468
# Poissons Ratio (z) = 0.34361 0.66014
#
# Static dielectric constant tensor:
#      x y z
#    x 3.186590 0.000000 0.000000 
#    y 0.000000 3.143660 0.000000 
#    z 0.000000 0.000000 3.360840 
# 
# 
# High freq. dielectric constant tensor:
#      x y z
#    x 1.663250 0.000000 0.000000 
#    y 0.000000 1.635440 0.000000 
#    z 0.000000 0.000000 1.635780 
# 
# From -- ./inp_files/67913.got.cif
#   From: 2010.03.12/outbox.cif.g09.slc.cpg/sg65_34_cif.got.tgz:67913.got - 2010.04.10 20:52:16.
