data_PCOD8266337
_publ_section_title
;
Structure prediction by ZEFSAII (Michael W. Deem and Ramdas Pophale) SiO2 
 PCOD8266337
Probable space group: C M M M
;
_chemical_formula_sum "Si O2"
_cell_formula_units_Z 64
_cell_length_a 18.236369
_cell_length_b 8.595222
_cell_length_c 20.948883
_cell_angle_alpha 90.000000
_cell_angle_beta 90.000000
_cell_angle_gamma 90.000000
_cell_volume 3283.646074
_symmetry_space_group_name_H-M "C M M M"
_symmetry_group_IT_number 65
_symmetry_cell_setting 'orthorhombic'
loop_
_space_group_symop_operation_xyz
x,y,z
-x,-y,z
x,-y,-z
-x,y,-z
-x,-y,-z
x,y,-z
-x,y,z
x,-y,z
1/2+x,1/2+y,z
1/2-x,1/2-y,z
1/2+x,1/2-y,-z
1/2-x,1/2+y,-z
1/2-x,1/2-y,-z
1/2+x,1/2+y,-z
1/2-x,1/2+y,z
1/2+x,1/2-y,z
loop_
_atom_site_type_symbol
_atom_site_label
_atom_site_fract_x
_atom_site_fract_y
_atom_site_fract_z
Si Si1 0.417383 0.185169 0.500000
Si Si2 0.331640 0.684459 0.000000
Si Si3 0.668903 0.184542 0.129590
Si Si4 0.168976 0.684831 0.376327
Si Si5 0.582310 0.185007 0.746656
O O1 0.500000 0.251877 0.500000
O O2 0.375377 0.247248 0.562427
O O3 0.419572 0.000000 0.500000
O O4 0.250000 0.750000 0.000000
O O5 0.368971 0.748972 0.935219
O O6 0.332374 0.500000 0.000000
O O7 0.750000 0.250000 0.139625
O O8 0.619782 0.243438 0.188286
O O9 0.672828 0.000000 0.125354
O O10 0.172273 0.500000 0.376018
O O11 0.250000 0.750000 0.378564
O O12 0.128286 0.749014 0.313347
O O13 0.500000 0.252437 0.743249
O O14 0.580395 0.000000 0.744758
#
# Coordination Sequence:
#
# PCOD8266337 Si02
#       5
#     8   8  16  16  16
#     4   9  17  30  51  77 102 133 172 208 242 285
#     4  10  18  30  49  72  99 127 159 199 241 290
#     4  10  18  30  50  73  97 125 160 202 245 291
#     4  10  19  32  52  76 102 131 166 208 248 290
#     4   9  18  32  50  72  97 128 167 207 244 286
#
# _framework density 19.49053
#
# number of rings (size 3 to 8) (size 9 to 14) (size 15 to 20)
#    0.000    2.375    0.000    5.250    0.000    3.000 
#    0.000    1.875    0.000   13.500    0.000    0.000 
#    0.000    0.000    0.000    0.000    0.000    0.000 
#
# Total GULP energy -396754.322857 kJ/mol
# GULP energy per Si atom -12398.572589 kJ/mol
# Density = 1.944617 g / cm^3
# Si number density = 19.490530 Si / 1000 Ang^3
#
#
#
# Elastic Constant Matrix: (Units=GPa)
#
#
# Indices 1 2 3 4 5 6 
#
# 1 158.8821 20.4103 105.8604 0.0000 0.0000 0.0000
# 2 20.4103 52.2119 35.2683 0.0000 0.0000 0.0000
# 3 105.8604 35.2683 231.3844 0.0000 0.0000 0.0000
# 4 0.0000 0.0000 0.0000 16.3435 0.0000 0.0000
# 5 0.0000 0.0000 0.0000 0.0000 23.8672 0.0000
# 6 0.0000 0.0000 0.0000 0.0000 0.0000 22.8189
#
#
#
# Elastic Compliance Matrix: (Units=1/GPa)
#
#
# Indices 1 2 3 4 5 6 
#
# 1 0.009086 -0.000829 -0.004031 0.000000 0.000000 0.000000
# 2 -0.000829 0.021427 -0.002887 0.000000 0.000000 0.000000
# 3 -0.004031 -0.002887 0.006606 0.000000 0.000000 0.000000
# 4 0.000000 0.000000 0.000000 0.061186 0.000000 0.000000
# 5 0.000000 0.000000 0.000000 0.000000 0.041898 0.000000
# 6 0.000000 0.000000 0.000000 0.000000 0.000000 0.043823
#
#
# Mechanical properties :
#
#
# Convention : Reuss Voigt Hill
#
# Bulk Modulus (GPa) = 46.24100 85.06184 65.65142
# Shear Modulus (GPa) = 24.18638 31.33521 27.76079
#
# Velocity S-wave (km/s) = 3.52651 4.01398 3.77811
# Velocity P-wave (km/s) = 6.35280 8.07590 7.26561
#
# Compressibility (1/GPa) = 0.02162583
#
# Stress axis : x y z
#
# Youngs Moduli (GPa) = 110.05991 46.67071 151.38264
#
# Poissons Ratio (x) = 0.03870 0.61015
# Poissons Ratio (y) = 0.09127 0.43697
# Poissons Ratio (z) = 0.44360 0.13472
#
# Static dielectric constant tensor:
#      x y z
#    x 3.524570 0.000000 0.000000 
#    y 0.000000 3.165450 0.000000 
#    z 0.000000 0.000000 4.293550 
# 
# 
# High freq. dielectric constant tensor:
#      x y z
#    x 1.747030 0.000000 0.000000 
#    y 0.000000 1.722450 0.000000 
#    z 0.000000 0.000000 1.786830 
# 
# From -- ./inp_files/55293.got.cif
#   From: 2010.03.12/outbox.cif.g09.slc.cpg/sg65_28_cif.got.tgz:55293.got - 2010.04.10 20:52:16.
