data_PCOD8266303
_publ_section_title
;
Structure prediction by ZEFSAII (Michael W. Deem and Ramdas Pophale) SiO2 
 PCOD8266303
Probable space group: C M M M
;
_chemical_formula_sum "Si O2"
_cell_formula_units_Z 96
_cell_length_a 24.149095
_cell_length_b 18.368461
_cell_length_c 12.660254
_cell_angle_alpha 90.000000
_cell_angle_beta 90.000000
_cell_angle_gamma 90.000000
_cell_volume 5615.857114
_symmetry_space_group_name_H-M "C M M M"
_symmetry_group_IT_number 65
_symmetry_cell_setting 'orthorhombic'
loop_
_space_group_symop_operation_xyz
x,y,z
-x,-y,z
x,-y,-z
-x,y,-z
-x,-y,-z
x,y,-z
-x,y,z
x,-y,z
1/2+x,1/2+y,z
1/2-x,1/2-y,z
1/2+x,1/2-y,-z
1/2-x,1/2+y,-z
1/2-x,1/2-y,-z
1/2+x,1/2+y,-z
1/2-x,1/2+y,z
1/2+x,1/2-y,z
loop_
_atom_site_type_symbol
_atom_site_label
_atom_site_fract_x
_atom_site_fract_y
_atom_site_fract_z
Si Si1 0.231659 0.585704 0.809030
Si Si2 0.149699 0.915139 0.124529
Si Si3 0.343406 0.086271 0.000000
Si Si4 0.936087 0.801549 0.192963
Si Si5 0.437029 0.197270 0.620481
Si Si6 0.156797 0.416023 0.620195
Si Si7 0.935993 0.698555 0.000000
O O1 0.236441 0.500000 0.823174
O O2 0.293266 0.617154 0.826353
O O3 0.190057 0.614726 0.898208
O O4 0.207965 0.608220 0.694335
O O5 0.099402 0.874385 0.181155
O O6 0.142194 0.000000 0.149758
O O7 0.149671 0.900437 0.000000
O O8 0.403225 0.123104 0.000000
O O9 0.352635 0.000000 0.000000
O O10 0.922827 0.765990 0.306327
O O11 0.000000 0.824540 0.182668
O O12 0.919675 0.744410 0.102853
O O13 0.428467 0.222886 0.500000
O O14 0.500000 0.170947 0.640894
O O15 0.397863 0.129439 0.648365
O O16 0.176088 0.402993 0.500000
O O17 0.141248 0.500000 0.641072
O O18 0.000000 0.676984 0.000000
#
# Coordination Sequence:
#
# PCOD8266303 Si02
#       7
#    16  16   8  16  16  16   8
#     4   9  17  31  49  71  99 129 160 201 250 293
#     4  10  19  34  56  78  98 123 162 207 250 303
#     4  10  18  30  49  68  93 133 171 199 230 280
#     4  10  20  35  52  73 103 130 155 200 258 306
#     4   9  18  33  52  72  99 138 174 203 243 292
#     4   9  17  30  50  75 102 133 171 212 246 279
#     4  10  20  32  46  69 101 131 157 197 251 294
#
# _framework density 17.094452
#
# number of rings (size 3 to 8) (size 9 to 14) (size 15 to 20)
#    0.000    2.500    1.667    1.000    0.000    0.833 
#    0.000    7.500    0.000    9.500    0.000    2.333 
#    0.000    0.000    0.000    0.000    0.000    0.000 
#
# Total GULP energy -595202.514590 kJ/mol
# GULP energy per Si atom -12400.052387 kJ/mol
# Density = 1.705554 g / cm^3
# Si number density = 17.094452 Si / 1000 Ang^3
#
#
#
# Elastic Constant Matrix: (Units=GPa)
#
#
# Indices 1 2 3 4 5 6 
#
# 1 115.1764 65.6553 59.3688 0.0000 0.0000 0.0000
# 2 65.6553 69.5771 46.9117 0.0000 0.0000 0.0000
# 3 59.3688 46.9117 105.5286 0.0000 0.0000 0.0000
# 4 0.0000 0.0000 0.0000 21.7505 0.0000 0.0000
# 5 0.0000 0.0000 0.0000 0.0000 27.2424 0.0000
# 6 0.0000 0.0000 0.0000 0.0000 0.0000 24.5988
#
#
#
# Elastic Compliance Matrix: (Units=1/GPa)
#
#
# Indices 1 2 3 4 5 6 
#
# 1 0.019946 -0.016073 -0.004076 0.000000 0.000000 0.000000
# 2 -0.016073 0.033477 -0.005839 0.000000 0.000000 0.000000
# 3 -0.004076 -0.005839 0.014365 0.000000 0.000000 0.000000
# 4 0.000000 0.000000 0.000000 0.045976 0.000000 0.000000
# 5 0.000000 0.000000 0.000000 0.000000 0.036708 0.000000
# 6 0.000000 0.000000 0.000000 0.000000 0.000000 0.040652
#
#
# Mechanical properties :
#
#
# Convention : Reuss Voigt Hill
#
# Bulk Modulus (GPa) = 63.24857 70.46152 66.85505
# Shear Modulus (GPa) = 20.13118 22.60809 21.36964
#
# Velocity S-wave (km/s) = 3.43540 3.64062 3.53950
# Velocity P-wave (km/s) = 7.26745 7.67988 7.47651
#
# Compressibility (1/GPa) = 0.01581063
#
# Stress axis : x y z
#
# Youngs Moduli (GPa) = 50.13576 29.87123 69.61394
#
# Poissons Ratio (x) = 0.48013 0.28374
# Poissons Ratio (y) = 0.80585 0.40649
# Poissons Ratio (z) = 0.20435 0.17442
#
# Static dielectric constant tensor:
#      x y z
#    x 3.243720 0.000000 0.000000 
#    y 0.000000 2.889680 0.000000 
#    z 0.000000 0.000000 3.347950 
# 
# 
# High freq. dielectric constant tensor:
#      x y z
#    x 1.661300 0.000000 0.000000 
#    y 0.000000 1.632060 0.000000 
#    z 0.000000 0.000000 1.666730 
# 
# From -- ./inp_files/27182.got.cif
#   From: 2010.03.12/outbox.cif.g09.slc.cpg/sg65_14_cif.got.tgz:27182.got - 2010.04.10 20:52:16.
