data_PCOD8266083
_publ_section_title
;
Structure prediction by ZEFSAII (Michael W. Deem and Ramdas Pophale) SiO2 
 PCOD8266083
Probable space group: C M M M
;
_chemical_formula_sum "Si O2"
_cell_formula_units_Z 88
_cell_length_a 19.300295
_cell_length_b 10.193156
_cell_length_c 27.105300
_cell_angle_alpha 90.000000
_cell_angle_beta 90.000000
_cell_angle_gamma 90.000000
_cell_volume 5332.450546
_symmetry_space_group_name_H-M "C M M M"
_symmetry_group_IT_number 65
_symmetry_cell_setting 'orthorhombic'
loop_
_space_group_symop_operation_xyz
x,y,z
-x,-y,z
x,-y,-z
-x,y,-z
-x,-y,-z
x,y,-z
-x,y,z
x,-y,z
1/2+x,1/2+y,z
1/2-x,1/2-y,z
1/2+x,1/2-y,-z
1/2-x,1/2+y,-z
1/2-x,1/2-y,-z
1/2+x,1/2+y,-z
1/2-x,1/2+y,z
1/2+x,1/2-y,z
loop_
_atom_site_type_symbol
_atom_site_label
_atom_site_fract_x
_atom_site_fract_y
_atom_site_fract_z
Si Si1 0.833504 0.000000 0.444627
Si Si2 0.314958 0.847289 0.107061
Si Si3 0.332171 0.751142 0.383856
Si Si4 0.076053 0.655407 0.813447
Si Si5 0.580946 0.151918 0.297397
Si Si6 0.830522 0.500000 0.554680
Si Si7 0.690998 0.854805 0.000000
O O1 0.858155 0.125684 0.414087
O O2 0.751550 0.000000 0.449535
O O3 0.865699 0.000000 0.500000
O O4 0.250000 0.750000 0.110823
O O5 0.369845 0.791988 0.146386
O O6 0.294175 0.000000 0.118106
O O7 0.350197 0.837915 0.051946
O O8 0.250000 0.750000 0.373625
O O9 0.372200 0.756507 0.332060
O O10 0.356550 0.873283 0.416489
O O11 0.071530 0.500000 0.815992
O O12 0.098667 0.696874 0.758350
O O13 0.000000 0.714247 0.825420
O O14 0.500000 0.173579 0.308838
O O15 0.601172 0.000000 0.305400
O O16 0.863263 0.500000 0.500000
O O17 0.750000 0.750000 0.000000
O O18 0.724997 0.000000 0.000000
#
# Coordination Sequence:
#
# PCOD8266083 Si02
#       7
#     8  16  16  16  16   8   8
#     4   9  18  30  45  69  97 123 145 176 227 274
#     4   9  16  27  45  68  94 122 154 190 228 269
#     4  10  18  29  48  72  94 116 149 187 222 263
#     4   8  15  28  46  66  88 118 154 190 230 273
#     4   9  17  31  50  68  88 118 155 191 226 267
#     4   9  16  28  47  69  93 119 149 184 217 258
#     4   8  14  24  39  63  93 123 151 182 224 272
#
# _framework density 16.502732000000002
#
# number of rings (size 3 to 8) (size 9 to 14) (size 15 to 20)
#    0.000    3.091    0.909    1.636    0.000    2.909 
#    0.000    0.909    2.000    6.545    0.000    0.000 
#    0.000    7.273    0.000    0.000    0.000    0.000 
#
# Total GULP energy -545163.852305 kJ/mol
# GULP energy per Si atom -12390.087552 kJ/mol
# Density = 1.646517 g / cm^3
# Si number density = 16.502732 Si / 1000 Ang^3
#
#
#
# Elastic Constant Matrix: (Units=GPa)
#
#
# Indices 1 2 3 4 5 6 
#
# 1 58.7024 28.6609 70.4279 0.0000 0.0000 0.0000
# 2 28.6609 81.6840 52.7499 0.0000 0.0000 0.0000
# 3 70.4279 52.7499 167.8241 0.0000 0.0000 0.0000
# 4 0.0000 0.0000 0.0000 21.7000 0.0000 0.0000
# 5 0.0000 0.0000 0.0000 0.0000 9.3488 0.0000
# 6 0.0000 0.0000 0.0000 0.0000 0.0000 12.2046
#
#
#
# Elastic Compliance Matrix: (Units=1/GPa)
#
#
# Indices 1 2 3 4 5 6 
#
# 1 0.035096 -0.003517 -0.013623 0.000000 0.000000 0.000000
# 2 -0.003517 0.015713 -0.003463 0.000000 0.000000 0.000000
# 3 -0.013623 -0.003463 0.012764 0.000000 0.000000 0.000000
# 4 0.000000 0.000000 0.000000 0.046083 0.000000 0.000000
# 5 0.000000 0.000000 0.000000 0.000000 0.106965 0.000000
# 6 0.000000 0.000000 0.000000 0.000000 0.000000 0.081936
#
#
# Mechanical properties :
#
#
# Convention : Reuss Voigt Hill
#
# Bulk Modulus (GPa) = 44.70802 67.98753 56.34778
# Shear Modulus (GPa) = 14.40018 19.07547 16.73782
#
# Velocity S-wave (km/s) = 2.95717 3.40354 3.18818
# Velocity P-wave (km/s) = 6.22976 7.53210 6.91168
#
# Compressibility (1/GPa) = 0.02236735
#
# Stress axis : x y z
#
# Youngs Moduli (GPa) = 28.49329 63.64344 78.34643
#
# Poissons Ratio (x) = 0.22384 1.06729
# Poissons Ratio (y) = 0.10021 0.27130
# Poissons Ratio (z) = 0.38815 0.22038
#
# Static dielectric constant tensor:
#      x y z
#    x 2.893980 0.000000 0.000000 
#    y 0.000000 2.986900 0.000000 
#    z 0.000000 0.000000 3.558850 
# 
# 
# High freq. dielectric constant tensor:
#      x y z
#    x 1.593460 0.000000 0.000000 
#    y 0.000000 1.617280 0.000000 
#    z 0.000000 0.000000 1.656140 
# 
# From -- ./inp_files/78012.got.cif
#   From: 2010.03.12/outbox.cif.g09.slc.cpg/sg65_40_cif.got.tgz:78012.got - 2010.04.10 20:52:16.
