data_PCOD8266829
_publ_section_title
;
Structure prediction by ZEFSAII (Michael W. Deem and Ramdas Pophale) SiO2 
 PCOD8266829
Probable space group: C M M M
;
_chemical_formula_sum "Si O2"
_cell_formula_units_Z 80
_cell_length_a 21.688356
_cell_length_b 22.019330
_cell_length_c 8.816011
_cell_angle_alpha 90.000000
_cell_angle_beta 90.000000
_cell_angle_gamma 90.000000
_cell_volume 4210.201260
_symmetry_space_group_name_H-M "C M M M"
_symmetry_group_IT_number 65
_symmetry_cell_setting 'orthorhombic'
loop_
_space_group_symop_operation_xyz
x,y,z
-x,-y,z
x,-y,-z
-x,y,-z
-x,-y,-z
x,y,-z
-x,y,z
x,-y,z
1/2+x,1/2+y,z
1/2-x,1/2-y,z
1/2+x,1/2-y,-z
1/2-x,1/2+y,-z
1/2-x,1/2-y,-z
1/2+x,1/2+y,-z
1/2-x,1/2+y,z
1/2+x,1/2-y,z
loop_
_atom_site_type_symbol
_atom_site_label
_atom_site_fract_x
_atom_site_fract_y
_atom_site_fract_z
Si Si1 0.000000 0.066703 0.178757
Si Si2 0.738499 0.318222 0.179232
Si Si3 0.069239 0.716835 0.331469
Si Si4 0.428719 0.000000 0.181688
Si Si5 0.856820 0.616767 0.822924
Si Si6 0.099892 0.838416 0.821493
O O1 0.062666 0.101370 0.227537
O O2 0.000000 0.000000 0.255528
O O3 0.000000 0.059763 0.000000
O O4 0.750000 0.250000 0.246891
O O5 0.788225 0.367798 0.241745
O O6 0.671645 0.343955 0.224397
O O7 0.746734 0.313604 0.000000
O O8 0.099012 0.712434 0.500000
O O9 0.104310 0.676623 0.209520
O O10 0.069314 0.785180 0.273476
O O11 0.000000 0.692791 0.338813
O O12 0.390887 0.942041 0.248653
O O13 0.500000 0.000000 0.240703
O O14 0.429788 0.000000 0.000000
O O15 0.853272 0.605010 0.000000
O O16 0.092374 0.824954 0.000000
#
# Coordination Sequence:
#
# PCOD8266829 Si02
#       6
#     8  16  16   8  16  16
#     4   9  18  32  51  79 107 134 177 220 253 301
#     4   9  16  28  49  78 106 130 168 213 254 309
#     4  11  22  33  49  77 106 130 171 223 264 305
#     4   9  18  32  51  77 103 134 180 219 246 303
#     4  10  19  34  54  74 104 140 173 212 261 311
#     4  10  18  32  54  75 103 140 171 209 261 308
#
# _framework density 19.001467000000002
#
# number of rings (size 3 to 8) (size 9 to 14) (size 15 to 20)
#    0.000    2.200    3.000    1.200    0.000    2.000 
#    1.800    2.500    0.000    3.000    0.000    0.000 
#    0.000    0.000    0.000    0.000    0.000    0.000 
#
# Total GULP energy -495699.600485 kJ/mol
# GULP energy per Si atom -12392.490012 kJ/mol
# Density = 1.895822 g / cm^3
# Si number density = 19.001467 Si / 1000 Ang^3
#
#
#
# Elastic Constant Matrix: (Units=GPa)
#
#
# Indices 1 2 3 4 5 6 
#
# 1 167.6606 77.4084 9.9894 0.0000 0.0000 0.0000
# 2 77.4084 134.6659 1.0132 0.0000 0.0000 0.0000
# 3 9.9894 1.0132 8.3374 0.0000 0.0000 0.0000
# 4 0.0000 0.0000 0.0000 3.7150 0.0000 0.0000
# 5 0.0000 0.0000 0.0000 0.0000 9.4001 0.0000
# 6 0.0000 0.0000 0.0000 0.0000 0.0000 32.0206
#
#
#
# Elastic Compliance Matrix: (Units=1/GPa)
#
#
# Indices 1 2 3 4 5 6 
#
# 1 0.008886 -0.005032 -0.010035 0.000000 0.000000 0.000000
# 2 -0.005032 0.010282 0.004780 0.000000 0.000000 0.000000
# 3 -0.010035 0.004780 0.131384 0.000000 0.000000 0.000000
# 4 0.000000 0.000000 0.000000 0.269181 0.000000 0.000000
# 5 0.000000 0.000000 0.000000 0.000000 0.106382 0.000000
# 6 0.000000 0.000000 0.000000 0.000000 0.000000 0.031230
#
#
# Mechanical properties :
#
#
# Convention : Reuss Voigt Hill
#
# Bulk Modulus (GPa) = 7.69362 54.16509 30.92936
# Shear Modulus (GPa) = 8.04835 23.84400 15.94617
#
# Velocity S-wave (km/s) = 2.06030 3.54623 2.90005
# Velocity P-wave (km/s) = 3.11730 6.73315 5.24656
#
# Compressibility (1/GPa) = 0.12997777
#
# Stress axis : x y z
#
# Youngs Moduli (GPa) = 112.54133 97.25374 7.61127
#
# Poissons Ratio (x) = 0.48939 0.07638
# Poissons Ratio (y) = 0.56632 -0.03638
# Poissons Ratio (z) = 1.12932 -0.46484
#
# Static dielectric constant tensor:
#      x y z
#    x 3.841570 0.000000 0.000000 
#    y 0.000000 3.646310 0.000000 
#    z 0.000000 0.000000 3.018450 
# 
# 
# High freq. dielectric constant tensor:
#      x y z
#    x 1.754290 0.000000 0.000000 
#    y 0.000000 1.729220 0.000000 
#    z 0.000000 0.000000 1.685260 
# 
# From -- ./inp_files/11550.got.cif
#   From: 2010.03.12/outbox.cif.g09.slc.cpg/sg65_6_cif.got.tgz:11550.got - 2010.04.10 20:52:16.
