data_PCOD8266292
_publ_section_title
;
Structure prediction by ZEFSAII (Michael W. Deem and Ramdas Pophale) SiO2 
 PCOD8266292
Probable space group: C M M M
;
_chemical_formula_sum "Si O2"
_cell_formula_units_Z 112
_cell_length_a 15.731191
_cell_length_b 28.914635
_cell_length_c 14.056487
_cell_angle_alpha 90.000000
_cell_angle_beta 90.000000
_cell_angle_gamma 90.000000
_cell_volume 6393.756812
_symmetry_space_group_name_H-M "C M M M"
_symmetry_group_IT_number 65
_symmetry_cell_setting 'orthorhombic'
loop_
_space_group_symop_operation_xyz
x,y,z
-x,-y,z
x,-y,-z
-x,y,-z
-x,-y,-z
x,y,-z
-x,y,z
x,-y,z
1/2+x,1/2+y,z
1/2-x,1/2-y,z
1/2+x,1/2-y,-z
1/2-x,1/2+y,-z
1/2-x,1/2-y,-z
1/2+x,1/2+y,-z
1/2-x,1/2+y,z
1/2+x,1/2-y,z
loop_
_atom_site_type_symbol
_atom_site_label
_atom_site_fract_x
_atom_site_fract_y
_atom_site_fract_z
Si Si1 0.248563 0.698464 0.887874
Si Si2 0.905134 0.144422 0.193719
Si Si3 0.154689 0.947870 0.111091
Si Si4 0.904352 0.118067 0.395986
Si Si5 0.835322 0.447570 0.205721
Si Si6 0.094148 0.636719 0.889434
Si Si7 0.748787 0.053296 0.604667
O O1 0.250000 0.750000 0.843522
O O2 0.336280 0.673220 0.863951
O O3 0.166554 0.670908 0.847072
O O4 0.239460 0.701671 0.000000
O O5 0.899180 0.089721 0.169686
O O6 0.889584 0.152696 0.307088
O O7 0.000000 0.161436 0.165741
O O8 0.252485 0.943760 0.140306
O O9 0.121082 0.000000 0.132400
O O10 0.146784 0.936148 0.000000
O O11 0.890541 0.142614 0.500000
O O12 0.840303 0.075991 0.384734
O O13 0.000000 0.098105 0.389604
O O14 0.871452 0.500000 0.205042
O O15 0.904410 0.412601 0.163806
O O16 0.815644 0.430189 0.313454
O O17 0.000000 0.658293 0.873317
O O18 0.111308 0.627601 0.000000
O O19 0.708752 0.063110 0.500000
O O20 0.767698 0.000000 0.621860
#
# Coordination Sequence:
#
# PCOD8266292 Si02
#       7
#    16  16  16  16  16  16  16
#     4  10  21  37  55  75 102 132 163 204 251 299
#     4  11  21  33  52  76 102 135 172 205 244 300
#     4  10  19  30  45  67  99 138 173 203 237 284
#     4   9  17  28  43  66  96 128 163 206 252 294
#     4  10  18  30  48  70  98 133 168 205 248 291
#     4  10  20  34  53  75  98 127 166 209 251 295
#     4   9  16  26  42  64  91 128 173 212 246 289
#
# _framework density 17.517088000000001
#
# number of rings (size 3 to 8) (size 9 to 14) (size 15 to 20)
#    0.000    2.143    2.857    0.857    0.000    3.429 
#    0.000    5.714    0.000    0.857    0.000    2.000 
#    0.000    0.000    0.000    0.000    0.000    0.000 
#
# Total GULP energy -694024.186448 kJ/mol
# GULP energy per Si atom -12393.289044 kJ/mol
# Density = 1.747722 g / cm^3
# Si number density = 17.517088 Si / 1000 Ang^3
#
#
#
# Elastic Constant Matrix: (Units=GPa)
#
#
# Indices 1 2 3 4 5 6 
#
# 1 84.4981 37.7767 14.5404 0.0000 0.0000 0.0000
# 2 37.7767 80.0384 19.7767 0.0000 0.0000 0.0000
# 3 14.5404 19.7767 60.6307 0.0000 0.0000 0.0000
# 4 0.0000 0.0000 0.0000 11.9061 0.0000 0.0000
# 5 0.0000 0.0000 0.0000 0.0000 20.8472 0.0000
# 6 0.0000 0.0000 0.0000 0.0000 0.0000 8.8590
#
#
#
# Elastic Compliance Matrix: (Units=1/GPa)
#
#
# Indices 1 2 3 4 5 6 
#
# 1 0.015110 -0.006783 -0.001411 0.000000 0.000000 0.000000
# 2 -0.006783 0.016634 -0.003799 0.000000 0.000000 0.000000
# 3 -0.001411 -0.003799 0.018071 0.000000 0.000000 0.000000
# 4 0.000000 0.000000 0.000000 0.083991 0.000000 0.000000
# 5 0.000000 0.000000 0.000000 0.000000 0.047968 0.000000
# 6 0.000000 0.000000 0.000000 0.000000 0.000000 0.112880
#
#
# Mechanical properties :
#
#
# Convention : Reuss Voigt Hill
#
# Bulk Modulus (GPa) = 38.71679 41.03940 39.87810
# Shear Modulus (GPa) = 15.27888 18.52735 16.90311
#
# Velocity S-wave (km/s) = 2.95655 3.25572 3.10973
# Velocity P-wave (km/s) = 5.81423 6.13286 5.97567
#
# Compressibility (1/GPa) = 0.02582859
#
# Stress axis : x y z
#
# Youngs Moduli (GPa) = 66.18192 60.11735 55.33757
#
# Poissons Ratio (x) = 0.40777 0.07809
# Poissons Ratio (y) = 0.44891 0.21023
# Poissons Ratio (z) = 0.09339 0.22839
#
# Static dielectric constant tensor:
#      x y z
#    x 3.089600 0.000000 0.000000 
#    y 0.000000 3.129360 0.000000 
#    z 0.000000 0.000000 3.566120 
# 
# 
# High freq. dielectric constant tensor:
#      x y z
#    x 1.663810 0.000000 0.000000 
#    y 0.000000 1.642790 0.000000 
#    z 0.000000 0.000000 1.680910 
# 
# From -- ./inp_files/41037.got.cif
#   From: 2010.03.12/outbox.cif.g09.slc.cpg/sg65_21_cif.got.tgz:41037.got - 2010.04.10 20:52:16.
