data_PCOD8266626
_publ_section_title
;
Structure prediction by ZEFSAII (Michael W. Deem and Ramdas Pophale) SiO2 
 PCOD8266626
Probable space group: C M M M
;
_chemical_formula_sum "Si O2"
_cell_formula_units_Z 88
_cell_length_a 28.928234
_cell_length_b 17.544638
_cell_length_c 9.621353
_cell_angle_alpha 90.000000
_cell_angle_beta 90.000000
_cell_angle_gamma 90.000000
_cell_volume 4883.177181
_symmetry_space_group_name_H-M "C M M M"
_symmetry_group_IT_number 65
_symmetry_cell_setting 'orthorhombic'
loop_
_space_group_symop_operation_xyz
x,y,z
-x,-y,z
x,-y,-z
-x,y,-z
-x,-y,-z
x,y,-z
-x,y,z
x,-y,z
1/2+x,1/2+y,z
1/2-x,1/2-y,z
1/2+x,1/2-y,-z
1/2-x,1/2+y,-z
1/2-x,1/2-y,-z
1/2+x,1/2+y,-z
1/2-x,1/2+y,z
1/2+x,1/2-y,z
loop_
_atom_site_type_symbol
_atom_site_label
_atom_site_fract_x
_atom_site_fract_y
_atom_site_fract_z
Si Si1 0.946845 0.277556 0.160588
Si Si2 0.198391 0.084653 0.664775
Si Si3 0.448444 0.500000 0.664750
Si Si4 0.200945 0.409158 0.345098
Si Si5 0.882495 0.586299 0.840765
Si Si6 0.603630 0.650944 0.335338
O O1 0.927889 0.362971 0.184178
O O2 0.917271 0.222098 0.255908
O O3 0.000000 0.276204 0.208213
O O4 0.941722 0.253074 0.000000
O O5 0.198520 0.076048 0.500000
O O6 0.248527 0.117972 0.711208
O O7 0.157406 0.141898 0.709103
O O8 0.189704 0.000000 0.728314
O O9 0.500000 0.500000 0.727505
O O10 0.449565 0.500000 0.500000
O O11 0.422529 0.575297 0.716817
O O12 0.191639 0.376896 0.500000
O O13 0.201703 0.500000 0.347765
O O14 0.160335 0.379052 0.246122
O O15 0.894637 0.500000 0.794087
O O16 0.866669 0.588362 0.000000
O O17 0.597746 0.663512 0.500000
#
# Coordination Sequence:
#
# PCOD8266626 Si02
#       6
#    16  16   8  16  16  16
#     4  10  22  38  52  69  98 131 161 203 258 304
#     4   8  13  25  47  75 103 132 165 200 236 278
#     4   9  16  26  45  73  99 125 165 211 242 269
#     4   8  14  26  48  76 103 128 156 195 245 293
#     4   9  18  34  55  75  94 122 164 207 247 298
#     4  10  18  31  52  76 101 131 169 207 240 281
#
# _framework density 18.021053999999999
#
# number of rings (size 3 to 8) (size 9 to 14) (size 15 to 20)
#    0.000    3.000    0.909    1.636    0.000    2.182 
#    0.000    4.091    0.000    8.182    0.000    3.818 
#    0.000    0.000    0.000    0.000    0.000    0.000 
#
# Total GULP energy -545360.948997 kJ/mol
# GULP energy per Si atom -12394.567023 kJ/mol
# Density = 1.798004 g / cm^3
# Si number density = 18.021054 Si / 1000 Ang^3
#
#
#
# Elastic Constant Matrix: (Units=GPa)
#
#
# Indices 1 2 3 4 5 6 
#
# 1 113.1097 41.4568 37.4889 0.0000 0.0000 0.0000
# 2 41.4568 74.1328 30.8590 0.0000 0.0000 0.0000
# 3 37.4889 30.8590 44.9881 0.0000 0.0000 0.0000
# 4 0.0000 0.0000 0.0000 23.1671 0.0000 0.0000
# 5 0.0000 0.0000 0.0000 0.0000 24.2025 0.0000
# 6 0.0000 0.0000 0.0000 0.0000 0.0000 26.3045
#
#
#
# Elastic Compliance Matrix: (Units=1/GPa)
#
#
# Indices 1 2 3 4 5 6 
#
# 1 0.012955 -0.003850 -0.008154 0.000000 0.000000 0.000000
# 2 -0.003850 0.020025 -0.010527 0.000000 0.000000 0.000000
# 3 -0.008154 -0.010527 0.036244 0.000000 0.000000 0.000000
# 4 0.000000 0.000000 0.000000 0.043165 0.000000 0.000000
# 5 0.000000 0.000000 0.000000 0.000000 0.041318 0.000000
# 6 0.000000 0.000000 0.000000 0.000000 0.000000 0.038016
#
#
# Mechanical properties :
#
#
# Convention : Reuss Voigt Hill
#
# Bulk Modulus (GPa) = 41.39061 50.20446 45.79753
# Shear Modulus (GPa) = 20.42154 22.89653 21.65903
#
# Velocity S-wave (km/s) = 3.36996 3.56834 3.47057
# Velocity P-wave (km/s) = 6.17738 6.70049 6.44424
#
# Compressibility (1/GPa) = 0.02416007
#
# Stress axis : x y z
#
# Youngs Moduli (GPa) = 77.19136 49.93862 27.59064
#
# Poissons Ratio (x) = 0.19228 0.22498
# Poissons Ratio (y) = 0.29721 0.29045
# Poissons Ratio (z) = 0.62944 0.52571
#
# Static dielectric constant tensor:
#      x y z
#    x 3.792790 0.000000 0.000000 
#    y 0.000000 3.159760 0.000000 
#    z 0.000000 0.000000 3.089230 
# 
# 
# High freq. dielectric constant tensor:
#      x y z
#    x 1.713020 0.000000 0.000000 
#    y 0.000000 1.677590 0.000000 
#    z 0.000000 0.000000 1.659240 
# 
# From -- ./inp_files/10007.got.cif
#   From: 2010.03.12/outbox.cif.g09.slc.cpg/sg65_6_cif.got.tgz:10007.got - 2010.04.10 20:52:16.
