data_PCOD8266423
_publ_section_title
;
Structure prediction by ZEFSAII (Michael W. Deem and Ramdas Pophale) SiO2 
 PCOD8266423
Probable space group: C M M M
;
_chemical_formula_sum "Si O2"
_cell_formula_units_Z 96
_cell_length_a 28.921436
_cell_length_b 9.695900
_cell_length_c 18.800384
_cell_angle_alpha 90.000000
_cell_angle_beta 90.000000
_cell_angle_gamma 90.000000
_cell_volume 5271.991486
_symmetry_space_group_name_H-M "C M M M"
_symmetry_group_IT_number 65
_symmetry_cell_setting 'orthorhombic'
loop_
_space_group_symop_operation_xyz
x,y,z
-x,-y,z
x,-y,-z
-x,y,-z
-x,-y,-z
x,y,-z
-x,y,z
x,-y,z
1/2+x,1/2+y,z
1/2-x,1/2-y,z
1/2+x,1/2-y,-z
1/2-x,1/2+y,-z
1/2-x,1/2-y,-z
1/2+x,1/2+y,-z
1/2-x,1/2+y,z
1/2+x,1/2-y,z
loop_
_atom_site_type_symbol
_atom_site_label
_atom_site_fract_x
_atom_site_fract_y
_atom_site_fract_z
Si Si1 0.699685 0.000000 0.415633
Si Si2 0.378971 0.659494 0.915888
Si Si3 0.303185 0.500000 0.415635
Si Si4 0.447664 0.159802 0.669831
Si Si5 0.137049 0.252737 0.415819
Si Si6 0.707588 0.158369 0.084510
Si Si7 0.054253 0.345727 0.833474
O O1 0.751426 0.000000 0.382338
O O2 0.669850 0.126588 0.388373
O O3 0.704407 0.000000 0.500000
O O4 0.371637 0.500000 0.891648
O O5 0.337316 0.757567 0.890006
O O6 0.424315 0.724631 0.880781
O O7 0.384842 0.665351 0.000000
O O8 0.298121 0.500000 0.500000
O O9 0.333327 0.374260 0.388502
O O10 0.500000 0.212487 0.656191
O O11 0.412995 0.246870 0.620878
O O12 0.433498 0.181717 0.751431
O O13 0.444024 0.000000 0.648427
O O14 0.128608 0.254700 0.500000
O O15 0.750000 0.250000 0.114020
O O16 0.708133 0.000000 0.114527
O O17 0.709956 0.150779 0.000000
O O18 0.071709 0.500000 0.855414
O O19 0.000000 0.338093 0.845548
#
# Coordination Sequence:
#
# PCOD8266423 Si02
#       7
#     8  16   8  16  16  16  16
#     4   9  16  28  49  75 101 135 175 210 250 304
#     4  10  20  33  51  78 107 132 164 210 259 305
#     4   9  18  30  45  71 109 139 167 212 258 304
#     4   9  18  34  54  75  99 131 175 220 259 306
#     4  10  18  30  50  78 106 136 173 213 259 302
#     4   9  16  27  46  73 104 136 169 203 243 295
#     4   9  19  36  55  73  96 131 171 209 256 314
#
# _framework density 18.209437999999999
#
# number of rings (size 3 to 8) (size 9 to 14) (size 15 to 20)
#    0.000    2.667    0.833    2.500    0.000    6.000 
#    1.500    2.917    0.000    3.500    0.000    0.000 
#    0.000    0.000    0.000    0.000    0.000    0.000 
#
# Total GULP energy -594899.193594 kJ/mol
# GULP energy per Si atom -12393.733200 kJ/mol
# Density = 1.816799 g / cm^3
# Si number density = 18.209438 Si / 1000 Ang^3
#
#
#
# Elastic Constant Matrix: (Units=GPa)
#
#
# Indices 1 2 3 4 5 6 
#
# 1 113.8199 66.1544 34.7822 0.0000 0.0000 0.0000
# 2 66.1544 153.3223 31.1755 0.0000 0.0000 0.0000
# 3 34.7822 31.1755 27.2180 0.0000 0.0000 0.0000
# 4 0.0000 0.0000 0.0000 19.4648 0.0000 0.0000
# 5 0.0000 0.0000 0.0000 0.0000 4.5652 0.0000
# 6 0.0000 0.0000 0.0000 0.0000 0.0000 19.2997
#
#
#
# Elastic Compliance Matrix: (Units=1/GPa)
#
#
# Indices 1 2 3 4 5 6 
#
# 1 0.015752 -0.003524 -0.016093 0.000000 0.000000 0.000000
# 2 -0.003524 0.009291 -0.006138 0.000000 0.000000 0.000000
# 3 -0.016093 -0.006138 0.064336 0.000000 0.000000 0.000000
# 4 0.000000 0.000000 0.000000 0.051375 0.000000 0.000000
# 5 0.000000 0.000000 0.000000 0.000000 0.219049 0.000000
# 6 0.000000 0.000000 0.000000 0.000000 0.000000 0.051814
#
#
# Mechanical properties :
#
#
# Convention : Reuss Voigt Hill
#
# Bulk Modulus (GPa) = 26.40705 62.06493 44.23599
# Shear Modulus (GPa) = 10.50969 19.48246 14.99607
#
# Velocity S-wave (km/s) = 2.40501 3.27450 2.87284
# Velocity P-wave (km/s) = 4.71651 6.96092 5.94558
#
# Compressibility (1/GPa) = 0.03786867
#
# Stress axis : x y z
#
# Youngs Moduli (GPa) = 63.48359 107.63177 15.54330
#
# Poissons Ratio (x) = 0.37933 0.25014
# Poissons Ratio (y) = 0.22374 0.09540
# Poissons Ratio (z) = 1.02164 0.66064
#
# Static dielectric constant tensor:
#      x y z
#    x 3.446060 0.000000 0.000000 
#    y 0.000000 3.523140 0.000000 
#    z 0.000000 0.000000 2.886490 
# 
# 
# High freq. dielectric constant tensor:
#      x y z
#    x 1.717640 0.000000 0.000000 
#    y 0.000000 1.710760 0.000000 
#    z 0.000000 0.000000 1.657500 
# 
# From -- ./inp_files/71487.got.cif
#   From: 2010.03.12/outbox.cif.g09.slc.cpg/sg65_36_cif.got.tgz:71487.got - 2010.04.10 20:52:16.
