data_PCOD8266122
_publ_section_title
;
Structure prediction by ZEFSAII (Michael W. Deem and Ramdas Pophale) SiO2 
 PCOD8266122
Probable space group: C M M M
;
_chemical_formula_sum "Si O2"
_cell_formula_units_Z 80
_cell_length_a 27.010238
_cell_length_b 14.373334
_cell_length_c 11.923073
_cell_angle_alpha 90.000000
_cell_angle_beta 90.000000
_cell_angle_gamma 90.000000
_cell_volume 4628.860915
_symmetry_space_group_name_H-M "C M M M"
_symmetry_group_IT_number 65
_symmetry_cell_setting 'orthorhombic'
loop_
_space_group_symop_operation_xyz
x,y,z
-x,-y,z
x,-y,-z
-x,y,-z
-x,-y,-z
x,y,-z
-x,y,z
x,-y,z
1/2+x,1/2+y,z
1/2-x,1/2-y,z
1/2+x,1/2-y,-z
1/2-x,1/2+y,-z
1/2-x,1/2-y,-z
1/2+x,1/2+y,-z
1/2-x,1/2+y,z
1/2+x,1/2-y,z
loop_
_atom_site_type_symbol
_atom_site_label
_atom_site_fract_x
_atom_site_fract_y
_atom_site_fract_z
Si Si1 0.282965 0.342030 0.000000
Si Si2 0.138111 0.202167 0.367258
Si Si3 0.674759 0.899993 0.628071
Si Si4 0.609628 0.608384 0.000000
Si Si5 0.732709 0.644897 0.242145
Si Si6 0.056885 0.891688 0.230780
O O1 0.250000 0.250000 0.000000
O O2 0.342325 0.324224 0.000000
O O3 0.271846 0.397316 0.115800
O O4 0.142417 0.188138 0.500000
O O5 0.142556 0.311607 0.331838
O O6 0.180330 0.140182 0.306854
O O7 0.085151 0.167314 0.325257
O O8 0.689617 0.882426 0.500000
O O9 0.726156 0.912951 0.693459
O O10 0.646330 0.000000 0.642631
O O11 0.576939 0.632605 0.107815
O O12 0.626069 0.500000 0.000000
O O13 0.750000 0.750000 0.235836
O O14 0.000000 0.861406 0.236189
O O15 0.063530 0.000000 0.258074
#
# Coordination Sequence:
#
# PCOD8266122 Si02
#       6
#     8  16  16   8  16  16
#     4  10  18  29  49  74 103 132 158 197 243 287
#     4  10  19  32  51  73 100 132 165 203 252 300
#     4   9  18  32  50  72 100 134 171 205 237 288
#     4  10  19  34  54  73  98 132 166 198 239 294
#     4   9  17  29  46  70  99 133 165 198 236 290
#     4  10  21  36  54  75  97 125 165 210 252 296
#
# _framework density 17.282869999999999
#
# number of rings (size 3 to 8) (size 9 to 14) (size 15 to 20)
#    0.000    2.400    2.000    0.900    0.000    6.000 
#    0.000    1.000    0.000    0.600    0.000    2.800 
#    0.000    1.600    0.000    0.000    0.000    0.000 
#
# Total GULP energy -495680.343467 kJ/mol
# GULP energy per Si atom -12392.008587 kJ/mol
# Density = 1.724353 g / cm^3
# Si number density = 17.282870 Si / 1000 Ang^3
#
#
#
# Elastic Constant Matrix: (Units=GPa)
#
#
# Indices 1 2 3 4 5 6 
#
# 1 122.9318 42.7414 46.2076 0.0000 0.0000 0.0000
# 2 42.7414 68.5171 31.6460 0.0000 0.0000 0.0000
# 3 46.2076 31.6460 103.8923 0.0000 0.0000 0.0000
# 4 0.0000 0.0000 0.0000 13.1378 0.0000 0.0000
# 5 0.0000 0.0000 0.0000 0.0000 25.5255 0.0000
# 6 0.0000 0.0000 0.0000 0.0000 0.0000 22.1881
#
#
#
# Elastic Compliance Matrix: (Units=1/GPa)
#
#
# Indices 1 2 3 4 5 6 
#
# 1 0.011309 -0.005506 -0.003353 0.000000 0.000000 0.000000
# 2 -0.005506 0.019665 -0.003541 0.000000 0.000000 0.000000
# 3 -0.003353 -0.003541 0.012195 0.000000 0.000000 0.000000
# 4 0.000000 0.000000 0.000000 0.076116 0.000000 0.000000
# 5 0.000000 0.000000 0.000000 0.000000 0.039176 0.000000
# 6 0.000000 0.000000 0.000000 0.000000 0.000000 0.045069
#
#
# Mechanical properties :
#
#
# Convention : Reuss Voigt Hill
#
# Bulk Modulus (GPa) = 54.43816 59.61459 57.02637
# Shear Modulus (GPa) = 21.32604 23.82003 22.57304
#
# Velocity S-wave (km/s) = 3.51656 3.71650 3.61791
# Velocity P-wave (km/s) = 6.93217 7.27907 7.10774
#
# Compressibility (1/GPa) = 0.01836947
#
# Stress axis : x y z
#
# Youngs Moduli (GPa) = 88.42314 50.85099 81.99967
#
# Poissons Ratio (x) = 0.28000 0.27492
# Poissons Ratio (y) = 0.48688 0.29037
# Poissons Ratio (z) = 0.29646 0.18007
#
# Static dielectric constant tensor:
#      x y z
#    x 3.111540 0.000000 0.000000 
#    y 0.000000 3.155310 0.000000 
#    z 0.000000 0.000000 3.526980 
# 
# 
# High freq. dielectric constant tensor:
#      x y z
#    x 1.644270 0.000000 0.000000 
#    y 0.000000 1.650480 0.000000 
#    z 0.000000 0.000000 1.683520 
# 
# From -- ./inp_files/25023.got.cif
#   From: 2010.03.12/outbox.cif.g09.slc.cpg/sg65_13_cif.got.tgz:25023.got - 2010.04.10 20:52:16.
