data_PCOD8266990
_publ_section_title
;
Structure prediction by ZEFSAII (Michael W. Deem and Ramdas Pophale) SiO2 
 PCOD8266990
Probable space group: C M M M
;
_chemical_formula_sum "Si O2"
_cell_formula_units_Z 88
_cell_length_a 11.519111
_cell_length_b 28.003591
_cell_length_c 14.941908
_cell_angle_alpha 90.000000
_cell_angle_beta 90.000000
_cell_angle_gamma 90.000000
_cell_volume 4819.907984
_symmetry_space_group_name_H-M "C M M M"
_symmetry_group_IT_number 65
_symmetry_cell_setting 'orthorhombic'
loop_
_space_group_symop_operation_xyz
x,y,z
-x,-y,z
x,-y,-z
-x,y,-z
-x,-y,-z
x,y,-z
-x,y,z
x,-y,z
1/2+x,1/2+y,z
1/2-x,1/2-y,z
1/2+x,1/2-y,-z
1/2-x,1/2+y,-z
1/2-x,1/2-y,-z
1/2+x,1/2+y,-z
1/2-x,1/2+y,z
1/2+x,1/2-y,z
loop_
_atom_site_type_symbol
_atom_site_label
_atom_site_fract_x
_atom_site_fract_y
_atom_site_fract_z
Si Si1 0.500000 0.150446 0.104140
Si Si2 0.133970 0.218834 0.396355
Si Si3 0.629295 0.056617 0.500000
Si Si4 0.630917 0.360343 0.748967
Si Si5 0.500000 0.948251 0.194149
Si Si6 0.236849 0.694220 0.895403
Si Si7 0.775394 0.553854 0.686855
O O1 0.500000 0.094005 0.122320
O O2 0.387203 0.176829 0.143440
O O3 0.500000 0.159214 0.000000
O O4 0.141151 0.204654 0.500000
O O5 0.250000 0.250000 0.372120
O O6 0.151174 0.171641 0.338367
O O7 0.000000 0.240096 0.377662
O O8 0.500000 0.079612 0.500000
O O9 0.700418 0.073323 0.413079
O O10 0.615720 0.000000 0.500000
O O11 0.500000 0.373615 0.764032
O O12 0.667963 0.333748 0.839411
O O13 0.689206 0.411424 0.737424
O O14 0.392981 0.944541 0.259250
O O15 0.500000 0.000000 0.144011
O O16 0.250000 0.750000 0.877148
O O17 0.253368 0.681916 0.000000
O O18 0.724031 0.500000 0.684638
#
# Coordination Sequence:
#
# PCOD8266990 Si02
#       7
#     8  16   8  16   8  16  16
#     4  10  20  37  59  87 116 144 182 229 283 343
#     4   9  19  38  58  79 112 149 187 231 280 337
#     4   9  16  30  53  81 110 141 179 229 286 335
#     4  11  23  37  56  81 110 151 191 228 277 332
#     4  10  18  34  58  84 115 147 180 231 289 335
#     4  10  22  39  60  86 115 145 183 233 284 336
#     4  10  20  35  55  82 114 146 186 233 281 333
#
# _framework density 18.25761
#
# number of rings (size 3 to 8) (size 9 to 14) (size 15 to 20)
#    0.000    2.091    2.727    0.545    2.545    0.909 
#    3.273    0.000    0.000    2.182    0.000    1.273 
#    0.000    0.000    0.000    0.000    0.000    0.000 
#
# Total GULP energy -545254.487898 kJ/mol
# GULP energy per Si atom -12392.147452 kJ/mol
# Density = 1.821605 g / cm^3
# Si number density = 18.257610 Si / 1000 Ang^3
#
#
#
# Elastic Constant Matrix: (Units=GPa)
#
#
# Indices 1 2 3 4 5 6 
#
# 1 128.6305 70.2229 34.3317 0.0000 0.0000 0.0000
# 2 70.2229 115.0273 39.1860 0.0000 0.0000 0.0000
# 3 34.3317 39.1860 54.5120 0.0000 0.0000 0.0000
# 4 0.0000 0.0000 0.0000 -870.2204 0.0000 0.0000
# 5 0.0000 0.0000 0.0000 0.0000 22.8410 0.0000
# 6 0.0000 0.0000 0.0000 0.0000 0.0000 44.7984
#
#
#
# Elastic Compliance Matrix: (Units=1/GPa)
#
#
# Indices 1 2 3 4 5 6 
#
# 1 0.012030 -0.006308 -0.003042 0.000000 0.000000 0.000000
# 2 -0.006308 0.014820 -0.006681 0.000000 0.000000 0.000000
# 3 -0.003042 -0.006681 0.025063 0.000000 0.000000 0.000000
# 4 0.000000 0.000000 0.000000 -0.001149 0.000000 0.000000
# 5 0.000000 0.000000 0.000000 0.000000 0.043781 0.000000
# 6 0.000000 0.000000 0.000000 0.000000 0.000000 0.022322
#
#
# Mechanical properties :
#
#
# Convention : Reuss Voigt Hill
#
# Bulk Modulus (GPa) = 50.37355 65.07231 57.72293
# Shear Modulus (GPa) = 32.14486 -150.22093 -59.03804
#
# Velocity S-wave (km/s) = 4.20054 -9.08059 -5.69266
# Velocity P-wave (km/s) = 7.15376 8.61535 3.39470
#
# Compressibility (1/GPa) = 0.01985169
#
# Stress axis : x y z
#
# Youngs Moduli (GPa) = 83.12794 67.47477 39.89919
#
# Poissons Ratio (x) = 0.42561 0.12137
# Poissons Ratio (y) = 0.52434 0.26657
# Poissons Ratio (z) = 0.25288 0.45080
#
# Static dielectric constant tensor:
#      x y z
#    x 3.690640 0.000000 0.000000 
#    y 0.000000 3.367990 0.000000 
#    z 0.000000 0.000000 3.378110 
# 
# 
# High freq. dielectric constant tensor:
#      x y z
#    x 1.714630 0.000000 0.000000 
#    y 0.000000 1.695680 0.000000 
#    z 0.000000 0.000000 1.708480 
# 
# From -- ./inp_files/38447.got.cif
#   From: 2010.03.12/outbox.cif.g09.slc.cpg/sg65_20_cif.got.tgz:38447.got - 2010.04.10 20:52:16.
