data_PCOD8266629
_publ_section_title
;
Structure prediction by ZEFSAII (Michael W. Deem and Ramdas Pophale) SiO2 
 PCOD8266629
Probable space group: C M M M
;
_chemical_formula_sum "Si O2"
_cell_formula_units_Z 72
_cell_length_a 22.357702
_cell_length_b 19.401957
_cell_length_c 8.969498
_cell_angle_alpha 90.000000
_cell_angle_beta 90.000000
_cell_angle_gamma 90.000000
_cell_volume 3890.817301
_symmetry_space_group_name_H-M "C M M M"
_symmetry_group_IT_number 65
_symmetry_cell_setting 'orthorhombic'
loop_
_space_group_symop_operation_xyz
x,y,z
-x,-y,z
x,-y,-z
-x,y,-z
-x,-y,-z
x,y,-z
-x,y,z
x,-y,z
1/2+x,1/2+y,z
1/2-x,1/2-y,z
1/2+x,1/2-y,-z
1/2-x,1/2+y,-z
1/2-x,1/2-y,-z
1/2+x,1/2+y,-z
1/2-x,1/2+y,z
1/2+x,1/2-y,z
loop_
_atom_site_type_symbol
_atom_site_label
_atom_site_fract_x
_atom_site_fract_y
_atom_site_fract_z
Si Si1 0.614472 0.659833 0.176733
Si Si2 0.780651 0.078491 0.324341
Si Si3 0.500000 0.423116 0.177277
Si Si4 0.156732 0.578567 0.826816
Si Si5 0.566900 0.194288 0.176600
O O1 0.674129 0.632084 0.251792
O O2 0.558815 0.615127 0.236087
O O3 0.603044 0.738113 0.229142
O O4 0.621751 0.653865 0.000000
O O5 0.782139 0.087441 0.500000
O O6 0.715045 0.097715 0.266908
O O7 0.796976 0.000000 0.277127
O O8 0.500000 0.500000 0.242921
O O9 0.500000 0.423070 0.000000
O O10 0.136653 0.500000 0.798785
O O11 0.102740 0.626783 0.770225
O O12 0.171330 0.591883 0.000000
O O13 0.500000 0.192938 0.246217
O O14 0.560920 0.196036 0.000000
#
# Coordination Sequence:
#
# PCOD8266629 Si02
#       5
#    16  16   8  16  16
#     4  10  18  31  52  76 103 134 168 208 252 302
#     4  10  21  36  52  72 102 137 172 213 257 299
#     4   9  16  26  45  73  98 126 166 205 241 289
#     4   9  18  33  54  78 102 132 171 211 252 303
#     4   9  17  31  52  79 108 133 163 209 260 302
#
# _framework density 18.505109000000001
#
# number of rings (size 3 to 8) (size 9 to 14) (size 15 to 20)
#    0.000    2.556    1.111    1.333    0.000    3.556 
#    0.000    8.333    0.000    4.000    0.000    3.111 
#    0.000    0.000    0.000    0.000    0.000    0.000 
#
# Total GULP energy -446405.571491 kJ/mol
# GULP energy per Si atom -12400.154764 kJ/mol
# Density = 1.846299 g / cm^3
# Si number density = 18.505109 Si / 1000 Ang^3
#
#
#
# Elastic Constant Matrix: (Units=GPa)
#
#
# Indices 1 2 3 4 5 6 
#
# 1 143.6141 98.5167 36.1917 0.0000 0.0000 0.0000
# 2 98.5167 152.0289 30.9398 0.0000 0.0000 0.0000
# 3 36.1917 30.9398 34.7335 0.0000 0.0000 0.0000
# 4 0.0000 0.0000 0.0000 14.0419 0.0000 0.0000
# 5 0.0000 0.0000 0.0000 0.0000 -4.1843 0.0000
# 6 0.0000 0.0000 0.0000 0.0000 0.0000 34.5103
#
#
#
# Elastic Compliance Matrix: (Units=1/GPa)
#
#
# Indices 1 2 3 4 5 6 
#
# 1 0.014162 -0.007541 -0.008039 0.000000 0.000000 0.000000
# 2 -0.007541 0.012050 -0.002876 0.000000 0.000000 0.000000
# 3 -0.008039 -0.002876 0.039729 0.000000 0.000000 0.000000
# 4 0.000000 0.000000 0.000000 0.071216 0.000000 0.000000
# 5 0.000000 0.000000 0.000000 0.000000 -0.238988 0.000000
# 6 0.000000 0.000000 0.000000 0.000000 0.000000 0.028977
#
#
# Mechanical properties :
#
#
# Convention : Reuss Voigt Hill
#
# Bulk Modulus (GPa) = 34.44884 73.51920 53.98402
# Shear Modulus (GPa) = -190.35904 19.85547 -85.25178
#
# Velocity S-wave (km/s) = -10.15341 3.27918 -6.79480
# Velocity P-wave (km/s) = 10.89951 7.35885 5.68536
#
# Compressibility (1/GPa) = 0.02902856
#
# Stress axis : x y z
#
# Youngs Moduli (GPa) = 70.61074 82.98936 25.17041
#
# Poissons Ratio (x) = 0.62584 0.20235
# Poissons Ratio (y) = 0.53249 0.07239
# Poissons Ratio (z) = 0.56766 0.23866
#
# Static dielectric constant tensor:
#      x y z
#    x 3.495670 0.000000 0.000000 
#    y 0.000000 3.608270 0.000000 
#    z 0.000000 0.000000 2.987640 
# 
# 
# High freq. dielectric constant tensor:
#      x y z
#    x 1.724210 0.000000 0.000000 
#    y 0.000000 1.727000 0.000000 
#    z 0.000000 0.000000 1.674010 
# 
# From -- ./inp_files/9211.got.cif
#   From: 2010.03.12/outbox.cif.g09.slc.cpg/sg65_5_cif.got.tgz:9211.got - 2010.04.10 20:52:16.
