data_PCOD8266519
_publ_section_title
;
Structure prediction by ZEFSAII (Michael W. Deem and Ramdas Pophale) SiO2 
 PCOD8266519
Probable space group: C M M M
;
_chemical_formula_sum "Si O2"
_cell_formula_units_Z 80
_cell_length_a 25.835925
_cell_length_b 23.323051
_cell_length_c 9.258205
_cell_angle_alpha 90.000000
_cell_angle_beta 90.000000
_cell_angle_gamma 90.000000
_cell_volume 5578.740625
_symmetry_space_group_name_H-M "C M M M"
_symmetry_group_IT_number 65
_symmetry_cell_setting 'orthorhombic'
loop_
_space_group_symop_operation_xyz
x,y,z
-x,-y,z
x,-y,-z
-x,y,-z
-x,-y,-z
x,y,-z
-x,y,z
x,-y,z
1/2+x,1/2+y,z
1/2-x,1/2-y,z
1/2+x,1/2-y,-z
1/2-x,1/2+y,-z
1/2-x,1/2-y,-z
1/2+x,1/2+y,-z
1/2-x,1/2+y,z
1/2+x,1/2-y,z
loop_
_atom_site_type_symbol
_atom_site_label
_atom_site_fract_x
_atom_site_fract_y
_atom_site_fract_z
Si Si1 0.646648 0.807101 0.333933
Si Si2 0.288286 0.000000 0.333070
Si Si3 0.197791 0.213709 0.163317
Si Si4 0.604395 0.000000 0.172318
Si Si5 0.940468 0.606471 0.665656
Si Si6 0.251938 0.877126 0.665436
O O1 0.649509 0.788458 0.500000
O O2 0.652160 0.749224 0.240618
O O3 0.592449 0.837058 0.294988
O O4 0.691534 0.852525 0.295985
O O5 0.252840 0.055240 0.300883
O O6 0.307468 0.000000 0.500000
O O7 0.337396 0.000000 0.229597
O O8 0.250000 0.250000 0.175392
O O9 0.207295 0.152482 0.239229
O O10 0.180882 0.202219 0.000000
O O11 0.573962 0.055335 0.227951
O O12 0.605006 0.000000 0.000000
O O13 0.928861 0.587655 0.500000
O O14 0.000000 0.623057 0.687373
O O15 0.238065 0.864432 0.500000
#
# Coordination Sequence:
#
# PCOD8266519 Si02
#       6
#    16   8  16   8  16  16
#     4   9  16  28  45  61  77 101 137 175 209 246
#     4  10  18  31  47  62  82 111 145 177 210 247
#     4   9  17  27  40  59  83 105 129 163 206 253
#     4  12  23  31  42  59  84 112 142 181 221 253
#     4  10  20  34  49  61  77 107 146 184 218 252
#     4   9  16  27  44  61  79 104 137 172 204 243
#
# _framework density 14.340154999999999
#
# number of rings (size 3 to 8) (size 9 to 14) (size 15 to 20)
#    0.000    2.400    2.000    1.800    0.000    5.600 
#    0.000    0.000    0.000    0.000    0.000    0.000 
#    0.000    0.000    0.000    0.900    0.000   20.600 
#
# Total GULP energy -496015.715107 kJ/mol
# GULP energy per Si atom -12400.392878 kJ/mol
# Density = 1.430752 g / cm^3
# Si number density = 14.340155 Si / 1000 Ang^3
#
#
#
# Elastic Constant Matrix: (Units=GPa)
#
#
# Indices 1 2 3 4 5 6 
#
# 1 59.3002 54.7186 45.9413 0.0000 0.0000 0.0000
# 2 54.7186 106.0180 60.1184 0.0000 0.0000 0.0000
# 3 45.9413 60.1184 94.1487 0.0000 0.0000 0.0000
# 4 0.0000 0.0000 0.0000 10.2800 0.0000 0.0000
# 5 0.0000 0.0000 0.0000 0.0000 10.1551 0.0000
# 6 0.0000 0.0000 0.0000 0.0000 0.0000 -3.0824
#
#
#
# Elastic Compliance Matrix: (Units=1/GPa)
#
#
# Indices 1 2 3 4 5 6 
#
# 1 0.036555 -0.013720 -0.009077 0.000000 0.000000 0.000000
# 2 -0.013720 0.019936 -0.006035 0.000000 0.000000 0.000000
# 3 -0.009077 -0.006035 0.018904 0.000000 0.000000 0.000000
# 4 0.000000 0.000000 0.000000 0.097276 0.000000 0.000000
# 5 0.000000 0.000000 0.000000 0.000000 0.098473 0.000000
# 6 0.000000 0.000000 0.000000 0.000000 0.000000 -0.324426
#
#
# Mechanical properties :
#
#
# Convention : Reuss Voigt Hill
#
# Bulk Modulus (GPa) = 56.39635 64.55817 60.47726
# Shear Modulus (GPa) = 485.77667 10.04979 247.91323
#
# Velocity S-wave (km/s) = 18.42520 2.65016 13.16267
# Velocity P-wave (km/s) = 22.18251 7.38115 16.53096
#
# Compressibility (1/GPa) = 0.01773164
#
# Stress axis : x y z
#
# Youngs Moduli (GPa) = 27.35571 50.16084 52.89777
#
# Poissons Ratio (x) = 0.68821 0.48015
# Poissons Ratio (y) = 0.37532 0.31924
# Poissons Ratio (z) = 0.24830 0.30272
#
# Static dielectric constant tensor:
#      x y z
#    x 2.548170 0.000000 0.000000 
#    y 0.000000 2.809370 0.000000 
#    z 0.000000 0.000000 2.846100 
# 
# 
# High freq. dielectric constant tensor:
#      x y z
#    x 1.504550 0.000000 0.000000 
#    y 0.000000 1.537780 0.000000 
#    z 0.000000 0.000000 1.551400 
# 
# From -- ./inp_files/11602.got.cif
#   From: 2010.03.12/outbox.cif.g09.slc.cpg/sg65_6_cif.got.tgz:11602.got - 2010.04.10 20:52:16.
