data_PCOD8266480
_publ_section_title
;
Structure prediction by ZEFSAII (Michael W. Deem and Ramdas Pophale) SiO2 
 PCOD8266480
Probable space group: C M M M
;
_chemical_formula_sum "Si O2"
_cell_formula_units_Z 112
_cell_length_a 14.898217
_cell_length_b 28.644296
_cell_length_c 14.427177
_cell_angle_alpha 90.000000
_cell_angle_beta 90.000000
_cell_angle_gamma 90.000000
_cell_volume 6156.782458
_symmetry_space_group_name_H-M "C M M M"
_symmetry_group_IT_number 65
_symmetry_cell_setting 'orthorhombic'
loop_
_space_group_symop_operation_xyz
x,y,z
-x,-y,z
x,-y,-z
-x,y,-z
-x,-y,-z
x,y,-z
-x,y,z
x,-y,z
1/2+x,1/2+y,z
1/2-x,1/2-y,z
1/2+x,1/2-y,-z
1/2-x,1/2+y,-z
1/2-x,1/2-y,-z
1/2+x,1/2+y,-z
1/2-x,1/2+y,z
1/2+x,1/2-y,z
loop_
_atom_site_type_symbol
_atom_site_label
_atom_site_fract_x
_atom_site_fract_y
_atom_site_fract_z
Si Si1 0.841428 0.224937 0.705838
Si Si2 0.106098 0.641508 0.899531
Si Si3 0.606934 0.897137 0.708583
Si Si4 0.400619 0.807926 0.600861
Si Si5 0.756287 0.947040 0.393496
Si Si6 0.103860 0.131627 0.608496
Si Si7 0.606045 0.753542 0.897251
O O1 0.750000 0.250000 0.674725
O O2 0.912193 0.260033 0.658770
O O3 0.851413 0.173730 0.664807
O O4 0.850767 0.221459 0.817351
O O5 0.134210 0.606829 0.817168
O O6 0.142562 0.693848 0.881844
O O7 0.000000 0.646135 0.901681
O O8 0.140690 0.622726 0.000000
O O9 0.500000 0.906527 0.696609
O O10 0.643730 0.849509 0.660490
O O11 0.665691 0.938623 0.665788
O O12 0.352027 0.801488 0.500000
O O13 0.500000 0.825844 0.581392
O O14 0.730128 0.938169 0.500000
O O15 0.840332 0.914627 0.364680
O O16 0.787657 0.000000 0.376468
O O17 0.110500 0.143022 0.500000
O O18 0.000000 0.124435 0.637972
O O19 0.500000 0.750979 0.887381
O O20 0.635270 0.735796 0.000000
#
# Coordination Sequence:
#
# PCOD8266480 Si02
#       7
#    16  16  16  16  16  16  16
#     4  12  22  30  47  75 109 141 167 206 261 312
#     4   8  14  26  47  73 101 139 182 212 236 283
#     4  10  18  30  51  79 112 145 173 203 252 320
#     4  10  19  30  45  67  99 139 175 199 228 290
#     4  10  22  39  57  77 101 130 172 226 277 323
#     4  10  22  39  57  76 100 135 182 230 269 307
#     4   9  17  31  49  68  98 142 183 210 236 284
#
# _framework density 18.191320000000001
#
# number of rings (size 3 to 8) (size 9 to 14) (size 15 to 20)
#    0.000    2.143    1.429    3.857    0.000    5.143 
#    0.000    2.143    0.000    0.429    0.000    2.000 
#    0.000    0.000    0.000    4.286    0.000    0.286 
#
# Total GULP energy -693967.646698 kJ/mol
# GULP energy per Si atom -12392.279405 kJ/mol
# Density = 1.814992 g / cm^3
# Si number density = 18.191320 Si / 1000 Ang^3
#
#
#
# Elastic Constant Matrix: (Units=GPa)
#
#
# Indices 1 2 3 4 5 6 
#
# 1 78.9502 44.3488 40.4008 0.0000 0.0000 0.0000
# 2 44.3488 102.9157 49.7595 0.0000 0.0000 0.0000
# 3 40.4008 49.7595 123.4019 0.0000 0.0000 0.0000
# 4 0.0000 0.0000 0.0000 15.6756 0.0000 0.0000
# 5 0.0000 0.0000 0.0000 0.0000 14.4847 0.0000
# 6 0.0000 0.0000 0.0000 0.0000 0.0000 21.6150
#
#
#
# Elastic Compliance Matrix: (Units=1/GPa)
#
#
# Indices 1 2 3 4 5 6 
#
# 1 0.017787 -0.006024 -0.003394 0.000000 0.000000 0.000000
# 2 -0.006024 0.014110 -0.003717 0.000000 0.000000 0.000000
# 3 -0.003394 -0.003717 0.010714 0.000000 0.000000 0.000000
# 4 0.000000 0.000000 0.000000 0.063793 0.000000 0.000000
# 5 0.000000 0.000000 0.000000 0.000000 0.069038 0.000000
# 6 0.000000 0.000000 0.000000 0.000000 0.000000 0.046264
#
#
# Mechanical properties :
#
#
# Convention : Reuss Voigt Hill
#
# Bulk Modulus (GPa) = 61.20062 63.80956 62.50509
# Shear Modulus (GPa) = 19.72980 21.73898 20.73439
#
# Velocity S-wave (km/s) = 3.29686 3.46066 3.37975
# Velocity P-wave (km/s) = 6.94321 7.14991 7.04732
#
# Compressibility (1/GPa) = 0.01633970
#
# Stress axis : x y z
#
# Youngs Moduli (GPa) = 56.22134 70.87280 93.33697
#
# Poissons Ratio (x) = 0.42691 0.31682
# Poissons Ratio (y) = 0.33866 0.34697
# Poissons Ratio (z) = 0.19084 0.26346
#
# Static dielectric constant tensor:
#      x y z
#    x 3.255160 0.000000 0.000000 
#    y 0.000000 3.060240 0.000000 
#    z 0.000000 0.000000 3.801230 
# 
# 
# High freq. dielectric constant tensor:
#      x y z
#    x 1.692990 0.000000 0.000000 
#    y 0.000000 1.663020 0.000000 
#    z 0.000000 0.000000 1.712160 
# 
# From -- ./inp_files/41070.got.cif
#   From: 2010.03.12/outbox.cif.g09.slc.cpg/sg65_21_cif.got.tgz:41070.got - 2010.04.10 20:52:16.
