data_PCOD8266852
_publ_section_title
;
Structure prediction by ZEFSAII (Michael W. Deem and Ramdas Pophale) SiO2 
 PCOD8266852
Probable space group: C M M M
;
_chemical_formula_sum "Si O2"
_cell_formula_units_Z 96
_cell_length_a 8.628811
_cell_length_b 23.693800
_cell_length_c 25.417892
_cell_angle_alpha 90.000000
_cell_angle_beta 90.000000
_cell_angle_gamma 90.000000
_cell_volume 5196.670788
_symmetry_space_group_name_H-M "C M M M"
_symmetry_group_IT_number 65
_symmetry_cell_setting 'orthorhombic'
loop_
_space_group_symop_operation_xyz
x,y,z
-x,-y,z
x,-y,-z
-x,y,-z
-x,-y,-z
x,y,-z
-x,y,z
x,-y,z
1/2+x,1/2+y,z
1/2-x,1/2-y,z
1/2+x,1/2-y,-z
1/2-x,1/2+y,-z
1/2-x,1/2-y,-z
1/2+x,1/2+y,-z
1/2-x,1/2+y,z
1/2+x,1/2-y,z
loop_
_atom_site_type_symbol
_atom_site_label
_atom_site_fract_x
_atom_site_fract_y
_atom_site_fract_z
Si Si1 0.185222 0.122991 0.795675
Si Si2 0.319885 0.563936 0.500000
Si Si3 0.177944 0.000000 0.223152
Si Si4 0.316088 0.687160 0.000000
Si Si5 0.672735 0.000000 0.670087
Si Si6 0.815727 0.312503 0.304170
Si Si7 0.683145 0.187872 0.106131
Si Si8 0.176271 0.390288 0.601918
O O1 0.238987 0.149486 0.740781
O O2 0.267490 0.153257 0.843495
O O3 0.000000 0.127969 0.799783
O O4 0.247021 0.058258 0.799797
O O5 0.243109 0.500000 0.500000
O O6 0.500000 0.554460 0.500000
O O7 0.276749 0.602562 0.450237
O O8 0.198434 0.000000 0.285532
O O9 0.000000 0.000000 0.209280
O O10 0.250000 0.750000 0.000000
O O11 0.252274 0.657987 0.946646
O O12 0.500000 0.686670 0.000000
O O13 0.699323 0.946065 0.635105
O O14 0.500000 0.000000 0.695155
O O15 0.750000 0.250000 0.300071
O O16 0.770734 0.337757 0.361490
O O17 0.000000 0.312828 0.295903
O O18 0.500000 0.191104 0.101461
O O19 0.750000 0.250000 0.113013
O O20 0.000000 0.382010 0.583890
#
# Coordination Sequence:
#
# PCOD8266852 Si02
#       8
#    16   8   8   8   8  16  16  16
#     4  11  22  37  56  82 114 148 184 227 276 329
#     4  11  23  35  54  85 114 139 174 222 273 322
#     4  10  22  36  55  82 113 146 181 225 277 327
#     4  10  18  32  54  81 112 147 186 232 280 328
#     4  10  18  33  57  82 108 139 178 225 272 327
#     4  11  23  39  58  82 110 146 185 225 273 328
#     4  11  21  35  55  82 114 150 189 232 277 326
#     4  10  21  37  58  81 109 143 179 220 271 328
#
# _framework density 18.473367
#
# number of rings (size 3 to 8) (size 9 to 14) (size 15 to 20)
#    0.000    1.417    2.500    5.000    0.000    3.000 
#    0.000    0.417    0.000    0.500    0.000    3.500 
#    0.000    0.000    0.000    0.000    0.000    0.000 
#
# Total GULP energy -595029.364054 kJ/mol
# GULP energy per Si atom -12396.445084 kJ/mol
# Density = 1.843132 g / cm^3
# Si number density = 18.473367 Si / 1000 Ang^3
#
#
#
# Elastic Constant Matrix: (Units=GPa)
#
#
# Indices 1 2 3 4 5 6 
#
# 1 105.6143 37.8988 50.0288 0.0000 0.0000 0.0000
# 2 37.8988 108.1936 44.0003 0.0000 0.0000 0.0000
# 3 50.0288 44.0003 126.2373 0.0000 0.0000 0.0000
# 4 0.0000 0.0000 0.0000 -4.8500 0.0000 0.0000
# 5 0.0000 0.0000 0.0000 0.0000 35.3423 0.0000
# 6 0.0000 0.0000 0.0000 0.0000 0.0000 17.9653
#
#
#
# Elastic Compliance Matrix: (Units=1/GPa)
#
#
# Indices 1 2 3 4 5 6 
#
# 1 0.012303 -0.002711 -0.003931 0.000000 0.000000 0.000000
# 2 -0.002711 0.011367 -0.002887 0.000000 0.000000 0.000000
# 3 -0.003931 -0.002887 0.010486 0.000000 0.000000 0.000000
# 4 0.000000 0.000000 0.000000 -0.206187 0.000000 0.000000
# 5 0.000000 0.000000 0.000000 0.000000 0.028295 0.000000
# 6 0.000000 0.000000 0.000000 0.000000 0.000000 0.055663
#
#
# Mechanical properties :
#
#
# Convention : Reuss Voigt Hill
#
# Bulk Modulus (GPa) = 66.23870 67.10008 66.66939
# Shear Modulus (GPa) = -78.14667 23.56600 -27.29033
#
# Velocity S-wave (km/s) = -6.51108 3.57553 -3.84771
# Velocity P-wave (km/s) = 4.53778 7.31077 4.05314
#
# Compressibility (1/GPa) = 0.01509691
#
# Stress axis : x y z
#
# Youngs Moduli (GPa) = 81.27885 87.97700 95.36627
#
# Poissons Ratio (x) = 0.23851 0.37488
# Poissons Ratio (y) = 0.22035 0.27537
# Poissons Ratio (z) = 0.31950 0.25403
#
# Static dielectric constant tensor:
#      x y z
#    x 3.502980 0.000000 0.000000 
#    y 0.000000 3.329890 0.000000 
#    z 0.000000 0.000000 3.779110 
# 
# 
# High freq. dielectric constant tensor:
#      x y z
#    x 1.723960 0.000000 0.000000 
#    y 0.000000 1.702690 0.000000 
#    z 0.000000 0.000000 1.723180 
# 
# From -- ./inp_files/67946.got.cif
#   From: 2010.03.12/outbox.cif.g09.slc.cpg/sg65_34_cif.got.tgz:67946.got - 2010.04.10 20:52:16.
