data_PCOD8266153
_publ_section_title
;
Structure prediction by ZEFSAII (Michael W. Deem and Ramdas Pophale) SiO2 
 PCOD8266153
Probable space group: C M M M
;
_chemical_formula_sum "Si O2"
_cell_formula_units_Z 72
_cell_length_a 9.094219
_cell_length_b 24.947068
_cell_length_c 17.187366
_cell_angle_alpha 90.000000
_cell_angle_beta 90.000000
_cell_angle_gamma 90.000000
_cell_volume 3899.368189
_symmetry_space_group_name_H-M "C M M M"
_symmetry_group_IT_number 65
_symmetry_cell_setting 'orthorhombic'
loop_
_space_group_symop_operation_xyz
x,y,z
-x,-y,z
x,-y,-z
-x,y,-z
-x,-y,-z
x,y,-z
-x,y,z
x,-y,z
1/2+x,1/2+y,z
1/2-x,1/2-y,z
1/2+x,1/2-y,-z
1/2-x,1/2+y,-z
1/2-x,1/2-y,-z
1/2+x,1/2+y,-z
1/2-x,1/2+y,z
1/2+x,1/2-y,z
loop_
_atom_site_type_symbol
_atom_site_label
_atom_site_fract_x
_atom_site_fract_y
_atom_site_fract_z
Si Si1 0.835535 0.000000 0.214534
Si Si2 0.327048 0.000000 0.630124
Si Si3 0.828753 0.106937 0.625099
Si Si4 0.334650 0.615777 0.193672
Si Si5 0.327553 0.692860 0.500000
Si Si6 0.828187 0.303666 0.911543
O O1 0.821058 0.945962 0.163872
O O2 0.708703 0.000000 0.278569
O O3 0.000000 0.000000 0.254556
O O4 0.258255 0.054454 0.594144
O O5 0.500000 0.000000 0.614705
O O6 0.793731 0.119038 0.715290
O O7 0.779549 0.158902 0.576008
O O8 0.000000 0.095050 0.612100
O O9 0.500000 0.637496 0.179405
O O10 0.218617 0.648477 0.144123
O O11 0.500000 0.704033 0.500000
O O12 0.250000 0.750000 0.500000
O O13 0.750000 0.250000 0.882215
O O14 0.000000 0.294581 0.904090
O O15 0.781496 0.317203 0.000000
#
# Coordination Sequence:
#
# PCOD8266153 Si02
#       6
#     8   8  16  16   8  16
#     4   8  16  32  52  76 108 140 167 201 248 305
#     4  10  18  29  51  81 106 131 168 216 259 294
#     4   9  19  36  55  76 104 139 173 206 253 310
#     4   9  17  32  55  79 103 133 170 208 248 301
#     4  10  22  39  56  73 101 140 176 214 259 304
#     4  10  21  36  53  74 101 133 170 213 258 302
#
# _framework density 18.464528999999999
#
# number of rings (size 3 to 8) (size 9 to 14) (size 15 to 20)
#    0.000    2.667    0.000    3.000    0.000    7.111 
#    0.000    5.000    0.000    3.333    0.000    0.000 
#    0.000    0.000    0.000    0.000    0.000    0.000 
#
# Total GULP energy -446254.581649 kJ/mol
# GULP energy per Si atom -12395.960601 kJ/mol
# Density = 1.842250 g / cm^3
# Si number density = 18.464529 Si / 1000 Ang^3
#
#
#
# Elastic Constant Matrix: (Units=GPa)
#
#
# Indices 1 2 3 4 5 6 
#
# 1 81.7735 65.0738 35.2500 0.0000 0.0000 0.0000
# 2 65.0738 168.7996 62.6983 0.0000 0.0000 0.0000
# 3 35.2500 62.6983 68.6070 0.0000 0.0000 0.0000
# 4 0.0000 0.0000 0.0000 533.7859 0.0000 0.0000
# 5 0.0000 0.0000 0.0000 0.0000 22.6952 0.0000
# 6 0.0000 0.0000 0.0000 0.0000 0.0000 38.6052
#
#
#
# Elastic Compliance Matrix: (Units=1/GPa)
#
#
# Indices 1 2 3 4 5 6 
#
# 1 0.018526 -0.005460 -0.004529 0.000000 0.000000 0.000000
# 2 -0.005460 0.010577 -0.006861 0.000000 0.000000 0.000000
# 3 -0.004529 -0.006861 0.023173 0.000000 0.000000 0.000000
# 4 0.000000 0.000000 0.000000 0.001873 0.000000 0.000000
# 5 0.000000 0.000000 0.000000 0.000000 0.044062 0.000000
# 6 0.000000 0.000000 0.000000 0.000000 0.000000 0.025903
#
#
# Mechanical properties :
#
#
# Convention : Reuss Voigt Hill
#
# Bulk Modulus (GPa) = 53.83163 71.69159 62.76161
# Shear Modulus (GPa) = 30.48634 129.42779 79.95706
#
# Velocity S-wave (km/s) = 4.06775 8.38138 6.58765
# Velocity P-wave (km/s) = 7.16097 11.51409 9.58785
#
# Compressibility (1/GPa) = 0.01857644
#
# Stress axis : x y z
#
# Youngs Moduli (GPa) = 53.97838 94.54031 43.15316
#
# Poissons Ratio (x) = 0.51616 0.19544
# Poissons Ratio (y) = 0.29470 0.29609
# Poissons Ratio (z) = 0.24447 0.64868
#
# Static dielectric constant tensor:
#      x y z
#    x 3.258450 0.000000 0.000000 
#    y 0.000000 3.580030 0.000000 
#    z 0.000000 0.000000 3.242780 
# 
# 
# High freq. dielectric constant tensor:
#      x y z
#    x 1.709740 0.000000 0.000000 
#    y 0.000000 1.726050 0.000000 
#    z 0.000000 0.000000 1.691530 
# 
# From -- ./inp_files/59564.got.cif
#   From: 2010.03.12/outbox.cif.g09.slc.cpg/sg65_30_cif.got.tgz:59564.got - 2010.04.10 20:52:16.
