data_PCOD8266902
_publ_section_title
;
Structure prediction by ZEFSAII (Michael W. Deem and Ramdas Pophale) SiO2 
 PCOD8266902
Probable space group: C M M M
;
_chemical_formula_sum "Si O2"
_cell_formula_units_Z 112
_cell_length_a 13.704977
_cell_length_b 23.133408
_cell_length_c 15.315074
_cell_angle_alpha 90.000000
_cell_angle_beta 90.000000
_cell_angle_gamma 90.000000
_cell_volume 4855.534319
_symmetry_space_group_name_H-M "C M M M"
_symmetry_group_IT_number 65
_symmetry_cell_setting 'orthorhombic'
loop_
_space_group_symop_operation_xyz
x,y,z
-x,-y,z
x,-y,-z
-x,y,-z
-x,-y,-z
x,y,-z
-x,y,z
x,-y,z
1/2+x,1/2+y,z
1/2-x,1/2-y,z
1/2+x,1/2-y,-z
1/2-x,1/2+y,-z
1/2-x,1/2-y,-z
1/2+x,1/2+y,-z
1/2-x,1/2+y,z
1/2+x,1/2-y,z
loop_
_atom_site_type_symbol
_atom_site_label
_atom_site_fract_x
_atom_site_fract_y
_atom_site_fract_z
Si Si1 0.237852 0.842312 0.403984
Si Si2 0.613041 0.252544 0.905792
Si Si3 0.296700 0.130837 0.904782
Si Si4 0.106937 0.223304 0.274960
Si Si5 0.607017 0.860287 0.269525
Si Si6 0.110718 0.931358 0.153454
Si Si7 0.110867 0.062875 0.647143
O O1 0.267577 0.817977 0.500000
O O2 0.189166 0.791914 0.345275
O O3 0.327743 0.872655 0.354576
O O4 0.160413 0.893005 0.419116
O O5 0.500000 0.228718 0.897802
O O6 0.806512 0.299225 0.902031
O O7 0.630670 0.298358 0.824888
O O8 0.625014 0.284405 0.000000
O O9 0.354445 0.108039 0.818848
O O10 0.186426 0.106409 0.902268
O O11 0.340035 0.110787 0.000000
O O12 0.104983 0.291544 0.259093
O O13 0.000000 0.201194 0.307151
O O14 0.500000 0.885261 0.288828
O O15 0.121020 0.911916 0.254768
O O16 0.000000 0.918693 0.121292
O O17 0.132372 0.000000 0.144693
O O18 0.000000 0.056962 0.619089
O O19 0.161043 0.000000 0.640372
#
# Coordination Sequence:
#
# PCOD8266902 Si02
#       7
#    16  16  16  16  16  16  16
#     4  12  24  38  61  91 120 152 197 249 300 358
#     4   8  15  31  57  86 117 159 206 249 294 346
#     4  10  18  32  59  88 113 150 201 246 288 345
#     4   9  19  35  57  86 122 157 192 241 298 355
#     4  10  22  41  60  82 118 161 200 241 295 353
#     4   9  18  34  57  86 123 164 201 241 296 363
#     4   9  19  38  63  89 119 155 194 240 296 357
#
# _framework density 23.066462999999999
#
# number of rings (size 3 to 8) (size 9 to 14) (size 15 to 20)
#    0.000    2.429    1.429    3.000    0.000    4.286 
#    0.000    3.571    0.000    6.429    0.000    6.000 
#    0.000    0.000    0.000    0.000    0.000    0.000 
#
# Total GULP energy -693737.522272 kJ/mol
# GULP energy per Si atom -12388.170041 kJ/mol
# Density = 2.301396 g / cm^3
# Si number density = 23.066463 Si / 1000 Ang^3
#
#
#
# Elastic Constant Matrix: (Units=GPa)
#
#
# Indices 1 2 3 4 5 6 
#
# 1 124.2224 29.1776 67.4155 0.0000 0.0000 0.0000
# 2 29.1776 29.1692 21.2364 0.0000 0.0000 0.0000
# 3 67.4155 21.2364 188.9831 0.0000 0.0000 0.0000
# 4 0.0000 0.0000 0.0000 18.8312 0.0000 0.0000
# 5 0.0000 0.0000 0.0000 0.0000 12.8774 0.0000
# 6 0.0000 0.0000 0.0000 0.0000 0.0000 20.8541
#
#
#
# Elastic Compliance Matrix: (Units=1/GPa)
#
#
# Indices 1 2 3 4 5 6 
#
# 1 0.012085 -0.009747 -0.003216 0.000000 0.000000 0.000000
# 2 -0.009747 0.045199 -0.001602 0.000000 0.000000 0.000000
# 3 -0.003216 -0.001602 0.006619 0.000000 0.000000 0.000000
# 4 0.000000 0.000000 0.000000 0.053103 0.000000 0.000000
# 5 0.000000 0.000000 0.000000 0.000000 0.077656 0.000000
# 6 0.000000 0.000000 0.000000 0.000000 0.000000 0.047952
#
#
# Mechanical properties :
#
#
# Convention : Reuss Voigt Hill
#
# Bulk Modulus (GPa) = 28.75814 64.22597 46.49205
# Shear Modulus (GPa) = 17.64703 25.48219 21.56461
#
# Velocity S-wave (km/s) = 2.76896 3.32735 3.06091
# Velocity P-wave (km/s) = 4.76628 6.53192 5.71767
#
# Compressibility (1/GPa) = 0.03477277
#
# Stress axis : x y z
#
# Youngs Moduli (GPa) = 82.75000 22.12442 151.08919
#
# Poissons Ratio (x) = 0.21565 0.48585
# Poissons Ratio (y) = 0.80656 0.24206
# Poissons Ratio (z) = 0.26609 0.03544
#
# Static dielectric constant tensor:
#      x y z
#    x 4.373320 0.000000 0.000000 
#    y 0.000000 3.722750 0.000000 
#    z 0.000000 0.000000 4.293430 
# 
# 
# High freq. dielectric constant tensor:
#      x y z
#    x 1.912040 0.000000 0.000000 
#    y 0.000000 1.869440 0.000000 
#    z 0.000000 0.000000 1.913990 
# 
# From -- ./inp_files/41041.got.cif
#   From: 2010.03.12/outbox.cif.g09.slc.cpg/sg65_21_cif.got.tgz:41041.got - 2010.04.10 20:52:16.
