data_PCOD8266285
_publ_section_title
;
Structure prediction by ZEFSAII (Michael W. Deem and Ramdas Pophale) SiO2 
 PCOD8266285
Probable space group: C M M M
;
_chemical_formula_sum "Si O2"
_cell_formula_units_Z 104
_cell_length_a 8.816254
_cell_length_b 28.854990
_cell_length_c 23.545689
_cell_angle_alpha 90.000000
_cell_angle_beta 90.000000
_cell_angle_gamma 90.000000
_cell_volume 5989.856602
_symmetry_space_group_name_H-M "C M M M"
_symmetry_group_IT_number 65
_symmetry_cell_setting 'orthorhombic'
loop_
_space_group_symop_operation_xyz
x,y,z
-x,-y,z
x,-y,-z
-x,y,-z
-x,-y,-z
x,y,-z
-x,y,z
x,-y,z
1/2+x,1/2+y,z
1/2-x,1/2-y,z
1/2+x,1/2-y,-z
1/2-x,1/2+y,-z
1/2-x,1/2-y,-z
1/2+x,1/2+y,-z
1/2-x,1/2+y,z
1/2+x,1/2-y,z
loop_
_atom_site_type_symbol
_atom_site_label
_atom_site_fract_x
_atom_site_fract_y
_atom_site_fract_z
Si Si1 0.822090 0.448467 0.241590
Si Si2 0.180288 0.199566 0.386567
Si Si3 0.321839 0.358647 0.722480
Si Si4 0.174810 0.051664 0.122053
Si Si5 0.180484 0.800238 0.169385
Si Si6 0.820776 0.142898 0.937809
Si Si7 0.181345 0.698785 0.500000
O O1 0.768687 0.500000 0.260721
O O2 0.747180 0.410029 0.281732
O O3 0.775592 0.439505 0.176937
O O4 0.000000 0.443583 0.246680
O O5 0.250000 0.250000 0.376373
O O6 0.229347 0.168668 0.333358
O O7 0.253482 0.175203 0.442631
O O8 0.000000 0.203655 0.393543
O O9 0.500000 0.363798 0.725516
O O10 0.262217 0.331683 0.778260
O O11 0.222790 0.089484 0.075326
O O12 0.000000 0.058926 0.140356
O O13 0.200883 0.000000 0.096948
O O14 0.250000 0.750000 0.176589
O O15 0.242901 0.822885 0.110806
O O16 0.000000 0.796440 0.169518
O O17 0.000000 0.148150 0.939603
O O18 0.752347 0.155649 0.000000
O O19 0.250000 0.750000 0.500000
O O20 0.000000 0.698890 0.500000
#
# Coordination Sequence:
#
# PCOD8266285 Si02
#       7
#    16  16  16  16  16  16   8
#     4  10  20  32  49  74 101 127 157 196 244 297
#     4  10  19  31  49  74 105 138 174 209 246 288
#     4  10  20  34  52  74  99 130 165 204 246 292
#     4   9  16  29  50  71  93 121 153 193 244 301
#     4  10  20  34  49  68  94 124 161 202 248 292
#     4   9  17  30  48  69  94 122 157 202 245 292
#     4  10  18  30  48  70 103 142 177 208 244 285
#
# _framework density 17.362686
#
# number of rings (size 3 to 8) (size 9 to 14) (size 15 to 20)
#    0.000    2.308    1.538    3.000    0.000    3.385 
#    0.000    1.538    0.000    1.385    0.000    2.692 
#    0.000    4.308    0.000    0.000    0.000    0.000 
#
# Total GULP energy -644611.874149 kJ/mol
# GULP energy per Si atom -12396.382195 kJ/mol
# Density = 1.732317 g / cm^3
# Si number density = 17.362686 Si / 1000 Ang^3
#
#
#
# Elastic Constant Matrix: (Units=GPa)
#
#
# Indices 1 2 3 4 5 6 
#
# 1 36.0851 30.1363 38.0407 0.0000 0.0000 0.0000
# 2 30.1363 116.4594 68.3419 0.0000 0.0000 0.0000
# 3 38.0407 68.3419 144.9844 0.0000 0.0000 0.0000
# 4 0.0000 0.0000 0.0000 20.7362 0.0000 0.0000
# 5 0.0000 0.0000 0.0000 0.0000 16.0454 0.0000
# 6 0.0000 0.0000 0.0000 0.0000 0.0000 24.8147
#
#
#
# Elastic Compliance Matrix: (Units=1/GPa)
#
#
# Indices 1 2 3 4 5 6 
#
# 1 0.041092 -0.005953 -0.007975 0.000000 0.000000 0.000000
# 2 -0.005953 0.012733 -0.004440 0.000000 0.000000 0.000000
# 3 -0.007975 -0.004440 0.011083 0.000000 0.000000 0.000000
# 4 0.000000 0.000000 0.000000 0.048225 0.000000 0.000000
# 5 0.000000 0.000000 0.000000 0.000000 0.062323 0.000000
# 6 0.000000 0.000000 0.000000 0.000000 0.000000 0.040299
#
#
# Mechanical properties :
#
#
# Convention : Reuss Voigt Hill
#
# Bulk Modulus (GPa) = 35.49849 63.39632 49.44741
# Shear Modulus (GPa) = 19.09267 23.05325 21.07296
#
# Velocity S-wave (km/s) = 3.31968 3.64778 3.48759
# Velocity P-wave (km/s) = 5.93155 7.37116 6.69019
#
# Compressibility (1/GPa) = 0.02817021
#
# Stress axis : x y z
#
# Youngs Moduli (GPa) = 24.33583 78.53840 90.23072
#
# Poissons Ratio (x) = 0.46755 0.71963
# Poissons Ratio (y) = 0.14487 0.40061
# Poissons Ratio (z) = 0.19409 0.34870
#
# Static dielectric constant tensor:
#      x y z
#    x 3.076220 0.000000 0.000000 
#    y 0.000000 3.323900 0.000000 
#    z 0.000000 0.000000 3.659580 
# 
# 
# High freq. dielectric constant tensor:
#      x y z
#    x 1.656540 0.000000 0.000000 
#    y 0.000000 1.662930 0.000000 
#    z 0.000000 0.000000 1.662420 
# 
# From -- ./inp_files/68544.got.cif
#   From: 2010.03.12/outbox.cif.g09.slc.cpg/sg65_35_cif.got.tgz:68544.got - 2010.04.10 20:52:16.
