data_PCOD8266783
_publ_section_title
;
Structure prediction by ZEFSAII (Michael W. Deem and Ramdas Pophale) SiO2 
 PCOD8266783
Probable space group: C M M M
;
_chemical_formula_sum "Si O2"
_cell_formula_units_Z 64
_cell_length_a 18.917829
_cell_length_b 8.882857
_cell_length_c 20.889166
_cell_angle_alpha 90.000000
_cell_angle_beta 90.000000
_cell_angle_gamma 90.000000
_cell_volume 3510.306735
_symmetry_space_group_name_H-M "C M M M"
_symmetry_group_IT_number 65
_symmetry_cell_setting 'orthorhombic'
loop_
_space_group_symop_operation_xyz
x,y,z
-x,-y,z
x,-y,-z
-x,y,-z
-x,-y,-z
x,y,-z
-x,y,z
x,-y,z
1/2+x,1/2+y,z
1/2-x,1/2-y,z
1/2+x,1/2-y,-z
1/2-x,1/2+y,-z
1/2-x,1/2-y,-z
1/2+x,1/2+y,-z
1/2-x,1/2+y,z
1/2+x,1/2-y,z
loop_
_atom_site_type_symbol
_atom_site_label
_atom_site_fract_x
_atom_site_fract_y
_atom_site_fract_z
Si Si1 0.583866 0.166100 0.123398
Si Si2 0.827858 0.319371 0.500000
Si Si3 0.082704 0.675294 0.265556
Si Si4 0.173347 0.821321 0.372539
Si Si5 0.584449 0.333065 0.000000
O O1 0.500000 0.160546 0.118007
O O2 0.603974 0.228756 0.193695
O O3 0.615890 0.261188 0.064883
O O4 0.615524 0.000000 0.115880
O O5 0.828191 0.500000 0.500000
O O6 0.750000 0.250000 0.500000
O O7 0.863702 0.254400 0.435385
O O8 0.102804 0.500000 0.275929
O O9 0.124526 0.784113 0.312585
O O10 0.000000 0.698937 0.277658
O O11 0.250000 0.750000 0.360562
O O12 0.180254 0.000000 0.381771
O O13 0.613145 0.500000 0.000000
O O14 0.500000 0.323514 0.000000
#
# Coordination Sequence:
#
# PCOD8266783 Si02
#       5
#    16   8  16  16   8
#     4   8  14  25  41  60  86 122 159 193 233 283
#     4  10  18  32  53  74  97 124 159 201 243 285
#     4   9  18  33  51  72 100 132 164 200 245 293
#     4  11  21  34  53  76 101 128 162 201 241 287
#     4   9  15  21  33  57  88 119 154 197 238 275
#
# _framework density 18.232025
#
# number of rings (size 3 to 8) (size 9 to 14) (size 15 to 20)
#    0.000    2.625    0.000    6.750    0.000    3.000 
#    0.000    3.125    0.000    3.750    0.000    0.875 
#    0.000    0.000    0.000    0.000    0.000    0.000 
#
# Total GULP energy -396547.116150 kJ/mol
# GULP energy per Si atom -12392.097380 kJ/mol
# Density = 1.819053 g / cm^3
# Si number density = 18.232025 Si / 1000 Ang^3
#
#
#
# Elastic Constant Matrix: (Units=GPa)
#
#
# Indices 1 2 3 4 5 6 
#
# 1 26.5020 27.0187 35.0009 0.0000 0.0000 0.0000
# 2 27.0187 144.1608 84.1889 0.0000 0.0000 0.0000
# 3 35.0009 84.1889 180.6781 0.0000 0.0000 0.0000
# 4 0.0000 0.0000 0.0000 35.6585 0.0000 0.0000
# 5 0.0000 0.0000 0.0000 0.0000 -27.7545 0.0000
# 6 0.0000 0.0000 0.0000 0.0000 0.0000 19.0201
#
#
#
# Elastic Compliance Matrix: (Units=1/GPa)
#
#
# Indices 1 2 3 4 5 6 
#
# 1 0.053681 -0.005479 -0.007846 0.000000 0.000000 0.000000
# 2 -0.005479 0.010089 -0.003640 0.000000 0.000000 0.000000
# 3 -0.007846 -0.003640 0.008751 0.000000 0.000000 0.000000
# 4 0.000000 0.000000 0.000000 0.028044 0.000000 0.000000
# 5 0.000000 0.000000 0.000000 0.000000 -0.036030 0.000000
# 6 0.000000 0.000000 0.000000 0.000000 0.000000 0.052576
#
#
# Mechanical properties :
#
#
# Convention : Reuss Voigt Hill
#
# Bulk Modulus (GPa) = 25.91261 71.52864 48.72063
# Shear Modulus (GPa) = 30.50572 19.06030 24.78301
#
# Velocity S-wave (km/s) = 4.09491 3.23682 3.69088
# Velocity P-wave (km/s) = 6.04990 7.29979 6.70403
#
# Compressibility (1/GPa) = 0.03859125
#
# Stress axis : x y z
#
# Youngs Moduli (GPa) = 18.62859 99.11629 114.27703
#
# Poissons Ratio (x) = 0.54304 0.89663
# Poissons Ratio (y) = 0.10206 0.41595
# Poissons Ratio (z) = 0.14616 0.36076
#
# Static dielectric constant tensor:
#      x y z
#    x 2.735410 0.000000 0.000000 
#    y 0.000000 3.430640 0.000000 
#    z 0.000000 0.000000 4.003140 
# 
# 
# High freq. dielectric constant tensor:
#      x y z
#    x 1.635440 0.000000 0.000000 
#    y 0.000000 1.710170 0.000000 
#    z 0.000000 0.000000 1.733910 
# 
# From -- ./inp_files/55309.got.cif
#   From: 2010.03.12/outbox.cif.g09.slc.cpg/sg65_28_cif.got.tgz:55309.got - 2010.04.10 20:52:16.
