data_PCOD8266640
_publ_section_title
;
Structure prediction by ZEFSAII (Michael W. Deem and Ramdas Pophale) SiO2 
 PCOD8266640
Probable space group: C M M M
;
_chemical_formula_sum "Si O2"
_cell_formula_units_Z 120
_cell_length_a 18.110815
_cell_length_b 19.513208
_cell_length_c 18.540482
_cell_angle_alpha 90.000000
_cell_angle_beta 90.000000
_cell_angle_gamma 90.000000
_cell_volume 6552.208196
_symmetry_space_group_name_H-M "C M M M"
_symmetry_group_IT_number 65
_symmetry_cell_setting 'orthorhombic'
loop_
_space_group_symop_operation_xyz
x,y,z
-x,-y,z
x,-y,-z
-x,y,-z
-x,-y,-z
x,y,-z
-x,y,z
x,-y,z
1/2+x,1/2+y,z
1/2-x,1/2-y,z
1/2+x,1/2-y,-z
1/2-x,1/2+y,-z
1/2-x,1/2-y,-z
1/2+x,1/2+y,-z
1/2-x,1/2+y,z
1/2+x,1/2-y,z
loop_
_atom_site_type_symbol
_atom_site_label
_atom_site_fract_x
_atom_site_fract_y
_atom_site_fract_z
Si Si1 0.585381 0.079138 0.301957
Si Si2 0.327445 0.667260 0.581655
Si Si3 0.713567 0.922122 0.195843
Si Si4 0.142844 0.921207 0.288962
Si Si5 0.082967 0.863750 0.844896
Si Si6 0.412234 0.500000 0.920229
Si Si7 0.218055 0.824386 0.918984
Si Si8 0.154447 0.322152 0.417708
O O1 0.500000 0.090931 0.280851
O O2 0.635095 0.097483 0.232146
O O3 0.605543 0.128569 0.368195
O O4 0.599618 0.000000 0.325108
O O5 0.352277 0.652637 0.500000
O O6 0.364007 0.609453 0.631306
O O7 0.239965 0.659561 0.589132
O O8 0.355231 0.742688 0.605524
O O9 0.774743 0.912668 0.258111
O O10 0.728640 0.873166 0.127916
O O11 0.712585 0.000000 0.167228
O O12 0.087382 0.874855 0.240716
O O13 0.116826 0.000000 0.290626
O O14 0.116472 0.934087 0.878267
O O15 0.139356 0.809733 0.878940
O O16 0.000000 0.845718 0.869072
O O17 0.500000 0.500000 0.921000
O O18 0.379013 0.500000 0.000000
O O19 0.250000 0.750000 0.924726
O O20 0.208137 0.854816 0.000000
O O21 0.127851 0.332434 0.500000
#
# Coordination Sequence:
#
# PCOD8266640 Si02
#       8
#    16  16  16  16  16   8  16  16
#     4  10  20  34  54  80 110 142 177 224 280 328
#     4   9  18  32  51  74 101 140 186 228 270 317
#     4   9  19  35  53  77 107 141 181 219 264 322
#     4  10  18  31  52  77 109 141 176 224 267 315
#     4  10  20  35  55  81 112 143 173 214 272 326
#     4   9  16  28  50  80 109 135 164 204 260 327
#     4  10  22  38  56  81 113 144 178 222 266 313
#     4   9  18  33  51  73 104 139 180 230 278 326
#
# _framework density 18.314436000000001
#
# number of rings (size 3 to 8) (size 9 to 14) (size 15 to 20)
#    0.000    2.467    2.000    1.200    0.933    4.000 
#    0.000    4.667    0.000    2.400    0.000    2.800 
#    0.000    0.000    0.000    0.000    0.000    0.000 
#
# Total GULP energy -743784.955777 kJ/mol
# GULP energy per Si atom -12396.415930 kJ/mol
# Density = 1.827275 g / cm^3
# Si number density = 18.314436 Si / 1000 Ang^3
#
#
#
# Elastic Constant Matrix: (Units=GPa)
#
#
# Indices 1 2 3 4 5 6 
#
# 1 88.5750 30.3138 34.9938 0.0000 0.0000 0.0000
# 2 30.3138 62.4653 48.8957 0.0000 0.0000 0.0000
# 3 34.9938 48.8957 118.2875 0.0000 0.0000 0.0000
# 4 0.0000 0.0000 0.0000 34.7269 0.0000 0.0000
# 5 0.0000 0.0000 0.0000 0.0000 19.5023 0.0000
# 6 0.0000 0.0000 0.0000 0.0000 0.0000 20.8462
#
#
#
# Elastic Compliance Matrix: (Units=1/GPa)
#
#
# Indices 1 2 3 4 5 6 
#
# 1 0.013835 -0.005189 -0.001948 0.000000 0.000000 0.000000
# 2 -0.005189 0.025613 -0.009052 0.000000 0.000000 0.000000
# 3 -0.001948 -0.009052 0.012772 0.000000 0.000000 0.000000
# 4 0.000000 0.000000 0.000000 0.028796 0.000000 0.000000
# 5 0.000000 0.000000 0.000000 0.000000 0.051276 0.000000
# 6 0.000000 0.000000 0.000000 0.000000 0.000000 0.047970
#
#
# Mechanical properties :
#
#
# Convention : Reuss Voigt Hill
#
# Bulk Modulus (GPa) = 50.39970 55.30383 52.85176
# Shear Modulus (GPa) = 22.80437 25.35672 24.08054
#
# Velocity S-wave (km/s) = 3.53251 3.72495 3.63001
# Velocity P-wave (km/s) = 6.64959 6.98303 6.81835
#
# Compressibility (1/GPa) = 0.01984139
#
# Stress axis : x y z
#
# Youngs Moduli (GPa) = 72.27801 39.04256 78.29548
#
# Poissons Ratio (x) = 0.20261 0.15251
# Poissons Ratio (y) = 0.37508 0.70875
# Poissons Ratio (z) = 0.14079 0.35342
#
# Static dielectric constant tensor:
#      x y z
#    x 3.211700 0.000000 0.000000 
#    y 0.000000 3.310320 0.000000 
#    z 0.000000 0.000000 3.458080 
# 
# 
# High freq. dielectric constant tensor:
#      x y z
#    x 1.692960 0.000000 0.000000 
#    y 0.000000 1.700810 0.000000 
#    z 0.000000 0.000000 1.709380 
# 
# From -- ./inp_files/54981.got.cif
#   From: 2010.03.12/outbox.cif.g09.slc.cpg/sg65_28_cif.got.tgz:54981.got - 2010.04.10 20:52:16.
