data_PCOD8266770
_publ_section_title
;
Structure prediction by ZEFSAII (Michael W. Deem and Ramdas Pophale) SiO2 
 PCOD8266770
Probable space group: C M M M
;
_chemical_formula_sum "Si O2"
_cell_formula_units_Z 88
_cell_length_a 8.620133
_cell_length_b 23.828220
_cell_length_c 23.010311
_cell_angle_alpha 90.000000
_cell_angle_beta 90.000000
_cell_angle_gamma 90.000000
_cell_volume 4726.373692
_symmetry_space_group_name_H-M "C M M M"
_symmetry_group_IT_number 65
_symmetry_cell_setting 'orthorhombic'
loop_
_space_group_symop_operation_xyz
x,y,z
-x,-y,z
x,-y,-z
-x,y,-z
-x,-y,-z
x,y,-z
-x,y,z
x,-y,z
1/2+x,1/2+y,z
1/2-x,1/2-y,z
1/2+x,1/2-y,-z
1/2-x,1/2+y,-z
1/2-x,1/2-y,-z
1/2+x,1/2+y,-z
1/2-x,1/2+y,z
1/2+x,1/2-y,z
loop_
_atom_site_type_symbol
_atom_site_label
_atom_site_fract_x
_atom_site_fract_y
_atom_site_fract_z
Si Si1 0.315299 0.312111 0.787179
Si Si2 0.316620 0.310807 0.435999
Si Si3 0.315998 0.565701 0.000000
Si Si4 0.815883 0.121717 0.327471
Si Si5 0.317206 0.500000 0.695043
Si Si6 0.817471 0.500000 0.820117
Si Si7 0.684759 0.110089 0.116783
O O1 0.500000 0.310212 0.789759
O O2 0.250000 0.250000 0.778141
O O3 0.255435 0.349890 0.732458
O O4 0.251063 0.336641 0.847976
O O5 0.268144 0.334000 0.500000
O O6 0.500000 0.307700 0.430989
O O7 0.250000 0.250000 0.425891
O O8 0.245858 0.348747 0.384666
O O9 0.253730 0.603381 0.052844
O O10 0.254786 0.500000 0.000000
O O11 0.500000 0.564893 0.000000
O O12 0.760049 0.057216 0.335375
O O13 0.000000 0.125741 0.327292
O O14 0.500000 0.500000 0.701053
O O15 0.245645 0.500000 0.757091
O O16 0.753057 0.554851 0.851216
O O17 0.000000 0.500000 0.820575
O O18 0.500000 0.115007 0.113706
#
# Coordination Sequence:
#
# PCOD8266770 Si02
#       7
#    16  16   8  16   8   8  16
#     4  11  22  37  56  80 109 143 183 226 274 325
#     4   9  17  31  50  73 102 137 179 224 268 316
#     4  11  23  37  58  87 116 147 183 220 264 320
#     4   9  18  31  51  78 106 138 177 222 269 321
#     4  10  18  32  52  75 106 142 176 214 269 328
#     4  10  20  33  53  81 112 141 175 220 271 316
#     4  11  22  38  58  83 114 145 180 224 271 319
#
# _framework density 18.618925999999998
#
# number of rings (size 3 to 8) (size 9 to 14) (size 15 to 20)
#    0.000    1.909    2.727    1.909    0.000    1.091 
#    0.000    2.727    0.000    2.727    0.000    0.000 
#    0.000    3.636    0.000    0.000    0.000    0.000 
#
# Total GULP energy -545344.106819 kJ/mol
# GULP energy per Si atom -12394.184246 kJ/mol
# Density = 1.857655 g / cm^3
# Si number density = 18.618926 Si / 1000 Ang^3
#
#
#
# Elastic Constant Matrix: (Units=GPa)
#
#
# Indices 1 2 3 4 5 6 
#
# 1 43.4870 31.3792 29.1350 0.0000 0.0000 0.0000
# 2 31.3792 136.0913 80.6006 0.0000 0.0000 0.0000
# 3 29.1350 80.6006 165.5630 0.0000 0.0000 0.0000
# 4 0.0000 0.0000 0.0000 38.9331 0.0000 0.0000
# 5 0.0000 0.0000 0.0000 0.0000 20.5769 0.0000
# 6 0.0000 0.0000 0.0000 0.0000 0.0000 25.8813
#
#
#
# Elastic Compliance Matrix: (Units=1/GPa)
#
#
# Indices 1 2 3 4 5 6 
#
# 1 0.028323 -0.005029 -0.002536 0.000000 0.000000 0.000000
# 2 -0.005029 0.011218 -0.004576 0.000000 0.000000 0.000000
# 3 -0.002536 -0.004576 0.008714 0.000000 0.000000 0.000000
# 4 0.000000 0.000000 0.000000 0.025685 0.000000 0.000000
# 5 0.000000 0.000000 0.000000 0.000000 0.048598 0.000000
# 6 0.000000 0.000000 0.000000 0.000000 0.000000 0.038638
#
#
# Mechanical properties :
#
#
# Convention : Reuss Voigt Hill
#
# Bulk Modulus (GPa) = 41.71343 69.70790 55.71067
# Shear Modulus (GPa) = 25.84665 30.68004 28.26334
#
# Velocity S-wave (km/s) = 3.72989 4.06370 3.90037
# Velocity P-wave (km/s) = 6.40327 7.71614 7.09015
#
# Compressibility (1/GPa) = 0.02397309
#
# Stress axis : x y z
#
# Youngs Moduli (GPa) = 35.30708 89.14461 114.75638
#
# Poissons Ratio (x) = 0.44827 0.29104
# Poissons Ratio (y) = 0.17754 0.52515
# Poissons Ratio (z) = 0.08954 0.40794
#
# Static dielectric constant tensor:
#      x y z
#    x 3.276930 0.000000 0.000000 
#    y 0.000000 3.583270 0.000000 
#    z 0.000000 0.000000 3.692810 
# 
# 
# High freq. dielectric constant tensor:
#      x y z
#    x 1.707250 0.000000 0.000000 
#    y 0.000000 1.721730 0.000000 
#    z 0.000000 0.000000 1.729390 
# 
# From -- ./inp_files/59901.got.cif
#   From: 2010.03.12/outbox.cif.g09.slc.cpg/sg65_30_cif.got.tgz:59901.got - 2010.04.10 20:52:16.
