data_PCOD8266350
_publ_section_title
;
Structure prediction by ZEFSAII (Michael W. Deem and Ramdas Pophale) SiO2 
 PCOD8266350
Probable space group: C M M M
;
_chemical_formula_sum "Si O2"
_cell_formula_units_Z 80
_cell_length_a 26.044911
_cell_length_b 19.357173
_cell_length_c 8.772074
_cell_angle_alpha 90.000000
_cell_angle_beta 90.000000
_cell_angle_gamma 90.000000
_cell_volume 4422.492406
_symmetry_space_group_name_H-M "C M M M"
_symmetry_group_IT_number 65
_symmetry_cell_setting 'orthorhombic'
loop_
_space_group_symop_operation_xyz
x,y,z
-x,-y,z
x,-y,-z
-x,y,-z
-x,-y,-z
x,y,-z
-x,y,z
x,-y,z
1/2+x,1/2+y,z
1/2-x,1/2-y,z
1/2+x,1/2-y,-z
1/2-x,1/2+y,-z
1/2-x,1/2-y,-z
1/2+x,1/2+y,-z
1/2-x,1/2+y,z
1/2+x,1/2-y,z
loop_
_atom_site_type_symbol
_atom_site_label
_atom_site_fract_x
_atom_site_fract_y
_atom_site_fract_z
Si Si1 0.895673 0.668021 0.679979
Si Si2 0.889170 0.175523 0.323030
Si Si3 0.193356 0.580755 0.823615
Si Si4 0.000000 0.813668 0.675882
Si Si5 0.699780 0.420876 0.320070
Si Si6 0.500000 0.831271 0.822491
O O1 0.901715 0.667958 0.500000
O O2 0.886002 0.746301 0.741355
O O3 0.848688 0.620876 0.727675
O O4 0.948128 0.636577 0.750515
O O5 0.876541 0.177419 0.500000
O O6 0.947008 0.144309 0.294567
O O7 0.846653 0.125183 0.249894
O O8 0.185096 0.500000 0.794192
O O9 0.248972 0.604055 0.764244
O O10 0.188229 0.600247 0.000000
O O11 0.000000 0.749896 0.789957
O O12 0.000000 0.786027 0.500000
O O13 0.707618 0.410990 0.500000
O O14 0.686821 0.500000 0.280338
O O15 0.500000 0.847472 0.000000
#
# Coordination Sequence:
#
# PCOD8266350 Si02
#       6
#    16  16  16   8  16   8
#     4  10  19  33  53  74  98 128 162 198 238 287
#     4   8  15  28  48  73  98 126 162 203 241 279
#     4  10  21  36  51  69  96 127 159 200 248 291
#     4   8  14  28  47  67  97 134 165 196 241 289
#     4   9  17  31  50  70  95 130 168 201 239 290
#     4  10  18  30  49  74 103 129 157 195 239 284
#
# _framework density 18.089347
#
# number of rings (size 3 to 8) (size 9 to 14) (size 15 to 20)
#    0.000    2.800    0.000    3.300    0.000    2.000 
#    0.000   10.000    0.000    6.000    0.000    0.000 
#    0.000   16.000    0.000    0.000    0.000    0.000 
#
# Total GULP energy -495738.514290 kJ/mol
# GULP energy per Si atom -12393.462857 kJ/mol
# Density = 1.804817 g / cm^3
# Si number density = 18.089347 Si / 1000 Ang^3
#
#
#
# Elastic Constant Matrix: (Units=GPa)
#
#
# Indices 1 2 3 4 5 6 
#
# 1 172.8206 63.7967 40.6703 0.0000 0.0000 0.0000
# 2 63.7967 50.9306 22.6571 0.0000 0.0000 0.0000
# 3 40.6703 22.6571 61.0394 0.0000 0.0000 0.0000
# 4 0.0000 0.0000 0.0000 15.7372 0.0000 0.0000
# 5 0.0000 0.0000 0.0000 0.0000 11.2004 0.0000
# 6 0.0000 0.0000 0.0000 0.0000 0.0000 7.8125
#
#
#
# Elastic Compliance Matrix: (Units=1/GPa)
#
#
# Indices 1 2 3 4 5 6 
#
# 1 0.011118 -0.012734 -0.002681 0.000000 0.000000 0.000000
# 2 -0.012734 0.038103 -0.005659 0.000000 0.000000 0.000000
# 3 -0.002681 -0.005659 0.020270 0.000000 0.000000 0.000000
# 4 0.000000 0.000000 0.000000 0.063544 0.000000 0.000000
# 5 0.000000 0.000000 0.000000 0.000000 0.089283 0.000000
# 6 0.000000 0.000000 0.000000 0.000000 0.000000 0.127999
#
#
# Mechanical properties :
#
#
# Convention : Reuss Voigt Hill
#
# Bulk Modulus (GPa) = 36.57268 59.89320 48.23294
# Shear Modulus (GPa) = 12.45086 17.46111 14.95599
#
# Velocity S-wave (km/s) = 2.62639 3.11025 2.87850
# Velocity P-wave (km/s) = 5.42761 6.78821 6.14568
#
# Compressibility (1/GPa) = 0.02734282
#
# Stress axis : x y z
#
# Youngs Moduli (GPa) = 89.94388 26.24486 49.33442
#
# Poissons Ratio (x) = 0.33420 0.13228
# Poissons Ratio (y) = 1.14534 0.27917
# Poissons Ratio (z) = 0.24116 0.14851
#
# Static dielectric constant tensor:
#      x y z
#    x 3.737730 0.000000 0.000000 
#    y 0.000000 3.189840 0.000000 
#    z 0.000000 0.000000 3.132840 
# 
# 
# High freq. dielectric constant tensor:
#      x y z
#    x 1.723610 0.000000 0.000000 
#    y 0.000000 1.665480 0.000000 
#    z 0.000000 0.000000 1.683170 
# 
# From -- ./inp_files/11574.got.cif
#   From: 2010.03.12/outbox.cif.g09.slc.cpg/sg65_6_cif.got.tgz:11574.got - 2010.04.10 20:52:16.
