data_PCOD8266050
_publ_section_title
;
Structure prediction by ZEFSAII (Michael W. Deem and Ramdas Pophale) SiO2 
 PCOD8266050
Probable space group: C M M M
;
_chemical_formula_sum "Si O2"
_cell_formula_units_Z 88
_cell_length_a 23.310529
_cell_length_b 16.652984
_cell_length_c 13.776820
_cell_angle_alpha 90.000000
_cell_angle_beta 90.000000
_cell_angle_gamma 90.000000
_cell_volume 5348.021916
_symmetry_space_group_name_H-M "C M M M"
_symmetry_group_IT_number 65
_symmetry_cell_setting 'orthorhombic'
loop_
_space_group_symop_operation_xyz
x,y,z
-x,-y,z
x,-y,-z
-x,y,-z
-x,-y,-z
x,y,-z
-x,y,z
x,-y,z
1/2+x,1/2+y,z
1/2-x,1/2-y,z
1/2+x,1/2-y,-z
1/2-x,1/2+y,-z
1/2-x,1/2-y,-z
1/2+x,1/2+y,-z
1/2-x,1/2+y,z
1/2+x,1/2-y,z
loop_
_atom_site_type_symbol
_atom_site_label
_atom_site_fract_x
_atom_site_fract_y
_atom_site_fract_z
Si Si1 0.935638 0.093932 0.275431
Si Si2 0.171869 0.094646 0.606154
Si Si3 0.648426 0.138274 0.887274
Si Si4 0.063746 0.500000 0.885438
Si Si5 0.232968 0.905448 0.202831
Si Si6 0.372614 0.677634 0.889321
O O1 0.891148 0.123160 0.357847
O O2 0.922370 0.138830 0.175121
O O3 0.000000 0.114364 0.310039
O O4 0.927625 0.000000 0.254868
O O5 0.184652 0.133611 0.500000
O O6 0.219580 0.120037 0.685468
O O7 0.171686 0.000000 0.594910
O O8 0.597830 0.079369 0.852037
O O9 0.703120 0.120617 0.820992
O O10 0.627746 0.227839 0.868433
O O11 0.664490 0.123097 0.000000
O O12 0.000000 0.500000 0.838162
O O13 0.057523 0.500000 0.000000
O O14 0.189695 0.859398 0.132005
O O15 0.223846 0.000000 0.187436
O O16 0.388662 0.659988 0.000000
#
# Coordination Sequence:
#
# PCOD8266050 Si02
#       6
#    16  16  16   8  16  16
#     4   9  18  31  46  66  92 124 160 193 227 272
#     4   8  15  28  46  69  94 118 149 191 233 275
#     4  10  19  31  47  67  93 124 157 194 234 279
#     4   9  18  32  48  66  89 119 158 201 237 269
#     4  10  18  29  47  69  95 124 154 192 235 283
#     4  10  20  30  43  65  94 128 159 191 232 277
#
# _framework density 16.454681999999998
#
# number of rings (size 3 to 8) (size 9 to 14) (size 15 to 20)
#    0.000    2.636    0.909    2.727    0.000    5.091 
#    0.000    4.545    0.000    8.727    0.000    0.000 
#    0.000    1.455    0.000    0.000    0.000    0.727 
#
# Total GULP energy -545473.100200 kJ/mol
# GULP energy per Si atom -12397.115914 kJ/mol
# Density = 1.641723 g / cm^3
# Si number density = 16.454682 Si / 1000 Ang^3
#
#
#
# Elastic Constant Matrix: (Units=GPa)
#
#
# Indices 1 2 3 4 5 6 
#
# 1 100.6769 14.2857 43.6604 0.0000 0.0000 0.0000
# 2 14.2857 54.7927 30.8176 0.0000 0.0000 0.0000
# 3 43.6604 30.8176 95.8285 0.0000 0.0000 0.0000
# 4 0.0000 0.0000 0.0000 9.3865 0.0000 0.0000
# 5 0.0000 0.0000 0.0000 0.0000 16.0445 0.0000
# 6 0.0000 0.0000 0.0000 0.0000 0.0000 19.1781
#
#
#
# Elastic Compliance Matrix: (Units=1/GPa)
#
#
# Indices 1 2 3 4 5 6 
#
# 1 0.012379 -0.000068 -0.005618 0.000000 0.000000 0.000000
# 2 -0.000068 0.022281 -0.007135 0.000000 0.000000 0.000000
# 3 -0.005618 -0.007135 0.015289 0.000000 0.000000 0.000000
# 4 0.000000 0.000000 0.000000 0.106535 0.000000 0.000000
# 5 0.000000 0.000000 0.000000 0.000000 0.062327 0.000000
# 6 0.000000 0.000000 0.000000 0.000000 0.000000 0.052143
#
#
# Mechanical properties :
#
#
# Convention : Reuss Voigt Hill
#
# Bulk Modulus (GPa) = 41.13776 47.64729 44.39253
# Shear Modulus (GPa) = 16.40972 19.75746 18.08359
#
# Velocity S-wave (km/s) = 3.16138 3.46890 3.31870
# Velocity P-wave (km/s) = 6.19521 6.71296 6.45928
#
# Compressibility (1/GPa) = 0.02430857
#
# Stress axis : x y z
#
# Youngs Moduli (GPa) = 80.78339 44.88129 65.40470
#
# Poissons Ratio (x) = 0.00303 0.36745
# Poissons Ratio (y) = 0.00546 0.46664
# Poissons Ratio (z) = 0.45386 0.32021
#
# Static dielectric constant tensor:
#      x y z
#    x 3.167470 0.000000 0.000000 
#    y 0.000000 3.038450 0.000000 
#    z 0.000000 0.000000 3.221060 
# 
# 
# High freq. dielectric constant tensor:
#      x y z
#    x 1.630700 0.000000 0.000000 
#    y 0.000000 1.621810 0.000000 
#    z 0.000000 0.000000 1.613770 
# 
# From -- ./inp_files/45547.got.cif
#   From: 2010.03.12/outbox.cif.g09.slc.cpg/sg65_23_cif.got.tgz:45547.got - 2010.04.10 20:52:16.
