data_PCOD8266684
_publ_section_title
;
Structure prediction by ZEFSAII (Michael W. Deem and Ramdas Pophale) SiO2 
 PCOD8266684
Probable space group: C M M M
;
_chemical_formula_sum "Si O2"
_cell_formula_units_Z 88
_cell_length_a 8.929758
_cell_length_b 25.677766
_cell_length_c 20.865991
_cell_angle_alpha 90.000000
_cell_angle_beta 90.000000
_cell_angle_gamma 90.000000
_cell_volume 4784.493204
_symmetry_space_group_name_H-M "C M M M"
_symmetry_group_IT_number 65
_symmetry_cell_setting 'orthorhombic'
loop_
_space_group_symop_operation_xyz
x,y,z
-x,-y,z
x,-y,-z
-x,y,-z
-x,-y,-z
x,y,-z
-x,y,z
x,-y,z
1/2+x,1/2+y,z
1/2-x,1/2-y,z
1/2+x,1/2-y,-z
1/2-x,1/2+y,-z
1/2-x,1/2-y,-z
1/2+x,1/2+y,-z
1/2-x,1/2+y,z
1/2+x,1/2-y,z
loop_
_atom_site_type_symbol
_atom_site_label
_atom_site_fract_x
_atom_site_fract_y
_atom_site_fract_z
Si Si1 0.822015 0.000000 0.141635
Si Si2 0.175565 0.696376 0.150187
Si Si3 0.173926 0.895400 0.075204
Si Si4 0.323661 0.195984 0.703149
Si Si5 0.177620 0.099771 0.635678
Si Si6 0.177074 0.941843 0.500000
Si Si7 0.177807 0.000000 0.714274
O O1 0.763461 0.948944 0.105099
O O2 0.757623 0.000000 0.213755
O O3 0.000000 0.000000 0.141744
O O4 0.250000 0.750000 0.127730
O O5 0.232757 0.651364 0.104392
O O6 0.219719 0.683238 0.223390
O O7 0.000000 0.702698 0.141837
O O8 0.000000 0.887300 0.092163
O O9 0.201486 0.897520 0.000000
O O10 0.500000 0.200412 0.693751
O O11 0.250000 0.250000 0.681372
O O12 0.259452 0.151441 0.658104
O O13 0.228512 0.089561 0.562725
O O14 0.235523 0.051434 0.678258
O O15 0.000000 0.107082 0.642153
O O16 0.000000 0.947992 0.500000
O O17 0.247413 0.000000 0.500000
O O18 0.000000 0.000000 0.714118
#
# Coordination Sequence:
#
# PCOD8266684 Si02
#       7
#     8  16  16  16  16   8   8
#     4   9  17  30  49  76 107 138 175 216 258 306
#     4  10  21  37  57  79 104 135 173 221 272 320
#     4  10  20  34  53  77 107 142 178 217 261 313
#     4  10  21  37  56  79 106 137 176 222 270 318
#     4  10  18  31  54  82 111 144 179 216 260 310
#     4   9  16  30  52  81 116 147 180 218 255 306
#     4   9  16  26  49  81 107 136 175 216 258 309
#
# _framework density 18.392752999999999
#
# number of rings (size 3 to 8) (size 9 to 14) (size 15 to 20)
#    0.000    2.273    0.909    2.455    0.000    5.455 
#    0.000    1.818    0.000    4.909    0.000    0.000 
#    0.000    0.000    0.000    0.000    0.000    0.000 
#
# Total GULP energy -545706.166038 kJ/mol
# GULP energy per Si atom -12402.412865 kJ/mol
# Density = 1.835089 g / cm^3
# Si number density = 18.392753 Si / 1000 Ang^3
#
#
#
# Elastic Constant Matrix: (Units=GPa)
#
#
# Indices 1 2 3 4 5 6 
#
# 1 49.9184 46.8129 39.2448 0.0000 0.0000 0.0000
# 2 46.8129 161.2188 86.3543 0.0000 0.0000 0.0000
# 3 39.2448 86.3543 127.6105 0.0000 0.0000 0.0000
# 4 0.0000 0.0000 0.0000 10.3424 0.0000 0.0000
# 5 0.0000 0.0000 0.0000 0.0000 21.5864 0.0000
# 6 0.0000 0.0000 0.0000 0.0000 0.0000 29.9164
#
#
#
# Elastic Compliance Matrix: (Units=1/GPa)
#
#
# Indices 1 2 3 4 5 6 
#
# 1 0.029536 -0.005821 -0.005144 0.000000 0.000000 0.000000
# 2 -0.005821 0.010876 -0.005570 0.000000 0.000000 0.000000
# 3 -0.005144 -0.005570 0.013188 0.000000 0.000000 0.000000
# 4 0.000000 0.000000 0.000000 0.096689 0.000000 0.000000
# 5 0.000000 0.000000 0.000000 0.000000 0.046326 0.000000
# 6 0.000000 0.000000 0.000000 0.000000 0.000000 0.033427
#
#
# Mechanical properties :
#
#
# Convention : Reuss Voigt Hill
#
# Bulk Modulus (GPa) = 48.71030 75.95242 62.33136
# Shear Modulus (GPa) = 18.52166 23.45808 20.98987
#
# Velocity S-wave (km/s) = 3.17678 3.57515 3.38183
# Velocity P-wave (km/s) = 6.32431 7.64373 7.01511
#
# Compressibility (1/GPa) = 0.02052954
#
# Stress axis : x y z
#
# Youngs Moduli (GPa) = 33.85727 91.94231 75.82852
#
# Poissons Ratio (x) = 0.53517 0.39009
# Poissons Ratio (y) = 0.19707 0.42236
# Poissons Ratio (z) = 0.17418 0.51212
#
# Static dielectric constant tensor:
#      x y z
#    x 3.077260 0.000000 0.000000 
#    y 0.000000 3.490620 0.000000 
#    z 0.000000 0.000000 3.539860 
# 
# 
# High freq. dielectric constant tensor:
#      x y z
#    x 1.683640 0.000000 0.000000 
#    y 0.000000 1.724800 0.000000 
#    z 0.000000 0.000000 1.717790 
# 
# From -- ./inp_files/59872.got.cif
#   From: 2010.03.12/outbox.cif.g09.slc.cpg/sg65_30_cif.got.tgz:59872.got - 2010.04.10 20:52:16.
