data_PCOD8266318
_publ_section_title
;
Structure prediction by ZEFSAII (Michael W. Deem and Ramdas Pophale) SiO2 
 PCOD8266318
Probable space group: C M M M
;
_chemical_formula_sum "Si O2"
_cell_formula_units_Z 112
_cell_length_a 28.448890
_cell_length_b 14.934194
_cell_length_c 14.415832
_cell_angle_alpha 90.000000
_cell_angle_beta 90.000000
_cell_angle_gamma 90.000000
_cell_volume 6124.728293
_symmetry_space_group_name_H-M "C M M M"
_symmetry_group_IT_number 65
_symmetry_cell_setting 'orthorhombic'
loop_
_space_group_symop_operation_xyz
x,y,z
-x,-y,z
x,-y,-z
-x,y,-z
-x,-y,-z
x,y,-z
-x,y,z
x,-y,z
1/2+x,1/2+y,z
1/2-x,1/2-y,z
1/2+x,1/2-y,-z
1/2-x,1/2+y,-z
1/2-x,1/2-y,-z
1/2+x,1/2+y,-z
1/2-x,1/2+y,z
1/2+x,1/2-y,z
loop_
_atom_site_type_symbol
_atom_site_label
_atom_site_fract_x
_atom_site_fract_y
_atom_site_fract_z
Si Si1 0.872948 0.395508 0.891717
Si Si2 0.317165 0.600219 0.786422
Si Si3 0.552677 0.769949 0.205771
Si Si4 0.406757 0.604791 0.892014
Si Si5 0.268441 0.150046 0.103396
Si Si6 0.647317 0.396204 0.400428
Si Si7 0.447667 0.307219 0.396746
O O1 0.875961 0.500000 0.866503
O O2 0.911844 0.342147 0.835383
O O3 0.821846 0.357547 0.862139
O O4 0.881775 0.378829 0.000000
O O5 0.333267 0.500000 0.765837
O O6 0.353693 0.635760 0.863815
O O7 0.264179 0.598997 0.823472
O O8 0.323762 0.649044 0.685825
O O9 0.500000 0.801820 0.181445
O O10 0.558554 0.669475 0.164443
O O11 0.560043 0.767708 0.317192
O O12 0.417543 0.500000 0.870801
O O13 0.412476 0.625131 0.000000
O O14 0.250000 0.250000 0.102765
O O15 0.264119 0.107638 0.000000
O O16 0.661916 0.351600 0.500000
O O17 0.658466 0.500000 0.407833
O O18 0.591516 0.383740 0.383153
O O19 0.442948 0.263534 0.500000
O O20 0.500000 0.349592 0.384922
#
# Coordination Sequence:
#
# PCOD8266318 Si02
#       7
#    16  16  16  16  16  16  16
#     4  10  22  39  57  80 110 143 184 232 275 316
#     4  10  18  30  49  72 100 137 172 206 254 311
#     4  11  22  36  56  78 104 142 183 225 278 335
#     4  10  20  32  47  73 110 147 182 219 261 319
#     4  10  20  33  53  79 106 136 171 215 265 318
#     4   9  17  29  47  73 105 141 179 218 262 316
#     4   9  18  32  51  75 102 135 178 229 277 320
#
# _framework density 18.286525000000001
#
# number of rings (size 3 to 8) (size 9 to 14) (size 15 to 20)
#    0.000    2.143    1.429    2.143    0.000    4.571 
#    0.000    4.286    0.000    1.714    0.000    2.000 
#    0.000    0.000    0.000    0.000    0.000    0.000 
#
# Total GULP energy -693832.847580 kJ/mol
# GULP energy per Si atom -12389.872278 kJ/mol
# Density = 1.824490 g / cm^3
# Si number density = 18.286525 Si / 1000 Ang^3
#
#
#
# Elastic Constant Matrix: (Units=GPa)
#
#
# Indices 1 2 3 4 5 6 
#
# 1 124.7344 33.1445 67.6039 0.0000 0.0000 0.0000
# 2 33.1445 59.8135 32.1181 0.0000 0.0000 0.0000
# 3 67.6039 32.1181 133.5799 0.0000 0.0000 0.0000
# 4 0.0000 0.0000 0.0000 13.9685 0.0000 0.0000
# 5 0.0000 0.0000 0.0000 0.0000 25.0899 0.0000
# 6 0.0000 0.0000 0.0000 0.0000 0.0000 26.2462
#
#
#
# Elastic Compliance Matrix: (Units=1/GPa)
#
#
# Indices 1 2 3 4 5 6 
#
# 1 0.011759 -0.003813 -0.005034 0.000000 0.000000 0.000000
# 2 -0.003813 0.020433 -0.002983 0.000000 0.000000 0.000000
# 3 -0.005034 -0.002983 0.010751 0.000000 0.000000 0.000000
# 4 0.000000 0.000000 0.000000 0.071590 0.000000 0.000000
# 5 0.000000 0.000000 0.000000 0.000000 0.039857 0.000000
# 6 0.000000 0.000000 0.000000 0.000000 0.000000 0.038101
#
#
# Mechanical properties :
#
#
# Convention : Reuss Voigt Hill
#
# Bulk Modulus (GPa) = 51.86018 64.87344 58.36681
# Shear Modulus (GPa) = 22.46396 25.41166 23.93781
#
# Velocity S-wave (km/s) = 3.50872 3.73183 3.62199
# Velocity P-wave (km/s) = 6.69598 7.35676 7.03413
#
# Compressibility (1/GPa) = 0.01928262
#
# Stress axis : x y z
#
# Youngs Moduli (GPa) = 85.04421 48.93966 93.01187
#
# Poissons Ratio (x) = 0.18659 0.46825
# Poissons Ratio (y) = 0.32424 0.27750
# Poissons Ratio (z) = 0.42813 0.14601
#
# Static dielectric constant tensor:
#      x y z
#    x 3.314280 0.000000 0.000000 
#    y 0.000000 3.064230 0.000000 
#    z 0.000000 0.000000 3.814410 
# 
# 
# High freq. dielectric constant tensor:
#      x y z
#    x 1.704210 0.000000 0.000000 
#    y 0.000000 1.667690 0.000000 
#    z 0.000000 0.000000 1.720370 
# 
# From -- ./inp_files/41062.got.cif
#   From: 2010.03.12/outbox.cif.g09.slc.cpg/sg65_21_cif.got.tgz:41062.got - 2010.04.10 20:52:16.
