data_PCOD8266713
_publ_section_title
;
Structure prediction by ZEFSAII (Michael W. Deem and Ramdas Pophale) SiO2 
 PCOD8266713
Probable space group: C M M M
;
_chemical_formula_sum "Si O2"
_cell_formula_units_Z 80
_cell_length_a 8.084963
_cell_length_b 28.265829
_cell_length_c 19.333767
_cell_angle_alpha 90.000000
_cell_angle_beta 90.000000
_cell_angle_gamma 90.000000
_cell_volume 4418.310617
_symmetry_space_group_name_H-M "C M M M"
_symmetry_group_IT_number 65
_symmetry_cell_setting 'orthorhombic'
loop_
_space_group_symop_operation_xyz
x,y,z
-x,-y,z
x,-y,-z
-x,y,-z
-x,-y,-z
x,y,-z
-x,y,z
x,-y,z
1/2+x,1/2+y,z
1/2-x,1/2-y,z
1/2+x,1/2-y,-z
1/2-x,1/2+y,-z
1/2-x,1/2-y,-z
1/2+x,1/2+y,-z
1/2-x,1/2+y,z
1/2+x,1/2-y,z
loop_
_atom_site_type_symbol
_atom_site_label
_atom_site_fract_x
_atom_site_fract_y
_atom_site_fract_z
Si Si1 0.000000 0.556158 0.577430
Si Si2 0.814541 0.944978 0.665166
Si Si3 0.808601 0.196353 0.853859
Si Si4 0.691545 0.555302 0.077581
Si Si5 0.195545 0.303771 0.000000
Si Si6 0.815053 0.606838 0.208052
O O1 0.169680 0.573826 0.614227
O O2 0.000000 0.500000 0.574804
O O3 0.000000 0.577277 0.500000
O O4 0.807838 0.917006 0.737311
O O5 0.000000 0.937133 0.633569
O O6 0.785308 0.000000 0.681557
O O7 0.750000 0.250000 0.845604
O O8 0.719869 0.163010 0.797719
O O9 0.000000 0.193984 0.839117
O O10 0.769797 0.174167 0.929861
O O11 0.500000 0.567074 0.089909
O O12 0.725351 0.500000 0.087226
O O13 0.798457 0.583482 0.132885
O O14 0.744929 0.570946 0.000000
O O15 0.250000 0.250000 0.000000
O O16 0.000000 0.308512 0.000000
O O17 0.000000 0.599052 0.235479
#
# Coordination Sequence:
#
# PCOD8266713 Si02
#       6
#     8  16  16  16   8  16
#     4   9  18  34  56  84 117 149 181 217 256 310
#     4  10  20  35  55  81 114 151 185 219 264 316
#     4  11  22  37  53  71  96 130 171 225 279 332
#     4   9  19  35  51  68  94 130 176 227 273 316
#     4  10  18  32  50  68  89 118 161 212 274 328
#     4  12  23  34  51  74 103 140 178 224 269 326
#
# _framework density 18.106469000000001
#
# number of rings (size 3 to 8) (size 9 to 14) (size 15 to 20)
#    0.000    1.700    1.000    6.900    1.400    3.600 
#    0.000    3.000    0.000    0.000    0.000    0.000 
#    0.000    0.800    0.400    0.000    0.000    0.000 
#
# Total GULP energy -495944.947984 kJ/mol
# GULP energy per Si atom -12398.623700 kJ/mol
# Density = 1.806526 g / cm^3
# Si number density = 18.106469 Si / 1000 Ang^3
#
#
#
# Elastic Constant Matrix: (Units=GPa)
#
#
# Indices 1 2 3 4 5 6 
#
# 1 118.1832 23.5387 36.3184 0.0000 0.0000 0.0000
# 2 23.5387 49.1604 34.4491 0.0000 0.0000 0.0000
# 3 36.3184 34.4491 89.0885 0.0000 0.0000 0.0000
# 4 0.0000 0.0000 0.0000 11.3042 0.0000 0.0000
# 5 0.0000 0.0000 0.0000 0.0000 23.0561 0.0000
# 6 0.0000 0.0000 0.0000 0.0000 0.0000 23.5443
#
#
#
# Elastic Compliance Matrix: (Units=1/GPa)
#
#
# Indices 1 2 3 4 5 6 
#
# 1 0.009915 -0.002627 -0.003026 0.000000 0.000000 0.000000
# 2 -0.002627 0.028598 -0.009988 0.000000 0.000000 0.000000
# 3 -0.003026 -0.009988 0.016321 0.000000 0.000000 0.000000
# 4 0.000000 0.000000 0.000000 0.088463 0.000000 0.000000
# 5 0.000000 0.000000 0.000000 0.000000 0.043372 0.000000
# 6 0.000000 0.000000 0.000000 0.000000 0.000000 0.042473
#
#
# Mechanical properties :
#
#
# Convention : Reuss Voigt Hill
#
# Bulk Modulus (GPa) = 42.45872 49.44938 45.95405
# Shear Modulus (GPa) = 18.63773 22.38931 20.51352
#
# Velocity S-wave (km/s) = 3.21181 3.52026 3.36957
# Velocity P-wave (km/s) = 6.10366 6.62515 6.36974
#
# Compressibility (1/GPa) = 0.02355229
#
# Stress axis : x y z
#
# Youngs Moduli (GPa) = 100.86190 34.96735 61.27262
#
# Poissons Ratio (x) = 0.09185 0.18542
# Poissons Ratio (y) = 0.26493 0.61197
# Poissons Ratio (z) = 0.30522 0.34924
#
# Static dielectric constant tensor:
#      x y z
#    x 3.456080 0.000000 0.000000 
#    y 0.000000 2.883710 0.000000 
#    z 0.000000 0.000000 3.150710 
# 
# 
# High freq. dielectric constant tensor:
#      x y z
#    x 1.718150 0.000000 0.000000 
#    y 0.000000 1.682940 0.000000 
#    z 0.000000 0.000000 1.664610 
# 
# From -- ./inp_files/60555.got.cif
#   From: 2010.03.12/outbox.cif.g09.slc.cpg/sg65_31_cif.got.tgz:60555.got - 2010.04.10 20:52:16.
