data_PCOD8266038
_publ_section_title
;
Structure prediction by ZEFSAII (Michael W. Deem and Ramdas Pophale) SiO2 
 PCOD8266038
Probable space group: C M M M
;
_chemical_formula_sum "Si O2"
_cell_formula_units_Z 80
_cell_length_a 23.719565
_cell_length_b 25.773653
_cell_length_c 8.867550
_cell_angle_alpha 90.000000
_cell_angle_beta 90.000000
_cell_angle_gamma 90.000000
_cell_volume 5421.086577
_symmetry_space_group_name_H-M "C M M M"
_symmetry_group_IT_number 65
_symmetry_cell_setting 'orthorhombic'
loop_
_space_group_symop_operation_xyz
x,y,z
-x,-y,z
x,-y,-z
-x,y,-z
-x,-y,-z
x,y,-z
-x,y,z
x,-y,z
1/2+x,1/2+y,z
1/2-x,1/2-y,z
1/2+x,1/2-y,-z
1/2-x,1/2+y,-z
1/2-x,1/2-y,-z
1/2+x,1/2+y,-z
1/2-x,1/2+y,z
1/2+x,1/2-y,z
loop_
_atom_site_type_symbol
_atom_site_label
_atom_site_fract_x
_atom_site_fract_y
_atom_site_fract_z
Si Si1 0.378302 0.762030 0.824607
Si Si2 0.887776 0.560089 0.173334
Si Si3 0.500000 0.210149 0.827420
Si Si4 0.000000 0.600563 0.322022
Si Si5 0.718873 0.304856 0.167248
Si Si6 0.184124 0.643745 0.676934
O O1 0.444936 0.754533 0.795670
O O2 0.345295 0.708748 0.779121
O O3 0.357482 0.810380 0.726591
O O4 0.365098 0.774557 0.000000
O O5 0.872898 0.500000 0.190242
O O6 0.835385 0.590999 0.243851
O O7 0.945310 0.572233 0.258831
O O8 0.895527 0.576552 0.000000
O O9 0.500000 0.160819 0.719932
O O10 0.500000 0.190177 0.000000
O O11 0.000000 0.595142 0.500000
O O12 0.750000 0.250000 0.166797
O O13 0.750832 0.344282 0.278420
O O14 0.719045 0.329543 0.000000
O O15 0.180111 0.636380 0.500000
#
# Coordination Sequence:
#
# PCOD8266038 Si02
#       6
#    16  16   8   8  16  16
#     4   9  17  29  45  63  84 113 146 176 208 255
#     4  11  23  37  50  61  78 111 150 184 221 264
#     4  10  18  29  47  64  86 119 149 177 212 253
#     4  12  23  33  46  65  86 110 142 185 229 257
#     4   8  15  28  44  61  82 109 141 173 208 255
#     4  11  20  29  44  64  85 107 137 181 225 259
#
# _framework density 14.757187999999999
#
# number of rings (size 3 to 8) (size 9 to 14) (size 15 to 20)
#    0.000    2.000    2.000    4.800    0.000    6.400 
#    0.000    0.000    0.000    0.000    0.000    0.000 
#    0.000    0.000    0.000    0.900    0.000   20.600 
#
# Total GULP energy -495863.601779 kJ/mol
# GULP energy per Si atom -12396.590044 kJ/mol
# Density = 1.472360 g / cm^3
# Si number density = 14.757188 Si / 1000 Ang^3
#
#
#
# Elastic Constant Matrix: (Units=GPa)
#
#
# Indices 1 2 3 4 5 6 
#
# 1 110.0315 52.1409 45.6587 0.0000 0.0000 0.0000
# 2 52.1409 55.9025 40.6074 0.0000 0.0000 0.0000
# 3 45.6587 40.6074 106.1889 0.0000 0.0000 0.0000
# 4 0.0000 0.0000 0.0000 2.1924 0.0000 0.0000
# 5 0.0000 0.0000 0.0000 0.0000 10.9527 0.0000
# 6 0.0000 0.0000 0.0000 0.0000 0.0000 15.7325
#
#
#
# Elastic Compliance Matrix: (Units=1/GPa)
#
#
# Indices 1 2 3 4 5 6 
#
# 1 0.016499 -0.014173 -0.001675 0.000000 0.000000 0.000000
# 2 -0.014173 0.036943 -0.008033 0.000000 0.000000 0.000000
# 3 -0.001675 -0.008033 0.013209 0.000000 0.000000 0.000000
# 4 0.000000 0.000000 0.000000 0.456126 0.000000 0.000000
# 5 0.000000 0.000000 0.000000 0.000000 0.091302 0.000000
# 6 0.000000 0.000000 0.000000 0.000000 0.000000 0.063563
#
#
# Mechanical properties :
#
#
# Convention : Reuss Voigt Hill
#
# Bulk Modulus (GPa) = 52.93767 60.99301 56.96534
# Shear Modulus (GPa) = 6.83342 14.68991 10.76166
#
# Velocity S-wave (km/s) = 2.15421 3.15848 2.70339
# Velocity P-wave (km/s) = 6.49137 7.39744 6.95917
#
# Compressibility (1/GPa) = 0.01889014
#
# Stress axis : x y z
#
# Youngs Moduli (GPa) = 60.60911 27.06909 75.70503
#
# Poissons Ratio (x) = 0.38364 0.12677
# Poissons Ratio (y) = 0.85899 0.60816
# Poissons Ratio (z) = 0.10149 0.21745
#
# Static dielectric constant tensor:
#      x y z
#    x 3.253600 0.000000 0.000000 
#    y 0.000000 2.653750 0.000000 
#    z 0.000000 0.000000 2.908030 
# 
# 
# High freq. dielectric constant tensor:
#      x y z
#    x 1.562380 0.000000 0.000000 
#    y 0.000000 1.517030 0.000000 
#    z 0.000000 0.000000 1.571490 
# 
# From -- ./inp_files/14224.got.cif
#   From: 2010.03.12/outbox.cif.g09.slc.cpg/sg65_8_cif.got.tgz:14224.got - 2010.04.10 20:52:16.
