data_PCOD8266314
_publ_section_title
;
Structure prediction by ZEFSAII (Michael W. Deem and Ramdas Pophale) SiO2 
 PCOD8266314
Probable space group: C M M M
;
_chemical_formula_sum "Si O2"
_cell_formula_units_Z 88
_cell_length_a 23.892577
_cell_length_b 14.453408
_cell_length_c 16.132564
_cell_angle_alpha 90.000000
_cell_angle_beta 90.000000
_cell_angle_gamma 90.000000
_cell_volume 5571.044832
_symmetry_space_group_name_H-M "C M M M"
_symmetry_group_IT_number 65
_symmetry_cell_setting 'orthorhombic'
loop_
_space_group_symop_operation_xyz
x,y,z
-x,-y,z
x,-y,-z
-x,y,-z
-x,-y,-z
x,y,-z
-x,y,z
x,-y,z
1/2+x,1/2+y,z
1/2-x,1/2-y,z
1/2+x,1/2-y,-z
1/2-x,1/2+y,-z
1/2-x,1/2-y,-z
1/2+x,1/2+y,-z
1/2-x,1/2+y,z
1/2+x,1/2-y,z
loop_
_atom_site_type_symbol
_atom_site_label
_atom_site_fract_x
_atom_site_fract_y
_atom_site_fract_z
Si Si1 0.000000 0.105379 0.253508
Si Si2 0.000000 0.208249 0.408764
Si Si3 0.271631 0.500000 0.404747
Si Si4 0.302409 0.317540 0.699129
Si Si5 0.614640 0.195502 0.403837
Si Si6 0.359701 0.000000 0.591900
Si Si7 0.564405 0.609202 0.000000
Si Si8 0.387578 0.389925 0.826640
O O1 0.000000 0.117680 0.352009
O O2 0.943088 0.149690 0.218748
O O3 0.000000 0.000000 0.226007
O O4 0.948270 0.273839 0.391194
O O5 0.000000 0.165954 0.500000
O O6 0.297044 0.500000 0.500000
O O7 0.288368 0.590186 0.352172
O O8 0.206210 0.500000 0.413328
O O9 0.250000 0.250000 0.718034
O O10 0.344912 0.265115 0.640983
O O11 0.332424 0.342605 0.786800
O O12 0.633016 0.192618 0.500000
O O13 0.619700 0.093328 0.362632
O O14 0.386332 0.000000 0.500000
O O15 0.602213 0.640300 0.078232
O O16 0.557148 0.500000 0.000000
O O17 0.500000 0.650022 0.000000
O O18 0.381177 0.500000 0.816386
#
# Coordination Sequence:
#
# PCOD8266314 Si02
#       8
#     8   8   8  16  16   8   8  16
#     4  10  18  30  49  71 101 134 162 198 249 304
#     4  10  20  32  45  67  99 134 168 207 256 303
#     4  11  22  34  49  70  99 139 186 220 246 285
#     4  12  22  33  50  73 102 138 172 208 253 299
#     4  10  20  33  49  68  95 130 170 214 255 295
#     4   9  18  33  50  67  88 124 175 225 251 275
#     4   9  16  30  55  82 100 125 160 198 250 313
#     4  10  19  33  52  77 103 127 160 206 255 303
#
# _framework density 15.795959999999999
#
# number of rings (size 3 to 8) (size 9 to 14) (size 15 to 20)
#    0.000    1.727    5.455    0.545    0.000    1.273 
#    0.000    2.273    0.000    0.000    0.000    0.000 
#    0.000    0.000    0.000    5.273    0.000    0.000 
#
# Total GULP energy -545174.504729 kJ/mol
# GULP energy per Si atom -12390.329653 kJ/mol
# Density = 1.576001 g / cm^3
# Si number density = 15.795960 Si / 1000 Ang^3
#
#
#
# Elastic Constant Matrix: (Units=GPa)
#
#
# Indices 1 2 3 4 5 6 
#
# 1 101.7003 31.7425 51.6192 0.0000 0.0000 0.0000
# 2 31.7425 64.2004 37.0184 0.0000 0.0000 0.0000
# 3 51.6192 37.0184 108.1720 0.0000 0.0000 0.0000
# 4 0.0000 0.0000 0.0000 31.9910 0.0000 0.0000
# 5 0.0000 0.0000 0.0000 0.0000 27.9501 0.0000
# 6 0.0000 0.0000 0.0000 0.0000 0.0000 29.6430
#
#
#
# Elastic Compliance Matrix: (Units=1/GPa)
#
#
# Indices 1 2 3 4 5 6 
#
# 1 0.013657 -0.003731 -0.005240 0.000000 0.000000 0.000000
# 2 -0.003731 0.020425 -0.005209 0.000000 0.000000 0.000000
# 3 -0.005240 -0.005209 0.013528 0.000000 0.000000 0.000000
# 4 0.000000 0.000000 0.000000 0.031259 0.000000 0.000000
# 5 0.000000 0.000000 0.000000 0.000000 0.035778 0.000000
# 6 0.000000 0.000000 0.000000 0.000000 0.000000 0.033735
#
#
# Mechanical properties :
#
#
# Convention : Reuss Voigt Hill
#
# Bulk Modulus (GPa) = 51.95182 57.20365 54.57773
# Shear Modulus (GPa) = 27.29876 28.16297 27.73086
#
# Velocity S-wave (km/s) = 4.16169 4.22705 4.19449
# Velocity P-wave (km/s) = 7.48689 7.75349 7.62136
#
# Compressibility (1/GPa) = 0.01924861
#
# Stress axis : x y z
#
# Youngs Moduli (GPa) = 73.22217 48.96052 73.92112
#
# Poissons Ratio (x) = 0.18266 0.38737
# Poissons Ratio (y) = 0.27318 0.38508
# Poissons Ratio (z) = 0.38371 0.25505
#
# Static dielectric constant tensor:
#      x y z
#    x 2.897160 0.000000 0.000000 
#    y 0.000000 3.159950 0.000000 
#    z 0.000000 0.000000 3.045360 
# 
# 
# High freq. dielectric constant tensor:
#      x y z
#    x 1.613470 0.000000 0.000000 
#    y 0.000000 1.592040 0.000000 
#    z 0.000000 0.000000 1.587710 
# 
# From -- ./inp_files/45642.got.cif
#   From: 2010.03.12/outbox.cif.g09.slc.cpg/sg65_23_cif.got.tgz:45642.got - 2010.04.10 20:52:16.
