data_PCOD8266693
_publ_section_title
;
Structure prediction by ZEFSAII (Michael W. Deem and Ramdas Pophale) SiO2 
 PCOD8266693
Probable space group: C M M M
;
_chemical_formula_sum "Si O2"
_cell_formula_units_Z 104
_cell_length_a 25.941306
_cell_length_b 18.699225
_cell_length_c 11.900436
_cell_angle_alpha 90.000000
_cell_angle_beta 90.000000
_cell_angle_gamma 90.000000
_cell_volume 5772.691076
_symmetry_space_group_name_H-M "C M M M"
_symmetry_group_IT_number 65
_symmetry_cell_setting 'orthorhombic'
loop_
_space_group_symop_operation_xyz
x,y,z
-x,-y,z
x,-y,-z
-x,y,-z
-x,-y,-z
x,y,-z
-x,y,z
x,-y,z
1/2+x,1/2+y,z
1/2-x,1/2-y,z
1/2+x,1/2-y,-z
1/2-x,1/2+y,-z
1/2-x,1/2-y,-z
1/2+x,1/2+y,-z
1/2-x,1/2+y,z
1/2+x,1/2-y,z
loop_
_atom_site_type_symbol
_atom_site_label
_atom_site_fract_x
_atom_site_fract_y
_atom_site_fract_z
Si Si1 0.399762 0.350501 0.127325
Si Si2 0.213527 0.414692 0.232322
Si Si3 0.057162 0.718642 0.229326
Si Si4 0.346789 0.809252 0.632163
Si Si5 0.557895 0.135227 0.000000
Si Si6 0.293747 0.698547 0.790159
Si Si7 0.333852 0.079688 0.000000
Si Si8 0.558524 0.500000 0.867271
O O1 0.434498 0.302771 0.209543
O O2 0.340534 0.322955 0.128229
O O3 0.408393 0.431105 0.172386
O O4 0.419898 0.344140 0.000000
O O5 0.218393 0.500000 0.241320
O O6 0.177543 0.385303 0.332082
O O7 0.269072 0.377257 0.246748
O O8 0.189104 0.386045 0.113927
O O9 0.094703 0.688921 0.324443
O O10 0.000000 0.703887 0.274268
O O11 0.067015 0.682574 0.109341
O O12 0.346122 0.801036 0.500000
O O13 0.315290 0.742233 0.683008
O O14 0.603690 0.077441 0.000000
O O15 0.500000 0.100804 0.000000
O O16 0.250000 0.750000 0.847834
O O17 0.312874 0.000000 0.000000
O O18 0.500000 0.500000 0.817235
O O19 0.554482 0.500000 0.000000
#
# Coordination Sequence:
#
# PCOD8266693 Si02
#       8
#    16  16  16  16   8  16   8   8
#     4  10  19  30  47  75 110 143 176 214 258 325
#     4  10  21  36  55  80 109 145 177 214 265 325
#     4  10  19  32  54  82 106 137 177 219 269 322
#     4  10  21  39  57  76 104 137 183 234 271 312
#     4  10  18  31  55  80 108 138 176 218 261 318
#     4   9  21  35  50  78 103 140 176 223 269 314
#     4  10  20  35  52  78 114 144 172 212 260 325
#     4   9  18  30  44  68 105 147 179 211 260 314
#
# _framework density 18.015861000000001
#
# number of rings (size 3 to 8) (size 9 to 14) (size 15 to 20)
#    0.000    2.231    2.308    0.462    2.154    4.462 
#    0.000    0.000    0.000    0.462    0.000    1.077 
#    0.000    5.846    0.000    0.000    0.000    0.000 
#
# Total GULP energy -644412.863506 kJ/mol
# GULP energy per Si atom -12392.555067 kJ/mol
# Density = 1.797486 g / cm^3
# Si number density = 18.015861 Si / 1000 Ang^3
#
#
#
# Elastic Constant Matrix: (Units=GPa)
#
#
# Indices 1 2 3 4 5 6 
#
# 1 108.8066 38.6481 24.9698 0.0000 0.0000 0.0000
# 2 38.6481 93.4881 20.7580 0.0000 0.0000 0.0000
# 3 24.9698 20.7580 76.3553 0.0000 0.0000 0.0000
# 4 0.0000 0.0000 0.0000 17.2056 0.0000 0.0000
# 5 0.0000 0.0000 0.0000 0.0000 -7.5709 0.0000
# 6 0.0000 0.0000 0.0000 0.0000 0.0000 26.0682
#
#
#
# Elastic Compliance Matrix: (Units=1/GPa)
#
#
# Indices 1 2 3 4 5 6 
#
# 1 0.011225 -0.004071 -0.002564 0.000000 0.000000 0.000000
# 2 -0.004071 0.012860 -0.002165 0.000000 0.000000 0.000000
# 3 -0.002564 -0.002165 0.014524 0.000000 0.000000 0.000000
# 4 0.000000 0.000000 0.000000 0.058120 0.000000 0.000000
# 5 0.000000 0.000000 0.000000 0.000000 -0.132085 0.000000
# 6 0.000000 0.000000 0.000000 0.000000 0.000000 0.038361
#
#
# Mechanical properties :
#
#
# Convention : Reuss Voigt Hill
#
# Bulk Modulus (GPa) = 47.59877 49.71131 48.65504
# Shear Modulus (GPa) = 181.10595 20.09221 100.59908
#
# Velocity S-wave (km/s) = 10.03713 3.34316 7.48067
# Velocity P-wave (km/s) = 12.68082 6.52344 10.08361
#
# Compressibility (1/GPa) = 0.02100895
#
# Stress axis : x y z
#
# Youngs Moduli (GPa) = 89.08591 77.75897 68.85297
#
# Poissons Ratio (x) = 0.31657 0.17654
# Poissons Ratio (y) = 0.36268 0.14906
# Poissons Ratio (z) = 0.22842 0.16834
#
# Static dielectric constant tensor:
#      x y z
#    x 3.524500 0.000000 0.000000 
#    y 0.000000 3.349110 0.000000 
#    z 0.000000 0.000000 2.958530 
# 
# 
# High freq. dielectric constant tensor:
#      x y z
#    x 1.709930 0.000000 0.000000 
#    y 0.000000 1.697410 0.000000 
#    z 0.000000 0.000000 1.654650 
# 
# From -- ./inp_files/32582.got.cif
#   From: 2010.03.12/outbox.cif.g09.slc.cpg/sg65_17_cif.got.tgz:32582.got - 2010.04.10 20:52:16.
