data_PCOD8266260
_publ_section_title
;
Structure prediction by ZEFSAII (Michael W. Deem and Ramdas Pophale) SiO2 
 PCOD8266260
Probable space group: C M M M
;
_chemical_formula_sum "Si O2"
_cell_formula_units_Z 104
_cell_length_a 18.585240
_cell_length_b 30.208583
_cell_length_c 10.173546
_cell_angle_alpha 90.000000
_cell_angle_beta 90.000000
_cell_angle_gamma 90.000000
_cell_volume 5711.772235
_symmetry_space_group_name_H-M "C M M M"
_symmetry_group_IT_number 65
_symmetry_cell_setting 'orthorhombic'
loop_
_space_group_symop_operation_xyz
x,y,z
-x,-y,z
x,-y,-z
-x,y,-z
-x,-y,-z
x,y,-z
-x,y,z
x,-y,z
1/2+x,1/2+y,z
1/2-x,1/2-y,z
1/2+x,1/2-y,-z
1/2-x,1/2+y,-z
1/2-x,1/2-y,-z
1/2+x,1/2+y,-z
1/2-x,1/2+y,z
1/2+x,1/2-y,z
loop_
_atom_site_type_symbol
_atom_site_label
_atom_site_fract_x
_atom_site_fract_y
_atom_site_fract_z
Si Si1 0.665213 0.448883 0.746936
Si Si2 0.164225 0.698564 0.655709
Si Si3 0.915542 0.367311 0.848655
Si Si4 0.173298 0.798340 0.654711
Si Si5 0.919622 0.947496 0.000000
Si Si6 0.078533 0.124940 0.647371
Si Si7 0.319846 0.049634 0.151170
O O1 0.648546 0.500000 0.716306
O O2 0.623988 0.430708 0.874914
O O3 0.629533 0.418435 0.636178
O O4 0.750291 0.440703 0.758918
O O5 0.153621 0.687698 0.500000
O O6 0.113616 0.668358 0.745655
O O7 0.143728 0.749469 0.686839
O O8 0.245981 0.692243 0.705717
O O9 0.881328 0.415155 0.815422
O O10 0.000000 0.372307 0.826992
O O11 0.898058 0.353647 0.000000
O O12 0.178972 0.804098 0.500000
O O13 0.119900 0.834503 0.720071
O O14 0.000000 0.927684 0.000000
O O15 0.921464 0.000000 0.000000
O O16 0.064582 0.140634 0.500000
O O17 0.000000 0.115860 0.713771
O O18 0.349212 0.000000 0.180644
O O19 0.294661 0.052654 0.000000
#
# Coordination Sequence:
#
# PCOD8266260 Si02
#       7
#    16  16  16  16   8  16  16
#     4  10  18  30  48  68  90 122 163 206 245 287
#     4   9  17  33  58  80  98 128 172 214 250 300
#     4  10  21  34  50  77 110 137 163 207 262 305
#     4   8  16  32  53  76  99 126 166 212 249 288
#     4   9  16  26  42  64  87 112 147 195 244 282
#     4  10  20  31  44  66  98 133 164 197 242 296
#     4   9  17  32  53  74  96 127 169 208 244 296
#
# _framework density 18.208008
#
# number of rings (size 3 to 8) (size 9 to 14) (size 15 to 20)
#    0.000    2.692    0.769    2.308    0.000    2.462 
#    0.000    5.385    1.692    1.385    0.000    1.077 
#    0.000    0.000    0.000    0.000    0.000    0.000 
#
# Total GULP energy -644374.672762 kJ/mol
# GULP energy per Si atom -12391.820630 kJ/mol
# Density = 1.816657 g / cm^3
# Si number density = 18.208008 Si / 1000 Ang^3
#
#
#
# Elastic Constant Matrix: (Units=GPa)
#
#
# Indices 1 2 3 4 5 6 
#
# 1 124.8535 82.3070 34.6415 0.0000 0.0000 0.0000
# 2 82.3070 132.5991 34.3465 0.0000 0.0000 0.0000
# 3 34.6415 34.3465 43.5062 0.0000 0.0000 0.0000
# 4 0.0000 0.0000 0.0000 24.5934 0.0000 0.0000
# 5 0.0000 0.0000 0.0000 0.0000 23.3944 0.0000
# 6 0.0000 0.0000 0.0000 0.0000 0.0000 27.6202
#
#
#
# Elastic Compliance Matrix: (Units=1/GPa)
#
#
# Indices 1 2 3 4 5 6 
#
# 1 0.014570 -0.007591 -0.005608 0.000000 0.000000 0.000000
# 2 -0.007591 0.013435 -0.004562 0.000000 0.000000 0.000000
# 3 -0.005608 -0.004562 0.031052 0.000000 0.000000 0.000000
# 4 0.000000 0.000000 0.000000 0.040661 0.000000 0.000000
# 5 0.000000 0.000000 0.000000 0.000000 0.042745 0.000000
# 6 0.000000 0.000000 0.000000 0.000000 0.000000 0.036205
#
#
# Mechanical properties :
#
#
# Convention : Reuss Voigt Hill
#
# Bulk Modulus (GPa) = 42.49105 67.06099 54.77602
# Shear Modulus (GPa) = 22.51879 25.09919 23.80899
#
# Velocity S-wave (km/s) = 3.52056 3.71680 3.62001
# Velocity P-wave (km/s) = 6.31767 7.43841 6.90083
#
# Compressibility (1/GPa) = 0.02353437
#
# Stress axis : x y z
#
# Youngs Moduli (GPa) = 68.63599 74.43148 32.20358
#
# Poissons Ratio (x) = 0.56501 0.18060
# Poissons Ratio (y) = 0.52102 0.14692
# Poissons Ratio (z) = 0.38492 0.33958
#
# Static dielectric constant tensor:
#      x y z
#    x 3.617840 0.000000 0.000000 
#    y 0.000000 3.439280 0.000000 
#    z 0.000000 0.000000 3.093650 
# 
# 
# High freq. dielectric constant tensor:
#      x y z
#    x 1.709640 0.000000 0.000000 
#    y 0.000000 1.706630 0.000000 
#    z 0.000000 0.000000 1.667990 
# 
# From -- ./inp_files/27733.got.cif
#   From: 2010.03.12/outbox.cif.g09.slc.cpg/sg65_14_cif.got.tgz:27733.got - 2010.04.10 20:52:16.
