data_PCOD8266721
_publ_section_title
;
Structure prediction by ZEFSAII (Michael W. Deem and Ramdas Pophale) SiO2 
 PCOD8266721
Probable space group: C M M M
;
_chemical_formula_sum "Si O2"
_cell_formula_units_Z 112
_cell_length_a 17.283348
_cell_length_b 19.468102
_cell_length_c 19.073350
_cell_angle_alpha 90.000000
_cell_angle_beta 90.000000
_cell_angle_gamma 90.000000
_cell_volume 6417.686020
_symmetry_space_group_name_H-M "C M M M"
_symmetry_group_IT_number 65
_symmetry_cell_setting 'orthorhombic'
loop_
_space_group_symop_operation_xyz
x,y,z
-x,-y,z
x,-y,-z
-x,y,-z
-x,-y,-z
x,y,-z
-x,y,z
x,-y,z
1/2+x,1/2+y,z
1/2-x,1/2-y,z
1/2+x,1/2-y,-z
1/2-x,1/2+y,-z
1/2-x,1/2-y,-z
1/2+x,1/2+y,-z
1/2-x,1/2+y,z
1/2+x,1/2-y,z
loop_
_atom_site_type_symbol
_atom_site_label
_atom_site_fract_x
_atom_site_fract_y
_atom_site_fract_z
Si Si1 0.748635 0.578710 0.421046
Si Si2 0.587842 0.292934 0.270518
Si Si3 0.322280 0.162559 0.297078
Si Si4 0.209321 0.816450 0.170194
Si Si5 0.284079 0.079663 0.080264
Si Si6 0.087141 0.579461 0.810316
Si Si7 0.085270 0.077392 0.634693
O O1 0.775737 0.595263 0.500000
O O2 0.768422 0.500000 0.400920
O O3 0.795168 0.628985 0.369689
O O4 0.655568 0.590097 0.419003
O O5 0.500000 0.266264 0.267289
O O6 0.640968 0.237687 0.312843
O O7 0.620596 0.299462 0.190702
O O8 0.593451 0.368330 0.303177
O O9 0.249876 0.165377 0.244508
O O10 0.389213 0.118360 0.260249
O O11 0.250000 0.750000 0.135638
O O12 0.212948 0.878276 0.114411
O O13 0.361168 0.100288 0.122689
O O14 0.263428 0.000000 0.087571
O O15 0.296640 0.100930 0.000000
O O16 0.096930 0.500000 0.793140
O O17 0.000000 0.598936 0.830716
O O18 0.000000 0.086531 0.598342
O O19 0.091754 0.000000 0.666157
#
# Coordination Sequence:
#
# PCOD8266721 Si02
#       7
#    16  16  16  16  16  16  16
#     4  10  20  33  52  76 102 136 172 208 254 306
#     4  10  19  32  52  75  98 128 168 214 260 301
#     4  10  18  32  50  73 102 131 166 216 256 301
#     4   9  18  31  50  72  98 129 167 206 252 301
#     4   9  18  31  48  74 105 135 167 205 251 302
#     4   9  17  29  48  73  99 134 173 208 253 300
#     4   9  18  32  49  71 100 131 165 209 259 307
#
# _framework density 17.451772999999999
#
# number of rings (size 3 to 8) (size 9 to 14) (size 15 to 20)
#    0.000    2.571    1.429    0.857    0.000    2.000 
#    0.000    4.286    0.000    3.000    0.000    6.000 
#    0.000    0.000    0.000    0.000    0.000    0.000 
#
# Total GULP energy -694043.697421 kJ/mol
# GULP energy per Si atom -12393.637454 kJ/mol
# Density = 1.741205 g / cm^3
# Si number density = 17.451773 Si / 1000 Ang^3
#
#
#
# Elastic Constant Matrix: (Units=GPa)
#
#
# Indices 1 2 3 4 5 6 
#
# 1 74.7860 41.8694 40.2850 0.0000 0.0000 0.0000
# 2 41.8694 90.5990 54.3505 0.0000 0.0000 0.0000
# 3 40.2850 54.3505 93.7767 0.0000 0.0000 0.0000
# 4 0.0000 0.0000 0.0000 26.6786 0.0000 0.0000
# 5 0.0000 0.0000 0.0000 0.0000 17.5328 0.0000
# 6 0.0000 0.0000 0.0000 0.0000 0.0000 25.5749
#
#
#
# Elastic Compliance Matrix: (Units=1/GPa)
#
#
# Indices 1 2 3 4 5 6 
#
# 1 0.019351 -0.006065 -0.004798 0.000000 0.000000 0.000000
# 2 -0.006065 0.018821 -0.008303 0.000000 0.000000 0.000000
# 3 -0.004798 -0.008303 0.017537 0.000000 0.000000 0.000000
# 4 0.000000 0.000000 0.000000 0.037483 0.000000 0.000000
# 5 0.000000 0.000000 0.000000 0.000000 0.057036 0.000000
# 6 0.000000 0.000000 0.000000 0.000000 0.000000 0.039101
#
#
# Mechanical properties :
#
#
# Convention : Reuss Voigt Hill
#
# Bulk Modulus (GPa) = 57.54365 59.13017 58.33691
# Shear Modulus (GPa) = 21.41743 22.13437 21.77590
#
# Velocity S-wave (km/s) = 3.50699 3.56521 3.53622
# Velocity P-wave (km/s) = 7.03159 7.13465 7.08330
#
# Compressibility (1/GPa) = 0.01737811
#
# Stress axis : x y z
#
# Youngs Moduli (GPa) = 51.67581 53.13093 57.02190
#
# Poissons Ratio (x) = 0.32222 0.27360
# Poissons Ratio (y) = 0.31339 0.47346
# Poissons Ratio (z) = 0.24795 0.44115
#
# Static dielectric constant tensor:
#      x y z
#    x 3.381670 0.000000 0.000000 
#    y 0.000000 3.420480 0.000000 
#    z 0.000000 0.000000 2.961260 
# 
# 
# High freq. dielectric constant tensor:
#      x y z
#    x 1.668920 0.000000 0.000000 
#    y 0.000000 1.688660 0.000000 
#    z 0.000000 0.000000 1.636920 
# 
# From -- ./inp_files/54853.got.cif
#   From: 2010.03.12/outbox.cif.g09.slc.cpg/sg65_28_cif.got.tgz:54853.got - 2010.04.10 20:52:16.
