data_PCOD8266261
_publ_section_title
;
Structure prediction by ZEFSAII (Michael W. Deem and Ramdas Pophale) SiO2 
 PCOD8266261
Probable space group: C M M M
;
_chemical_formula_sum "Si O2"
_cell_formula_units_Z 104
_cell_length_a 32.797439
_cell_length_b 19.309938
_cell_length_c 9.628381
_cell_angle_alpha 90.000000
_cell_angle_beta 90.000000
_cell_angle_gamma 90.000000
_cell_volume 6097.812687
_symmetry_space_group_name_H-M "C M M M"
_symmetry_group_IT_number 65
_symmetry_cell_setting 'orthorhombic'
loop_
_space_group_symop_operation_xyz
x,y,z
-x,-y,z
x,-y,-z
-x,y,-z
-x,-y,-z
x,y,-z
-x,y,z
x,-y,z
1/2+x,1/2+y,z
1/2-x,1/2-y,z
1/2+x,1/2-y,-z
1/2-x,1/2+y,-z
1/2-x,1/2-y,-z
1/2+x,1/2+y,-z
1/2-x,1/2+y,z
1/2+x,1/2-y,z
loop_
_atom_site_type_symbol
_atom_site_label
_atom_site_fract_x
_atom_site_fract_y
_atom_site_fract_z
Si Si1 0.758345 0.417578 0.154231
Si Si2 0.500000 0.923062 0.164174
Si Si3 0.076405 0.332934 0.834851
Si Si4 0.187387 0.917873 0.346090
Si Si5 0.047379 0.793128 0.663174
Si Si6 0.347993 0.923043 0.165063
Si Si7 0.097805 0.076254 0.335448
O O1 0.755257 0.500000 0.148194
O O2 0.722898 0.385417 0.250322
O O3 0.803142 0.397501 0.214138
O O4 0.752336 0.386695 0.000000
O O5 0.460111 0.882600 0.214473
O O6 0.500000 0.000000 0.230176
O O7 0.500000 0.929338 0.000000
O O8 0.072676 0.261344 0.753239
O O9 0.118195 0.368680 0.784513
O O10 0.075194 0.319254 0.000000
O O11 0.192470 0.885906 0.500000
O O12 0.142736 0.900018 0.282317
O O13 0.192095 0.000000 0.353626
O O14 0.054639 0.779449 0.500000
O O15 0.063592 0.868723 0.708743
O O16 0.000000 0.789181 0.702152
O O17 0.357736 0.000000 0.224836
O O18 0.348333 0.927950 0.000000
O O19 0.100935 0.070540 0.500000
O O20 0.086131 0.000000 0.275228
#
# Coordination Sequence:
#
# PCOD8266261 Si02
#       7
#    16   8  16  16  16  16  16
#     4   8  13  22  38  62  91 118 143 177 223 267
#     4   9  16  26  45  71  90 111 152 198 225 249
#     4  10  18  30  48  68  91 120 154 190 225 266
#     4   8  13  23  41  64  88 112 141 180 222 263
#     4  10  20  33  49  68  92 120 148 183 230 281
#     4   8  14  25  43  67  92 119 154 193 225 255
#     4   8  15  29  49  71  91 114 149 189 224 263
#
# _framework density 17.055295999999998
#
# number of rings (size 3 to 8) (size 9 to 14) (size 15 to 20)
#    0.000    3.308    0.769    2.308    0.000    2.154 
#    0.000    3.077    0.000    5.538    0.000    7.538 
#    0.000    0.000    0.000    0.000    0.000    0.000 
#
# Total GULP energy -644417.660346 kJ/mol
# GULP energy per Si atom -12392.647314 kJ/mol
# Density = 1.701648 g / cm^3
# Si number density = 17.055296 Si / 1000 Ang^3
#
#
#
# Elastic Constant Matrix: (Units=GPa)
#
#
# Indices 1 2 3 4 5 6 
#
# 1 97.9646 45.5795 30.6557 0.0000 0.0000 0.0000
# 2 45.5795 84.0252 25.3878 0.0000 0.0000 0.0000
# 3 30.6557 25.3878 37.4255 0.0000 0.0000 0.0000
# 4 0.0000 0.0000 0.0000 18.0305 0.0000 0.0000
# 5 0.0000 0.0000 0.0000 0.0000 23.0819 0.0000
# 6 0.0000 0.0000 0.0000 0.0000 0.0000 10.0473
#
#
#
# Elastic Compliance Matrix: (Units=1/GPa)
#
#
# Indices 1 2 3 4 5 6 
#
# 1 0.015709 -0.005828 -0.008914 0.000000 0.000000 0.000000
# 2 -0.005828 0.017131 -0.006847 0.000000 0.000000 0.000000
# 3 -0.008914 -0.006847 0.038666 0.000000 0.000000 0.000000
# 4 0.000000 0.000000 0.000000 0.055462 0.000000 0.000000
# 5 0.000000 0.000000 0.000000 0.000000 0.043324 0.000000
# 6 0.000000 0.000000 0.000000 0.000000 0.000000 0.099529
#
#
# Mechanical properties :
#
#
# Convention : Reuss Voigt Hill
#
# Bulk Modulus (GPa) = 35.30083 46.96237 41.13160
# Shear Modulus (GPa) = 15.50668 18.08477 16.79572
#
# Velocity S-wave (km/s) = 3.01857 3.25985 3.14153
# Velocity P-wave (km/s) = 5.73514 6.46251 6.10965
#
# Compressibility (1/GPa) = 0.02832794
#
# Stress axis : x y z
#
# Youngs Moduli (GPa) = 63.65918 58.37206 25.86239
#
# Poissons Ratio (x) = 0.34019 0.23053
# Poissons Ratio (y) = 0.37100 0.17709
# Poissons Ratio (z) = 0.56744 0.39970
#
# Static dielectric constant tensor:
#      x y z
#    x 3.541390 0.000000 0.000000 
#    y 0.000000 3.061720 0.000000 
#    z 0.000000 0.000000 2.939110 
# 
# 
# High freq. dielectric constant tensor:
#      x y z
#    x 1.672910 0.000000 0.000000 
#    y 0.000000 1.625480 0.000000 
#    z 0.000000 0.000000 1.613660 
# 
# From -- ./inp_files/32551.got.cif
#   From: 2010.03.12/outbox.cif.g09.slc.cpg/sg65_17_cif.got.tgz:32551.got - 2010.04.10 20:52:16.
