data_PCOD8266105
_publ_section_title
;
Structure prediction by ZEFSAII (Michael W. Deem and Ramdas Pophale) SiO2 
 PCOD8266105
Probable space group: C M M M
;
_chemical_formula_sum "Si O2"
_cell_formula_units_Z 112
_cell_length_a 25.194521
_cell_length_b 16.977838
_cell_length_c 14.343177
_cell_angle_alpha 90.000000
_cell_angle_beta 90.000000
_cell_angle_gamma 90.000000
_cell_volume 6135.272390
_symmetry_space_group_name_H-M "C M M M"
_symmetry_group_IT_number 65
_symmetry_cell_setting 'orthorhombic'
loop_
_space_group_symop_operation_xyz
x,y,z
-x,-y,z
x,-y,-z
-x,y,-z
-x,-y,-z
x,y,-z
-x,y,z
x,-y,z
1/2+x,1/2+y,z
1/2-x,1/2-y,z
1/2+x,1/2-y,-z
1/2-x,1/2+y,-z
1/2-x,1/2-y,-z
1/2+x,1/2+y,-z
1/2-x,1/2+y,z
1/2+x,1/2-y,z
loop_
_atom_site_type_symbol
_atom_site_label
_atom_site_fract_x
_atom_site_fract_y
_atom_site_fract_z
Si Si1 0.285964 0.826276 0.393903
Si Si2 0.062257 0.359913 0.106306
Si Si3 0.749457 0.906826 0.896887
Si Si4 0.059435 0.178376 0.105226
Si Si5 0.351802 0.593702 0.790812
Si Si6 0.154937 0.591268 0.763369
Si Si7 0.682894 0.409144 0.401037
O O1 0.307754 0.815675 0.500000
O O2 0.250000 0.750000 0.364922
O O3 0.335332 0.849292 0.325022
O O4 0.246048 0.900193 0.386443
O O5 0.076999 0.268426 0.112047
O O6 0.097509 0.401419 0.186204
O O7 0.000000 0.375061 0.127996
O O8 0.074594 0.390136 0.000000
O O9 0.802572 0.872025 0.849775
O O10 0.698324 0.881757 0.838729
O O11 0.753862 0.000000 0.902851
O O12 0.744380 0.870045 0.000000
O O13 0.093283 0.121997 0.169315
O O14 0.000000 0.168955 0.141730
O O15 0.064921 0.147952 0.000000
O O16 0.349330 0.500000 0.789556
O O17 0.348446 0.628632 0.685620
O O18 0.161472 0.500000 0.732376
O O19 0.666088 0.368399 0.500000
O O20 0.669295 0.500000 0.406384
#
# Coordination Sequence:
#
# PCOD8266105 Si02
#       7
#    16  16  16  16  16  16  16
#     4  10  21  35  52  78 110 143 176 211 254 313
#     4   9  20  38  56  75 103 142 184 225 273 327
#     4   9  17  28  42  68 105 134 158 198 254 311
#     4   9  19  35  52  71  99 138 181 220 261 313
#     4  10  18  29  48  74 102 136 174 214 263 316
#     4  11  21  33  54  82 107 136 175 222 271 315
#     4   9  17  31  50  71 100 136 171 208 252 305
#
# _framework density 18.255096999999999
#
# number of rings (size 3 to 8) (size 9 to 14) (size 15 to 20)
#    0.000    2.429    1.429    2.143    2.000    3.143 
#    0.000    1.429    0.000    4.286    0.000    5.000 
#    0.000    0.000    0.000    0.000    0.000    0.000 
#
# Total GULP energy -693862.150864 kJ/mol
# GULP energy per Si atom -12390.395551 kJ/mol
# Density = 1.821355 g / cm^3
# Si number density = 18.255097 Si / 1000 Ang^3
#
#
#
# Elastic Constant Matrix: (Units=GPa)
#
#
# Indices 1 2 3 4 5 6 
#
# 1 79.6408 23.9496 49.8983 0.0000 0.0000 0.0000
# 2 23.9496 28.2320 36.3269 0.0000 0.0000 0.0000
# 3 49.8983 36.3269 127.1214 0.0000 0.0000 0.0000
# 4 0.0000 0.0000 0.0000 18.5272 0.0000 0.0000
# 5 0.0000 0.0000 0.0000 0.0000 27.9846 0.0000
# 6 0.0000 0.0000 0.0000 0.0000 0.0000 25.5354
#
#
#
# Elastic Compliance Matrix: (Units=1/GPa)
#
#
# Indices 1 2 3 4 5 6 
#
# 1 0.018250 -0.009907 -0.004333 0.000000 0.000000 0.000000
# 2 -0.009907 0.061397 -0.013656 0.000000 0.000000 0.000000
# 3 -0.004333 -0.013656 0.013470 0.000000 0.000000 0.000000
# 4 0.000000 0.000000 0.000000 0.053975 0.000000 0.000000
# 5 0.000000 0.000000 0.000000 0.000000 0.035734 0.000000
# 6 0.000000 0.000000 0.000000 0.000000 0.000000 0.039161
#
#
# Mechanical properties :
#
#
# Convention : Reuss Voigt Hill
#
# Bulk Modulus (GPa) = 26.79178 50.59375 38.69277
# Shear Modulus (GPa) = 17.22829 22.73074 19.97952
#
# Velocity S-wave (km/s) = 3.07539 3.53253 3.31185
# Velocity P-wave (km/s) = 5.22675 6.66434 5.98883
#
# Compressibility (1/GPa) = 0.03732488
#
# Stress axis : x y z
#
# Youngs Moduli (GPa) = 54.79405 16.28744 74.24103
#
# Poissons Ratio (x) = 0.16136 0.32165
# Poissons Ratio (y) = 0.54285 1.01386
# Poissons Ratio (z) = 0.23740 0.22243
#
# Static dielectric constant tensor:
#      x y z
#    x 3.156560 0.000000 0.000000 
#    y 0.000000 3.153260 0.000000 
#    z 0.000000 0.000000 3.775300 
# 
# 
# High freq. dielectric constant tensor:
#      x y z
#    x 1.678050 0.000000 0.000000 
#    y 0.000000 1.693620 0.000000 
#    z 0.000000 0.000000 1.713510 
# 
# From -- ./inp_files/47028.got.cif
#   From: 2010.03.12/outbox.cif.g09.slc.cpg/sg65_24_cif.got.tgz:47028.got - 2010.04.10 20:52:16.
