data_PCOD8266557
_publ_section_title
;
Structure prediction by ZEFSAII (Michael W. Deem and Ramdas Pophale) SiO2 
 PCOD8266557
Probable space group: C M M M
;
_chemical_formula_sum "Si O2"
_cell_formula_units_Z 104
_cell_length_a 29.991889
_cell_length_b 9.144646
_cell_length_c 22.632402
_cell_angle_alpha 90.000000
_cell_angle_beta 90.000000
_cell_angle_gamma 90.000000
_cell_volume 6207.280437
_symmetry_space_group_name_H-M "C M M M"
_symmetry_group_IT_number 65
_symmetry_cell_setting 'orthorhombic'
loop_
_space_group_symop_operation_xyz
x,y,z
-x,-y,z
x,-y,-z
-x,y,-z
-x,-y,-z
x,y,-z
-x,y,z
x,-y,z
1/2+x,1/2+y,z
1/2-x,1/2-y,z
1/2+x,1/2-y,-z
1/2-x,1/2+y,-z
1/2-x,1/2-y,-z
1/2+x,1/2+y,-z
1/2-x,1/2+y,z
1/2+x,1/2-y,z
loop_
_atom_site_type_symbol
_atom_site_label
_atom_site_fract_x
_atom_site_fract_y
_atom_site_fract_z
Si Si1 0.705560 0.668984 0.290827
Si Si2 0.048556 0.173039 0.433091
Si Si3 0.798942 0.322920 0.500000
Si Si4 0.205173 0.827645 0.842279
Si Si5 0.548321 0.837306 0.929905
Si Si6 0.644921 0.672325 0.601710
Si Si7 0.867212 0.172345 0.933443
O O1 0.718157 0.500000 0.292572
O O2 0.750000 0.750000 0.312981
O O3 0.691814 0.717282 0.224573
O O4 0.663903 0.703848 0.333072
O O5 0.054132 0.229616 0.500000
O O6 0.092849 0.224767 0.397660
O O7 0.000000 0.230724 0.408064
O O8 0.047040 0.000000 0.432054
O O9 0.794896 0.500000 0.500000
O O10 0.750000 0.250000 0.500000
O O11 0.826130 0.268513 0.443091
O O12 0.250000 0.750000 0.861774
O O13 0.169155 0.766355 0.888250
O O14 0.211245 0.000000 0.848348
O O15 0.500000 0.788138 0.904811
O O16 0.585641 0.725974 0.907593
O O17 0.559873 0.000000 0.907289
O O18 0.546430 0.835846 0.000000
O O19 0.648728 0.500000 0.584731
O O20 0.867998 0.000000 0.933767
O O21 0.857915 0.231976 0.000000
#
# Coordination Sequence:
#
# PCOD8266557 Si02
#       7
#    16  16   8  16  16  16  16
#     4   9  18  31  48  66  86 116 150 187 225 266
#     4   8  13  23  43  69  92 114 144 181 215 253
#     4  12  24  34  45  66  97 125 148 181 227 270
#     4   9  18  32  46  63  88 116 151 189 225 267
#     4   8  14  25  41  62  88 115 144 180 219 262
#     4  10  18  31  50  70  92 119 152 186 224 265
#     4   9  17  28  43  64  90 118 147 183 228 276
#
# _framework density 16.754519999999999
#
# number of rings (size 3 to 8) (size 9 to 14) (size 15 to 20)
#    0.000    2.923    0.769    2.077    0.000    3.077 
#    0.000    1.538    0.000    1.846    0.000    4.308 
#    0.000    0.000    0.000    0.000    0.000    0.000 
#
# Total GULP energy -644299.051945 kJ/mol
# GULP energy per Si atom -12390.366384 kJ/mol
# Density = 1.671639 g / cm^3
# Si number density = 16.754520 Si / 1000 Ang^3
#
#
#
# Elastic Constant Matrix: (Units=GPa)
#
#
# Indices 1 2 3 4 5 6 
#
# 1 175.6840 36.0103 74.0052 0.0000 0.0000 0.0000
# 2 36.0103 29.5489 24.1998 0.0000 0.0000 0.0000
# 3 74.0052 24.1998 73.8131 0.0000 0.0000 0.0000
# 4 0.0000 0.0000 0.0000 14.1109 0.0000 0.0000
# 5 0.0000 0.0000 0.0000 0.0000 17.0814 0.0000
# 6 0.0000 0.0000 0.0000 0.0000 0.0000 25.6916
#
#
#
# Elastic Compliance Matrix: (Units=1/GPa)
#
#
# Indices 1 2 3 4 5 6 
#
# 1 0.010515 -0.005715 -0.008669 0.000000 0.000000 0.000000
# 2 -0.005715 0.049370 -0.010456 0.000000 0.000000 0.000000
# 3 -0.008669 -0.010456 0.025667 0.000000 0.000000 0.000000
# 4 0.000000 0.000000 0.000000 0.070867 0.000000 0.000000
# 5 0.000000 0.000000 0.000000 0.000000 0.058543 0.000000
# 6 0.000000 0.000000 0.000000 0.000000 0.000000 0.038923
#
#
# Mechanical properties :
#
#
# Convention : Reuss Voigt Hill
#
# Bulk Modulus (GPa) = 27.87661 60.83075 44.35368
# Shear Modulus (GPa) = 15.84667 21.03216 18.43942
#
# Velocity S-wave (km/s) = 3.07875 3.54688 3.32107
# Velocity P-wave (km/s) = 5.41411 7.29107 6.42154
#
# Compressibility (1/GPa) = 0.03587237
#
# Stress axis : x y z
#
# Youngs Moduli (GPa) = 95.10142 20.25515 38.96010
#
# Poissons Ratio (x) = 0.11576 0.33774
# Poissons Ratio (y) = 0.54349 0.40738
# Poissons Ratio (z) = 0.82442 0.21180
#
# Static dielectric constant tensor:
#      x y z
#    x 3.688740 0.000000 0.000000 
#    y 0.000000 2.993040 0.000000 
#    z 0.000000 0.000000 3.132450 
# 
# 
# High freq. dielectric constant tensor:
#      x y z
#    x 1.657540 0.000000 0.000000 
#    y 0.000000 1.623690 0.000000 
#    z 0.000000 0.000000 1.616250 
# 
# From -- ./inp_files/76015.got.cif
#   From: 2010.03.12/outbox.cif.g09.slc.cpg/sg65_39_cif.got.tgz:76015.got - 2010.04.10 20:52:16.
