data_PCOD8266514
_publ_section_title
;
Structure prediction by ZEFSAII (Michael W. Deem and Ramdas Pophale) SiO2 
 PCOD8266514
Probable space group: C M M M
;
_chemical_formula_sum "Si O2"
_cell_formula_units_Z 96
_cell_length_a 28.641373
_cell_length_b 11.391910
_cell_length_c 17.436933
_cell_angle_alpha 90.000000
_cell_angle_beta 90.000000
_cell_angle_gamma 90.000000
_cell_volume 5689.321514
_symmetry_space_group_name_H-M "C M M M"
_symmetry_group_IT_number 65
_symmetry_cell_setting 'orthorhombic'
loop_
_space_group_symop_operation_xyz
x,y,z
-x,-y,z
x,-y,-z
-x,y,-z
-x,-y,-z
x,y,-z
-x,y,z
x,-y,z
1/2+x,1/2+y,z
1/2-x,1/2-y,z
1/2+x,1/2-y,-z
1/2-x,1/2+y,-z
1/2-x,1/2-y,-z
1/2+x,1/2+y,-z
1/2-x,1/2+y,z
1/2+x,1/2-y,z
loop_
_atom_site_type_symbol
_atom_site_label
_atom_site_fract_x
_atom_site_fract_y
_atom_site_fract_z
Si Si1 0.729997 0.372045 0.588254
Si Si2 0.372917 0.305837 0.584841
Si Si3 0.413773 0.136703 0.689218
Si Si4 0.500000 0.138477 0.414015
Si Si5 0.446757 0.500000 0.196629
Si Si6 0.945260 0.000000 0.377614
Si Si7 0.944523 0.368347 0.000000
Si Si8 0.055818 0.748435 0.843896
O O1 0.745726 0.369136 0.500000
O O2 0.747731 0.500000 0.622707
O O3 0.750000 0.250000 0.626933
O O4 0.674156 0.378858 0.596436
O O5 0.373497 0.247337 0.500000
O O6 0.370794 0.205869 0.650993
O O7 0.418908 0.386424 0.590843
O O8 0.455995 0.180079 0.635079
O O9 0.422300 0.169786 0.777080
O O10 0.403921 0.000000 0.684528
O O11 0.500000 0.193419 0.500000
O O12 0.500000 0.000000 0.420744
O O13 0.500000 0.500000 0.170600
O O14 0.440990 0.500000 0.286736
O O15 0.424321 0.381308 0.162080
O O16 0.000000 0.000000 0.402988
O O17 0.926294 0.301928 0.924596
O O18 0.924374 0.500000 0.000000
O O19 0.000000 0.370777 0.000000
O O20 0.000000 0.743067 0.835714
#
# Coordination Sequence:
#
# PCOD8266514 Si02
#       8
#    16  16  16   8   8   8   8  16
#     4   9  18  34  54  73  93 120 158 211 268 313
#     4  11  22  34  49  70  96 127 170 213 250 298
#     4  11  21  31  44  62  90 125 160 201 246 292
#     4   9  18  30  40  54  82 123 166 204 240 280
#     4   9  18  30  46  64  85 121 165 199 237 289
#     4  11  21  34  48  68  98 135 175 210 247 293
#     4   9  18  29  45  65  83 108 150 201 250 299
#     4  10  18  31  46  62  85 116 158 205 250 294
#
# _framework density 16.873716000000002
#
# number of rings (size 3 to 8) (size 9 to 14) (size 15 to 20)
#    0.000    2.000    3.333    1.250    1.167    3.333 
#    0.000    3.333    0.000    0.000    0.000    0.000 
#    0.000    0.000    0.000    0.750    0.000    6.000 
#
# Total GULP energy -594736.267487 kJ/mol
# GULP energy per Si atom -12390.338906 kJ/mol
# Density = 1.683531 g / cm^3
# Si number density = 16.873716 Si / 1000 Ang^3
#
#
#
# Elastic Constant Matrix: (Units=GPa)
#
#
# Indices 1 2 3 4 5 6 
#
# 1 40.0359 25.1320 10.2743 0.0000 0.0000 0.0000
# 2 25.1320 137.7499 42.7947 0.0000 0.0000 0.0000
# 3 10.2743 42.7947 106.8244 0.0000 0.0000 0.0000
# 4 0.0000 0.0000 0.0000 29.5619 0.0000 0.0000
# 5 0.0000 0.0000 0.0000 0.0000 5.7386 0.0000
# 6 0.0000 0.0000 0.0000 0.0000 0.0000 13.6969
#
#
#
# Elastic Compliance Matrix: (Units=1/GPa)
#
#
# Indices 1 2 3 4 5 6 
#
# 1 0.028260 -0.004924 -0.000745 0.000000 0.000000 0.000000
# 2 -0.004924 0.009150 -0.003192 0.000000 0.000000 0.000000
# 3 -0.000745 -0.003192 0.010711 0.000000 0.000000 0.000000
# 4 0.000000 0.000000 0.000000 0.033827 0.000000 0.000000
# 5 0.000000 0.000000 0.000000 0.000000 0.174260 0.000000
# 6 0.000000 0.000000 0.000000 0.000000 0.000000 0.073009
#
#
# Mechanical properties :
#
#
# Convention : Reuss Voigt Hill
#
# Bulk Modulus (GPa) = 32.89670 49.00136 40.94903
# Shear Modulus (GPa) = 14.00274 23.56009 18.78141
#
# Velocity S-wave (km/s) = 2.88385 3.74071 3.33987
# Velocity P-wave (km/s) = 5.53416 6.91088 6.26048
#
# Compressibility (1/GPa) = 0.03039819
#
# Stress axis : x y z
#
# Youngs Moduli (GPa) = 35.38563 109.29496 93.35780
#
# Poissons Ratio (x) = 0.53821 0.06958
# Poissons Ratio (y) = 0.17425 0.29797
# Poissons Ratio (z) = 0.02637 0.34884
#
# Static dielectric constant tensor:
#      x y z
#    x 2.799410 0.000000 0.000000 
#    y 0.000000 3.513350 0.000000 
#    z 0.000000 0.000000 3.054640 
# 
# 
# High freq. dielectric constant tensor:
#      x y z
#    x 1.593520 0.000000 0.000000 
#    y 0.000000 1.676320 0.000000 
#    z 0.000000 0.000000 1.622930 
# 
# From -- ./inp_files/47770.got.cif
#   From: 2010.03.12/outbox.cif.g09.slc.cpg/sg65_24_cif.got.tgz:47770.got - 2010.04.10 20:52:16.
