data_PCOD8266676
_publ_section_title
;
Structure prediction by ZEFSAII (Michael W. Deem and Ramdas Pophale) SiO2 
 PCOD8266676
Probable space group: C M M M
;
_chemical_formula_sum "Si O2"
_cell_formula_units_Z 88
_cell_length_a 14.960331
_cell_length_b 16.005121
_cell_length_c 17.754187
_cell_angle_alpha 90.000000
_cell_angle_beta 90.000000
_cell_angle_gamma 90.000000
_cell_volume 4251.096408
_symmetry_space_group_name_H-M "C M M M"
_symmetry_group_IT_number 65
_symmetry_cell_setting 'orthorhombic'
loop_
_space_group_symop_operation_xyz
x,y,z
-x,-y,z
x,-y,-z
-x,y,-z
-x,-y,-z
x,y,-z
-x,y,z
x,-y,z
1/2+x,1/2+y,z
1/2-x,1/2-y,z
1/2+x,1/2-y,-z
1/2-x,1/2+y,-z
1/2-x,1/2-y,-z
1/2+x,1/2+y,-z
1/2-x,1/2+y,z
1/2+x,1/2-y,z
loop_
_atom_site_type_symbol
_atom_site_label
_atom_site_fract_x
_atom_site_fract_y
_atom_site_fract_z
Si Si1 0.219551 0.402125 0.637453
Si Si2 0.100152 0.151769 0.678954
Si Si3 0.768955 0.000000 0.917440
Si Si4 0.322504 0.177088 0.915616
Si Si5 0.399787 0.099290 0.500000
Si Si6 0.098227 0.328097 0.241996
Si Si7 0.399004 0.500000 0.785256
O O1 0.236056 0.500000 0.628344
O O2 0.315090 0.355227 0.622205
O O3 0.151094 0.368205 0.574266
O O4 0.175470 0.384497 0.719765
O O5 0.102586 0.239029 0.719335
O O6 0.000000 0.135392 0.643614
O O7 0.126434 0.081566 0.738897
O O8 0.712378 0.916599 0.905231
O O9 0.851285 0.000000 0.863476
O O10 0.811241 0.000000 0.000000
O O11 0.250000 0.250000 0.905235
O O12 0.392310 0.186353 0.847613
O O13 0.365353 0.186059 0.000000
O O14 0.500000 0.137585 0.500000
O O15 0.404953 0.000000 0.500000
O O16 0.000000 0.368490 0.255729
O O17 0.500000 0.500000 0.808898
#
# Coordination Sequence:
#
# PCOD8266676 Si02
#       7
#    16  16   8  16   8  16   8
#     4  11  21  37  63  87 115 155 193 239 293 349
#     4  10  21  37  58  87 117 148 191 242 291 350
#     4  10  20  33  51  76 105 145 195 245 298 354
#     4  10  21  37  56  79 113 156 199 247 301 354
#     4   9  20  38  58  87 123 156 197 240 284 342
#     4  11  23  37  57  86 118 153 198 242 289 351
#     4  10  18  31  54  78 106 145 185 235 293 343
#
# _framework density 20.700541999999999
#
# number of rings (size 3 to 8) (size 9 to 14) (size 15 to 20)
#    0.000    1.727    0.909    4.364    1.273    1.636 
#    0.000    2.273    0.000   12.000    0.000    0.000 
#    0.000    0.000    0.000    0.000    0.000    0.000 
#
# Total GULP energy -545240.961167 kJ/mol
# GULP energy per Si atom -12391.840027 kJ/mol
# Density = 2.065343 g / cm^3
# Si number density = 20.700542 Si / 1000 Ang^3
#
#
#
# Elastic Constant Matrix: (Units=GPa)
#
#
# Indices 1 2 3 4 5 6 
#
# 1 153.3600 18.9838 62.1092 0.0000 0.0000 0.0000
# 2 18.9838 77.0476 2.7100 0.0000 0.0000 0.0000
# 3 62.1092 2.7100 99.1900 0.0000 0.0000 0.0000
# 4 0.0000 0.0000 0.0000 61.6948 0.0000 0.0000
# 5 0.0000 0.0000 0.0000 0.0000 31.5108 0.0000
# 6 0.0000 0.0000 0.0000 0.0000 0.0000 18.2721
#
#
#
# Elastic Compliance Matrix: (Units=1/GPa)
#
#
# Indices 1 2 3 4 5 6 
#
# 1 0.009043 -0.002031 -0.005607 0.000000 0.000000 0.000000
# 2 -0.002031 0.013448 0.000904 0.000000 0.000000 0.000000
# 3 -0.005607 0.000904 0.013568 0.000000 0.000000 0.000000
# 4 0.000000 0.000000 0.000000 0.016209 0.000000 0.000000
# 5 0.000000 0.000000 0.000000 0.000000 0.031735 0.000000
# 6 0.000000 0.000000 0.000000 0.000000 0.000000 0.054728
#
#
# Mechanical properties :
#
#
# Convention : Reuss Voigt Hill
#
# Bulk Modulus (GPa) = 44.26482 55.24481 49.75482
# Shear Modulus (GPa) = 31.30342 38.68185 34.99263
#
# Velocity S-wave (km/s) = 3.89292 4.32747 4.11593
# Velocity P-wave (km/s) = 6.45262 7.19130 6.83195
#
# Compressibility (1/GPa) = 0.02259130
#
# Stress axis : x y z
#
# Youngs Moduli (GPa) = 110.58716 74.36290 73.70471
#
# Poissons Ratio (x) = 0.15102 0.41324
# Poissons Ratio (y) = 0.22458 -0.06665
# Poissons Ratio (z) = 0.62003 -0.06724
#
# Static dielectric constant tensor:
#      x y z
#    x 4.083700 0.000000 0.000000 
#    y 0.000000 3.582430 0.000000 
#    z 0.000000 0.000000 3.828120 
# 
# 
# High freq. dielectric constant tensor:
#      x y z
#    x 1.811590 0.000000 0.000000 
#    y 0.000000 1.815100 0.000000 
#    z 0.000000 0.000000 1.798640 
# 
# From -- ./inp_files/53076.got.cif
#   From: 2010.03.12/outbox.cif.g09.slc.cpg/sg65_27_cif.got.tgz:53076.got - 2010.04.10 20:52:16.
