data_PCOD8266664
_publ_section_title
;
Structure prediction by ZEFSAII (Michael W. Deem and Ramdas Pophale) SiO2 
 PCOD8266664
Probable space group: C M M M
;
_chemical_formula_sum "Si O2"
_cell_formula_units_Z 64
_cell_length_a 15.623476
_cell_length_b 7.984635
_cell_length_c 23.893581
_cell_angle_alpha 90.000000
_cell_angle_beta 90.000000
_cell_angle_gamma 90.000000
_cell_volume 2980.670548
_symmetry_space_group_name_H-M "C M M M"
_symmetry_group_IT_number 65
_symmetry_cell_setting 'orthorhombic'
loop_
_space_group_symop_operation_xyz
x,y,z
-x,-y,z
x,-y,-z
-x,y,-z
-x,-y,-z
x,y,-z
-x,y,z
x,-y,z
1/2+x,1/2+y,z
1/2-x,1/2-y,z
1/2+x,1/2-y,-z
1/2-x,1/2+y,-z
1/2-x,1/2-y,-z
1/2+x,1/2+y,-z
1/2-x,1/2+y,z
1/2+x,1/2-y,z
loop_
_atom_site_type_symbol
_atom_site_label
_atom_site_fract_x
_atom_site_fract_y
_atom_site_fract_z
Si Si1 0.340997 0.303192 0.365702
Si Si2 0.102289 0.500000 0.936610
Si Si3 0.500000 0.699591 0.437133
Si Si4 0.398188 0.685109 0.867104
Si Si5 0.403715 0.806845 0.250288
O O1 0.349803 0.500000 0.360498
O O2 0.250000 0.250000 0.392170
O O3 0.415879 0.231559 0.405424
O O4 0.345521 0.223790 0.304143
O O5 0.139107 0.668079 0.906764
O O6 0.000000 0.500000 0.934639
O O7 0.135952 0.500000 0.000000
O O8 0.500000 0.500000 0.438436
O O9 0.500000 0.772022 0.500000
O O10 0.500000 0.699629 0.867156
O O11 0.369032 0.500000 0.888296
O O12 0.365923 0.708392 0.803247
O O13 0.500000 0.744757 0.264429
O O14 0.403949 0.000000 0.233382
#
# Coordination Sequence:
#
# PCOD8266664 Si02
#       5
#    16   8   8  16  16
#     4  11  22  37  58  87 119 154 199 247 306 364
#     4   9  16  26  38  60 100 144 190 245 296 351
#     4   9  20  40  63  85 117 161 205 246 297 363
#     4   9  16  26  42  66  97 140 192 238 297 365
#     4  10  18  31  53  78 109 146 189 242 304 364
#
# _framework density 21.471678000000001
#
# number of rings (size 3 to 8) (size 9 to 14) (size 15 to 20)
#    0.000    2.250    2.500    1.500    0.000    2.000 
#    0.000    2.500    0.000    5.250    0.000    0.000 
#    0.000    1.000    0.500    0.000    0.000    0.000 
#
# Total GULP energy -396777.914619 kJ/mol
# GULP energy per Si atom -12399.309832 kJ/mol
# Density = 2.142281 g / cm^3
# Si number density = 21.471678 Si / 1000 Ang^3
#
#
#
# Elastic Constant Matrix: (Units=GPa)
#
#
# Indices 1 2 3 4 5 6 
#
# 1 87.0213 17.7524 43.4371 0.0000 0.0000 0.0000
# 2 17.7524 120.4703 57.8184 0.0000 0.0000 0.0000
# 3 43.4371 57.8184 159.0143 0.0000 0.0000 0.0000
# 4 0.0000 0.0000 0.0000 23.5237 0.0000 0.0000
# 5 0.0000 0.0000 0.0000 0.0000 1.0957 0.0000
# 6 0.0000 0.0000 0.0000 0.0000 0.0000 19.2322
#
#
#
# Elastic Compliance Matrix: (Units=1/GPa)
#
#
# Indices 1 2 3 4 5 6 
#
# 1 0.013313 -0.000262 -0.003541 0.000000 0.000000 0.000000
# 2 -0.000262 0.010061 -0.003587 0.000000 0.000000 0.000000
# 3 -0.003541 -0.003587 0.008560 0.000000 0.000000 0.000000
# 4 0.000000 0.000000 0.000000 0.042510 0.000000 0.000000
# 5 0.000000 0.000000 0.000000 0.000000 0.912645 0.000000
# 6 0.000000 0.000000 0.000000 0.000000 0.000000 0.051996
#
#
# Mechanical properties :
#
#
# Convention : Reuss Voigt Hill
#
# Bulk Modulus (GPa) = 58.29659 67.16907 62.73283
# Shear Modulus (GPa) = 4.71884 25.27019 14.99451
#
# Velocity S-wave (km/s) = 1.48407 3.43433 2.64548
# Velocity P-wave (km/s) = 5.49054 6.86125 6.21381
#
# Compressibility (1/GPa) = 0.01715366
#
# Stress axis : x y z
#
# Youngs Moduli (GPa) = 75.11724 99.39615 116.82044
#
# Poissons Ratio (x) = 0.02606 0.41368
# Poissons Ratio (y) = 0.01969 0.41898
# Poissons Ratio (z) = 0.26600 0.35649
#
# Static dielectric constant tensor:
#      x y z
#    x 3.803440 0.000000 0.000000 
#    y 0.000000 3.862690 0.000000 
#    z 0.000000 0.000000 3.861870 
# 
# 
# High freq. dielectric constant tensor:
#      x y z
#    x 1.806680 0.000000 0.000000 
#    y 0.000000 1.842660 0.000000 
#    z 0.000000 0.000000 1.832690 
# 
# From -- ./inp_files/66764.got.cif
#   From: 2010.03.12/outbox.cif.g09.slc.cpg/sg65_34_cif.got.tgz:66764.got - 2010.04.10 20:52:16.
