data_PCOD8266368
_publ_section_title
;
Structure prediction by ZEFSAII (Michael W. Deem and Ramdas Pophale) SiO2 
 PCOD8266368
Probable space group: C M M M
;
_chemical_formula_sum "Si O2"
_cell_formula_units_Z 80
_cell_length_a 8.901723
_cell_length_b 28.057897
_cell_length_c 18.362859
_cell_angle_alpha 90.000000
_cell_angle_beta 90.000000
_cell_angle_gamma 90.000000
_cell_volume 4586.374267
_symmetry_space_group_name_H-M "C M M M"
_symmetry_group_IT_number 65
_symmetry_cell_setting 'orthorhombic'
loop_
_space_group_symop_operation_xyz
x,y,z
-x,-y,z
x,-y,-z
-x,y,-z
-x,-y,-z
x,y,-z
-x,y,z
x,-y,z
1/2+x,1/2+y,z
1/2-x,1/2-y,z
1/2+x,1/2-y,-z
1/2-x,1/2+y,-z
1/2-x,1/2-y,-z
1/2+x,1/2+y,-z
1/2-x,1/2+y,z
1/2+x,1/2-y,z
loop_
_atom_site_type_symbol
_atom_site_label
_atom_site_fract_x
_atom_site_fract_y
_atom_site_fract_z
Si Si1 0.178853 0.946451 0.656282
Si Si2 0.678828 0.697682 0.000000
Si Si3 0.327177 0.799561 0.142577
Si Si4 0.328437 0.443772 0.917831
Si Si5 0.829619 0.605161 0.785794
Si Si6 0.835991 0.056427 0.500000
O O1 0.230649 0.910245 0.717702
O O2 0.245556 0.929858 0.576695
O O3 0.000000 0.945831 0.651866
O O4 0.234327 0.000000 0.675672
O O5 0.750000 0.750000 0.000000
O O6 0.742282 0.674750 0.074266
O O7 0.500000 0.696783 0.000000
O O8 0.500000 0.789008 0.121706
O O9 0.250000 0.750000 0.166371
O O10 0.315198 0.837492 0.207909
O O11 0.500000 0.430917 0.897912
O O12 0.303516 0.500000 0.913739
O O13 0.219214 0.419318 0.860684
O O14 0.292754 0.425470 0.000000
O O15 0.000000 0.589907 0.770778
O O16 0.000000 0.080866 0.500000
O O17 0.856133 0.000000 0.500000
#
# Coordination Sequence:
#
# PCOD8266368 Si02
#       6
#    16   8  16  16  16   8
#     4   9  17  31  52  76 102 132 165 197 230 278
#     4  10  18  30  50  70  87 112 149 196 248 295
#     4  10  21  36  50  67  93 123 159 203 249 295
#     4   9  19  35  51  67  90 124 168 208 236 274
#     4  11  23  33  46  71 101 128 158 199 247 293
#     4   7  12  26  49  75 100 127 160 197 232 269
#
# _framework density 17.442972000000001
#
# number of rings (size 3 to 8) (size 9 to 14) (size 15 to 20)
#    0.000    2.500    0.000    5.700    1.400    6.800 
#    0.000    1.500    0.000    1.800    0.000    0.700 
#    0.000    0.000    0.000    0.000    0.000    0.000 
#
# Total GULP energy -495673.449114 kJ/mol
# GULP energy per Si atom -12391.836228 kJ/mol
# Density = 1.740327 g / cm^3
# Si number density = 17.442972 Si / 1000 Ang^3
#
#
#
# Elastic Constant Matrix: (Units=GPa)
#
#
# Indices 1 2 3 4 5 6 
#
# 1 77.1468 28.4592 34.3100 0.0000 0.0000 0.0000
# 2 28.4592 49.5364 45.9253 0.0000 0.0000 0.0000
# 3 34.3100 45.9253 118.8277 0.0000 0.0000 0.0000
# 4 0.0000 0.0000 0.0000 15.8304 0.0000 0.0000
# 5 0.0000 0.0000 0.0000 0.0000 9.7982 0.0000
# 6 0.0000 0.0000 0.0000 0.0000 0.0000 23.1511
#
#
#
# Elastic Compliance Matrix: (Units=1/GPa)
#
#
# Indices 1 2 3 4 5 6 
#
# 1 0.016674 -0.007973 -0.001733 0.000000 0.000000 0.000000
# 2 -0.007973 0.035272 -0.011330 0.000000 0.000000 0.000000
# 3 -0.001733 -0.011330 0.013295 0.000000 0.000000 0.000000
# 4 0.000000 0.000000 0.000000 0.063170 0.000000 0.000000
# 5 0.000000 0.000000 0.000000 0.000000 0.102059 0.000000
# 6 0.000000 0.000000 0.000000 0.000000 0.000000 0.043194
#
#
# Mechanical properties :
#
#
# Convention : Reuss Voigt Hill
#
# Bulk Modulus (GPa) = 43.16107 51.43332 47.29720
# Shear Modulus (GPa) = 15.45793 18.87704 17.16748
#
# Velocity S-wave (km/s) = 2.98014 3.29327 3.14061
# Velocity P-wave (km/s) = 6.05305 6.63411 6.35023
#
# Compressibility (1/GPa) = 0.02316902
#
# Stress axis : x y z
#
# Youngs Moduli (GPa) = 59.97293 28.35140 75.21709
#
# Poissons Ratio (x) = 0.22604 0.13036
# Poissons Ratio (y) = 0.47815 0.85221
# Poissons Ratio (z) = 0.10394 0.32122
#
# Static dielectric constant tensor:
#      x y z
#    x 3.157540 0.000000 0.000000 
#    y 0.000000 3.089970 0.000000 
#    z 0.000000 0.000000 3.580650 
# 
# 
# High freq. dielectric constant tensor:
#      x y z
#    x 1.667010 0.000000 0.000000 
#    y 0.000000 1.653760 0.000000 
#    z 0.000000 0.000000 1.665970 
# 
# From -- ./inp_files/50248.got.cif
#   From: 2010.03.12/outbox.cif.g09.slc.cpg/sg65_26_cif.got.tgz:50248.got - 2010.04.10 20:52:16.
