data_PCOD8266482
_publ_section_title
;
Structure prediction by ZEFSAII (Michael W. Deem and Ramdas Pophale) SiO2 
 PCOD8266482
Probable space group: C M M M
;
_chemical_formula_sum "Si O2"
_cell_formula_units_Z 88
_cell_length_a 9.320487
_cell_length_b 28.256294
_cell_length_c 19.447450
_cell_angle_alpha 90.000000
_cell_angle_beta 90.000000
_cell_angle_gamma 90.000000
_cell_volume 5121.727512
_symmetry_space_group_name_H-M "C M M M"
_symmetry_group_IT_number 65
_symmetry_cell_setting 'orthorhombic'
loop_
_space_group_symop_operation_xyz
x,y,z
-x,-y,z
x,-y,-z
-x,y,-z
-x,-y,-z
x,y,-z
-x,y,z
x,-y,z
1/2+x,1/2+y,z
1/2-x,1/2-y,z
1/2+x,1/2-y,-z
1/2-x,1/2+y,-z
1/2-x,1/2-y,-z
1/2+x,1/2+y,-z
1/2-x,1/2+y,z
1/2+x,1/2-y,z
loop_
_atom_site_type_symbol
_atom_site_label
_atom_site_fract_x
_atom_site_fract_y
_atom_site_fract_z
Si Si1 0.159014 0.885213 0.680308
Si Si2 0.833289 0.296388 0.696709
Si Si3 0.664808 0.204777 0.858111
Si Si4 0.332113 0.446080 0.808399
Si Si5 0.831972 0.607004 0.079277
Si Si6 0.500000 0.555663 0.579969
O O1 0.265464 0.842569 0.660286
O O2 0.222465 0.913982 0.745122
O O3 0.000000 0.864614 0.699054
O O4 0.141716 0.921115 0.615357
O O5 0.750000 0.250000 0.669837
O O6 0.808534 0.302961 0.777579
O O7 0.000000 0.292097 0.676918
O O8 0.500000 0.214331 0.874847
O O9 0.750000 0.250000 0.885991
O O10 0.722183 0.158904 0.898122
O O11 0.500000 0.438815 0.820908
O O12 0.296102 0.500000 0.789862
O O13 0.249892 0.432701 0.877817
O O14 0.000000 0.602141 0.094490
O O15 0.794988 0.598716 0.000000
O O16 0.500000 0.500000 0.594590
O O17 0.500000 0.567748 0.500000
#
# Coordination Sequence:
#
# PCOD8266482 Si02
#       6
#    16  16  16  16  16   8
#     4   9  18  31  54  83 109 138 176 218 262 314
#     4  10  18  30  51  80 112 141 180 225 269 316
#     4   9  18  31  47  69  97 128 167 213 261 311
#     4  10  20  34  52  73  99 129 170 221 267 313
#     4  10  21  36  50  67  97 135 175 219 269 322
#     4   9  18  34  60  90 117 145 179 217 263 323
#
# _framework density 17.181702999999999
#
# number of rings (size 3 to 8) (size 9 to 14) (size 15 to 20)
#    0.545    1.909    1.818    1.091    0.000    2.909 
#    0.000    1.818    0.000    2.727    0.000    1.273 
#    0.000    0.000    0.000    0.000    0.000    0.000 
#
# Total GULP energy -545536.463392 kJ/mol
# GULP energy per Si atom -12398.555986 kJ/mol
# Density = 1.714260 g / cm^3
# Si number density = 17.181703 Si / 1000 Ang^3
#
#
#
# Elastic Constant Matrix: (Units=GPa)
#
#
# Indices 1 2 3 4 5 6 
#
# 1 63.8602 58.0238 27.3693 0.0000 0.0000 0.0000
# 2 58.0238 125.1010 45.7159 0.0000 0.0000 0.0000
# 3 27.3693 45.7159 74.5485 0.0000 0.0000 0.0000
# 4 0.0000 0.0000 0.0000 24.8383 0.0000 0.0000
# 5 0.0000 0.0000 0.0000 0.0000 14.2433 0.0000
# 6 0.0000 0.0000 0.0000 0.0000 0.0000 34.8038
#
#
#
# Elastic Compliance Matrix: (Units=1/GPa)
#
#
# Indices 1 2 3 4 5 6 
#
# 1 0.027555 -0.011707 -0.002937 0.000000 0.000000 0.000000
# 2 -0.011707 0.015276 -0.005070 0.000000 0.000000 0.000000
# 3 -0.002937 -0.005070 0.017601 0.000000 0.000000 0.000000
# 4 0.000000 0.000000 0.000000 0.040260 0.000000 0.000000
# 5 0.000000 0.000000 0.000000 0.000000 0.070208 0.000000
# 6 0.000000 0.000000 0.000000 0.000000 0.000000 0.028733
#
#
# Mechanical properties :
#
#
# Convention : Reuss Voigt Hill
#
# Bulk Modulus (GPa) = 47.60888 58.41417 53.01153
# Shear Modulus (GPa) = 20.31989 23.60379 21.96184
#
# Velocity S-wave (km/s) = 3.44269 3.71047 3.57909
# Velocity P-wave (km/s) = 6.60091 7.24075 6.92822
#
# Compressibility (1/GPa) = 0.02100448
#
# Stress axis : x y z
#
# Youngs Moduli (GPa) = 36.29065 65.46120 56.81364
#
# Poissons Ratio (x) = 0.76637 0.16687
# Poissons Ratio (y) = 0.42486 0.28803
# Poissons Ratio (z) = 0.10659 0.33188
#
# Static dielectric constant tensor:
#      x y z
#    x 3.065990 0.000000 0.000000 
#    y 0.000000 3.261100 0.000000 
#    z 0.000000 0.000000 2.908820 
# 
# 
# High freq. dielectric constant tensor:
#      x y z
#    x 1.648040 0.000000 0.000000 
#    y 0.000000 1.675000 0.000000 
#    z 0.000000 0.000000 1.630770 
# 
# From -- ./inp_files/60727.got.cif
#   From: 2010.03.12/outbox.cif.g09.slc.cpg/sg65_31_cif.got.tgz:60727.got - 2010.04.10 20:52:16.
