data_PCOD8266010
_publ_section_title
;
Structure prediction by ZEFSAII (Michael W. Deem and Ramdas Pophale) SiO2 
 PCOD8266010
Probable space group: C M M M
;
_chemical_formula_sum "Si O2"
_cell_formula_units_Z 104
_cell_length_a 14.977430
_cell_length_b 23.726157
_cell_length_c 15.889630
_cell_angle_alpha 90.000000
_cell_angle_beta 90.000000
_cell_angle_gamma 90.000000
_cell_volume 5646.488954
_symmetry_space_group_name_H-M "C M M M"
_symmetry_group_IT_number 65
_symmetry_cell_setting 'orthorhombic'
loop_
_space_group_symop_operation_xyz
x,y,z
-x,-y,z
x,-y,-z
-x,y,-z
-x,-y,-z
x,y,-z
-x,y,z
x,-y,z
1/2+x,1/2+y,z
1/2-x,1/2-y,z
1/2+x,1/2-y,-z
1/2-x,1/2+y,-z
1/2-x,1/2-y,-z
1/2+x,1/2+y,-z
1/2-x,1/2+y,z
1/2+x,1/2-y,z
loop_
_atom_site_type_symbol
_atom_site_label
_atom_site_fract_x
_atom_site_fract_y
_atom_site_fract_z
Si Si1 0.220336 0.934203 0.908356
Si Si2 0.101338 0.434995 0.176809
Si Si3 0.645439 0.756370 0.593975
Si Si4 0.395547 0.566204 0.753181
Si Si5 0.101000 0.867911 0.593294
Si Si6 0.102593 0.627329 0.660495
Si Si7 0.393003 0.064158 0.500000
O O1 0.326842 0.923992 0.896533
O O2 0.158958 0.908898 0.833450
O O3 0.199635 0.000000 0.910527
O O4 0.195029 0.907905 0.000000
O O5 0.102756 0.500000 0.205807
O O6 0.140296 0.397382 0.252939
O O7 0.000000 0.418206 0.148285
O O8 0.612445 0.772587 0.500000
O O9 0.750000 0.750000 0.597077
O O10 0.602487 0.697364 0.621479
O O11 0.615428 0.805362 0.657386
O O12 0.500000 0.580798 0.766312
O O13 0.379769 0.500000 0.742532
O O14 0.355390 0.595274 0.668219
O O15 0.147285 0.875537 0.500000
O O16 0.000000 0.888489 0.584552
O O17 0.148257 0.596375 0.580932
O O18 0.000000 0.610621 0.659534
O O19 0.500000 0.067197 0.500000
O O20 0.359150 0.000000 0.500000
#
# Coordination Sequence:
#
# PCOD8266010 Si02
#       7
#    16  16  16  16  16  16   8
#     4   9  18  32  51  74 101 134 166 202 251 305
#     4   9  18  31  48  73 103 132 164 203 246 299
#     4  10  20  31  44  66  94 129 170 215 248 283
#     4   9  18  32  51  77 105 132 165 207 253 303
#     4   9  18  32  50  70  97 133 170 207 247 294
#     4  10  18  29  46  66  93 130 167 203 245 290
#     4   9  16  26  43  66  92 126 165 200 238 287
#
# _framework density 18.418526
#
# number of rings (size 3 to 8) (size 9 to 14) (size 15 to 20)
#    0.000    2.692    0.769    0.923    2.154    3.385 
#    0.000    4.615    0.000    0.000    0.000    2.154 
#    0.000    4.923    0.000    0.000    0.000    0.000 
#
# Total GULP energy -644400.749698 kJ/mol
# GULP energy per Si atom -12392.322110 kJ/mol
# Density = 1.837660 g / cm^3
# Si number density = 18.418526 Si / 1000 Ang^3
#
#
#
# Elastic Constant Matrix: (Units=GPa)
#
#
# Indices 1 2 3 4 5 6 
#
# 1 48.4239 9.8429 36.3529 0.0000 0.0000 0.0000
# 2 9.8429 64.0204 51.6293 0.0000 0.0000 0.0000
# 3 36.3529 51.6293 138.9925 0.0000 0.0000 0.0000
# 4 0.0000 0.0000 0.0000 14.6706 0.0000 0.0000
# 5 0.0000 0.0000 0.0000 0.0000 20.9012 0.0000
# 6 0.0000 0.0000 0.0000 0.0000 0.0000 12.0037
#
#
#
# Elastic Compliance Matrix: (Units=1/GPa)
#
#
# Indices 1 2 3 4 5 6 
#
# 1 0.025895 0.002114 -0.007558 0.000000 0.000000 0.000000
# 2 0.002114 0.022473 -0.008900 0.000000 0.000000 0.000000
# 3 -0.007558 -0.008900 0.012478 0.000000 0.000000 0.000000
# 4 0.000000 0.000000 0.000000 0.068164 0.000000 0.000000
# 5 0.000000 0.000000 0.000000 0.000000 0.047844 0.000000
# 6 0.000000 0.000000 0.000000 0.000000 0.000000 0.083308
#
#
# Mechanical properties :
#
#
# Convention : Reuss Voigt Hill
#
# Bulk Modulus (GPa) = 31.09812 49.67635 40.38723
# Shear Modulus (GPa) = 16.69064 19.75588 18.22326
#
# Velocity S-wave (km/s) = 3.01356 3.27862 3.14888
# Velocity P-wave (km/s) = 5.38791 6.43132 5.93260
#
# Compressibility (1/GPa) = 0.03215629
#
# Stress axis : x y z
#
# Youngs Moduli (GPa) = 38.61720 44.49818 80.14424
#
# Poissons Ratio (x) = -0.09406 0.60573
# Poissons Ratio (y) = -0.08163 0.71332
# Poissons Ratio (z) = 0.29187 0.39606
#
# Static dielectric constant tensor:
#      x y z
#    x 3.289890 0.000000 0.000000 
#    y 0.000000 2.801420 0.000000 
#    z 0.000000 0.000000 3.588940 
# 
# 
# High freq. dielectric constant tensor:
#      x y z
#    x 1.710960 0.000000 0.000000 
#    y 0.000000 1.682560 0.000000 
#    z 0.000000 0.000000 1.698020 
# 
# From -- ./inp_files/43115.got.cif
#   From: 2010.03.12/outbox.cif.g09.slc.cpg/sg65_22_cif.got.tgz:43115.got - 2010.04.10 20:52:16.
