data_PCOD8266894
_publ_section_title
;
Structure prediction by ZEFSAII (Michael W. Deem and Ramdas Pophale) SiO2 
 PCOD8266894
Probable space group: C M M M
;
_chemical_formula_sum "Si O2"
_cell_formula_units_Z 88
_cell_length_a 22.173257
_cell_length_b 13.668236
_cell_length_c 15.979132
_cell_angle_alpha 90.000000
_cell_angle_beta 90.000000
_cell_angle_gamma 90.000000
_cell_volume 4842.784503
_symmetry_space_group_name_H-M "C M M M"
_symmetry_group_IT_number 65
_symmetry_cell_setting 'orthorhombic'
loop_
_space_group_symop_operation_xyz
x,y,z
-x,-y,z
x,-y,-z
-x,y,-z
-x,-y,-z
x,y,-z
-x,y,z
x,-y,z
1/2+x,1/2+y,z
1/2-x,1/2-y,z
1/2+x,1/2-y,-z
1/2-x,1/2+y,-z
1/2-x,1/2-y,-z
1/2+x,1/2+y,-z
1/2-x,1/2+y,z
1/2+x,1/2-y,z
loop_
_atom_site_type_symbol
_atom_site_label
_atom_site_fract_x
_atom_site_fract_y
_atom_site_fract_z
Si Si1 0.656937 0.253328 0.328301
Si Si2 0.655528 0.790834 0.860503
Si Si3 0.928393 0.383592 0.000000
Si Si4 0.274048 0.607994 0.095280
Si Si5 0.256939 0.113635 0.402799
Si Si6 0.929381 0.106108 0.593309
O O1 0.638192 0.221751 0.235527
O O2 0.677206 0.158581 0.381894
O O3 0.709234 0.335857 0.339470
O O4 0.595387 0.300428 0.359216
O O5 0.602306 0.838130 0.916400
O O6 0.670588 0.682790 0.895567
O O7 0.714882 0.858084 0.855632
O O8 0.917940 0.500000 0.000000
O O9 0.000000 0.358811 0.000000
O O10 0.294370 0.500000 0.126093
O O11 0.252913 0.605261 0.000000
O O12 0.240581 0.134329 0.500000
O O13 0.258320 0.000000 0.382712
O O14 0.902594 0.107179 0.500000
O O15 0.000000 0.118036 0.591766
O O16 0.911552 0.000000 0.633585
#
# Coordination Sequence:
#
# PCOD8266894 Si02
#       6
#    16  16   8  16  16  16
#     4  11  21  31  53  80 111 142 174 224 271 311
#     4  11  21  35  54  82 111 136 177 227 269 319
#     4  11  24  43  63  77  99 141 185 226 276 331
#     4  10  18  32  57  80 105 135 169 213 261 310
#     4  10  20  34  52  79 118 157 184 207 252 323
#     4   9  18  34  56  79 103 137 183 228 267 311
#
# _framework density 18.171364000000001
#
# number of rings (size 3 to 8) (size 9 to 14) (size 15 to 20)
#    0.000    1.727    1.818    6.545    0.000    6.545 
#    0.000    0.000    0.000    1.636    0.000    2.545 
#    0.000    0.000    0.000    0.000    0.000    0.000 
#
# Total GULP energy -545263.486486 kJ/mol
# GULP energy per Si atom -12392.351966 kJ/mol
# Density = 1.813001 g / cm^3
# Si number density = 18.171364 Si / 1000 Ang^3
#
#
#
# Elastic Constant Matrix: (Units=GPa)
#
#
# Indices 1 2 3 4 5 6 
#
# 1 74.3850 45.4086 40.9963 0.0000 0.0000 0.0000
# 2 45.4086 140.7945 45.6357 0.0000 0.0000 0.0000
# 3 40.9963 45.6357 105.0953 0.0000 0.0000 0.0000
# 4 0.0000 0.0000 0.0000 9.2174 0.0000 0.0000
# 5 0.0000 0.0000 0.0000 0.0000 20.9571 0.0000
# 6 0.0000 0.0000 0.0000 0.0000 0.0000 31.0333
#
#
#
# Elastic Compliance Matrix: (Units=1/GPa)
#
#
# Indices 1 2 3 4 5 6 
#
# 1 0.019196 -0.004381 -0.005586 0.000000 0.000000 0.000000
# 2 -0.004381 0.009266 -0.002315 0.000000 0.000000 0.000000
# 3 -0.005586 -0.002315 0.012699 0.000000 0.000000 0.000000
# 4 0.000000 0.000000 0.000000 0.108491 0.000000 0.000000
# 5 0.000000 0.000000 0.000000 0.000000 0.047717 0.000000
# 6 0.000000 0.000000 0.000000 0.000000 0.000000 0.032223
#
#
# Mechanical properties :
#
#
# Convention : Reuss Voigt Hill
#
# Bulk Modulus (GPa) = 60.24536 64.92844 62.58690
# Shear Modulus (GPa) = 19.25391 24.79049 22.02220
#
# Velocity S-wave (km/s) = 3.25864 3.69760 3.48504
# Velocity P-wave (km/s) = 6.88363 7.35108 7.12119
#
# Compressibility (1/GPa) = 0.01659879
#
# Stress axis : x y z
#
# Youngs Moduli (GPa) = 52.09318 107.92628 78.74439
#
# Poissons Ratio (x) = 0.47277 0.43987
# Poissons Ratio (y) = 0.22820 0.18226
# Poissons Ratio (z) = 0.29100 0.24981
#
# Static dielectric constant tensor:
#      x y z
#    x 3.124610 0.000000 0.000000 
#    y 0.000000 3.733370 0.000000 
#    z 0.000000 0.000000 3.391010 
# 
# 
# High freq. dielectric constant tensor:
#      x y z
#    x 1.673650 0.000000 0.000000 
#    y 0.000000 1.717180 0.000000 
#    z 0.000000 0.000000 1.702360 
# 
# From -- ./inp_files/45593.got.cif
#   From: 2010.03.12/outbox.cif.g09.slc.cpg/sg65_23_cif.got.tgz:45593.got - 2010.04.10 20:52:16.
