data_PCOD8266665
_publ_section_title
;
Structure prediction by ZEFSAII (Michael W. Deem and Ramdas Pophale) SiO2 
 PCOD8266665
Probable space group: C M M M
;
_chemical_formula_sum "Si O2"
_cell_formula_units_Z 88
_cell_length_a 18.000869
_cell_length_b 18.989668
_cell_length_c 14.277483
_cell_angle_alpha 90.000000
_cell_angle_beta 90.000000
_cell_angle_gamma 90.000000
_cell_volume 4880.479524
_symmetry_space_group_name_H-M "C M M M"
_symmetry_group_IT_number 65
_symmetry_cell_setting 'orthorhombic'
loop_
_space_group_symop_operation_xyz
x,y,z
-x,-y,z
x,-y,-z
-x,y,-z
-x,-y,-z
x,y,-z
-x,y,z
x,-y,z
1/2+x,1/2+y,z
1/2-x,1/2-y,z
1/2+x,1/2-y,-z
1/2-x,1/2+y,-z
1/2-x,1/2-y,-z
1/2+x,1/2+y,-z
1/2-x,1/2+y,z
1/2+x,1/2-y,z
loop_
_atom_site_type_symbol
_atom_site_label
_atom_site_fract_x
_atom_site_fract_y
_atom_site_fract_z
Si Si1 0.654623 0.324384 0.105702
Si Si2 0.084934 0.918755 0.259562
Si Si3 0.000000 0.583797 0.604671
Si Si4 0.142632 0.583444 0.715726
Si Si5 0.714275 0.583253 0.604748
Si Si6 0.673165 0.163375 0.106051
O O1 0.601426 0.370585 0.170312
O O2 0.649874 0.242471 0.132917
O O3 0.739138 0.349338 0.115138
O O4 0.626511 0.335488 0.000000
O O5 0.137175 0.895280 0.345737
O O6 0.000000 0.907950 0.291333
O O7 0.100530 0.000000 0.232139
O O8 0.927059 0.611821 0.656964
O O9 0.000000 0.500000 0.601893
O O10 0.000000 0.614773 0.500000
O O11 0.143953 0.500000 0.720966
O O12 0.216901 0.613147 0.665485
O O13 0.133663 0.611625 0.821184
O O14 0.715589 0.615870 0.500000
O O15 0.722163 0.500000 0.597454
O O16 0.647471 0.145713 0.000000
#
# Coordination Sequence:
#
# PCOD8266665 Si02
#       6
#    16  16   8  16  16  16
#     4   9  18  34  53  73 101 136 171 208 252 306
#     4  10  20  33  51  78 107 136 174 218 261 302
#     4   9  18  32  51  77 105 131 163 208 260 308
#     4  10  18  31  53  79 103 131 169 213 258 303
#     4   9  17  30  50  76 103 133 171 211 254 309
#     4   9  18  33  54  77 100 134 175 207 250 312
#
# _framework density 18.031015
#
# number of rings (size 3 to 8) (size 9 to 14) (size 15 to 20)
#    0.000    2.636    1.818    1.636    0.000    3.636 
#    1.636    5.000    0.000    4.909    0.000    0.000 
#    0.000    0.000    0.000    0.000    0.000    0.000 
#
# Total GULP energy -545546.916364 kJ/mol
# GULP energy per Si atom -12398.793554 kJ/mol
# Density = 1.798998 g / cm^3
# Si number density = 18.031015 Si / 1000 Ang^3
#
#
#
# Elastic Constant Matrix: (Units=GPa)
#
#
# Indices 1 2 3 4 5 6 
#
# 1 121.7480 32.0401 67.2966 0.0000 0.0000 0.0000
# 2 32.0401 31.3721 39.3292 0.0000 0.0000 0.0000
# 3 67.2966 39.3292 145.7666 0.0000 0.0000 0.0000
# 4 0.0000 0.0000 0.0000 6.3167 0.0000 0.0000
# 5 0.0000 0.0000 0.0000 0.0000 28.7235 0.0000
# 6 0.0000 0.0000 0.0000 0.0000 0.0000 18.4447
#
#
#
# Elastic Compliance Matrix: (Units=1/GPa)
#
#
# Indices 1 2 3 4 5 6 
#
# 1 0.012286 -0.008216 -0.003455 0.000000 0.000000 0.000000
# 2 -0.008216 0.053662 -0.010685 0.000000 0.000000 0.000000
# 3 -0.003455 -0.010685 0.011339 0.000000 0.000000 0.000000
# 4 0.000000 0.000000 0.000000 0.158310 0.000000 0.000000
# 5 0.000000 0.000000 0.000000 0.000000 0.034815 0.000000
# 6 0.000000 0.000000 0.000000 0.000000 0.000000 0.054216
#
#
# Mechanical properties :
#
#
# Convention : Reuss Voigt Hill
#
# Bulk Modulus (GPa) = 30.70018 64.02429 47.36224
# Shear Modulus (GPa) = 13.15106 21.37838 17.26472
#
# Velocity S-wave (km/s) = 2.70359 3.44706 3.09771
# Velocity P-wave (km/s) = 5.17776 7.17132 6.25448
#
# Compressibility (1/GPa) = 0.03257309
#
# Stress axis : x y z
#
# Youngs Moduli (GPa) = 81.39534 18.63529 88.19450
#
# Poissons Ratio (x) = 0.15310 0.30474
# Poissons Ratio (y) = 0.66871 0.94240
# Poissons Ratio (z) = 0.28125 0.19913
#
# Static dielectric constant tensor:
#      x y z
#    x 3.320010 0.000000 0.000000 
#    y 0.000000 2.956310 0.000000 
#    z 0.000000 0.000000 3.485910 
# 
# 
# High freq. dielectric constant tensor:
#      x y z
#    x 1.693770 0.000000 0.000000 
#    y 0.000000 1.659450 0.000000 
#    z 0.000000 0.000000 1.707020 
# 
# From -- ./inp_files/28724.got.cif
#   From: 2010.03.12/outbox.cif.g09.slc.cpg/sg65_15_cif.got.tgz:28724.got - 2010.04.10 20:52:16.
