data_PCOD8266552
_publ_section_title
;
Structure prediction by ZEFSAII (Michael W. Deem and Ramdas Pophale) SiO2 
 PCOD8266552
Probable space group: C M M M
;
_chemical_formula_sum "Si O2"
_cell_formula_units_Z 112
_cell_length_a 24.777054
_cell_length_b 14.572759
_cell_length_c 15.709897
_cell_angle_alpha 90.000000
_cell_angle_beta 90.000000
_cell_angle_gamma 90.000000
_cell_volume 5672.373086
_symmetry_space_group_name_H-M "C M M M"
_symmetry_group_IT_number 65
_symmetry_cell_setting 'orthorhombic'
loop_
_space_group_symop_operation_xyz
x,y,z
-x,-y,z
x,-y,-z
-x,y,-z
-x,-y,-z
x,y,-z
-x,y,z
x,-y,z
1/2+x,1/2+y,z
1/2-x,1/2-y,z
1/2+x,1/2-y,-z
1/2-x,1/2+y,-z
1/2-x,1/2-y,-z
1/2+x,1/2+y,-z
1/2-x,1/2+y,z
1/2+x,1/2-y,z
loop_
_atom_site_type_symbol
_atom_site_label
_atom_site_fract_x
_atom_site_fract_y
_atom_site_fract_z
Si Si1 0.231111 0.650747 0.160914
Si Si2 0.937698 0.400003 0.759143
Si Si3 0.621785 0.208630 0.097612
Si Si4 0.825927 0.217694 0.595975
Si Si5 0.560786 0.781128 0.402800
Si Si6 0.268587 0.103788 0.655957
Si Si7 0.842781 0.097600 0.098708
O O1 0.250000 0.750000 0.193269
O O2 0.179976 0.659311 0.098463
O O3 0.214599 0.595224 0.245368
O O4 0.278450 0.600891 0.110422
O O5 0.909566 0.500000 0.762240
O O6 0.917819 0.338192 0.836589
O O7 0.927445 0.360888 0.664889
O O8 0.000000 0.410668 0.776402
O O9 0.626946 0.312877 0.134858
O O10 0.600169 0.204461 0.000000
O O11 0.811059 0.191781 0.500000
O O12 0.890754 0.207336 0.611640
O O13 0.792951 0.144358 0.652578
O O14 0.808663 0.324322 0.610384
O O15 0.564976 0.819480 0.500000
O O16 0.500000 0.739397 0.388275
O O17 0.271581 0.000000 0.616846
O O18 0.863694 0.000000 0.138247
O O19 0.855093 0.097905 0.000000
#
# Coordination Sequence:
#
# PCOD8266552 Si02
#       7
#    16  16  16  16  16  16  16
#     4  10  18  31  49  74 107 139 176 218 264 313
#     4  10  22  38  56  80 109 142 182 228 277 332
#     4  10  21  35  54  78 109 151 190 226 274 329
#     4  10  21  36  53  77 108 143 183 228 280 339
#     4   9  19  37  61  85 109 141 183 235 292 340
#     4  11  21  33  51  77 109 148 186 224 272 328
#     4   9  18  32  50  75 105 136 175 223 270 315
#
# _framework density 19.744823
#
# number of rings (size 3 to 8) (size 9 to 14) (size 15 to 20)
#    0.000    2.143    1.429    2.571    2.000    6.571 
#    0.000    3.571    0.000    0.857    0.000    6.000 
#    0.000    0.000    0.000    0.000    0.000    0.286 
#
# Total GULP energy -693744.688344 kJ/mol
# GULP energy per Si atom -12388.298006 kJ/mol
# Density = 1.969988 g / cm^3
# Si number density = 19.744823 Si / 1000 Ang^3
#
#
#
# Elastic Constant Matrix: (Units=GPa)
#
#
# Indices 1 2 3 4 5 6 
#
# 1 61.6566 15.2394 21.4285 0.0000 0.0000 0.0000
# 2 15.2394 92.1640 24.8575 0.0000 0.0000 0.0000
# 3 21.4285 24.8575 82.1165 0.0000 0.0000 0.0000
# 4 0.0000 0.0000 0.0000 15.5697 0.0000 0.0000
# 5 0.0000 0.0000 0.0000 0.0000 32.5889 0.0000
# 6 0.0000 0.0000 0.0000 0.0000 0.0000 10.1472
#
#
#
# Elastic Compliance Matrix: (Units=1/GPa)
#
#
# Indices 1 2 3 4 5 6 
#
# 1 0.018129 -0.001875 -0.004163 0.000000 0.000000 0.000000
# 2 -0.001875 0.012009 -0.003146 0.000000 0.000000 0.000000
# 3 -0.004163 -0.003146 0.014217 0.000000 0.000000 0.000000
# 4 0.000000 0.000000 0.000000 0.064227 0.000000 0.000000
# 5 0.000000 0.000000 0.000000 0.000000 0.030685 0.000000
# 6 0.000000 0.000000 0.000000 0.000000 0.000000 0.098550
#
#
# Mechanical properties :
#
#
# Convention : Reuss Voigt Hill
#
# Bulk Modulus (GPa) = 38.48176 39.88757 39.18467
# Shear Modulus (GPa) = 18.87881 23.28858 21.08370
#
# Velocity S-wave (km/s) = 3.09551 3.43808 3.27128
# Velocity P-wave (km/s) = 5.68402 6.00049 5.84440
#
# Compressibility (1/GPa) = 0.02598634
#
# Stress axis : x y z
#
# Youngs Moduli (GPa) = 55.15967 83.27285 70.34054
#
# Poissons Ratio (x) = 0.15612 0.29285
# Poissons Ratio (y) = 0.10341 0.22129
# Poissons Ratio (z) = 0.22965 0.26197
#
# Static dielectric constant tensor:
#      x y z
#    x 3.614710 0.000000 0.000000 
#    y 0.000000 2.583000 0.000000 
#    z 0.000000 0.000000 3.506070 
# 
# 
# High freq. dielectric constant tensor:
#      x y z
#    x 1.753940 0.000000 0.000000 
#    y 0.000000 1.750870 0.000000 
#    z 0.000000 0.000000 1.772080 
# 
# From -- ./inp_files/41088.got.cif
#   From: 2010.03.12/outbox.cif.g09.slc.cpg/sg65_21_cif.got.tgz:41088.got - 2010.04.10 20:52:16.
