data_PCOD8266392
_publ_section_title
;
Structure prediction by ZEFSAII (Michael W. Deem and Ramdas Pophale) SiO2 
 PCOD8266392
Probable space group: C M M M
;
_chemical_formula_sum "Si O2"
_cell_formula_units_Z 64
_cell_length_a 8.918621
_cell_length_b 27.742764
_cell_length_c 13.196692
_cell_angle_alpha 90.000000
_cell_angle_beta 90.000000
_cell_angle_gamma 90.000000
_cell_volume 3265.220519
_symmetry_space_group_name_H-M "C M M M"
_symmetry_group_IT_number 65
_symmetry_cell_setting 'orthorhombic'
loop_
_space_group_symop_operation_xyz
x,y,z
-x,-y,z
x,-y,-z
-x,y,-z
-x,-y,-z
x,y,-z
-x,y,z
x,-y,z
1/2+x,1/2+y,z
1/2-x,1/2-y,z
1/2+x,1/2-y,-z
1/2-x,1/2+y,-z
1/2-x,1/2-y,-z
1/2+x,1/2+y,-z
1/2-x,1/2+y,z
1/2+x,1/2-y,z
loop_
_atom_site_type_symbol
_atom_site_label
_atom_site_fract_x
_atom_site_fract_y
_atom_site_fract_z
Si Si1 0.324999 0.699361 0.700712
Si Si2 0.820915 0.944849 0.000000
Si Si3 0.827324 0.896257 0.799494
Si Si4 0.679303 0.197064 0.500000
Si Si5 0.330194 0.057040 0.612379
O O1 0.500000 0.708108 0.676261
O O2 0.250000 0.750000 0.731629
O O3 0.302489 0.661625 0.792732
O O4 0.243307 0.674000 0.603587
O O5 0.752019 0.917774 0.901267
O O6 0.000000 0.942030 0.000000
O O7 0.765131 0.000000 0.000000
O O8 0.772388 0.921444 0.698412
O O9 0.000000 0.909115 0.805580
O O10 0.500000 0.196759 0.500000
O O11 0.750000 0.250000 0.500000
O O12 0.282537 0.076040 0.500000
O O13 0.500000 0.073351 0.633413
O O14 0.315481 0.000000 0.614940
#
# Coordination Sequence:
#
# PCOD8266392 Si02
#       5
#    16   8  16   8  16
#     4  10  20  34  51  76 110 144 182 225 269 319
#     4   9  18  36  60  83 107 137 177 227 282 329
#     4  10  21  35  56  82 107 139 184 231 271 320
#     4  10  18  30  50  74 103 142 181 218 264 315
#     4   9  19  35  53  77 111 145 175 214 271 335
#
# _framework density 19.600512999999999
#
# number of rings (size 3 to 8) (size 9 to 14) (size 15 to 20)
#    0.000    2.375    0.000    4.875    1.750    4.000 
#    0.000    2.500    0.000    2.250    0.000    0.000 
#    0.000    0.000    0.000    0.000    0.000    0.000 
#
# Total GULP energy -396603.803765 kJ/mol
# GULP energy per Si atom -12393.868868 kJ/mol
# Density = 1.955590 g / cm^3
# Si number density = 19.600513 Si / 1000 Ang^3
#
#
#
# Elastic Constant Matrix: (Units=GPa)
#
#
# Indices 1 2 3 4 5 6 
#
# 1 76.5176 39.3808 38.4076 0.0000 0.0000 0.0000
# 2 39.3808 82.3052 80.3309 0.0000 0.0000 0.0000
# 3 38.4076 80.3309 149.4008 0.0000 0.0000 0.0000
# 4 0.0000 0.0000 0.0000 35.0800 0.0000 0.0000
# 5 0.0000 0.0000 0.0000 0.0000 2.5003 0.0000
# 6 0.0000 0.0000 0.0000 0.0000 0.0000 25.4285
#
#
#
# Elastic Compliance Matrix: (Units=1/GPa)
#
#
# Indices 1 2 3 4 5 6 
#
# 1 0.017339 -0.008303 0.000007 0.000000 0.000000 0.000000
# 2 -0.008303 0.029543 -0.013751 0.000000 0.000000 0.000000
# 3 0.000007 -0.013751 0.014085 0.000000 0.000000 0.000000
# 4 0.000000 0.000000 0.000000 0.028506 0.000000 0.000000
# 5 0.000000 0.000000 0.000000 0.000000 0.399948 0.000000
# 6 0.000000 0.000000 0.000000 0.000000 0.000000 0.039326
#
#
# Mechanical properties :
#
#
# Convention : Reuss Voigt Hill
#
# Bulk Modulus (GPa) = 59.26241 69.38468 64.32355
# Shear Modulus (GPa) = 8.64357 22.60872 15.62615
#
# Velocity S-wave (km/s) = 2.10225 3.39997 2.82659
# Velocity P-wave (km/s) = 6.01609 7.13368 6.59859
#
# Compressibility (1/GPa) = 0.01687410
#
# Stress axis : x y z
#
# Youngs Moduli (GPa) = 57.67494 33.84854 70.99679
#
# Poissons Ratio (x) = 0.28104 -0.00050
# Poissons Ratio (y) = 0.47887 0.97625
# Poissons Ratio (z) = -0.00040 0.46544
#
# Static dielectric constant tensor:
#      x y z
#    x 3.447940 0.000000 0.000000 
#    y 0.000000 3.669280 0.000000 
#    z 0.000000 0.000000 4.004310 
# 
# 
# High freq. dielectric constant tensor:
#      x y z
#    x 1.746170 0.000000 0.000000 
#    y 0.000000 1.773880 0.000000 
#    z 0.000000 0.000000 1.754220 
# 
# From -- ./inp_files/36841.got.cif
#   From: 2010.03.12/outbox.cif.g09.slc.cpg/sg65_19_cif.got.tgz:36841.got - 2010.04.10 20:52:16.
