data_PCOD8266200
_publ_section_title
;
Structure prediction by ZEFSAII (Michael W. Deem and Ramdas Pophale) SiO2 
 PCOD8266200
Probable space group: C M M M
;
_chemical_formula_sum "Si O2"
_cell_formula_units_Z 112
_cell_length_a 16.559600
_cell_length_b 28.049396
_cell_length_c 14.250394
_cell_angle_alpha 90.000000
_cell_angle_beta 90.000000
_cell_angle_gamma 90.000000
_cell_volume 6619.119594
_symmetry_space_group_name_H-M "C M M M"
_symmetry_group_IT_number 65
_symmetry_cell_setting 'orthorhombic'
loop_
_space_group_symop_operation_xyz
x,y,z
-x,-y,z
x,-y,-z
-x,y,-z
-x,-y,-z
x,y,-z
-x,y,z
x,-y,z
1/2+x,1/2+y,z
1/2-x,1/2-y,z
1/2+x,1/2-y,-z
1/2-x,1/2+y,-z
1/2-x,1/2-y,-z
1/2+x,1/2+y,-z
1/2-x,1/2+y,z
1/2+x,1/2-y,z
loop_
_atom_site_type_symbol
_atom_site_label
_atom_site_fract_x
_atom_site_fract_y
_atom_site_fract_z
Si Si1 0.157182 0.262827 0.104544
Si Si2 0.676102 0.360054 0.288503
Si Si3 0.847270 0.310980 0.288505
Si Si4 0.092928 0.159922 0.894370
Si Si5 0.411277 0.103002 0.607277
Si Si6 0.751591 0.945920 0.390233
Si Si7 0.906534 0.779369 0.392169
O O1 0.250000 0.250000 0.123203
O O2 0.130391 0.302736 0.179142
O O3 0.102287 0.216480 0.120191
O O4 0.145225 0.283752 0.000000
O O5 0.757061 0.329879 0.298738
O O6 0.649060 0.367670 0.180311
O O7 0.687401 0.412209 0.333313
O O8 0.607595 0.330549 0.343312
O O9 0.908442 0.349734 0.329551
O O10 0.853080 0.261336 0.343655
O O11 0.000000 0.145991 0.878429
O O12 0.120898 0.145890 0.000000
O O13 0.398924 0.119541 0.500000
O O14 0.500000 0.079401 0.621177
O O15 0.341919 0.065459 0.635233
O O16 0.767476 0.938170 0.500000
O O17 0.769171 0.000000 0.359885
O O18 0.880145 0.783330 0.500000
O O19 0.000000 0.765835 0.381504
#
# Coordination Sequence:
#
# PCOD8266200 Si02
#       7
#    16  16  16  16  16  16  16
#     4  10  18  30  46  67  97 133 170 202 234 277
#     4  11  20  32  50  72  96 126 163 199 243 291
#     4  11  19  29  45  70 100 135 164 196 234 278
#     4  10  20  33  50  72  97 127 163 201 240 283
#     4   9  18  31  48  72 102 134 165 198 237 283
#     4   9  19  35  54  75  97 123 160 206 250 291
#     4  11  22  32  44  65  96 134 169 199 233 280
#
# _framework density 16.920679
#
# number of rings (size 3 to 8) (size 9 to 14) (size 15 to 20)
#    0.000    1.857    2.857    2.143    0.000    4.286 
#    0.000    1.429    0.000    2.143    0.000    6.000 
#    0.000    0.000    0.000    6.286    0.000    0.286 
#
# Total GULP energy -694406.827885 kJ/mol
# GULP energy per Si atom -12400.121927 kJ/mol
# Density = 1.688217 g / cm^3
# Si number density = 16.920679 Si / 1000 Ang^3
#
#
#
# Elastic Constant Matrix: (Units=GPa)
#
#
# Indices 1 2 3 4 5 6 
#
# 1 59.9778 27.0625 28.0902 0.0000 0.0000 0.0000
# 2 27.0625 98.2986 51.8179 0.0000 0.0000 0.0000
# 3 28.0902 51.8179 109.3772 0.0000 0.0000 0.0000
# 4 0.0000 0.0000 0.0000 18.5703 0.0000 0.0000
# 5 0.0000 0.0000 0.0000 0.0000 23.5788 0.0000
# 6 0.0000 0.0000 0.0000 0.0000 0.0000 14.2185
#
#
#
# Elastic Compliance Matrix: (Units=1/GPa)
#
#
# Indices 1 2 3 4 5 6 
#
# 1 0.019921 -0.003715 -0.003356 0.000000 0.000000 0.000000
# 2 -0.003715 0.014252 -0.005798 0.000000 0.000000 0.000000
# 3 -0.003356 -0.005798 0.012751 0.000000 0.000000 0.000000
# 4 0.000000 0.000000 0.000000 0.053849 0.000000 0.000000
# 5 0.000000 0.000000 0.000000 0.000000 0.042411 0.000000
# 6 0.000000 0.000000 0.000000 0.000000 0.000000 0.070331
#
#
# Mechanical properties :
#
#
# Convention : Reuss Voigt Hill
#
# Bulk Modulus (GPa) = 47.20051 53.51053 50.35552
# Shear Modulus (GPa) = 20.29909 21.98571 21.14240
#
# Velocity S-wave (km/s) = 3.46737 3.60855 3.53866
# Velocity P-wave (km/s) = 6.63219 7.00394 6.82060
#
# Compressibility (1/GPa) = 0.02118621
#
# Stress axis : x y z
#
# Youngs Moduli (GPa) = 50.19838 70.16411 78.42322
#
# Poissons Ratio (x) = 0.26068 0.26318
# Poissons Ratio (y) = 0.18650 0.45469
# Poissons Ratio (z) = 0.16846 0.40681
#
# Static dielectric constant tensor:
#      x y z
#    x 3.162980 0.000000 0.000000 
#    y 0.000000 2.907880 0.000000 
#    z 0.000000 0.000000 3.384270 
# 
# 
# High freq. dielectric constant tensor:
#      x y z
#    x 1.654520 0.000000 0.000000 
#    y 0.000000 1.609530 0.000000 
#    z 0.000000 0.000000 1.658110 
# 
# From -- ./inp_files/41076.got.cif
#   From: 2010.03.12/outbox.cif.g09.slc.cpg/sg65_21_cif.got.tgz:41076.got - 2010.04.10 20:52:16.
