data_PCOD8266199
_publ_section_title
;
Structure prediction by ZEFSAII (Michael W. Deem and Ramdas Pophale) SiO2 
 PCOD8266199
Probable space group: C M M M
;
_chemical_formula_sum "Si O2"
_cell_formula_units_Z 56
_cell_length_a 8.591266
_cell_length_b 24.510066
_cell_length_c 14.433567
_cell_angle_alpha 90.000000
_cell_angle_beta 90.000000
_cell_angle_gamma 90.000000
_cell_volume 3039.312239
_symmetry_space_group_name_H-M "C M M M"
_symmetry_group_IT_number 65
_symmetry_cell_setting 'orthorhombic'
loop_
_space_group_symop_operation_xyz
x,y,z
-x,-y,z
x,-y,-z
-x,y,-z
-x,-y,-z
x,y,-z
-x,y,z
x,-y,z
1/2+x,1/2+y,z
1/2-x,1/2-y,z
1/2+x,1/2-y,-z
1/2-x,1/2+y,-z
1/2-x,1/2-y,-z
1/2+x,1/2+y,-z
1/2-x,1/2+y,z
1/2+x,1/2-y,z
loop_
_atom_site_type_symbol
_atom_site_label
_atom_site_fract_x
_atom_site_fract_y
_atom_site_fract_z
Si Si1 0.316896 0.690302 0.188934
Si Si2 0.815435 0.414891 0.752086
Si Si3 0.316230 0.000000 0.397568
Si Si4 0.315348 0.189642 0.000000
Si Si5 0.315481 0.500000 0.891876
O O1 0.500000 0.696112 0.184795
O O2 0.250000 0.750000 0.212443
O O3 0.260880 0.645076 0.262270
O O4 0.251595 0.663508 0.093418
O O5 0.763660 0.446750 0.659459
O O6 0.752823 0.446060 0.842991
O O7 0.000000 0.409943 0.761050
O O8 0.500000 0.000000 0.407192
O O9 0.238964 0.000000 0.500000
O O10 0.250000 0.250000 0.000000
O O11 0.500000 0.188136 0.000000
O O12 0.500000 0.500000 0.881159
O O13 0.265581 0.500000 0.000000
#
# Coordination Sequence:
#
# PCOD8266199 Si02
#       5
#    16  16   8   8   8
#     4  11  21  34  51  73 106 143 182 222 263 310
#     4  10  20  34  54  80 107 137 177 220 266 319
#     4   8  16  34  60  85 106 131 168 216 270 326
#     4  10  18  30  46  67  96 135 182 220 253 296
#     4  10  21  35  50  71 104 143 181 219 261 309
#
# _framework density 18.425221000000001
#
# number of rings (size 3 to 8) (size 9 to 14) (size 15 to 20)
#    0.000    2.000    0.000    7.714    2.000    1.143 
#    0.000    0.000    0.000   16.286    0.000    0.000 
#    0.000    0.000    0.000    0.000    0.000    0.000 
#
# Total GULP energy -347046.686816 kJ/mol
# GULP energy per Si atom -12394.524529 kJ/mol
# Density = 1.838328 g / cm^3
# Si number density = 18.425221 Si / 1000 Ang^3
#
#
#
# Elastic Constant Matrix: (Units=GPa)
#
#
# Indices 1 2 3 4 5 6 
#
# 1 137.4656 52.8066 38.5373 0.0000 0.0000 0.0000
# 2 52.8066 148.8181 60.9192 0.0000 0.0000 0.0000
# 3 38.5373 60.9192 118.2849 0.0000 0.0000 0.0000
# 4 0.0000 0.0000 0.0000 10.7123 0.0000 0.0000
# 5 0.0000 0.0000 0.0000 0.0000 12.3505 0.0000
# 6 0.0000 0.0000 0.0000 0.0000 0.0000 34.1958
#
#
#
# Elastic Compliance Matrix: (Units=1/GPa)
#
#
# Indices 1 2 3 4 5 6 
#
# 1 0.008646 -0.002426 -0.001567 0.000000 0.000000 0.000000
# 2 -0.002426 0.009196 -0.003945 0.000000 0.000000 0.000000
# 3 -0.001567 -0.003945 0.010997 0.000000 0.000000 0.000000
# 4 0.000000 0.000000 0.000000 0.093350 0.000000 0.000000
# 5 0.000000 0.000000 0.000000 0.000000 0.080968 0.000000
# 6 0.000000 0.000000 0.000000 0.000000 0.000000 0.029243
#
#
# Mechanical properties :
#
#
# Convention : Reuss Voigt Hill
#
# Bulk Modulus (GPa) = 77.15875 78.78830 77.97353
# Shear Modulus (GPa) = 19.79425 28.27209 24.03317
#
# Velocity S-wave (km/s) = 3.28121 3.92142 3.61551
# Velocity P-wave (km/s) = 7.50485 7.95973 7.73563
#
# Compressibility (1/GPa) = 0.01296029
#
# Stress axis : x y z
#
# Youngs Moduli (GPa) = 115.66051 108.74676 90.93592
#
# Poissons Ratio (x) = 0.26386 0.14252
# Poissons Ratio (y) = 0.28064 0.35878
# Poissons Ratio (z) = 0.18127 0.42905
#
# Static dielectric constant tensor:
#      x y z
#    x 3.353520 0.000000 0.000000 
#    y 0.000000 3.604450 0.000000 
#    z 0.000000 0.000000 2.412360 
# 
# 
# High freq. dielectric constant tensor:
#      x y z
#    x 1.720850 0.000000 0.000000 
#    y 0.000000 1.721990 0.000000 
#    z 0.000000 0.000000 1.680200 
# 
# From -- ./inp_files/35825.got.cif
#   From: 2010.03.12/outbox.cif.g09.slc.cpg/sg65_18_cif.got.tgz:35825.got - 2010.04.10 20:52:16.
