data_PCOD8266616
_publ_section_title
;
Structure prediction by ZEFSAII (Michael W. Deem and Ramdas Pophale) SiO2 
 PCOD8266616
Probable space group: C M M M
;
_chemical_formula_sum "Si O2"
_cell_formula_units_Z 72
_cell_length_a 15.010875
_cell_length_b 30.481017
_cell_length_c 7.822320
_cell_angle_alpha 90.000000
_cell_angle_beta 90.000000
_cell_angle_gamma 90.000000
_cell_volume 3579.076984
_symmetry_space_group_name_H-M "C M M M"
_symmetry_group_IT_number 65
_symmetry_cell_setting 'orthorhombic'
loop_
_space_group_symop_operation_xyz
x,y,z
-x,-y,z
x,-y,-z
-x,y,-z
-x,-y,-z
x,y,-z
-x,y,z
x,-y,z
1/2+x,1/2+y,z
1/2-x,1/2-y,z
1/2+x,1/2-y,-z
1/2-x,1/2+y,-z
1/2-x,1/2-y,-z
1/2+x,1/2+y,-z
1/2-x,1/2+y,z
1/2+x,1/2-y,z
loop_
_atom_site_type_symbol
_atom_site_label
_atom_site_fract_x
_atom_site_fract_y
_atom_site_fract_z
Si Si1 0.000000 0.268980 0.203468
Si Si2 0.500000 0.329637 0.796819
Si Si3 0.097098 0.551763 0.000000
Si Si4 0.194120 0.291699 0.203191
Si Si5 0.682369 0.629542 0.796974
Si Si6 0.781408 0.549870 0.691636
O O1 0.908604 0.291814 0.270741
O O2 0.000000 0.219547 0.274928
O O3 0.000000 0.269008 0.000000
O O4 0.412826 0.354385 0.728708
O O5 0.500000 0.328077 0.000000
O O6 0.146150 0.567244 0.827856
O O7 0.087550 0.500000 0.000000
O O8 0.000000 0.574193 0.000000
O O9 0.250000 0.250000 0.274813
O O10 0.241717 0.336282 0.264864
O O11 0.194569 0.288890 0.000000
O O12 0.697581 0.582209 0.709821
O O13 0.683066 0.624513 0.000000
O O14 0.821357 0.552107 0.500000
O O15 0.751338 0.500000 0.734528
#
# Coordination Sequence:
#
# PCOD8266616 Si02
#       6
#     8   8   8  16  16  16
#     4   9  14  24  40  70 107 144 185 234 282 343
#     4   9  16  26  48  76 109 144 196 244 286 342
#     4   9  18  36  62  87 110 143 191 239 283 339
#     4   9  15  24  42  70 106 141 183 232 287 345
#     4  10  18  31  51  80 109 149 194 242 291 345
#     4  10  21  38  59  83 116 155 191 236 293 343
#
# _framework density 20.116917999999998
#
# number of rings (size 3 to 8) (size 9 to 14) (size 15 to 20)
#    0.000    2.556    3.333    0.000    0.000    0.444 
#    2.000    3.333    0.000    4.000    0.000    0.000 
#    0.000    0.000    0.000    0.000    0.000    0.000 
#
# Total GULP energy -446208.483194 kJ/mol
# GULP energy per Si atom -12394.680089 kJ/mol
# Density = 2.007113 g / cm^3
# Si number density = 20.116918 Si / 1000 Ang^3
#
#
#
# Elastic Constant Matrix: (Units=GPa)
#
#
# Indices 1 2 3 4 5 6 
#
# 1 185.6263 75.2505 29.0175 0.0000 0.0000 0.0000
# 2 75.2505 117.6827 23.6113 0.0000 0.0000 0.0000
# 3 29.0175 23.6113 63.3817 0.0000 0.0000 0.0000
# 4 0.0000 0.0000 0.0000 6.2733 0.0000 0.0000
# 5 0.0000 0.0000 0.0000 0.0000 0.0299 0.0000
# 6 0.0000 0.0000 0.0000 0.0000 0.0000 25.6874
#
#
#
# Elastic Compliance Matrix: (Units=1/GPa)
#
#
# Indices 1 2 3 4 5 6 
#
# 1 0.007451 -0.004410 -0.001769 0.000000 0.000000 0.000000
# 2 -0.004410 0.011794 -0.002375 0.000000 0.000000 0.000000
# 3 -0.001769 -0.002375 0.017472 0.000000 0.000000 0.000000
# 4 0.000000 0.000000 0.000000 0.159406 0.000000 0.000000
# 5 0.000000 0.000000 0.000000 0.000000 33.395144 0.000000
# 6 0.000000 0.000000 0.000000 0.000000 0.000000 0.038930
#
#
# Mechanical properties :
#
#
# Convention : Reuss Voigt Hill
#
# Bulk Modulus (GPa) = 50.99238 69.16103 60.07670
# Shear Modulus (GPa) = 0.14857 22.31889 11.23373
#
# Velocity S-wave (km/s) = 0.27206 3.33447 2.36566
# Velocity P-wave (km/s) = 5.04992 7.01991 6.11477
#
# Compressibility (1/GPa) = 0.01961077
#
# Stress axis : x y z
#
# Youngs Moduli (GPa) = 134.20456 84.79170 57.23544
#
# Poissons Ratio (x) = 0.37391 0.10123
# Poissons Ratio (y) = 0.59181 0.13591
# Poissons Ratio (z) = 0.23736 0.20134
#
# Static dielectric constant tensor:
#      x y z
#    x 3.952830 0.000000 0.000000 
#    y 0.000000 3.634370 0.000000 
#    z 0.000000 0.000000 3.233830 
# 
# 
# High freq. dielectric constant tensor:
#      x y z
#    x 1.779680 0.000000 0.000000 
#    y 0.000000 1.777980 0.000000 
#    z 0.000000 0.000000 1.751640 
# 
# From -- ./inp_files/7425.got.cif
#   From: 2010.03.12/outbox.cif.g09.slc.cpg/sg65_4_cif.got.tgz:7425.got - 2010.04.10 20:52:16.
