data_PCOD8266004
_publ_section_title
;
Structure prediction by ZEFSAII (Michael W. Deem and Ramdas Pophale) SiO2 
 PCOD8266004
Probable space group: C M M M
;
_chemical_formula_sum "Si O2"
_cell_formula_units_Z 80
_cell_length_a 9.092306
_cell_length_b 28.355171
_cell_length_c 20.733563
_cell_angle_alpha 90.000000
_cell_angle_beta 90.000000
_cell_angle_gamma 90.000000
_cell_volume 5345.400560
_symmetry_space_group_name_H-M "C M M M"
_symmetry_group_IT_number 65
_symmetry_cell_setting 'orthorhombic'
loop_
_space_group_symop_operation_xyz
x,y,z
-x,-y,z
x,-y,-z
-x,y,-z
-x,-y,-z
x,y,-z
-x,y,z
x,-y,z
1/2+x,1/2+y,z
1/2-x,1/2-y,z
1/2+x,1/2-y,-z
1/2-x,1/2+y,-z
1/2-x,1/2-y,-z
1/2+x,1/2+y,-z
1/2-x,1/2+y,z
1/2+x,1/2-y,z
loop_
_atom_site_type_symbol
_atom_site_label
_atom_site_fract_x
_atom_site_fract_y
_atom_site_fract_z
Si Si1 0.173456 0.112052 0.878404
Si Si2 0.172437 0.701722 0.925359
Si Si3 0.671305 0.554073 0.752268
Si Si4 0.665639 0.943874 0.374916
Si Si5 0.674537 0.447509 0.000000
Si Si6 0.166007 0.943715 0.500000
O O1 0.259669 0.161137 0.880722
O O2 0.215856 0.085983 0.812616
O O3 0.000000 0.121757 0.883874
O O4 0.230240 0.079423 0.936675
O O5 0.250000 0.750000 0.904706
O O6 0.000000 0.706307 0.912252
O O7 0.206589 0.690082 0.000000
O O8 0.500000 0.557915 0.736259
O O9 0.713948 0.500000 0.768076
O O10 0.758147 0.573877 0.690554
O O11 0.500000 0.924377 0.377209
O O12 0.752472 0.923763 0.436675
O O13 0.668258 0.000000 0.376834
O O14 0.742539 0.500000 0.000000
O O15 0.500000 0.450722 0.000000
O O16 0.000000 0.924539 0.500000
O O17 0.168166 0.000000 0.500000
#
# Coordination Sequence:
#
# PCOD8266004 Si02
#       6
#    16  16  16  16   8   8
#     4  10  18  29  46  65  85 110 142 179 217 256
#     4  10  20  33  49  66  84 104 132 172 220 270
#     4   9  17  28  41  59  84 115 149 180 210 249
#     4   9  16  25  37  54  77 107 142 178 214 251
#     4   9  16  26  42  63  84 109 144 181 212 245
#     4   9  15  23  37  55  75 101 136 179 218 251
#
# _framework density 14.966137
#
# number of rings (size 3 to 8) (size 9 to 14) (size 15 to 20)
#    0.000    2.600    1.000    2.100    0.000    7.600 
#    0.000    0.000    0.000    2.400    0.000    0.000 
#    0.000    0.000    0.000    0.900    0.000   12.100 
#
# Total GULP energy -496028.050715 kJ/mol
# GULP energy per Si atom -12400.701268 kJ/mol
# Density = 1.493207 g / cm^3
# Si number density = 14.966137 Si / 1000 Ang^3
#
#
#
# Elastic Constant Matrix: (Units=GPa)
#
#
# Indices 1 2 3 4 5 6 
#
# 1 85.6179 40.2510 64.6118 0.0000 0.0000 0.0000
# 2 40.2510 78.3866 48.8132 0.0000 0.0000 0.0000
# 3 64.6118 48.8132 134.2459 0.0000 0.0000 0.0000
# 4 0.0000 0.0000 0.0000 4.4551 0.0000 0.0000
# 5 0.0000 0.0000 0.0000 0.0000 21.3191 0.0000
# 6 0.0000 0.0000 0.0000 0.0000 0.0000 18.7882
#
#
#
# Elastic Compliance Matrix: (Units=1/GPa)
#
#
# Indices 1 2 3 4 5 6 
#
# 1 0.020044 -0.005539 -0.007633 0.000000 0.000000 0.000000
# 2 -0.005539 0.018022 -0.003887 0.000000 0.000000 0.000000
# 3 -0.007633 -0.003887 0.012536 0.000000 0.000000 0.000000
# 4 0.000000 0.000000 0.000000 0.224461 0.000000 0.000000
# 5 0.000000 0.000000 0.000000 0.000000 0.046906 0.000000
# 6 0.000000 0.000000 0.000000 0.000000 0.000000 0.053225
#
#
# Mechanical properties :
#
#
# Convention : Reuss Voigt Hill
#
# Bulk Modulus (GPa) = 60.66546 67.28916 63.97731
# Shear Modulus (GPa) = 12.05375 18.55078 15.30227
#
# Velocity S-wave (km/s) = 2.84104 3.52450 3.20106
# Velocity P-wave (km/s) = 7.16834 7.84992 7.51686
#
# Compressibility (1/GPa) = 0.01648385
#
# Stress axis : x y z
#
# Youngs Moduli (GPa) = 49.88969 55.48705 79.76952
#
# Poissons Ratio (x) = 0.30736 0.60888
# Poissons Ratio (y) = 0.27635 0.31007
# Poissons Ratio (z) = 0.38081 0.21568
#
# Static dielectric constant tensor:
#      x y z
#    x 2.880430 0.000000 0.000000 
#    y 0.000000 2.577450 0.000000 
#    z 0.000000 0.000000 2.920590 
# 
# 
# High freq. dielectric constant tensor:
#      x y z
#    x 1.574650 0.000000 0.000000 
#    y 0.000000 1.525860 0.000000 
#    z 0.000000 0.000000 1.570130 
# 
# From -- ./inp_files/50173.got.cif
#   From: 2010.03.12/outbox.cif.g09.slc.cpg/sg65_26_cif.got.tgz:50173.got - 2010.04.10 20:52:16.
