data_PCOD8266541
_publ_section_title
;
Structure prediction by ZEFSAII (Michael W. Deem and Ramdas Pophale) SiO2 
 PCOD8266541
Probable space group: C M M M
;
_chemical_formula_sum "Si O2"
_cell_formula_units_Z 88
_cell_length_a 19.395720
_cell_length_b 30.512352
_cell_length_c 7.800586
_cell_angle_alpha 90.000000
_cell_angle_beta 90.000000
_cell_angle_gamma 90.000000
_cell_volume 4616.457280
_symmetry_space_group_name_H-M "C M M M"
_symmetry_group_IT_number 65
_symmetry_cell_setting 'orthorhombic'
loop_
_space_group_symop_operation_xyz
x,y,z
-x,-y,z
x,-y,-z
-x,y,-z
-x,-y,-z
x,y,-z
-x,y,z
x,-y,z
1/2+x,1/2+y,z
1/2-x,1/2-y,z
1/2+x,1/2-y,-z
1/2-x,1/2+y,-z
1/2-x,1/2-y,-z
1/2+x,1/2+y,-z
1/2-x,1/2+y,z
1/2+x,1/2-y,z
loop_
_atom_site_type_symbol
_atom_site_label
_atom_site_fract_x
_atom_site_fract_y
_atom_site_fract_z
Si Si1 0.208666 0.791373 0.201606
Si Si2 0.924894 0.652061 0.195416
Si Si3 0.423419 0.752040 0.301939
Si Si4 0.076795 0.051763 0.500000
Si Si5 0.782566 0.623110 0.202502
Si Si6 0.176537 0.050890 0.197674
O O1 0.250000 0.750000 0.280614
O O2 0.128460 0.786761 0.250776
O O3 0.237807 0.836681 0.280338
O O4 0.217379 0.792316 0.000000
O O5 0.905349 0.703463 0.200709
O O6 0.861000 0.624698 0.278964
O O7 0.000000 0.643630 0.286899
O O8 0.932570 0.637648 0.000000
O O9 0.417758 0.763783 0.500000
O O10 0.500000 0.735477 0.253560
O O11 0.116040 0.066445 0.326034
O O12 0.000000 0.072735 0.500000
O O13 0.070417 0.000000 0.500000
O O14 0.745681 0.577390 0.248072
O O15 0.788088 0.629444 0.000000
O O16 0.194294 0.000000 0.224165
O O17 0.154103 0.060448 0.000000
#
# Coordination Sequence:
#
# PCOD8266541 Si02
#       6
#    16  16  16   8  16  16
#     4  10  18  31  49  68  91 122 162 205 242 286
#     4   9  16  29  50  71  94 128 168 207 245 286
#     4  10  20  32  44  64  97 129 160 201 245 292
#     4   9  18  34  56  82 106 129 169 215 251 305
#     4   9  17  31  50  74  98 123 164 208 245 296
#     4   9  18  34  55  78 106 137 167 207 257 300
#
# _framework density 19.062235999999999
#
# number of rings (size 3 to 8) (size 9 to 14) (size 15 to 20)
#    0.000    2.636    1.818    0.545    0.000    1.818 
#    3.273    2.727    0.000    3.818    0.000    3.818 
#    0.000    2.182    0.000    0.182    0.000    0.000 
#
# Total GULP energy -545244.582910 kJ/mol
# GULP energy per Si atom -12391.922339 kJ/mol
# Density = 1.901885 g / cm^3
# Si number density = 19.062236 Si / 1000 Ang^3
#
#
#
# Elastic Constant Matrix: (Units=GPa)
#
#
# Indices 1 2 3 4 5 6 
#
# 1 188.5903 68.1455 32.1659 0.0000 0.0000 0.0000
# 2 68.1455 74.9572 21.6221 0.0000 0.0000 0.0000
# 3 32.1659 21.6221 45.4536 0.0000 0.0000 0.0000
# 4 0.0000 0.0000 0.0000 6.8472 0.0000 0.0000
# 5 0.0000 0.0000 0.0000 0.0000 15.4110 0.0000
# 6 0.0000 0.0000 0.0000 0.0000 0.0000 28.6099
#
#
#
# Elastic Compliance Matrix: (Units=1/GPa)
#
#
# Indices 1 2 3 4 5 6 
#
# 1 0.008153 -0.006662 -0.002601 0.000000 0.000000 0.000000
# 2 -0.006662 0.020907 -0.005231 0.000000 0.000000 0.000000
# 3 -0.002601 -0.005231 0.026329 0.000000 0.000000 0.000000
# 4 0.000000 0.000000 0.000000 0.146044 0.000000 0.000000
# 5 0.000000 0.000000 0.000000 0.000000 0.064889 0.000000
# 6 0.000000 0.000000 0.000000 0.000000 0.000000 0.034953
#
#
# Mechanical properties :
#
#
# Convention : Reuss Voigt Hill
#
# Bulk Modulus (GPa) = 37.87583 61.42979 49.65281
# Shear Modulus (GPa) = 14.74654 22.64481 18.69568
#
# Velocity S-wave (km/s) = 2.78438 3.45039 3.13512
# Velocity P-wave (km/s) = 5.49998 6.94042 6.26176
#
# Compressibility (1/GPa) = 0.02640206
#
# Stress axis : x y z
#
# Youngs Moduli (GPa) = 122.64773 47.83182 37.98095
#
# Poissons Ratio (x) = 0.31867 0.09878
# Poissons Ratio (y) = 0.81712 0.19866
# Poissons Ratio (z) = 0.31897 0.25018
#
# Static dielectric constant tensor:
#      x y z
#    x 4.010730 0.000000 0.000000 
#    y 0.000000 3.217220 0.000000 
#    z 0.000000 0.000000 3.297120 
# 
# 
# High freq. dielectric constant tensor:
#      x y z
#    x 1.754040 0.000000 0.000000 
#    y 0.000000 1.695760 0.000000 
#    z 0.000000 0.000000 1.725490 
# 
# From -- ./inp_files/10113.got.cif
#   From: 2010.03.12/outbox.cif.g09.slc.cpg/sg65_6_cif.got.tgz:10113.got - 2010.04.10 20:52:16.
