data_PCOD8266428
_publ_section_title
;
Structure prediction by ZEFSAII (Michael W. Deem and Ramdas Pophale) SiO2 
 PCOD8266428
Probable space group: C M M M
;
_chemical_formula_sum "Si O2"
_cell_formula_units_Z 96
_cell_length_a 10.287820
_cell_length_b 35.427275
_cell_length_c 14.472109
_cell_angle_alpha 90.000000
_cell_angle_beta 90.000000
_cell_angle_gamma 90.000000
_cell_volume 5274.641293
_symmetry_space_group_name_H-M "C M M M"
_symmetry_group_IT_number 65
_symmetry_cell_setting 'orthorhombic'
loop_
_space_group_symop_operation_xyz
x,y,z
-x,-y,z
x,-y,-z
-x,y,-z
-x,-y,-z
x,y,-z
-x,y,z
x,-y,z
1/2+x,1/2+y,z
1/2-x,1/2-y,z
1/2+x,1/2-y,-z
1/2-x,1/2+y,-z
1/2-x,1/2-y,-z
1/2+x,1/2+y,-z
1/2-x,1/2+y,z
1/2+x,1/2-y,z
loop_
_atom_site_type_symbol
_atom_site_label
_atom_site_fract_x
_atom_site_fract_y
_atom_site_fract_z
Si Si1 0.853468 0.427406 0.204018
Si Si2 0.653930 0.854500 0.103481
Si Si3 0.500000 0.542227 0.607773
Si Si4 0.347376 0.215823 0.225282
Si Si5 0.759003 0.585119 0.605002
Si Si6 0.344589 0.000000 0.894839
Si Si7 0.352208 0.833624 0.397505
O O1 0.787795 0.388763 0.165634
O O2 0.854940 0.430189 0.315825
O O3 0.784715 0.463528 0.157250
O O4 0.000000 0.427560 0.168700
O O5 0.500000 0.857653 0.100992
O O6 0.692052 0.814853 0.148845
O O7 0.712098 0.856541 0.000000
O O8 0.500000 0.500000 0.653928
O O9 0.500000 0.535748 0.500000
O O10 0.622401 0.567527 0.635938
O O11 0.500000 0.227743 0.218015
O O12 0.250000 0.250000 0.207622
O O13 0.315407 0.198960 0.326155
O O14 0.800089 0.572731 0.500000
O O15 0.756036 0.630610 0.610927
O O16 0.500000 0.000000 0.888589
O O17 0.295985 0.000000 0.000000
O O18 0.341018 0.816059 0.500000
O O19 0.500000 0.848051 0.377968
#
# Coordination Sequence:
#
# PCOD8266428 Si02
#       7
#    16  16   8  16  16   8  16
#     4  10  18  30  50  79 106 131 165 206 258 314
#     4   9  17  31  52  74 100 136 174 211 255 312
#     4   9  20  36  50  68 100 142 182 218 252 298
#     4  10  20  35  52  77 107 137 176 218 267 324
#     4  10  19  32  52  75  99 132 174 212 252 303
#     4   9  18  30  45  72 109 136 159 202 255 305
#     4   9  17  32  54  76 103 135 166 208 263 318
#
# _framework density 18.200289999999999
#
# number of rings (size 3 to 8) (size 9 to 14) (size 15 to 20)
#    0.000    2.500    1.667    1.000    1.167    3.667 
#    1.500    0.000    0.000    1.500    0.000    2.333 
#    0.000    0.000    0.000    0.000    0.000    0.000 
#
# Total GULP energy -594763.136626 kJ/mol
# GULP energy per Si atom -12390.898680 kJ/mol
# Density = 1.815887 g / cm^3
# Si number density = 18.200290 Si / 1000 Ang^3
#
#
#
# Elastic Constant Matrix: (Units=GPa)
#
#
# Indices 1 2 3 4 5 6 
#
# 1 40.8401 46.6779 15.3762 0.0000 0.0000 0.0000
# 2 46.6779 143.2829 64.0162 0.0000 0.0000 0.0000
# 3 15.3762 64.0162 144.4443 0.0000 0.0000 0.0000
# 4 0.0000 0.0000 0.0000 28.5069 0.0000 0.0000
# 5 0.0000 0.0000 0.0000 0.0000 9.1921 0.0000
# 6 0.0000 0.0000 0.0000 0.0000 0.0000 9.3676
#
#
#
# Elastic Compliance Matrix: (Units=1/GPa)
#
#
# Indices 1 2 3 4 5 6 
#
# 1 0.039410 -0.013671 0.001864 0.000000 0.000000 0.000000
# 2 -0.013671 0.013445 -0.004503 0.000000 0.000000 0.000000
# 3 0.001864 -0.004503 0.008721 0.000000 0.000000 0.000000
# 4 0.000000 0.000000 0.000000 0.035079 0.000000 0.000000
# 5 0.000000 0.000000 0.000000 0.000000 0.108789 0.000000
# 6 0.000000 0.000000 0.000000 0.000000 0.000000 0.106751
#
#
# Mechanical properties :
#
#
# Convention : Reuss Voigt Hill
#
# Bulk Modulus (GPa) = 34.53832 64.52311 49.53071
# Shear Modulus (GPa) = 14.10571 22.91313 18.50942
#
# Velocity S-wave (km/s) = 2.78695 3.55201 3.19248
# Velocity P-wave (km/s) = 5.41979 7.23540 6.39238
#
# Compressibility (1/GPa) = 0.02895335
#
# Stress axis : x y z
#
# Youngs Moduli (GPa) = 25.37451 74.37712 114.67207
#
# Poissons Ratio (x) = 1.01684 -0.21373
# Poissons Ratio (y) = 0.34690 0.51641
# Poissons Ratio (z) = -0.04729 0.33495
#
# Static dielectric constant tensor:
#      x y z
#    x 2.970320 0.000000 0.000000 
#    y 0.000000 3.418700 0.000000 
#    z 0.000000 0.000000 3.598520 
# 
# 
# High freq. dielectric constant tensor:
#      x y z
#    x 1.643420 0.000000 0.000000 
#    y 0.000000 1.705710 0.000000 
#    z 0.000000 0.000000 1.717980 
# 
# From -- ./inp_files/38916.got.cif
#   From: 2010.03.12/outbox.cif.g09.slc.cpg/sg65_20_cif.got.tgz:38916.got - 2010.04.10 20:52:16.
