data_PCOD8266361
_publ_section_title
;
Structure prediction by ZEFSAII (Michael W. Deem and Ramdas Pophale) SiO2 
 PCOD8266361
Probable space group: C M M M
;
_chemical_formula_sum "Si O2"
_cell_formula_units_Z 104
_cell_length_a 8.792665
_cell_length_b 27.782909
_cell_length_c 23.408057
_cell_angle_alpha 90.000000
_cell_angle_beta 90.000000
_cell_angle_gamma 90.000000
_cell_volume 5718.256201
_symmetry_space_group_name_H-M "C M M M"
_symmetry_group_IT_number 65
_symmetry_cell_setting 'orthorhombic'
loop_
_space_group_symop_operation_xyz
x,y,z
-x,-y,z
x,-y,-z
-x,y,-z
-x,-y,-z
x,y,-z
-x,y,z
x,-y,z
1/2+x,1/2+y,z
1/2-x,1/2-y,z
1/2+x,1/2-y,-z
1/2-x,1/2+y,-z
1/2-x,1/2-y,-z
1/2+x,1/2+y,-z
1/2-x,1/2+y,z
1/2+x,1/2-y,z
loop_
_atom_site_type_symbol
_atom_site_label
_atom_site_fract_x
_atom_site_fract_y
_atom_site_fract_z
Si Si1 0.321895 0.113190 0.217024
Si Si2 0.320094 0.551841 0.000000
Si Si3 0.680617 0.555068 0.314675
Si Si4 0.320764 0.698002 0.000000
Si Si5 0.816641 0.804016 0.500000
Si Si6 0.820862 0.123569 0.094862
Si Si7 0.672579 0.300652 0.278777
Si Si8 0.829549 0.858640 0.390248
O O1 0.500000 0.105403 0.221548
O O2 0.244319 0.069697 0.252518
O O3 0.272542 0.115545 0.151863
O O4 0.274972 0.163877 0.242640
O O5 0.269958 0.578497 0.057094
O O6 0.241016 0.500000 0.000000
O O7 0.500000 0.548466 0.000000
O O8 0.500000 0.561168 0.311019
O O9 0.727399 0.500000 0.329327
O O10 0.745367 0.592086 0.363711
O O11 0.250000 0.750000 0.000000
O O12 0.271179 0.670658 0.941687
O O13 0.500000 0.701833 0.000000
O O14 0.750000 0.750000 0.500000
O O15 0.752139 0.835300 0.446296
O O16 0.000000 0.799471 0.500000
O O17 0.000000 0.124876 0.108570
O O18 0.500000 0.299783 0.255061
O O19 0.750000 0.250000 0.271954
O O20 0.673689 0.316085 0.344404
O O21 0.000000 0.872793 0.407532
#
# Coordination Sequence:
#
# PCOD8266361 Si02
#       8
#    16   8  16   8   8  16  16  16
#     4  11  22  34  50  75 104 133 167 209 256 302
#     4   8  15  30  54  77  93 118 157 195 238 295
#     4   9  18  35  56  74  97 134 175 213 258 310
#     4   9  19  34  53  73  97 132 170 207 246 294
#     4  10  18  30  49  75 107 137 168 208 253 302
#     4   9  18  34  52  73 101 128 160 205 249 292
#     4  10  19  33  51  72 100 134 171 208 250 299
#     4   8  16  30  49  74 103 133 167 208 251 300
#
# _framework density 18.187362
#
# number of rings (size 3 to 8) (size 9 to 14) (size 15 to 20)
#    0.000    2.692    0.000    4.154    0.000    2.154 
#    0.000    7.692    0.000    2.769    0.000    0.000 
#    0.000    5.538    0.000    0.000    0.000    0.000 
#
# Total GULP energy -644346.763613 kJ/mol
# GULP energy per Si atom -12391.283916 kJ/mol
# Density = 1.814597 g / cm^3
# Si number density = 18.187362 Si / 1000 Ang^3
#
#
#
# Elastic Constant Matrix: (Units=GPa)
#
#
# Indices 1 2 3 4 5 6 
#
# 1 44.8950 30.6041 29.7173 0.0000 0.0000 0.0000
# 2 30.6041 148.4982 65.0148 0.0000 0.0000 0.0000
# 3 29.7173 65.0148 134.3781 0.0000 0.0000 0.0000
# 4 0.0000 0.0000 0.0000 18.3680 0.0000 0.0000
# 5 0.0000 0.0000 0.0000 0.0000 11.8877 0.0000
# 6 0.0000 0.0000 0.0000 0.0000 0.0000 24.6845
#
#
#
# Elastic Compliance Matrix: (Units=1/GPa)
#
#
# Indices 1 2 3 4 5 6 
#
# 1 0.027721 -0.003843 -0.004271 0.000000 0.000000 0.000000
# 2 -0.003843 0.009077 -0.003542 0.000000 0.000000 0.000000
# 3 -0.004271 -0.003542 0.010100 0.000000 0.000000 0.000000
# 4 0.000000 0.000000 0.000000 0.054442 0.000000 0.000000
# 5 0.000000 0.000000 0.000000 0.000000 0.084120 0.000000
# 6 0.000000 0.000000 0.000000 0.000000 0.000000 0.040511
#
#
# Mechanical properties :
#
#
# Convention : Reuss Voigt Hill
#
# Bulk Modulus (GPa) = 42.39811 64.27153 53.33482
# Shear Modulus (GPa) = 19.44428 24.48371 21.96399
#
# Velocity S-wave (km/s) = 3.27327 3.67303 3.47890
# Velocity P-wave (km/s) = 6.13581 7.30777 6.74728
#
# Compressibility (1/GPa) = 0.02358595
#
# Stress axis : x y z
#
# Youngs Moduli (GPa) = 36.07361 110.17241 99.01271
#
# Poissons Ratio (x) = 0.42341 0.42289
# Poissons Ratio (y) = 0.13864 0.35066
# Poissons Ratio (z) = 0.15407 0.39019
#
# Static dielectric constant tensor:
#      x y z
#    x 3.111490 0.000000 0.000000 
#    y 0.000000 3.423330 0.000000 
#    z 0.000000 0.000000 3.645030 
# 
# 
# High freq. dielectric constant tensor:
#      x y z
#    x 1.676730 0.000000 0.000000 
#    y 0.000000 1.710710 0.000000 
#    z 0.000000 0.000000 1.706150 
# 
# From -- ./inp_files/60968.got.cif
#   From: 2010.03.12/outbox.cif.g09.slc.cpg/sg65_31_cif.got.tgz:60968.got - 2010.04.10 20:52:16.
