data_PCOD8266495
_publ_section_title
;
Structure prediction by ZEFSAII (Michael W. Deem and Ramdas Pophale) SiO2 
 PCOD8266495
Probable space group: C M M M
;
_chemical_formula_sum "Si O2"
_cell_formula_units_Z 72
_cell_length_a 23.117563
_cell_length_b 18.115229
_cell_length_c 9.778537
_cell_angle_alpha 90.000000
_cell_angle_beta 90.000000
_cell_angle_gamma 90.000000
_cell_volume 4095.055213
_symmetry_space_group_name_H-M "C M M M"
_symmetry_group_IT_number 65
_symmetry_cell_setting 'orthorhombic'
loop_
_space_group_symop_operation_xyz
x,y,z
-x,-y,z
x,-y,-z
-x,y,-z
-x,-y,-z
x,y,-z
-x,y,z
x,-y,z
1/2+x,1/2+y,z
1/2-x,1/2-y,z
1/2+x,1/2-y,-z
1/2-x,1/2+y,-z
1/2-x,1/2-y,-z
1/2+x,1/2+y,-z
1/2-x,1/2+y,z
1/2+x,1/2-y,z
loop_
_atom_site_type_symbol
_atom_site_label
_atom_site_fract_x
_atom_site_fract_y
_atom_site_fract_z
Si Si1 0.065947 0.248763 0.845057
Si Si2 0.814941 0.500000 0.336001
Si Si3 0.815523 0.000000 0.338283
Si Si4 0.839374 0.633985 0.848232
Si Si5 0.855181 0.843230 0.655453
Si Si6 0.750000 0.250000 0.747688
O O1 0.099523 0.325477 0.830678
O O2 0.093849 0.188526 0.746666
O O3 0.000000 0.262444 0.800818
O O4 0.070290 0.218844 0.000000
O O5 0.823727 0.500000 0.500000
O O6 0.749472 0.500000 0.284516
O O7 0.842069 0.426551 0.271115
O O8 0.846235 0.925861 0.285657
O O9 0.813148 0.000000 0.500000
O O10 0.786433 0.692112 0.837803
O O11 0.835004 0.598243 0.000000
O O12 0.876953 0.845116 0.500000
O O13 0.795461 0.796556 0.657340
#
# Coordination Sequence:
#
# PCOD8266495 Si02
#       6
#    16   8   8  16  16   8
#     4   9  20  39  58  76 103 138 178 226 272 311
#     4  11  21  35  52  77 114 148 173 209 263 320
#     4   9  18  33  48  73 112 146 169 201 258 321
#     4  10  20  34  54  79 106 138 179 220 262 316
#     4  10  19  32  53  78 106 140 178 216 259 316
#     4  10  18  30  52  80 108 138 172 216 268 316
#
# _framework density 17.582182
#
# number of rings (size 3 to 8) (size 9 to 14) (size 15 to 20)
#    0.000    2.222    2.222    1.000    0.000    4.889 
#    0.000    1.667    0.000    6.667    0.000    0.000 
#    0.000    0.000    0.000    0.000    0.000    0.000 
#
# Total GULP energy -446265.721044 kJ/mol
# GULP energy per Si atom -12396.270029 kJ/mol
# Density = 1.754216 g / cm^3
# Si number density = 17.582182 Si / 1000 Ang^3
#
#
#
# Elastic Constant Matrix: (Units=GPa)
#
#
# Indices 1 2 3 4 5 6 
#
# 1 125.2643 52.1360 50.1738 0.0000 0.0000 0.0000
# 2 52.1360 121.5559 61.7278 0.0000 0.0000 0.0000
# 3 50.1738 61.7278 105.8786 0.0000 0.0000 0.0000
# 4 0.0000 0.0000 0.0000 31.1085 0.0000 0.0000
# 5 0.0000 0.0000 0.0000 0.0000 22.4822 0.0000
# 6 0.0000 0.0000 0.0000 0.0000 0.0000 15.4267
#
#
#
# Elastic Compliance Matrix: (Units=1/GPa)
#
#
# Indices 1 2 3 4 5 6 
#
# 1 0.010486 -0.002804 -0.003334 0.000000 0.000000 0.000000
# 2 -0.002804 0.012437 -0.005922 0.000000 0.000000 0.000000
# 3 -0.003334 -0.005922 0.014477 0.000000 0.000000 0.000000
# 4 0.000000 0.000000 0.000000 0.032146 0.000000 0.000000
# 5 0.000000 0.000000 0.000000 0.000000 0.044480 0.000000
# 6 0.000000 0.000000 0.000000 0.000000 0.000000 0.064823
#
#
# Mechanical properties :
#
#
# Convention : Reuss Voigt Hill
#
# Bulk Modulus (GPa) = 75.30515 75.64155 75.47335
# Shear Modulus (GPa) = 24.10872 26.38089 25.24480
#
# Velocity S-wave (km/s) = 3.70699 3.87775 3.79333
# Velocity P-wave (km/s) = 7.82597 7.94760 7.88702
#
# Compressibility (1/GPa) = 0.01327930
#
# Stress axis : x y z
#
# Youngs Moduli (GPa) = 95.36776 80.40806 69.07468
#
# Poissons Ratio (x) = 0.22549 0.23030
# Poissons Ratio (y) = 0.26744 0.40904
# Poissons Ratio (z) = 0.31796 0.47615
#
# Static dielectric constant tensor:
#      x y z
#    x 3.175520 0.000000 0.000000 
#    y 0.000000 3.399210 0.000000 
#    z 0.000000 0.000000 3.168640 
# 
# 
# High freq. dielectric constant tensor:
#      x y z
#    x 1.665370 0.000000 0.000000 
#    y 0.000000 1.681020 0.000000 
#    z 0.000000 0.000000 1.676940 
# 
# From -- ./inp_files/13654.got.cif
#   From: 2010.03.12/outbox.cif.g09.slc.cpg/sg65_7_cif.got.tgz:13654.got - 2010.04.10 20:52:16.
