data_PCOD8266605
_publ_section_title
;
Structure prediction by ZEFSAII (Michael W. Deem and Ramdas Pophale) SiO2 
 PCOD8266605
Probable space group: C M M M
;
_chemical_formula_sum "Si O2"
_cell_formula_units_Z 72
_cell_length_a 8.630360
_cell_length_b 18.889670
_cell_length_c 23.289081
_cell_angle_alpha 90.000000
_cell_angle_beta 90.000000
_cell_angle_gamma 90.000000
_cell_volume 3796.694334
_symmetry_space_group_name_H-M "C M M M"
_symmetry_group_IT_number 65
_symmetry_cell_setting 'orthorhombic'
loop_
_space_group_symop_operation_xyz
x,y,z
-x,-y,z
x,-y,-z
-x,y,-z
-x,-y,-z
x,y,-z
-x,y,z
x,-y,z
1/2+x,1/2+y,z
1/2-x,1/2-y,z
1/2+x,1/2-y,-z
1/2-x,1/2+y,-z
1/2-x,1/2-y,-z
1/2+x,1/2+y,-z
1/2-x,1/2+y,z
1/2+x,1/2-y,z
loop_
_atom_site_type_symbol
_atom_site_label
_atom_site_fract_x
_atom_site_fract_y
_atom_site_fract_z
Si Si1 0.322846 0.917549 0.934554
Si Si2 0.316560 0.171468 0.276197
Si Si3 0.816194 0.171656 0.606968
Si Si4 0.315950 0.579706 0.500000
Si Si5 0.180306 0.173221 0.838809
O O1 0.500000 0.898930 0.918863
O O2 0.207186 0.875122 0.894017
O O3 0.291127 0.000000 0.925738
O O4 0.287720 0.895631 0.000000
O O5 0.500000 0.170609 0.280263
O O6 0.250000 0.250000 0.273128
O O7 0.246110 0.136406 0.333770
O O8 0.259496 0.135189 0.216965
O O9 0.750000 0.250000 0.597149
O O10 0.756338 0.121218 0.556076
O O11 0.000000 0.176789 0.608951
O O12 0.247776 0.500000 0.500000
O O13 0.500000 0.577059 0.500000
O O14 0.250000 0.250000 0.851499
O O15 0.000000 0.181484 0.826405
#
# Coordination Sequence:
#
# PCOD8266605 Si02
#       5
#    16  16  16   8  16
#     4   9  19  37  58  78 104 139 176 215 261 311
#     4  10  18  31  51  75 104 134 168 211 258 306
#     4  10  18  31  53  77 101 130 168 210 250 300
#     4   9  19  34  51  73 102 135 168 206 252 297
#     4  11  21  34  54  80 109 139 174 216 262 310
#
# _framework density 18.963864000000001
#
# number of rings (size 3 to 8) (size 9 to 14) (size 15 to 20)
#    0.000    2.111    0.000    8.333    0.000    1.333 
#    0.000    3.889    0.000    9.333    0.000    0.000 
#    0.000    0.000    0.000    0.000    0.000    0.000 
#
# Total GULP energy -446325.347604 kJ/mol
# GULP energy per Si atom -12397.926322 kJ/mol
# Density = 1.892070 g / cm^3
# Si number density = 18.963864 Si / 1000 Ang^3
#
#
#
# Elastic Constant Matrix: (Units=GPa)
#
#
# Indices 1 2 3 4 5 6 
#
# 1 113.3471 27.2620 48.4277 0.0000 0.0000 0.0000
# 2 27.2620 65.8716 59.8321 0.0000 0.0000 0.0000
# 3 48.4277 59.8321 163.1523 0.0000 0.0000 0.0000
# 4 0.0000 0.0000 0.0000 3.8827 0.0000 0.0000
# 5 0.0000 0.0000 0.0000 0.0000 26.8870 0.0000
# 6 0.0000 0.0000 0.0000 0.0000 0.0000 20.1011
#
#
#
# Elastic Compliance Matrix: (Units=1/GPa)
#
#
# Indices 1 2 3 4 5 6 
#
# 1 0.010318 -0.002232 -0.002244 0.000000 0.000000 0.000000
# 2 -0.002232 0.023246 -0.007863 0.000000 0.000000 0.000000
# 3 -0.002244 -0.007863 0.009679 0.000000 0.000000 0.000000
# 4 0.000000 0.000000 0.000000 0.257554 0.000000 0.000000
# 5 0.000000 0.000000 0.000000 0.000000 0.037193 0.000000
# 6 0.000000 0.000000 0.000000 0.000000 0.000000 0.049748
#
#
# Mechanical properties :
#
#
# Convention : Reuss Voigt Hill
#
# Bulk Modulus (GPa) = 53.86185 68.15721 61.00953
# Shear Modulus (GPa) = 11.94445 23.96409 17.95427
#
# Velocity S-wave (km/s) = 2.51241 3.55867 3.08029
# Velocity P-wave (km/s) = 6.07291 7.27352 6.70016
#
# Compressibility (1/GPa) = 0.01856602
#
# Stress axis : x y z
#
# Youngs Moduli (GPa) = 96.91708 43.01728 103.31874
#
# Poissons Ratio (x) = 0.09601 0.23187
# Poissons Ratio (y) = 0.21631 0.81235
# Poissons Ratio (z) = 0.21750 0.33823
#
# Static dielectric constant tensor:
#      x y z
#    x 3.391880 0.000000 0.000000 
#    y 0.000000 3.170300 0.000000 
#    z 0.000000 0.000000 4.189630 
# 
# 
# High freq. dielectric constant tensor:
#      x y z
#    x 1.738020 0.000000 0.000000 
#    y 0.000000 1.696390 0.000000 
#    z 0.000000 0.000000 1.762270 
# 
# From -- ./inp_files/59280.got.cif
#   From: 2010.03.12/outbox.cif.g09.slc.cpg/sg65_30_cif.got.tgz:59280.got - 2010.04.10 20:52:16.
