data_PCOD8266208
_publ_section_title
;
Structure prediction by ZEFSAII (Michael W. Deem and Ramdas Pophale) SiO2 
 PCOD8266208
Probable space group: C M M M
;
_chemical_formula_sum "Si O2"
_cell_formula_units_Z 88
_cell_length_a 8.562220
_cell_length_b 27.372806
_cell_length_c 21.590254
_cell_angle_alpha 90.000000
_cell_angle_beta 90.000000
_cell_angle_gamma 90.000000
_cell_volume 5060.150730
_symmetry_space_group_name_H-M "C M M M"
_symmetry_group_IT_number 65
_symmetry_cell_setting 'orthorhombic'
loop_
_space_group_symop_operation_xyz
x,y,z
-x,-y,z
x,-y,-z
-x,y,-z
-x,-y,-z
x,y,-z
-x,y,z
x,-y,z
1/2+x,1/2+y,z
1/2-x,1/2-y,z
1/2+x,1/2-y,-z
1/2-x,1/2+y,-z
1/2-x,1/2-y,-z
1/2+x,1/2+y,-z
1/2-x,1/2+y,z
1/2+x,1/2-y,z
loop_
_atom_site_type_symbol
_atom_site_label
_atom_site_fract_x
_atom_site_fract_y
_atom_site_fract_z
Si Si1 0.315253 0.304266 0.000000
Si Si2 0.682939 0.645319 0.242929
Si Si3 0.315565 0.055665 0.309845
Si Si4 0.817184 0.698758 0.641411
Si Si5 0.817278 0.395372 0.432440
Si Si6 0.816498 0.696059 0.873729
O O1 0.250000 0.250000 0.000000
O O2 0.251496 0.328499 0.936787
O O3 0.500000 0.305311 0.000000
O O4 0.500000 0.648641 0.230919
O O5 0.729828 0.590022 0.260561
O O6 0.730197 0.683168 0.296151
O O7 0.772819 0.659326 0.180835
O O8 0.500000 0.066284 0.306291
O O9 0.253441 0.068038 0.379370
O O10 0.274215 0.000000 0.293899
O O11 0.750000 0.750000 0.618015
O O12 0.781240 0.660225 0.587178
O O13 0.000000 0.702105 0.656004
O O14 0.738996 0.405517 0.500000
O O15 0.000000 0.403871 0.438842
O O16 0.750000 0.750000 0.860515
O O17 0.000000 0.701006 0.880015
#
# Coordination Sequence:
#
# PCOD8266208 Si02
#       6
#     8  16  16  16  16  16
#     4  10  18  30  46  70 103 138 173 202 232 272
#     4  11  21  33  49  70  95 125 162 202 243 287
#     4   9  18  33  52  73  96 121 152 195 246 296
#     4  10  19  31  46  66  93 125 160 198 239 285
#     4   8  15  28  46  69  95 122 154 192 235 288
#     4  11  20  32  49  72 103 137 170 202 238 278
#
# _framework density 17.390785000000001
#
# number of rings (size 3 to 8) (size 9 to 14) (size 15 to 20)
#    0.000    2.182    0.000    7.364    0.000    1.091 
#    0.000    1.818    0.000   13.091    0.000    5.727 
#    0.000    5.091    0.000    0.000    0.000    0.000 
#
# Total GULP energy -545495.217198 kJ/mol
# GULP energy per Si atom -12397.618573 kJ/mol
# Density = 1.735120 g / cm^3
# Si number density = 17.390785 Si / 1000 Ang^3
#
#
#
# Elastic Constant Matrix: (Units=GPa)
#
#
# Indices 1 2 3 4 5 6 
#
# 1 98.5549 23.3815 30.7606 0.0000 0.0000 0.0000
# 2 23.3815 77.0263 29.6510 0.0000 0.0000 0.0000
# 3 30.7606 29.6510 125.5626 0.0000 0.0000 0.0000
# 4 0.0000 0.0000 0.0000 15.0833 0.0000 0.0000
# 5 0.0000 0.0000 0.0000 0.0000 19.2507 0.0000
# 6 0.0000 0.0000 0.0000 0.0000 0.0000 23.6271
#
#
#
# Elastic Compliance Matrix: (Units=1/GPa)
#
#
# Indices 1 2 3 4 5 6 
#
# 1 0.011454 -0.002636 -0.002183 0.000000 0.000000 0.000000
# 2 -0.002636 0.014888 -0.002870 0.000000 0.000000 0.000000
# 3 -0.002183 -0.002870 0.009177 0.000000 0.000000 0.000000
# 4 0.000000 0.000000 0.000000 0.066299 0.000000 0.000000
# 5 0.000000 0.000000 0.000000 0.000000 0.051946 0.000000
# 6 0.000000 0.000000 0.000000 0.000000 0.000000 0.042324
#
#
# Mechanical properties :
#
#
# Convention : Reuss Voigt Hill
#
# Bulk Modulus (GPa) = 49.65500 52.08111 50.86805
# Shear Modulus (GPa) = 22.91700 26.08226 24.49963
#
# Velocity S-wave (km/s) = 3.63404 3.87689 3.75743
# Velocity P-wave (km/s) = 6.79874 7.07481 6.93815
#
# Compressibility (1/GPa) = 0.02013896
#
# Stress axis : x y z
#
# Youngs Moduli (GPa) = 87.30928 67.17033 108.97139
#
# Poissons Ratio (x) = 0.17708 0.23792
# Poissons Ratio (y) = 0.23017 0.31272
# Poissons Ratio (z) = 0.19063 0.19276
#
# Static dielectric constant tensor:
#      x y z
#    x 3.165720 0.000000 0.000000 
#    y 0.000000 3.082310 0.000000 
#    z 0.000000 0.000000 3.721050 
# 
# 
# High freq. dielectric constant tensor:
#      x y z
#    x 1.668580 0.000000 0.000000 
#    y 0.000000 1.645230 0.000000 
#    z 0.000000 0.000000 1.674260 
# 
# From -- ./inp_files/60663.got.cif
#   From: 2010.03.12/outbox.cif.g09.slc.cpg/sg65_31_cif.got.tgz:60663.got - 2010.04.10 20:52:16.
