data_PCOD8266143
_publ_section_title
;
Structure prediction by ZEFSAII (Michael W. Deem and Ramdas Pophale) SiO2 
 PCOD8266143
Probable space group: C M M M
;
_chemical_formula_sum "Si O2"
_cell_formula_units_Z 96
_cell_length_a 26.547028
_cell_length_b 22.247276
_cell_length_c 9.350629
_cell_angle_alpha 90.000000
_cell_angle_beta 90.000000
_cell_angle_gamma 90.000000
_cell_volume 5522.472687
_symmetry_space_group_name_H-M "C M M M"
_symmetry_group_IT_number 65
_symmetry_cell_setting 'orthorhombic'
loop_
_space_group_symop_operation_xyz
x,y,z
-x,-y,z
x,-y,-z
-x,y,-z
-x,-y,-z
x,y,-z
-x,y,z
x,-y,z
1/2+x,1/2+y,z
1/2-x,1/2-y,z
1/2+x,1/2-y,-z
1/2-x,1/2+y,-z
1/2-x,1/2-y,-z
1/2+x,1/2+y,-z
1/2-x,1/2+y,z
1/2+x,1/2-y,z
loop_
_atom_site_type_symbol
_atom_site_label
_atom_site_fract_x
_atom_site_fract_y
_atom_site_fract_z
Si Si1 0.383573 0.116233 0.669751
Si Si2 0.000000 0.067097 0.670028
Si Si3 0.943212 0.267343 0.330336
Si Si4 0.705554 0.931255 0.165352
Si Si5 0.443792 0.000000 0.330204
Si Si6 0.178582 0.931294 0.165871
Si Si7 0.596400 0.360450 0.669500
O O1 0.377028 0.116866 0.500000
O O2 0.412244 0.175365 0.725854
O O3 0.328442 0.113250 0.740158
O O4 0.415415 0.059217 0.724414
O O5 0.049523 0.100518 0.726289
O O6 0.000000 0.067257 0.500000
O O7 0.000000 0.000000 0.732773
O O8 0.947371 0.268981 0.500000
O O9 0.913387 0.207894 0.281396
O O10 0.000000 0.267938 0.266535
O O11 0.763442 0.914833 0.194180
O O12 0.695397 0.000000 0.211557
O O13 0.692011 0.922113 0.000000
O O14 0.500000 0.000000 0.265724
O O15 0.446261 0.000000 0.500000
O O16 0.146749 0.884774 0.258438
O O17 0.167643 0.000000 0.213598
O O18 0.165083 0.923419 0.000000
O O19 0.602641 0.365603 0.500000
#
# Coordination Sequence:
#
# PCOD8266143 Si02
#       7
#    16   8  16  16   8  16  16
#     4  10  18  29  50  77 101 128 168 211 247 289
#     4   9  16  26  45  73 101 124 156 201 246 291
#     4   9  17  31  50  73 103 139 169 197 243 303
#     4   9  18  34  53  71  97 133 166 204 259 310
#     4   9  16  26  43  73 105 127 155 204 255 292
#     4   9  19  35  53  73  99 131 166 206 257 308
#     4  10  18  31  51  75 101 132 168 204 244 294
#
# _framework density 17.383517000000001
#
# number of rings (size 3 to 8) (size 9 to 14) (size 15 to 20)
#    0.000    2.667    1.667    2.000    0.000    3.667 
#    0.000    3.750    0.000   10.000    0.000    0.000 
#    0.000    0.000    0.000    0.000    0.000    0.000 
#
# Total GULP energy -595174.585887 kJ/mol
# GULP energy per Si atom -12399.470539 kJ/mol
# Density = 1.734395 g / cm^3
# Si number density = 17.383517 Si / 1000 Ang^3
#
#
#
# Elastic Constant Matrix: (Units=GPa)
#
#
# Indices 1 2 3 4 5 6 
#
# 1 128.4377 76.7828 42.1898 0.0000 0.0000 0.0000
# 2 76.7828 149.8473 33.7597 0.0000 0.0000 0.0000
# 3 42.1898 33.7597 32.2211 0.0000 0.0000 0.0000
# 4 0.0000 0.0000 0.0000 17.0203 0.0000 0.0000
# 5 0.0000 0.0000 0.0000 0.0000 4.7435 0.0000
# 6 0.0000 0.0000 0.0000 0.0000 0.0000 31.5861
#
#
#
# Elastic Compliance Matrix: (Units=1/GPa)
#
#
# Indices 1 2 3 4 5 6 
#
# 1 0.015644 -0.004452 -0.015819 0.000000 0.000000 0.000000
# 2 -0.004452 0.010002 -0.004651 0.000000 0.000000 0.000000
# 3 -0.015819 -0.004651 0.056622 0.000000 0.000000 0.000000
# 4 0.000000 0.000000 0.000000 0.058753 0.000000 0.000000
# 5 0.000000 0.000000 0.000000 0.000000 0.210817 0.000000
# 6 0.000000 0.000000 0.000000 0.000000 0.000000 0.031659
#
#
# Mechanical properties :
#
#
# Convention : Reuss Voigt Hill
#
# Bulk Modulus (GPa) = 30.84112 68.44118 49.64115
# Shear Modulus (GPa) = 11.25749 21.18823 16.22286
#
# Velocity S-wave (km/s) = 2.54755 3.49502 3.05820
# Velocity P-wave (km/s) = 5.14135 7.46617 6.41004
#
# Compressibility (1/GPa) = 0.03242424
#
# Stress axis : x y z
#
# Youngs Moduli (GPa) = 63.92349 99.97531 17.66112
#
# Poissons Ratio (x) = 0.44509 0.27938
# Poissons Ratio (y) = 0.28459 0.08214
# Poissons Ratio (z) = 1.01121 0.46495
#
# Static dielectric constant tensor:
#      x y z
#    x 3.275010 0.000000 0.000000 
#    y 0.000000 3.326210 0.000000 
#    z 0.000000 0.000000 2.781030 
# 
# 
# High freq. dielectric constant tensor:
#      x y z
#    x 1.680370 0.000000 0.000000 
#    y 0.000000 1.670240 0.000000 
#    z 0.000000 0.000000 1.629480 
# 
# From -- ./inp_files/16694.got.cif
#   From: 2010.03.12/outbox.cif.g09.slc.cpg/sg65_9_cif.got.tgz:16694.got - 2010.04.10 20:52:16.
