data_PCOD8266961
_publ_section_title
;
Structure prediction by ZEFSAII (Michael W. Deem and Ramdas Pophale) SiO2 
 PCOD8266961
Probable space group: C M M M
;
_chemical_formula_sum "Si O2"
_cell_formula_units_Z 88
_cell_length_a 8.685630
_cell_length_b 27.013846
_cell_length_c 18.876588
_cell_angle_alpha 90.000000
_cell_angle_beta 90.000000
_cell_angle_gamma 90.000000
_cell_volume 4429.056716
_symmetry_space_group_name_H-M "C M M M"
_symmetry_group_IT_number 65
_symmetry_cell_setting 'orthorhombic'
loop_
_space_group_symop_operation_xyz
x,y,z
-x,-y,z
x,-y,-z
-x,y,-z
-x,-y,-z
x,y,-z
-x,y,z
x,-y,z
1/2+x,1/2+y,z
1/2-x,1/2-y,z
1/2+x,1/2-y,-z
1/2-x,1/2+y,-z
1/2-x,1/2-y,-z
1/2+x,1/2+y,-z
1/2-x,1/2+y,z
1/2+x,1/2-y,z
loop_
_atom_site_type_symbol
_atom_site_label
_atom_site_fract_x
_atom_site_fract_y
_atom_site_fract_z
Si Si1 0.176627 0.384644 0.418927
Si Si2 0.325540 0.444490 0.307428
Si Si3 0.817670 0.000000 0.918480
Si Si4 0.680398 0.299425 0.334137
Si Si5 0.178979 0.901585 0.842160
Si Si6 0.181599 0.698413 0.179875
O O1 0.216964 0.396413 0.500000
O O2 0.210517 0.433319 0.372234
O O3 0.289371 0.342446 0.390166
O O4 0.000000 0.368330 0.410190
O O5 0.500000 0.437255 0.334337
O O6 0.297323 0.500000 0.280576
O O7 0.293466 0.408535 0.241624
O O8 0.751208 0.050571 0.883322
O O9 0.000000 0.000000 0.906882
O O10 0.768819 0.000000 0.000000
O O11 0.500000 0.294299 0.318961
O O12 0.750000 0.250000 0.369258
O O13 0.766337 0.308914 0.260535
O O14 0.261447 0.849997 0.864271
O O15 0.000000 0.896142 0.860669
O O16 0.250000 0.750000 0.148757
O O17 0.000000 0.701687 0.174908
#
# Coordination Sequence:
#
# PCOD8266961 Si02
#       6
#    16  16   8  16  16  16
#     4  11  24  39  53  73 104 143 188 239 290 343
#     4  10  20  35  56  80 106 142 188 236 283 340
#     4   9  18  34  61  97 132 163 194 228 276 338
#     4  11  21  35  55  78 106 140 181 232 288 344
#     4  10  18  33  58  88 120 155 194 236 280 333
#     4  11  21  34  55  85 117 151 193 241 293 343
#
# _framework density 19.868789
#
# number of rings (size 3 to 8) (size 9 to 14) (size 15 to 20)
#    0.000    1.545    2.727    4.909    0.000    2.545 
#    0.000    2.273    0.000    1.636    0.000    0.000 
#    0.000    0.000    0.000    0.000    0.000    0.000 
#
# Total GULP energy -545544.993153 kJ/mol
# GULP energy per Si atom -12398.749844 kJ/mol
# Density = 1.982357 g / cm^3
# Si number density = 19.868789 Si / 1000 Ang^3
#
#
#
# Elastic Constant Matrix: (Units=GPa)
#
#
# Indices 1 2 3 4 5 6 
#
# 1 101.3979 52.2960 26.1313 0.0000 0.0000 0.0000
# 2 52.2960 164.3564 36.5370 0.0000 0.0000 0.0000
# 3 26.1313 36.5370 57.7587 0.0000 0.0000 0.0000
# 4 0.0000 0.0000 0.0000 31.0001 0.0000 0.0000
# 5 0.0000 0.0000 0.0000 0.0000 12.4285 0.0000
# 6 0.0000 0.0000 0.0000 0.0000 0.0000 34.5653
#
#
#
# Elastic Compliance Matrix: (Units=1/GPa)
#
#
# Indices 1 2 3 4 5 6 
#
# 1 0.012419 -0.003145 -0.003629 0.000000 0.000000 0.000000
# 2 -0.003145 0.007876 -0.003560 0.000000 0.000000 0.000000
# 3 -0.003629 -0.003560 0.021207 0.000000 0.000000 0.000000
# 4 0.000000 0.000000 0.000000 0.032258 0.000000 0.000000
# 5 0.000000 0.000000 0.000000 0.000000 0.080460 0.000000
# 6 0.000000 0.000000 0.000000 0.000000 0.000000 0.028931
#
#
# Mechanical properties :
#
#
# Convention : Reuss Voigt Hill
#
# Bulk Modulus (GPa) = 47.99585 61.49350 54.74467
# Shear Modulus (GPa) = 23.72312 29.50202 26.61257
#
# Velocity S-wave (km/s) = 3.45916 3.85755 3.66377
# Velocity P-wave (km/s) = 6.33745 7.13147 6.74615
#
# Compressibility (1/GPa) = 0.02083513
#
# Stress axis : x y z
#
# Youngs Moduli (GPa) = 80.51887 126.96318 47.15386
#
# Poissons Ratio (x) = 0.39928 0.17114
# Poissons Ratio (y) = 0.25322 0.16785
# Poissons Ratio (z) = 0.29224 0.45194
#
# Static dielectric constant tensor:
#      x y z
#    x 3.534380 0.000000 0.000000 
#    y 0.000000 3.503970 0.000000 
#    z 0.000000 0.000000 3.251280 
# 
# 
# High freq. dielectric constant tensor:
#      x y z
#    x 1.763100 0.000000 0.000000 
#    y 0.000000 1.797640 0.000000 
#    z 0.000000 0.000000 1.732000 
# 
# From -- ./inp_files/50381.got.cif
#   From: 2010.03.12/outbox.cif.g09.slc.cpg/sg65_26_cif.got.tgz:50381.got - 2010.04.10 20:52:16.
