data_PCOD8266728
_publ_section_title
;
Structure prediction by ZEFSAII (Michael W. Deem and Ramdas Pophale) SiO2 
 PCOD8266728
Probable space group: C M M M
;
_chemical_formula_sum "Si O2"
_cell_formula_units_Z 96
_cell_length_a 23.668288
_cell_length_b 25.329902
_cell_length_c 9.356201
_cell_angle_alpha 90.000000
_cell_angle_beta 90.000000
_cell_angle_gamma 90.000000
_cell_volume 5609.186730
_symmetry_space_group_name_H-M "C M M M"
_symmetry_group_IT_number 65
_symmetry_cell_setting 'orthorhombic'
loop_
_space_group_symop_operation_xyz
x,y,z
-x,-y,z
x,-y,-z
-x,y,-z
-x,-y,-z
x,y,-z
-x,y,z
x,-y,z
1/2+x,1/2+y,z
1/2-x,1/2-y,z
1/2+x,1/2-y,-z
1/2-x,1/2+y,-z
1/2-x,1/2-y,-z
1/2+x,1/2+y,-z
1/2-x,1/2+y,z
1/2+x,1/2-y,z
loop_
_atom_site_type_symbol
_atom_site_label
_atom_site_fract_x
_atom_site_fract_y
_atom_site_fract_z
Si Si1 0.185157 0.746106 0.331345
Si Si2 0.189141 0.559335 0.164577
Si Si3 0.699181 0.440032 0.668146
Si Si4 0.880242 0.658740 0.164580
Si Si5 0.000000 0.702203 0.834165
Si Si6 0.000000 0.188319 0.669566
Si Si7 0.380111 0.651586 0.669103
O O1 0.177554 0.740333 0.500000
O O2 0.250000 0.750000 0.286450
O O3 0.159271 0.694853 0.260117
O O4 0.153489 0.797831 0.271126
O O5 0.169947 0.500000 0.205870
O O6 0.242857 0.577129 0.257189
O O7 0.136546 0.598006 0.195993
O O8 0.207836 0.562422 0.000000
O O9 0.708678 0.432941 0.500000
O O10 0.682424 0.500000 0.707570
O O11 0.648824 0.402272 0.725338
O O12 0.945716 0.666774 0.205064
O O13 0.869431 0.673535 0.000000
O O14 0.000000 0.754648 0.740727
O O15 0.000000 0.718782 0.000000
O O16 0.054767 0.155015 0.719798
O O17 0.000000 0.197734 0.500000
O O18 0.377001 0.652235 0.500000
#
# Coordination Sequence:
#
# PCOD8266728 Si02
#       7
#    16  16  16  16   8   8  16
#     4  10  19  30  47  71  98 126 157 196 240 289
#     4   9  18  33  51  71  96 126 158 193 238 291
#     4   9  17  31  51  73  97 125 157 196 240 283
#     4  10  20  33  49  70  97 126 159 200 242 284
#     4  10  20  34  49  69  97 127 162 203 242 280
#     4  10  18  32  51  67  91 131 168 195 234 288
#     4   9  17  29  46  70  96 123 159 197 234 281
#
# _framework density 17.114781000000001
#
# number of rings (size 3 to 8) (size 9 to 14) (size 15 to 20)
#    0.000    2.500    1.667    1.000    0.000    2.333 
#    0.000    2.500    0.000    5.000    0.000    0.000 
#    0.000    8.000    0.000    0.000    0.000    0.000 
#
# Total GULP energy -595143.760165 kJ/mol
# GULP energy per Si atom -12398.828337 kJ/mol
# Density = 1.707583 g / cm^3
# Si number density = 17.114781 Si / 1000 Ang^3
#
#
#
# Elastic Constant Matrix: (Units=GPa)
#
#
# Indices 1 2 3 4 5 6 
#
# 1 150.7050 78.7552 38.9765 0.0000 0.0000 0.0000
# 2 78.7552 116.3209 29.1207 0.0000 0.0000 0.0000
# 3 38.9765 29.1207 28.0294 0.0000 0.0000 0.0000
# 4 0.0000 0.0000 0.0000 22.9364 0.0000 0.0000
# 5 0.0000 0.0000 0.0000 0.0000 1.3927 0.0000
# 6 0.0000 0.0000 0.0000 0.0000 0.0000 29.8025
#
#
#
# Elastic Compliance Matrix: (Units=1/GPa)
#
#
# Indices 1 2 3 4 5 6 
#
# 1 0.012579 -0.005592 -0.011682 0.000000 0.000000 0.000000
# 2 -0.005592 0.014105 -0.006878 0.000000 0.000000 0.000000
# 3 -0.011682 -0.006878 0.059067 0.000000 0.000000 0.000000
# 4 0.000000 0.000000 0.000000 0.043599 0.000000 0.000000
# 5 0.000000 0.000000 0.000000 0.000000 0.718018 0.000000
# 6 0.000000 0.000000 0.000000 0.000000 0.000000 0.033554
#
#
# Mechanical properties :
#
#
# Convention : Reuss Voigt Hill
#
# Bulk Modulus (GPa) = 26.70445 65.41779 46.06112
# Shear Modulus (GPa) = 5.30949 20.70651 13.00800
#
# Velocity S-wave (km/s) = 1.76324 3.48208 2.75988
# Velocity P-wave (km/s) = 4.44774 7.38055 6.09323
#
# Compressibility (1/GPa) = 0.03744694
#
# Stress axis : x y z
#
# Youngs Moduli (GPa) = 79.49677 70.89729 16.92981
#
# Poissons Ratio (x) = 0.39646 0.19778
# Poissons Ratio (y) = 0.44455 0.11644
# Poissons Ratio (z) = 0.92870 0.48763
#
# Static dielectric constant tensor:
#      x y z
#    x 3.460880 0.000000 0.000000 
#    y 0.000000 3.353690 0.000000 
#    z 0.000000 0.000000 3.029700 
# 
# 
# High freq. dielectric constant tensor:
#      x y z
#    x 1.662380 0.000000 0.000000 
#    y 0.000000 1.662030 0.000000 
#    z 0.000000 0.000000 1.639750 
# 
# From -- ./inp_files/29262.got.cif
#   From: 2010.03.12/outbox.cif.g09.slc.cpg/sg65_15_cif.got.tgz:29262.got - 2010.04.10 20:52:16.
