data_PCOD8266623
_publ_section_title
;
Structure prediction by ZEFSAII (Michael W. Deem and Ramdas Pophale) SiO2 
 PCOD8266623
Probable space group: C M M M
;
_chemical_formula_sum "Si O2"
_cell_formula_units_Z 72
_cell_length_a 28.721540
_cell_length_b 16.421032
_cell_length_c 8.073017
_cell_angle_alpha 90.000000
_cell_angle_beta 90.000000
_cell_angle_gamma 90.000000
_cell_volume 3807.536162
_symmetry_space_group_name_H-M "C M M M"
_symmetry_group_IT_number 65
_symmetry_cell_setting 'orthorhombic'
loop_
_space_group_symop_operation_xyz
x,y,z
-x,-y,z
x,-y,-z
-x,y,-z
-x,-y,-z
x,y,-z
-x,y,z
x,-y,z
1/2+x,1/2+y,z
1/2-x,1/2-y,z
1/2+x,1/2-y,-z
1/2-x,1/2+y,-z
1/2-x,1/2-y,-z
1/2+x,1/2+y,-z
1/2-x,1/2+y,z
1/2+x,1/2-y,z
loop_
_atom_site_type_symbol
_atom_site_label
_atom_site_fract_x
_atom_site_fract_y
_atom_site_fract_z
Si Si1 0.055248 0.910197 0.500000
Si Si2 0.383420 0.000000 0.811656
Si Si3 0.384162 0.829096 0.691628
Si Si4 0.221433 0.326524 0.305820
Si Si5 0.946072 0.191359 0.185497
Si Si6 0.273052 0.000000 0.814820
O O1 0.072754 0.868156 0.330082
O O2 0.000000 0.914045 0.500000
O O3 0.077108 0.000000 0.500000
O O4 0.402295 0.078917 0.715810
O O5 0.328081 0.000000 0.801857
O O6 0.401205 0.000000 0.000000
O O7 0.388273 0.803738 0.500000
O O8 0.331428 0.821109 0.761101
O O9 0.416932 0.773756 0.803979
O O10 0.220255 0.316710 0.500000
O O11 0.250000 0.250000 0.227828
O O12 0.244827 0.414906 0.266156
O O13 0.000000 0.212122 0.217037
O O14 0.939377 0.153667 0.000000
O O15 0.254089 0.000000 0.000000
#
# Coordination Sequence:
#
# PCOD8266623 Si02
#       6
#     8   8  16  16  16   8
#     4   9  18  34  56  79 102 131 173 220 260 308
#     4   9  17  29  46  72 101 133 173 212 250 300
#     4  10  18  31  52  75 103 136 173 213 254 304
#     4   9  18  32  52  75  99 133 173 211 255 306
#     4  10  20  34  54  79 107 138 171 212 261 309
#     4   9  17  29  47  72 100 129 166 214 255 300
#
# _framework density 18.909866999999998
#
# number of rings (size 3 to 8) (size 9 to 14) (size 15 to 20)
#    0.000    2.556    1.111    1.333    0.000    4.444 
#    0.000    2.778    2.444    3.333    0.000    0.000 
#    0.000    0.000    0.000    0.000    0.000    0.000 
#
# Total GULP energy -446165.802281 kJ/mol
# GULP energy per Si atom -12393.494508 kJ/mol
# Density = 1.886683 g / cm^3
# Si number density = 18.909867 Si / 1000 Ang^3
#
#
#
# Elastic Constant Matrix: (Units=GPa)
#
#
# Indices 1 2 3 4 5 6 
#
# 1 40.8476 45.1262 24.0183 0.0000 0.0000 0.0000
# 2 45.1262 161.0936 45.7671 0.0000 0.0000 0.0000
# 3 24.0183 45.7671 95.3878 0.0000 0.0000 0.0000
# 4 0.0000 0.0000 0.0000 19.8742 0.0000 0.0000
# 5 0.0000 0.0000 0.0000 0.0000 16.4002 0.0000
# 6 0.0000 0.0000 0.0000 0.0000 0.0000 23.8272
#
#
#
# Elastic Compliance Matrix: (Units=1/GPa)
#
#
# Indices 1 2 3 4 5 6 
#
# 1 0.037475 -0.009050 -0.005094 0.000000 0.000000 0.000000
# 2 -0.009050 0.009373 -0.002218 0.000000 0.000000 0.000000
# 3 -0.005094 -0.002218 0.012830 0.000000 0.000000 0.000000
# 4 0.000000 0.000000 0.000000 0.050316 0.000000 0.000000
# 5 0.000000 0.000000 0.000000 0.000000 0.060975 0.000000
# 6 0.000000 0.000000 0.000000 0.000000 0.000000 0.041969
#
#
# Mechanical properties :
#
#
# Convention : Reuss Voigt Hill
#
# Bulk Modulus (GPa) = 37.10101 58.57246 47.83673
# Shear Modulus (GPa) = 19.63501 24.18151 21.90826
#
# Velocity S-wave (km/s) = 3.22584 3.57988 3.40746
# Velocity P-wave (km/s) = 5.79113 6.93752 6.39008
#
# Compressibility (1/GPa) = 0.02695344
#
# Stress axis : x y z
#
# Youngs Moduli (GPa) = 26.68470 106.68885 77.93986
#
# Poissons Ratio (x) = 0.96558 0.39699
# Poissons Ratio (y) = 0.24151 0.17290
# Poissons Ratio (z) = 0.13592 0.23667
#
# Static dielectric constant tensor:
#      x y z
#    x 3.191150 0.000000 0.000000 
#    y 0.000000 3.790320 0.000000 
#    z 0.000000 0.000000 3.507950 
# 
# 
# High freq. dielectric constant tensor:
#      x y z
#    x 1.684490 0.000000 0.000000 
#    y 0.000000 1.740720 0.000000 
#    z 0.000000 0.000000 1.740970 
# 
# From -- ./inp_files/7740.got.cif
#   From: 2010.03.12/outbox.cif.g09.slc.cpg/sg65_4_cif.got.tgz:7740.got - 2010.04.10 20:52:16.
