data_PCOD8266266
_publ_section_title
;
Structure prediction by ZEFSAII (Michael W. Deem and Ramdas Pophale) SiO2 
 PCOD8266266
Probable space group: C M M M
;
_chemical_formula_sum "Si O2"
_cell_formula_units_Z 104
_cell_length_a 8.969581
_cell_length_b 26.878863
_cell_length_c 24.290989
_cell_angle_alpha 90.000000
_cell_angle_beta 90.000000
_cell_angle_gamma 90.000000
_cell_volume 5856.366493
_symmetry_space_group_name_H-M "C M M M"
_symmetry_group_IT_number 65
_symmetry_cell_setting 'orthorhombic'
loop_
_space_group_symop_operation_xyz
x,y,z
-x,-y,z
x,-y,-z
-x,y,-z
-x,-y,-z
x,y,-z
-x,y,z
x,-y,z
1/2+x,1/2+y,z
1/2-x,1/2-y,z
1/2+x,1/2-y,-z
1/2-x,1/2+y,-z
1/2-x,1/2-y,-z
1/2+x,1/2+y,-z
1/2-x,1/2+y,z
1/2+x,1/2-y,z
loop_
_atom_site_type_symbol
_atom_site_label
_atom_site_fract_x
_atom_site_fract_y
_atom_site_fract_z
Si Si1 0.173996 0.199779 0.654858
Si Si2 0.321953 0.500000 0.437738
Si Si3 0.825014 0.800172 0.782215
Si Si4 0.165868 0.057116 0.748153
Si Si5 0.324831 0.891546 0.840131
Si Si6 0.171607 0.057112 0.936613
Si Si7 0.676981 0.407348 0.632668
O O1 0.250000 0.250000 0.631592
O O2 0.217580 0.190160 0.718473
O O3 0.222863 0.150338 0.619550
O O4 0.000000 0.208827 0.648818
O O5 0.500000 0.500000 0.435877
O O6 0.262469 0.500000 0.500000
O O7 0.258886 0.449187 0.409202
O O8 0.750000 0.750000 0.803401
O O9 0.760360 0.842774 0.820656
O O10 0.000000 0.796237 0.790762
O O11 0.276757 0.064236 0.799098
O O12 0.235889 0.082545 0.694188
O O13 0.000000 0.079400 0.761455
O O14 0.149353 0.000000 0.734124
O O15 0.500000 0.882615 0.838525
O O16 0.275810 0.906488 0.901467
O O17 0.000000 0.064125 0.918843
O O18 0.219439 0.000000 0.926885
O O19 0.193903 0.071873 0.000000
O O20 0.500000 0.412406 0.632878
#
# Coordination Sequence:
#
# PCOD8266266 Si02
#       7
#    16   8  16  16  16  16  16
#     4   9  17  29  47  69  97 132 168 207 253 307
#     4   9  16  26  46  76 105 133 172 221 266 309
#     4  10  19  33  51  72 100 134 170 209 254 308
#     4  10  18  30  48  68  96 136 171 205 256 315
#     4  12  23  32  47  74 107 137 167 207 256 311
#     4   9  19  37  58  76  96 130 176 217 254 304
#     4   9  15  27  45  68  99 133 166 207 261 312
#
# _framework density 17.75845
#
# number of rings (size 3 to 8) (size 9 to 14) (size 15 to 20)
#    0.000    2.231    2.308    2.769    0.000    3.385 
#    0.000    0.769    0.000    0.923    0.000    0.000 
#    0.000    4.308    0.000    0.000    0.000    0.000 
#
# Total GULP energy -644528.181940 kJ/mol
# GULP energy per Si atom -12394.772730 kJ/mol
# Density = 1.771803 g / cm^3
# Si number density = 17.758450 Si / 1000 Ang^3
#
#
#
# Elastic Constant Matrix: (Units=GPa)
#
#
# Indices 1 2 3 4 5 6 
#
# 1 58.3432 34.6261 19.9704 0.0000 0.0000 0.0000
# 2 34.6261 142.2796 47.0973 0.0000 0.0000 0.0000
# 3 19.9704 47.0973 69.6772 0.0000 0.0000 0.0000
# 4 0.0000 0.0000 0.0000 18.3880 0.0000 0.0000
# 5 0.0000 0.0000 0.0000 0.0000 8.7222 0.0000
# 6 0.0000 0.0000 0.0000 0.0000 0.0000 26.5746
#
#
#
# Elastic Compliance Matrix: (Units=1/GPa)
#
#
# Indices 1 2 3 4 5 6 
#
# 1 0.020586 -0.003938 -0.003238 0.000000 0.000000 0.000000
# 2 -0.003938 0.009808 -0.005501 0.000000 0.000000 0.000000
# 3 -0.003238 -0.005501 0.018998 0.000000 0.000000 0.000000
# 4 0.000000 0.000000 0.000000 0.054383 0.000000 0.000000
# 5 0.000000 0.000000 0.000000 0.000000 0.114650 0.000000
# 6 0.000000 0.000000 0.000000 0.000000 0.000000 0.037630
#
#
# Mechanical properties :
#
#
# Convention : Reuss Voigt Hill
#
# Bulk Modulus (GPa) = 41.60161 52.63193 47.11677
# Shear Modulus (GPa) = 17.27590 21.97739 19.62664
#
# Velocity S-wave (km/s) = 3.12240 3.52173 3.32806
# Velocity P-wave (km/s) = 6.03957 6.79991 6.43099
#
# Compressibility (1/GPa) = 0.02403753
#
# Stress axis : x y z
#
# Youngs Moduli (GPa) = 48.57786 101.96191 52.63683
#
# Poissons Ratio (x) = 0.40151 0.17045
# Poissons Ratio (y) = 0.19129 0.28954
# Poissons Ratio (z) = 0.15731 0.56086
#
# Static dielectric constant tensor:
#      x y z
#    x 3.057720 0.000000 0.000000 
#    y 0.000000 3.586760 0.000000 
#    z 0.000000 0.000000 3.123880 
# 
# 
# High freq. dielectric constant tensor:
#      x y z
#    x 1.656860 0.000000 0.000000 
#    y 0.000000 1.699000 0.000000 
#    z 0.000000 0.000000 1.656850 
# 
# From -- ./inp_files/68244.got.cif
#   From: 2010.03.12/outbox.cif.g09.slc.cpg/sg65_35_cif.got.tgz:68244.got - 2010.04.10 20:52:16.
