data_PCOD8266189
_publ_section_title
;
Structure prediction by ZEFSAII (Michael W. Deem and Ramdas Pophale) SiO2 
 PCOD8266189
Probable space group: C M M M
;
_chemical_formula_sum "Si O2"
_cell_formula_units_Z 88
_cell_length_a 18.891885
_cell_length_b 25.203852
_cell_length_c 10.531897
_cell_angle_alpha 90.000000
_cell_angle_beta 90.000000
_cell_angle_gamma 90.000000
_cell_volume 5014.744574
_symmetry_space_group_name_H-M "C M M M"
_symmetry_group_IT_number 65
_symmetry_cell_setting 'orthorhombic'
loop_
_space_group_symop_operation_xyz
x,y,z
-x,-y,z
x,-y,-z
-x,y,-z
-x,-y,-z
x,y,-z
-x,y,z
x,-y,z
1/2+x,1/2+y,z
1/2-x,1/2-y,z
1/2+x,1/2-y,-z
1/2-x,1/2+y,-z
1/2-x,1/2-y,-z
1/2+x,1/2+y,-z
1/2-x,1/2+y,z
1/2+x,1/2-y,z
loop_
_atom_site_type_symbol
_atom_site_label
_atom_site_fract_x
_atom_site_fract_y
_atom_site_fract_z
Si Si1 0.916014 0.737870 0.643581
Si Si2 0.334614 0.561559 0.242645
Si Si3 0.079077 0.062833 0.000000
Si Si4 0.916846 0.344310 0.854658
Si Si5 0.076919 0.146699 0.355287
Si Si6 0.317789 0.940795 0.854284
O O1 0.886186 0.725527 0.500000
O O2 0.886927 0.697152 0.750618
O O3 0.894176 0.796486 0.696349
O O4 0.000000 0.733730 0.639416
O O5 0.350626 0.500000 0.273318
O O6 0.377527 0.582581 0.120864
O O7 0.365619 0.599568 0.350660
O O8 0.251318 0.571611 0.229538
O O9 0.000000 0.087169 0.000000
O O10 0.075847 0.000000 0.000000
O O11 0.879984 0.400216 0.822825
O O12 0.000000 0.353553 0.838934
O O13 0.899294 0.326059 0.000000
O O14 0.062116 0.159336 0.500000
O O15 0.000000 0.131027 0.293439
O O16 0.345949 0.000000 0.823499
O O17 0.293042 0.937363 0.000000
#
# Coordination Sequence:
#
# PCOD8266189 Si02
#       6
#    16  16   8  16  16  16
#     4   8  15  31  52  70  94 129 161 193 243 298
#     4  10  18  30  46  65  94 128 158 193 236 284
#     4   9  16  26  42  64  86 113 153 193 226 269
#     4   9  17  30  51  78 100 119 157 208 244 282
#     4   9  18  32  49  69  93 124 164 203 237 281
#     4   9  17  31  49  69  98 133 159 186 239 298
#
# _framework density 17.548251
#
# number of rings (size 3 to 8) (size 9 to 14) (size 15 to 20)
#    0.000    3.000    0.909    1.636    0.000    1.818 
#    1.636    4.545    0.000    6.000    0.000    2.545 
#    0.000    0.000    0.000    0.000    0.000    0.000 
#
# Total GULP energy -545135.011696 kJ/mol
# GULP energy per Si atom -12389.432084 kJ/mol
# Density = 1.750831 g / cm^3
# Si number density = 17.548251 Si / 1000 Ang^3
#
#
#
# Elastic Constant Matrix: (Units=GPa)
#
#
# Indices 1 2 3 4 5 6 
#
# 1 54.1081 50.3872 23.8510 0.0000 0.0000 0.0000
# 2 50.3872 127.4824 49.5200 0.0000 0.0000 0.0000
# 3 23.8510 49.5200 58.8043 0.0000 0.0000 0.0000
# 4 0.0000 0.0000 0.0000 27.6908 0.0000 0.0000
# 5 0.0000 0.0000 0.0000 0.0000 16.3755 0.0000
# 6 0.0000 0.0000 0.0000 0.0000 0.0000 19.6217
#
#
#
# Elastic Compliance Matrix: (Units=1/GPa)
#
#
# Indices 1 2 3 4 5 6 
#
# 1 0.029647 -0.010473 -0.003206 0.000000 0.000000 0.000000
# 2 -0.010473 0.015357 -0.008685 0.000000 0.000000 0.000000
# 3 -0.003206 -0.008685 0.025619 0.000000 0.000000 0.000000
# 4 0.000000 0.000000 0.000000 0.036113 0.000000 0.000000
# 5 0.000000 0.000000 0.000000 0.000000 0.061067 0.000000
# 6 0.000000 0.000000 0.000000 0.000000 0.000000 0.050964
#
#
# Mechanical properties :
#
#
# Convention : Reuss Voigt Hill
#
# Bulk Modulus (GPa) = 38.61391 54.21233 46.41312
# Shear Modulus (GPa) = 18.37384 20.51337 19.44360
#
# Velocity S-wave (km/s) = 3.23932 3.42273 3.33229
# Velocity P-wave (km/s) = 6.00359 6.82499 6.42742
#
# Compressibility (1/GPa) = 0.02589740
#
# Stress axis : x y z
#
# Youngs Moduli (GPa) = 33.73007 65.11640 39.03311
#
# Poissons Ratio (x) = 0.68195 0.12512
# Poissons Ratio (y) = 0.35325 0.33899
# Poissons Ratio (z) = 0.10812 0.56552
#
# Static dielectric constant tensor:
#      x y z
#    x 2.996850 0.000000 0.000000 
#    y 0.000000 3.280200 0.000000 
#    z 0.000000 0.000000 3.263420 
# 
# 
# High freq. dielectric constant tensor:
#      x y z
#    x 1.655040 0.000000 0.000000 
#    y 0.000000 1.674740 0.000000 
#    z 0.000000 0.000000 1.661910 
# 
# From -- ./inp_files/26806.got.cif
#   From: 2010.03.12/outbox.cif.g09.slc.cpg/sg65_14_cif.got.tgz:26806.got - 2010.04.10 20:52:16.
