data_PCOD8266893
_publ_section_title
;
Structure prediction by ZEFSAII (Michael W. Deem and Ramdas Pophale) SiO2 
 PCOD8266893
Probable space group: C M M M
;
_chemical_formula_sum "Si O2"
_cell_formula_units_Z 80
_cell_length_a 18.562150
_cell_length_b 22.027151
_cell_length_c 10.219777
_cell_angle_alpha 90.000000
_cell_angle_beta 90.000000
_cell_angle_gamma 90.000000
_cell_volume 4178.573313
_symmetry_space_group_name_H-M "C M M M"
_symmetry_group_IT_number 65
_symmetry_cell_setting 'orthorhombic'
loop_
_space_group_symop_operation_xyz
x,y,z
-x,-y,z
x,-y,-z
-x,y,-z
-x,-y,-z
x,y,-z
-x,y,z
x,-y,z
1/2+x,1/2+y,z
1/2-x,1/2-y,z
1/2+x,1/2-y,-z
1/2-x,1/2+y,-z
1/2-x,1/2-y,-z
1/2+x,1/2+y,-z
1/2-x,1/2+y,z
1/2+x,1/2-y,z
loop_
_atom_site_type_symbol
_atom_site_label
_atom_site_fract_x
_atom_site_fract_y
_atom_site_fract_z
Si Si1 0.079748 0.928406 0.000000
Si Si2 0.183381 0.603476 0.849010
Si Si3 0.664894 0.428490 0.745079
Si Si4 0.416905 0.323053 0.645376
Si Si5 0.166867 0.741057 0.850389
Si Si6 0.421036 0.000000 0.845087
O O1 0.123906 0.907071 0.875183
O O2 0.000000 0.898812 0.000000
O O3 0.072745 0.000000 0.000000
O O4 0.252267 0.590802 0.758561
O O5 0.150462 0.670111 0.833113
O O6 0.121057 0.559432 0.797750
O O7 0.204869 0.589747 0.000000
O O8 0.657316 0.500000 0.712994
O O9 0.625892 0.387397 0.636392
O O10 0.411137 0.294086 0.500000
O O11 0.500000 0.334865 0.682914
O O12 0.382758 0.277994 0.751533
O O13 0.250000 0.750000 0.814484
O O14 0.151526 0.762323 0.000000
O O15 0.500000 0.000000 0.779836
O O16 0.428132 0.000000 0.000000
#
# Coordination Sequence:
#
# PCOD8266893 Si02
#       6
#     8  16  16  16  16   8
#     4   9  18  28  46  81 116 148 188 238 295 351
#     4  10  18  32  56  87 122 154 189 243 302 355
#     4  11  20  34  58  86 119 156 198 245 299 360
#     4  11  26  44  60  84 122 165 206 250 303 359
#     4  10  21  38  62  91 119 152 200 253 302 354
#     4   9  18  30  50  82 121 158 187 227 295 367
#
# _framework density 19.145289999999999
#
# number of rings (size 3 to 8) (size 9 to 14) (size 15 to 20)
#    0.000    1.800    4.000    0.600    1.400    3.200 
#    0.000    3.000    0.000    0.000    0.000    0.000 
#    0.000    3.200    0.000    0.000    0.000    0.000 
#
# Total GULP energy -495914.437966 kJ/mol
# GULP energy per Si atom -12397.860949 kJ/mol
# Density = 1.910171 g / cm^3
# Si number density = 19.145290 Si / 1000 Ang^3
#
#
#
# Elastic Constant Matrix: (Units=GPa)
#
#
# Indices 1 2 3 4 5 6 
#
# 1 156.8286 56.1162 48.9324 0.0000 0.0000 0.0000
# 2 56.1162 118.6785 35.9334 0.0000 0.0000 0.0000
# 3 48.9324 35.9334 70.0153 0.0000 0.0000 0.0000
# 4 0.0000 0.0000 0.0000 15.4974 0.0000 0.0000
# 5 0.0000 0.0000 0.0000 0.0000 22.7331 0.0000
# 6 0.0000 0.0000 0.0000 0.0000 0.0000 30.8251
#
#
#
# Elastic Compliance Matrix: (Units=1/GPa)
#
#
# Indices 1 2 3 4 5 6 
#
# 1 0.008846 -0.002736 -0.004778 0.000000 0.000000 0.000000
# 2 -0.002736 0.010823 -0.003642 0.000000 0.000000 0.000000
# 3 -0.004778 -0.003642 0.019491 0.000000 0.000000 0.000000
# 4 0.000000 0.000000 0.000000 0.064527 0.000000 0.000000
# 5 0.000000 0.000000 0.000000 0.000000 0.043989 0.000000
# 6 0.000000 0.000000 0.000000 0.000000 0.000000 0.032441
#
#
# Mechanical properties :
#
#
# Convention : Reuss Voigt Hill
#
# Bulk Modulus (GPa) = 59.35757 69.72074 64.53915
# Shear Modulus (GPa) = 24.03314 27.44714 25.74014
#
# Velocity S-wave (km/s) = 3.54687 3.79043 3.67067
# Velocity P-wave (km/s) = 6.91699 7.46004 7.19364
#
# Compressibility (1/GPa) = 0.01684705
#
# Stress axis : x y z
#
# Youngs Moduli (GPa) = 113.04148 92.39864 51.30494
#
# Poissons Ratio (x) = 0.25282 0.24515
# Poissons Ratio (y) = 0.30930 0.18686
# Poissons Ratio (z) = 0.54014 0.33653
#
# Static dielectric constant tensor:
#      x y z
#    x 3.606750 0.000000 0.000000 
#    y 0.000000 3.573660 0.000000 
#    z 0.000000 0.000000 3.227000 
# 
# 
# High freq. dielectric constant tensor:
#      x y z
#    x 1.749420 0.000000 0.000000 
#    y 0.000000 1.751180 0.000000 
#    z 0.000000 0.000000 1.706470 
# 
# From -- ./inp_files/27027.got.cif
#   From: 2010.03.12/outbox.cif.g09.slc.cpg/sg65_14_cif.got.tgz:27027.got - 2010.04.10 20:52:16.
