data_PCOD8266606
_publ_section_title
;
Structure prediction by ZEFSAII (Michael W. Deem and Ramdas Pophale) SiO2 
 PCOD8266606
Probable space group: C M M M
;
_chemical_formula_sum "Si O2"
_cell_formula_units_Z 104
_cell_length_a 24.834414
_cell_length_b 18.673510
_cell_length_c 12.950607
_cell_angle_alpha 90.000000
_cell_angle_beta 90.000000
_cell_angle_gamma 90.000000
_cell_volume 6005.788026
_symmetry_space_group_name_H-M "C M M M"
_symmetry_group_IT_number 65
_symmetry_cell_setting 'orthorhombic'
loop_
_space_group_symop_operation_xyz
x,y,z
-x,-y,z
x,-y,-z
-x,y,-z
-x,-y,-z
x,y,-z
-x,y,z
x,-y,z
1/2+x,1/2+y,z
1/2-x,1/2-y,z
1/2+x,1/2-y,-z
1/2-x,1/2+y,-z
1/2-x,1/2-y,-z
1/2+x,1/2+y,-z
1/2-x,1/2+y,z
1/2+x,1/2-y,z
loop_
_atom_site_type_symbol
_atom_site_label
_atom_site_fract_x
_atom_site_fract_y
_atom_site_fract_z
Si Si1 0.244790 0.919998 0.878044
Si Si2 0.437668 0.916891 0.205887
Si Si3 0.436071 0.580434 0.500000
Si Si4 0.063698 0.831582 0.301049
Si Si5 0.640280 0.328994 0.121734
Si Si6 0.437190 0.181370 0.612689
Si Si7 0.343590 0.832002 0.881936
O O1 0.190228 0.879145 0.850691
O O2 0.295506 0.877199 0.827816
O O3 0.243016 0.000000 0.830372
O O4 0.252099 0.925432 0.000000
O O5 0.500000 0.902364 0.176792
O O6 0.424570 0.889835 0.321649
O O7 0.400732 0.872447 0.127718
O O8 0.423313 0.000000 0.198530
O O9 0.413089 0.500000 0.500000
O O10 0.500000 0.581379 0.500000
O O11 0.415835 0.619607 0.396171
O O12 0.090813 0.855921 0.193022
O O13 0.083303 0.750995 0.326403
O O14 0.000000 0.837701 0.284824
O O15 0.654345 0.248779 0.159376
O O16 0.624419 0.332964 0.000000
O O17 0.409297 0.174224 0.500000
O O18 0.500000 0.191268 0.595496
O O19 0.327904 0.825983 0.000000
#
# Coordination Sequence:
#
# PCOD8266606 Si02
#       7
#    16  16   8  16  16  16  16
#     4   9  18  33  51  70  94 127 170 215 255 294
#     4  10  20  31  45  72 105 133 166 205 248 302
#     4   9  18  32  52  78 102 129 173 221 254 290
#     4  10  18  31  51  75 105 138 167 201 252 304
#     4  10  20  32  50  77 105 133 170 212 250 301
#     4   9  16  29  48  68  94 130 168 204 244 293
#     4  10  19  32  50  71  99 136 173 207 246 294
#
# _framework density 17.316628999999999
#
# number of rings (size 3 to 8) (size 9 to 14) (size 15 to 20)
#    0.000    2.385    2.308    0.923    0.000    4.308 
#    0.000    3.846    0.000    0.000    2.000    6.462 
#    0.000    0.000    0.000    0.000    0.000    0.000 
#
# Total GULP energy -644501.802961 kJ/mol
# GULP energy per Si atom -12394.265442 kJ/mol
# Density = 1.727722 g / cm^3
# Si number density = 17.316629 Si / 1000 Ang^3
#
#
#
# Elastic Constant Matrix: (Units=GPa)
#
#
# Indices 1 2 3 4 5 6 
#
# 1 71.5091 39.7788 33.4749 0.0000 0.0000 0.0000
# 2 39.7788 111.8483 26.0181 0.0000 0.0000 0.0000
# 3 33.4749 26.0181 65.7457 0.0000 0.0000 0.0000
# 4 0.0000 0.0000 0.0000 18.7050 0.0000 0.0000
# 5 0.0000 0.0000 0.0000 0.0000 8.7181 0.0000
# 6 0.0000 0.0000 0.0000 0.0000 0.0000 22.0376
#
#
#
# Elastic Compliance Matrix: (Units=1/GPa)
#
#
# Indices 1 2 3 4 5 6 
#
# 1 0.021038 -0.005496 -0.008536 0.000000 0.000000 0.000000
# 2 -0.005496 0.011283 -0.001667 0.000000 0.000000 0.000000
# 3 -0.008536 -0.001667 0.020216 0.000000 0.000000 0.000000
# 4 0.000000 0.000000 0.000000 0.053462 0.000000 0.000000
# 5 0.000000 0.000000 0.000000 0.000000 0.114703 0.000000
# 6 0.000000 0.000000 0.000000 0.000000 0.000000 0.045377
#
#
# Mechanical properties :
#
#
# Convention : Reuss Voigt Hill
#
# Bulk Modulus (GPa) = 47.30789 49.73853 48.52321
# Shear Modulus (GPa) = 16.41906 19.88088 18.14997
#
# Velocity S-wave (km/s) = 3.08257 3.39201 3.24099
# Velocity P-wave (km/s) = 6.32837 6.64276 6.48747
#
# Compressibility (1/GPa) = 0.02113812
#
# Stress axis : x y z
#
# Youngs Moduli (GPa) = 47.53345 88.62763 49.46551
#
# Poissons Ratio (x) = 0.48713 0.42226
# Poissons Ratio (y) = 0.26126 0.08244
# Poissons Ratio (z) = 0.40577 0.14771
#
# Static dielectric constant tensor:
#      x y z
#    x 3.034400 0.000000 0.000000 
#    y 0.000000 3.445540 0.000000 
#    z 0.000000 0.000000 3.097480 
# 
# 
# High freq. dielectric constant tensor:
#      x y z
#    x 1.642020 0.000000 0.000000 
#    y 0.000000 1.678950 0.000000 
#    z 0.000000 0.000000 1.645770 
# 
# From -- ./inp_files/31055.got.cif
#   From: 2010.03.12/outbox.cif.g09.slc.cpg/sg65_16_cif.got.tgz:31055.got - 2010.04.10 20:52:16.
