data_PCOD8266988
_publ_section_title
;
Structure prediction by ZEFSAII (Michael W. Deem and Ramdas Pophale) SiO2 
 PCOD8266988
Probable space group: C M M M
;
_chemical_formula_sum "Si O2"
_cell_formula_units_Z 72
_cell_length_a 8.939569
_cell_length_b 23.604528
_cell_length_c 17.854275
_cell_angle_alpha 90.000000
_cell_angle_beta 90.000000
_cell_angle_gamma 90.000000
_cell_volume 3767.507462
_symmetry_space_group_name_H-M "C M M M"
_symmetry_group_IT_number 65
_symmetry_cell_setting 'orthorhombic'
loop_
_space_group_symop_operation_xyz
x,y,z
-x,-y,z
x,-y,-z
-x,y,-z
-x,-y,-z
x,y,-z
-x,y,z
x,-y,z
1/2+x,1/2+y,z
1/2-x,1/2-y,z
1/2+x,1/2-y,-z
1/2-x,1/2+y,-z
1/2-x,1/2-y,-z
1/2+x,1/2+y,-z
1/2-x,1/2+y,z
1/2+x,1/2-y,z
loop_
_atom_site_type_symbol
_atom_site_label
_atom_site_fract_x
_atom_site_fract_y
_atom_site_fract_z
Si Si1 0.676840 0.310495 0.211120
Si Si2 0.172020 0.500000 0.156204
Si Si3 0.822657 0.000000 0.314239
Si Si4 0.326981 0.881019 0.086099
Si Si5 0.677492 0.621324 0.355609
Si Si6 0.821484 0.188553 0.500000
O O1 0.500000 0.303644 0.211814
O O2 0.750000 0.250000 0.221062
O O3 0.726127 0.338532 0.133637
O O4 0.734880 0.348877 0.279961
O O5 0.274555 0.500000 0.228573
O O6 0.210506 0.554298 0.106084
O O7 0.000000 0.500000 0.182027
O O8 0.762402 0.056409 0.356183
O O9 0.000000 0.000000 0.314301
O O10 0.500000 0.867328 0.102125
O O11 0.285864 0.870771 0.000000
O O12 0.500000 0.621554 0.357756
O O13 0.738974 0.654586 0.427711
O O14 0.750000 0.250000 0.500000
O O15 0.000000 0.194306 0.500000
#
# Coordination Sequence:
#
# PCOD8266988 Si02
#       6
#    16   8   8  16  16   8
#     4  11  22  37  56  80 109 146 188 232 278 330
#     4  10  19  34  57  85 112 142 180 225 276 331
#     4  10  18  34  57  83 113 144 178 226 275 328
#     4  10  21  37  57  82 111 144 183 228 278 332
#     4   9  19  34  57  84 112 143 183 226 272 327
#     4  10  20  37  57  83 113 148 187 226 270 319
#
# _framework density 19.110779000000001
#
# number of rings (size 3 to 8) (size 9 to 14) (size 15 to 20)
#    0.000    2.000    2.222    1.667    0.000    2.667 
#    0.000    4.444    0.000    2.000    0.000    1.556 
#    0.000    0.000    0.000    0.000    0.000    0.000 
#
# Total GULP energy -446455.731780 kJ/mol
# GULP energy per Si atom -12401.548105 kJ/mol
# Density = 1.906728 g / cm^3
# Si number density = 19.110779 Si / 1000 Ang^3
#
#
#
# Elastic Constant Matrix: (Units=GPa)
#
#
# Indices 1 2 3 4 5 6 
#
# 1 40.5768 42.6429 32.0159 0.0000 0.0000 0.0000
# 2 42.6429 184.1128 82.7702 0.0000 0.0000 0.0000
# 3 32.0159 82.7702 148.6026 0.0000 0.0000 0.0000
# 4 0.0000 0.0000 0.0000 85.5072 0.0000 0.0000
# 5 0.0000 0.0000 0.0000 0.0000 21.5836 0.0000
# 6 0.0000 0.0000 0.0000 0.0000 0.0000 4.5366
#
#
#
# Elastic Compliance Matrix: (Units=1/GPa)
#
#
# Indices 1 2 3 4 5 6 
#
# 1 0.034224 -0.006153 -0.003947 0.000000 0.000000 0.000000
# 2 -0.006153 0.008352 -0.003326 0.000000 0.000000 0.000000
# 3 -0.003947 -0.003326 0.009432 0.000000 0.000000 0.000000
# 4 0.000000 0.000000 0.000000 0.011695 0.000000 0.000000
# 5 0.000000 0.000000 0.000000 0.000000 0.046331 0.000000
# 6 0.000000 0.000000 0.000000 0.000000 0.000000 0.220429
#
#
# Mechanical properties :
#
#
# Convention : Reuss Voigt Hill
#
# Bulk Modulus (GPa) = 39.74941 76.46113 58.10527
# Shear Modulus (GPa) = 13.67237 36.71637 25.19437
#
# Velocity S-wave (km/s) = 2.67765 4.38795 3.63482
# Velocity P-wave (km/s) = 5.51402 8.10977 6.93443
#
# Compressibility (1/GPa) = 0.02515761
#
# Stress axis : x y z
#
# Youngs Moduli (GPa) = 29.21891 119.73365 106.01770
#
# Poissons Ratio (x) = 0.73667 0.41841
# Poissons Ratio (y) = 0.17977 0.35265
# Poissons Ratio (z) = 0.11532 0.39828
#
# Static dielectric constant tensor:
#      x y z
#    x 3.238140 0.000000 0.000000 
#    y 0.000000 3.795360 0.000000 
#    z 0.000000 0.000000 3.696530 
# 
# 
# High freq. dielectric constant tensor:
#      x y z
#    x 1.715120 0.000000 0.000000 
#    y 0.000000 1.761260 0.000000 
#    z 0.000000 0.000000 1.748170 
# 
# From -- ./inp_files/36656.got.cif
#   From: 2010.03.12/outbox.cif.g09.slc.cpg/sg65_19_cif.got.tgz:36656.got - 2010.04.10 20:52:16.
