data_PCOD8266140
_publ_section_title
;
Structure prediction by ZEFSAII (Michael W. Deem and Ramdas Pophale) SiO2 
 PCOD8266140
Probable space group: C M M M
;
_chemical_formula_sum "Si O2"
_cell_formula_units_Z 80
_cell_length_a 28.615526
_cell_length_b 20.954087
_cell_length_c 7.749147
_cell_angle_alpha 90.000000
_cell_angle_beta 90.000000
_cell_angle_gamma 90.000000
_cell_volume 4646.483246
_symmetry_space_group_name_H-M "C M M M"
_symmetry_group_IT_number 65
_symmetry_cell_setting 'orthorhombic'
loop_
_space_group_symop_operation_xyz
x,y,z
-x,-y,z
x,-y,-z
-x,y,-z
-x,-y,-z
x,y,-z
-x,y,z
x,-y,z
1/2+x,1/2+y,z
1/2-x,1/2-y,z
1/2+x,1/2-y,-z
1/2-x,1/2+y,-z
1/2-x,1/2-y,-z
1/2+x,1/2+y,-z
1/2-x,1/2+y,z
1/2+x,1/2-y,z
loop_
_atom_site_type_symbol
_atom_site_label
_atom_site_fract_x
_atom_site_fract_y
_atom_site_fract_z
Si Si1 0.947013 0.288689 0.500000
Si Si2 0.419992 0.067691 0.500000
Si Si3 0.855794 0.595081 0.190670
Si Si4 0.244177 0.569720 0.699169
Si Si5 0.788794 0.800375 0.703899
Si Si6 0.379876 0.236165 0.194103
O O1 0.949039 0.366529 0.500000
O O2 0.922230 0.259522 0.669520
O O3 0.000000 0.264038 0.500000
O O4 0.388534 0.062491 0.329972
O O5 0.449334 0.000000 0.500000
O O6 0.803888 0.567825 0.197168
O O7 0.852964 0.670277 0.227554
O O8 0.876435 0.581013 0.000000
O O9 0.231738 0.581914 0.500000
O O10 0.268744 0.500000 0.725396
O O11 0.276393 0.627706 0.765001
O O12 0.792227 0.793665 0.500000
O O13 0.750000 0.750000 0.774675
O O14 0.840268 0.789459 0.780970
O O15 0.400707 0.241118 0.000000
#
# Coordination Sequence:
#
# PCOD8266140 Si02
#       6
#     8   8  16  16  16  16
#     4  10  22  39  56  74  98 125 162 217 271 308
#     4  10  20  33  49  69  96 127 166 213 256 301
#     4  10  19  30  46  69  98 133 172 210 247 287
#     4  10  19  29  43  67 103 142 174 208 244 283
#     4  10  18  29  50  73 103 139 174 210 243 292
#     4  10  20  34  54  77  99 129 170 210 255 304
#
# _framework density 17.217323
#
# number of rings (size 3 to 8) (size 9 to 14) (size 15 to 20)
#    0.000    2.000    4.000    0.600    0.000    3.400 
#    0.000    0.000    0.000    0.000    0.000    5.600 
#    0.000    1.600    0.000    1.800    0.000    0.000 
#
# Total GULP energy -495742.514509 kJ/mol
# GULP energy per Si atom -12393.562863 kJ/mol
# Density = 1.717814 g / cm^3
# Si number density = 17.217323 Si / 1000 Ang^3
#
#
#
# Elastic Constant Matrix: (Units=GPa)
#
#
# Indices 1 2 3 4 5 6 
#
# 1 93.4535 37.1939 37.7993 0.0000 0.0000 0.0000
# 2 37.1939 91.6054 25.9863 0.0000 0.0000 0.0000
# 3 37.7993 25.9863 94.0953 0.0000 0.0000 0.0000
# 4 0.0000 0.0000 0.0000 16.8570 0.0000 0.0000
# 5 0.0000 0.0000 0.0000 0.0000 2.8829 0.0000
# 6 0.0000 0.0000 0.0000 0.0000 0.0000 4.5538
#
#
#
# Elastic Compliance Matrix: (Units=1/GPa)
#
#
# Indices 1 2 3 4 5 6 
#
# 1 0.014329 -0.004541 -0.004502 0.000000 0.000000 0.000000
# 2 -0.004541 0.013283 -0.001844 0.000000 0.000000 0.000000
# 3 -0.004502 -0.001844 0.012945 0.000000 0.000000 0.000000
# 4 0.000000 0.000000 0.000000 0.059322 0.000000 0.000000
# 5 0.000000 0.000000 0.000000 0.000000 0.346869 0.000000
# 6 0.000000 0.000000 0.000000 0.000000 0.000000 0.219598
#
#
# Mechanical properties :
#
#
# Convention : Reuss Voigt Hill
#
# Bulk Modulus (GPa) = 53.23920 53.45702 53.34811
# Shear Modulus (GPa) = 7.20066 16.73707 11.96886
#
# Velocity S-wave (km/s) = 2.04727 3.12124 2.63946
# Velocity P-wave (km/s) = 6.04793 6.64119 6.35149
#
# Compressibility (1/GPa) = 0.01878315
#
# Stress axis : x y z
#
# Youngs Moduli (GPa) = 69.79059 75.28310 77.24760
#
# Poissons Ratio (x) = 0.34183 0.34777
# Poissons Ratio (y) = 0.31689 0.14247
# Poissons Ratio (z) = 0.31420 0.13885
#
# Static dielectric constant tensor:
#      x y z
#    x 2.763320 0.000000 0.000000 
#    y 0.000000 3.299520 0.000000 
#    z 0.000000 0.000000 3.278880 
# 
# 
# High freq. dielectric constant tensor:
#      x y z
#    x 1.611460 0.000000 0.000000 
#    y 0.000000 1.654220 0.000000 
#    z 0.000000 0.000000 1.676140 
# 
# From -- ./inp_files/13830.got.cif
#   From: 2010.03.12/outbox.cif.g09.slc.cpg/sg65_7_cif.got.tgz:13830.got - 2010.04.10 20:52:16.
