data_PCOD8266114
_publ_section_title
;
Structure prediction by ZEFSAII (Michael W. Deem and Ramdas Pophale) SiO2 
 PCOD8266114
Probable space group: C M M M
;
_chemical_formula_sum "Si O2"
_cell_formula_units_Z 112
_cell_length_a 23.449304
_cell_length_b 20.649164
_cell_length_c 13.325655
_cell_angle_alpha 90.000000
_cell_angle_beta 90.000000
_cell_angle_gamma 90.000000
_cell_volume 6452.395739
_symmetry_space_group_name_H-M "C M M M"
_symmetry_group_IT_number 65
_symmetry_cell_setting 'orthorhombic'
loop_
_space_group_symop_operation_xyz
x,y,z
-x,-y,z
x,-y,-z
-x,y,-z
-x,-y,-z
x,y,-z
-x,y,z
x,-y,z
1/2+x,1/2+y,z
1/2-x,1/2-y,z
1/2+x,1/2-y,-z
1/2-x,1/2+y,-z
1/2-x,1/2-y,-z
1/2+x,1/2+y,-z
1/2-x,1/2+y,z
1/2+x,1/2-y,z
loop_
_atom_site_type_symbol
_atom_site_label
_atom_site_fract_x
_atom_site_fract_y
_atom_site_fract_z
Si Si1 0.738135 0.177199 0.770093
Si Si2 0.639294 0.199182 0.381994
Si Si3 0.435023 0.867252 0.772097
Si Si4 0.063080 0.074487 0.387866
Si Si5 0.835644 0.426788 0.883279
Si Si6 0.435988 0.265415 0.115692
Si Si7 0.863354 0.830117 0.723095
O O1 0.750000 0.250000 0.814445
O O2 0.698602 0.181337 0.671726
O O3 0.709633 0.128438 0.849954
O O4 0.798204 0.148433 0.735858
O O5 0.644058 0.185977 0.500000
O O6 0.588255 0.155246 0.336980
O O7 0.626686 0.274624 0.360537
O O8 0.500000 0.892742 0.760291
O O9 0.394386 0.921983 0.819684
O O10 0.431311 0.808059 0.848932
O O11 0.086643 0.084811 0.500000
O O12 0.105136 0.105734 0.309391
O O13 0.000000 0.105368 0.378521
O O14 0.059760 0.000000 0.359989
O O15 0.811783 0.500000 0.865332
O O16 0.848940 0.415660 0.000000
O O17 0.500000 0.291725 0.136308
O O18 0.389074 0.308315 0.170887
O O19 0.420066 0.268282 0.000000
#
# Coordination Sequence:
#
# PCOD8266114 Si02
#       7
#    16  16  16  16  16  16  16
#     4   9  20  34  50  74 101 131 166 205 249 297
#     4   9  18  32  49  73 104 129 154 199 250 289
#     4   9  18  32  50  74 101 129 162 197 239 296
#     4   9  18  31  45  64  92 122 153 196 247 293
#     4  10  21  36  53  74 102 134 168 212 261 300
#     4   9  17  29  46  70  99 125 152 195 247 294
#     4  10  18  29  49  72  92 124 166 201 241 296
#
# _framework density 17.357894000000002
#
# number of rings (size 3 to 8) (size 9 to 14) (size 15 to 20)
#    0.000    2.714    0.000    2.571    0.000    6.571 
#    0.000    0.714    0.000    7.286    0.000    6.000 
#    0.000    0.000    0.000    0.000    0.000    0.000 
#
# Total GULP energy -694194.174905 kJ/mol
# GULP energy per Si atom -12396.324552 kJ/mol
# Density = 1.731839 g / cm^3
# Si number density = 17.357894 Si / 1000 Ang^3
#
#
#
# Elastic Constant Matrix: (Units=GPa)
#
#
# Indices 1 2 3 4 5 6 
#
# 1 100.0603 43.7206 38.8161 0.0000 0.0000 0.0000
# 2 43.7206 65.6580 41.3374 0.0000 0.0000 0.0000
# 3 38.8161 41.3374 99.7911 0.0000 0.0000 0.0000
# 4 0.0000 0.0000 0.0000 18.6884 0.0000 0.0000
# 5 0.0000 0.0000 0.0000 0.0000 23.1906 0.0000
# 6 0.0000 0.0000 0.0000 0.0000 0.0000 26.9627
#
#
#
# Elastic Compliance Matrix: (Units=1/GPa)
#
#
# Indices 1 2 3 4 5 6 
#
# 1 0.014447 -0.008228 -0.002211 0.000000 0.000000 0.000000
# 2 -0.008228 0.025290 -0.007276 0.000000 0.000000 0.000000
# 3 -0.002211 -0.007276 0.013895 0.000000 0.000000 0.000000
# 4 0.000000 0.000000 0.000000 0.053509 0.000000 0.000000
# 5 0.000000 0.000000 0.000000 0.000000 0.043121 0.000000
# 6 0.000000 0.000000 0.000000 0.000000 0.000000 0.037088
#
#
# Mechanical properties :
#
#
# Convention : Reuss Voigt Hill
#
# Bulk Modulus (GPa) = 54.93799 57.02861 55.98330
# Shear Modulus (GPa) = 21.84872 23.21069 22.52970
#
# Velocity S-wave (km/s) = 3.55169 3.66072 3.60662
# Velocity P-wave (km/s) = 6.96694 7.12697 7.04741
#
# Compressibility (1/GPa) = 0.01820234
#
# Stress axis : x y z
#
# Youngs Moduli (GPa) = 69.21948 39.54162 71.96898
#
# Poissons Ratio (x) = 0.32534 0.15913
# Poissons Ratio (y) = 0.56952 0.52362
# Poissons Ratio (z) = 0.15306 0.28769
#
# Static dielectric constant tensor:
#      x y z
#    x 3.464260 0.000000 0.000000 
#    y 0.000000 3.059530 0.000000 
#    z 0.000000 0.000000 3.049150 
# 
# 
# High freq. dielectric constant tensor:
#      x y z
#    x 1.679480 0.000000 0.000000 
#    y 0.000000 1.649160 0.000000 
#    z 0.000000 0.000000 1.659520 
# 
# From -- ./inp_files/31079.got.cif
#   From: 2010.03.12/outbox.cif.g09.slc.cpg/sg65_16_cif.got.tgz:31079.got - 2010.04.10 20:52:16.
