data_PCOD8266546
_publ_section_title
;
Structure prediction by ZEFSAII (Michael W. Deem and Ramdas Pophale) SiO2 
 PCOD8266546
Probable space group: C M M M
;
_chemical_formula_sum "Si O2"
_cell_formula_units_Z 88
_cell_length_a 17.849540
_cell_length_b 34.800708
_cell_length_c 7.837136
_cell_angle_alpha 90.000000
_cell_angle_beta 90.000000
_cell_angle_gamma 90.000000
_cell_volume 4868.245725
_symmetry_space_group_name_H-M "C M M M"
_symmetry_group_IT_number 65
_symmetry_cell_setting 'orthorhombic'
loop_
_space_group_symop_operation_xyz
x,y,z
-x,-y,z
x,-y,-z
-x,y,-z
-x,-y,-z
x,y,-z
-x,y,z
x,-y,z
1/2+x,1/2+y,z
1/2-x,1/2-y,z
1/2+x,1/2-y,-z
1/2-x,1/2+y,-z
1/2-x,1/2-y,-z
1/2+x,1/2+y,-z
1/2-x,1/2+y,z
1/2+x,1/2-y,z
loop_
_atom_site_type_symbol
_atom_site_label
_atom_site_fract_x
_atom_site_fract_y
_atom_site_fract_z
Si Si1 0.760118 0.704984 0.500000
Si Si2 0.000000 0.044130 0.799076
Si Si3 0.371492 0.884005 0.810452
Si Si4 0.349919 0.584654 0.696303
Si Si5 0.081297 0.663783 0.500000
Si Si6 0.714619 0.342186 0.812417
Si Si7 0.797606 0.543019 0.297329
O O1 0.750000 0.750000 0.500000
O O2 0.848507 0.693244 0.500000
O O3 0.716286 0.690304 0.332365
O O4 0.071834 0.064064 0.720135
O O5 0.000000 0.000000 0.742126
O O6 0.000000 0.048969 0.000000
O O7 0.420720 0.863243 0.667302
O O8 0.289679 0.866359 0.796620
O O9 0.363316 0.929582 0.775179
O O10 0.406115 0.877582 0.000000
O O11 0.333710 0.593169 0.500000
O O12 0.351434 0.626515 0.787060
O O13 0.283972 0.557233 0.768449
O O14 0.000000 0.685604 0.500000
O O15 0.706081 0.322846 0.000000
O O16 0.800654 0.543845 0.500000
O O17 0.810989 0.500000 0.227419
#
# Coordination Sequence:
#
# PCOD8266546 Si02
#       7
#     8   8  16  16   8  16  16
#     4  10  20  36  60  87 112 135 168 209 255 318
#     4  11  23  33  41  63 103 147 193 242 287 325
#     4   9  17  30  50  76 102 134 174 212 251 301
#     4  10  18  31  49  69  97 136 186 230 272 322
#     4  10  20  36  57  80 108 136 163 206 254 301
#     4   9  17  32  54  79 105 134 172 216 260 311
#     4   9  16  27  46  71  99 131 172 226 274 308
#
# _framework density 18.076326999999999
#
# number of rings (size 3 to 8) (size 9 to 14) (size 15 to 20)
#    0.000    2.455    1.818    1.364    0.000    3.273 
#    0.000    0.000    2.000    1.091    0.000    1.273 
#    0.000    0.000    0.000    0.000    0.000    0.000 
#
# Total GULP energy -545345.361800 kJ/mol
# GULP energy per Si atom -12394.212768 kJ/mol
# Density = 1.803518 g / cm^3
# Si number density = 18.076327 Si / 1000 Ang^3
#
#
#
# Elastic Constant Matrix: (Units=GPa)
#
#
# Indices 1 2 3 4 5 6 
#
# 1 60.7668 27.0214 16.3161 0.0000 0.0000 0.0000
# 2 27.0214 123.6583 52.3753 0.0000 0.0000 0.0000
# 3 16.3161 52.3753 113.6843 0.0000 0.0000 0.0000
# 4 0.0000 0.0000 0.0000 15.5404 0.0000 0.0000
# 5 0.0000 0.0000 0.0000 0.0000 3.5134 0.0000
# 6 0.0000 0.0000 0.0000 0.0000 0.0000 18.9712
#
#
#
# Elastic Compliance Matrix: (Units=1/GPa)
#
#
# Indices 1 2 3 4 5 6 
#
# 1 0.018314 -0.003589 -0.000975 0.000000 0.000000 0.000000
# 2 -0.003589 0.010751 -0.004438 0.000000 0.000000 0.000000
# 3 -0.000975 -0.004438 0.010981 0.000000 0.000000 0.000000
# 4 0.000000 0.000000 0.000000 0.064348 0.000000 0.000000
# 5 0.000000 0.000000 0.000000 0.000000 0.284623 0.000000
# 6 0.000000 0.000000 0.000000 0.000000 0.000000 0.052711
#
#
# Mechanical properties :
#
#
# Convention : Reuss Voigt Hill
#
# Bulk Modulus (GPa) = 45.36808 54.39279 49.88043
# Shear Modulus (GPa) = 10.70482 21.09812 15.90147
#
# Velocity S-wave (km/s) = 2.43616 3.42009 2.96917
# Velocity P-wave (km/s) = 5.75028 6.76402 6.27765
#
# Compressibility (1/GPa) = 0.02204193
#
# Stress axis : x y z
#
# Youngs Moduli (GPa) = 54.60280 93.01727 91.06833
#
# Poissons Ratio (x) = 0.33384 0.08879
# Poissons Ratio (y) = 0.19597 0.40415
# Poissons Ratio (z) = 0.05324 0.41280
#
# Static dielectric constant tensor:
#      x y z
#    x 1.474210 0.000000 0.000000 
#    y 0.000000 3.162320 0.000000 
#    z 0.000000 0.000000 3.576600 
# 
# 
# High freq. dielectric constant tensor:
#      x y z
#    x 1.666790 0.000000 0.000000 
#    y 0.000000 1.675000 0.000000 
#    z 0.000000 0.000000 1.715850 
# 
# From -- ./inp_files/10174.got.cif
#   From: 2010.03.12/outbox.cif.g09.slc.cpg/sg65_6_cif.got.tgz:10174.got - 2010.04.10 20:52:16.
