data_PCOD8266187
_publ_section_title
;
Structure prediction by ZEFSAII (Michael W. Deem and Ramdas Pophale) SiO2 
 PCOD8266187
Probable space group: C M M M
;
_chemical_formula_sum "Si O2"
_cell_formula_units_Z 96
_cell_length_a 30.526420
_cell_length_b 13.038525
_cell_length_c 14.300517
_cell_angle_alpha 90.000000
_cell_angle_beta 90.000000
_cell_angle_gamma 90.000000
_cell_volume 5691.884488
_symmetry_space_group_name_H-M "C M M M"
_symmetry_group_IT_number 65
_symmetry_cell_setting 'orthorhombic'
loop_
_space_group_symop_operation_xyz
x,y,z
-x,-y,z
x,-y,-z
-x,y,-z
-x,-y,-z
x,y,-z
-x,y,z
x,-y,z
1/2+x,1/2+y,z
1/2-x,1/2-y,z
1/2+x,1/2-y,-z
1/2-x,1/2+y,-z
1/2-x,1/2-y,-z
1/2+x,1/2+y,-z
1/2-x,1/2+y,z
1/2+x,1/2-y,z
loop_
_atom_site_type_symbol
_atom_site_label
_atom_site_fract_x
_atom_site_fract_y
_atom_site_fract_z
Si Si1 0.834783 0.386767 0.215745
Si Si2 0.750747 0.114121 0.895910
Si Si3 0.104866 0.000000 0.110004
Si Si4 0.884968 0.616113 0.605323
Si Si5 0.843552 0.800197 0.105982
Si Si6 0.948690 0.000000 0.285833
Si Si7 0.449632 0.701415 0.391071
O O1 0.851504 0.500000 0.184501
O O2 0.783919 0.375494 0.187972
O O3 0.842823 0.371643 0.326575
O O4 0.861651 0.297944 0.162373
O O5 0.790714 0.192863 0.880090
O O6 0.771213 0.000000 0.894934
O O7 0.729593 0.133440 0.000000
O O8 0.133248 0.902480 0.141014
O O9 0.062018 0.000000 0.175165
O O10 0.092101 0.000000 0.000000
O O11 0.868426 0.638018 0.500000
O O12 0.904059 0.500000 0.613267
O O13 0.922678 0.696016 0.634898
O O14 0.856502 0.781668 0.000000
O O15 0.930225 0.103296 0.335110
O O16 0.000000 0.000000 0.299994
O O17 0.445276 0.675208 0.500000
O O18 0.500000 0.723200 0.363491
#
# Coordination Sequence:
#
# PCOD8266187 Si02
#       7
#    16  16   8  16  16   8  16
#     4  10  19  28  43  66  89 117 149 180 225 279
#     4   9  16  28  45  66  90 114 145 188 234 272
#     4  10  20  32  47  66  90 127 163 187 218 263
#     4   9  18  32  47  65  91 121 152 184 220 264
#     4  10  18  30  46  65  91 117 148 191 232 269
#     4  10  19  31  48  71  99 124 147 183 228 272
#     4   9  17  30  50  74  95 115 144 185 233 279
#
# _framework density 16.866119000000001
#
# number of rings (size 3 to 8) (size 9 to 14) (size 15 to 20)
#    0.000    2.500    0.833    2.250    0.000    3.833 
#    0.000    1.667    0.000    2.000    0.000    0.000 
#    0.000    0.000    0.000   45.833    0.000    0.833 
#
# Total GULP energy -594802.984079 kJ/mol
# GULP energy per Si atom -12391.728835 kJ/mol
# Density = 1.682773 g / cm^3
# Si number density = 16.866119 Si / 1000 Ang^3
#
#
#
# Elastic Constant Matrix: (Units=GPa)
#
#
# Indices 1 2 3 4 5 6 
#
# 1 37.9717 26.1326 41.4264 0.0000 0.0000 0.0000
# 2 26.1326 139.1211 60.3940 0.0000 0.0000 0.0000
# 3 41.4264 60.3940 89.3515 0.0000 0.0000 0.0000
# 4 0.0000 0.0000 0.0000 22.2595 0.0000 0.0000
# 5 0.0000 0.0000 0.0000 0.0000 24.9087 0.0000
# 6 0.0000 0.0000 0.0000 0.0000 0.0000 14.3917
#
#
#
# Elastic Compliance Matrix: (Units=1/GPa)
#
#
# Indices 1 2 3 4 5 6 
#
# 1 0.053392 0.001015 -0.025440 0.000000 0.000000 0.000000
# 2 0.001015 0.010192 -0.007360 0.000000 0.000000 0.000000
# 3 -0.025440 -0.007360 0.027961 0.000000 0.000000 0.000000
# 4 0.000000 0.000000 0.000000 0.044925 0.000000 0.000000
# 5 0.000000 0.000000 0.000000 0.000000 0.040147 0.000000
# 6 0.000000 0.000000 0.000000 0.000000 0.000000 0.069484
#
#
# Mechanical properties :
#
#
# Convention : Reuss Voigt Hill
#
# Bulk Modulus (GPa) = 35.74591 58.03891 46.89241
# Shear Modulus (GPa) = 15.67418 21.54473 18.60946
#
# Velocity S-wave (km/s) = 3.05180 3.57795 3.32530
# Velocity P-wave (km/s) = 5.80154 7.18019 6.52737
#
# Compressibility (1/GPa) = 0.02797523
#
# Stress axis : x y z
#
# Youngs Moduli (GPa) = 18.72945 98.11385 35.76398
#
# Poissons Ratio (x) = -0.09956 0.90984
# Poissons Ratio (y) = -0.01900 0.26321
# Poissons Ratio (z) = 0.47648 0.72207
#
# Static dielectric constant tensor:
#      x y z
#    x 2.813340 0.000000 0.000000 
#    y 0.000000 3.631970 0.000000 
#    z 0.000000 0.000000 3.132790 
# 
# 
# High freq. dielectric constant tensor:
#      x y z
#    x 1.605640 0.000000 0.000000 
#    y 0.000000 1.683720 0.000000 
#    z 0.000000 0.000000 1.638790 
# 
# From -- ./inp_files/33895.got.cif
#   From: 2010.03.12/outbox.cif.g09.slc.cpg/sg65_17_cif.got.tgz:33895.got - 2010.04.10 20:52:16.
