data_PCOD8266262
_publ_section_title
;
Structure prediction by ZEFSAII (Michael W. Deem and Ramdas Pophale) SiO2 
 PCOD8266262
Probable space group: C M M M
;
_chemical_formula_sum "Si O2"
_cell_formula_units_Z 104
_cell_length_a 26.576002
_cell_length_b 9.470988
_cell_length_c 24.364513
_cell_angle_alpha 90.000000
_cell_angle_beta 90.000000
_cell_angle_gamma 90.000000
_cell_volume 6132.572190
_symmetry_space_group_name_H-M "C M M M"
_symmetry_group_IT_number 65
_symmetry_cell_setting 'orthorhombic'
loop_
_space_group_symop_operation_xyz
x,y,z
-x,-y,z
x,-y,-z
-x,y,-z
-x,-y,-z
x,y,-z
-x,y,z
x,-y,z
1/2+x,1/2+y,z
1/2-x,1/2-y,z
1/2+x,1/2-y,-z
1/2-x,1/2+y,-z
1/2-x,1/2-y,-z
1/2+x,1/2+y,-z
1/2-x,1/2+y,z
1/2+x,1/2-y,z
loop_
_atom_site_type_symbol
_atom_site_label
_atom_site_fract_x
_atom_site_fract_y
_atom_site_fract_z
Si Si1 0.296539 0.837525 0.271988
Si Si2 0.600131 0.833978 0.672160
Si Si3 0.500000 0.167185 0.061137
Si Si4 0.203357 0.338965 0.145106
Si Si5 0.557452 0.339666 0.765218
Si Si6 0.443627 0.832860 0.559773
Si Si7 0.092883 0.334983 0.864987
O O1 0.250000 0.750000 0.295601
O O2 0.343974 0.795399 0.308803
O O3 0.306710 0.799007 0.208534
O O4 0.282937 0.000000 0.278674
O O5 0.561500 0.741825 0.707690
O O6 0.593405 0.785509 0.608839
O O7 0.588267 0.000000 0.680609
O O8 0.551140 0.217747 0.091378
O O9 0.500000 0.000000 0.057718
O O10 0.500000 0.232895 0.000000
O O11 0.220003 0.500000 0.138807
O O12 0.250000 0.250000 0.120307
O O13 0.150298 0.311709 0.112991
O O14 0.500000 0.340394 0.784236
O O15 0.577944 0.500000 0.760051
O O16 0.589069 0.255393 0.810114
O O17 0.424465 0.776575 0.500000
O O18 0.500000 0.775122 0.571103
O O19 0.445532 0.000000 0.558006
O O20 0.084652 0.500000 0.850179
#
# Coordination Sequence:
#
# PCOD8266262 Si02
#       7
#    16  16   8  16  16  16  16
#     4   9  17  28  42  63  91 120 156 191 233 289
#     4  10  18  30  48  68  91 123 160 196 238 289
#     4   9  18  32  55  83 103 127 166 209 246 279
#     4   9  17  29  45  69  96 128 164 198 239 291
#     4  11  22  31  42  68 103 130 156 191 238 292
#     4   8  14  25  43  68  92 114 148 195 240 280
#     4  10  18  32  53  73  99 131 164 201 241 287
#
# _framework density 16.958625999999999
#
# number of rings (size 3 to 8) (size 9 to 14) (size 15 to 20)
#    0.000    2.538    2.308    1.385    0.000    2.769 
#    0.000    0.000    0.000    2.308    0.000    2.154 
#    0.000    0.000    0.000    0.000    0.000    0.000 
#
# Total GULP energy -644488.666393 kJ/mol
# GULP energy per Si atom -12394.012815 kJ/mol
# Density = 1.692003 g / cm^3
# Si number density = 16.958626 Si / 1000 Ang^3
#
#
#
# Elastic Constant Matrix: (Units=GPa)
#
#
# Indices 1 2 3 4 5 6 
#
# 1 118.9080 36.8951 40.1817 0.0000 0.0000 0.0000
# 2 36.8951 50.2154 24.2474 0.0000 0.0000 0.0000
# 3 40.1817 24.2474 77.4404 0.0000 0.0000 0.0000
# 4 0.0000 0.0000 0.0000 5.7540 0.0000 0.0000
# 5 0.0000 0.0000 0.0000 0.0000 15.8053 0.0000
# 6 0.0000 0.0000 0.0000 0.0000 0.0000 26.0331
#
#
#
# Elastic Compliance Matrix: (Units=1/GPa)
#
#
# Indices 1 2 3 4 5 6 
#
# 1 0.011878 -0.006776 -0.004042 0.000000 0.000000 0.000000
# 2 -0.006776 0.027326 -0.005041 0.000000 0.000000 0.000000
# 3 -0.004042 -0.005041 0.016589 0.000000 0.000000 0.000000
# 4 0.000000 0.000000 0.000000 0.173792 0.000000 0.000000
# 5 0.000000 0.000000 0.000000 0.000000 0.063270 0.000000
# 6 0.000000 0.000000 0.000000 0.000000 0.000000 0.038413
#
#
# Mechanical properties :
#
#
# Convention : Reuss Voigt Hill
#
# Bulk Modulus (GPa) = 41.53281 49.91248 45.72264
# Shear Modulus (GPa) = 13.47677 19.20111 16.33894
#
# Velocity S-wave (km/s) = 2.82207 3.36852 3.10733
# Velocity P-wave (km/s) = 5.92981 6.68020 6.31616
#
# Compressibility (1/GPa) = 0.02407735
#
# Stress axis : x y z
#
# Youngs Moduli (GPa) = 84.18939 36.59461 60.28272
#
# Poissons Ratio (x) = 0.24795 0.24364
# Poissons Ratio (y) = 0.57044 0.30386
# Poissons Ratio (z) = 0.34026 0.18446
#
# Static dielectric constant tensor:
#      x y z
#    x 3.290100 0.000000 0.000000 
#    y 0.000000 2.992220 0.000000 
#    z 0.000000 0.000000 3.206960 
# 
# 
# High freq. dielectric constant tensor:
#      x y z
#    x 1.656310 0.000000 0.000000 
#    y 0.000000 1.629020 0.000000 
#    z 0.000000 0.000000 1.625030 
# 
# From -- ./inp_files/71842.got.cif
#   From: 2010.03.12/outbox.cif.g09.slc.cpg/sg65_36_cif.got.tgz:71842.got - 2010.04.10 20:52:16.
