data_PCOD8266743
_publ_section_title
;
Structure prediction by ZEFSAII (Michael W. Deem and Ramdas Pophale) SiO2 
 PCOD8266743
Probable space group: C M M M
;
_chemical_formula_sum "Si O2"
_cell_formula_units_Z 96
_cell_length_a 8.746697
_cell_length_b 24.075313
_cell_length_c 25.785918
_cell_angle_alpha 90.000000
_cell_angle_beta 90.000000
_cell_angle_gamma 90.000000
_cell_volume 5429.984894
_symmetry_space_group_name_H-M "C M M M"
_symmetry_group_IT_number 65
_symmetry_cell_setting 'orthorhombic'
loop_
_space_group_symop_operation_xyz
x,y,z
-x,-y,z
x,-y,-z
-x,y,-z
-x,-y,-z
x,y,-z
-x,y,z
x,-y,z
1/2+x,1/2+y,z
1/2-x,1/2-y,z
1/2+x,1/2-y,-z
1/2-x,1/2+y,-z
1/2-x,1/2-y,-z
1/2+x,1/2+y,-z
1/2-x,1/2+y,z
1/2+x,1/2-y,z
loop_
_atom_site_type_symbol
_atom_site_label
_atom_site_fract_x
_atom_site_fract_y
_atom_site_fract_z
Si Si1 0.819949 0.937715 0.556307
Si Si2 0.821331 0.000000 0.175360
Si Si3 0.678873 0.602460 0.336258
Si Si4 0.680512 0.308708 0.057883
Si Si5 0.821241 0.810475 0.251235
Si Si6 0.682411 0.380348 0.847204
Si Si7 0.176533 0.500000 0.716477
O O1 0.754006 0.917750 0.500000
O O2 0.779052 0.893918 0.602263
O O3 0.000000 0.941626 0.551908
O O4 0.757414 0.000000 0.569158
O O5 0.750720 0.943213 0.151664
O O6 0.791477 0.000000 0.235866
O O7 0.000000 0.000000 0.164731
O O8 0.500000 0.586961 0.328061
O O9 0.717543 0.659325 0.305860
O O10 0.787929 0.554623 0.315750
O O11 0.500000 0.303125 0.061039
O O12 0.750000 0.250000 0.073228
O O13 0.742043 0.352684 0.099719
O O14 0.732392 0.327065 0.000000
O O15 0.750000 0.750000 0.251537
O O16 0.755463 0.846886 0.203113
O O17 0.000000 0.802876 0.243793
O O18 0.500000 0.381720 0.844511
O O19 0.000000 0.500000 0.733926
#
# Coordination Sequence:
#
# PCOD8266743 Si02
#       7
#    16   8  16  16  16  16   8
#     4   8  13  22  43  74  96 113 151 201 233 263
#     4  10  18  34  53  67  93 130 162 188 232 300
#     4  10  18  32  52  69  94 132 162 189 234 292
#     4   9  17  30  48  71  97 125 160 199 236 275
#     4  10  20  32  48  69  92 124 162 198 238 279
#     4   9  17  30  50  72  93 123 159 194 233 283
#     4  12  22  30  45  74 103 126 156 197 240 280
#
# _framework density 17.679606
#
# number of rings (size 3 to 8) (size 9 to 14) (size 15 to 20)
#    0.000    2.500    2.500    1.750    0.000    0.667 
#    0.000    1.250    0.000    4.000    0.000    0.000 
#    0.000    3.333    0.000    0.000    0.000    0.000 
#
# Total GULP energy -594753.996470 kJ/mol
# GULP energy per Si atom -12390.708260 kJ/mol
# Density = 1.763937 g / cm^3
# Si number density = 17.679606 Si / 1000 Ang^3
#
#
#
# Elastic Constant Matrix: (Units=GPa)
#
#
# Indices 1 2 3 4 5 6 
#
# 1 12.4540 20.4825 8.3257 0.0000 0.0000 0.0000
# 2 20.4825 150.6318 91.6004 0.0000 0.0000 0.0000
# 3 8.3257 91.6004 159.8921 0.0000 0.0000 0.0000
# 4 0.0000 0.0000 0.0000 39.1719 0.0000 0.0000
# 5 0.0000 0.0000 0.0000 0.0000 9.8830 0.0000
# 6 0.0000 0.0000 0.0000 0.0000 0.0000 21.5440
#
#
#
# Elastic Compliance Matrix: (Units=1/GPa)
#
#
# Indices 1 2 3 4 5 6 
#
# 1 0.105206 -0.016842 0.004170 0.000000 0.000000 0.000000
# 2 -0.016842 0.012884 -0.006504 0.000000 0.000000 0.000000
# 3 0.004170 -0.006504 0.009763 0.000000 0.000000 0.000000
# 4 0.000000 0.000000 0.000000 0.025528 0.000000 0.000000
# 5 0.000000 0.000000 0.000000 0.000000 0.101183 0.000000
# 6 0.000000 0.000000 0.000000 0.000000 0.000000 0.046417
#
#
# Mechanical properties :
#
#
# Convention : Reuss Voigt Hill
#
# Bulk Modulus (GPa) = 11.17292 62.64390 36.90841
# Shear Modulus (GPa) = 13.54402 27.62443 20.58422
#
# Velocity S-wave (km/s) = 2.77082 3.95714 3.41587
# Velocity P-wave (km/s) = 4.07062 7.50922 6.03980
#
# Compressibility (1/GPa) = 0.08950209
#
# Stress axis : x y z
#
# Youngs Moduli (GPa) = 9.50517 77.61567 102.42519
#
# Poissons Ratio (x) = 1.30717 -0.42713
# Poissons Ratio (y) = 0.16008 0.66619
# Poissons Ratio (z) = -0.03964 0.50482
#
# Static dielectric constant tensor:
#      x y z
#    x 2.865780 0.000000 0.000000 
#    y 0.000000 3.281790 0.000000 
#    z 0.000000 0.000000 3.742510 
# 
# 
# High freq. dielectric constant tensor:
#      x y z
#    x 1.640900 0.000000 0.000000 
#    y 0.000000 1.666630 0.000000 
#    z 0.000000 0.000000 1.693780 
# 
# From -- ./inp_files/73529.got.cif
#   From: 2010.03.12/outbox.cif.g09.slc.cpg/sg65_37_cif.got.tgz:73529.got - 2010.04.10 20:52:16.
