data_PCOD8266599
_publ_section_title
;
Structure prediction by ZEFSAII (Michael W. Deem and Ramdas Pophale) SiO2 
 PCOD8266599
Probable space group: C M M M
;
_chemical_formula_sum "Si O2"
_cell_formula_units_Z 88
_cell_length_a 18.556528
_cell_length_b 10.161180
_cell_length_c 26.658244
_cell_angle_alpha 90.000000
_cell_angle_beta 90.000000
_cell_angle_gamma 90.000000
_cell_volume 5026.577752
_symmetry_space_group_name_H-M "C M M M"
_symmetry_group_IT_number 65
_symmetry_cell_setting 'orthorhombic'
loop_
_space_group_symop_operation_xyz
x,y,z
-x,-y,z
x,-y,-z
-x,y,-z
-x,-y,-z
x,y,-z
-x,y,z
x,-y,z
1/2+x,1/2+y,z
1/2-x,1/2-y,z
1/2+x,1/2-y,-z
1/2-x,1/2+y,-z
1/2-x,1/2-y,-z
1/2+x,1/2+y,-z
1/2-x,1/2+y,z
1/2+x,1/2-y,z
loop_
_atom_site_type_symbol
_atom_site_label
_atom_site_fract_x
_atom_site_fract_y
_atom_site_fract_z
Si Si1 0.921188 0.654718 0.500000
Si Si2 0.335519 0.248783 0.881784
Si Si3 0.166355 0.500000 0.055617
Si Si4 0.685651 0.847761 0.585578
Si Si5 0.837125 0.000000 0.056374
Si Si6 0.813035 0.350323 0.700192
Si Si7 0.583075 0.152227 0.211135
O O1 0.930534 0.500000 0.500000
O O2 0.879844 0.697506 0.550384
O O3 0.000000 0.722530 0.500000
O O4 0.250000 0.250000 0.871831
O O5 0.363064 0.374417 0.912410
O O6 0.375735 0.243482 0.828735
O O7 0.360982 0.126884 0.915136
O O8 0.251819 0.500000 0.051639
O O9 0.132535 0.500000 0.000000
O O10 0.750000 0.750000 0.571933
O O11 0.661624 0.828487 0.643096
O O12 0.708292 0.000000 0.575191
O O13 0.870369 0.000000 0.000000
O O14 0.784647 0.500000 0.708038
O O15 0.750000 0.250000 0.715338
O O16 0.882259 0.322262 0.734519
O O17 0.500000 0.194447 0.213968
O O18 0.591724 0.000000 0.195344
#
# Coordination Sequence:
#
# PCOD8266599 Si02
#       7
#     8  16   8  16   8  16  16
#     4   9  17  28  45  73 106 137 172 212 248 289
#     4  10  18  31  51  74  99 126 158 197 240 286
#     4   9  16  28  49  75  99 123 157 198 237 280
#     4   9  17  30  50  74 100 131 167 209 253 296
#     4   9  18  30  49  77 101 123 155 200 245 282
#     4   9  18  33  53  76  99 127 165 208 253 296
#     4  10  20  34  51  71  97 128 164 203 241 289
#
# _framework density 17.506941999999999
#
# number of rings (size 3 to 8) (size 9 to 14) (size 15 to 20)
#    0.000    2.636    0.909    1.364    0.000    2.909 
#    1.636    4.091    0.000    4.364    0.000    5.091 
#    0.000    0.000    0.000    0.000    0.000    0.000 
#
# Total GULP energy -545537.230872 kJ/mol
# GULP energy per Si atom -12398.573429 kJ/mol
# Density = 1.746710 g / cm^3
# Si number density = 17.506942 Si / 1000 Ang^3
#
#
#
# Elastic Constant Matrix: (Units=GPa)
#
#
# Indices 1 2 3 4 5 6 
#
# 1 103.0622 46.4062 73.8823 0.0000 0.0000 0.0000
# 2 46.4062 98.5304 54.4561 0.0000 0.0000 0.0000
# 3 73.8823 54.4561 132.1677 0.0000 0.0000 0.0000
# 4 0.0000 0.0000 0.0000 22.6896 0.0000 0.0000
# 5 0.0000 0.0000 0.0000 0.0000 17.0069 0.0000
# 6 0.0000 0.0000 0.0000 0.0000 0.0000 15.8554
#
#
#
# Elastic Compliance Matrix: (Units=1/GPa)
#
#
# Indices 1 2 3 4 5 6 
#
# 1 0.017120 -0.003592 -0.008090 0.000000 0.000000 0.000000
# 2 -0.003592 0.013895 -0.003717 0.000000 0.000000 0.000000
# 3 -0.008090 -0.003717 0.013620 0.000000 0.000000 0.000000
# 4 0.000000 0.000000 0.000000 0.044073 0.000000 0.000000
# 5 0.000000 0.000000 0.000000 0.000000 0.058800 0.000000
# 6 0.000000 0.000000 0.000000 0.000000 0.000000 0.063070
#
#
# Mechanical properties :
#
#
# Convention : Reuss Voigt Hill
#
# Bulk Modulus (GPa) = 72.27155 75.91663 74.09409
# Shear Modulus (GPa) = 20.32612 21.71142 21.01877
#
# Velocity S-wave (km/s) = 3.41109 3.52541 3.46872
# Velocity P-wave (km/s) = 7.54223 7.74785 7.64574
#
# Compressibility (1/GPa) = 0.01383670
#
# Stress axis : x y z
#
# Youngs Moduli (GPa) = 58.41210 71.96641 73.42055
#
# Poissons Ratio (x) = 0.25849 0.59398
# Poissons Ratio (y) = 0.20981 0.27293
# Poissons Ratio (z) = 0.47256 0.26752
#
# Static dielectric constant tensor:
#      x y z
#    x 3.028090 0.000000 0.000000 
#    y 0.000000 3.261300 0.000000 
#    z 0.000000 0.000000 3.399340 
# 
# 
# High freq. dielectric constant tensor:
#      x y z
#    x 1.643300 0.000000 0.000000 
#    y 0.000000 1.666260 0.000000 
#    z 0.000000 0.000000 1.694160 
# 
# From -- ./inp_files/78003.got.cif
#   From: 2010.03.12/outbox.cif.g09.slc.cpg/sg65_40_cif.got.tgz:78003.got - 2010.04.10 20:52:16.
