data_PCOD8266653
_publ_section_title
;
Structure prediction by ZEFSAII (Michael W. Deem and Ramdas Pophale) SiO2 
 PCOD8266653
Probable space group: C M M M
;
_chemical_formula_sum "Si O2"
_cell_formula_units_Z 64
_cell_length_a 8.579410
_cell_length_b 15.355513
_cell_length_c 24.299362
_cell_angle_alpha 90.000000
_cell_angle_beta 90.000000
_cell_angle_gamma 90.000000
_cell_volume 3201.228125
_symmetry_space_group_name_H-M "C M M M"
_symmetry_group_IT_number 65
_symmetry_cell_setting 'orthorhombic'
loop_
_space_group_symop_operation_xyz
x,y,z
-x,-y,z
x,-y,-z
-x,y,-z
-x,-y,-z
x,y,-z
-x,y,z
x,-y,z
1/2+x,1/2+y,z
1/2-x,1/2-y,z
1/2+x,1/2-y,-z
1/2-x,1/2+y,-z
1/2-x,1/2-y,-z
1/2+x,1/2+y,-z
1/2-x,1/2+y,z
1/2+x,1/2-y,z
loop_
_atom_site_type_symbol
_atom_site_label
_atom_site_fract_x
_atom_site_fract_y
_atom_site_fract_z
Si Si1 0.184577 0.000000 0.309380
Si Si2 0.184888 0.153549 0.387151
Si Si3 0.685013 0.902622 0.000000
Si Si4 0.315234 0.158983 0.882755
Si Si5 0.814935 0.653487 0.500000
Si Si6 0.315101 0.500000 0.185148
O O1 0.242706 0.911971 0.339480
O O2 0.249313 0.000000 0.247427
O O3 0.000000 0.000000 0.309587
O O4 0.250000 0.250000 0.375003
O O5 0.249678 0.110996 0.443996
O O6 0.000000 0.159769 0.390903
O O7 0.745416 0.854030 0.054601
O O8 0.500000 0.907013 0.000000
O O9 0.754285 0.000000 0.000000
O O10 0.500000 0.156819 0.879707
O O11 0.250000 0.250000 0.860509
O O12 0.248528 0.084964 0.844199
O O13 0.750000 0.750000 0.500000
O O14 0.000000 0.650395 0.500000
O O15 0.500000 0.500000 0.183102
#
# Coordination Sequence:
#
# PCOD8266653 Si02
#       6
#     8  16   8  16   8   8
#     4   9  22  40  59  80 110 149 192 235 282 337
#     4  10  19  36  58  82 110 146 185 228 278 334
#     4   9  17  34  60  87 120 154 188 235 288 345
#     4  11  22  39  62  89 119 155 194 238 291 347
#     4  10  18  31  52  83 116 146 178 223 277 335
#     4  11  23  42  61  84 116 153 198 247 292 343
#
# _framework density 19.992328000000001
#
# number of rings (size 3 to 8) (size 9 to 14) (size 15 to 20)
#    0.000    1.875    1.250    4.875    0.000    1.500 
#    0.000   15.000    0.000    0.000    0.000    0.000 
#    0.000    0.000    0.000    0.000    0.000    0.000 
#
# Total GULP energy -396755.179293 kJ/mol
# GULP energy per Si atom -12398.599353 kJ/mol
# Density = 1.994682 g / cm^3
# Si number density = 19.992328 Si / 1000 Ang^3
#
#
#
# Elastic Constant Matrix: (Units=GPa)
#
#
# Indices 1 2 3 4 5 6 
#
# 1 94.2938 41.7963 50.6489 0.0000 0.0000 0.0000
# 2 41.7963 160.3544 91.0740 0.0000 0.0000 0.0000
# 3 50.6489 91.0740 190.0803 0.0000 0.0000 0.0000
# 4 0.0000 0.0000 0.0000 158.5127 0.0000 0.0000
# 5 0.0000 0.0000 0.0000 0.0000 24.5728 0.0000
# 6 0.0000 0.0000 0.0000 0.0000 0.0000 29.2071
#
#
#
# Elastic Compliance Matrix: (Units=1/GPa)
#
#
# Indices 1 2 3 4 5 6 
#
# 1 0.012793 -0.001921 -0.002488 0.000000 0.000000 0.000000
# 2 -0.001921 0.008856 -0.003731 0.000000 0.000000 0.000000
# 3 -0.002488 -0.003731 0.007712 0.000000 0.000000 0.000000
# 4 0.000000 0.000000 0.000000 0.006309 0.000000 0.000000
# 5 0.000000 0.000000 0.000000 0.000000 0.040695 0.000000
# 6 0.000000 0.000000 0.000000 0.000000 0.000000 0.034238
#
#
# Mechanical properties :
#
#
# Convention : Reuss Voigt Hill
#
# Bulk Modulus (GPa) = 76.45652 90.19632 83.32642
# Shear Modulus (GPa) = 38.09651 59.87246 48.98448
#
# Velocity S-wave (km/s) = 4.37000 5.47839 4.95528
# Velocity P-wave (km/s) = 7.98677 9.23203 8.63189
#
# Compressibility (1/GPa) = 0.01307933
#
# Stress axis : x y z
#
# Youngs Moduli (GPa) = 78.16544 112.91502 129.67124
#
# Poissons Ratio (x) = 0.21694 0.32267
# Poissons Ratio (y) = 0.15018 0.48385
# Poissons Ratio (z) = 0.19450 0.42133
#
# Static dielectric constant tensor:
#      x y z
#    x 3.479380 0.000000 0.000000 
#    y 0.000000 3.688990 0.000000 
#    z 0.000000 0.000000 4.216580 
# 
# 
# High freq. dielectric constant tensor:
#      x y z
#    x 1.769870 0.000000 0.000000 
#    y 0.000000 1.784120 0.000000 
#    z 0.000000 0.000000 1.785980 
# 
# From -- ./inp_files/66911.got.cif
#   From: 2010.03.12/outbox.cif.g09.slc.cpg/sg65_34_cif.got.tgz:66911.got - 2010.04.10 20:52:16.
