data_PCOD8266321
_publ_section_title
;
Structure prediction by ZEFSAII (Michael W. Deem and Ramdas Pophale) SiO2 
 PCOD8266321
Probable space group: C M M M
;
_chemical_formula_sum "Si O2"
_cell_formula_units_Z 80
_cell_length_a 19.212619
_cell_length_b 8.638884
_cell_length_c 25.790545
_cell_angle_alpha 90.000000
_cell_angle_beta 90.000000
_cell_angle_gamma 90.000000
_cell_volume 4280.600842
_symmetry_space_group_name_H-M "C M M M"
_symmetry_group_IT_number 65
_symmetry_cell_setting 'orthorhombic'
loop_
_space_group_symop_operation_xyz
x,y,z
-x,-y,z
x,-y,-z
-x,y,-z
-x,-y,-z
x,y,-z
-x,y,z
x,-y,z
1/2+x,1/2+y,z
1/2-x,1/2-y,z
1/2+x,1/2-y,-z
1/2-x,1/2+y,-z
1/2-x,1/2-y,-z
1/2+x,1/2+y,-z
1/2-x,1/2+y,z
1/2+x,1/2-y,z
loop_
_atom_site_type_symbol
_atom_site_label
_atom_site_fract_x
_atom_site_fract_y
_atom_site_fract_z
Si Si1 0.420100 0.820818 0.299185
Si Si2 0.419059 0.678617 0.808809
Si Si3 0.172825 0.183224 0.000000
Si Si4 0.326467 0.816946 0.604846
Si Si5 0.173940 0.318824 0.104589
Si Si6 0.672727 0.683500 0.500000
O O1 0.500000 0.789956 0.314009
O O2 0.397418 0.720558 0.249668
O O3 0.373974 0.765146 0.347281
O O4 0.407111 0.000000 0.285937
O O5 0.500000 0.715734 0.817668
O O6 0.401608 0.500000 0.819262
O O7 0.375521 0.784777 0.847309
O O8 0.250000 0.250000 0.000000
O O9 0.137776 0.245736 0.947080
O O10 0.171625 0.000000 0.000000
O O11 0.250000 0.750000 0.614300
O O12 0.362479 0.747167 0.552741
O O13 0.321957 0.000000 0.599042
O O14 0.182013 0.500000 0.096280
O O15 0.250000 0.250000 0.115490
O O16 0.672372 0.500000 0.500000
O O17 0.750000 0.750000 0.500000
#
# Coordination Sequence:
#
# PCOD8266321 Si02
#       6
#    16  16   8  16  16   8
#     4   9  19  36  55  74  99 135 175 212 254 305
#     4  10  21  37  56  78 106 140 176 216 264 314
#     4  10  18  32  53  78 109 140 173 213 261 313
#     4  10  19  32  52  76 102 131 166 209 253 301
#     4  11  21  35  56  81 109 140 177 218 260 309
#     4  10  18  30  49  72 101 133 165 203 249 302
#
# _framework density 18.688966000000001
#
# number of rings (size 3 to 8) (size 9 to 14) (size 15 to 20)
#    0.000    2.000    0.000    7.200    0.000    3.600 
#    0.000    3.000    0.000    6.000    0.000    0.000 
#    0.000    0.000    0.000    0.000    0.000    0.000 
#
# Total GULP energy -495999.826235 kJ/mol
# GULP energy per Si atom -12399.995656 kJ/mol
# Density = 1.864643 g / cm^3
# Si number density = 18.688966 Si / 1000 Ang^3
#
#
#
# Elastic Constant Matrix: (Units=GPa)
#
#
# Indices 1 2 3 4 5 6 
#
# 1 56.7424 33.7445 63.8243 0.0000 0.0000 0.0000
# 2 33.7445 130.9086 61.3126 0.0000 0.0000 0.0000
# 3 63.8243 61.3126 157.5747 0.0000 0.0000 0.0000
# 4 0.0000 0.0000 0.0000 37.6724 0.0000 0.0000
# 5 0.0000 0.0000 0.0000 0.0000 -6.0847 0.0000
# 6 0.0000 0.0000 0.0000 0.0000 0.0000 24.1265
#
#
#
# Elastic Compliance Matrix: (Units=1/GPa)
#
#
# Indices 1 2 3 4 5 6 
#
# 1 0.033168 -0.002761 -0.012360 0.000000 0.000000 0.000000
# 2 -0.002761 0.009571 -0.002606 0.000000 0.000000 0.000000
# 3 -0.012360 -0.002606 0.012367 0.000000 0.000000 0.000000
# 4 0.000000 0.000000 0.000000 0.026545 0.000000 0.000000
# 5 0.000000 0.000000 0.000000 0.000000 -0.164348 0.000000
# 6 0.000000 0.000000 0.000000 0.000000 0.000000 0.041448
#
#
# Mechanical properties :
#
#
# Convention : Reuss Voigt Hill
#
# Bulk Modulus (GPa) = 50.88533 73.66539 62.27536
# Shear Modulus (GPa) = 6618.25124 23.56579 3320.90852
#
# Velocity S-wave (km/s) = 59.57306 3.55483 42.19944
# Velocity P-wave (km/s) = 68.98709 7.50674 49.06919
#
# Compressibility (1/GPa) = 0.01965203
#
# Stress axis : x y z
#
# Youngs Moduli (GPa) = 30.14926 104.48156 80.86290
#
# Poissons Ratio (x) = 0.28845 0.99949
# Poissons Ratio (y) = 0.08323 0.21072
# Poissons Ratio (z) = 0.37265 0.27227
#
# Static dielectric constant tensor:
#      x y z
#    x 3.156610 0.000000 0.000000 
#    y 0.000000 3.497530 0.000000 
#    z 0.000000 0.000000 4.054710 
# 
# 
# High freq. dielectric constant tensor:
#      x y z
#    x 1.689860 0.000000 0.000000 
#    y 0.000000 1.740470 0.000000 
#    z 0.000000 0.000000 1.746490 
# 
# From -- ./inp_files/70777.got.cif
#   From: 2010.03.12/outbox.cif.g09.slc.cpg/sg65_36_cif.got.tgz:70777.got - 2010.04.10 20:52:16.
