data_PCOD8266917
_publ_section_title
;
Structure prediction by ZEFSAII (Michael W. Deem and Ramdas Pophale) SiO2 
 PCOD8266917
Probable space group: C M M M
;
_chemical_formula_sum "Si O2"
_cell_formula_units_Z 88
_cell_length_a 15.549622
_cell_length_b 14.713672
_cell_length_c 20.141978
_cell_angle_alpha 90.000000
_cell_angle_beta 90.000000
_cell_angle_gamma 90.000000
_cell_volume 4608.324193
_symmetry_space_group_name_H-M "C M M M"
_symmetry_group_IT_number 65
_symmetry_cell_setting 'orthorhombic'
loop_
_space_group_symop_operation_xyz
x,y,z
-x,-y,z
x,-y,-z
-x,y,-z
-x,-y,-z
x,y,-z
-x,y,z
x,-y,z
1/2+x,1/2+y,z
1/2-x,1/2-y,z
1/2+x,1/2-y,-z
1/2-x,1/2+y,-z
1/2-x,1/2-y,-z
1/2+x,1/2+y,-z
1/2-x,1/2+y,z
1/2+x,1/2-y,z
loop_
_atom_site_type_symbol
_atom_site_label
_atom_site_fract_x
_atom_site_fract_y
_atom_site_fract_z
Si Si1 0.906363 0.500000 0.741766
Si Si2 0.500000 0.607542 0.578190
Si Si3 0.342981 0.500000 0.191216
Si Si4 0.098096 0.639126 0.144344
Si Si5 0.825274 0.817724 0.637514
Si Si6 0.751117 0.000000 0.329108
Si Si7 0.402590 0.692473 0.777792
Si Si8 0.288123 0.000000 0.924253
O O1 0.889663 0.588533 0.785940
O O2 0.851553 0.500000 0.674465
O O3 0.000000 0.500000 0.711402
O O4 0.500000 0.500000 0.606072
O O5 0.500000 0.600927 0.500000
O O6 0.583186 0.668352 0.599974
O O7 0.276067 0.500000 0.251348
O O8 0.401383 0.410719 0.196594
O O9 0.295874 0.500000 0.120920
O O10 0.126880 0.742515 0.160964
O O11 0.156907 0.591760 0.088896
O O12 0.000000 0.633172 0.118755
O O13 0.750000 0.750000 0.608661
O O14 0.783278 0.915351 0.630105
O O15 0.842775 0.790609 0.713934
O O16 0.500000 0.717145 0.757586
O O17 0.257862 0.000000 0.000000
#
# Coordination Sequence:
#
# PCOD8266917 Si02
#       8
#     8   8   8  16  16   8  16   8
#     4   9  15  28  47  74 115 154 177 234 315 377
#     4  11  24  46  68  89 131 183 226 258 294 369
#     4  10  21  32  53  78 114 150 191 241 305 350
#     4   9  18  32  51  76 105 144 189 240 303 354
#     4  11  22  35  62  98 127 160 211 263 314 370
#     4  10  18  33  53  86 126 154 196 260 318 373
#     4  10  20  35  58  85 119 148 188 247 311 370
#     4  11  22  37  53  75 111 153 198 240 298 379
#
# _framework density 19.095879
#
# number of rings (size 3 to 8) (size 9 to 14) (size 15 to 20)
#    0.000    1.909    3.636    2.182    2.545    1.091 
#    1.636    1.818    0.000    2.182    0.000    0.636 
#    0.000    0.000    0.000    0.000    0.000    0.000 
#
# Total GULP energy -545138.995043 kJ/mol
# GULP energy per Si atom -12389.522615 kJ/mol
# Density = 1.905242 g / cm^3
# Si number density = 19.095879 Si / 1000 Ang^3
#
#
#
# Elastic Constant Matrix: (Units=GPa)
#
#
# Indices 1 2 3 4 5 6 
#
# 1 95.7255 31.0732 26.2227 0.0000 0.0000 0.0000
# 2 31.0732 115.2867 23.3764 0.0000 0.0000 0.0000
# 3 26.2227 23.3764 55.8749 0.0000 0.0000 0.0000
# 4 0.0000 0.0000 0.0000 18.6215 0.0000 0.0000
# 5 0.0000 0.0000 0.0000 0.0000 18.6623 0.0000
# 6 0.0000 0.0000 0.0000 0.0000 0.0000 26.1775
#
#
#
# Elastic Compliance Matrix: (Units=1/GPa)
#
#
# Indices 1 2 3 4 5 6 
#
# 1 0.012565 -0.002394 -0.004895 0.000000 0.000000 0.000000
# 2 -0.002394 0.009934 -0.003033 0.000000 0.000000 0.000000
# 3 -0.004895 -0.003033 0.021463 0.000000 0.000000 0.000000
# 4 0.000000 0.000000 0.000000 0.053701 0.000000 0.000000
# 5 0.000000 0.000000 0.000000 0.000000 0.053584 0.000000
# 6 0.000000 0.000000 0.000000 0.000000 0.000000 0.038201
#
#
# Mechanical properties :
#
#
# Convention : Reuss Voigt Hill
#
# Bulk Modulus (GPa) = 42.88441 47.58132 45.23287
# Shear Modulus (GPa) = 22.95007 25.10659 24.02833
#
# Velocity S-wave (km/s) = 3.47051 3.62990 3.55110
# Velocity P-wave (km/s) = 6.21010 6.52222 6.36808
#
# Compressibility (1/GPa) = 0.02331850
#
# Stress axis : x y z
#
# Youngs Moduli (GPa) = 79.58868 100.66238 46.59131
#
# Poissons Ratio (x) = 0.24098 0.22807
# Poissons Ratio (y) = 0.19053 0.14130
# Poissons Ratio (z) = 0.38960 0.30527
#
# Static dielectric constant tensor:
#      x y z
#    x 3.625260 0.000000 0.000000 
#    y 0.000000 3.162440 0.000000 
#    z 0.000000 0.000000 2.944680 
# 
# 
# High freq. dielectric constant tensor:
#      x y z
#    x 1.753410 0.000000 0.000000 
#    y 0.000000 1.751590 0.000000 
#    z 0.000000 0.000000 1.681860 
# 
# From -- ./inp_files/62564.got.cif
#   From: 2010.03.12/outbox.cif.g09.slc.cpg/sg65_32_cif.got.tgz:62564.got - 2010.04.10 20:52:16.
