data_PCOD8266310
_publ_section_title
;
Structure prediction by ZEFSAII (Michael W. Deem and Ramdas Pophale) SiO2 
 PCOD8266310
Probable space group: C M M M
;
_chemical_formula_sum "Si O2"
_cell_formula_units_Z 72
_cell_length_a 20.892089
_cell_length_b 18.467172
_cell_length_c 11.631876
_cell_angle_alpha 90.000000
_cell_angle_beta 90.000000
_cell_angle_gamma 90.000000
_cell_volume 4487.784820
_symmetry_space_group_name_H-M "C M M M"
_symmetry_group_IT_number 65
_symmetry_cell_setting 'orthorhombic'
loop_
_space_group_symop_operation_xyz
x,y,z
-x,-y,z
x,-y,-z
-x,y,-z
-x,-y,-z
x,y,-z
-x,y,z
x,-y,z
1/2+x,1/2+y,z
1/2-x,1/2-y,z
1/2+x,1/2-y,-z
1/2-x,1/2+y,-z
1/2-x,1/2-y,-z
1/2+x,1/2+y,-z
1/2-x,1/2+y,z
1/2+x,1/2-y,z
loop_
_atom_site_type_symbol
_atom_site_label
_atom_site_fract_x
_atom_site_fract_y
_atom_site_fract_z
Si Si1 0.500000 0.585771 0.372966
Si Si2 0.373780 0.414100 0.757781
Si Si3 0.000000 0.413768 0.626125
Si Si4 0.072096 0.914818 0.000000
Si Si5 0.136121 0.419298 0.637250
Si Si6 0.241254 0.834216 0.634378
O O1 0.500000 0.500000 0.376512
O O2 0.500000 0.619564 0.500000
O O3 0.436574 0.612383 0.309474
O O4 0.360699 0.500000 0.742178
O O5 0.314993 0.368231 0.709534
O O6 0.386170 0.392033 0.889710
O O7 0.932947 0.391305 0.688347
O O8 0.000000 0.500000 0.613776
O O9 0.000000 0.377726 0.500000
O O10 0.000000 0.880324 0.000000
O O11 0.061822 0.000000 0.000000
O O12 0.130799 0.419179 0.500000
O O13 0.151184 0.500000 0.682051
O O14 0.192750 0.368370 0.679773
O O15 0.228305 0.851382 0.500000
O O16 0.250000 0.750000 0.657251
#
# Coordination Sequence:
#
# PCOD8266310 Si02
#       6
#     8  16   8   8  16  16
#     4   9  16  25  42  70  97 119 148 186 226 281
#     4  10  18  30  49  70  93 121 158 198 240 286
#     4   7  10  18  35  57  74  92 130 182 222 252
#     4   9  16  30  51  74  94 115 151 206 253 277
#     4   8  13  23  40  59  79 108 147 186 223 264
#     4  10  20  31  41  60  96 133 159 187 227 278
#
# _framework density 16.04355
#
# number of rings (size 3 to 8) (size 9 to 14) (size 15 to 20)
#    0.000    3.000    1.111    2.667    0.000    2.222 
#    0.000    1.667    0.000    4.000    0.000    0.000 
#    0.000    0.000    0.000    8.222    0.000    2.222 
#
# Total GULP energy -446001.232047 kJ/mol
# GULP energy per Si atom -12388.923112 kJ/mol
# Density = 1.600703 g / cm^3
# Si number density = 16.043550 Si / 1000 Ang^3
#
#
#
# Elastic Constant Matrix: (Units=GPa)
#
#
# Indices 1 2 3 4 5 6 
#
# 1 183.6922 63.1362 58.6289 0.0000 0.0000 0.0000
# 2 63.1362 60.5615 27.4846 0.0000 0.0000 0.0000
# 3 58.6289 27.4846 88.2261 0.0000 0.0000 0.0000
# 4 0.0000 0.0000 0.0000 6.8777 0.0000 0.0000
# 5 0.0000 0.0000 0.0000 0.0000 7.0338 0.0000
# 6 0.0000 0.0000 0.0000 0.0000 0.0000 -0.1473
#
#
#
# Elastic Compliance Matrix: (Units=1/GPa)
#
#
# Indices 1 2 3 4 5 6 
#
# 1 0.009433 -0.008140 -0.003733 0.000000 0.000000 0.000000
# 2 -0.008140 0.026255 -0.002770 0.000000 0.000000 0.000000
# 3 -0.003733 -0.002770 0.014678 0.000000 0.000000 0.000000
# 4 0.000000 0.000000 0.000000 0.145398 0.000000 0.000000
# 5 0.000000 0.000000 0.000000 0.000000 0.142170 0.000000
# 6 0.000000 0.000000 0.000000 0.000000 0.000000 -6.789223
#
#
# Mechanical properties :
#
#
# Convention : Reuss Voigt Hill
#
# Bulk Modulus (GPa) = 47.43612 70.10883 58.77248
# Shear Modulus (GPa) = -0.77943 14.96817 7.09437
#
# Velocity S-wave (km/s) = -0.69776 3.05777 2.10512
# Velocity P-wave (km/s) = 5.38350 7.50070 6.52850
#
# Compressibility (1/GPa) = 0.02108098
#
# Stress axis : x y z
#
# Youngs Moduli (GPa) = 106.01011 38.08747 68.12968
#
# Poissons Ratio (x) = 0.31004 0.25431
# Poissons Ratio (y) = 0.86293 0.18871
# Poissons Ratio (z) = 0.39571 0.10550
#
# Static dielectric constant tensor:
#      x y z
#    x 3.469600 0.000000 0.000000 
#    y 0.000000 2.705740 0.000000 
#    z 0.000000 0.000000 2.876830 
# 
# 
# High freq. dielectric constant tensor:
#      x y z
#    x 1.640190 0.000000 0.000000 
#    y 0.000000 1.578980 0.000000 
#    z 0.000000 0.000000 1.569390 
# 
# From -- ./inp_files/26602.got.cif
#   From: 2010.03.12/outbox.cif.g09.slc.cpg/sg65_14_cif.got.tgz:26602.got - 2010.04.10 20:52:16.
