data_PCOD8266502
_publ_section_title
;
Structure prediction by ZEFSAII (Michael W. Deem and Ramdas Pophale) SiO2 
 PCOD8266502
Probable space group: C M M M
;
_chemical_formula_sum "Si O2"
_cell_formula_units_Z 104
_cell_length_a 23.012644
_cell_length_b 27.698524
_cell_length_c 9.255092
_cell_angle_alpha 90.000000
_cell_angle_beta 90.000000
_cell_angle_gamma 90.000000
_cell_volume 5899.346241
_symmetry_space_group_name_H-M "C M M M"
_symmetry_group_IT_number 65
_symmetry_cell_setting 'orthorhombic'
loop_
_space_group_symop_operation_xyz
x,y,z
-x,-y,z
x,-y,-z
-x,y,-z
-x,-y,-z
x,y,-z
-x,y,z
x,-y,z
1/2+x,1/2+y,z
1/2-x,1/2-y,z
1/2+x,1/2-y,-z
1/2-x,1/2+y,-z
1/2-x,1/2-y,-z
1/2+x,1/2+y,-z
1/2-x,1/2+y,z
1/2+x,1/2-y,z
loop_
_atom_site_type_symbol
_atom_site_label
_atom_site_fract_x
_atom_site_fract_y
_atom_site_fract_z
Si Si1 0.565773 0.910605 0.336235
Si Si2 0.644647 0.819115 0.333091
Si Si3 0.363580 0.645355 0.332807
Si Si4 0.569359 0.000000 0.161983
Si Si5 0.436438 0.736470 0.333363
Si Si6 0.243525 0.806156 0.828962
Si Si7 0.565393 0.554189 0.671487
O O1 0.568305 0.929071 0.500000
O O2 0.500000 0.899414 0.288566
O O3 0.600588 0.862292 0.313574
O O4 0.594120 0.952415 0.239041
O O5 0.663638 0.811575 0.500000
O O6 0.612434 0.771812 0.266674
O O7 0.700073 0.832005 0.236384
O O8 0.343218 0.641998 0.500000
O O9 0.417991 0.681159 0.316302
O O10 0.311473 0.666380 0.237754
O O11 0.387220 0.593591 0.273169
O O12 0.500000 0.000000 0.173445
O O13 0.592531 0.000000 0.000000
O O14 0.441708 0.751532 0.500000
O O15 0.500000 0.743024 0.259774
O O16 0.250000 0.750000 0.783004
O O17 0.240810 0.812262 0.000000
O O18 0.563315 0.557704 0.500000
O O19 0.500000 0.564800 0.730882
O O20 0.584734 0.500000 0.719619
#
# Coordination Sequence:
#
# PCOD8266502 Si02
#       7
#    16  16  16   8  16  16  16
#     4   9  17  30  50  76 103 128 157 201 257 305
#     4  10  19  32  52  75  99 128 165 209 253 301
#     4  10  18  30  53  78 101 134 175 211 245 295
#     4   9  17  29  47  71  99 133 167 195 230 287
#     4   9  16  26  45  76 106 127 155 200 250 298
#     4  11  23  37  51  68  97 136 174 212 254 298
#     4   8  14  26  48  82 117 139 161 204 261 311
#
# _framework density 17.629071
#
# number of rings (size 3 to 8) (size 9 to 14) (size 15 to 20)
#    0.000    2.538    1.538    2.077    0.000    5.846 
#    0.000    0.000    1.692    4.615    0.000    1.077 
#    0.000    0.000    0.000    0.000    0.000    0.000 
#
# Total GULP energy -644527.654534 kJ/mol
# GULP energy per Si atom -12394.762587 kJ/mol
# Density = 1.758895 g / cm^3
# Si number density = 17.629071 Si / 1000 Ang^3
#
#
#
# Elastic Constant Matrix: (Units=GPa)
#
#
# Indices 1 2 3 4 5 6 
#
# 1 107.6469 50.1624 37.2862 0.0000 0.0000 0.0000
# 2 50.1624 120.5261 41.2590 0.0000 0.0000 0.0000
# 3 37.2862 41.2590 57.8970 0.0000 0.0000 0.0000
# 4 0.0000 0.0000 0.0000 14.7560 0.0000 0.0000
# 5 0.0000 0.0000 0.0000 0.0000 9.9336 0.0000
# 6 0.0000 0.0000 0.0000 0.0000 0.0000 20.0915
#
#
#
# Elastic Compliance Matrix: (Units=1/GPa)
#
#
# Indices 1 2 3 4 5 6 
#
# 1 0.012899 -0.003339 -0.005927 0.000000 0.000000 0.000000
# 2 -0.003339 0.011839 -0.006286 0.000000 0.000000 0.000000
# 3 -0.005927 -0.006286 0.025569 0.000000 0.000000 0.000000
# 4 0.000000 0.000000 0.000000 0.067769 0.000000 0.000000
# 5 0.000000 0.000000 0.000000 0.000000 0.100668 0.000000
# 6 0.000000 0.000000 0.000000 0.000000 0.000000 0.049772
#
#
# Mechanical properties :
#
#
# Convention : Reuss Voigt Hill
#
# Bulk Modulus (GPa) = 52.08031 60.38725 56.23378
# Shear Modulus (GPa) = 16.33875 19.44706 17.89291
#
# Velocity S-wave (km/s) = 3.04765 3.32494 3.18931
# Velocity P-wave (km/s) = 6.48002 7.00493 6.74758
#
# Compressibility (1/GPa) = 0.01920112
#
# Stress axis : x y z
#
# Youngs Moduli (GPa) = 77.52668 84.46929 39.11024
#
# Poissons Ratio (x) = 0.28208 0.23181
# Poissons Ratio (y) = 0.25889 0.24584
# Poissons Ratio (z) = 0.45952 0.53097
#
# Static dielectric constant tensor:
#      x y z
#    x 3.221710 0.000000 0.000000 
#    y 0.000000 3.424630 0.000000 
#    z 0.000000 0.000000 2.969210 
# 
# 
# High freq. dielectric constant tensor:
#      x y z
#    x 1.671180 0.000000 0.000000 
#    y 0.000000 1.686970 0.000000 
#    z 0.000000 0.000000 1.641270 
# 
# From -- ./inp_files/14738.got.cif
#   From: 2010.03.12/outbox.cif.g09.slc.cpg/sg65_8_cif.got.tgz:14738.got - 2010.04.10 20:52:16.
