data_PCOD8266670
_publ_section_title
;
Structure prediction by ZEFSAII (Michael W. Deem and Ramdas Pophale) SiO2 
 PCOD8266670
Probable space group: C M M M
;
_chemical_formula_sum "Si O2"
_cell_formula_units_Z 120
_cell_length_a 9.107268
_cell_length_b 26.231421
_cell_length_c 28.475253
_cell_angle_alpha 90.000000
_cell_angle_beta 90.000000
_cell_angle_gamma 90.000000
_cell_volume 6802.640587
_symmetry_space_group_name_H-M "C M M M"
_symmetry_group_IT_number 65
_symmetry_cell_setting 'orthorhombic'
loop_
_space_group_symop_operation_xyz
x,y,z
-x,-y,z
x,-y,-z
-x,y,-z
-x,-y,-z
x,y,-z
-x,y,z
x,-y,z
1/2+x,1/2+y,z
1/2-x,1/2-y,z
1/2+x,1/2-y,-z
1/2-x,1/2+y,-z
1/2-x,1/2-y,-z
1/2+x,1/2+y,-z
1/2-x,1/2+y,z
1/2+x,1/2-y,z
loop_
_atom_site_type_symbol
_atom_site_label
_atom_site_fract_x
_atom_site_fract_y
_atom_site_fract_z
Si Si1 0.328533 0.897228 0.101575
Si Si2 0.659258 0.441448 0.449466
Si Si3 0.173977 0.500000 0.053355
Si Si4 0.172815 0.941520 0.294238
Si Si5 0.329264 0.889986 0.623096
Si Si6 0.672353 0.302538 0.054552
Si Si7 0.327435 0.198080 0.446783
Si Si8 0.166177 0.441945 0.799852
O O1 0.500000 0.889183 0.089228
O O2 0.237821 0.848559 0.084789
O O3 0.304381 0.903590 0.157271
O O4 0.265270 0.948324 0.076979
O O5 0.702998 0.416725 0.500000
O O6 0.500000 0.418800 0.432511
O O7 0.636649 0.500000 0.457379
O O8 0.788542 0.435720 0.411787
O O9 0.000000 0.500000 0.058806
O O10 0.227388 0.500000 0.000000
O O11 0.245211 0.899536 0.328271
O O12 0.223311 0.927825 0.241797
O O13 0.000000 0.935424 0.297668
O O14 0.219953 0.000000 0.306703
O O15 0.500000 0.888217 0.634383
O O16 0.273438 0.841080 0.593387
O O17 0.500000 0.297466 0.064810
O O18 0.750000 0.250000 0.069973
O O19 0.704085 0.313966 0.000000
O O20 0.284133 0.180912 0.500000
O O21 0.500000 0.205667 0.443212
O O22 0.250000 0.250000 0.433166
O O23 0.190815 0.500000 0.817470
O O24 0.000000 0.435604 0.781174
#
# Coordination Sequence:
#
# PCOD8266670 Si02
#       8
#    16  16   8  16  16  16  16  16
#     4  10  18  31  53  80 108 141 179 221 267 320
#     4   9  18  31  45  64  94 130 163 193 229 281
#     4   9  16  26  45  77 113 145 175 207 254 319
#     4  10  21  35  51  73 102 136 174 212 252 302
#     4  11  21  32  49  73  99 126 160 204 251 295
#     4  10  21  36  53  75 105 143 186 228 269 315
#     4   9  19  35  53  74  99 126 159 199 244 299
#     4   9  17  32  53  77 105 136 174 214 256 307
#
# _framework density 17.64021
#
# number of rings (size 3 to 8) (size 9 to 14) (size 15 to 20)
#    0.000    2.333    0.667    2.800    0.000    6.400 
#    0.000    2.333    0.000    2.000    0.000    3.733 
#    0.000    0.000    0.000    0.000    0.000    0.000 
#
# Total GULP energy -743606.769473 kJ/mol
# GULP energy per Si atom -12393.446158 kJ/mol
# Density = 1.760006 g / cm^3
# Si number density = 17.640210 Si / 1000 Ang^3
#
#
#
# Elastic Constant Matrix: (Units=GPa)
#
#
# Indices 1 2 3 4 5 6 
#
# 1 66.5462 49.1882 46.4807 0.0000 0.0000 0.0000
# 2 49.1882 109.2136 59.7831 0.0000 0.0000 0.0000
# 3 46.4807 59.7831 103.4416 0.0000 0.0000 0.0000
# 4 0.0000 0.0000 0.0000 28.6429 0.0000 0.0000
# 5 0.0000 0.0000 0.0000 0.0000 33.9125 0.0000
# 6 0.0000 0.0000 0.0000 0.0000 0.0000 28.7591
#
#
#
# Elastic Compliance Matrix: (Units=1/GPa)
#
#
# Indices 1 2 3 4 5 6 
#
# 1 0.025651 -0.007670 -0.007093 0.000000 0.000000 0.000000
# 2 -0.007670 0.015687 -0.005620 0.000000 0.000000 0.000000
# 3 -0.007093 -0.005620 0.016102 0.000000 0.000000 0.000000
# 4 0.000000 0.000000 0.000000 0.034913 0.000000 0.000000
# 5 0.000000 0.000000 0.000000 0.000000 0.029488 0.000000
# 6 0.000000 0.000000 0.000000 0.000000 0.000000 0.034772
#
#
# Mechanical properties :
#
#
# Convention : Reuss Voigt Hill
#
# Bulk Modulus (GPa) = 59.97181 65.56725 62.76953
# Shear Modulus (GPa) = 24.63827 26.51289 25.57558
#
# Velocity S-wave (km/s) = 3.74131 3.88103 3.81181
# Velocity P-wave (km/s) = 7.26184 7.57186 7.41847
#
# Compressibility (1/GPa) = 0.01667450
#
# Stress axis : x y z
#
# Youngs Moduli (GPa) = 38.98490 63.74702 62.10231
#
# Poissons Ratio (x) = 0.48894 0.44051
# Poissons Ratio (y) = 0.29901 0.34900
# Poissons Ratio (z) = 0.27653 0.35824
#
# Static dielectric constant tensor:
#      x y z
#    x 3.257450 0.000000 0.000000 
#    y 0.000000 3.169930 0.000000 
#    z 0.000000 0.000000 3.257570 
# 
# 
# High freq. dielectric constant tensor:
#      x y z
#    x 1.678090 0.000000 0.000000 
#    y 0.000000 1.663720 0.000000 
#    z 0.000000 0.000000 1.678230 
# 
# From -- ./inp_files/73882.got.cif
#   From: 2010.03.12/outbox.cif.g09.slc.cpg/sg65_37_cif.got.tgz:73882.got - 2010.04.10 20:52:16.
