data_PCOD8266367
_publ_section_title
;
Structure prediction by ZEFSAII (Michael W. Deem and Ramdas Pophale) SiO2 
 PCOD8266367
Probable space group: C M M M
;
_chemical_formula_sum "Si O2"
_cell_formula_units_Z 80
_cell_length_a 23.224867
_cell_length_b 18.864581
_cell_length_c 11.393557
_cell_angle_alpha 90.000000
_cell_angle_beta 90.000000
_cell_angle_gamma 90.000000
_cell_volume 4991.829331
_symmetry_space_group_name_H-M "C M M M"
_symmetry_group_IT_number 65
_symmetry_cell_setting 'orthorhombic'
loop_
_space_group_symop_operation_xyz
x,y,z
-x,-y,z
x,-y,-z
-x,y,-z
-x,-y,-z
x,y,-z
-x,y,z
x,-y,z
1/2+x,1/2+y,z
1/2-x,1/2-y,z
1/2+x,1/2-y,-z
1/2-x,1/2+y,-z
1/2-x,1/2-y,-z
1/2+x,1/2+y,-z
1/2-x,1/2+y,z
1/2+x,1/2-y,z
loop_
_atom_site_type_symbol
_atom_site_label
_atom_site_fract_x
_atom_site_fract_y
_atom_site_fract_z
Si Si1 0.065347 0.867523 0.736119
Si Si2 0.732772 0.848218 0.138258
Si Si3 0.266699 0.500000 0.862329
Si Si4 0.838250 0.763625 0.244043
Si Si5 0.687090 0.720232 0.500000
Si Si6 0.104970 0.000000 0.863094
Si Si7 0.625223 0.583127 0.500000
O O1 0.102124 0.801844 0.789632
O O2 0.087394 0.897177 0.612411
O O3 0.000000 0.841336 0.723704
O O4 0.069225 0.931201 0.827710
O O5 0.730178 0.930766 0.174244
O O6 0.785081 0.814858 0.211628
O O7 0.672503 0.810744 0.175935
O O8 0.743932 0.836976 0.000000
O O9 0.330655 0.500000 0.804140
O O10 0.276185 0.500000 0.000000
O O11 0.842701 0.749165 0.383355
O O12 0.750000 0.750000 0.500000
O O13 0.682211 0.633537 0.500000
O O14 0.112306 0.000000 0.000000
O O15 0.642418 0.500000 0.500000
#
# Coordination Sequence:
#
# PCOD8266367 Si02
#       7
#    16  16   8  16   8   8   8
#     4  11  22  34  48  66  94 130 167 200 228 270
#     4  10  18  30  50  69  91 121 155 195 236 285
#     4   9  18  31  47  69  95 122 155 193 235 284
#     4  10  19  31  47  67  92 122 159 192 238 280
#     4  10  18  31  45  66  94 122 151 196 244 278
#     4  11  21  31  43  66  98 128 159 193 233 276
#     4  10  21  34  50  69  91 128 172 201 227 273
#
# _framework density 16.026188999999999
#
# number of rings (size 3 to 8) (size 9 to 14) (size 15 to 20)
#    0.000    1.800    5.000    1.800    0.000    2.000 
#    0.000    0.000    0.000    0.000    0.000    0.700 
#    0.000    2.400    0.000    7.300    0.000    0.000 
#
# Total GULP energy -495696.061378 kJ/mol
# GULP energy per Si atom -12392.401534 kJ/mol
# Density = 1.598971 g / cm^3
# Si number density = 16.026189 Si / 1000 Ang^3
#
#
#
# Elastic Constant Matrix: (Units=GPa)
#
#
# Indices 1 2 3 4 5 6 
#
# 1 92.7944 57.6995 15.9494 0.0000 0.0000 0.0000
# 2 57.6995 111.5005 24.0308 0.0000 0.0000 0.0000
# 3 15.9494 24.0308 66.7375 0.0000 0.0000 0.0000
# 4 0.0000 0.0000 0.0000 21.3074 0.0000 0.0000
# 5 0.0000 0.0000 0.0000 0.0000 12.1029 0.0000
# 6 0.0000 0.0000 0.0000 0.0000 0.0000 16.5878
#
#
#
# Elastic Compliance Matrix: (Units=1/GPa)
#
#
# Indices 1 2 3 4 5 6 
#
# 1 0.015940 -0.008053 -0.000910 0.000000 0.000000 0.000000
# 2 -0.008053 0.013791 -0.003041 0.000000 0.000000 0.000000
# 3 -0.000910 -0.003041 0.016297 0.000000 0.000000 0.000000
# 4 0.000000 0.000000 0.000000 0.046932 0.000000 0.000000
# 5 0.000000 0.000000 0.000000 0.000000 0.082625 0.000000
# 6 0.000000 0.000000 0.000000 0.000000 0.000000 0.060285
#
#
# Mechanical properties :
#
#
# Convention : Reuss Voigt Hill
#
# Bulk Modulus (GPa) = 45.41325 51.82132 48.61729
# Shear Modulus (GPa) = 18.71133 21.55646 20.13389
#
# Velocity S-wave (km/s) = 3.42065 3.67151 3.54829
# Velocity P-wave (km/s) = 6.63321 7.09781 6.86944
#
# Compressibility (1/GPa) = 0.02202001
#
# Stress axis : x y z
#
# Youngs Moduli (GPa) = 62.73541 72.51055 61.36219
#
# Poissons Ratio (x) = 0.58389 0.05583
# Poissons Ratio (y) = 0.50518 0.18663
# Poissons Ratio (z) = 0.05708 0.22054
#
# Static dielectric constant tensor:
#      x y z
#    x 2.906830 0.000000 0.000000 
#    y 0.000000 3.363390 0.000000 
#    z 0.000000 0.000000 2.927150 
# 
# 
# High freq. dielectric constant tensor:
#      x y z
#    x 1.577660 0.000000 0.000000 
#    y 0.000000 1.605290 0.000000 
#    z 0.000000 0.000000 1.627990 
# 
# From -- ./inp_files/30751.got.cif
#   From: 2010.03.12/outbox.cif.g09.slc.cpg/sg65_16_cif.got.tgz:30751.got - 2010.04.10 20:52:16.
