data_PCOD8266661
_publ_section_title
;
Structure prediction by ZEFSAII (Michael W. Deem and Ramdas Pophale) SiO2 
 PCOD8266661
Probable space group: C M M M
;
_chemical_formula_sum "Si O2"
_cell_formula_units_Z 96
_cell_length_a 23.520256
_cell_length_b 25.441194
_cell_length_c 9.075109
_cell_angle_alpha 90.000000
_cell_angle_beta 90.000000
_cell_angle_gamma 90.000000
_cell_volume 5430.394541
_symmetry_space_group_name_H-M "C M M M"
_symmetry_group_IT_number 65
_symmetry_cell_setting 'orthorhombic'
loop_
_space_group_symop_operation_xyz
x,y,z
-x,-y,z
x,-y,-z
-x,y,-z
-x,-y,-z
x,y,-z
-x,y,z
x,-y,z
1/2+x,1/2+y,z
1/2-x,1/2-y,z
1/2+x,1/2-y,-z
1/2-x,1/2+y,-z
1/2-x,1/2-y,-z
1/2+x,1/2+y,-z
1/2-x,1/2+y,z
1/2+x,1/2-y,z
loop_
_atom_site_type_symbol
_atom_site_label
_atom_site_fract_x
_atom_site_fract_y
_atom_site_fract_z
Si Si1 0.434823 0.199616 0.830412
Si Si2 0.627402 0.094390 0.826692
Si Si3 0.433012 0.000000 0.331654
Si Si4 0.563453 0.500000 0.175032
Si Si5 0.065117 0.806375 0.326619
Si Si6 0.750125 0.440990 0.825745
Si Si7 0.631087 0.398465 0.174899
O O1 0.500000 0.182377 0.804768
O O2 0.394347 0.151925 0.781886
O O3 0.418242 0.248676 0.729396
O O4 0.424551 0.215327 0.000000
O O5 0.589834 0.051814 0.745358
O O6 0.692912 0.089111 0.776032
O O7 0.620570 0.084409 0.000000
O O8 0.500000 0.000000 0.316708
O O9 0.412830 0.000000 0.500000
O O10 0.500000 0.500000 0.240483
O O11 0.595221 0.448256 0.232171
O O12 0.562888 0.500000 0.000000
O O13 0.073849 0.808516 0.500000
O O14 0.107506 0.846763 0.250944
O O15 0.000000 0.819568 0.282163
O O16 0.749285 0.500000 0.757992
O O17 0.695935 0.407405 0.772106
O O18 0.747145 0.446309 0.000000
O O19 0.626193 0.391665 0.000000
#
# Coordination Sequence:
#
# PCOD8266661 Si02
#       7
#    16  16   8   8  16  16  16
#     4   9  18  33  54  79 102 129 172 220 264 312
#     4  10  19  34  57  80 104 136 176 221 265 309
#     4  11  23  34  47  75 113 145 174 213 262 317
#     4   9  16  25  43  73 101 125 160 207 254 296
#     4  10  21  36  53  74 103 139 174 212 264 317
#     4   9  16  30  53  80 106 135 171 214 260 306
#     4  10  18  31  53  78 104 135 173 214 257 308
#
# _framework density 17.678273999999998
#
# number of rings (size 3 to 8) (size 9 to 14) (size 15 to 20)
#    0.000    2.333    1.667    1.750    0.000    3.667 
#    0.000    3.750    0.000    6.500    0.000    0.000 
#    0.000    0.000    0.000    0.000    0.000    0.000 
#
# Total GULP energy -595236.503525 kJ/mol
# GULP energy per Si atom -12400.760490 kJ/mol
# Density = 1.763804 g / cm^3
# Si number density = 17.678274 Si / 1000 Ang^3
#
#
#
# Elastic Constant Matrix: (Units=GPa)
#
#
# Indices 1 2 3 4 5 6 
#
# 1 127.9297 87.5722 37.2198 0.0000 0.0000 0.0000
# 2 87.5722 142.5186 47.2230 0.0000 0.0000 0.0000
# 3 37.2198 47.2230 45.8632 0.0000 0.0000 0.0000
# 4 0.0000 0.0000 0.0000 -7.8250 0.0000 0.0000
# 5 0.0000 0.0000 0.0000 0.0000 15.4646 0.0000
# 6 0.0000 0.0000 0.0000 0.0000 0.0000 -53.8367
#
#
#
# Elastic Compliance Matrix: (Units=1/GPa)
#
#
# Indices 1 2 3 4 5 6 
#
# 1 0.013910 -0.007296 -0.003776 0.000000 0.000000 0.000000
# 2 -0.007296 0.014477 -0.008985 0.000000 0.000000 0.000000
# 3 -0.003776 -0.008985 0.034120 0.000000 0.000000 0.000000
# 4 0.000000 0.000000 0.000000 -0.127796 0.000000 0.000000
# 5 0.000000 0.000000 0.000000 0.000000 0.064664 0.000000
# 6 0.000000 0.000000 0.000000 0.000000 0.000000 -0.018575
#
#
# Mechanical properties :
#
#
# Convention : Reuss Voigt Hill
#
# Bulk Modulus (GPa) = 44.65828 73.37128 59.01478
# Shear Modulus (GPa) = 176.19200 0.38036 88.28618
#
# Velocity S-wave (km/s) = 9.99411 0.46435 7.07453
# Velocity P-wave (km/s) = 12.58939 6.47157 10.00935
#
# Compressibility (1/GPa) = 0.02239226
#
# Stress axis : x y z
#
# Youngs Moduli (GPa) = 71.89302 69.07619 29.30817
#
# Poissons Ratio (x) = 0.50396 0.11067
# Poissons Ratio (y) = 0.52451 0.26334
# Poissons Ratio (z) = 0.27148 0.62067
#
# Static dielectric constant tensor:
#      x y z
#    x 3.508650 0.000000 0.000000 
#    y 0.000000 3.318650 0.000000 
#    z 0.000000 0.000000 3.011220 
# 
# 
# High freq. dielectric constant tensor:
#      x y z
#    x 1.688820 0.000000 0.000000 
#    y 0.000000 1.686700 0.000000 
#    z 0.000000 0.000000 1.654080 
# 
# From -- ./inp_files/14345.got.cif
#   From: 2010.03.12/outbox.cif.g09.slc.cpg/sg65_8_cif.got.tgz:14345.got - 2010.04.10 20:52:16.
