data_PCOD8266306
_publ_section_title
;
Structure prediction by ZEFSAII (Michael W. Deem and Ramdas Pophale) SiO2 
 PCOD8266306
Probable space group: C M M M
;
_chemical_formula_sum "Si O2"
_cell_formula_units_Z 128
_cell_length_a 17.795924
_cell_length_b 22.680113
_cell_length_c 17.924793
_cell_angle_alpha 90.000000
_cell_angle_beta 90.000000
_cell_angle_gamma 90.000000
_cell_volume 7234.689645
_symmetry_space_group_name_H-M "C M M M"
_symmetry_group_IT_number 65
_symmetry_cell_setting 'orthorhombic'
loop_
_space_group_symop_operation_xyz
x,y,z
-x,-y,z
x,-y,-z
-x,y,-z
-x,-y,-z
x,y,-z
-x,y,z
x,-y,z
1/2+x,1/2+y,z
1/2-x,1/2-y,z
1/2+x,1/2-y,-z
1/2-x,1/2+y,-z
1/2-x,1/2-y,-z
1/2+x,1/2+y,-z
1/2-x,1/2+y,z
1/2+x,1/2-y,z
loop_
_atom_site_type_symbol
_atom_site_label
_atom_site_fract_x
_atom_site_fract_y
_atom_site_fract_z
Si Si1 0.913513 0.668869 0.419490
Si Si2 0.344362 0.433660 0.586080
Si Si3 0.582218 0.431141 0.142808
Si Si4 0.798403 0.363720 0.222269
Si Si5 0.914052 0.726438 0.730243
Si Si6 0.866318 0.856498 0.277558
Si Si7 0.674252 0.065033 0.637661
Si Si8 0.738967 0.568621 0.916189
O O1 0.896246 0.698511 0.500000
O O2 0.886919 0.712309 0.354137
O O3 0.872277 0.606591 0.416525
O O4 0.000000 0.654313 0.409853
O O5 0.356340 0.414369 0.500000
O O6 0.377933 0.500000 0.598475
O O7 0.380926 0.383748 0.639760
O O8 0.257814 0.436031 0.607010
O O9 0.500000 0.409728 0.112368
O O10 0.580021 0.500000 0.156186
O O11 0.599380 0.404415 0.222897
O O12 0.649994 0.414744 0.086666
O O13 0.856914 0.308832 0.215021
O O14 0.720592 0.342581 0.259446
O O15 0.832288 0.413369 0.276584
O O16 0.786579 0.391005 0.140110
O O17 0.910505 0.796372 0.737232
O O18 0.000000 0.706495 0.746754
O O19 0.639013 0.000000 0.635016
O O20 0.750387 0.500000 0.894902
O O21 0.767311 0.581431 0.000000
#
# Coordination Sequence:
#
# PCOD8266306 Si02
#       8
#    16  16  16  16  16  16  16  16
#     4   9  18  30  41  58  87 118 151 197 247 288
#     4   9  17  28  43  66  95 123 154 198 246 286
#     4   9  17  29  47  73 104 133 158 190 233 277
#     4   9  18  32  49  70  97 124 153 195 239 278
#     4  10  20  33  49  67  88 122 165 204 242 282
#     4  10  18  30  49  70  91 123 167 204 235 280
#     4   9  16  27  44  64  87 118 154 189 232 285
#     4   9  17  30  52  81 106 128 155 186 227 282
#
# _framework density 17.692534999999999
#
# number of rings (size 3 to 8) (size 9 to 14) (size 15 to 20)
#    0.000    2.750    0.000    1.875    0.000    4.750 
#    0.000    1.875    0.000   13.125    0.000    5.250 
#    0.000    0.000    0.000    0.000    0.000    0.000 
#
# Total GULP energy -793125.578968 kJ/mol
# GULP energy per Si atom -12392.587171 kJ/mol
# Density = 1.765227 g / cm^3
# Si number density = 17.692535 Si / 1000 Ang^3
#
#
#
# Elastic Constant Matrix: (Units=GPa)
#
#
# Indices 1 2 3 4 5 6 
#
# 1 51.1007 17.2737 25.0444 0.0000 0.0000 0.0000
# 2 17.2737 34.1780 25.7037 0.0000 0.0000 0.0000
# 3 25.0444 25.7037 94.4341 0.0000 0.0000 0.0000
# 4 0.0000 0.0000 0.0000 17.1049 0.0000 0.0000
# 5 0.0000 0.0000 0.0000 0.0000 15.5847 0.0000
# 6 0.0000 0.0000 0.0000 0.0000 0.0000 19.4569
#
#
#
# Elastic Compliance Matrix: (Units=1/GPa)
#
#
# Indices 1 2 3 4 5 6 
#
# 1 0.024730 -0.009514 -0.003969 0.000000 0.000000 0.000000
# 2 -0.009514 0.040449 -0.008487 0.000000 0.000000 0.000000
# 3 -0.003969 -0.008487 0.013952 0.000000 0.000000 0.000000
# 4 0.000000 0.000000 0.000000 0.058463 0.000000 0.000000
# 5 0.000000 0.000000 0.000000 0.000000 0.064165 0.000000
# 6 0.000000 0.000000 0.000000 0.000000 0.000000 0.051396
#
#
# Mechanical properties :
#
#
# Convention : Reuss Voigt Hill
#
# Bulk Modulus (GPa) = 28.41513 35.08404 31.74959
# Shear Modulus (GPa) = 16.19036 17.87537 17.03287
#
# Velocity S-wave (km/s) = 3.02834 3.18202 3.10613
# Velocity P-wave (km/s) = 5.32195 5.77696 5.55412
#
# Compressibility (1/GPa) = 0.03519252
#
# Stress axis : x y z
#
# Youngs Moduli (GPa) = 40.43590 24.72229 71.67448
#
# Poissons Ratio (x) = 0.23521 0.28448
# Poissons Ratio (y) = 0.38470 0.60827
# Poissons Ratio (z) = 0.16049 0.20981
#
# Static dielectric constant tensor:
#      x y z
#    x 3.276170 0.000000 0.000000 
#    y 0.000000 3.223850 0.000000 
#    z 0.000000 0.000000 3.218560 
# 
# 
# High freq. dielectric constant tensor:
#      x y z
#    x 1.670880 0.000000 0.000000 
#    y 0.000000 1.674070 0.000000 
#    z 0.000000 0.000000 1.670080 
# 
# From -- ./inp_files/55142.got.cif
#   From: 2010.03.12/outbox.cif.g09.slc.cpg/sg65_28_cif.got.tgz:55142.got - 2010.04.10 20:52:16.
