data_PCOD8266204
_publ_section_title
;
Structure prediction by ZEFSAII (Michael W. Deem and Ramdas Pophale) SiO2 
 PCOD8266204
Probable space group: C M M M
;
_chemical_formula_sum "Si O2"
_cell_formula_units_Z 104
_cell_length_a 27.441898
_cell_length_b 8.553468
_cell_length_c 26.780617
_cell_angle_alpha 90.000000
_cell_angle_beta 90.000000
_cell_angle_gamma 90.000000
_cell_volume 6286.037380
_symmetry_space_group_name_H-M "C M M M"
_symmetry_group_IT_number 65
_symmetry_cell_setting 'orthorhombic'
loop_
_space_group_symop_operation_xyz
x,y,z
-x,-y,z
x,-y,-z
-x,y,-z
-x,-y,-z
x,y,-z
-x,y,z
x,-y,z
1/2+x,1/2+y,z
1/2-x,1/2-y,z
1/2+x,1/2-y,-z
1/2-x,1/2+y,-z
1/2-x,1/2-y,-z
1/2+x,1/2+y,-z
1/2-x,1/2+y,z
1/2+x,1/2-y,z
loop_
_atom_site_type_symbol
_atom_site_label
_atom_site_fract_x
_atom_site_fract_y
_atom_site_fract_z
Si Si1 0.555615 0.184465 0.747874
Si Si2 0.354112 0.316704 0.696288
Si Si3 0.055181 0.313876 0.945310
Si Si4 0.104729 0.683902 0.848026
Si Si5 0.804169 0.184867 0.500000
Si Si6 0.198343 0.315400 0.791076
Si Si7 0.303812 0.183706 0.601799
O O1 0.500000 0.229115 0.736085
O O2 0.590148 0.272686 0.708742
O O3 0.568993 0.241765 0.803794
O O4 0.565176 0.000000 0.742982
O O5 0.348940 0.500000 0.687937
O O6 0.317352 0.264293 0.739638
O O7 0.339926 0.228233 0.646078
O O8 0.057110 0.500000 0.944402
O O9 0.088896 0.241230 0.901213
O O10 0.000000 0.257440 0.935951
O O11 0.073211 0.254418 0.000000
O O12 0.099231 0.500000 0.852668
O O13 0.160185 0.730162 0.834727
O O14 0.750000 0.250000 0.500000
O O15 0.828406 0.248530 0.449037
O O16 0.805186 0.000000 0.500000
O O17 0.200140 0.500000 0.782310
O O18 0.250000 0.250000 0.808806
O O19 0.250000 0.250000 0.612167
O O20 0.299104 0.000000 0.596855
#
# Coordination Sequence:
#
# PCOD8266204 Si02
#       7
#    16  16  16  16   8  16  16
#     4   9  17  30  47  66  90 120 152 185 223 269
#     4  11  21  32  46  67  93 120 151 187 227 270
#     4   8  12  18  32  57  86 112 139 175 220 267
#     4   8  14  24  39  59  84 115 147 179 219 267
#     4  10  18  30  46  68  95 124 157 190 228 268
#     4  10  19  31  45  62  85 115 150 186 225 270
#     4  11  20  32  48  68  95 126 158 190 227 269
#
# _framework density 16.544604
#
# number of rings (size 3 to 8) (size 9 to 14) (size 15 to 20)
#    0.000    2.462    0.000    7.154    0.000    2.154 
#    0.000    0.000    0.000    0.462    0.000    0.538 
#    0.000   19.077    0.000   49.385    0.000   45.231 
#
# Total GULP energy -644575.445589 kJ/mol
# GULP energy per Si atom -12395.681646 kJ/mol
# Density = 1.650695 g / cm^3
# Si number density = 16.544604 Si / 1000 Ang^3
#
#
#
# Elastic Constant Matrix: (Units=GPa)
#
#
# Indices 1 2 3 4 5 6 
#
# 1 95.7633 23.6837 56.9870 0.0000 0.0000 0.0000
# 2 23.6837 79.1403 28.8797 0.0000 0.0000 0.0000
# 3 56.9870 28.8797 143.4808 0.0000 0.0000 0.0000
# 4 0.0000 0.0000 0.0000 11.7939 0.0000 0.0000
# 5 0.0000 0.0000 0.0000 0.0000 23.7558 0.0000
# 6 0.0000 0.0000 0.0000 0.0000 0.0000 20.8376
#
#
#
# Elastic Compliance Matrix: (Units=1/GPa)
#
#
# Indices 1 2 3 4 5 6 
#
# 1 0.014066 -0.002343 -0.005115 0.000000 0.000000 0.000000
# 2 -0.002343 0.014028 -0.001893 0.000000 0.000000 0.000000
# 3 -0.005115 -0.001893 0.009382 0.000000 0.000000 0.000000
# 4 0.000000 0.000000 0.000000 0.084789 0.000000 0.000000
# 5 0.000000 0.000000 0.000000 0.000000 0.042095 0.000000
# 6 0.000000 0.000000 0.000000 0.000000 0.000000 0.047990
#
#
# Mechanical properties :
#
#
# Convention : Reuss Voigt Hill
#
# Bulk Modulus (GPa) = 53.26518 59.72057 56.49288
# Shear Modulus (GPa) = 21.06952 25.19972 23.13462
#
# Velocity S-wave (km/s) = 3.57248 3.90697 3.74347
# Velocity P-wave (km/s) = 7.02009 7.51849 7.27356
#
# Compressibility (1/GPa) = 0.01877399
#
# Stress axis : x y z
#
# Youngs Moduli (GPa) = 71.09525 71.28763 106.58556
#
# Poissons Ratio (x) = 0.16701 0.54518
# Poissons Ratio (y) = 0.16656 0.20177
# Poissons Ratio (z) = 0.36365 0.13495
#
# Static dielectric constant tensor:
#      x y z
#    x 2.941350 0.000000 0.000000 
#    y 0.000000 2.931440 0.000000 
#    z 0.000000 0.000000 3.661990 
# 
# 
# High freq. dielectric constant tensor:
#      x y z
#    x 1.613980 0.000000 0.000000 
#    y 0.000000 1.623020 0.000000 
#    z 0.000000 0.000000 1.638300 
# 
# From -- ./inp_files/76045.got.cif
#   From: 2010.03.12/outbox.cif.g09.slc.cpg/sg65_39_cif.got.tgz:76045.got - 2010.04.10 20:52:16.
