data_PCOD8266293
_publ_section_title
;
Structure prediction by ZEFSAII (Michael W. Deem and Ramdas Pophale) SiO2 
 PCOD8266293
Probable space group: C M M M
;
_chemical_formula_sum "Si O2"
_cell_formula_units_Z 88
_cell_length_a 30.823451
_cell_length_b 10.724052
_cell_length_c 14.395007
_cell_angle_alpha 90.000000
_cell_angle_beta 90.000000
_cell_angle_gamma 90.000000
_cell_volume 4758.302548
_symmetry_space_group_name_H-M "C M M M"
_symmetry_group_IT_number 65
_symmetry_cell_setting 'orthorhombic'
loop_
_space_group_symop_operation_xyz
x,y,z
-x,-y,z
x,-y,-z
-x,y,-z
-x,-y,-z
x,y,-z
-x,y,z
x,-y,z
1/2+x,1/2+y,z
1/2-x,1/2-y,z
1/2+x,1/2-y,-z
1/2-x,1/2+y,-z
1/2-x,1/2-y,-z
1/2+x,1/2+y,-z
1/2-x,1/2+y,z
1/2+x,1/2-y,z
loop_
_atom_site_type_symbol
_atom_site_label
_atom_site_fract_x
_atom_site_fract_y
_atom_site_fract_z
Si Si1 0.548193 0.500000 0.609682
Si Si2 0.913698 0.257600 0.393856
Si Si3 0.321333 0.141033 0.602067
Si Si4 0.372441 0.852531 0.895988
Si Si5 0.047535 0.642843 0.781248
Si Si6 0.716466 0.145161 0.205776
O O1 0.500000 0.500000 0.653934
O O2 0.544408 0.500000 0.500000
O O3 0.574576 0.620191 0.642818
O O4 0.928675 0.282314 0.500000
O O5 0.862101 0.268903 0.383918
O O6 0.939209 0.351836 0.327155
O O7 0.299987 0.164254 0.500000
O O8 0.286240 0.162587 0.682687
O O9 0.339437 0.000000 0.608965
O O10 0.414780 0.794022 0.844678
O O11 0.329241 0.818162 0.839688
O O12 0.377141 0.000000 0.899036
O O13 0.369484 0.797179 0.000000
O O14 0.043735 0.500000 0.809782
O O15 0.000000 0.705984 0.797594
O O16 0.750000 0.250000 0.168249
O O17 0.729617 0.000000 0.181700
#
# Coordination Sequence:
#
# PCOD8266293 Si02
#       6
#     8  16  16  16  16  16
#     4   9  18  30  42  62  97 139 177 213 250 292
#     4  10  18  30  48  70  99 137 178 211 248 298
#     4   9  17  31  52  74 101 137 170 206 257 312
#     4   9  18  34  54  74 101 136 168 207 262 314
#     4  10  19  30  48  77 106 131 167 210 252 306
#     4  10  20  36  56  80 107 135 173 217 263 320
#
# _framework density 18.49399
#
# number of rings (size 3 to 8) (size 9 to 14) (size 15 to 20)
#    0.000    2.455    1.818    1.091    0.000    3.273 
#    1.636    2.727    0.000    0.000    0.000    0.000 
#    0.000    2.182    0.000    0.000    0.000    0.000 
#
# Total GULP energy -545245.829731 kJ/mol
# GULP energy per Si atom -12391.950676 kJ/mol
# Density = 1.845190 g / cm^3
# Si number density = 18.493990 Si / 1000 Ang^3
#
#
#
# Elastic Constant Matrix: (Units=GPa)
#
#
# Indices 1 2 3 4 5 6 
#
# 1 100.6807 33.2546 40.2500 0.0000 0.0000 0.0000
# 2 33.2546 49.6177 12.0245 0.0000 0.0000 0.0000
# 3 40.2500 12.0245 100.2586 0.0000 0.0000 0.0000
# 4 0.0000 0.0000 0.0000 7.6602 0.0000 0.0000
# 5 0.0000 0.0000 0.0000 0.0000 13.9667 0.0000
# 6 0.0000 0.0000 0.0000 0.0000 0.0000 26.6708
#
#
#
# Elastic Compliance Matrix: (Units=1/GPa)
#
#
# Indices 1 2 3 4 5 6 
#
# 1 0.014761 -0.008710 -0.004881 0.000000 0.000000 0.000000
# 2 -0.008710 0.025897 0.000391 0.000000 0.000000 0.000000
# 3 -0.004881 0.000391 0.011887 0.000000 0.000000 0.000000
# 4 0.000000 0.000000 0.000000 0.130545 0.000000 0.000000
# 5 0.000000 0.000000 0.000000 0.000000 0.071599 0.000000
# 6 0.000000 0.000000 0.000000 0.000000 0.000000 0.037494
#
#
# Mechanical properties :
#
#
# Convention : Reuss Voigt Hill
#
# Bulk Modulus (GPa) = 38.24999 46.84615 42.54807
# Shear Modulus (GPa) = 15.27657 20.66138 17.96897
#
# Velocity S-wave (km/s) = 2.87719 3.34607 3.12045
# Velocity P-wave (km/s) = 5.63604 6.34931 6.00328
#
# Compressibility (1/GPa) = 0.02614380
#
# Stress axis : x y z
#
# Youngs Moduli (GPa) = 67.74762 38.61458 84.12580
#
# Poissons Ratio (x) = 0.33633 0.41064
# Poissons Ratio (y) = 0.59008 -0.03287
# Poissons Ratio (z) = 0.33069 -0.01509
#
# Static dielectric constant tensor:
#      x y z
#    x 3.390120 0.000000 0.000000 
#    y 0.000000 3.211910 0.000000 
#    z 0.000000 0.000000 3.526960 
# 
# 
# High freq. dielectric constant tensor:
#      x y z
#    x 1.712040 0.000000 0.000000 
#    y 0.000000 1.676220 0.000000 
#    z 0.000000 0.000000 1.710290 
# 
# From -- ./inp_files/46787.got.cif
#   From: 2010.03.12/outbox.cif.g09.slc.cpg/sg65_24_cif.got.tgz:46787.got - 2010.04.10 20:52:16.
