data_PCOD8266742
_publ_section_title
;
Structure prediction by ZEFSAII (Michael W. Deem and Ramdas Pophale) SiO2 
 PCOD8266742
Probable space group: C M M M
;
_chemical_formula_sum "Si O2"
_cell_formula_units_Z 96
_cell_length_a 28.627102
_cell_length_b 8.096250
_cell_length_c 25.067684
_cell_angle_alpha 90.000000
_cell_angle_beta 90.000000
_cell_angle_gamma 90.000000
_cell_volume 5809.991632
_symmetry_space_group_name_H-M "C M M M"
_symmetry_group_IT_number 65
_symmetry_cell_setting 'orthorhombic'
loop_
_space_group_symop_operation_xyz
x,y,z
-x,-y,z
x,-y,-z
-x,y,-z
-x,-y,-z
x,y,-z
-x,y,z
x,-y,z
1/2+x,1/2+y,z
1/2-x,1/2-y,z
1/2+x,1/2-y,-z
1/2-x,1/2+y,-z
1/2-x,1/2-y,-z
1/2+x,1/2+y,-z
1/2-x,1/2+y,z
1/2+x,1/2-y,z
loop_
_atom_site_type_symbol
_atom_site_label
_atom_site_fract_x
_atom_site_fract_y
_atom_site_fract_z
Si Si1 0.552995 0.803449 0.558602
Si Si2 0.697074 0.805495 0.500000
Si Si3 0.107909 0.307748 0.341058
Si Si4 0.197089 0.191436 0.387259
Si Si5 0.555710 0.000000 0.939267
Si Si6 0.446152 0.806137 0.239051
Si Si7 0.444625 0.316415 0.124819
O O1 0.571630 0.745302 0.500000
O O2 0.500000 0.742417 0.566432
O O3 0.583891 0.726492 0.606426
O O4 0.555166 0.000000 0.560836
O O5 0.750000 0.750000 0.500000
O O6 0.675201 0.736228 0.445420
O O7 0.691629 0.000000 0.500000
O O8 0.097137 0.500000 0.340431
O O9 0.163531 0.274149 0.343110
O O10 0.085446 0.234165 0.287198
O O11 0.250000 0.250000 0.379900
O O12 0.195958 0.000000 0.377910
O O13 0.575836 0.167658 0.911712
O O14 0.500000 0.000000 0.935196
O O15 0.573066 0.000000 0.000000
O O16 0.500000 0.768644 0.252922
O O17 0.429680 0.712340 0.185935
O O18 0.438577 0.000000 0.229281
O O19 0.500000 0.310460 0.120317
O O20 0.426692 0.500000 0.106869
#
# Coordination Sequence:
#
# PCOD8266742 Si02
#       7
#    16   8  16  16   8  16  16
#     4   8  14  25  41  63  89 113 140 176 219 269
#     4  10  18  32  52  68  81 100 129 164 214 271
#     4  10  19  29  46  70  89 113 149 186 224 274
#     4  11  22  36  50  66  88 111 138 178 225 279
#     4   9  16  26  40  60  88 120 157 197 235 275
#     4   9  16  28  45  64  91 123 157 196 231 269
#     4   9  16  26  41  60  85 119 157 198 239 271
#
# _framework density 16.523260000000001
#
# number of rings (size 3 to 8) (size 9 to 14) (size 15 to 20)
#    0.000    2.583    0.833    4.250    1.167    3.000 
#    0.000    1.667    0.000    1.500    0.000    1.167 
#    0.000    0.000    0.000    0.000    0.000    0.833 
#
# Total GULP energy -594851.419632 kJ/mol
# GULP energy per Si atom -12392.737909 kJ/mol
# Density = 1.648565 g / cm^3
# Si number density = 16.523260 Si / 1000 Ang^3
#
#
#
# Elastic Constant Matrix: (Units=GPa)
#
#
# Indices 1 2 3 4 5 6 
#
# 1 45.3225 11.1852 38.3795 0.0000 0.0000 0.0000
# 2 11.1852 67.3336 47.7629 0.0000 0.0000 0.0000
# 3 38.3795 47.7629 114.5269 0.0000 0.0000 0.0000
# 4 0.0000 0.0000 0.0000 14.2564 0.0000 0.0000
# 5 0.0000 0.0000 0.0000 0.0000 10.0553 0.0000
# 6 0.0000 0.0000 0.0000 0.0000 0.0000 12.1126
#
#
#
# Elastic Compliance Matrix: (Units=1/GPa)
#
#
# Indices 1 2 3 4 5 6 
#
# 1 0.031278 0.003180 -0.011808 0.000000 0.000000 0.000000
# 2 0.003180 0.021414 -0.009996 0.000000 0.000000 0.000000
# 3 -0.011808 -0.009996 0.016858 0.000000 0.000000 0.000000
# 4 0.000000 0.000000 0.000000 0.070144 0.000000 0.000000
# 5 0.000000 0.000000 0.000000 0.000000 0.099450 0.000000
# 6 0.000000 0.000000 0.000000 0.000000 0.000000 0.082559
#
#
# Mechanical properties :
#
#
# Convention : Reuss Voigt Hill
#
# Bulk Modulus (GPa) = 30.95830 46.87090 38.91460
# Shear Modulus (GPa) = 13.52379 15.94187 14.73283
#
# Velocity S-wave (km/s) = 2.86399 3.10952 2.98928
# Velocity P-wave (km/s) = 5.45101 6.42809 5.95961
#
# Compressibility (1/GPa) = 0.03230152
#
# Stress axis : x y z
#
# Youngs Moduli (GPa) = 31.97088 46.69840 59.32061
#
# Poissons Ratio (x) = -0.14851 0.70046
# Poissons Ratio (y) = -0.10167 0.59299
# Poissons Ratio (z) = 0.37752 0.46681
#
# Static dielectric constant tensor:
#      x y z
#    x 2.683380 0.000000 0.000000 
#    y 0.000000 3.085160 0.000000 
#    z 0.000000 0.000000 3.206270 
# 
# 
# High freq. dielectric constant tensor:
#      x y z
#    x 1.588330 0.000000 0.000000 
#    y 0.000000 1.632730 0.000000 
#    z 0.000000 0.000000 1.618680 
# 
# From -- ./inp_files/71743.got.cif
#   From: 2010.03.12/outbox.cif.g09.slc.cpg/sg65_36_cif.got.tgz:71743.got - 2010.04.10 20:52:16.
