data_PCOD8266680
_publ_section_title
;
Structure prediction by ZEFSAII (Michael W. Deem and Ramdas Pophale) SiO2 
 PCOD8266680
Probable space group: C M M M
;
_chemical_formula_sum "Si O2"
_cell_formula_units_Z 88
_cell_length_a 30.625429
_cell_length_b 19.592030
_cell_length_c 7.818086
_cell_angle_alpha 90.000000
_cell_angle_beta 90.000000
_cell_angle_gamma 90.000000
_cell_volume 4690.963584
_symmetry_space_group_name_H-M "C M M M"
_symmetry_group_IT_number 65
_symmetry_cell_setting 'orthorhombic'
loop_
_space_group_symop_operation_xyz
x,y,z
-x,-y,z
x,-y,-z
-x,y,-z
-x,-y,-z
x,y,-z
-x,y,z
x,-y,z
1/2+x,1/2+y,z
1/2-x,1/2-y,z
1/2+x,1/2-y,-z
1/2-x,1/2+y,-z
1/2-x,1/2-y,-z
1/2+x,1/2+y,-z
1/2-x,1/2+y,z
1/2+x,1/2-y,z
loop_
_atom_site_type_symbol
_atom_site_label
_atom_site_fract_x
_atom_site_fract_y
_atom_site_fract_z
Si Si1 0.619938 0.390959 0.694949
Si Si2 0.419885 0.926626 0.500000
Si Si3 0.548007 0.783766 0.500000
Si Si4 0.891931 0.253418 0.811091
Si Si5 0.312461 0.500000 0.203575
Si Si6 0.855894 0.605719 0.197862
Si Si7 0.549886 0.500000 0.201415
Si Si8 0.715496 0.000000 0.198916
O O1 0.616349 0.368206 0.500000
O O2 0.627210 0.322725 0.805848
O O3 0.663283 0.433995 0.725185
O O4 0.575863 0.432476 0.740187
O O5 0.454689 0.865994 0.500000
O O6 0.391819 0.923135 0.673641
O O7 0.443910 0.000000 0.500000
O O8 0.500000 0.752642 0.500000
O O9 0.570466 0.757550 0.328703
O O10 0.854520 0.311543 0.778447
O O11 0.912055 0.265939 0.000000
O O12 0.263561 0.500000 0.282523
O O13 0.314883 0.500000 0.000000
O O14 0.810429 0.569261 0.250793
O O15 0.867272 0.586388 0.000000
O O16 0.500000 0.500000 0.275174
O O17 0.548074 0.500000 0.000000
O O18 0.724194 0.000000 0.000000
#
# Coordination Sequence:
#
# PCOD8266680 Si02
#       8
#    16   8   8  16   8  16   8   8
#     4  11  21  37  55  77 112 146 181 223 272 329
#     4  10  18  31  54  80 104 147 183 219 277 325
#     4  10  22  37  52  79 115 141 181 231 272 330
#     4  10  20  37  60  79 106 148 187 226 274 325
#     4  10  20  35  57  81 110 146 183 221 274 335
#     4   9  18  33  54  82 110 139 185 232 268 318
#     4  10  21  36  56  81 103 133 183 229 269 325
#     4   9  17  33  56  84 111 139 182 233 274 316
#
# _framework density 18.759471000000001
#
# number of rings (size 3 to 8) (size 9 to 14) (size 15 to 20)
#    0.000    2.091    1.818    3.273    0.000    2.000 
#    3.273    0.909    0.000    5.455    0.000    5.091 
#    0.000    0.000    0.000    0.000    0.000    0.000 
#
# Total GULP energy -545219.109067 kJ/mol
# GULP energy per Si atom -12391.343388 kJ/mol
# Density = 1.871677 g / cm^3
# Si number density = 18.759471 Si / 1000 Ang^3
#
#
#
# Elastic Constant Matrix: (Units=GPa)
#
#
# Indices 1 2 3 4 5 6 
#
# 1 122.0760 50.6025 30.3307 0.0000 0.0000 0.0000
# 2 50.6025 150.7024 22.6625 0.0000 0.0000 0.0000
# 3 30.3307 22.6625 98.1257 0.0000 0.0000 0.0000
# 4 0.0000 0.0000 0.0000 16.4395 0.0000 0.0000
# 5 0.0000 0.0000 0.0000 0.0000 16.1174 0.0000
# 6 0.0000 0.0000 0.0000 0.0000 0.0000 11.4005
#
#
#
# Elastic Compliance Matrix: (Units=1/GPa)
#
#
# Indices 1 2 3 4 5 6 
#
# 1 0.010037 -0.003008 -0.002408 0.000000 0.000000 0.000000
# 2 -0.003008 0.007776 -0.000866 0.000000 0.000000 0.000000
# 3 -0.002408 -0.000866 0.011135 0.000000 0.000000 0.000000
# 4 0.000000 0.000000 0.000000 0.060829 0.000000 0.000000
# 5 0.000000 0.000000 0.000000 0.000000 0.062045 0.000000
# 6 0.000000 0.000000 0.000000 0.000000 0.000000 0.087716
#
#
# Mechanical properties :
#
#
# Convention : Reuss Voigt Hill
#
# Bulk Modulus (GPa) = 61.03406 64.23284 62.63345
# Shear Modulus (GPa) = 19.41280 26.61205 23.01242
#
# Velocity S-wave (km/s) = 3.22036 3.77051 3.50624
# Velocity P-wave (km/s) = 6.81420 7.29864 7.06058
#
# Compressibility (1/GPa) = 0.01638429
#
# Stress axis : x y z
#
# Youngs Moduli (GPa) = 99.63444 128.60308 89.80506
#
# Poissons Ratio (x) = 0.38684 0.21622
# Poissons Ratio (y) = 0.29970 0.07778
# Poissons Ratio (z) = 0.23988 0.11138
#
# Static dielectric constant tensor:
#      x y z
#    x 3.359630 0.000000 0.000000 
#    y 0.000000 3.708850 0.000000 
#    z 0.000000 0.000000 3.599830 
# 
# 
# High freq. dielectric constant tensor:
#      x y z
#    x 1.690730 0.000000 0.000000 
#    y 0.000000 1.741740 0.000000 
#    z 0.000000 0.000000 1.745650 
# 
# From -- ./inp_files/18410.got.cif
#   From: 2010.03.12/outbox.cif.g09.slc.cpg/sg65_10_cif.got.tgz:18410.got - 2010.04.10 20:52:16.
