data_PCOD8266841
_publ_section_title
;
Structure prediction by ZEFSAII (Michael W. Deem and Ramdas Pophale) SiO2 
 PCOD8266841
Probable space group: C M M M
;
_chemical_formula_sum "Si O2"
_cell_formula_units_Z 56
_cell_length_a 8.609591
_cell_length_b 23.505462
_cell_length_c 15.484144
_cell_angle_alpha 90.000000
_cell_angle_beta 90.000000
_cell_angle_gamma 90.000000
_cell_volume 3133.563601
_symmetry_space_group_name_H-M "C M M M"
_symmetry_group_IT_number 65
_symmetry_cell_setting 'orthorhombic'
loop_
_space_group_symop_operation_xyz
x,y,z
-x,-y,z
x,-y,-z
-x,y,-z
-x,-y,-z
x,y,-z
-x,y,z
x,-y,z
1/2+x,1/2+y,z
1/2-x,1/2-y,z
1/2+x,1/2-y,-z
1/2-x,1/2+y,-z
1/2-x,1/2-y,-z
1/2+x,1/2+y,-z
1/2-x,1/2+y,z
1/2+x,1/2-y,z
loop_
_atom_site_type_symbol
_atom_site_label
_atom_site_fract_x
_atom_site_fract_y
_atom_site_fract_z
Si Si1 0.315842 0.313027 0.500000
Si Si2 0.817099 0.812036 0.000000
Si Si3 0.182805 0.687269 0.324119
Si Si4 0.183899 0.879913 0.832858
Si Si5 0.316337 0.500000 0.902872
O O1 0.500000 0.314323 0.500000
O O2 0.250000 0.250000 0.500000
O O3 0.251728 0.341065 0.588065
O O4 0.750000 0.750000 0.000000
O O5 0.758749 0.844618 0.915494
O O6 0.000000 0.809101 0.000000
O O7 0.250000 0.750000 0.304705
O O8 0.225469 0.643748 0.249045
O O9 0.000000 0.693583 0.333114
O O10 0.000000 0.874289 0.817810
O O11 0.236199 0.944885 0.848825
O O12 0.500000 0.500000 0.913855
O O13 0.244240 0.500000 0.000000
#
# Coordination Sequence:
#
# PCOD8266841 Si02
#       5
#     8   8  16  16   8
#     4  10  18  32  54  79 106 137 172 212 258 314
#     4  10  20  31  47  71 103 136 171 212 259 308
#     4  11  21  34  52  78 110 142 174 213 262 316
#     4  10  19  33  53  77 103 137 178 221 262 310
#     4   9  16  32  57  78  99 134 183 227 264 306
#
# _framework density 17.871027999999999
#
# number of rings (size 3 to 8) (size 9 to 14) (size 15 to 20)
#    0.000    1.857    1.429    6.429    0.000    3.429 
#    0.000    0.714    0.000    1.714    0.000    6.000 
#    0.000    0.000    0.000    0.000    0.000    0.000 
#
# Total GULP energy -347159.301710 kJ/mol
# GULP energy per Si atom -12398.546490 kJ/mol
# Density = 1.783035 g / cm^3
# Si number density = 17.871028 Si / 1000 Ang^3
#
#
#
# Elastic Constant Matrix: (Units=GPa)
#
#
# Indices 1 2 3 4 5 6 
#
# 1 100.5046 35.4867 57.2022 0.0000 0.0000 0.0000
# 2 35.4867 126.2191 71.8538 0.0000 0.0000 0.0000
# 3 57.2022 71.8538 171.2183 0.0000 0.0000 0.0000
# 4 0.0000 0.0000 0.0000 -0.5812 0.0000 0.0000
# 5 0.0000 0.0000 0.0000 0.0000 28.7903 0.0000
# 6 0.0000 0.0000 0.0000 0.0000 0.0000 20.8190
#
#
#
# Elastic Compliance Matrix: (Units=1/GPa)
#
#
# Indices 1 2 3 4 5 6 
#
# 1 0.012497 -0.001494 -0.003548 0.000000 0.000000 0.000000
# 2 -0.001494 0.010588 -0.003944 0.000000 0.000000 0.000000
# 3 -0.003548 -0.003944 0.008681 0.000000 0.000000 0.000000
# 4 0.000000 0.000000 0.000000 -1.720716 0.000000 0.000000
# 5 0.000000 0.000000 0.000000 0.000000 0.034734 0.000000
# 6 0.000000 0.000000 0.000000 0.000000 0.000000 0.048033
#
#
# Mechanical properties :
#
#
# Convention : Reuss Voigt Hill
#
# Bulk Modulus (GPa) = 72.49738 80.78083 76.63910
# Shear Modulus (GPa) = -3.15734 25.36559 11.10413
#
# Velocity S-wave (km/s) = -1.33063 3.77154 2.49539
# Velocity P-wave (km/s) = 6.18824 8.01662 7.16102
#
# Compressibility (1/GPa) = 0.01379360
#
# Stress axis : x y z
#
# Youngs Moduli (GPa) = 80.02176 94.44529 115.19071
#
# Poissons Ratio (x) = 0.14106 0.40872
# Poissons Ratio (y) = 0.11951 0.45437
# Poissons Ratio (z) = 0.28393 0.37254
#
# Static dielectric constant tensor:
#      x y z
#    x 3.165980 0.000000 0.000000 
#    y 0.000000 3.199160 0.000000 
#    z 0.000000 0.000000 3.961560 
# 
# 
# High freq. dielectric constant tensor:
#      x y z
#    x 1.682560 0.000000 0.000000 
#    y 0.000000 1.667630 0.000000 
#    z 0.000000 0.000000 1.707080 
# 
# From -- ./inp_files/35565.got.cif
#   From: 2010.03.12/outbox.cif.g09.slc.cpg/sg65_18_cif.got.tgz:35565.got - 2010.04.10 20:52:16.
