data_PCOD8266492
_publ_section_title
;
Structure prediction by ZEFSAII (Michael W. Deem and Ramdas Pophale) SiO2 
 PCOD8266492
Probable space group: C M M M
;
_chemical_formula_sum "Si O2"
_cell_formula_units_Z 96
_cell_length_a 22.044566
_cell_length_b 24.134111
_cell_length_c 10.331221
_cell_angle_alpha 90.000000
_cell_angle_beta 90.000000
_cell_angle_gamma 90.000000
_cell_volume 5496.478213
_symmetry_space_group_name_H-M "C M M M"
_symmetry_group_IT_number 65
_symmetry_cell_setting 'orthorhombic'
loop_
_space_group_symop_operation_xyz
x,y,z
-x,-y,z
x,-y,-z
-x,y,-z
-x,-y,-z
x,y,-z
-x,y,z
x,-y,z
1/2+x,1/2+y,z
1/2-x,1/2-y,z
1/2+x,1/2-y,-z
1/2-x,1/2+y,-z
1/2-x,1/2-y,-z
1/2+x,1/2+y,-z
1/2-x,1/2+y,z
1/2+x,1/2-y,z
loop_
_atom_site_type_symbol
_atom_site_label
_atom_site_fract_x
_atom_site_fract_y
_atom_site_fract_z
Si Si1 0.071425 0.225288 0.149973
Si Si2 0.611954 0.635866 0.347334
Si Si3 0.565340 0.153198 0.853746
Si Si4 0.567754 0.934451 0.500000
Si Si5 0.726872 0.562066 0.648339
Si Si6 0.500000 0.561110 0.347722
Si Si7 0.642496 0.064197 0.253079
O O1 0.108747 0.187735 0.251296
O O2 0.086806 0.287382 0.202559
O O3 0.000000 0.213145 0.163803
O O4 0.092015 0.214569 0.000000
O O5 0.605907 0.652518 0.500000
O O6 0.675764 0.606356 0.319276
O O7 0.559673 0.593624 0.303922
O O8 0.500000 0.134018 0.792142
O O9 0.616040 0.105020 0.854840
O O10 0.551949 0.168643 0.000000
O O11 0.500000 0.908865 0.500000
O O12 0.605491 0.914144 0.622768
O O13 0.564502 0.000000 0.500000
O O14 0.747973 0.565977 0.500000
O O15 0.702239 0.500000 0.676818
O O16 0.785983 0.574252 0.734371
O O17 0.500000 0.500000 0.282939
O O18 0.500000 0.554112 0.500000
O O19 0.628624 0.000000 0.220449
#
# Coordination Sequence:
#
# PCOD8266492 Si02
#       7
#    16  16  16   8  16   8  16
#     4   9  18  35  55  72  99 139 172 207 265 320
#     4  10  18  30  52  79 104 131 174 219 251 295
#     4   9  19  35  53  73  97 129 172 213 254 310
#     4   9  16  26  44  70  97 123 155 195 246 302
#     4   9  17  31  50  73 104 142 172 197 246 314
#     4   9  16  26  45  77 109 129 156 211 266 298
#     4  10  18  31  50  72 102 133 164 204 252 304
#
# _framework density 17.465730000000001
#
# number of rings (size 3 to 8) (size 9 to 14) (size 15 to 20)
#    0.000    2.667    1.667    2.000    0.000    3.333 
#    1.500    2.500    0.000    7.500    0.000    0.000 
#    0.000    0.000    0.000    0.000    0.000    0.000 
#
# Total GULP energy -594745.810497 kJ/mol
# GULP energy per Si atom -12390.537719 kJ/mol
# Density = 1.742598 g / cm^3
# Si number density = 17.465730 Si / 1000 Ang^3
#
#
#
# Elastic Constant Matrix: (Units=GPa)
#
#
# Indices 1 2 3 4 5 6 
#
# 1 96.5338 65.1850 26.8408 0.0000 0.0000 0.0000
# 2 65.1850 123.8332 40.7497 0.0000 0.0000 0.0000
# 3 26.8408 40.7497 47.8833 0.0000 0.0000 0.0000
# 4 0.0000 0.0000 0.0000 27.4344 0.0000 0.0000
# 5 0.0000 0.0000 0.0000 0.0000 18.1630 0.0000
# 6 0.0000 0.0000 0.0000 0.0000 0.0000 31.4377
#
#
#
# Elastic Compliance Matrix: (Units=1/GPa)
#
#
# Indices 1 2 3 4 5 6 
#
# 1 0.016293 -0.007738 -0.002548 0.000000 0.000000 0.000000
# 2 -0.007738 0.014892 -0.008336 0.000000 0.000000 0.000000
# 3 -0.002548 -0.008336 0.029406 0.000000 0.000000 0.000000
# 4 0.000000 0.000000 0.000000 0.036451 0.000000 0.000000
# 5 0.000000 0.000000 0.000000 0.000000 0.055057 0.000000
# 6 0.000000 0.000000 0.000000 0.000000 0.000000 0.031809
#
#
# Mechanical properties :
#
#
# Convention : Reuss Voigt Hill
#
# Bulk Modulus (GPa) = 42.83058 59.31127 51.07093
# Shear Modulus (GPa) = 21.84064 24.43868 23.13966
#
# Velocity S-wave (km/s) = 3.54006 3.74469 3.64381
# Velocity P-wave (km/s) = 6.42536 7.26150 6.85619
#
# Compressibility (1/GPa) = 0.02334781
#
# Stress axis : x y z
#
# Youngs Moduli (GPa) = 61.37792 67.15221 34.00688
#
# Poissons Ratio (x) = 0.51962 0.08663
# Poissons Ratio (y) = 0.47494 0.28346
# Poissons Ratio (z) = 0.15636 0.55975
#
# Static dielectric constant tensor:
#      x y z
#    x 3.164080 0.000000 0.000000 
#    y 0.000000 3.189430 0.000000 
#    z 0.000000 0.000000 3.031310 
# 
# 
# High freq. dielectric constant tensor:
#      x y z
#    x 1.669500 0.000000 0.000000 
#    y 0.000000 1.670550 0.000000 
#    z 0.000000 0.000000 1.647450 
# 
# From -- ./inp_files/29054.got.cif
#   From: 2010.03.12/outbox.cif.g09.slc.cpg/sg65_15_cif.got.tgz:29054.got - 2010.04.10 20:52:16.
