data_PCOD8266333
_publ_section_title
;
Structure prediction by ZEFSAII (Michael W. Deem and Ramdas Pophale) SiO2 
 PCOD8266333
Probable space group: C M M M
;
_chemical_formula_sum "Si O2"
_cell_formula_units_Z 72
_cell_length_a 18.560637
_cell_length_b 8.586435
_cell_length_c 23.509196
_cell_angle_alpha 90.000000
_cell_angle_beta 90.000000
_cell_angle_gamma 90.000000
_cell_volume 3746.653588
_symmetry_space_group_name_H-M "C M M M"
_symmetry_group_IT_number 65
_symmetry_cell_setting 'orthorhombic'
loop_
_space_group_symop_operation_xyz
x,y,z
-x,-y,z
x,-y,-z
-x,y,-z
-x,-y,-z
x,y,-z
-x,y,z
x,-y,z
1/2+x,1/2+y,z
1/2-x,1/2-y,z
1/2+x,1/2-y,-z
1/2-x,1/2+y,-z
1/2-x,1/2-y,-z
1/2+x,1/2+y,-z
1/2-x,1/2+y,z
1/2+x,1/2-y,z
loop_
_atom_site_type_symbol
_atom_site_label
_atom_site_fract_x
_atom_site_fract_y
_atom_site_fract_z
Si Si1 0.670215 0.184763 0.615729
Si Si2 0.419232 0.814874 0.937038
Si Si3 0.080933 0.314874 0.276008
Si Si4 0.170749 0.685156 0.168400
Si Si5 0.169813 0.815337 0.500000
O O1 0.750000 0.250000 0.625150
O O2 0.620983 0.244249 0.667423
O O3 0.633355 0.250580 0.557741
O O4 0.674262 0.000000 0.612310
O O5 0.500000 0.753151 0.924500
O O6 0.364701 0.748621 0.889718
O O7 0.420077 0.000000 0.934328
O O8 0.394202 0.759262 0.000000
O O9 0.078715 0.500000 0.275060
O O10 0.123441 0.252339 0.221001
O O11 0.000000 0.246806 0.275114
O O12 0.173481 0.500000 0.168054
O O13 0.250000 0.750000 0.174835
O O14 0.250000 0.750000 0.500000
O O15 0.168897 0.000000 0.500000
#
# Coordination Sequence:
#
# PCOD8266333 Si02
#       5
#    16  16  16  16   8
#     4  10  18  30  50  73  97 123 155 195 236 280
#     4   8  14  26  46  71  96 125 164 204 237 274
#     4   9  18  32  50  71  93 122 162 202 237 277
#     4  10  19  31  49  72  98 126 158 199 243 285
#     4  10  18  30  49  72  99 127 157 191 229 278
#
# _framework density 19.217148999999999
#
# number of rings (size 3 to 8) (size 9 to 14) (size 15 to 20)
#    0.000    2.667    0.000    5.000    0.000    3.111 
#    0.000    1.667    0.000   11.333    0.000    1.556 
#    0.000    0.000    0.000    0.000    0.000    0.000 
#
# Total GULP energy -446255.892546 kJ/mol
# GULP energy per Si atom -12395.997015 kJ/mol
# Density = 1.917341 g / cm^3
# Si number density = 19.217149 Si / 1000 Ang^3
#
#
#
# Elastic Constant Matrix: (Units=GPa)
#
#
# Indices 1 2 3 4 5 6 
#
# 1 141.9615 18.7110 105.5307 0.0000 0.0000 0.0000
# 2 18.7110 45.8207 30.6549 0.0000 0.0000 0.0000
# 3 105.5307 30.6549 215.9496 0.0000 0.0000 0.0000
# 4 0.0000 0.0000 0.0000 13.4816 0.0000 0.0000
# 5 0.0000 0.0000 0.0000 0.0000 33.0793 0.0000
# 6 0.0000 0.0000 0.0000 0.0000 0.0000 20.8748
#
#
#
# Elastic Compliance Matrix: (Units=1/GPa)
#
#
# Indices 1 2 3 4 5 6 
#
# 1 0.011104 -0.000999 -0.005285 0.000000 0.000000 0.000000
# 2 -0.000999 0.024204 -0.002948 0.000000 0.000000 0.000000
# 3 -0.005285 -0.002948 0.007632 0.000000 0.000000 0.000000
# 4 0.000000 0.000000 0.000000 0.074175 0.000000 0.000000
# 5 0.000000 0.000000 0.000000 0.000000 0.030230 0.000000
# 6 0.000000 0.000000 0.000000 0.000000 0.000000 0.047905
#
#
# Mechanical properties :
#
#
# Convention : Reuss Voigt Hill
#
# Bulk Modulus (GPa) = 40.85378 79.28055 60.06716
# Shear Modulus (GPa) = 22.53549 30.07616 26.30583
#
# Velocity S-wave (km/s) = 3.42815 3.96039 3.70384
# Velocity P-wave (km/s) = 6.08069 7.89035 7.04388
#
# Compressibility (1/GPa) = 0.02447754
#
# Stress axis : x y z
#
# Youngs Moduli (GPa) = 90.05494 41.31515 131.03273
#
# Poissons Ratio (x) = 0.04127 0.69247
# Poissons Ratio (y) = 0.08996 0.38625
# Poissons Ratio (z) = 0.47591 0.12179
#
# Static dielectric constant tensor:
#      x y z
#    x 3.494710 0.000000 0.000000 
#    y 0.000000 3.057250 0.000000 
#    z 0.000000 0.000000 4.251410 
# 
# 
# High freq. dielectric constant tensor:
#      x y z
#    x 1.731680 0.000000 0.000000 
#    y 0.000000 1.703840 0.000000 
#    z 0.000000 0.000000 1.774020 
# 
# From -- ./inp_files/64311.got.cif
#   From: 2010.03.12/outbox.cif.g09.slc.cpg/sg65_33_cif.got.tgz:64311.got - 2010.04.10 20:52:16.
