data_PCOD8266076
_publ_section_title
;
Structure prediction by ZEFSAII (Michael W. Deem and Ramdas Pophale) SiO2 
 PCOD8266076
Probable space group: C M M M
;
_chemical_formula_sum "Si O2"
_cell_formula_units_Z 112
_cell_length_a 15.110024
_cell_length_b 18.815671
_cell_length_c 23.131780
_cell_angle_alpha 90.000000
_cell_angle_beta 90.000000
_cell_angle_gamma 90.000000
_cell_volume 6576.486273
_symmetry_space_group_name_H-M "C M M M"
_symmetry_group_IT_number 65
_symmetry_cell_setting 'orthorhombic'
loop_
_space_group_symop_operation_xyz
x,y,z
-x,-y,z
x,-y,-z
-x,y,-z
-x,-y,-z
x,y,-z
-x,y,z
x,-y,z
1/2+x,1/2+y,z
1/2-x,1/2-y,z
1/2+x,1/2-y,-z
1/2-x,1/2+y,-z
1/2-x,1/2-y,-z
1/2+x,1/2+y,-z
1/2-x,1/2+y,z
1/2+x,1/2-y,z
loop_
_atom_site_type_symbol
_atom_site_label
_atom_site_fract_x
_atom_site_fract_y
_atom_site_fract_z
Si Si1 0.259594 0.330728 0.431391
Si Si2 0.897398 0.845169 0.880967
Si Si3 0.398829 0.806156 0.932832
Si Si4 0.761341 0.578356 0.067369
Si Si5 0.902953 0.420545 0.568705
Si Si6 0.395690 0.578299 0.232774
Si Si7 0.396842 0.582541 0.361247
O O1 0.267492 0.336891 0.500000
O O2 0.250000 0.250000 0.410972
O O3 0.172521 0.369615 0.406365
O O4 0.346477 0.366720 0.405476
O O5 0.879324 0.762899 0.894147
O O6 0.837644 0.893432 0.922319
O O7 0.869051 0.862776 0.814838
O O8 0.000000 0.864789 0.892814
O O9 0.500000 0.831379 0.925745
O O10 0.335478 0.867807 0.907689
O O11 0.378162 0.788000 0.000000
O O12 0.773111 0.500000 0.095530
O O13 0.777700 0.572202 0.000000
O O14 0.900223 0.420120 0.500000
O O15 0.885046 0.500000 0.591755
O O16 0.000000 0.394326 0.589804
O O17 0.500000 0.572040 0.237602
O O18 0.358356 0.500000 0.215085
O O19 0.361191 0.599817 0.296418
O O20 0.500000 0.600397 0.367723
O O21 0.378926 0.500000 0.376236
#
# Coordination Sequence:
#
# PCOD8266076 Si02
#       7
#    16  16  16  16  16  16  16
#     4  10  20  31  44  67  99 128 151 181 225 275
#     4  10  18  29  48  71  94 120 150 188 237 288
#     4   9  18  32  48  66  91 124 160 196 232 272
#     4  10  20  31  44  66  96 127 158 193 232 276
#     4   8  14  26  44  63  83 112 151 187 213 245
#     4   8  15  29  48  69  93 121 153 189 229 276
#     4   9  18  33  52  72  94 121 154 193 234 275
#
# _framework density 17.030370000000001
#
# number of rings (size 3 to 8) (size 9 to 14) (size 15 to 20)
#    0.000    2.857    0.000    3.000    0.000    4.857 
#    0.000    5.714    0.000    0.000    0.000    1.000 
#    0.000    1.143    0.000    0.000    0.000    0.000 
#
# Total GULP energy -694107.276517 kJ/mol
# GULP energy per Si atom -12394.772795 kJ/mol
# Density = 1.699161 g / cm^3
# Si number density = 17.030370 Si / 1000 Ang^3
#
#
#
# Elastic Constant Matrix: (Units=GPa)
#
#
# Indices 1 2 3 4 5 6 
#
# 1 96.8800 75.0183 29.7914 0.0000 0.0000 0.0000
# 2 75.0183 133.3398 39.8824 0.0000 0.0000 0.0000
# 3 29.7914 39.8824 39.8099 0.0000 0.0000 0.0000
# 4 0.0000 0.0000 0.0000 14.3671 0.0000 0.0000
# 5 0.0000 0.0000 0.0000 0.0000 14.4965 0.0000
# 6 0.0000 0.0000 0.0000 0.0000 0.0000 24.5248
#
#
#
# Elastic Compliance Matrix: (Units=1/GPa)
#
#
# Indices 1 2 3 4 5 6 
#
# 1 0.018963 -0.009173 -0.005001 0.000000 0.000000 0.000000
# 2 -0.009173 0.015146 -0.008309 0.000000 0.000000 0.000000
# 3 -0.005001 -0.008309 0.037186 0.000000 0.000000 0.000000
# 4 0.000000 0.000000 0.000000 0.069603 0.000000 0.000000
# 5 0.000000 0.000000 0.000000 0.000000 0.068982 0.000000
# 6 0.000000 0.000000 0.000000 0.000000 0.000000 0.040775
#
#
# Mechanical properties :
#
#
# Convention : Reuss Voigt Hill
#
# Bulk Modulus (GPa) = 37.98118 62.15711 50.06914
# Shear Modulus (GPa) = 16.42594 19.03352 17.72973
#
# Velocity S-wave (km/s) = 3.10902 3.34671 3.23005
# Velocity P-wave (km/s) = 5.93620 7.17712 6.58595
#
# Compressibility (1/GPa) = 0.02632883
#
# Stress axis : x y z
#
# Youngs Moduli (GPa) = 52.73468 66.02605 26.89193
#
# Poissons Ratio (x) = 0.60565 0.13449
# Poissons Ratio (y) = 0.48373 0.22344
# Poissons Ratio (z) = 0.26373 0.54859
#
# Static dielectric constant tensor:
#      x y z
#    x 3.225030 0.000000 0.000000 
#    y 0.000000 3.397940 0.000000 
#    z 0.000000 0.000000 3.017140 
# 
# 
# High freq. dielectric constant tensor:
#      x y z
#    x 1.652920 0.000000 0.000000 
#    y 0.000000 1.657160 0.000000 
#    z 0.000000 0.000000 1.621890 
# 
# From -- ./inp_files/70045.got.cif
#   From: 2010.03.12/outbox.cif.g09.slc.cpg/sg65_36_cif.got.tgz:70045.got - 2010.04.10 20:52:16.
