data_PCOD8266951
_publ_section_title
;
Structure prediction by ZEFSAII (Michael W. Deem and Ramdas Pophale) SiO2 
 PCOD8266951
Probable space group: C M M M
;
_chemical_formula_sum "Si O2"
_cell_formula_units_Z 104
_cell_length_a 17.701129
_cell_length_b 27.731980
_cell_length_c 11.601516
_cell_angle_alpha 90.000000
_cell_angle_beta 90.000000
_cell_angle_gamma 90.000000
_cell_volume 5695.037508
_symmetry_space_group_name_H-M "C M M M"
_symmetry_group_IT_number 65
_symmetry_cell_setting 'orthorhombic'
loop_
_space_group_symop_operation_xyz
x,y,z
-x,-y,z
x,-y,-z
-x,y,-z
-x,-y,-z
x,y,-z
-x,y,z
x,-y,z
1/2+x,1/2+y,z
1/2-x,1/2-y,z
1/2+x,1/2-y,-z
1/2-x,1/2+y,-z
1/2-x,1/2-y,-z
1/2+x,1/2+y,-z
1/2-x,1/2+y,z
1/2+x,1/2-y,z
loop_
_atom_site_type_symbol
_atom_site_label
_atom_site_fract_x
_atom_site_fract_y
_atom_site_fract_z
Si Si1 0.588265 0.285256 0.367439
Si Si2 0.411187 0.807957 0.238720
Si Si3 0.724788 0.053734 0.248051
Si Si4 0.500000 0.445515 0.637183
Si Si5 0.854314 0.110829 0.364682
Si Si6 0.413153 0.903778 0.365550
Si Si7 0.828253 0.445895 0.000000
Si Si8 0.410740 0.848241 0.000000
O O1 0.600696 0.270210 0.500000
O O2 0.500000 0.295691 0.345413
O O3 0.621126 0.242616 0.286620
O O4 0.634950 0.332990 0.336356
O O5 0.500000 0.801983 0.227032
O O6 0.391797 0.849327 0.330669
O O7 0.376739 0.821840 0.113480
O O8 0.778875 0.093471 0.302716
O O9 0.639590 0.059684 0.295537
O O10 0.752650 0.000000 0.281216
O O11 0.725187 0.060645 0.110781
O O12 0.500000 0.500000 0.683593
O O13 0.500000 0.443250 0.500000
O O14 0.425660 0.418832 0.684520
O O15 0.845183 0.101828 0.500000
O O16 0.398031 0.910244 0.500000
O O17 0.500000 0.915507 0.333322
O O18 0.892368 0.405044 0.000000
O O19 0.864770 0.500000 0.000000
O O20 0.500000 0.844352 0.000000
#
# Coordination Sequence:
#
# PCOD8266951 Si02
#       8
#    16  16  16   8  16  16   8   8
#     4   9  16  30  53  81 113 146 179 217 268 333
#     4   9  17  30  52  79 108 142 178 222 271 320
#     4  11  23  38  56  77 107 146 186 231 280 327
#     4   9  16  28  50  81 113 141 175 222 275 332
#     4  10  19  33  54  83 114 144 180 224 277 335
#     4  10  20  34  53  79 110 144 181 219 270 336
#     4  10  22  39  57  74  99 145 194 232 277 326
#     4  10  18  33  57  83 106 136 187 243 280 319
#
# _framework density 18.261513000000001
#
# number of rings (size 3 to 8) (size 9 to 14) (size 15 to 20)
#    0.000    2.231    2.308    1.385    0.000    4.154 
#    0.000    3.846    0.000    4.154    0.000    2.154 
#    0.000    0.000    0.000    0.000    0.000    0.000 
#
# Total GULP energy -644745.513864 kJ/mol
# GULP energy per Si atom -12398.952190 kJ/mol
# Density = 1.821995 g / cm^3
# Si number density = 18.261513 Si / 1000 Ang^3
#
#
#
# Elastic Constant Matrix: (Units=GPa)
#
#
# Indices 1 2 3 4 5 6 
#
# 1 62.6505 36.0702 34.4799 0.0000 0.0000 0.0000
# 2 36.0702 125.4005 59.0571 0.0000 0.0000 0.0000
# 3 34.4799 59.0571 95.9642 0.0000 0.0000 0.0000
# 4 0.0000 0.0000 0.0000 29.7411 0.0000 0.0000
# 5 0.0000 0.0000 0.0000 0.0000 15.4405 0.0000
# 6 0.0000 0.0000 0.0000 0.0000 0.0000 28.2872
#
#
#
# Elastic Compliance Matrix: (Units=1/GPa)
#
#
# Indices 1 2 3 4 5 6 
#
# 1 0.020927 -0.003490 -0.005371 0.000000 0.000000 0.000000
# 2 -0.003490 0.011811 -0.006015 0.000000 0.000000 0.000000
# 3 -0.005371 -0.006015 0.016052 0.000000 0.000000 0.000000
# 4 0.000000 0.000000 0.000000 0.033624 0.000000 0.000000
# 5 0.000000 0.000000 0.000000 0.000000 0.064765 0.000000
# 6 0.000000 0.000000 0.000000 0.000000 0.000000 0.035352
#
#
# Mechanical properties :
#
#
# Convention : Reuss Voigt Hill
#
# Bulk Modulus (GPa) = 52.52617 60.35884 56.44251
# Shear Modulus (GPa) = 22.86999 24.98763 23.92881
#
# Velocity S-wave (km/s) = 3.54271 3.70310 3.62379
# Velocity P-wave (km/s) = 6.74983 7.16995 6.96306
#
# Compressibility (1/GPa) = 0.01903813
#
# Stress axis : x y z
#
# Youngs Moduli (GPa) = 47.78534 84.66829 62.29779
#
# Poissons Ratio (x) = 0.29547 0.33463
# Poissons Ratio (y) = 0.16676 0.37470
# Poissons Ratio (z) = 0.25668 0.50925
#
# Static dielectric constant tensor:
#      x y z
#    x 3.083230 0.000000 0.000000 
#    y 0.000000 3.497700 0.000000 
#    z 0.000000 0.000000 3.460720 
# 
# 
# High freq. dielectric constant tensor:
#      x y z
#    x 1.678720 0.000000 0.000000 
#    y 0.000000 1.717280 0.000000 
#    z 0.000000 0.000000 1.695990 
# 
# From -- ./inp_files/27523.got.cif
#   From: 2010.03.12/outbox.cif.g09.slc.cpg/sg65_14_cif.got.tgz:27523.got - 2010.04.10 20:52:16.
