data_PCOD8266692
_publ_section_title
;
Structure prediction by ZEFSAII (Michael W. Deem and Ramdas Pophale) SiO2 
 PCOD8266692
Probable space group: C M M M
;
_chemical_formula_sum "Si O2"
_cell_formula_units_Z 72
_cell_length_a 19.211475
_cell_length_b 22.897431
_cell_length_c 8.830435
_cell_angle_alpha 90.000000
_cell_angle_beta 90.000000
_cell_angle_gamma 90.000000
_cell_volume 3884.450281
_symmetry_space_group_name_H-M "C M M M"
_symmetry_group_IT_number 65
_symmetry_cell_setting 'orthorhombic'
loop_
_space_group_symop_operation_xyz
x,y,z
-x,-y,z
x,-y,-z
-x,y,-z
-x,-y,-z
x,y,-z
-x,y,z
x,-y,z
1/2+x,1/2+y,z
1/2-x,1/2-y,z
1/2+x,1/2-y,-z
1/2-x,1/2+y,-z
1/2-x,1/2-y,-z
1/2+x,1/2+y,-z
1/2-x,1/2+y,z
1/2+x,1/2-y,z
loop_
_atom_site_type_symbol
_atom_site_label
_atom_site_fract_x
_atom_site_fract_y
_atom_site_fract_z
Si Si1 0.824723 0.230523 0.320190
Si Si2 0.580560 0.500000 0.822388
Si Si3 0.824115 0.435078 0.679922
Si Si4 0.578123 0.833043 0.680767
Si Si5 0.328903 0.401154 0.679583
O O1 0.820414 0.233499 0.500000
O O2 0.750000 0.250000 0.253113
O O3 0.883963 0.274500 0.259858
O O4 0.843776 0.165182 0.268229
O O5 0.500000 0.500000 0.778046
O O6 0.613687 0.558248 0.754297
O O7 0.592763 0.500000 0.000000
O O8 0.823567 0.431680 0.500000
O O9 0.844409 0.500000 0.735948
O O10 0.880522 0.389417 0.744326
O O11 0.747388 0.419097 0.739439
O O12 0.577100 0.834078 0.500000
O O13 0.500000 0.834266 0.746330
O O14 0.333630 0.408534 0.500000
#
# Coordination Sequence:
#
# PCOD8266692 Si02
#       5
#    16   8  16  16  16
#     4   9  15  25  44  71 102 135 166 204 254 299
#     4  11  25  41  53  71 104 137 164 210 273 315
#     4   9  15  24  41  66  94 127 165 201 240 286
#     4   9  16  24  35  60 101 137 161 195 248 300
#     4  10  18  31  55  79  98 129 173 212 247 300
#
# _framework density 18.535440999999999
#
# number of rings (size 3 to 8) (size 9 to 14) (size 15 to 20)
#    0.000    2.556    3.333    0.333    0.000    2.222 
#    0.000    4.444    0.000    0.667    0.000    0.000 
#    0.000    1.778    0.000    0.000    0.000    0.000 
#
# Total GULP energy -446305.617698 kJ/mol
# GULP energy per Si atom -12397.378269 kJ/mol
# Density = 1.849325 g / cm^3
# Si number density = 18.535441 Si / 1000 Ang^3
#
#
#
# Elastic Constant Matrix: (Units=GPa)
#
#
# Indices 1 2 3 4 5 6 
#
# 1 173.5686 109.4331 24.9881 0.0000 0.0000 0.0000
# 2 109.4331 209.9577 21.1325 0.0000 0.0000 0.0000
# 3 24.9881 21.1325 14.8274 0.0000 0.0000 0.0000
# 4 0.0000 0.0000 0.0000 1.0464 0.0000 0.0000
# 5 0.0000 0.0000 0.0000 0.0000 6.6019 0.0000
# 6 0.0000 0.0000 0.0000 0.0000 0.0000 38.0782
#
#
#
# Elastic Compliance Matrix: (Units=1/GPa)
#
#
# Indices 1 2 3 4 5 6 
#
# 1 0.009886 -0.004058 -0.010877 0.000000 0.000000 0.000000
# 2 -0.004058 0.007226 -0.003460 0.000000 0.000000 0.000000
# 3 -0.010877 -0.003460 0.090705 0.000000 0.000000 0.000000
# 4 0.000000 0.000000 0.000000 0.955644 0.000000 0.000000
# 5 0.000000 0.000000 0.000000 0.000000 0.151471 0.000000
# 6 0.000000 0.000000 0.000000 0.000000 0.000000 0.026262
#
#
# Mechanical properties :
#
#
# Convention : Reuss Voigt Hill
#
# Bulk Modulus (GPa) = 14.07918 78.82901 46.45409
# Shear Modulus (GPa) = 3.84125 25.33198 14.58662
#
# Velocity S-wave (km/s) = 1.44114 3.70087 2.80832
# Velocity P-wave (km/s) = 3.22203 7.80276 5.96928
#
# Compressibility (1/GPa) = 0.07102686
#
# Stress axis : x y z
#
# Youngs Moduli (GPa) = 101.15601 138.38610 11.02475
#
# Poissons Ratio (x) = 0.56155 0.11991
# Poissons Ratio (y) = 0.41047 0.03815
# Poissons Ratio (z) = 1.10025 0.47888
#
# Static dielectric constant tensor:
#      x y z
#    x 3.563310 0.000000 0.000000 
#    y 0.000000 3.745430 0.000000 
#    z 0.000000 0.000000 2.635850 
# 
# 
# High freq. dielectric constant tensor:
#      x y z
#    x 1.722310 0.000000 0.000000 
#    y 0.000000 1.741600 0.000000 
#    z 0.000000 0.000000 1.637390 
# 
# From -- ./inp_files/9260.got.cif
#   From: 2010.03.12/outbox.cif.g09.slc.cpg/sg65_5_cif.got.tgz:9260.got - 2010.04.10 20:52:16.
