data_PCOD8266341
_publ_section_title
;
Structure prediction by ZEFSAII (Michael W. Deem and Ramdas Pophale) SiO2 
 PCOD8266341
Probable space group: C M M M
;
_chemical_formula_sum "Si O2"
_cell_formula_units_Z 128
_cell_length_a 17.985108
_cell_length_b 17.604834
_cell_length_c 22.869091
_cell_angle_alpha 90.000000
_cell_angle_beta 90.000000
_cell_angle_gamma 90.000000
_cell_volume 7240.922297
_symmetry_space_group_name_H-M "C M M M"
_symmetry_group_IT_number 65
_symmetry_cell_setting 'orthorhombic'
loop_
_space_group_symop_operation_xyz
x,y,z
-x,-y,z
x,-y,-z
-x,y,-z
-x,-y,-z
x,y,-z
-x,y,z
x,-y,z
1/2+x,1/2+y,z
1/2-x,1/2-y,z
1/2+x,1/2-y,-z
1/2-x,1/2+y,-z
1/2-x,1/2-y,-z
1/2+x,1/2+y,-z
1/2-x,1/2+y,z
1/2+x,1/2-y,z
loop_
_atom_site_type_symbol
_atom_site_label
_atom_site_fract_x
_atom_site_fract_y
_atom_site_fract_z
Si Si1 0.585633 0.412688 0.596227
Si Si2 0.164785 0.762682 0.565908
Si Si3 0.315843 0.190222 0.147636
Si Si4 0.306582 0.914059 0.740511
Si Si5 0.415475 0.912343 0.931179
Si Si6 0.417365 0.287346 0.780864
Si Si7 0.644911 0.417186 0.279347
Si Si8 0.415819 0.182566 0.329520
O O1 0.500000 0.396992 0.578180
O O2 0.607929 0.500000 0.579250
O O3 0.640050 0.351685 0.565816
O O4 0.592616 0.400352 0.665513
O O5 0.154134 0.731847 0.500000
O O6 0.250000 0.750000 0.585632
O O7 0.114714 0.712626 0.608935
O O8 0.250000 0.250000 0.129407
O O9 0.293463 0.137750 0.202410
O O10 0.348578 0.138448 0.095623
O O11 0.386360 0.238916 0.166426
O O12 0.231243 0.908796 0.702436
O O13 0.371137 0.888554 0.696521
O O14 0.324092 0.000000 0.760911
O O15 0.500000 0.890386 0.910057
O O16 0.400600 0.000000 0.914075
O O17 0.410453 0.900832 0.000000
O O18 0.500000 0.306916 0.798505
O O19 0.372045 0.364720 0.775837
O O20 0.410255 0.248993 0.717567
O O21 0.628619 0.500000 0.254526
O O22 0.500000 0.155412 0.339222
#
# Coordination Sequence:
#
# PCOD8266341 Si02
#       8
#    16  16  16  16  16  16  16  16
#     4  10  20  34  55  81 105 131 168 217 268 319
#     4  11  23  37  54  74 101 137 174 216 268 328
#     4  11  20  32  52  82 115 146 173 219 270 323
#     4  10  21  35  53  77 107 141 174 213 260 314
#     4   9  19  37  59  80 106 146 194 239 278 315
#     4  10  19  31  48  75 105 138 173 209 255 312
#     4  10  18  30  49  73 101 139 173 203 252 313
#     4  10  21  34  53  76 100 132 171 216 266 320
#
# _framework density 17.677306999999999
#
# number of rings (size 3 to 8) (size 9 to 14) (size 15 to 20)
#    0.000    1.875    2.500    2.625    0.000    3.000 
#    0.000    0.625    0.000    1.125    0.000    0.875 
#    0.000    0.000    0.000    8.250    0.000    0.000 
#
# Total GULP energy -793120.125783 kJ/mol
# GULP energy per Si atom -12392.501965 kJ/mol
# Density = 1.763707 g / cm^3
# Si number density = 17.677307 Si / 1000 Ang^3
#
#
#
# Elastic Constant Matrix: (Units=GPa)
#
#
# Indices 1 2 3 4 5 6 
#
# 1 119.0378 56.3662 32.2129 0.0000 0.0000 0.0000
# 2 56.3662 95.8612 28.6677 0.0000 0.0000 0.0000
# 3 32.2129 28.6677 58.6825 0.0000 0.0000 0.0000
# 4 0.0000 0.0000 0.0000 26.7154 0.0000 0.0000
# 5 0.0000 0.0000 0.0000 0.0000 20.8866 0.0000
# 6 0.0000 0.0000 0.0000 0.0000 0.0000 31.4253
#
#
#
# Elastic Compliance Matrix: (Units=1/GPa)
#
#
# Indices 1 2 3 4 5 6 
#
# 1 0.012317 -0.006114 -0.003775 0.000000 0.000000 0.000000
# 2 -0.006114 0.015251 -0.004094 0.000000 0.000000 0.000000
# 3 -0.003775 -0.004094 0.021113 0.000000 0.000000 0.000000
# 4 0.000000 0.000000 0.000000 0.037432 0.000000 0.000000
# 5 0.000000 0.000000 0.000000 0.000000 0.047878 0.000000
# 6 0.000000 0.000000 0.000000 0.000000 0.000000 0.031821
#
#
# Mechanical properties :
#
#
# Convention : Reuss Voigt Hill
#
# Bulk Modulus (GPa) = 48.27243 56.45279 52.36261
# Shear Modulus (GPa) = 24.91500 26.22778 25.57139
#
# Velocity S-wave (km/s) = 3.75832 3.85606 3.80750
# Velocity P-wave (km/s) = 6.79707 7.19931 7.00108
#
# Compressibility (1/GPa) = 0.02071576
#
# Stress axis : x y z
#
# Youngs Moduli (GPa) = 81.18856 65.56961 47.36388
#
# Poissons Ratio (x) = 0.40086 0.17878
# Poissons Ratio (y) = 0.49635 0.19393
# Poissons Ratio (z) = 0.30646 0.26847
#
# Static dielectric constant tensor:
#      x y z
#    x 3.443960 0.000000 0.000000 
#    y 0.000000 3.494810 0.000000 
#    z 0.000000 0.000000 2.955590 
# 
# 
# High freq. dielectric constant tensor:
#      x y z
#    x 1.693460 0.000000 0.000000 
#    y 0.000000 1.686550 0.000000 
#    z 0.000000 0.000000 1.651900 
# 
# From -- ./inp_files/70668.got.cif
#   From: 2010.03.12/outbox.cif.g09.slc.cpg/sg65_36_cif.got.tgz:70668.got - 2010.04.10 20:52:16.
