data_PCOD8266802
_publ_section_title
;
Structure prediction by ZEFSAII (Michael W. Deem and Ramdas Pophale) SiO2 
 PCOD8266802
Probable space group: C M M M
;
_chemical_formula_sum "Si O2"
_cell_formula_units_Z 88
_cell_length_a 19.330706
_cell_length_b 8.741834
_cell_length_c 28.195036
_cell_angle_alpha 90.000000
_cell_angle_beta 90.000000
_cell_angle_gamma 90.000000
_cell_volume 4764.561362
_symmetry_space_group_name_H-M "C M M M"
_symmetry_group_IT_number 65
_symmetry_cell_setting 'orthorhombic'
loop_
_space_group_symop_operation_xyz
x,y,z
-x,-y,z
x,-y,-z
-x,y,-z
-x,-y,-z
x,y,-z
-x,y,z
x,-y,z
1/2+x,1/2+y,z
1/2-x,1/2-y,z
1/2+x,1/2-y,-z
1/2-x,1/2+y,-z
1/2-x,1/2-y,-z
1/2+x,1/2+y,-z
1/2-x,1/2+y,z
1/2+x,1/2-y,z
loop_
_atom_site_type_symbol
_atom_site_label
_atom_site_fract_x
_atom_site_fract_y
_atom_site_fract_z
Si Si1 0.173515 0.181900 0.500000
Si Si2 0.325369 0.178682 0.855255
Si Si3 0.920381 0.175622 0.779610
Si Si4 0.674913 0.179416 0.594975
Si Si5 0.174436 0.179302 0.948691
Si Si6 0.920072 0.824697 0.670231
O O1 0.250000 0.250000 0.500000
O O2 0.138646 0.245349 0.451771
O O3 0.172751 0.000000 0.500000
O O4 0.250000 0.250000 0.847253
O O5 0.373132 0.214305 0.810601
O O6 0.362839 0.244096 0.903237
O O7 0.316357 0.000000 0.860751
O O8 0.902513 0.206629 0.724932
O O9 0.000000 0.215094 0.789798
O O10 0.904861 0.000000 0.792722
O O11 0.750000 0.250000 0.604993
O O12 0.626157 0.211030 0.639537
O O13 0.683304 0.000000 0.586908
O O14 0.250000 0.250000 0.950594
O O15 0.179809 0.000000 0.939588
O O16 0.137557 0.212087 0.000000
O O17 0.000000 0.789051 0.659956
O O18 0.902910 0.000000 0.657115
#
# Coordination Sequence:
#
# PCOD8266802 Si02
#       6
#     8  16  16  16  16  16
#     4  10  18  32  53  76 105 138 173 211 253 303
#     4  11  21  32  50  76 106 136 169 212 255 299
#     4   9  19  37  58  76  99 134 172 210 256 311
#     4  11  21  34  54  80 109 139 173 212 254 301
#     4   9  16  27  45  69  98 131 166 205 251 302
#     4   9  19  37  58  78 102 134 171 211 258 309
#
# _framework density 18.469695999999999
#
# number of rings (size 3 to 8) (size 9 to 14) (size 15 to 20)
#    0.000    2.182    0.000    7.909    0.000    3.273 
#    0.000    2.273    0.000    3.273    0.000    3.818 
#    0.000    0.000    0.000    0.000    0.000    0.000 
#
# Total GULP energy -545409.845547 kJ/mol
# GULP energy per Si atom -12395.678308 kJ/mol
# Density = 1.842766 g / cm^3
# Si number density = 18.469696 Si / 1000 Ang^3
#
#
#
# Elastic Constant Matrix: (Units=GPa)
#
#
# Indices 1 2 3 4 5 6 
#
# 1 51.9256 37.4000 52.9563 0.0000 0.0000 0.0000
# 2 37.4000 143.9382 62.7486 0.0000 0.0000 0.0000
# 3 52.9563 62.7486 129.6619 0.0000 0.0000 0.0000
# 4 0.0000 0.0000 0.0000 36.0209 0.0000 0.0000
# 5 0.0000 0.0000 0.0000 0.0000 -3.4567 0.0000
# 6 0.0000 0.0000 0.0000 0.0000 0.0000 24.5984
#
#
#
# Elastic Compliance Matrix: (Units=1/GPa)
#
#
# Indices 1 2 3 4 5 6 
#
# 1 0.034392 -0.003565 -0.012321 0.000000 0.000000 0.000000
# 2 -0.003565 0.009175 -0.002984 0.000000 0.000000 0.000000
# 3 -0.012321 -0.002984 0.014189 0.000000 0.000000 0.000000
# 4 0.000000 0.000000 0.000000 0.027762 0.000000 0.000000
# 5 0.000000 0.000000 0.000000 0.000000 -0.289294 0.000000
# 6 0.000000 0.000000 0.000000 0.000000 0.000000 0.040653
#
#
# Mechanical properties :
#
#
# Convention : Reuss Voigt Hill
#
# Bulk Modulus (GPa) = 49.96250 70.19283 60.07767
# Shear Modulus (GPa) = -42.11823 22.92724 -9.59550
#
# Velocity S-wave (km/s) = -4.78053 3.52709 -2.28179
# Velocity P-wave (km/s) = 1.83344 7.39419 5.06520
#
# Compressibility (1/GPa) = 0.02001501
#
# Stress axis : x y z
#
# Youngs Moduli (GPa) = 29.07694 108.99734 70.47942
#
# Poissons Ratio (x) = 0.38856 0.86837
# Poissons Ratio (y) = 0.10366 0.21031
# Poissons Ratio (z) = 0.35826 0.32524
#
# Static dielectric constant tensor:
#      x y z
#    x 2.967520 0.000000 0.000000 
#    y 0.000000 3.405560 0.000000 
#    z 0.000000 0.000000 4.073880 
# 
# 
# High freq. dielectric constant tensor:
#      x y z
#    x 1.669930 0.000000 0.000000 
#    y 0.000000 1.725800 0.000000 
#    z 0.000000 0.000000 1.739280 
# 
# From -- ./inp_files/71018.got.cif
#   From: 2010.03.12/outbox.cif.g09.slc.cpg/sg65_36_cif.got.tgz:71018.got - 2010.04.10 20:52:16.
