data_PCOD8266366
_publ_section_title
;
Structure prediction by ZEFSAII (Michael W. Deem and Ramdas Pophale) SiO2 
 PCOD8266366
Probable space group: C M M M
;
_chemical_formula_sum "Si O2"
_cell_formula_units_Z 60
_cell_length_a 14.298031
_cell_length_b 36.970552
_cell_length_c 7.613748
_cell_angle_alpha 90.000000
_cell_angle_beta 90.000000
_cell_angle_gamma 90.000000
_cell_volume 4024.673626
_symmetry_space_group_name_H-M "C M M M"
_symmetry_group_IT_number 65
_symmetry_cell_setting 'orthorhombic'
loop_
_space_group_symop_operation_xyz
x,y,z
-x,-y,z
x,-y,-z
-x,y,-z
-x,-y,-z
x,y,-z
-x,y,z
x,-y,z
1/2+x,1/2+y,z
1/2-x,1/2-y,z
1/2+x,1/2-y,-z
1/2-x,1/2+y,-z
1/2-x,1/2-y,-z
1/2+x,1/2+y,-z
1/2-x,1/2+y,z
1/2+x,1/2-y,z
loop_
_atom_site_type_symbol
_atom_site_label
_atom_site_fract_x
_atom_site_fract_y
_atom_site_fract_z
Si Si1 0.500000 0.286786 0.699403
Si Si2 0.000000 0.730111 0.000000
Si Si3 0.610639 0.540124 0.000000
Si Si4 0.793180 0.709424 0.000000
Si Si5 0.186689 0.170464 0.700677
Si Si6 0.108349 0.906574 0.299859
O O1 0.500000 0.272750 0.500000
O O2 0.500000 0.252596 0.822551
O O3 0.411055 0.310861 0.741715
O O4 0.905236 0.707102 0.000000
O O5 0.643678 0.561346 0.825957
O O6 0.655868 0.500000 0.000000
O O7 0.500000 0.536606 0.000000
O O8 0.750000 0.750000 0.000000
O O9 0.763466 0.687858 0.826320
O O10 0.218320 0.177032 0.500000
O O11 0.173051 0.128049 0.738927
O O12 0.120644 0.919679 0.500000
O O13 0.000000 0.896486 0.262841
#
# Coordination Sequence:
#
# PCOD8266366 Si02
#       6
#     8   4   8   8  16  16
#     4  10  18  30  50  68  86 108 145 193 228 262
#     4  12  24  36  42  66  90 114 146 180 236 282
#     4   9  17  25  35  57  89 123 153 177 208 252
#     4  12  23  33  48  64  88 117 146 186 230 278
#     4  10  19  32  49  69  86 111 151 193 230 260
#     4   9  16  27  44  63  84 112 148 188 220 249
#
# _framework density 14.908041000000001
#
# number of rings (size 3 to 8) (size 9 to 14) (size 15 to 20)
#    0.000    2.000    4.000    0.800    0.000    2.133 
#    0.000    2.667    0.000    0.000    0.000    0.000 
#    0.000    0.000    0.000    9.600    0.000   38.400 
#
# Total GULP energy -371952.424540 kJ/mol
# GULP energy per Si atom -12398.414151 kJ/mol
# Density = 1.487411 g / cm^3
# Si number density = 14.908041 Si / 1000 Ang^3
#
#
#
# Elastic Constant Matrix: (Units=GPa)
#
#
# Indices 1 2 3 4 5 6 
#
# 1 75.5833 39.6275 43.7193 0.0000 0.0000 0.0000
# 2 39.6275 105.6763 71.3013 0.0000 0.0000 0.0000
# 3 43.7193 71.3013 113.8975 0.0000 0.0000 0.0000
# 4 0.0000 0.0000 0.0000 190.1466 0.0000 0.0000
# 5 0.0000 0.0000 0.0000 0.0000 20.7319 0.0000
# 6 0.0000 0.0000 0.0000 0.0000 0.0000 20.3657
#
#
#
# Elastic Compliance Matrix: (Units=1/GPa)
#
#
# Indices 1 2 3 4 5 6 
#
# 1 0.017749 -0.003565 -0.004582 0.000000 0.000000 0.000000
# 2 -0.003565 0.017098 -0.009336 0.000000 0.000000 0.000000
# 3 -0.004582 -0.009336 0.016383 0.000000 0.000000 0.000000
# 4 0.000000 0.000000 0.000000 0.005259 0.000000 0.000000
# 5 0.000000 0.000000 0.000000 0.000000 0.048235 0.000000
# 6 0.000000 0.000000 0.000000 0.000000 0.000000 0.049102
#
#
# Mechanical properties :
#
#
# Convention : Reuss Voigt Hill
#
# Bulk Modulus (GPa) = 61.47424 67.16146 64.31785
# Shear Modulus (GPa) = 25.74503 55.61611 40.68057
#
# Velocity S-wave (km/s) = 4.16013 6.11450 5.22943
# Velocity P-wave (km/s) = 8.02501 9.74668 8.92744
#
# Compressibility (1/GPa) = 0.01626698
#
# Stress axis : x y z
#
# Youngs Moduli (GPa) = 56.33989 58.48523 61.04030
#
# Poissons Ratio (x) = 0.20847 0.27966
# Poissons Ratio (y) = 0.20083 0.56984
# Poissons Ratio (z) = 0.25813 0.54599
#
# Static dielectric constant tensor:
#      x y z
#    x 2.553830 0.000000 0.000000 
#    y 0.000000 2.934700 0.000000 
#    z 0.000000 0.000000 2.717410 
# 
# 
# High freq. dielectric constant tensor:
#      x y z
#    x 1.516750 0.000000 0.000000 
#    y 0.000000 1.559650 0.000000 
#    z 0.000000 0.000000 1.593500 
# 
# From -- ./inp_files/4807.got.cif
#   From: 2010.03.12/outbox.cif.g09.slc.cpg/sg65_3_cif.got.tgz:4807.got - 2010.04.10 20:52:16.
