data_PCOD8266178
_publ_section_title
;
Structure prediction by ZEFSAII (Michael W. Deem and Ramdas Pophale) SiO2 
 PCOD8266178
Probable space group: C M M M
;
_chemical_formula_sum "Si O2"
_cell_formula_units_Z 80
_cell_length_a 9.302220
_cell_length_b 28.414367
_cell_length_c 20.854584
_cell_angle_alpha 90.000000
_cell_angle_beta 90.000000
_cell_angle_gamma 90.000000
_cell_volume 5512.214677
_symmetry_space_group_name_H-M "C M M M"
_symmetry_group_IT_number 65
_symmetry_cell_setting 'orthorhombic'
loop_
_space_group_symop_operation_xyz
x,y,z
-x,-y,z
x,-y,-z
-x,y,-z
-x,-y,-z
x,y,-z
-x,y,z
x,-y,z
1/2+x,1/2+y,z
1/2-x,1/2-y,z
1/2+x,1/2-y,-z
1/2-x,1/2+y,-z
1/2-x,1/2-y,-z
1/2+x,1/2+y,-z
1/2-x,1/2+y,z
1/2+x,1/2-y,z
loop_
_atom_site_type_symbol
_atom_site_label
_atom_site_fract_x
_atom_site_fract_y
_atom_site_fract_z
Si Si1 0.166461 0.204790 0.926849
Si Si2 0.831079 0.894894 0.126346
Si Si3 0.670811 0.552821 0.000000
Si Si4 0.331308 0.054794 0.239498
Si Si5 0.670537 0.448529 0.500000
Si Si6 0.839059 0.056069 0.362829
O O1 0.250000 0.250000 0.899738
O O2 0.201579 0.160340 0.882017
O O3 0.000000 0.217226 0.924293
O O4 0.212985 0.193221 0.000000
O O5 0.743619 0.913812 0.186171
O O6 0.000000 0.904525 0.136775
O O7 0.772410 0.921337 0.063317
O O8 0.731390 0.500000 0.000000
O O9 0.500000 0.554206 0.000000
O O10 0.500000 0.064024 0.238293
O O11 0.270821 0.072228 0.307938
O O12 0.294127 0.000000 0.227517
O O13 0.743906 0.500000 0.500000
O O14 0.500000 0.454248 0.500000
O O15 0.712986 0.422847 0.432526
O O16 0.000000 0.074018 0.345566
O O17 0.841069 0.000000 0.369130
#
# Coordination Sequence:
#
# PCOD8266178 Si02
#       6
#    16  16   8  16   8  16
#     4   9  17  30  47  66  84  99 123 163 209 257
#     4  10  18  30  46  62  78 102 138 174 205 243
#     4   9  16  26  42  61  77  97 133 177 208 229
#     4  10  20  30  38  54  83 114 142 172 206 245
#     4   7  10  18  35  57  75  93 128 175 208 231
#     4   8  13  23  39  56  74 101 137 172 204 238
#
# _framework density 14.513223
#
# number of rings (size 3 to 8) (size 9 to 14) (size 15 to 20)
#    0.000    3.000    1.000    2.400    0.000    2.800 
#    0.000    1.000    0.000    4.800    0.000    0.000 
#    0.000    0.000    0.000    0.900    0.000   10.700 
#
# Total GULP energy -495685.506523 kJ/mol
# GULP energy per Si atom -12392.137663 kJ/mol
# Density = 1.448019 g / cm^3
# Si number density = 14.513223 Si / 1000 Ang^3
#
#
#
# Elastic Constant Matrix: (Units=GPa)
#
#
# Indices 1 2 3 4 5 6 
#
# 1 58.0910 38.3284 53.3174 0.0000 0.0000 0.0000
# 2 38.3284 67.9556 48.1721 0.0000 0.0000 0.0000
# 3 53.3174 48.1721 135.4207 0.0000 0.0000 0.0000
# 4 0.0000 0.0000 0.0000 2.9116 0.0000 0.0000
# 5 0.0000 0.0000 0.0000 0.0000 10.3072 0.0000
# 6 0.0000 0.0000 0.0000 0.0000 0.0000 18.6881
#
#
#
# Elastic Compliance Matrix: (Units=1/GPa)
#
#
# Indices 1 2 3 4 5 6 
#
# 1 0.033645 -0.012819 -0.008687 0.000000 0.000000 0.000000
# 2 -0.012819 0.024561 -0.003690 0.000000 0.000000 0.000000
# 3 -0.008687 -0.003690 0.012117 0.000000 0.000000 0.000000
# 4 0.000000 0.000000 0.000000 0.343457 0.000000 0.000000
# 5 0.000000 0.000000 0.000000 0.000000 0.097019 0.000000
# 6 0.000000 0.000000 0.000000 0.000000 0.000000 0.053510
#
#
# Mechanical properties :
#
#
# Convention : Reuss Voigt Hill
#
# Bulk Modulus (GPa) = 50.16926 60.12254 55.14590
# Shear Modulus (GPa) = 8.04707 14.49135 11.26921
#
# Velocity S-wave (km/s) = 2.35726 3.16332 2.78956
# Velocity P-wave (km/s) = 6.48474 7.40663 6.96096
#
# Compressibility (1/GPa) = 0.01993252
#
# Stress axis : x y z
#
# Youngs Moduli (GPa) = 29.72210 40.71446 82.52786
#
# Poissons Ratio (x) = 0.52191 0.71689
# Poissons Ratio (y) = 0.38100 0.30453
# Poissons Ratio (z) = 0.25819 0.15024
#
# Static dielectric constant tensor:
#      x y z
#    x 2.675950 0.000000 0.000000 
#    y 0.000000 2.557860 0.000000 
#    z 0.000000 0.000000 3.099490 
# 
# 
# High freq. dielectric constant tensor:
#      x y z
#    x 1.539470 0.000000 0.000000 
#    y 0.000000 1.508450 0.000000 
#    z 0.000000 0.000000 1.557910 
# 
# From -- ./inp_files/60549.got.cif
#   From: 2010.03.12/outbox.cif.g09.slc.cpg/sg65_31_cif.got.tgz:60549.got - 2010.04.10 20:52:16.
