data_PCOD8266081
_publ_section_title
;
Structure prediction by ZEFSAII (Michael W. Deem and Ramdas Pophale) SiO2 
 PCOD8266081
Probable space group: C M M M
;
_chemical_formula_sum "Si O2"
_cell_formula_units_Z 104
_cell_length_a 22.944388
_cell_length_b 15.849900
_cell_length_c 16.863758
_cell_angle_alpha 90.000000
_cell_angle_beta 90.000000
_cell_angle_gamma 90.000000
_cell_volume 6132.779723
_symmetry_space_group_name_H-M "C M M M"
_symmetry_group_IT_number 65
_symmetry_cell_setting 'orthorhombic'
loop_
_space_group_symop_operation_xyz
x,y,z
-x,-y,z
x,-y,-z
-x,y,-z
-x,-y,-z
x,y,-z
-x,y,z
x,-y,z
1/2+x,1/2+y,z
1/2-x,1/2-y,z
1/2+x,1/2-y,-z
1/2-x,1/2+y,-z
1/2-x,1/2-y,-z
1/2+x,1/2+y,-z
1/2-x,1/2+y,z
1/2+x,1/2-y,z
loop_
_atom_site_type_symbol
_atom_site_label
_atom_site_fract_x
_atom_site_fract_y
_atom_site_fract_z
Si Si1 0.808586 0.194361 0.652918
Si Si2 0.680461 0.743869 0.090380
Si Si3 0.378607 0.847530 0.340296
Si Si4 0.500000 0.899848 0.406950
Si Si5 0.335262 0.091316 0.823290
Si Si6 0.188501 0.093470 0.500000
Si Si7 0.199678 0.093310 0.806979
Si Si8 0.675104 0.091541 0.500000
O O1 0.750000 0.250000 0.641819
O O2 0.862484 0.251834 0.683056
O O3 0.830676 0.148179 0.574623
O O4 0.798790 0.121705 0.716351
O O5 0.750000 0.750000 0.098158
O O6 0.646272 0.825946 0.126010
O O7 0.663189 0.659205 0.138685
O O8 0.660236 0.734022 0.000000
O O9 0.445878 0.860727 0.360067
O O10 0.357933 0.905358 0.267402
O O11 0.342019 0.861740 0.420212
O O12 0.500000 0.873700 0.500000
O O13 0.500000 0.000000 0.398694
O O14 0.266314 0.088840 0.832461
O O15 0.358612 0.000000 0.856537
O O16 0.256895 0.080730 0.500000
O O17 0.159162 0.000000 0.500000
O O18 0.171184 0.000000 0.814614
O O19 0.643379 0.000000 0.500000
#
# Coordination Sequence:
#
# PCOD8266081 Si02
#       8
#    16  16  16   8  16   8  16   8
#     4  12  19  32  48  71 101 134 172 215 264 314
#     4   9  17  30  45  68 104 139 170 206 248 310
#     4  12  21  33  51  69 100 138 175 217 263 302
#     4  11  24  38  50  72 101 137 182 225 262 308
#     4  10  18  29  48  72 100 138 173 206 253 308
#     4  11  22  30  42  73 104 134 171 212 264 319
#     4  10  18  30  47  71 103 137 170 207 254 310
#     4  11  19  28  44  68  97 135 170 204 252 303
#
# _framework density 16.958051999999999
#
# number of rings (size 3 to 8) (size 9 to 14) (size 15 to 20)
#    0.000    1.308    5.385    3.000    0.000    3.077 
#    0.000    3.077    0.000    0.000    0.000    3.231 
#    0.000    1.846    0.000    1.385    0.000    0.154 
#
# Total GULP energy -644358.203793 kJ/mol
# GULP energy per Si atom -12391.503919 kJ/mol
# Density = 1.691945 g / cm^3
# Si number density = 16.958052 Si / 1000 Ang^3
#
#
#
# Elastic Constant Matrix: (Units=GPa)
#
#
# Indices 1 2 3 4 5 6 
#
# 1 37.7303 17.8630 -6.6236 0.0000 0.0000 0.0000
# 2 17.8630 146.6144 45.2697 0.0000 0.0000 0.0000
# 3 -6.6236 45.2697 86.2562 0.0000 0.0000 0.0000
# 4 0.0000 0.0000 0.0000 20.2534 0.0000 0.0000
# 5 0.0000 0.0000 0.0000 0.0000 9.9086 0.0000
# 6 0.0000 0.0000 0.0000 0.0000 0.0000 11.6033
#
#
#
# Elastic Compliance Matrix: (Units=1/GPa)
#
#
# Indices 1 2 3 4 5 6 
#
# 1 0.029837 -0.005183 0.005011 0.000000 0.000000 0.000000
# 2 -0.005183 0.009040 -0.005142 0.000000 0.000000 0.000000
# 3 0.005011 -0.005142 0.014677 0.000000 0.000000 0.000000
# 4 0.000000 0.000000 0.000000 0.049375 0.000000 0.000000
# 5 0.000000 0.000000 0.000000 0.000000 0.100923 0.000000
# 6 0.000000 0.000000 0.000000 0.000000 0.000000 0.086183
#
#
# Mechanical properties :
#
#
# Convention : Reuss Voigt Hill
#
# Bulk Modulus (GPa) = 23.29556 42.62435 32.95996
# Shear Modulus (GPa) = 15.87451 22.62582 19.25017
#
# Velocity S-wave (km/s) = 3.06290 3.65666 3.37287
# Velocity P-wave (km/s) = 5.12596 6.55881 5.88615
#
# Compressibility (1/GPa) = 0.04292663
#
# Stress axis : x y z
#
# Youngs Moduli (GPa) = 33.51517 110.62167 68.13375
#
# Poissons Ratio (x) = 0.57330 -0.34143
# Poissons Ratio (y) = 0.17369 0.35037
# Poissons Ratio (z) = -0.16795 0.56885
#
# Static dielectric constant tensor:
#      x y z
#    x 2.758560 0.000000 0.000000 
#    y 0.000000 3.747240 0.000000 
#    z 0.000000 0.000000 3.298020 
# 
# 
# High freq. dielectric constant tensor:
#      x y z
#    x 1.573440 0.000000 0.000000 
#    y 0.000000 1.674780 0.000000 
#    z 0.000000 0.000000 1.656420 
# 
# From -- ./inp_files/53526.got.cif
#   From: 2010.03.12/outbox.cif.g09.slc.cpg/sg65_27_cif.got.tgz:53526.got - 2010.04.10 20:52:16.
