data_PCOD8266400
_publ_section_title
;
Structure prediction by ZEFSAII (Michael W. Deem and Ramdas Pophale) SiO2 
 PCOD8266400
Probable space group: C M M M
;
_chemical_formula_sum "Si O2"
_cell_formula_units_Z 88
_cell_length_a 26.062942
_cell_length_b 8.964412
_cell_length_c 22.142567
_cell_angle_alpha 90.000000
_cell_angle_beta 90.000000
_cell_angle_gamma 90.000000
_cell_volume 5173.366105
_symmetry_space_group_name_H-M "C M M M"
_symmetry_group_IT_number 65
_symmetry_cell_setting 'orthorhombic'
loop_
_space_group_symop_operation_xyz
x,y,z
-x,-y,z
x,-y,-z
-x,y,-z
-x,-y,-z
x,y,-z
-x,y,z
x,-y,z
1/2+x,1/2+y,z
1/2-x,1/2-y,z
1/2+x,1/2-y,-z
1/2-x,1/2+y,-z
1/2-x,1/2-y,-z
1/2+x,1/2+y,-z
1/2-x,1/2+y,z
1/2+x,1/2-y,z
loop_
_atom_site_type_symbol
_atom_site_label
_atom_site_fract_x
_atom_site_fract_y
_atom_site_fract_z
Si Si1 0.556321 0.664927 0.241469
Si Si2 0.803695 0.673475 0.933699
Si Si3 0.304368 0.322696 0.308903
Si Si4 0.404539 0.174600 0.352086
Si Si5 0.344590 0.666306 0.822747
Si Si6 0.500000 0.822790 0.568348
O O1 0.500000 0.690289 0.214783
O O2 0.561515 0.500000 0.272828
O O3 0.568824 0.795472 0.288157
O O4 0.594493 0.670229 0.185461
O O5 0.794769 0.500000 0.928538
O O6 0.750000 0.750000 0.923776
O O7 0.838747 0.724450 0.878847
O O8 0.826756 0.715452 0.000000
O O9 0.301519 0.500000 0.317124
O O10 0.250000 0.250000 0.327285
O O11 0.349515 0.260597 0.353260
O O12 0.316841 0.279616 0.239156
O O13 0.446600 0.233833 0.401003
O O14 0.393270 0.000000 0.360481
O O15 0.324983 0.500000 0.838867
O O16 0.500000 0.763481 0.500000
O O17 0.500000 0.000000 0.572302
#
# Coordination Sequence:
#
# PCOD8266400 Si02
#       6
#    16  16  16  16  16   8
#     4   9  17  30  48  69  97 127 155 195 243 286
#     4  10  20  32  46  64  87 117 152 192 236 281
#     4  10  20  33  49  73 103 133 163 201 248 297
#     4  10  18  30  50  75 101 132 167 202 242 291
#     4   9  18  30  46  69  93 121 155 192 238 287
#     4   9  18  32  51  77 107 135 166 205 244 283
#
# _framework density 17.010202
#
# number of rings (size 3 to 8) (size 9 to 14) (size 15 to 20)
#    0.000    2.455    0.909    3.273    0.000    6.182 
#    0.000    0.000    0.000    5.455    0.000    3.818 
#    0.000    0.000    0.000    0.000    0.000    0.000 
#
# Total GULP energy -545172.052448 kJ/mol
# GULP energy per Si atom -12390.273919 kJ/mol
# Density = 1.697149 g / cm^3
# Si number density = 17.010202 Si / 1000 Ang^3
#
#
#
# Elastic Constant Matrix: (Units=GPa)
#
#
# Indices 1 2 3 4 5 6 
#
# 1 145.8363 45.3685 52.4721 0.0000 0.0000 0.0000
# 2 45.3685 55.9383 29.9821 0.0000 0.0000 0.0000
# 3 52.4721 29.9821 83.8724 0.0000 0.0000 0.0000
# 4 0.0000 0.0000 0.0000 16.9969 0.0000 0.0000
# 5 0.0000 0.0000 0.0000 0.0000 -26.1676 0.0000
# 6 0.0000 0.0000 0.0000 0.0000 0.0000 26.0226
#
#
#
# Elastic Compliance Matrix: (Units=1/GPa)
#
#
# Indices 1 2 3 4 5 6 
#
# 1 0.010272 -0.006045 -0.004266 0.000000 0.000000 0.000000
# 2 -0.006045 0.025671 -0.005395 0.000000 0.000000 0.000000
# 3 -0.004266 -0.005395 0.016520 0.000000 0.000000 0.000000
# 4 0.000000 0.000000 0.000000 0.058834 0.000000 0.000000
# 5 0.000000 0.000000 0.000000 0.000000 -0.038215 0.000000
# 6 0.000000 0.000000 0.000000 0.000000 0.000000 0.038428
#
#
# Mechanical properties :
#
#
# Convention : Reuss Voigt Hill
#
# Bulk Modulus (GPa) = 47.50026 60.14362 53.82194
# Shear Modulus (GPa) = 33.34679 13.89200 23.61939
#
# Velocity S-wave (km/s) = 4.43244 2.86087 3.73036
# Velocity P-wave (km/s) = 7.36075 6.80786 7.08969
#
# Compressibility (1/GPa) = 0.02105251
#
# Stress axis : x y z
#
# Youngs Moduli (GPa) = 97.34888 38.95418 60.53248
#
# Poissons Ratio (x) = 0.23548 0.25821
# Poissons Ratio (y) = 0.58847 0.32657
# Poissons Ratio (z) = 0.41525 0.21015
#
# Static dielectric constant tensor:
#      x y z
#    x 3.360770 0.000000 0.000000 
#    y 0.000000 3.441810 0.000000 
#    z 0.000000 0.000000 3.052120 
# 
# 
# High freq. dielectric constant tensor:
#      x y z
#    x 1.660210 0.000000 0.000000 
#    y 0.000000 1.657890 0.000000 
#    z 0.000000 0.000000 1.621410 
# 
# From -- ./inp_files/66234.got.cif
#   From: 2010.03.12/outbox.cif.g09.slc.cpg/sg65_34_cif.got.tgz:66234.got - 2010.04.10 20:52:16.
