data_PCOD8266031
_publ_section_title
;
Structure prediction by ZEFSAII (Michael W. Deem and Ramdas Pophale) SiO2 
 PCOD8266031
Probable space group: C M M M
;
_chemical_formula_sum "Si O2"
_cell_formula_units_Z 104
_cell_length_a 25.996675
_cell_length_b 9.929905
_cell_length_c 24.344470
_cell_angle_alpha 90.000000
_cell_angle_beta 90.000000
_cell_angle_gamma 90.000000
_cell_volume 6284.391354
_symmetry_space_group_name_H-M "C M M M"
_symmetry_group_IT_number 65
_symmetry_cell_setting 'orthorhombic'
loop_
_space_group_symop_operation_xyz
x,y,z
-x,-y,z
x,-y,-z
-x,y,-z
-x,-y,-z
x,y,-z
-x,y,z
x,-y,z
1/2+x,1/2+y,z
1/2-x,1/2-y,z
1/2+x,1/2-y,-z
1/2-x,1/2+y,-z
1/2-x,1/2-y,-z
1/2+x,1/2+y,-z
1/2-x,1/2+y,z
1/2+x,1/2-y,z
loop_
_atom_site_type_symbol
_atom_site_label
_atom_site_fract_x
_atom_site_fract_y
_atom_site_fract_z
Si Si1 0.000000 0.158966 0.434922
Si Si2 0.592559 0.159438 0.388544
Si Si3 0.056750 0.658069 0.728133
Si Si4 0.804314 0.500000 0.064677
Si Si5 0.296090 0.845896 0.564667
Si Si6 0.127887 0.252348 0.064394
Si Si7 0.060616 0.349071 0.846231
Si Si8 0.808023 0.000000 0.064641
O O1 0.949396 0.241601 0.415740
O O2 0.000000 0.159354 0.500000
O O3 0.000000 0.000000 0.414719
O O4 0.593498 0.190170 0.323201
O O5 0.649318 0.197238 0.409518
O O6 0.579611 0.000000 0.400177
O O7 0.050191 0.500000 0.736331
O O8 0.079513 0.710806 0.786789
O O9 0.000000 0.720092 0.715723
O O10 0.835103 0.629185 0.083224
O O11 0.748061 0.500000 0.092916
O O12 0.797316 0.500000 0.000000
O O13 0.302273 0.828241 0.500000
O O14 0.250000 0.750000 0.586727
O O15 0.282543 0.000000 0.580323
O O16 0.077515 0.257505 0.102296
O O17 0.159350 0.125184 0.083582
O O18 0.112325 0.254751 0.000000
O O19 0.081716 0.500000 0.856022
O O20 0.000000 0.348492 0.844986
O O21 0.800294 0.000000 0.000000
#
# Coordination Sequence:
#
# PCOD8266031 Si02
#       8
#     8  16  16   8  16  16  16   8
#     4  11  23  33  45  75 117 143 154 191 260 310
#     4  10  18  32  55  76  95 128 175 214 242 287
#     4   8  14  27  49  74  93 117 159 204 245 283
#     4   9  16  28  47  69  89 117 160 196 233 290
#     4   9  18  31  48  72  99 129 165 201 239 286
#     4  10  18  29  46  70  96 125 158 192 243 298
#     4   9  17  29  47  71  96 121 158 203 239 281
#     4   9  18  30  45  65  95 125 150 192 239 292
#
# _framework density 16.548936999999999
#
# number of rings (size 3 to 8) (size 9 to 14) (size 15 to 20)
#    0.000    2.692    1.538    2.077    0.000    4.000 
#    0.000    2.692    1.692    3.231    0.000    0.000 
#    0.000    0.000    0.000    0.000    0.000    0.000 
#
# Total GULP energy -644195.922943 kJ/mol
# GULP energy per Si atom -12388.383134 kJ/mol
# Density = 1.651127 g / cm^3
# Si number density = 16.548937 Si / 1000 Ang^3
#
#
#
# Elastic Constant Matrix: (Units=GPa)
#
#
# Indices 1 2 3 4 5 6 
#
# 1 97.7902 47.9690 50.0002 0.0000 0.0000 0.0000
# 2 47.9690 90.5736 31.0864 0.0000 0.0000 0.0000
# 3 50.0002 31.0864 84.5348 0.0000 0.0000 0.0000
# 4 0.0000 0.0000 0.0000 12.8547 0.0000 0.0000
# 5 0.0000 0.0000 0.0000 0.0000 18.7970 0.0000
# 6 0.0000 0.0000 0.0000 0.0000 0.0000 -13.2848
#
#
#
# Elastic Compliance Matrix: (Units=1/GPa)
#
#
# Indices 1 2 3 4 5 6 
#
# 1 0.017495 -0.006539 -0.007943 0.000000 0.000000 0.000000
# 2 -0.006539 0.015080 -0.001678 0.000000 0.000000 0.000000
# 3 -0.007943 -0.001678 0.017144 0.000000 0.000000 0.000000
# 4 0.000000 0.000000 0.000000 0.077793 0.000000 0.000000
# 5 0.000000 0.000000 0.000000 0.000000 0.053200 0.000000
# 6 0.000000 0.000000 0.000000 0.000000 0.000000 -0.075274
#
#
# Mechanical properties :
#
#
# Convention : Reuss Voigt Hill
#
# Bulk Modulus (GPa) = 57.47343 59.00110 58.23726
# Shear Modulus (GPa) = 34.82918 13.26291 24.04605
#
# Velocity S-wave (km/s) = 4.59259 2.83404 3.81599
# Velocity P-wave (km/s) = 7.93267 6.81461 7.39480
#
# Compressibility (1/GPa) = 0.01739934
#
# Stress axis : x y z
#
# Youngs Moduli (GPa) = 57.15900 66.31369 58.32780
#
# Poissons Ratio (x) = 0.43365 0.46330
# Poissons Ratio (y) = 0.37379 0.09785
# Poissons Ratio (z) = 0.45402 0.11124
#
# Static dielectric constant tensor:
#      x y z
#    x 3.091470 0.000000 0.000000 
#    y 0.000000 2.699960 0.000000 
#    z 0.000000 0.000000 3.181990 
# 
# 
# High freq. dielectric constant tensor:
#      x y z
#    x 1.629440 0.000000 0.000000 
#    y 0.000000 1.619000 0.000000 
#    z 0.000000 0.000000 1.625710 
# 
# From -- ./inp_files/71926.got.cif
#   From: 2010.03.12/outbox.cif.g09.slc.cpg/sg65_36_cif.got.tgz:71926.got - 2010.04.10 20:52:16.
