data_PCOD8266070
_publ_section_title
;
Structure prediction by ZEFSAII (Michael W. Deem and Ramdas Pophale) SiO2 
 PCOD8266070
Probable space group: C M M M
;
_chemical_formula_sum "Si O2"
_cell_formula_units_Z 64
_cell_length_a 18.097129
_cell_length_b 20.929716
_cell_length_c 10.607060
_cell_angle_alpha 90.000000
_cell_angle_beta 90.000000
_cell_angle_gamma 90.000000
_cell_volume 4017.612467
_symmetry_space_group_name_H-M "C M M M"
_symmetry_group_IT_number 65
_symmetry_cell_setting 'orthorhombic'
loop_
_space_group_symop_operation_xyz
x,y,z
-x,-y,z
x,-y,-z
-x,y,-z
-x,-y,-z
x,y,-z
-x,y,z
x,-y,z
1/2+x,1/2+y,z
1/2-x,1/2-y,z
1/2+x,1/2-y,-z
1/2-x,1/2+y,-z
1/2-x,1/2-y,-z
1/2+x,1/2+y,-z
1/2-x,1/2+y,z
1/2+x,1/2-y,z
loop_
_atom_site_type_symbol
_atom_site_label
_atom_site_fract_x
_atom_site_fract_y
_atom_site_fract_z
Si Si1 0.729834 0.574823 0.000000
Si Si2 0.000000 0.827248 0.500000
Si Si3 0.250000 0.750000 0.797924
Si Si4 0.000000 0.814255 0.768352
Si Si5 0.000000 0.280853 0.000000
Si Si6 0.659974 0.631412 0.749974
Si Si7 0.369090 0.427147 0.500000
Si Si8 0.841105 0.321931 0.000000
O O1 0.687375 0.597825 0.123619
O O2 0.811176 0.605941 0.000000
O O3 0.739570 0.500000 0.000000
O O4 0.000000 0.783443 0.373952
O O5 0.931540 0.874390 0.500000
O O6 0.294587 0.696712 0.718510
O O7 0.186443 0.716641 0.879126
O O8 0.073122 0.857709 0.777528
O O9 0.000000 0.761473 0.874932
O O10 0.070721 0.326379 0.000000
O O11 0.675835 0.585420 0.629899
O O12 0.397987 0.500000 0.500000
#
# Coordination Sequence:
#
# PCOD8266070 Si02
#       8
#     8   4   8   8   4  16   8   8
#     4  10  20  35  49  66  96 130 158 192 230 278
#     4   8  19  32  42  62  98 134 147 184 228 278
#     4   9  16  31  44  70  98 122 148 192 246 284
#     4  10  18  29  47  74  96 121 153 192 234 276
#     4  12  16  28  53  74  89 120 154 202 230 284
#     4  10  19  31  49  69  96 124 159 194 232 278
#     4  10  19  31  45  65  92 130 163 188 223 270
#     4   9  18  28  48  72  95 120 152 192 248 276
#
# _framework density 15.929859
#
# number of rings (size 3 to 8) (size 9 to 14) (size 15 to 20)
#    0.000    2.250    2.500    2.438    0.000    0.500 
#    0.000    2.812    0.000    0.000    0.000    0.000 
#    0.000    0.000    0.000   18.000    0.000    0.000 
#
# Total GULP energy -396471.487062 kJ/mol
# GULP energy per Si atom -12389.733971 kJ/mol
# Density = 1.589360 g / cm^3
# Si number density = 15.929859 Si / 1000 Ang^3
#
#
#
# Elastic Constant Matrix: (Units=GPa)
#
#
# Indices 1 2 3 4 5 6 
#
# 1 109.4735 39.6671 35.9117 0.0000 0.0000 0.0000
# 2 39.6671 82.0951 40.3944 0.0000 0.0000 0.0000
# 3 35.9117 40.3944 129.5344 0.0000 0.0000 0.0000
# 4 0.0000 0.0000 0.0000 20.0081 0.0000 0.0000
# 5 0.0000 0.0000 0.0000 0.0000 7.9351 0.0000
# 6 0.0000 0.0000 0.0000 0.0000 0.0000 39.9060
#
#
#
# Elastic Compliance Matrix: (Units=1/GPa)
#
#
# Indices 1 2 3 4 5 6 
#
# 1 0.011382 -0.004662 -0.001702 0.000000 0.000000 0.000000
# 2 -0.004662 0.016299 -0.003790 0.000000 0.000000 0.000000
# 3 -0.001702 -0.003790 0.009374 0.000000 0.000000 0.000000
# 4 0.000000 0.000000 0.000000 0.049980 0.000000 0.000000
# 5 0.000000 0.000000 0.000000 0.000000 0.126023 0.000000
# 6 0.000000 0.000000 0.000000 0.000000 0.000000 0.025059
#
#
# Mechanical properties :
#
#
# Convention : Reuss Voigt Hill
#
# Bulk Modulus (GPa) = 59.71463 61.44996 60.58229
# Shear Modulus (GPa) = 18.93893 27.24514 23.09203
#
# Velocity S-wave (km/s) = 3.45178 4.14009 3.81150
# Velocity P-wave (km/s) = 7.31120 7.84301 7.58177
#
# Compressibility (1/GPa) = 0.01674631
#
# Stress axis : x y z
#
# Youngs Moduli (GPa) = 87.85614 61.35463 106.68254
#
# Poissons Ratio (x) = 0.28606 0.18153
# Poissons Ratio (y) = 0.40963 0.40433
# Poissons Ratio (z) = 0.14950 0.23254
#
# Static dielectric constant tensor:
#      x y z
#    x 3.094760 0.000000 0.000000 
#    y 0.000000 2.888020 0.000000 
#    z 0.000000 0.000000 3.423780 
# 
# 
# High freq. dielectric constant tensor:
#      x y z
#    x 1.603770 0.000000 0.000000 
#    y 0.000000 1.586230 0.000000 
#    z 0.000000 0.000000 1.622190 
# 
# From -- ./inp_files/26519.got.cif
#   From: 2010.03.12/outbox.cif.g09.slc.cpg/sg65_14_cif.got.tgz:26519.got - 2010.04.10 20:52:16.
