data_PCOD8266947
_publ_section_title
;
Structure prediction by ZEFSAII (Michael W. Deem and Ramdas Pophale) SiO2 
 PCOD8266947
Probable space group: C M M M
;
_chemical_formula_sum "Si O2"
_cell_formula_units_Z 104
_cell_length_a 31.237617
_cell_length_b 9.100682
_cell_length_c 19.368483
_cell_angle_alpha 90.000000
_cell_angle_beta 90.000000
_cell_angle_gamma 90.000000
_cell_volume 5506.142437
_symmetry_space_group_name_H-M "C M M M"
_symmetry_group_IT_number 65
_symmetry_cell_setting 'orthorhombic'
loop_
_space_group_symop_operation_xyz
x,y,z
-x,-y,z
x,-y,-z
-x,y,-z
-x,-y,-z
x,y,-z
-x,y,z
x,-y,z
1/2+x,1/2+y,z
1/2-x,1/2-y,z
1/2+x,1/2-y,-z
1/2-x,1/2+y,-z
1/2-x,1/2-y,-z
1/2+x,1/2+y,-z
1/2-x,1/2+y,z
1/2+x,1/2-y,z
loop_
_atom_site_type_symbol
_atom_site_label
_atom_site_fract_x
_atom_site_fract_y
_atom_site_fract_z
Si Si1 0.500000 0.827008 0.578572
Si Si2 0.937648 0.674714 0.698285
Si Si3 0.206108 0.667975 0.574499
Si Si4 0.205102 0.673157 0.841440
Si Si5 0.158467 0.674523 0.704483
Si Si6 0.453229 0.668894 0.165401
Si Si7 0.620436 0.171659 0.079713
O O1 0.500000 0.757432 0.500000
O O2 0.541672 0.779657 0.624088
O O3 0.500000 0.000000 0.568976
O O4 0.941627 0.500000 0.707686
O O5 0.889446 0.734468 0.705453
O O6 0.961081 0.753674 0.761105
O O7 0.182668 0.681799 0.500000
O O8 0.215937 0.500000 0.592824
O O9 0.250000 0.750000 0.571739
O O10 0.177284 0.738931 0.633640
O O11 0.213631 0.500000 0.840622
O O12 0.250000 0.750000 0.860163
O O13 0.187417 0.731170 0.767787
O O14 0.168440 0.715955 0.896721
O O15 0.156830 0.500000 0.705721
O O16 0.500000 0.679862 0.127956
O O17 0.439958 0.500000 0.176150
O O18 0.416229 0.744722 0.121057
O O19 0.613384 0.000000 0.094144
O O20 0.615917 0.213231 0.000000
#
# Coordination Sequence:
#
# PCOD8266947 Si02
#       7
#     8  16  16  16  16  16  16
#     4   9  18  30  51  87 118 143 188 245 291 336
#     4  10  18  33  57  79 108 150 189 229 278 334
#     4   9  17  29  45  67  97 133 170 211 264 320
#     4  10  20  35  55  81 113 147 189 233 281 337
#     4   9  17  30  50  75 102 136 180 228 272 320
#     4  11  23  38  59  87 118 148 185 233 287 343
#     4  10  22  41  63  86 114 150 192 234 278 342
#
# _framework density 18.887996000000001
#
# number of rings (size 3 to 8) (size 9 to 14) (size 15 to 20)
#    0.000    2.231    2.308    0.923    0.000    3.077 
#    0.000    5.385    0.000    0.923    0.000    0.000 
#    0.000    0.000    0.000    0.000    0.000    0.000 
#
# Total GULP energy -644378.843047 kJ/mol
# GULP energy per Si atom -12391.900828 kJ/mol
# Density = 1.884501 g / cm^3
# Si number density = 18.887996 Si / 1000 Ang^3
#
#
#
# Elastic Constant Matrix: (Units=GPa)
#
#
# Indices 1 2 3 4 5 6 
#
# 1 139.1841 42.3171 63.7302 0.0000 0.0000 0.0000
# 2 42.3171 48.4190 43.6813 0.0000 0.0000 0.0000
# 3 63.7302 43.6813 138.3798 0.0000 0.0000 0.0000
# 4 0.0000 0.0000 0.0000 11.6469 0.0000 0.0000
# 5 0.0000 0.0000 0.0000 0.0000 28.1730 0.0000
# 6 0.0000 0.0000 0.0000 0.0000 0.0000 23.2059
#
#
#
# Elastic Compliance Matrix: (Units=1/GPa)
#
#
# Indices 1 2 3 4 5 6 
#
# 1 0.010460 -0.006705 -0.002701 0.000000 0.000000 0.000000
# 2 -0.006705 0.033175 -0.007384 0.000000 0.000000 0.000000
# 3 -0.002701 -0.007384 0.010801 0.000000 0.000000 0.000000
# 4 0.000000 0.000000 0.000000 0.085860 0.000000 0.000000
# 5 0.000000 0.000000 0.000000 0.000000 0.035495 0.000000
# 6 0.000000 0.000000 0.000000 0.000000 0.000000 0.043092
#
#
# Mechanical properties :
#
#
# Convention : Reuss Voigt Hill
#
# Bulk Modulus (GPa) = 47.94785 69.49333 58.72059
# Shear Modulus (GPa) = 19.27410 24.35544 21.81477
#
# Velocity S-wave (km/s) = 3.19790 3.59481 3.40215
# Velocity P-wave (km/s) = 6.25107 7.35543 6.82562
#
# Compressibility (1/GPa) = 0.02085599
#
# Stress axis : x y z
#
# Youngs Moduli (GPa) = 95.60222 30.14331 92.58315
#
# Poissons Ratio (x) = 0.20212 0.25004
# Poissons Ratio (y) = 0.64105 0.68363
# Poissons Ratio (z) = 0.25819 0.22258
#
# Static dielectric constant tensor:
#      x y z
#    x 3.668600 0.000000 0.000000 
#    y 0.000000 3.106740 0.000000 
#    z 0.000000 0.000000 3.871180 
# 
# 
# High freq. dielectric constant tensor:
#      x y z
#    x 1.744230 0.000000 0.000000 
#    y 0.000000 1.699110 0.000000 
#    z 0.000000 0.000000 1.739370 
# 
# From -- ./inp_files/66409.got.cif
#   From: 2010.03.12/outbox.cif.g09.slc.cpg/sg65_34_cif.got.tgz:66409.got - 2010.04.10 20:52:16.
