data_PCOD8266686
_publ_section_title
;
Structure prediction by ZEFSAII (Michael W. Deem and Ramdas Pophale) SiO2 
 PCOD8266686
Probable space group: C M M M
;
_chemical_formula_sum "Si O2"
_cell_formula_units_Z 56
_cell_length_a 15.287794
_cell_length_b 8.738450
_cell_length_c 21.578126
_cell_angle_alpha 90.000000
_cell_angle_beta 90.000000
_cell_angle_gamma 90.000000
_cell_volume 2882.656884
_symmetry_space_group_name_H-M "C M M M"
_symmetry_group_IT_number 65
_symmetry_cell_setting 'orthorhombic'
loop_
_space_group_symop_operation_xyz
x,y,z
-x,-y,z
x,-y,-z
-x,y,-z
-x,-y,-z
x,y,-z
-x,y,z
x,-y,z
1/2+x,1/2+y,z
1/2-x,1/2-y,z
1/2+x,1/2-y,-z
1/2-x,1/2+y,-z
1/2-x,1/2-y,-z
1/2+x,1/2+y,-z
1/2-x,1/2+y,z
1/2+x,1/2-y,z
loop_
_atom_site_type_symbol
_atom_site_label
_atom_site_fract_x
_atom_site_fract_y
_atom_site_fract_z
Si Si1 0.000000 0.319262 0.650041
Si Si2 0.659580 0.181010 0.570310
Si Si3 0.154695 0.819692 0.124977
Si Si4 0.653693 0.817879 0.000000
Si Si5 0.500000 0.322744 0.782859
O O1 0.084870 0.252452 0.615191
O O2 0.000000 0.275672 0.721303
O O3 0.000000 0.500000 0.643749
O O4 0.639742 0.234310 0.500000
O O5 0.750000 0.250000 0.594632
O O6 0.665380 0.000000 0.574092
O O7 0.250000 0.750000 0.140667
O O8 0.087802 0.780587 0.179802
O O9 0.165344 0.000000 0.114696
O O10 0.110749 0.746011 0.063096
O O11 0.750000 0.750000 0.000000
O O12 0.651687 0.000000 0.000000
O O13 0.500000 0.500000 0.765204
#
# Coordination Sequence:
#
# PCOD8266686 Si02
#       5
#     8  16  16   8   8
#     4  10  21  36  55  77 106 143 179 217 260 310
#     4   9  18  34  56  82 109 138 174 216 263 313
#     4  10  20  37  57  78 105 139 176 218 266 315
#     4  10  18  31  54  83 108 134 170 217 269 317
#     4  10  24  40  54  75 107 145 182 217 260 315
#
# _framework density 19.426523
#
# number of rings (size 3 to 8) (size 9 to 14) (size 15 to 20)
#    0.000    2.286    0.000    4.286    0.000    6.857 
#    0.000    8.571    0.000    4.286    0.000    0.000 
#    0.000    0.000    0.000    0.000    0.000    0.000 
#
# Total GULP energy -347147.797712 kJ/mol
# GULP energy per Si atom -12398.135633 kJ/mol
# Density = 1.938231 g / cm^3
# Si number density = 19.426523 Si / 1000 Ang^3
#
#
#
# Elastic Constant Matrix: (Units=GPa)
#
#
# Indices 1 2 3 4 5 6 
#
# 1 143.0722 43.5685 83.2679 0.0000 0.0000 0.0000
# 2 43.5685 76.1016 43.7431 0.0000 0.0000 0.0000
# 3 83.2679 43.7431 132.8062 0.0000 0.0000 0.0000
# 4 0.0000 0.0000 0.0000 32.7550 0.0000 0.0000
# 5 0.0000 0.0000 0.0000 0.0000 17.5766 0.0000
# 6 0.0000 0.0000 0.0000 0.0000 0.0000 28.3621
#
#
#
# Elastic Compliance Matrix: (Units=1/GPa)
#
#
# Indices 1 2 3 4 5 6 
#
# 1 0.011542 -0.003020 -0.006242 0.000000 0.000000 0.000000
# 2 -0.003020 0.016999 -0.003706 0.000000 0.000000 0.000000
# 3 -0.006242 -0.003706 0.012664 0.000000 0.000000 0.000000
# 4 0.000000 0.000000 0.000000 0.030530 0.000000 0.000000
# 5 0.000000 0.000000 0.000000 0.000000 0.056894 0.000000
# 6 0.000000 0.000000 0.000000 0.000000 0.000000 0.035258
#
#
# Mechanical properties :
#
#
# Convention : Reuss Voigt Hill
#
# Bulk Modulus (GPa) = 65.48779 77.01544 71.25162
# Shear Modulus (GPa) = 25.65259 27.83212 26.74235
#
# Velocity S-wave (km/s) = 3.63780 3.78919 3.71427
# Velocity P-wave (km/s) = 7.17137 7.67297 7.42641
#
# Compressibility (1/GPa) = 0.01527002
#
# Stress axis : x y z
#
# Youngs Moduli (GPa) = 86.64067 58.82604 78.96426
#
# Poissons Ratio (x) = 0.17765 0.49289
# Poissons Ratio (y) = 0.26165 0.29262
# Poissons Ratio (z) = 0.54081 0.21799
#
# Static dielectric constant tensor:
#      x y z
#    x 3.674170 0.000000 0.000000 
#    y 0.000000 3.446730 0.000000 
#    z 0.000000 0.000000 3.806440 
# 
# 
# High freq. dielectric constant tensor:
#      x y z
#    x 1.758000 0.000000 0.000000 
#    y 0.000000 1.752150 0.000000 
#    z 0.000000 0.000000 1.757840 
# 
# From -- ./inp_files/53952.got.cif
#   From: 2010.03.12/outbox.cif.g09.slc.cpg/sg65_27_cif.got.tgz:53952.got - 2010.04.10 20:52:16.
