data_PCOD8266113
_publ_section_title
;
Structure prediction by ZEFSAII (Michael W. Deem and Ramdas Pophale) SiO2 
 PCOD8266113
Probable space group: C M M M
;
_chemical_formula_sum "Si O2"
_cell_formula_units_Z 104
_cell_length_a 31.843561
_cell_length_b 9.347130
_cell_length_c 20.634182
_cell_angle_alpha 90.000000
_cell_angle_beta 90.000000
_cell_angle_gamma 90.000000
_cell_volume 6141.679761
_symmetry_space_group_name_H-M "C M M M"
_symmetry_group_IT_number 65
_symmetry_cell_setting 'orthorhombic'
loop_
_space_group_symop_operation_xyz
x,y,z
-x,-y,z
x,-y,-z
-x,y,-z
-x,-y,-z
x,y,-z
-x,y,z
x,-y,z
1/2+x,1/2+y,z
1/2-x,1/2-y,z
1/2+x,1/2-y,-z
1/2-x,1/2+y,-z
1/2-x,1/2-y,-z
1/2+x,1/2+y,-z
1/2-x,1/2+y,z
1/2+x,1/2-y,z
loop_
_atom_site_type_symbol
_atom_site_label
_atom_site_fract_x
_atom_site_fract_y
_atom_site_fract_z
Si Si1 0.750000 0.750000 0.273982
Si Si2 0.825149 0.840363 0.183515
Si Si3 0.820905 0.343137 0.361368
Si Si4 0.950795 0.667384 0.628224
Si Si5 0.292841 0.835207 0.927288
Si Si6 0.549832 0.664013 0.500000
Si Si7 0.290445 0.159423 0.500000
Si Si8 0.112604 0.834292 0.706542
O O1 0.783523 0.831205 0.228437
O O2 0.776838 0.649106 0.322057
O O3 0.825492 0.728204 0.124394
O O4 0.868815 0.809569 0.221359
O O5 0.826126 0.000000 0.154822
O O6 0.841952 0.500000 0.351434
O O7 0.817263 0.308769 0.436719
O O8 0.850003 0.213736 0.340028
O O9 0.939570 0.500000 0.621193
O O10 0.934721 0.750673 0.563918
O O11 0.928037 0.736682 0.691158
O O12 0.000000 0.689231 0.639188
O O13 0.250000 0.750000 0.919595
O O14 0.284102 0.000000 0.910594
O O15 0.311062 0.817957 0.000000
O O16 0.566999 0.500000 0.500000
O O17 0.500000 0.662610 0.500000
O O18 0.250000 0.250000 0.500000
O O19 0.273455 0.000000 0.500000
O O20 0.101512 0.000000 0.694413
#
# Coordination Sequence:
#
# PCOD8266113 Si02
#       8
#     8  16  16  16  16   8   8  16
#     4  10  18  29  49  66  88 120 164 198 244 288
#     4  10  20  32  48  71  97 128 166 203 241 286
#     4  10  20  33  48  65  89 120 159 205 252 297
#     4  10  20  35  55  77 101 130 164 203 251 308
#     4  10  20  32  48  71  98 130 167 204 243 287
#     4   9  17  30  51  76  99 125 156 194 244 299
#     4  10  20  33  48  65  83 115 158 204 251 293
#     4  10  22  36  50  72  99 127 163 203 247 297
#
# _framework density 16.933478000000001
#
# number of rings (size 3 to 8) (size 9 to 14) (size 15 to 20)
#    0.000    2.077    1.538    2.077    0.000    7.692 
#    0.000    2.308    0.000    0.000    0.000    0.000 
#    0.000    0.615    0.000    6.769    0.000    4.923 
#
# Total GULP energy -644423.037870 kJ/mol
# GULP energy per Si atom -12392.750728 kJ/mol
# Density = 1.689494 g / cm^3
# Si number density = 16.933478 Si / 1000 Ang^3
#
#
#
# Elastic Constant Matrix: (Units=GPa)
#
#
# Indices 1 2 3 4 5 6 
#
# 1 58.2813 36.8659 30.0280 0.0000 0.0000 0.0000
# 2 36.8659 129.7712 62.2456 0.0000 0.0000 0.0000
# 3 30.0280 62.2456 104.7635 0.0000 0.0000 0.0000
# 4 0.0000 0.0000 0.0000 23.7709 0.0000 0.0000
# 5 0.0000 0.0000 0.0000 0.0000 19.8513 0.0000
# 6 0.0000 0.0000 0.0000 0.0000 0.0000 24.7764
#
#
#
# Elastic Compliance Matrix: (Units=1/GPa)
#
#
# Indices 1 2 3 4 5 6 
#
# 1 0.021847 -0.004479 -0.003600 0.000000 0.000000 0.000000
# 2 -0.004479 0.011696 -0.005665 0.000000 0.000000 0.000000
# 3 -0.003600 -0.005665 0.013943 0.000000 0.000000 0.000000
# 4 0.000000 0.000000 0.000000 0.042068 0.000000 0.000000
# 5 0.000000 0.000000 0.000000 0.000000 0.050375 0.000000
# 6 0.000000 0.000000 0.000000 0.000000 0.000000 0.040361
#
#
# Mechanical properties :
#
#
# Convention : Reuss Voigt Hill
#
# Bulk Modulus (GPa) = 50.01051 61.23276 55.62164
# Shear Modulus (GPa) = 23.31609 24.59150 23.95379
#
# Velocity S-wave (km/s) = 3.71472 3.81496 3.76517
# Velocity P-wave (km/s) = 6.92795 7.45953 7.19865
#
# Compressibility (1/GPa) = 0.01999580
#
# Stress axis : x y z
#
# Youngs Moduli (GPa) = 45.77378 85.50157 71.71934
#
# Poissons Ratio (x) = 0.38299 0.25822
# Poissons Ratio (y) = 0.20503 0.40630
# Poissons Ratio (z) = 0.16480 0.48438
#
# Static dielectric constant tensor:
#      x y z
#    x 2.979710 0.000000 0.000000 
#    y 0.000000 3.300850 0.000000 
#    z 0.000000 0.000000 3.332640 
# 
# 
# High freq. dielectric constant tensor:
#      x y z
#    x 1.617110 0.000000 0.000000 
#    y 0.000000 1.669890 0.000000 
#    z 0.000000 0.000000 1.642050 
# 
# From -- ./inp_files/66475.got.cif
#   From: 2010.03.12/outbox.cif.g09.slc.cpg/sg65_34_cif.got.tgz:66475.got - 2010.04.10 20:52:16.
