data_PCOD8266362
_publ_section_title
;
Structure prediction by ZEFSAII (Michael W. Deem and Ramdas Pophale) SiO2 
 PCOD8266362
Probable space group: C M M M
;
_chemical_formula_sum "Si O2"
_cell_formula_units_Z 88
_cell_length_a 30.127811
_cell_length_b 18.204171
_cell_length_c 9.206421
_cell_angle_alpha 90.000000
_cell_angle_beta 90.000000
_cell_angle_gamma 90.000000
_cell_volume 5049.278384
_symmetry_space_group_name_H-M "C M M M"
_symmetry_group_IT_number 65
_symmetry_cell_setting 'orthorhombic'
loop_
_space_group_symop_operation_xyz
x,y,z
-x,-y,z
x,-y,-z
-x,y,-z
-x,-y,-z
x,y,-z
-x,y,z
x,-y,z
1/2+x,1/2+y,z
1/2-x,1/2-y,z
1/2+x,1/2-y,-z
1/2-x,1/2+y,-z
1/2-x,1/2-y,-z
1/2+x,1/2+y,-z
1/2-x,1/2+y,z
1/2+x,1/2-y,z
loop_
_atom_site_type_symbol
_atom_site_label
_atom_site_fract_x
_atom_site_fract_y
_atom_site_fract_z
Si Si1 0.876088 0.166347 0.159869
Si Si2 0.048957 0.418458 0.672557
Si Si3 0.051875 0.087575 0.000000
Si Si4 0.795037 0.417860 0.672266
Si Si5 0.626014 0.184022 0.326961
Si Si6 0.803474 0.913396 0.338840
O O1 0.879989 0.235506 0.263819
O O2 0.839635 0.112332 0.224895
O O3 0.859864 0.191831 0.000000
O O4 0.923180 0.122129 0.142491
O O5 0.051469 0.419946 0.500000
O O6 0.059594 0.500000 0.731973
O O7 0.084558 0.361938 0.734917
O O8 0.000000 0.393566 0.724069
O O9 0.000000 0.110022 0.000000
O O10 0.057366 0.000000 0.000000
O O11 0.798641 0.422963 0.500000
O O12 0.805122 0.500000 0.735215
O O13 0.829845 0.357381 0.730734
O O14 0.745750 0.390610 0.716339
O O15 0.626103 0.190112 0.500000
O O16 0.812447 0.879765 0.500000
O O17 0.805576 0.000000 0.349964
#
# Coordination Sequence:
#
# PCOD8266362 Si02
#       6
#    16  16   8  16  16  16
#     4  10  22  34  51  75 102 129 163 205 255 310
#     4   8  14  25  44  71  99 129 168 211 250 288
#     4   9  20  40  62  75  87 121 169 208 247 308
#     4   8  15  28  49  76 104 140 180 209 239 286
#     4  10  18  30  49  75 108 139 168 206 251 295
#     4   9  17  32  54  77 100 129 170 214 251 293
#
# _framework density 17.428234
#
# number of rings (size 3 to 8) (size 9 to 14) (size 15 to 20)
#    0.545    2.455    0.000    3.273    0.000    3.636 
#    0.000    4.545    0.000    4.909    0.000    7.636 
#    0.000    0.000    0.000    0.000    0.000    0.000 
#
# Total GULP energy -545172.539997 kJ/mol
# GULP energy per Si atom -12390.285000 kJ/mol
# Density = 1.738857 g / cm^3
# Si number density = 17.428234 Si / 1000 Ang^3
#
#
#
# Elastic Constant Matrix: (Units=GPa)
#
#
# Indices 1 2 3 4 5 6 
#
# 1 156.8263 67.9170 35.6888 0.0000 0.0000 0.0000
# 2 67.9170 79.3579 21.6299 0.0000 0.0000 0.0000
# 3 35.6888 21.6299 36.9459 0.0000 0.0000 0.0000
# 4 0.0000 0.0000 0.0000 9.4864 0.0000 0.0000
# 5 0.0000 0.0000 0.0000 0.0000 19.5278 0.0000
# 6 0.0000 0.0000 0.0000 0.0000 0.0000 16.5790
#
#
#
# Elastic Compliance Matrix: (Units=1/GPa)
#
#
# Indices 1 2 3 4 5 6 
#
# 1 0.011211 -0.007904 -0.006202 0.000000 0.000000 0.000000
# 2 -0.007904 0.020567 -0.004405 0.000000 0.000000 0.000000
# 3 -0.006202 -0.004405 0.035637 0.000000 0.000000 0.000000
# 4 0.000000 0.000000 0.000000 0.105414 0.000000 0.000000
# 5 0.000000 0.000000 0.000000 0.000000 0.051209 0.000000
# 6 0.000000 0.000000 0.000000 0.000000 0.000000 0.060317
#
#
# Mechanical properties :
#
#
# Convention : Reuss Voigt Hill
#
# Bulk Modulus (GPa) = 32.90445 58.17794 45.54120
# Shear Modulus (GPa) = 15.08258 18.97826 17.03042
#
# Velocity S-wave (km/s) = 2.94498 3.30349 3.12937
# Velocity P-wave (km/s) = 5.52131 6.92853 6.26456
#
# Compressibility (1/GPa) = 0.03039103
#
# Stress axis : x y z
#
# Youngs Moduli (GPa) = 89.19829 48.62250 28.06098
#
# Poissons Ratio (x) = 0.38433 0.17403
# Poissons Ratio (y) = 0.70505 0.12362
# Poissons Ratio (z) = 0.55320 0.21420
#
# Static dielectric constant tensor:
#      x y z
#    x 3.619360 0.000000 0.000000 
#    y 0.000000 3.228610 0.000000 
#    z 0.000000 0.000000 2.880480 
# 
# 
# High freq. dielectric constant tensor:
#      x y z
#    x 1.682620 0.000000 0.000000 
#    y 0.000000 1.673680 0.000000 
#    z 0.000000 0.000000 1.623720 
# 
# From -- ./inp_files/18524.got.cif
#   From: 2010.03.12/outbox.cif.g09.slc.cpg/sg65_10_cif.got.tgz:18524.got - 2010.04.10 20:52:16.
