data_PCOD8266572
_publ_section_title
;
Structure prediction by ZEFSAII (Michael W. Deem and Ramdas Pophale) SiO2 
 PCOD8266572
Probable space group: C M M M
;
_chemical_formula_sum "Si O2"
_cell_formula_units_Z 104
_cell_length_a 23.069146
_cell_length_b 26.603632
_cell_length_c 9.311527
_cell_angle_alpha 90.000000
_cell_angle_beta 90.000000
_cell_angle_gamma 90.000000
_cell_volume 5714.698944
_symmetry_space_group_name_H-M "C M M M"
_symmetry_group_IT_number 65
_symmetry_cell_setting 'orthorhombic'
loop_
_space_group_symop_operation_xyz
x,y,z
-x,-y,z
x,-y,-z
-x,y,-z
-x,-y,-z
x,y,-z
-x,y,z
x,-y,z
1/2+x,1/2+y,z
1/2-x,1/2-y,z
1/2+x,1/2-y,-z
1/2-x,1/2+y,-z
1/2-x,1/2-y,-z
1/2+x,1/2+y,-z
1/2-x,1/2+y,z
1/2+x,1/2-y,z
loop_
_atom_site_type_symbol
_atom_site_label
_atom_site_fract_x
_atom_site_fract_y
_atom_site_fract_z
Si Si1 0.862512 0.591654 0.667843
Si Si2 0.836273 0.870206 0.167458
Si Si3 0.566585 0.706152 0.166968
Si Si4 0.119206 0.702320 0.333189
Si Si5 0.737762 0.441115 0.332278
Si Si6 0.064631 0.500000 0.327993
Si Si7 0.228657 0.303630 0.846972
O O1 0.855940 0.581693 0.500000
O O2 0.896663 0.643908 0.698170
O O3 0.796050 0.587805 0.727946
O O4 0.902454 0.548495 0.735178
O O5 0.894358 0.840942 0.221221
O O6 0.820966 0.921332 0.253398
O O7 0.783194 0.834651 0.207556
O O8 0.841981 0.883191 0.000000
O O9 0.500000 0.691341 0.194140
O O10 0.579592 0.758468 0.247631
O O11 0.579973 0.716209 0.000000
O O12 0.114133 0.715963 0.500000
O O13 0.185322 0.703646 0.284267
O O14 0.729019 0.431132 0.500000
O O15 0.745248 0.500000 0.299212
O O16 0.063596 0.500000 0.500000
O O17 0.000000 0.500000 0.265592
O O18 0.250000 0.250000 0.891694
O O19 0.202985 0.325971 0.000000
#
# Coordination Sequence:
#
# PCOD8266572 Si02
#       7
#    16  16  16  16  16   8  16
#     4   9  17  29  45  72 106 139 174 216 260 306
#     4  10  20  34  55  81 105 134 177 225 268 320
#     4  10  22  41  59  74 102 146 186 219 266 328
#     4  11  21  31  50  80 113 140 171 219 269 315
#     4  10  19  33  54  79 111 143 172 213 273 333
#     4   9  16  28  46  64  91 139 186 217 248 294
#     4  10  18  31  50  74 106 138 172 212 256 310
#
# _framework density 18.198685000000001
#
# number of rings (size 3 to 8) (size 9 to 14) (size 15 to 20)
#    0.000    2.077    3.846    0.462    0.000    2.154 
#    0.000    1.538    0.000    0.462    0.000    3.231 
#    0.000    4.308    0.000    0.000    0.000    0.000 
#
# Total GULP energy -644221.979788 kJ/mol
# GULP energy per Si atom -12388.884227 kJ/mol
# Density = 1.815726 g / cm^3
# Si number density = 18.198685 Si / 1000 Ang^3
#
#
#
# Elastic Constant Matrix: (Units=GPa)
#
#
# Indices 1 2 3 4 5 6 
#
# 1 111.8387 50.0499 32.4630 0.0000 0.0000 0.0000
# 2 50.0499 76.7937 32.8374 0.0000 0.0000 0.0000
# 3 32.4630 32.8374 45.0003 0.0000 0.0000 0.0000
# 4 0.0000 0.0000 0.0000 24.6213 0.0000 0.0000
# 5 0.0000 0.0000 0.0000 0.0000 19.7610 0.0000
# 6 0.0000 0.0000 0.0000 0.0000 0.0000 23.9057
#
#
#
# Elastic Compliance Matrix: (Units=1/GPa)
#
#
# Indices 1 2 3 4 5 6 
#
# 1 0.013286 -0.006629 -0.004747 0.000000 0.000000 0.000000
# 2 -0.006629 0.022236 -0.011443 0.000000 0.000000 0.000000
# 3 -0.004747 -0.011443 0.033997 0.000000 0.000000 0.000000
# 4 0.000000 0.000000 0.000000 0.040615 0.000000 0.000000
# 5 0.000000 0.000000 0.000000 0.000000 0.050605 0.000000
# 6 0.000000 0.000000 0.000000 0.000000 0.000000 0.041831
#
#
# Mechanical properties :
#
#
# Convention : Reuss Voigt Hill
#
# Bulk Modulus (GPa) = 41.87721 51.59258 46.73490
# Shear Modulus (GPa) = 19.51834 21.54308 20.53071
#
# Velocity S-wave (km/s) = 3.27848 3.44433 3.36243
# Velocity P-wave (km/s) = 6.11492 6.65049 6.38832
#
# Compressibility (1/GPa) = 0.02387934
#
# Stress axis : x y z
#
# Youngs Moduli (GPa) = 75.26679 44.97253 29.41435
#
# Poissons Ratio (x) = 0.29814 0.13963
# Poissons Ratio (y) = 0.49896 0.33660
# Poissons Ratio (z) = 0.35729 0.51464
#
# Static dielectric constant tensor:
#      x y z
#    x 3.309420 0.000000 0.000000 
#    y 0.000000 3.545600 0.000000 
#    z 0.000000 0.000000 3.215140 
# 
# 
# High freq. dielectric constant tensor:
#      x y z
#    x 1.685620 0.000000 0.000000 
#    y 0.000000 1.707200 0.000000 
#    z 0.000000 0.000000 1.682660 
# 
# From -- ./inp_files/14714.got.cif
#   From: 2010.03.12/outbox.cif.g09.slc.cpg/sg65_8_cif.got.tgz:14714.got - 2010.04.10 20:52:16.
