data_PCOD8266828
_publ_section_title
;
Structure prediction by ZEFSAII (Michael W. Deem and Ramdas Pophale) SiO2 
 PCOD8266828
Probable space group: C M M M
;
_chemical_formula_sum "Si O2"
_cell_formula_units_Z 104
_cell_length_a 23.905697
_cell_length_b 8.237148
_cell_length_c 29.307229
_cell_angle_alpha 90.000000
_cell_angle_beta 90.000000
_cell_angle_gamma 90.000000
_cell_volume 5771.026089
_symmetry_space_group_name_H-M "C M M M"
_symmetry_group_IT_number 65
_symmetry_cell_setting 'orthorhombic'
loop_
_space_group_symop_operation_xyz
x,y,z
-x,-y,z
x,-y,-z
-x,y,-z
-x,-y,-z
x,y,-z
-x,y,z
x,-y,z
1/2+x,1/2+y,z
1/2-x,1/2-y,z
1/2+x,1/2-y,-z
1/2-x,1/2+y,-z
1/2-x,1/2-y,-z
1/2+x,1/2+y,-z
1/2-x,1/2+y,z
1/2+x,1/2-y,z
loop_
_atom_site_type_symbol
_atom_site_label
_atom_site_fract_x
_atom_site_fract_y
_atom_site_fract_z
Si Si1 0.311378 0.192565 0.050349
Si Si2 0.434071 0.500000 0.550693
Si Si3 0.812583 0.813995 0.219298
Si Si4 0.500000 0.189835 0.244060
Si Si5 0.887551 0.314494 0.706230
Si Si6 0.880404 0.688725 0.866210
Si Si7 0.065546 0.313412 0.609239
Si Si8 0.500000 0.315397 0.146968
O O1 0.250000 0.250000 0.062953
O O2 0.350397 0.268874 0.089827
O O3 0.313883 0.000000 0.050369
O O4 0.329181 0.257961 0.000000
O O5 0.500000 0.500000 0.547330
O O6 0.407486 0.500000 0.500000
O O7 0.415767 0.329942 0.574629
O O8 0.750000 0.750000 0.214977
O O9 0.837181 0.784886 0.270275
O O10 0.854906 0.742115 0.182050
O O11 0.809071 0.000000 0.208537
O O12 0.446416 0.237789 0.273041
O O13 0.500000 0.306620 0.201210
O O14 0.500000 0.000000 0.229619
O O15 0.874006 0.500000 0.717096
O O16 0.893584 0.284608 0.652258
O O17 0.871149 0.500000 0.868462
O O18 0.945292 0.728171 0.871958
O O19 0.074658 0.500000 0.590438
O O20 0.000000 0.294695 0.622711
O O21 0.500000 0.500000 0.130791
#
# Coordination Sequence:
#
# PCOD8266828 Si02
#       8
#    16   8  16   8  16  16  16   8
#     4   9  19  36  59  84 105 131 171 218 268 321
#     4   9  18  30  44  70 106 144 186 228 269 320
#     4  12  25  38  53  76 107 144 180 217 263 320
#     4  10  18  32  54  75 103 139 178 216 261 306
#     4  10  19  33  53  77 106 140 180 223 265 316
#     4  11  22  38  58  78 107 141 174 217 267 318
#     4   9  17  30  48  72 103 142 182 222 270 324
#     4  12  24  36  51  79 108 137 181 219 259 315
#
# _framework density 18.021058
#
# number of rings (size 3 to 8) (size 9 to 14) (size 15 to 20)
#    0.000    1.769    2.308    3.000    1.077    2.769 
#    0.000    1.923    0.000    2.308    0.000    0.000 
#    0.000    0.615    0.308    0.000    0.000    0.000 
#
# Total GULP energy -644485.626790 kJ/mol
# GULP energy per Si atom -12393.954361 kJ/mol
# Density = 1.798004 g / cm^3
# Si number density = 18.021058 Si / 1000 Ang^3
#
#
#
# Elastic Constant Matrix: (Units=GPa)
#
#
# Indices 1 2 3 4 5 6 
#
# 1 96.8081 26.8265 46.6818 0.0000 0.0000 0.0000
# 2 26.8265 75.9525 41.6620 0.0000 0.0000 0.0000
# 3 46.6818 41.6620 113.6005 0.0000 0.0000 0.0000
# 4 0.0000 0.0000 0.0000 19.4045 0.0000 0.0000
# 5 0.0000 0.0000 0.0000 0.0000 23.2468 0.0000
# 6 0.0000 0.0000 0.0000 0.0000 0.0000 23.3173
#
#
#
# Elastic Compliance Matrix: (Units=1/GPa)
#
#
# Indices 1 2 3 4 5 6 
#
# 1 0.013145 -0.002103 -0.004631 0.000000 0.000000 0.000000
# 2 -0.002103 0.016818 -0.005304 0.000000 0.000000 0.000000
# 3 -0.004631 -0.005304 0.012651 0.000000 0.000000 0.000000
# 4 0.000000 0.000000 0.000000 0.051534 0.000000 0.000000
# 5 0.000000 0.000000 0.000000 0.000000 0.043017 0.000000
# 6 0.000000 0.000000 0.000000 0.000000 0.000000 0.042887
#
#
# Mechanical properties :
#
#
# Convention : Reuss Voigt Hill
#
# Bulk Modulus (GPa) = 53.93842 57.41133 55.67488
# Shear Modulus (GPa) = 23.77483 24.60643 24.19063
#
# Velocity S-wave (km/s) = 3.63613 3.69918 3.66779
# Velocity P-wave (km/s) = 6.90104 7.08324 6.99273
#
# Compressibility (1/GPa) = 0.01853966
#
# Stress axis : x y z
#
# Youngs Moduli (GPa) = 76.07233 59.45964 79.04687
#
# Poissons Ratio (x) = 0.12504 0.36603
# Poissons Ratio (y) = 0.15998 0.41924
# Poissons Ratio (z) = 0.35226 0.31536
#
# Static dielectric constant tensor:
#      x y z
#    x 3.234060 0.000000 0.000000 
#    y 0.000000 3.406920 0.000000 
#    z 0.000000 0.000000 3.514230 
# 
# 
# High freq. dielectric constant tensor:
#      x y z
#    x 1.673400 0.000000 0.000000 
#    y 0.000000 1.704340 0.000000 
#    z 0.000000 0.000000 1.689100 
# 
# From -- ./inp_files/78312.got.cif
#   From: 2010.03.12/outbox.cif.g09.slc.cpg/sg65_40_cif.got.tgz:78312.got - 2010.04.10 20:52:16.
