data_PCOD8266785
_publ_section_title
;
Structure prediction by ZEFSAII (Michael W. Deem and Ramdas Pophale) SiO2 
 PCOD8266785
Probable space group: C M M M
;
_chemical_formula_sum "Si O2"
_cell_formula_units_Z 96
_cell_length_a 8.843830
_cell_length_b 26.009111
_cell_length_c 23.641957
_cell_angle_alpha 90.000000
_cell_angle_beta 90.000000
_cell_angle_gamma 90.000000
_cell_volume 5438.126640
_symmetry_space_group_name_H-M "C M M M"
_symmetry_group_IT_number 65
_symmetry_cell_setting 'orthorhombic'
loop_
_space_group_symop_operation_xyz
x,y,z
-x,-y,z
x,-y,-z
-x,y,-z
-x,-y,-z
x,y,-z
-x,y,z
x,-y,z
1/2+x,1/2+y,z
1/2-x,1/2-y,z
1/2+x,1/2-y,-z
1/2-x,1/2+y,-z
1/2-x,1/2-y,-z
1/2+x,1/2+y,-z
1/2-x,1/2+y,z
1/2+x,1/2-y,z
loop_
_atom_site_type_symbol
_atom_site_label
_atom_site_fract_x
_atom_site_fract_y
_atom_site_fract_z
Si Si1 0.179737 0.095360 0.320475
Si Si2 0.179702 0.900988 0.063472
Si Si3 0.820355 0.000000 0.133297
Si Si4 0.322132 0.302235 0.259661
Si Si5 0.820637 0.500000 0.744115
Si Si6 0.821303 0.197509 0.869446
Si Si7 0.320789 0.557732 0.561357
O O1 0.235689 0.150027 0.296896
O O2 0.258230 0.050531 0.285823
O O3 0.232533 0.092956 0.386268
O O4 0.000000 0.088647 0.313630
O O5 0.233623 0.950432 0.098262
O O6 0.242129 0.849715 0.093696
O O7 0.000000 0.899757 0.061705
O O8 0.245787 0.903782 0.000000
O O9 0.733756 0.000000 0.191822
O O10 0.000000 0.000000 0.144196
O O11 0.500000 0.296446 0.263979
O O12 0.250000 0.250000 0.283928
O O13 0.270039 0.311730 0.195191
O O14 0.000000 0.500000 0.741369
O O15 0.750000 0.250000 0.893354
O O16 0.000000 0.201792 0.874362
O O17 0.262724 0.578909 0.500000
O O18 0.500000 0.555793 0.560592
O O19 0.258135 0.500000 0.570723
#
# Coordination Sequence:
#
# PCOD8266785 Si02
#       7
#    16  16   8  16   8  16  16
#     4  10  18  32  53  74  98 131 170 205 239 292
#     4   9  17  30  51  76  95 115 152 200 240 278
#     4  10  19  34  54  71  93 126 161 193 233 292
#     4   9  18  31  49  71  95 128 166 202 244 288
#     4  12  24  33  46  74 106 131 157 200 255 294
#     4   9  17  30  46  67  94 120 151 193 238 284
#     4   8  13  23  44  74 101 124 158 206 248 280
#
# _framework density 17.653137000000001
#
# number of rings (size 3 to 8) (size 9 to 14) (size 15 to 20)
#    0.000    2.667    0.833    2.500    0.000    4.667 
#    0.000    4.167    0.000    3.500    0.000    0.000 
#    0.000    0.000    0.000    0.000    0.000    0.000 
#
# Total GULP energy -595034.678315 kJ/mol
# GULP energy per Si atom -12396.555798 kJ/mol
# Density = 1.761296 g / cm^3
# Si number density = 17.653137 Si / 1000 Ang^3
#
#
#
# Elastic Constant Matrix: (Units=GPa)
#
#
# Indices 1 2 3 4 5 6 
#
# 1 24.9670 30.8507 25.3521 0.0000 0.0000 0.0000
# 2 30.8507 171.3279 98.2476 0.0000 0.0000 0.0000
# 3 25.3521 98.2476 154.8145 0.0000 0.0000 0.0000
# 4 0.0000 0.0000 0.0000 21.6691 0.0000 0.0000
# 5 0.0000 0.0000 0.0000 0.0000 7.7138 0.0000
# 6 0.0000 0.0000 0.0000 0.0000 0.0000 23.6416
#
#
#
# Elastic Compliance Matrix: (Units=1/GPa)
#
#
# Indices 1 2 3 4 5 6 
#
# 1 0.053147 -0.007199 -0.004135 0.000000 0.000000 0.000000
# 2 -0.007199 0.010151 -0.005263 0.000000 0.000000 0.000000
# 3 -0.004135 -0.005263 0.010477 0.000000 0.000000 0.000000
# 4 0.000000 0.000000 0.000000 0.046149 0.000000 0.000000
# 5 0.000000 0.000000 0.000000 0.000000 0.129638 0.000000
# 6 0.000000 0.000000 0.000000 0.000000 0.000000 0.042298
#
#
# Mechanical properties :
#
#
# Convention : Reuss Voigt Hill
#
# Bulk Modulus (GPa) = 24.64218 73.33446 48.98832
# Shear Modulus (GPa) = 14.76756 23.71550 19.24153
#
# Velocity S-wave (km/s) = 2.89544 3.66924 3.30506
# Velocity P-wave (km/s) = 5.01672 7.71901 6.50963
#
# Compressibility (1/GPa) = 0.04058082
#
# Stress axis : x y z
#
# Youngs Moduli (GPa) = 18.81583 98.50972 95.45130
#
# Poissons Ratio (x) = 0.70918 0.39465
# Poissons Ratio (y) = 0.13546 0.50238
# Poissons Ratio (z) = 0.07780 0.51848
#
# Static dielectric constant tensor:
#      x y z
#    x 2.863420 0.000000 0.000000 
#    y 0.000000 3.452860 0.000000 
#    z 0.000000 0.000000 3.700630 
# 
# 
# High freq. dielectric constant tensor:
#      x y z
#    x 1.639330 0.000000 0.000000 
#    y 0.000000 1.681690 0.000000 
#    z 0.000000 0.000000 1.689330 
# 
# From -- ./inp_files/68102.got.cif
#   From: 2010.03.12/outbox.cif.g09.slc.cpg/sg65_35_cif.got.tgz:68102.got - 2010.04.10 20:52:16.
