data_PCOD8266317
_publ_section_title
;
Structure prediction by ZEFSAII (Michael W. Deem and Ramdas Pophale) SiO2 
 PCOD8266317
Probable space group: C M M M
;
_chemical_formula_sum "Si O2"
_cell_formula_units_Z 112
_cell_length_a 22.918751
_cell_length_b 20.910296
_cell_length_c 13.631689
_cell_angle_alpha 90.000000
_cell_angle_beta 90.000000
_cell_angle_gamma 90.000000
_cell_volume 6532.821565
_symmetry_space_group_name_H-M "C M M M"
_symmetry_group_IT_number 65
_symmetry_cell_setting 'orthorhombic'
loop_
_space_group_symop_operation_xyz
x,y,z
-x,-y,z
x,-y,-z
-x,y,-z
-x,-y,-z
x,y,-z
-x,y,z
x,-y,z
1/2+x,1/2+y,z
1/2-x,1/2-y,z
1/2+x,1/2-y,-z
1/2-x,1/2+y,-z
1/2-x,1/2-y,-z
1/2+x,1/2+y,-z
1/2-x,1/2+y,z
1/2+x,1/2-y,z
loop_
_atom_site_type_symbol
_atom_site_label
_atom_site_fract_x
_atom_site_fract_y
_atom_site_fract_z
Si Si1 0.633217 0.924555 0.115817
Si Si2 0.747691 0.427883 0.209728
Si Si3 0.279107 0.344832 0.610764
Si Si4 0.068223 0.192491 0.111309
Si Si5 0.845264 0.721024 0.390060
Si Si6 0.869721 0.069568 0.886426
Si Si7 0.568439 0.181303 0.773506
O O1 0.692817 0.898032 0.166055
O O2 0.581684 0.883379 0.165547
O O3 0.622432 0.000000 0.135202
O O4 0.635261 0.910915 0.000000
O O5 0.762713 0.500000 0.235845
O O6 0.720257 0.399889 0.308928
O O7 0.699493 0.420942 0.125130
O O8 0.289291 0.371245 0.500000
O O9 0.215535 0.314830 0.617834
O O10 0.330610 0.294635 0.637785
O O11 0.096670 0.129580 0.162336
O O12 0.087596 0.257067 0.164246
O O13 0.000000 0.182421 0.117476
O O14 0.090296 0.199353 0.000000
O O15 0.870041 0.717728 0.500000
O O16 0.894127 0.686174 0.325346
O O17 0.888032 0.000000 0.840240
O O18 0.885822 0.068160 0.000000
O O19 0.500000 0.181603 0.747676
#
# Coordination Sequence:
#
# PCOD8266317 Si02
#       7
#    16  16  16  16  16  16  16
#     4  10  21  36  52  71  97 131 170 210 255 306
#     4  10  18  30  49  72 100 129 160 204 250 292
#     4   9  17  31  52  74  98 126 157 197 241 290
#     4   9  18  31  46  68  98 129 163 203 244 287
#     4   9  18  33  52  74  98 125 158 197 244 294
#     4   9  17  29  46  69  98 132 165 196 238 294
#     4  11  21  34  53  73  98 129 164 211 254 291
#
# _framework density 17.144200000000001
#
# number of rings (size 3 to 8) (size 9 to 14) (size 15 to 20)
#    0.000    2.429    1.429    2.571    0.000    3.714 
#    0.000    2.143    0.000    3.857    0.000    1.000 
#    0.000    0.000    0.000   26.571    0.000    0.286 
#
# Total GULP energy -693963.748661 kJ/mol
# GULP energy per Si atom -12392.209798 kJ/mol
# Density = 1.710518 g / cm^3
# Si number density = 17.144200 Si / 1000 Ang^3
#
#
#
# Elastic Constant Matrix: (Units=GPa)
#
#
# Indices 1 2 3 4 5 6 
#
# 1 44.0521 35.3905 29.7182 0.0000 0.0000 0.0000
# 2 35.3905 86.0062 36.6255 0.0000 0.0000 0.0000
# 3 29.7182 36.6255 78.1010 0.0000 0.0000 0.0000
# 4 0.0000 0.0000 0.0000 25.9467 0.0000 0.0000
# 5 0.0000 0.0000 0.0000 0.0000 21.7065 0.0000
# 6 0.0000 0.0000 0.0000 0.0000 0.0000 27.0793
#
#
#
# Elastic Compliance Matrix: (Units=1/GPa)
#
#
# Indices 1 2 3 4 5 6 
#
# 1 0.038378 -0.011962 -0.008993 0.000000 0.000000 0.000000
# 2 -0.011962 0.018257 -0.004010 0.000000 0.000000 0.000000
# 3 -0.008993 -0.004010 0.018106 0.000000 0.000000 0.000000
# 4 0.000000 0.000000 0.000000 0.038541 0.000000 0.000000
# 5 0.000000 0.000000 0.000000 0.000000 0.046069 0.000000
# 6 0.000000 0.000000 0.000000 0.000000 0.000000 0.036929
#
#
# Mechanical properties :
#
#
# Convention : Reuss Voigt Hill
#
# Bulk Modulus (GPa) = 40.30607 45.73640 43.02123
# Shear Modulus (GPa) = 19.64792 22.04153 20.84472
#
# Velocity S-wave (km/s) = 3.38899 3.58949 3.49068
# Velocity P-wave (km/s) = 6.23496 6.62681 6.43387
#
# Compressibility (1/GPa) = 0.02481016
#
# Stress axis : x y z
#
# Youngs Moduli (GPa) = 26.05688 54.77383 55.22893
#
# Poissons Ratio (x) = 0.65521 0.49670
# Poissons Ratio (y) = 0.31169 0.22146
# Poissons Ratio (z) = 0.23434 0.21964
#
# Static dielectric constant tensor:
#      x y z
#    x 3.068640 0.000000 0.000000 
#    y 0.000000 3.393120 0.000000 
#    z 0.000000 0.000000 3.243090 
# 
# 
# High freq. dielectric constant tensor:
#      x y z
#    x 1.650100 0.000000 0.000000 
#    y 0.000000 1.663190 0.000000 
#    z 0.000000 0.000000 1.650350 
# 
# From -- ./inp_files/29355.got.cif
#   From: 2010.03.12/outbox.cif.g09.slc.cpg/sg65_15_cif.got.tgz:29355.got - 2010.04.10 20:52:16.
