data_PCOD8266470
_publ_section_title
;
Structure prediction by ZEFSAII (Michael W. Deem and Ramdas Pophale) SiO2 
 PCOD8266470
Probable space group: C M M M
;
_chemical_formula_sum "Si O2"
_cell_formula_units_Z 56
_cell_length_a 8.773199
_cell_length_b 18.857898
_cell_length_c 17.797880
_cell_angle_alpha 90.000000
_cell_angle_beta 90.000000
_cell_angle_gamma 90.000000
_cell_volume 2944.554094
_symmetry_space_group_name_H-M "C M M M"
_symmetry_group_IT_number 65
_symmetry_cell_setting 'orthorhombic'
loop_
_space_group_symop_operation_xyz
x,y,z
-x,-y,z
x,-y,-z
-x,y,-z
-x,-y,-z
x,y,-z
-x,y,z
x,-y,z
1/2+x,1/2+y,z
1/2-x,1/2-y,z
1/2+x,1/2-y,-z
1/2-x,1/2+y,-z
1/2-x,1/2-y,-z
1/2+x,1/2+y,-z
1/2-x,1/2+y,z
1/2+x,1/2-y,z
loop_
_atom_site_type_symbol
_atom_site_label
_atom_site_fract_x
_atom_site_fract_y
_atom_site_fract_z
Si Si1 0.818266 0.671644 0.500000
Si Si2 0.177921 0.081274 0.206121
Si Si3 0.821039 0.322959 0.085557
Si Si4 0.180464 0.827221 0.349404
O O1 0.750000 0.750000 0.500000
O O2 0.753719 0.635916 0.576151
O O3 0.000000 0.671511 0.500000
O O4 0.266058 0.111074 0.134375
O O5 0.227031 0.122987 0.280593
O O6 0.000000 0.089948 0.190490
O O7 0.225328 0.000000 0.217137
O O8 0.750000 0.250000 0.116886
O O9 0.000000 0.315543 0.091942
O O10 0.767933 0.336408 0.000000
O O11 0.250000 0.750000 0.334166
O O12 0.000000 0.820492 0.359900
#
# Coordination Sequence:
#
# PCOD8266470 Si02
#       4
#     8  16  16  16
#     4  10  18  30  51  78 105 133 171 217 265 314
#     4  10  22  38  55  78 109 145 182 219 264 318
#     4  10  21  37  58  83 109 139 177 221 268 317
#     4  10  19  33  54  78 105 136 174 219 265 314
#
# _framework density 19.018160999999999
#
# number of rings (size 3 to 8) (size 9 to 14) (size 15 to 20)
#    0.000    2.000    0.000    5.571    0.000    7.429 
#    0.000    3.571    0.000    4.286    0.000    0.000 
#    0.000    0.000    0.000    0.000    0.000    0.000 
#
# Total GULP energy -347243.814213 kJ/mol
# GULP energy per Si atom -12401.564793 kJ/mol
# Density = 1.897487 g / cm^3
# Si number density = 19.018161 Si / 1000 Ang^3
#
#
#
# Elastic Constant Matrix: (Units=GPa)
#
#
# Indices 1 2 3 4 5 6 
#
# 1 88.4843 42.9380 57.9708 0.0000 0.0000 0.0000
# 2 42.9380 109.7544 74.2463 0.0000 0.0000 0.0000
# 3 57.9708 74.2463 141.7103 0.0000 0.0000 0.0000
# 4 0.0000 0.0000 0.0000 7.7130 0.0000 0.0000
# 5 0.0000 0.0000 0.0000 0.0000 34.9283 0.0000
# 6 0.0000 0.0000 0.0000 0.0000 0.0000 26.3360
#
#
#
# Elastic Compliance Matrix: (Units=1/GPa)
#
#
# Indices 1 2 3 4 5 6 
#
# 1 0.015989 -0.002836 -0.005055 0.000000 0.000000 0.000000
# 2 -0.002836 0.014616 -0.006498 0.000000 0.000000 0.000000
# 3 -0.005055 -0.006498 0.012529 0.000000 0.000000 0.000000
# 4 0.000000 0.000000 0.000000 0.129652 0.000000 0.000000
# 5 0.000000 0.000000 0.000000 0.000000 0.028630 0.000000
# 6 0.000000 0.000000 0.000000 0.000000 0.000000 0.037971
#
#
# Mechanical properties :
#
#
# Convention : Reuss Voigt Hill
#
# Bulk Modulus (GPa) = 69.65136 76.69547 73.17342
# Shear Modulus (GPa) = 18.31830 24.78172 21.55001
#
# Velocity S-wave (km/s) = 3.10691 3.61370 3.36985
# Velocity P-wave (km/s) = 7.04086 7.60440 7.32805
#
# Compressibility (1/GPa) = 0.01435722
#
# Stress axis : x y z
#
# Youngs Moduli (GPa) = 62.54134 68.41684 79.81383
#
# Poissons Ratio (x) = 0.19400 0.40348
# Poissons Ratio (y) = 0.17734 0.51863
# Poissons Ratio (z) = 0.31617 0.44457
#
# Static dielectric constant tensor:
#      x y z
#    x 3.493430 0.000000 0.000000 
#    y 0.000000 3.280530 0.000000 
#    z 0.000000 0.000000 4.022960 
# 
# 
# High freq. dielectric constant tensor:
#      x y z
#    x 1.748160 0.000000 0.000000 
#    y 0.000000 1.712010 0.000000 
#    z 0.000000 0.000000 1.759030 
# 
# From -- ./inp_files/48748.got.cif
#   From: 2010.03.12/outbox.cif.g09.slc.cpg/sg65_25_cif.got.tgz:48748.got - 2010.04.10 20:52:16.
