data_PCOD8266357
_publ_section_title
;
Structure prediction by ZEFSAII (Michael W. Deem and Ramdas Pophale) SiO2 
 PCOD8266357
Probable space group: C M M M
;
_chemical_formula_sum "Si O2"
_cell_formula_units_Z 64
_cell_length_a 8.606488
_cell_length_b 18.051629
_cell_length_c 20.866722
_cell_angle_alpha 90.000000
_cell_angle_beta 90.000000
_cell_angle_gamma 90.000000
_cell_volume 3241.877475
_symmetry_space_group_name_H-M "C M M M"
_symmetry_group_IT_number 65
_symmetry_cell_setting 'orthorhombic'
loop_
_space_group_symop_operation_xyz
x,y,z
-x,-y,z
x,-y,-z
-x,y,-z
-x,-y,-z
x,y,-z
-x,y,z
x,-y,z
1/2+x,1/2+y,z
1/2-x,1/2-y,z
1/2+x,1/2-y,-z
1/2-x,1/2+y,-z
1/2-x,1/2-y,-z
1/2+x,1/2+y,-z
1/2-x,1/2+y,z
1/2+x,1/2-y,z
loop_
_atom_site_type_symbol
_atom_site_label
_atom_site_fract_x
_atom_site_fract_y
_atom_site_fract_z
Si Si1 0.315311 0.916920 0.244676
Si Si2 0.184282 0.167539 0.500000
Si Si3 0.316113 0.831434 0.879632
Si Si4 0.178333 0.912458 0.000000
Si Si5 0.315648 0.168128 0.629944
O O1 0.500000 0.918973 0.242931
O O2 0.251623 0.867943 0.185809
O O3 0.257051 0.881307 0.310948
O O4 0.247656 0.000000 0.239175
O O5 0.250000 0.250000 0.500000
O O6 0.248770 0.129748 0.565011
O O7 0.000000 0.166884 0.500000
O O8 0.500000 0.826946 0.879118
O O9 0.250000 0.750000 0.887654
O O10 0.262704 0.882080 0.937691
O O11 0.000000 0.886455 0.000000
O O12 0.194496 0.000000 0.000000
O O13 0.500000 0.172127 0.625518
O O14 0.250000 0.250000 0.639872
#
# Coordination Sequence:
#
# PCOD8266357 Si02
#       5
#    16   8  16   8  16
#     4   9  19  35  55  80 108 140 180 224 270 323
#     4  10  18  30  49  74 105 137 175 219 263 316
#     4  11  22  38  61  86 114 147 186 229 273 324
#     4  11  24  41  60  85 117 149 184 227 274 325
#     4  10  18  31  53  78 105 136 174 220 267 318
#
# _framework density 19.741647
#
# number of rings (size 3 to 8) (size 9 to 14) (size 15 to 20)
#    0.000    1.875    0.000    6.375    0.000    2.000 
#    0.000    4.375    0.000   12.750    0.000    0.000 
#    0.000    0.000    0.000    0.000    0.000    0.000 
#
# Total GULP energy -396815.931701 kJ/mol
# GULP energy per Si atom -12400.497866 kJ/mol
# Density = 1.969671 g / cm^3
# Si number density = 19.741647 Si / 1000 Ang^3
#
#
#
# Elastic Constant Matrix: (Units=GPa)
#
#
# Indices 1 2 3 4 5 6 
#
# 1 88.0892 25.6772 44.6592 0.0000 0.0000 0.0000
# 2 25.6772 88.1411 49.4247 0.0000 0.0000 0.0000
# 3 44.6592 49.4247 184.1048 0.0000 0.0000 0.0000
# 4 0.0000 0.0000 0.0000 12.7225 0.0000 0.0000
# 5 0.0000 0.0000 0.0000 0.0000 6.5255 0.0000
# 6 0.0000 0.0000 0.0000 0.0000 0.0000 17.7110
#
#
#
# Elastic Compliance Matrix: (Units=1/GPa)
#
#
# Indices 1 2 3 4 5 6 
#
# 1 0.013377 -0.002446 -0.002588 0.000000 0.000000 0.000000
# 2 -0.002446 0.013803 -0.003112 0.000000 0.000000 0.000000
# 3 -0.002588 -0.003112 0.006895 0.000000 0.000000 0.000000
# 4 0.000000 0.000000 0.000000 0.078601 0.000000 0.000000
# 5 0.000000 0.000000 0.000000 0.000000 0.153244 0.000000
# 6 0.000000 0.000000 0.000000 0.000000 0.000000 0.056462
#
#
# Mechanical properties :
#
#
# Convention : Reuss Voigt Hill
#
# Bulk Modulus (GPa) = 56.23425 66.65081 61.44253
# Shear Modulus (GPa) = 14.50946 23.43007 18.96976
#
# Velocity S-wave (km/s) = 2.71397 3.44878 3.10320
# Velocity P-wave (km/s) = 6.19417 7.04937 6.63556
#
# Compressibility (1/GPa) = 0.01778276
#
# Stress axis : x y z
#
# Youngs Moduli (GPa) = 74.75354 72.44731 145.03006
#
# Poissons Ratio (x) = 0.17718 0.37540
# Poissons Ratio (y) = 0.18282 0.45138
# Poissons Ratio (z) = 0.19350 0.22548
#
# Static dielectric constant tensor:
#      x y z
#    x 3.489790 0.000000 0.000000 
#    y 0.000000 3.559140 0.000000 
#    z 0.000000 0.000000 4.263000 
# 
# 
# High freq. dielectric constant tensor:
#      x y z
#    x 1.759250 0.000000 0.000000 
#    y 0.000000 1.756990 0.000000 
#    z 0.000000 0.000000 1.796720 
# 
# From -- ./inp_files/58768.got.cif
#   From: 2010.03.12/outbox.cif.g09.slc.cpg/sg65_30_cif.got.tgz:58768.got - 2010.04.10 20:52:16.
