data_PCOD8266904
_publ_section_title
;
Structure prediction by ZEFSAII (Michael W. Deem and Ramdas Pophale) SiO2 
 PCOD8266904
Probable space group: C M M M
;
_chemical_formula_sum "Si O2"
_cell_formula_units_Z 104
_cell_length_a 21.693178
_cell_length_b 15.452272
_cell_length_c 16.716347
_cell_angle_alpha 90.000000
_cell_angle_beta 90.000000
_cell_angle_gamma 90.000000
_cell_volume 5603.468073
_symmetry_space_group_name_H-M "C M M M"
_symmetry_group_IT_number 65
_symmetry_cell_setting 'orthorhombic'
loop_
_space_group_symop_operation_xyz
x,y,z
-x,-y,z
x,-y,-z
-x,y,-z
-x,-y,-z
x,y,-z
-x,y,z
x,-y,z
1/2+x,1/2+y,z
1/2-x,1/2-y,z
1/2+x,1/2-y,-z
1/2-x,1/2+y,-z
1/2-x,1/2-y,-z
1/2+x,1/2+y,-z
1/2-x,1/2+y,z
1/2+x,1/2-y,z
loop_
_atom_site_type_symbol
_atom_site_label
_atom_site_fract_x
_atom_site_fract_y
_atom_site_fract_z
Si Si1 0.235095 0.096534 0.332906
Si Si2 0.640570 0.404304 0.811437
Si Si3 0.432097 0.500000 0.594082
Si Si4 0.842565 0.598189 0.222697
Si Si5 0.631761 0.677013 0.591724
Si Si6 0.748758 0.349977 0.907838
Si Si7 0.072614 0.748927 0.259757
O O1 0.191244 0.100042 0.256882
O O2 0.302457 0.124550 0.301779
O O3 0.206070 0.164519 0.397169
O O4 0.237960 0.000000 0.370331
O O5 0.609800 0.500000 0.816259
O O6 0.679462 0.385353 0.892041
O O7 0.588412 0.332424 0.794763
O O8 0.500000 0.500000 0.633701
O O9 0.438339 0.500000 0.500000
O O10 0.396247 0.414894 0.621672
O O11 0.867028 0.500000 0.231568
O O12 0.801005 0.601654 0.143273
O O13 0.899896 0.663468 0.217574
O O14 0.616152 0.700847 0.500000
O O15 0.600952 0.746769 0.650228
O O16 0.750000 0.250000 0.883290
O O17 0.765199 0.365319 0.000000
O O18 0.000000 0.738436 0.266078
#
# Coordination Sequence:
#
# PCOD8266904 Si02
#       7
#    16  16   8  16  16  16  16
#     4   8  15  29  50  75 104 135 166 213 275 330
#     4   9  18  32  51  79 113 144 175 213 265 333
#     4   9  16  26  42  70 108 144 172 206 260 325
#     4  10  21  38  58  80 108 142 187 234 272 320
#     4  10  19  31  51  78 108 140 177 228 281 334
#     4  10  18  32  60  93 120 142 169 217 278 333
#     4  11  23  37  54  75 106 149 194 234 275 323
#
# _framework density 18.559933999999998
#
# number of rings (size 3 to 8) (size 9 to 14) (size 15 to 20)
#    0.000    2.385    2.308    1.846    1.077    2.769 
#    0.000    1.538    0.000    3.231    0.000    3.231 
#    0.000    0.000    0.000    0.000    0.000    0.000 
#
# Total GULP energy -644496.129553 kJ/mol
# GULP energy per Si atom -12394.156338 kJ/mol
# Density = 1.851769 g / cm^3
# Si number density = 18.559934 Si / 1000 Ang^3
#
#
#
# Elastic Constant Matrix: (Units=GPa)
#
#
# Indices 1 2 3 4 5 6 
#
# 1 86.3456 49.1446 28.4542 0.0000 0.0000 0.0000
# 2 49.1446 99.9844 25.8514 0.0000 0.0000 0.0000
# 3 28.4542 25.8514 61.0655 0.0000 0.0000 0.0000
# 4 0.0000 0.0000 0.0000 20.2553 0.0000 0.0000
# 5 0.0000 0.0000 0.0000 0.0000 13.7748 0.0000
# 6 0.0000 0.0000 0.0000 0.0000 0.0000 13.9634
#
#
#
# Elastic Compliance Matrix: (Units=1/GPa)
#
#
# Indices 1 2 3 4 5 6 
#
# 1 0.017352 -0.007230 -0.005025 0.000000 0.000000 0.000000
# 2 -0.007230 0.014243 -0.002661 0.000000 0.000000 0.000000
# 3 -0.005025 -0.002661 0.019844 0.000000 0.000000 0.000000
# 4 0.000000 0.000000 0.000000 0.049370 0.000000 0.000000
# 5 0.000000 0.000000 0.000000 0.000000 0.072596 0.000000
# 6 0.000000 0.000000 0.000000 0.000000 0.000000 0.071616
#
#
# Mechanical properties :
#
#
# Convention : Reuss Voigt Hill
#
# Bulk Modulus (GPa) = 46.27902 50.47731 48.37816
# Shear Modulus (GPa) = 17.72707 19.19505 18.46106
#
# Velocity S-wave (km/s) = 3.09386 3.21942 3.15726
# Velocity P-wave (km/s) = 6.14424 6.40902 6.27802
#
# Compressibility (1/GPa) = 0.02160806
#
# Stress axis : x y z
#
# Youngs Moduli (GPa) = 57.62975 70.20917 50.39394
#
# Poissons Ratio (x) = 0.50760 0.25322
# Poissons Ratio (y) = 0.41665 0.13409
# Poissons Ratio (z) = 0.28958 0.18682
#
# Static dielectric constant tensor:
#      x y z
#    x 3.345960 0.000000 0.000000 
#    y 0.000000 3.462830 0.000000 
#    z 0.000000 0.000000 3.304240 
# 
# 
# High freq. dielectric constant tensor:
#      x y z
#    x 1.691540 0.000000 0.000000 
#    y 0.000000 1.717760 0.000000 
#    z 0.000000 0.000000 1.697840 
# 
# From -- ./inp_files/55841.got.cif
#   From: 2010.03.12/outbox.cif.g09.slc.cpg/sg65_28_cif.got.tgz:55841.got - 2010.04.10 20:52:16.
