data_PCOD8266440
_publ_section_title
;
Structure prediction by ZEFSAII (Michael W. Deem and Ramdas Pophale) SiO2 
 PCOD8266440
Probable space group: C M M M
;
_chemical_formula_sum "Si O2"
_cell_formula_units_Z 104
_cell_length_a 7.880948
_cell_length_b 28.748217
_cell_length_c 25.245778
_cell_angle_alpha 90.000000
_cell_angle_beta 90.000000
_cell_angle_gamma 90.000000
_cell_volume 5719.764333
_symmetry_space_group_name_H-M "C M M M"
_symmetry_group_IT_number 65
_symmetry_cell_setting 'orthorhombic'
loop_
_space_group_symop_operation_xyz
x,y,z
-x,-y,z
x,-y,-z
-x,y,-z
-x,-y,-z
x,y,-z
-x,y,z
x,-y,z
1/2+x,1/2+y,z
1/2-x,1/2-y,z
1/2+x,1/2-y,-z
1/2-x,1/2+y,-z
1/2-x,1/2-y,-z
1/2+x,1/2+y,-z
1/2-x,1/2+y,z
1/2+x,1/2-y,z
loop_
_atom_site_type_symbol
_atom_site_label
_atom_site_fract_x
_atom_site_fract_y
_atom_site_fract_z
Si Si1 0.696290 0.945240 0.633768
Si Si2 0.194949 0.603530 0.260730
Si Si3 0.198767 0.199858 0.773679
Si Si4 0.304491 0.892986 0.942246
Si Si5 0.000000 0.055010 0.441068
Si Si6 0.300825 0.699859 0.893818
Si Si7 0.797191 0.447174 0.157728
O O1 0.500000 0.931826 0.619415
O O2 0.767553 0.918976 0.685777
O O3 0.825391 0.929074 0.587623
O O4 0.709519 0.000000 0.644636
O O5 0.219713 0.659115 0.261525
O O6 0.279268 0.580649 0.208242
O O7 0.000000 0.589983 0.259508
O O8 0.250000 0.250000 0.749576
O O9 0.269075 0.195848 0.833636
O O10 0.000000 0.193558 0.772127
O O11 0.500000 0.906376 0.945876
O O12 0.288774 0.838557 0.929463
O O13 0.219904 0.923895 0.895679
O O14 0.220014 0.903168 0.000000
O O15 0.000000 0.076920 0.500000
O O16 0.000000 0.000000 0.444576
O O17 0.500000 0.692192 0.895995
O O18 0.250000 0.750000 0.917170
O O19 0.733637 0.500000 0.160744
O O20 0.000000 0.443901 0.156933
#
# Coordination Sequence:
#
# PCOD8266440 Si02
#       7
#    16  16  16  16   8  16  16
#     4   9  18  31  48  75 109 145 184 223 261 303
#     4  10  18  30  51  74 101 134 165 206 254 302
#     4  10  20  32  49  72  98 128 160 197 249 309
#     4  10  20  33  49  69  92 119 156 201 248 298
#     4   9  18  32  50  74 108 150 189 223 261 301
#     4  10  20  34  52  71  92 118 153 194 246 306
#     4   9  17  30  49  71  94 123 160 201 248 300
#
# _framework density 18.182566999999999
#
# number of rings (size 3 to 8) (size 9 to 14) (size 15 to 20)
#    0.000    2.385    1.538    1.385    1.077    4.308 
#    0.000    3.077    0.000    1.385    0.000    1.077 
#    0.000    0.615    0.308    0.000    0.000    0.000 
#
# Total GULP energy -644638.785827 kJ/mol
# GULP energy per Si atom -12396.899727 kJ/mol
# Density = 1.814118 g / cm^3
# Si number density = 18.182567 Si / 1000 Ang^3
#
#
#
# Elastic Constant Matrix: (Units=GPa)
#
#
# Indices 1 2 3 4 5 6 
#
# 1 44.7225 8.6093 36.2223 0.0000 0.0000 0.0000
# 2 8.6093 105.8015 57.3187 0.0000 0.0000 0.0000
# 3 36.2223 57.3187 144.0786 0.0000 0.0000 0.0000
# 4 0.0000 0.0000 0.0000 17.8394 0.0000 0.0000
# 5 0.0000 0.0000 0.0000 0.0000 15.3181 0.0000
# 6 0.0000 0.0000 0.0000 0.0000 0.0000 18.6315
#
#
#
# Elastic Compliance Matrix: (Units=1/GPa)
#
#
# Indices 1 2 3 4 5 6 
#
# 1 0.028401 0.001985 -0.007930 0.000000 0.000000 0.000000
# 2 0.001985 0.012187 -0.005347 0.000000 0.000000 0.000000
# 3 -0.007930 -0.005347 0.011062 0.000000 0.000000 0.000000
# 4 0.000000 0.000000 0.000000 0.056056 0.000000 0.000000
# 5 0.000000 0.000000 0.000000 0.000000 0.065282 0.000000
# 6 0.000000 0.000000 0.000000 0.000000 0.000000 0.053672
#
#
# Mechanical properties :
#
#
# Convention : Reuss Voigt Hill
#
# Bulk Modulus (GPa) = 34.40573 55.43367 44.91970
# Shear Modulus (GPa) = 19.31003 23.18795 21.24899
#
# Velocity S-wave (km/s) = 3.26238 3.57499 3.42226
# Velocity P-wave (km/s) = 5.75798 6.89885 6.35407
#
# Compressibility (1/GPa) = 0.02906493
#
# Stress axis : x y z
#
# Youngs Moduli (GPa) = 35.21050 82.05357 90.40254
#
# Poissons Ratio (x) = -0.16288 0.71687
# Poissons Ratio (y) = -0.06989 0.48342
# Poissons Ratio (z) = 0.27921 0.43878
#
# Static dielectric constant tensor:
#      x y z
#    x 3.177840 0.000000 0.000000 
#    y 0.000000 2.617170 0.000000 
#    z 0.000000 0.000000 3.472750 
# 
# 
# High freq. dielectric constant tensor:
#      x y z
#    x 1.693590 0.000000 0.000000 
#    y 0.000000 1.692720 0.000000 
#    z 0.000000 0.000000 1.676640 
# 
# From -- ./inp_files/68495.got.cif
#   From: 2010.03.12/outbox.cif.g09.slc.cpg/sg65_35_cif.got.tgz:68495.got - 2010.04.10 20:52:16.
