data_PCOD8266939
_publ_section_title
;
Structure prediction by ZEFSAII (Michael W. Deem and Ramdas Pophale) SiO2 
 PCOD8266939
Probable space group: C M M M
;
_chemical_formula_sum "Si O2"
_cell_formula_units_Z 104
_cell_length_a 15.047578
_cell_length_b 25.630021
_cell_length_c 14.371825
_cell_angle_alpha 90.000000
_cell_angle_beta 90.000000
_cell_angle_gamma 90.000000
_cell_volume 5542.778013
_symmetry_space_group_name_H-M "C M M M"
_symmetry_group_IT_number 65
_symmetry_cell_setting 'orthorhombic'
loop_
_space_group_symop_operation_xyz
x,y,z
-x,-y,z
x,-y,-z
-x,y,-z
-x,-y,-z
x,y,-z
-x,y,z
x,-y,z
1/2+x,1/2+y,z
1/2-x,1/2-y,z
1/2+x,1/2-y,-z
1/2-x,1/2+y,-z
1/2-x,1/2-y,-z
1/2+x,1/2+y,-z
1/2-x,1/2+y,z
1/2+x,1/2-y,z
loop_
_atom_site_type_symbol
_atom_site_label
_atom_site_fract_x
_atom_site_fract_y
_atom_site_fract_z
Si Si1 0.728535 0.145332 0.889826
Si Si2 0.903951 0.836827 0.785106
Si Si3 0.346484 0.386178 0.394073
Si Si4 0.695709 0.803310 0.396423
Si Si5 0.899768 0.285069 0.782438
Si Si6 0.900119 0.000000 0.391869
Si Si7 0.902015 0.557634 0.110532
O O1 0.825573 0.138059 0.845550
O O2 0.673326 0.195548 0.856421
O O3 0.672742 0.096207 0.851792
O O4 0.739050 0.147897 0.000000
O O5 0.910422 0.858700 0.680204
O O6 0.886250 0.776079 0.779519
O O7 0.000000 0.848306 0.832403
O O8 0.383229 0.379424 0.500000
O O9 0.252487 0.356477 0.385355
O O10 0.343357 0.447856 0.366119
O O11 0.654441 0.800831 0.500000
O O12 0.750000 0.750000 0.377154
O O13 0.618027 0.807866 0.320580
O O14 0.000000 0.300583 0.812788
O O15 0.916699 0.000000 0.500000
O O16 0.000000 0.000000 0.345238
O O17 0.879960 0.500000 0.148300
O O18 0.000000 0.575115 0.145668
O O19 0.901443 0.557954 0.000000
#
# Coordination Sequence:
#
# PCOD8266939 Si02
#       7
#    16  16  16  16  16   8  16
#     4  11  22  38  57  77 108 147 187 234 290 342
#     4  11  23  37  54  80 112 147 189 230 279 343
#     4  10  19  35  60  83 112 150 187 230 282 331
#     4  10  18  33  56  82 113 147 184 226 281 349
#     4  11  22  36  55  80 111 144 185 236 287 341
#     4   9  18  32  52  84 118 148 191 240 278 326
#     4   8  15  31  57  85 106 128 171 232 289 338
#
# _framework density 18.763155000000001
#
# number of rings (size 3 to 8) (size 9 to 14) (size 15 to 20)
#    0.000    1.923    3.077    1.846    0.000    3.692 
#    1.385    3.077    0.000    0.000    0.000    2.154 
#    0.000    3.077    0.000    0.154    0.000    0.154 
#
# Total GULP energy -644332.759140 kJ/mol
# GULP energy per Si atom -12391.014599 kJ/mol
# Density = 1.872045 g / cm^3
# Si number density = 18.763155 Si / 1000 Ang^3
#
#
#
# Elastic Constant Matrix: (Units=GPa)
#
#
# Indices 1 2 3 4 5 6 
#
# 1 130.4557 63.4147 49.8740 0.0000 0.0000 0.0000
# 2 63.4147 122.8410 28.2291 0.0000 0.0000 0.0000
# 3 49.8740 28.2291 79.7773 0.0000 0.0000 0.0000
# 4 0.0000 0.0000 0.0000 22.3857 0.0000 0.0000
# 5 0.0000 0.0000 0.0000 0.0000 18.0623 0.0000
# 6 0.0000 0.0000 0.0000 0.0000 0.0000 567.3101
#
#
#
# Elastic Compliance Matrix: (Units=1/GPa)
#
#
# Indices 1 2 3 4 5 6 
#
# 1 0.012389 -0.005024 -0.005967 0.000000 0.000000 0.000000
# 2 -0.005024 0.010899 -0.000715 0.000000 0.000000 0.000000
# 3 -0.005967 -0.000715 0.016519 0.000000 0.000000 0.000000
# 4 0.000000 0.000000 0.000000 0.044671 0.000000 0.000000
# 5 0.000000 0.000000 0.000000 0.000000 0.055364 0.000000
# 6 0.000000 0.000000 0.000000 0.000000 0.000000 0.001763
#
#
# Mechanical properties :
#
#
# Convention : Reuss Voigt Hill
#
# Bulk Modulus (GPa) = 61.00486 68.45662 64.73074
# Shear Modulus (GPa) = 29.32841 134.32203 81.82522
#
# Velocity S-wave (km/s) = 3.95788 8.47016 6.61091
# Velocity P-wave (km/s) = 7.31232 11.49878 9.63566
#
# Compressibility (1/GPa) = 0.01639214
#
# Stress axis : x y z
#
# Youngs Moduli (GPa) = 80.71563 91.75340 60.53752
#
# Poissons Ratio (x) = 0.46100 0.36125
# Poissons Ratio (y) = 0.40555 0.04331
# Poissons Ratio (z) = 0.48166 0.06564
#
# Static dielectric constant tensor:
#      x y z
#    x 3.503990 0.000000 0.000000 
#    y 0.000000 3.769890 0.000000 
#    z 0.000000 0.000000 3.329780 
# 
# 
# High freq. dielectric constant tensor:
#      x y z
#    x 1.718600 0.000000 0.000000 
#    y 0.000000 1.731050 0.000000 
#    z 0.000000 0.000000 1.709480 
# 
# From -- ./inp_files/40757.got.cif
#   From: 2010.03.12/outbox.cif.g09.slc.cpg/sg65_21_cif.got.tgz:40757.got - 2010.04.10 20:52:16.
