data_PCOD8266662
_publ_section_title
;
Structure prediction by ZEFSAII (Michael W. Deem and Ramdas Pophale) SiO2 
 PCOD8266662
Probable space group: C M M M
;
_chemical_formula_sum "Si O2"
_cell_formula_units_Z 104
_cell_length_a 21.494546
_cell_length_b 27.926100
_cell_length_c 9.532869
_cell_angle_alpha 90.000000
_cell_angle_beta 90.000000
_cell_angle_gamma 90.000000
_cell_volume 5722.188898
_symmetry_space_group_name_H-M "C M M M"
_symmetry_group_IT_number 65
_symmetry_cell_setting 'orthorhombic'
loop_
_space_group_symop_operation_xyz
x,y,z
-x,-y,z
x,-y,-z
-x,y,-z
-x,-y,-z
x,y,-z
-x,y,z
x,-y,z
1/2+x,1/2+y,z
1/2-x,1/2-y,z
1/2+x,1/2-y,-z
1/2-x,1/2+y,-z
1/2-x,1/2-y,-z
1/2+x,1/2+y,-z
1/2-x,1/2+y,z
1/2+x,1/2-y,z
loop_
_atom_site_type_symbol
_atom_site_label
_atom_site_fract_x
_atom_site_fract_y
_atom_site_fract_z
Si Si1 0.500000 0.552536 0.334193
Si Si2 0.859695 0.382731 0.662870
Si Si3 0.071166 0.288147 0.338636
Si Si4 0.927892 0.551602 0.848940
Si Si5 0.379297 0.390939 0.333628
Si Si6 0.071974 0.194031 0.835236
Si Si7 0.755039 0.945171 0.666247
O O1 0.500000 0.500000 0.265434
O O2 0.500000 0.548234 0.500000
O O3 0.560997 0.579673 0.283572
O O4 0.860752 0.391710 0.500000
O O5 0.874849 0.327251 0.696249
O O6 0.916811 0.410940 0.727555
O O7 0.796527 0.407089 0.724745
O O8 0.078470 0.270803 0.500000
O O9 0.084826 0.245706 0.231246
O O10 0.000000 0.307402 0.316641
O O11 0.897581 0.500000 0.810436
O O12 0.000000 0.544557 0.863908
O O13 0.900974 0.569218 0.000000
O O14 0.379077 0.379367 0.500000
O O15 0.381613 0.341902 0.245499
O O16 0.320677 0.422814 0.287699
O O17 0.000000 0.179343 0.810199
O O18 0.088146 0.195340 0.000000
O O19 0.751253 0.947659 0.500000
O O20 0.747766 0.000000 0.725266
#
# Coordination Sequence:
#
# PCOD8266662 Si02
#       7
#     8  16  16  16  16  16  16
#     4   9  16  26  47  79 105 127 165 211 250 297
#     4  10  19  32  51  75 102 134 172 216 262 303
#     4   9  18  32  51  75 102 131 169 214 258 308
#     4   9  18  31  46  67  97 132 170 213 260 310
#     4  10  18  31  53  78 104 136 172 210 253 303
#     4  10  20  34  53  77 104 132 165 210 265 316
#     4   9  18  32  51  77 108 139 172 211 254 303
#
# _framework density 18.174862999999998
#
# number of rings (size 3 to 8) (size 9 to 14) (size 15 to 20)
#    0.000    2.538    0.769    2.308    0.000    4.923 
#    0.000    3.846    0.000    7.846    0.000    0.000 
#    0.000    0.000    0.000    0.000    0.000    0.000 
#
# Total GULP energy -644232.505272 kJ/mol
# GULP energy per Si atom -12389.086640 kJ/mol
# Density = 1.813350 g / cm^3
# Si number density = 18.174863 Si / 1000 Ang^3
#
#
#
# Elastic Constant Matrix: (Units=GPa)
#
#
# Indices 1 2 3 4 5 6 
#
# 1 83.6342 60.6864 36.9412 0.0000 0.0000 0.0000
# 2 60.6864 127.4608 59.2447 0.0000 0.0000 0.0000
# 3 36.9412 59.2447 41.0831 0.0000 0.0000 0.0000
# 4 0.0000 0.0000 0.0000 10.6930 0.0000 0.0000
# 5 0.0000 0.0000 0.0000 0.0000 10.6042 0.0000
# 6 0.0000 0.0000 0.0000 0.0000 0.0000 30.6839
#
#
#
# Elastic Compliance Matrix: (Units=1/GPa)
#
#
# Indices 1 2 3 4 5 6 
#
# 1 0.020363 -0.003593 -0.013129 0.000000 0.000000 0.000000
# 2 -0.003593 0.024429 -0.031997 0.000000 0.000000 0.000000
# 3 -0.013129 -0.031997 0.082289 0.000000 0.000000 0.000000
# 4 0.000000 0.000000 0.000000 0.093519 0.000000 0.000000
# 5 0.000000 0.000000 0.000000 0.000000 0.094303 0.000000
# 6 0.000000 0.000000 0.000000 0.000000 0.000000 0.032590
#
#
# Mechanical properties :
#
#
# Convention : Reuss Voigt Hill
#
# Bulk Modulus (GPa) = 33.73585 62.88030 48.30808
# Shear Modulus (GPa) = 10.99356 16.74992 13.87174
#
# Velocity S-wave (km/s) = 2.46209 3.03908 2.76567
# Velocity P-wave (km/s) = 5.16572 6.85472 6.06926
#
# Compressibility (1/GPa) = 0.02964206
#
# Stress axis : x y z
#
# Youngs Moduli (GPa) = 49.10910 40.93543 12.15231
#
# Poissons Ratio (x) = 0.14706 0.15955
# Poissons Ratio (y) = 0.17643 0.38884
# Poissons Ratio (z) = 0.64476 1.30983
#
# Static dielectric constant tensor:
#      x y z
#    x 3.368030 0.000000 0.000000 
#    y 0.000000 3.445050 0.000000 
#    z 0.000000 0.000000 3.122450 
# 
# 
# High freq. dielectric constant tensor:
#      x y z
#    x 1.689060 0.000000 0.000000 
#    y 0.000000 1.709220 0.000000 
#    z 0.000000 0.000000 1.678440 
# 
# From -- ./inp_files/12815.got.cif
#   From: 2010.03.12/outbox.cif.g09.slc.cpg/sg65_7_cif.got.tgz:12815.got - 2010.04.10 20:52:16.
