data_PCOD8266607
_publ_section_title
;
Structure prediction by ZEFSAII (Michael W. Deem and Ramdas Pophale) SiO2 
 PCOD8266607
Probable space group: C M M M
;
_chemical_formula_sum "Si O2"
_cell_formula_units_Z 80
_cell_length_a 10.220941
_cell_length_b 17.885885
_cell_length_c 24.368450
_cell_angle_alpha 90.000000
_cell_angle_beta 90.000000
_cell_angle_gamma 90.000000
_cell_volume 4454.810364
_symmetry_space_group_name_H-M "C M M M"
_symmetry_group_IT_number 65
_symmetry_cell_setting 'orthorhombic'
loop_
_space_group_symop_operation_xyz
x,y,z
-x,-y,z
x,-y,-z
-x,y,-z
-x,-y,-z
x,y,-z
-x,y,z
x,-y,z
1/2+x,1/2+y,z
1/2-x,1/2-y,z
1/2+x,1/2-y,-z
1/2-x,1/2+y,-z
1/2-x,1/2-y,-z
1/2+x,1/2+y,-z
1/2-x,1/2+y,z
1/2+x,1/2-y,z
loop_
_atom_site_type_symbol
_atom_site_label
_atom_site_fract_x
_atom_site_fract_y
_atom_site_fract_z
Si Si1 0.652758 0.182200 0.161015
Si Si2 0.250969 0.838737 0.627996
Si Si3 0.345008 0.916851 0.060985
Si Si4 0.000000 0.159922 0.438157
Si Si5 0.500000 0.162375 0.438851
Si Si6 0.850555 0.586413 0.268027
O O1 0.500000 0.207985 0.157072
O O2 0.750000 0.250000 0.173098
O O3 0.704265 0.143101 0.105266
O O4 0.671537 0.122851 0.209164
O O5 0.250000 0.750000 0.635846
O O6 0.373317 0.866970 0.592668
O O7 0.254690 0.875603 0.687891
O O8 0.125292 0.868332 0.595331
O O9 0.500000 0.921237 0.064367
O O10 0.288714 0.000000 0.073533
O O11 0.300125 0.891207 0.000000
O O12 0.000000 0.248697 0.441857
O O13 0.000000 0.126596 0.500000
O O14 0.500000 0.128587 0.500000
O O15 0.814138 0.500000 0.262489
O O16 0.000000 0.598097 0.287434
#
# Coordination Sequence:
#
# PCOD8266607 Si02
#       6
#    16  16  16   8   8  16
#     4  10  20  34  53  78 106 136 171 216 263 305
#     4  10  18  31  51  76 102 129 163 206 249 298
#     4   8  14  27  50  79 108 140 180 219 252 293
#     4   9  18  30  49  77 105 131 160 199 250 303
#     4   9  16  28  49  75 101 129 164 203 242 289
#     4  10  20  35  54  73  96 130 174 216 254 300
#
# _framework density 17.958114999999999
#
# number of rings (size 3 to 8) (size 9 to 14) (size 15 to 20)
#    0.000    2.600    1.000    2.400    0.000    5.200 
#    1.800    0.500    0.000    5.400    0.000    1.400 
#    0.000    0.000    0.000    0.000    0.000    0.000 
#
# Total GULP energy -495910.144976 kJ/mol
# GULP energy per Si atom -12397.753624 kJ/mol
# Density = 1.791724 g / cm^3
# Si number density = 17.958115 Si / 1000 Ang^3
#
#
#
# Elastic Constant Matrix: (Units=GPa)
#
#
# Indices 1 2 3 4 5 6 
#
# 1 96.1292 35.9245 52.3301 0.0000 0.0000 0.0000
# 2 35.9245 72.2791 46.7250 0.0000 0.0000 0.0000
# 3 52.3301 46.7250 136.5964 0.0000 0.0000 0.0000
# 4 0.0000 0.0000 0.0000 15.3720 0.0000 0.0000
# 5 0.0000 0.0000 0.0000 0.0000 21.1542 0.0000
# 6 0.0000 0.0000 0.0000 0.0000 0.0000 15.5975
#
#
#
# Elastic Compliance Matrix: (Units=1/GPa)
#
#
# Indices 1 2 3 4 5 6 
#
# 1 0.014223 -0.004554 -0.003891 0.000000 0.000000 0.000000
# 2 -0.004554 0.019221 -0.004830 0.000000 0.000000 0.000000
# 3 -0.003891 -0.004830 0.010464 0.000000 0.000000 0.000000
# 4 0.000000 0.000000 0.000000 0.065053 0.000000 0.000000
# 5 0.000000 0.000000 0.000000 0.000000 0.047272 0.000000
# 6 0.000000 0.000000 0.000000 0.000000 0.000000 0.064113
#
#
# Mechanical properties :
#
#
# Convention : Reuss Voigt Hill
#
# Bulk Modulus (GPa) = 57.61225 63.88489 60.74857
# Shear Modulus (GPa) = 19.78777 21.75975 20.77376
#
# Velocity S-wave (km/s) = 3.32307 3.48472 3.40485
# Velocity P-wave (km/s) = 6.84652 7.20018 7.02558
#
# Compressibility (1/GPa) = 0.01735742
#
# Stress axis : x y z
#
# Youngs Moduli (GPa) = 70.31079 52.02598 95.56747
#
# Poissons Ratio (x) = 0.23691 0.37186
# Poissons Ratio (y) = 0.32017 0.46163
# Poissons Ratio (z) = 0.27358 0.25131
#
# Static dielectric constant tensor:
#      x y z
#    x 3.148420 0.000000 0.000000 
#    y 0.000000 3.076470 0.000000 
#    z 0.000000 0.000000 3.559060 
# 
# 
# High freq. dielectric constant tensor:
#      x y z
#    x 1.666440 0.000000 0.000000 
#    y 0.000000 1.669450 0.000000 
#    z 0.000000 0.000000 1.714970 
# 
# From -- ./inp_files/61381.got.cif
#   From: 2010.03.12/outbox.cif.g09.slc.cpg/sg65_31_cif.got.tgz:61381.got - 2010.04.10 20:52:16.
