data_PCOD8266697
_publ_section_title
;
Structure prediction by ZEFSAII (Michael W. Deem and Ramdas Pophale) SiO2 
 PCOD8266697
Probable space group: C M M M
;
_chemical_formula_sum "Si O2"
_cell_formula_units_Z 112
_cell_length_a 14.825604
_cell_length_b 23.778154
_cell_length_c 14.833284
_cell_angle_alpha 90.000000
_cell_angle_beta 90.000000
_cell_angle_gamma 90.000000
_cell_volume 5229.110785
_symmetry_space_group_name_H-M "C M M M"
_symmetry_group_IT_number 65
_symmetry_cell_setting 'orthorhombic'
loop_
_space_group_symop_operation_xyz
x,y,z
-x,-y,z
x,-y,-z
-x,y,-z
-x,-y,-z
x,y,-z
-x,y,z
x,-y,z
1/2+x,1/2+y,z
1/2-x,1/2-y,z
1/2+x,1/2-y,-z
1/2-x,1/2+y,-z
1/2-x,1/2-y,-z
1/2+x,1/2+y,-z
1/2-x,1/2+y,z
1/2+x,1/2-y,z
loop_
_atom_site_type_symbol
_atom_site_label
_atom_site_fract_x
_atom_site_fract_y
_atom_site_fract_z
Si Si1 0.893089 0.351898 0.103996
Si Si2 0.250235 0.891607 0.396213
Si Si3 0.903886 0.688106 0.599270
Si Si4 0.234194 0.563159 0.208226
Si Si5 0.395028 0.270901 0.842881
Si Si6 0.103429 0.191293 0.349649
Si Si7 0.603226 0.389864 0.900491
O O1 0.842390 0.395965 0.168450
O O2 0.854107 0.288805 0.124409
O O3 0.000000 0.356668 0.121481
O O4 0.870531 0.365942 0.000000
O O5 0.266191 0.913739 0.500000
O O6 0.322986 0.846479 0.357799
O O7 0.257660 0.938355 0.318146
O O8 0.154153 0.860978 0.394286
O O9 0.915647 0.663237 0.500000
O O10 0.882546 0.753952 0.589056
O O11 0.000000 0.679711 0.652607
O O12 0.209715 0.500000 0.178152
O O13 0.332285 0.579749 0.170289
O O14 0.500000 0.258865 0.832500
O O15 0.355458 0.291104 0.747087
O O16 0.375960 0.322883 0.909736
O O17 0.000000 0.172179 0.342303
O O18 0.500000 0.398948 0.867483
O O19 0.617696 0.415758 0.000000
#
# Coordination Sequence:
#
# PCOD8266697 Si02
#       7
#    16  16  16  16  16  16  16
#     4  10  22  41  66  97 131 164 199 246 308 376
#     4  11  23  39  60  83 114 159 209 260 311 359
#     4   9  18  32  52  82 117 151 190 238 294 360
#     4  12  27  44  62  86 119 162 217 268 308 360
#     4   9  17  33  60  94 130 161 189 231 294 368
#     4  10  18  31  55  88 126 161 192 233 293 368
#     4  10  21  40  66  94 124 158 198 247 305 368
#
# _framework density 21.418555000000001
#
# number of rings (size 3 to 8) (size 9 to 14) (size 15 to 20)
#    0.000    1.857    1.429    2.571    0.000    8.000 
#    0.000    2.857    0.000    0.000    0.000    5.000 
#    0.000    0.000    0.000    0.000    0.000    0.000 
#
# Total GULP energy -693806.712729 kJ/mol
# GULP energy per Si atom -12389.405584 kJ/mol
# Density = 2.136981 g / cm^3
# Si number density = 21.418555 Si / 1000 Ang^3
#
#
#
# Elastic Constant Matrix: (Units=GPa)
#
#
# Indices 1 2 3 4 5 6 
#
# 1 63.9965 19.7971 23.6077 0.0000 0.0000 0.0000
# 2 19.7971 84.8278 28.3955 0.0000 0.0000 0.0000
# 3 23.6077 28.3955 128.5568 0.0000 0.0000 0.0000
# 4 0.0000 0.0000 0.0000 16.2100 0.0000 0.0000
# 5 0.0000 0.0000 0.0000 0.0000 23.4115 0.0000
# 6 0.0000 0.0000 0.0000 0.0000 0.0000 17.3744
#
#
#
# Elastic Compliance Matrix: (Units=1/GPa)
#
#
# Indices 1 2 3 4 5 6 
#
# 1 0.017558 -0.003259 -0.002504 0.000000 0.000000 0.000000
# 2 -0.003259 0.013335 -0.002347 0.000000 0.000000 0.000000
# 3 -0.002504 -0.002347 0.008757 0.000000 0.000000 0.000000
# 4 0.000000 0.000000 0.000000 0.061690 0.000000 0.000000
# 5 0.000000 0.000000 0.000000 0.000000 0.042714 0.000000
# 6 0.000000 0.000000 0.000000 0.000000 0.000000 0.057556
#
#
# Mechanical properties :
#
#
# Convention : Reuss Voigt Hill
#
# Bulk Modulus (GPa) = 42.68287 46.77575 44.72931
# Shear Modulus (GPa) = 22.15910 25.10455 23.63183
#
# Velocity S-wave (km/s) = 3.21997 3.42730 3.32525
# Velocity P-wave (km/s) = 5.81339 6.12765 5.97259
#
# Compressibility (1/GPa) = 0.02342860
#
# Stress axis : x y z
#
# Youngs Moduli (GPa) = 56.95429 74.99145 114.19533
#
# Poissons Ratio (x) = 0.24442 0.28599
# Poissons Ratio (y) = 0.18563 0.26800
# Poissons Ratio (z) = 0.14263 0.17599
#
# Static dielectric constant tensor:
#      x y z
#    x 3.911550 0.000000 0.000000 
#    y 0.000000 3.521980 0.000000 
#    z 0.000000 0.000000 3.963470 
# 
# 
# High freq. dielectric constant tensor:
#      x y z
#    x 1.838860 0.000000 0.000000 
#    y 0.000000 1.799170 0.000000 
#    z 0.000000 0.000000 1.849600 
# 
# From -- ./inp_files/40857.got.cif
#   From: 2010.03.12/outbox.cif.g09.slc.cpg/sg65_21_cif.got.tgz:40857.got - 2010.04.10 20:52:16.
