data_PCOD8266484
_publ_section_title
;
Structure prediction by ZEFSAII (Michael W. Deem and Ramdas Pophale) SiO2 
 PCOD8266484
Probable space group: C M M M
;
_chemical_formula_sum "Si O2"
_cell_formula_units_Z 96
_cell_length_a 15.740692
_cell_length_b 25.280988
_cell_length_c 13.755697
_cell_angle_alpha 90.000000
_cell_angle_beta 90.000000
_cell_angle_gamma 90.000000
_cell_volume 5473.945442
_symmetry_space_group_name_H-M "C M M M"
_symmetry_group_IT_number 65
_symmetry_cell_setting 'orthorhombic'
loop_
_space_group_symop_operation_xyz
x,y,z
-x,-y,z
x,-y,-z
-x,y,-z
-x,-y,-z
x,y,-z
-x,y,z
x,-y,z
1/2+x,1/2+y,z
1/2-x,1/2-y,z
1/2+x,1/2-y,-z
1/2-x,1/2+y,-z
1/2-x,1/2-y,-z
1/2+x,1/2+y,-z
1/2-x,1/2+y,z
1/2+x,1/2-y,z
loop_
_atom_site_type_symbol
_atom_site_label
_atom_site_fract_x
_atom_site_fract_y
_atom_site_fract_z
Si Si1 0.180357 0.560675 0.885973
Si Si2 0.718465 0.627205 0.268350
Si Si3 0.000000 0.600891 0.885314
Si Si4 0.000000 0.281833 0.112413
Si Si5 0.678890 0.794119 0.606740
Si Si6 0.405902 0.562345 0.608070
Si Si7 0.152118 0.234406 0.217527
O O1 0.206158 0.500000 0.864614
O O2 0.236704 0.601469 0.824835
O O3 0.083148 0.568843 0.851874
O O4 0.192606 0.574061 0.000000
O O5 0.784717 0.651870 0.346180
O O6 0.665380 0.581937 0.319477
O O7 0.651698 0.671570 0.232684
O O8 0.000000 0.659880 0.838208
O O9 0.000000 0.604932 0.000000
O O10 0.914502 0.249121 0.134808
O O11 0.000000 0.291698 0.000000
O O12 0.637323 0.806170 0.500000
O O13 0.750000 0.750000 0.591127
O O14 0.617540 0.766402 0.686397
O O15 0.389169 0.585313 0.500000
O O16 0.500000 0.579969 0.642908
O O17 0.399843 0.500000 0.605285
O O18 0.250000 0.250000 0.191222
#
# Coordination Sequence:
#
# PCOD8266484 Si02
#       7
#    16  16   8   8  16  16  16
#     4  10  20  33  51  76 102 132 174 218 258 300
#     4  10  18  30  52  72 100 136 168 204 247 307
#     4   9  17  32  53  73  96 125 159 209 262 294
#     4  11  22  35  53  76 105 135 173 216 251 302
#     4   8  15  30  50  73 101 131 161 204 254 300
#     4   9  18  31  47  70  97 124 161 209 255 296
#     4   9  20  34  50  75 105 135 169 207 251 308
#
# _framework density 17.537624000000001
#
# number of rings (size 3 to 8) (size 9 to 14) (size 15 to 20)
#    0.000    3.000    0.000    3.750    1.167    2.667 
#    0.000    0.417    0.000    0.500    0.000    4.083 
#    0.000    8.000    0.000    0.000    0.000    0.000 
#
# Total GULP energy -594651.422684 kJ/mol
# GULP energy per Si atom -12388.571306 kJ/mol
# Density = 1.749771 g / cm^3
# Si number density = 17.537624 Si / 1000 Ang^3
#
#
#
# Elastic Constant Matrix: (Units=GPa)
#
#
# Indices 1 2 3 4 5 6 
#
# 1 67.9899 30.6354 42.1232 0.0000 0.0000 0.0000
# 2 30.6354 79.9664 42.0160 0.0000 0.0000 0.0000
# 3 42.1232 42.0160 81.9172 0.0000 0.0000 0.0000
# 4 0.0000 0.0000 0.0000 11.9611 0.0000 0.0000
# 5 0.0000 0.0000 0.0000 0.0000 53.4293 0.0000
# 6 0.0000 0.0000 0.0000 0.0000 0.0000 18.1398
#
#
#
# Elastic Compliance Matrix: (Units=1/GPa)
#
#
# Indices 1 2 3 4 5 6 
#
# 1 0.022255 -0.003440 -0.009679 0.000000 0.000000 0.000000
# 2 -0.003440 0.017650 -0.007284 0.000000 0.000000 0.000000
# 3 -0.009679 -0.007284 0.020921 0.000000 0.000000 0.000000
# 4 0.000000 0.000000 0.000000 0.083605 0.000000 0.000000
# 5 0.000000 0.000000 0.000000 0.000000 0.018716 0.000000
# 6 0.000000 0.000000 0.000000 0.000000 0.000000 0.055127
#
#
# Mechanical properties :
#
#
# Convention : Reuss Voigt Hill
#
# Bulk Modulus (GPa) = 49.95266 51.04698 50.49982
# Shear Modulus (GPa) = 18.81432 24.37928 21.59680
#
# Velocity S-wave (km/s) = 3.27891 3.73247 3.51302
# Velocity P-wave (km/s) = 6.54828 6.90980 6.73147
#
# Compressibility (1/GPa) = 0.02001895
#
# Stress axis : x y z
#
# Youngs Moduli (GPa) = 44.93348 56.65601 47.79929
#
# Poissons Ratio (x) = 0.19491 0.46267
# Poissons Ratio (y) = 0.15458 0.34817
# Poissons Ratio (z) = 0.43493 0.41268
#
# Static dielectric constant tensor:
#      x y z
#    x 3.079340 0.000000 0.000000 
#    y 0.000000 3.278450 0.000000 
#    z 0.000000 0.000000 3.506980 
# 
# 
# High freq. dielectric constant tensor:
#      x y z
#    x 1.651150 0.000000 0.000000 
#    y 0.000000 1.682930 0.000000 
#    z 0.000000 0.000000 1.668760 
# 
# From -- ./inp_files/40992.got.cif
#   From: 2010.03.12/outbox.cif.g09.slc.cpg/sg65_21_cif.got.tgz:40992.got - 2010.04.10 20:52:16.
