data_PCOD8266619
_publ_section_title
;
Structure prediction by ZEFSAII (Michael W. Deem and Ramdas Pophale) SiO2 
 PCOD8266619
Probable space group: C M M M
;
_chemical_formula_sum "Si O2"
_cell_formula_units_Z 96
_cell_length_a 9.003891
_cell_length_b 25.929031
_cell_length_c 23.531613
_cell_angle_alpha 90.000000
_cell_angle_beta 90.000000
_cell_angle_gamma 90.000000
_cell_volume 5493.741408
_symmetry_space_group_name_H-M "C M M M"
_symmetry_group_IT_number 65
_symmetry_cell_setting 'orthorhombic'
loop_
_space_group_symop_operation_xyz
x,y,z
-x,-y,z
x,-y,-z
-x,y,-z
-x,-y,-z
x,y,-z
-x,y,z
x,-y,z
1/2+x,1/2+y,z
1/2-x,1/2-y,z
1/2+x,1/2-y,-z
1/2-x,1/2+y,-z
1/2-x,1/2-y,-z
1/2+x,1/2+y,-z
1/2-x,1/2+y,z
1/2+x,1/2-y,z
loop_
_atom_site_type_symbol
_atom_site_label
_atom_site_fract_x
_atom_site_fract_y
_atom_site_fract_z
Si Si1 0.328358 0.094482 0.433053
Si Si2 0.323628 0.000000 0.251019
Si Si3 0.823378 0.598075 0.821058
Si Si4 0.173712 0.301756 0.372764
Si Si5 0.176616 0.441766 0.938165
Si Si6 0.323949 0.500000 0.373093
Si Si7 0.324943 0.801870 0.242431
O O1 0.306465 0.094239 0.500000
O O2 0.500000 0.084758 0.416086
O O3 0.272884 0.149442 0.409316
O O4 0.228137 0.050332 0.406538
O O5 0.269255 0.949974 0.216531
O O6 0.244527 0.000000 0.311006
O O7 0.500000 0.000000 0.260409
O O8 0.762357 0.592601 0.885843
O O9 0.760646 0.650817 0.794522
O O10 0.000000 0.599071 0.820550
O O11 0.250000 0.250000 0.396485
O O12 0.220279 0.311906 0.307629
O O13 0.000000 0.293236 0.379048
O O14 0.235709 0.500000 0.930544
O O15 0.000000 0.442597 0.935848
O O16 0.229354 0.419964 0.000000
O O17 0.500000 0.500000 0.369059
O O18 0.500000 0.796367 0.235510
O O19 0.250000 0.750000 0.219053
#
# Coordination Sequence:
#
# PCOD8266619 Si02
#       7
#    16   8  16  16  16   8  16
#     4  10  21  38  58  76  96 128 167 200 236 291
#     4  10  18  31  52  74  96 123 155 194 243 296
#     4   9  15  25  44  69  94 124 160 195 235 287
#     4   9  18  33  52  75  99 124 157 200 247 292
#     4   8  12  19  34  62  99 127 148 187 244 291
#     4  12  25  37  50  72 103 133 163 202 247 290
#     4   9  17  29  45  65  91 123 159 193 230 277
#
# _framework density 17.474430999999999
#
# number of rings (size 3 to 8) (size 9 to 14) (size 15 to 20)
#    0.000    2.667    0.833    2.500    0.000    5.000 
#    0.000    4.167    0.000    0.500    0.000    0.000 
#    0.000    2.667    0.000    0.000    0.000    0.000 
#
# Total GULP energy -595057.810818 kJ/mol
# GULP energy per Si atom -12397.037725 kJ/mol
# Density = 1.743466 g / cm^3
# Si number density = 17.474431 Si / 1000 Ang^3
#
#
#
# Elastic Constant Matrix: (Units=GPa)
#
#
# Indices 1 2 3 4 5 6 
#
# 1 32.1288 36.6262 31.3196 0.0000 0.0000 0.0000
# 2 36.6262 149.7821 79.6265 0.0000 0.0000 0.0000
# 3 31.3196 79.6265 126.4124 0.0000 0.0000 0.0000
# 4 0.0000 0.0000 0.0000 62.6633 0.0000 0.0000
# 5 0.0000 0.0000 0.0000 0.0000 7.8777 0.0000
# 6 0.0000 0.0000 0.0000 0.0000 0.0000 24.8284
#
#
#
# Elastic Compliance Matrix: (Units=1/GPa)
#
#
# Indices 1 2 3 4 5 6 
#
# 1 0.046505 -0.007888 -0.006553 0.000000 0.000000 0.000000
# 2 -0.007888 0.011376 -0.005211 0.000000 0.000000 0.000000
# 3 -0.006553 -0.005211 0.012817 0.000000 0.000000 0.000000
# 4 0.000000 0.000000 0.000000 0.015958 0.000000 0.000000
# 5 0.000000 0.000000 0.000000 0.000000 0.126941 0.000000
# 6 0.000000 0.000000 0.000000 0.000000 0.000000 0.040276
#
#
# Mechanical properties :
#
#
# Convention : Reuss Voigt Hill
#
# Bulk Modulus (GPa) = 31.85478 67.05201 49.45339
# Shear Modulus (GPa) = 16.46675 29.79059 23.12867
#
# Velocity S-wave (km/s) = 3.07308 4.13341 3.64204
# Velocity P-wave (km/s) = 5.55524 7.82528 6.78585
#
# Compressibility (1/GPa) = 0.03139247
#
# Stress axis : x y z
#
# Youngs Moduli (GPa) = 21.50295 87.90815 78.02328
#
# Poissons Ratio (x) = 0.69342 0.51132
# Poissons Ratio (y) = 0.16962 0.40658
# Poissons Ratio (z) = 0.14092 0.45809
#
# Static dielectric constant tensor:
#      x y z
#    x 2.848340 0.000000 0.000000 
#    y 0.000000 3.428250 0.000000 
#    z 0.000000 0.000000 3.541020 
# 
# 
# High freq. dielectric constant tensor:
#      x y z
#    x 1.630710 0.000000 0.000000 
#    y 0.000000 1.675240 0.000000 
#    z 0.000000 0.000000 1.681790 
# 
# From -- ./inp_files/68091.got.cif
#   From: 2010.03.12/outbox.cif.g09.slc.cpg/sg65_35_cif.got.tgz:68091.got - 2010.04.10 20:52:16.
