data_PCOD8266231
_publ_section_title
;
Structure prediction by ZEFSAII (Michael W. Deem and Ramdas Pophale) SiO2 
 PCOD8266231
Probable space group: C M M M
;
_chemical_formula_sum "Si O2"
_cell_formula_units_Z 120
_cell_length_a 28.253314
_cell_length_b 8.854381
_cell_length_c 28.642411
_cell_angle_alpha 90.000000
_cell_angle_beta 90.000000
_cell_angle_gamma 90.000000
_cell_volume 7165.346124
_symmetry_space_group_name_H-M "C M M M"
_symmetry_group_IT_number 65
_symmetry_cell_setting 'orthorhombic'
loop_
_space_group_symop_operation_xyz
x,y,z
-x,-y,z
x,-y,-z
-x,y,-z
-x,-y,-z
x,y,-z
-x,y,z
x,-y,z
1/2+x,1/2+y,z
1/2-x,1/2-y,z
1/2+x,1/2-y,-z
1/2-x,1/2+y,-z
1/2-x,1/2-y,-z
1/2+x,1/2+y,-z
1/2-x,1/2+y,z
1/2+x,1/2-y,z
loop_
_atom_site_type_symbol
_atom_site_label
_atom_site_fract_x
_atom_site_fract_y
_atom_site_fract_z
Si Si1 0.610387 0.179574 0.232634
Si Si2 0.444382 0.322317 0.500000
Si Si3 0.392087 0.820057 0.412750
Si Si4 0.447318 0.820819 0.321546
Si Si5 0.299159 0.322599 0.271332
Si Si6 0.946560 0.678154 0.143210
Si Si7 0.056190 0.170883 0.050775
Si Si8 0.299657 0.678374 0.621126
O O1 0.577746 0.238408 0.274869
O O2 0.661455 0.254923 0.237208
O O3 0.586493 0.237816 0.184891
O O4 0.616107 0.000000 0.233730
O O5 0.434287 0.500000 0.500000
O O6 0.500000 0.286326 0.500000
O O7 0.421159 0.246707 0.544729
O O8 0.418472 0.764020 0.366196
O O9 0.339367 0.752318 0.411767
O O10 0.389517 0.000000 0.416848
O O11 0.500000 0.751771 0.323571
O O12 0.449826 0.000000 0.321070
O O13 0.295890 0.500000 0.264368
O O14 0.250000 0.250000 0.255588
O O15 0.310569 0.279771 0.325013
O O16 0.948031 0.500000 0.143902
O O17 0.924123 0.730662 0.093803
O O18 0.000000 0.741932 0.150037
O O19 0.000000 0.180084 0.050620
O O20 0.073397 0.000000 0.058145
O O21 0.074714 0.230403 0.000000
O O22 0.297948 0.500000 0.613104
O O23 0.250000 0.750000 0.605607
#
# Coordination Sequence:
#
# PCOD8266231 Si02
#       8
#    16   8  16  16  16  16  16  16
#     4  10  18  30  47  69 100 132 164 199 243 292
#     4  11  25  43  60  79 108 141 169 207 255 293
#     4  11  21  36  59  83 105 132 171 210 247 295
#     4   9  17  29  48  73  99 129 165 202 236 279
#     4  10  20  33  51  73  99 129 165 203 244 292
#     4   9  17  27  41  64  95 131 167 204 245 289
#     4   8  14  25  40  57  81 119 166 211 252 292
#     4  10  20  35  56  81 108 134 165 203 250 300
#
# _framework density 16.747273
#
# number of rings (size 3 to 8) (size 9 to 14) (size 15 to 20)
#    0.000    2.333    1.333    2.600    0.000    4.533 
#    0.000    1.667    0.000    2.000    0.000    0.000 
#    0.000    0.533    0.000    1.733    0.000    2.533 
#
# Total GULP energy -743953.948505 kJ/mol
# GULP energy per Si atom -12399.232475 kJ/mol
# Density = 1.670916 g / cm^3
# Si number density = 16.747273 Si / 1000 Ang^3
#
#
#
# Elastic Constant Matrix: (Units=GPa)
#
#
# Indices 1 2 3 4 5 6 
#
# 1 121.0733 42.6806 63.3169 0.0000 0.0000 0.0000
# 2 42.6806 56.6413 40.0730 0.0000 0.0000 0.0000
# 3 63.3169 40.0730 133.8384 0.0000 0.0000 0.0000
# 4 0.0000 0.0000 0.0000 22.2540 0.0000 0.0000
# 5 0.0000 0.0000 0.0000 0.0000 11.9719 0.0000
# 6 0.0000 0.0000 0.0000 0.0000 0.0000 23.8771
#
#
#
# Elastic Compliance Matrix: (Units=1/GPa)
#
#
# Indices 1 2 3 4 5 6 
#
# 1 0.012737 -0.006768 -0.003999 0.000000 0.000000 0.000000
# 2 -0.006768 0.025996 -0.004582 0.000000 0.000000 0.000000
# 3 -0.003999 -0.004582 0.010735 0.000000 0.000000 0.000000
# 4 0.000000 0.000000 0.000000 0.044936 0.000000 0.000000
# 5 0.000000 0.000000 0.000000 0.000000 0.083529 0.000000
# 6 0.000000 0.000000 0.000000 0.000000 0.000000 0.041881
#
#
# Mechanical properties :
#
#
# Convention : Reuss Voigt Hill
#
# Bulk Modulus (GPa) = 53.27471 67.07712 60.17591
# Shear Modulus (GPa) = 19.47274 22.65276 21.06275
#
# Velocity S-wave (km/s) = 3.41360 3.68179 3.55023
# Velocity P-wave (km/s) = 6.88599 7.62979 7.26741
#
# Compressibility (1/GPa) = 0.01877063
#
# Stress axis : x y z
#
# Youngs Moduli (GPa) = 78.51315 38.46679 93.14933
#
# Poissons Ratio (x) = 0.26035 0.37251
# Poissons Ratio (y) = 0.53139 0.42679
# Poissons Ratio (z) = 0.31398 0.17625
#
# Static dielectric constant tensor:
#      x y z
#    x 3.092790 0.000000 0.000000 
#    y 0.000000 3.020490 0.000000 
#    z 0.000000 0.000000 3.392370 
# 
# 
# High freq. dielectric constant tensor:
#      x y z
#    x 1.629680 0.000000 0.000000 
#    y 0.000000 1.638200 0.000000 
#    z 0.000000 0.000000 1.638030 
# 
# From -- ./inp_files/76103.got.cif
#   From: 2010.03.12/outbox.cif.g09.slc.cpg/sg65_39_cif.got.tgz:76103.got - 2010.04.10 20:52:16.
