data_PCOD8266289
_publ_section_title
;
Structure prediction by ZEFSAII (Michael W. Deem and Ramdas Pophale) SiO2 
 PCOD8266289
Probable space group: C M M M
;
_chemical_formula_sum "Si O2"
_cell_formula_units_Z 88
_cell_length_a 20.065587
_cell_length_b 14.272688
_cell_length_c 17.417770
_cell_angle_alpha 90.000000
_cell_angle_beta 90.000000
_cell_angle_gamma 90.000000
_cell_volume 4988.272760
_symmetry_space_group_name_H-M "C M M M"
_symmetry_group_IT_number 65
_symmetry_cell_setting 'orthorhombic'
loop_
_space_group_symop_operation_xyz
x,y,z
-x,-y,z
x,-y,-z
-x,y,-z
-x,-y,-z
x,y,-z
-x,y,z
x,-y,z
1/2+x,1/2+y,z
1/2-x,1/2-y,z
1/2+x,1/2-y,-z
1/2-x,1/2+y,-z
1/2-x,1/2-y,-z
1/2+x,1/2+y,-z
1/2-x,1/2+y,z
1/2+x,1/2-y,z
loop_
_atom_site_type_symbol
_atom_site_label
_atom_site_fract_x
_atom_site_fract_y
_atom_site_fract_z
Si Si1 0.421954 0.899929 0.500000
Si Si2 0.296240 0.658849 0.585362
Si Si3 0.578474 0.105702 0.087293
Si Si4 0.227117 0.896122 0.747710
Si Si5 0.922976 0.739699 0.628724
Si Si6 0.144380 0.282357 0.783026
O O1 0.500000 0.913809 0.500000
O O2 0.400495 0.847964 0.422798
O O3 0.385085 0.000000 0.500000
O O4 0.286930 0.614420 0.500000
O O5 0.250000 0.750000 0.593872
O O6 0.276315 0.591756 0.655172
O O7 0.374735 0.678173 0.599554
O O8 0.500000 0.118155 0.093510
O O9 0.612047 0.188375 0.136517
O O10 0.598080 0.000000 0.114711
O O11 0.602481 0.120140 0.000000
O O12 0.173235 0.823786 0.783730
O O13 0.299687 0.858906 0.767151
O O14 0.215895 0.000000 0.783275
O O15 0.911764 0.712246 0.717179
O O16 0.000000 0.768769 0.615461
#
# Coordination Sequence:
#
# PCOD8266289 Si02
#       6
#     8  16  16  16  16  16
#     4   9  18  28  37  62 101 129 157 201 252 307
#     4  10  18  33  49  67  97 136 183 225 267 317
#     4   9  18  33  56  86 113 136 168 211 262 326
#     4  10  20  34  51  74 104 139 184 225 259 312
#     4  10  18  30  48  70  96 133 171 211 263 317
#     4  10  19  35  52  76 104 140 171 212 269 317
#
# _framework density 17.641376999999999
#
# number of rings (size 3 to 8) (size 9 to 14) (size 15 to 20)
#    0.000    2.273    4.545    1.636    0.000    1.818 
#    0.000    3.636    0.000   15.273    0.000    6.364 
#    0.000    0.000    0.000    0.000    0.000    0.000 
#
# Total GULP energy -545169.316356 kJ/mol
# GULP energy per Si atom -12390.211735 kJ/mol
# Density = 1.760122 g / cm^3
# Si number density = 17.641377 Si / 1000 Ang^3
#
#
#
# Elastic Constant Matrix: (Units=GPa)
#
#
# Indices 1 2 3 4 5 6 
#
# 1 70.4256 24.2981 23.5252 0.0000 0.0000 0.0000
# 2 24.2981 99.4863 33.0463 0.0000 0.0000 0.0000
# 3 23.5252 33.0463 88.1882 0.0000 0.0000 0.0000
# 4 0.0000 0.0000 0.0000 17.5849 0.0000 0.0000
# 5 0.0000 0.0000 0.0000 0.0000 26.4901 0.0000
# 6 0.0000 0.0000 0.0000 0.0000 0.0000 13.8897
#
#
#
# Elastic Compliance Matrix: (Units=1/GPa)
#
#
# Indices 1 2 3 4 5 6 
#
# 1 0.016287 -0.002895 -0.003260 0.000000 0.000000 0.000000
# 2 -0.002895 0.011995 -0.003723 0.000000 0.000000 0.000000
# 3 -0.003260 -0.003723 0.013604 0.000000 0.000000 0.000000
# 4 0.000000 0.000000 0.000000 0.056867 0.000000 0.000000
# 5 0.000000 0.000000 0.000000 0.000000 0.037750 0.000000
# 6 0.000000 0.000000 0.000000 0.000000 0.000000 0.071996
#
#
# Mechanical properties :
#
#
# Convention : Reuss Voigt Hill
#
# Bulk Modulus (GPa) = 45.18517 46.64882 45.91700
# Shear Modulus (GPa) = 21.21958 23.40830 22.31394
#
# Velocity S-wave (km/s) = 3.47195 3.64661 3.56035
# Velocity P-wave (km/s) = 6.46075 6.65061 6.55637
#
# Compressibility (1/GPa) = 0.02213116
#
# Stress axis : x y z
#
# Youngs Moduli (GPa) = 61.39791 83.36626 73.50791
#
# Poissons Ratio (x) = 0.24135 0.23963
# Poissons Ratio (y) = 0.17775 0.27364
# Poissons Ratio (z) = 0.20015 0.31034
#
# Static dielectric constant tensor:
#      x y z
#    x 3.258810 0.000000 0.000000 
#    y 0.000000 3.156800 0.000000 
#    z 0.000000 0.000000 3.084070 
# 
# 
# High freq. dielectric constant tensor:
#      x y z
#    x 1.682100 0.000000 0.000000 
#    y 0.000000 1.656210 0.000000 
#    z 0.000000 0.000000 1.672800 
# 
# From -- ./inp_files/54296.got.cif
#   From: 2010.03.12/outbox.cif.g09.slc.cpg/sg65_28_cif.got.tgz:54296.got - 2010.04.10 20:52:16.
