data_PCOD8266534
_publ_section_title
;
Structure prediction by ZEFSAII (Michael W. Deem and Ramdas Pophale) SiO2 
 PCOD8266534
Probable space group: C M M M
;
_chemical_formula_sum "Si O2"
_cell_formula_units_Z 128
_cell_length_a 17.806001
_cell_length_b 16.496783
_cell_length_c 22.720128
_cell_angle_alpha 90.000000
_cell_angle_beta 90.000000
_cell_angle_gamma 90.000000
_cell_volume 6673.849809
_symmetry_space_group_name_H-M "C M M M"
_symmetry_group_IT_number 65
_symmetry_cell_setting 'orthorhombic'
loop_
_space_group_symop_operation_xyz
x,y,z
-x,-y,z
x,-y,-z
-x,y,-z
-x,-y,-z
x,y,-z
-x,y,z
x,-y,z
1/2+x,1/2+y,z
1/2-x,1/2-y,z
1/2+x,1/2-y,-z
1/2-x,1/2+y,-z
1/2-x,1/2-y,-z
1/2+x,1/2+y,-z
1/2-x,1/2+y,z
1/2+x,1/2-y,z
loop_
_atom_site_type_symbol
_atom_site_label
_atom_site_fract_x
_atom_site_fract_y
_atom_site_fract_z
Si Si1 0.319805 0.092730 0.677009
Si Si2 0.414119 0.216902 0.742275
Si Si3 0.233036 0.096810 0.434431
Si Si4 0.162211 0.879010 0.269097
Si Si5 0.782383 0.660787 0.933864
Si Si6 0.415890 0.237788 0.121140
Si Si7 0.918040 0.089204 0.382542
Si Si8 0.152595 0.909724 0.134078
O O1 0.390767 0.137612 0.705674
O O2 0.296120 0.126981 0.612045
O O3 0.248736 0.102209 0.719482
O O4 0.344756 0.000000 0.671934
O O5 0.500000 0.239261 0.725986
O O6 0.354930 0.284334 0.722291
O O7 0.405982 0.208282 0.812060
O O8 0.255481 0.125528 0.500000
O O9 0.150282 0.133463 0.417708
O O10 0.227548 0.000000 0.429451
O O11 0.106908 0.923061 0.314661
O O12 0.145628 0.910149 0.204112
O O13 0.750000 0.750000 0.928107
O O14 0.869028 0.672266 0.916187
O O15 0.738084 0.601717 0.889200
O O16 0.775586 0.626039 0.000000
O O17 0.500000 0.228127 0.098788
O O18 0.395279 0.333174 0.110190
O O19 0.000000 0.134254 0.387782
O O20 0.928833 0.000000 0.409411
O O21 0.124695 0.000000 0.112982
#
# Coordination Sequence:
#
# PCOD8266534 Si02
#       8
#    16  16  16  16  16  16  16  16
#     4  10  19  31  51  75  96 125 168 214 255 295
#     4  10  20  33  50  72 101 134 164 202 252 305
#     4   8  15  28  45  67  95 126 164 211 258 300
#     4  10  18  31  48  71 100 132 165 198 246 305
#     4   9  18  33  52  72  97 134 176 211 244 289
#     4   9  19  34  51  75 104 134 170 207 249 304
#     4   9  16  25  41  68 100 132 166 204 244 292
#     4  10  19  31  51  78 106 134 165 207 256 300
#
# _framework density 19.179334999999998
#
# number of rings (size 3 to 8) (size 9 to 14) (size 15 to 20)
#    0.000    2.625    0.000    3.375    0.000    3.750 
#    0.000    1.250    0.000    7.500    0.000    6.125 
#    0.000    0.000    0.000    0.000    0.000    0.000 
#
# Total GULP energy -792863.555415 kJ/mol
# GULP energy per Si atom -12388.493053 kJ/mol
# Density = 1.913568 g / cm^3
# Si number density = 19.179335 Si / 1000 Ang^3
#
#
#
# Elastic Constant Matrix: (Units=GPa)
#
#
# Indices 1 2 3 4 5 6 
#
# 1 79.4475 23.3169 26.3729 0.0000 0.0000 0.0000
# 2 23.3169 55.5233 27.6955 0.0000 0.0000 0.0000
# 3 26.3729 27.6955 62.2188 0.0000 0.0000 0.0000
# 4 0.0000 0.0000 0.0000 14.5894 0.0000 0.0000
# 5 0.0000 0.0000 0.0000 0.0000 18.5687 0.0000
# 6 0.0000 0.0000 0.0000 0.0000 0.0000 20.5386
#
#
#
# Elastic Compliance Matrix: (Units=1/GPa)
#
#
# Indices 1 2 3 4 5 6 
#
# 1 0.015346 -0.004113 -0.004674 0.000000 0.000000 0.000000
# 2 -0.004113 0.024253 -0.009052 0.000000 0.000000 0.000000
# 3 -0.004674 -0.009052 0.022083 0.000000 0.000000 0.000000
# 4 0.000000 0.000000 0.000000 0.068543 0.000000 0.000000
# 5 0.000000 0.000000 0.000000 0.000000 0.053854 0.000000
# 6 0.000000 0.000000 0.000000 0.000000 0.000000 0.048689
#
#
# Mechanical properties :
#
#
# Convention : Reuss Voigt Hill
#
# Bulk Modulus (GPa) = 38.45679 39.10670 38.78175
# Shear Modulus (GPa) = 18.04315 18.72629 18.38472
#
# Velocity S-wave (km/s) = 3.07051 3.12810 3.09944
# Velocity P-wave (km/s) = 5.71536 5.78627 5.75093
#
# Compressibility (1/GPa) = 0.02600321
#
# Stress axis : x y z
#
# Youngs Moduli (GPa) = 65.16567 41.23179 45.28395
#
# Poissons Ratio (x) = 0.16959 0.21164
# Poissons Ratio (y) = 0.26803 0.40993
# Poissons Ratio (z) = 0.30456 0.37325
#
# Static dielectric constant tensor:
#      x y z
#    x 3.535140 0.000000 0.000000 
#    y 0.000000 3.319580 0.000000 
#    z 0.000000 0.000000 3.505960 
# 
# 
# High freq. dielectric constant tensor:
#      x y z
#    x 1.733920 0.000000 0.000000 
#    y 0.000000 1.713760 0.000000 
#    z 0.000000 0.000000 1.739070 
# 
# From -- ./inp_files/70684.got.cif
#   From: 2010.03.12/outbox.cif.g09.slc.cpg/sg65_36_cif.got.tgz:70684.got - 2010.04.10 20:52:16.
