data_PCOD8266797
_publ_section_title
;
Structure prediction by ZEFSAII (Michael W. Deem and Ramdas Pophale) SiO2 
 PCOD8266797
Probable space group: C M M M
;
_chemical_formula_sum "Si O2"
_cell_formula_units_Z 88
_cell_length_a 18.993279
_cell_length_b 8.730491
_cell_length_c 28.192646
_cell_angle_alpha 90.000000
_cell_angle_beta 90.000000
_cell_angle_gamma 90.000000
_cell_volume 4674.922924
_symmetry_space_group_name_H-M "C M M M"
_symmetry_group_IT_number 65
_symmetry_cell_setting 'orthorhombic'
loop_
_space_group_symop_operation_xyz
x,y,z
-x,-y,z
x,-y,-z
-x,y,-z
-x,-y,-z
x,y,-z
-x,y,z
x,-y,z
1/2+x,1/2+y,z
1/2-x,1/2-y,z
1/2+x,1/2-y,-z
1/2-x,1/2+y,-z
1/2-x,1/2-y,-z
1/2+x,1/2+y,-z
1/2-x,1/2+y,z
1/2+x,1/2-y,z
loop_
_atom_site_type_symbol
_atom_site_label
_atom_site_fract_x
_atom_site_fract_y
_atom_site_fract_z
Si Si1 0.083609 0.827927 0.273014
Si Si2 0.083342 0.674905 0.631218
Si Si3 0.823008 0.180271 0.554034
Si Si4 0.417114 0.176596 0.176296
Si Si5 0.327812 0.817658 0.000000
Si Si6 0.673088 0.319388 0.904547
O O1 0.113509 0.752910 0.321049
O O2 0.108686 0.727305 0.228391
O O3 0.000000 0.829648 0.275174
O O4 0.113438 0.000000 0.268139
O O5 0.108059 0.500000 0.631382
O O6 0.113152 0.758885 0.585309
O O7 0.000000 0.690078 0.628733
O O8 0.837122 0.232489 0.500000
O O9 0.750000 0.250000 0.572859
O O10 0.818520 0.000000 0.558580
O O11 0.500000 0.203831 0.170250
O O12 0.377768 0.282426 0.138785
O O13 0.396718 0.000000 0.168549
O O14 0.250000 0.750000 0.000000
O O15 0.363182 0.753886 0.048194
O O16 0.328779 0.000000 0.000000
O O17 0.680509 0.500000 0.911226
O O18 0.750000 0.250000 0.894804
#
# Coordination Sequence:
#
# PCOD8266797 Si02
#       6
#    16  16  16  16   8  16
#     4   9  17  31  52  77 105 138 175 213 256 308
#     4  10  20  34  54  80 108 138 174 216 259 304
#     4  10  21  37  56  77 104 139 176 214 260 314
#     4  10  20  35  55  79 108 141 176 214 260 313
#     4  10  18  32  53  76 103 136 175 215 261 313
#     4  11  21  35  55  79 107 138 176 218 262 311
#
# _framework density 18.823840000000001
#
# number of rings (size 3 to 8) (size 9 to 14) (size 15 to 20)
#    0.000    2.000    0.000    5.727    0.000    5.818 
#    0.000    3.182    0.000    2.727    0.000    0.000 
#    0.000    0.000    0.000    0.000    0.000    0.000 
#
# Total GULP energy -545663.864213 kJ/mol
# GULP energy per Si atom -12401.451459 kJ/mol
# Density = 1.878100 g / cm^3
# Si number density = 18.823840 Si / 1000 Ang^3
#
#
#
# Elastic Constant Matrix: (Units=GPa)
#
#
# Indices 1 2 3 4 5 6 
#
# 1 30.7605 28.1678 35.9233 0.0000 0.0000 0.0000
# 2 28.1678 139.3913 53.9710 0.0000 0.0000 0.0000
# 3 35.9233 53.9710 133.6759 0.0000 0.0000 0.0000
# 4 0.0000 0.0000 0.0000 40.4315 0.0000 0.0000
# 5 0.0000 0.0000 0.0000 0.0000 12.0866 0.0000
# 6 0.0000 0.0000 0.0000 0.0000 0.0000 27.7388
#
#
#
# Elastic Compliance Matrix: (Units=1/GPa)
#
#
# Indices 1 2 3 4 5 6 
#
# 1 0.051232 -0.005953 -0.011364 0.000000 0.000000 0.000000
# 2 -0.005953 0.009195 -0.002113 0.000000 0.000000 0.000000
# 3 -0.011364 -0.002113 0.011388 0.000000 0.000000 0.000000
# 4 0.000000 0.000000 0.000000 0.024733 0.000000 0.000000
# 5 0.000000 0.000000 0.000000 0.000000 0.082736 0.000000
# 6 0.000000 0.000000 0.000000 0.000000 0.000000 0.036051
#
#
# Mechanical properties :
#
#
# Convention : Reuss Voigt Hill
#
# Bulk Modulus (GPa) = 30.34431 59.99466 45.16948
# Shear Modulus (GPa) = 18.85518 28.43576 23.64547
#
# Velocity S-wave (km/s) = 3.16834 3.89089 3.54806
# Velocity P-wave (km/s) = 5.43504 7.21985 6.39007
#
# Compressibility (1/GPa) = 0.03295511
#
# Stress axis : x y z
#
# Youngs Moduli (GPa) = 19.51908 108.75514 87.81317
#
# Poissons Ratio (x) = 0.64737 0.99795
# Poissons Ratio (y) = 0.11619 0.18553
# Poissons Ratio (z) = 0.22182 0.22977
#
# Static dielectric constant tensor:
#      x y z
#    x 3.059050 0.000000 0.000000 
#    y 0.000000 3.639710 0.000000 
#    z 0.000000 0.000000 3.862660 
# 
# 
# High freq. dielectric constant tensor:
#      x y z
#    x 1.688990 0.000000 0.000000 
#    y 0.000000 1.752550 0.000000 
#    z 0.000000 0.000000 1.748500 
# 
# From -- ./inp_files/70988.got.cif
#   From: 2010.03.12/outbox.cif.g09.slc.cpg/sg65_36_cif.got.tgz:70988.got - 2010.04.10 20:52:16.
