data_PCOD8266374
_publ_section_title
;
Structure prediction by ZEFSAII (Michael W. Deem and Ramdas Pophale) SiO2 
 PCOD8266374
Probable space group: C M M M
;
_chemical_formula_sum "Si O2"
_cell_formula_units_Z 96
_cell_length_a 22.427195
_cell_length_b 27.644627
_cell_length_c 9.004978
_cell_angle_alpha 90.000000
_cell_angle_beta 90.000000
_cell_angle_gamma 90.000000
_cell_volume 5583.009281
_symmetry_space_group_name_H-M "C M M M"
_symmetry_group_IT_number 65
_symmetry_cell_setting 'orthorhombic'
loop_
_space_group_symop_operation_xyz
x,y,z
-x,-y,z
x,-y,-z
-x,y,-z
-x,-y,-z
x,y,-z
-x,y,z
x,-y,z
1/2+x,1/2+y,z
1/2-x,1/2-y,z
1/2+x,1/2-y,-z
1/2-x,1/2+y,-z
1/2-x,1/2-y,-z
1/2+x,1/2+y,-z
1/2-x,1/2+y,z
1/2+x,1/2-y,z
loop_
_atom_site_type_symbol
_atom_site_label
_atom_site_fract_x
_atom_site_fract_y
_atom_site_fract_z
Si Si1 0.682002 0.804665 0.669593
Si Si2 0.372121 0.894845 0.825072
Si Si3 0.124672 0.781618 0.824385
Si Si4 0.305006 0.644216 0.332249
Si Si5 0.268813 0.054487 0.326714
Si Si6 0.000000 0.261671 0.175800
Si Si7 0.500000 0.870329 0.174594
O O1 0.658830 0.804786 0.500000
O O2 0.645152 0.842285 0.767224
O O3 0.672172 0.752821 0.743485
O O4 0.751389 0.817470 0.673989
O O5 0.332238 0.936700 0.752076
O O6 0.441686 0.901413 0.780018
O O7 0.362170 0.896920 0.000000
O O8 0.141184 0.836135 0.770795
O O9 0.058214 0.767801 0.770628
O O10 0.131973 0.777606 0.000000
O O11 0.328924 0.638455 0.500000
O O12 0.281660 0.592112 0.270512
O O13 0.279928 0.064059 0.500000
O O14 0.247177 0.000000 0.293665
O O15 0.000000 0.315984 0.245065
O O16 0.000000 0.264687 0.000000
O O17 0.500000 0.861785 0.000000
#
# Coordination Sequence:
#
# PCOD8266374 Si02
#       7
#    16  16  16  16  16   8   8
#     4  10  19  31  46  67  99 133 161 195 239 286
#     4  10  18  30  50  72  95 127 167 208 241 278
#     4  11  20  31  48  69  96 130 166 198 232 279
#     4   9  19  33  48  69  97 124 153 195 243 290
#     4   9  19  37  56  72  95 126 155 193 252 306
#     4   9  18  32  46  65  98 137 167 195 232 276
#     4   9  16  30  47  65  96 134 168 200 239 279
#
# _framework density 17.195029000000002
#
# number of rings (size 3 to 8) (size 9 to 14) (size 15 to 20)
#    0.000    2.333    1.667    3.000    0.000    5.667 
#    0.000    4.583    0.000    2.500    0.000    0.583 
#    0.000    4.667    0.000    0.000    0.000    0.000 
#
# Total GULP energy -595004.754334 kJ/mol
# GULP energy per Si atom -12395.932382 kJ/mol
# Density = 1.715589 g / cm^3
# Si number density = 17.195029 Si / 1000 Ang^3
#
#
#
# Elastic Constant Matrix: (Units=GPa)
#
#
# Indices 1 2 3 4 5 6 
#
# 1 50.4810 41.4700 20.7777 0.0000 0.0000 0.0000
# 2 41.4700 101.5788 30.3621 0.0000 0.0000 0.0000
# 3 20.7777 30.3621 50.6127 0.0000 0.0000 0.0000
# 4 0.0000 0.0000 0.0000 22.1944 0.0000 0.0000
# 5 0.0000 0.0000 0.0000 0.0000 9.4470 0.0000
# 6 0.0000 0.0000 0.0000 0.0000 0.0000 11.3973
#
#
#
# Elastic Compliance Matrix: (Units=1/GPa)
#
#
# Indices 1 2 3 4 5 6 
#
# 1 0.031388 -0.010921 -0.006334 0.000000 0.000000 0.000000
# 2 -0.010921 0.015795 -0.004992 0.000000 0.000000 0.000000
# 3 -0.006334 -0.004992 0.025353 0.000000 0.000000 0.000000
# 4 0.000000 0.000000 0.000000 0.045056 0.000000 0.000000
# 5 0.000000 0.000000 0.000000 0.000000 0.105853 0.000000
# 6 0.000000 0.000000 0.000000 0.000000 0.000000 0.087740
#
#
# Mechanical properties :
#
#
# Convention : Reuss Voigt Hill
#
# Bulk Modulus (GPa) = 35.66111 43.09914 39.38012
# Shear Modulus (GPa) = 13.69758 15.94526 14.82142
#
# Velocity S-wave (km/s) = 2.82547 3.04849 2.93910
# Velocity P-wave (km/s) = 5.60612 6.12457 5.87107
#
# Compressibility (1/GPa) = 0.02804176
#
# Stress axis : x y z
#
# Youngs Moduli (GPa) = 31.85914 63.30999 39.44322
#
# Poissons Ratio (x) = 0.69141 0.24984
# Poissons Ratio (y) = 0.34794 0.19690
# Poissons Ratio (z) = 0.20180 0.31605
#
# Static dielectric constant tensor:
#      x y z
#    x 3.279080 0.000000 0.000000 
#    y 0.000000 3.119550 0.000000 
#    z 0.000000 0.000000 3.131190 
# 
# 
# High freq. dielectric constant tensor:
#      x y z
#    x 1.646430 0.000000 0.000000 
#    y 0.000000 1.644080 0.000000 
#    z 0.000000 0.000000 1.657250 
# 
# From -- ./inp_files/14652.got.cif
#   From: 2010.03.12/outbox.cif.g09.slc.cpg/sg65_8_cif.got.tgz:14652.got - 2010.04.10 20:52:16.
