data_PCOD8266504
_publ_section_title
;
Structure prediction by ZEFSAII (Michael W. Deem and Ramdas Pophale) SiO2 
 PCOD8266504
Probable space group: C M M M
;
_chemical_formula_sum "Si O2"
_cell_formula_units_Z 104
_cell_length_a 15.109728
_cell_length_b 19.686429
_cell_length_c 18.522327
_cell_angle_alpha 90.000000
_cell_angle_beta 90.000000
_cell_angle_gamma 90.000000
_cell_volume 5509.588182
_symmetry_space_group_name_H-M "C M M M"
_symmetry_group_IT_number 65
_symmetry_cell_setting 'orthorhombic'
loop_
_space_group_symop_operation_xyz
x,y,z
-x,-y,z
x,-y,-z
-x,y,-z
-x,-y,-z
x,y,-z
-x,y,z
x,-y,z
1/2+x,1/2+y,z
1/2-x,1/2-y,z
1/2+x,1/2-y,-z
1/2-x,1/2+y,-z
1/2-x,1/2-y,-z
1/2+x,1/2+y,-z
1/2-x,1/2+y,z
1/2+x,1/2-y,z
loop_
_atom_site_type_symbol
_atom_site_label
_atom_site_fract_x
_atom_site_fract_y
_atom_site_fract_z
Si Si1 0.899650 0.846202 0.328514
Si Si2 0.761138 0.330258 0.580165
Si Si3 0.645405 0.822540 0.141482
Si Si4 0.398833 0.426166 0.190800
Si Si5 0.899217 0.686878 0.696740
Si Si6 0.843311 0.819590 0.914642
Si Si7 0.500000 0.922763 0.084992
O O1 0.831573 0.863203 0.393106
O O2 0.860207 0.883969 0.258136
O O3 0.898124 0.767136 0.311451
O O4 0.000000 0.868628 0.349702
O O5 0.781934 0.358589 0.500000
O O6 0.750000 0.250000 0.577770
O O7 0.842488 0.348990 0.633326
O O8 0.646528 0.831130 0.227526
O O9 0.742091 0.827649 0.108260
O O10 0.609987 0.747715 0.118802
O O11 0.586850 0.882932 0.110035
O O12 0.500000 0.438231 0.208363
O O13 0.351357 0.500000 0.184283
O O14 0.391668 0.385815 0.115777
O O15 0.000000 0.659211 0.694091
O O16 0.853050 0.817095 0.000000
O O17 0.500000 0.000000 0.116392
O O18 0.500000 0.926084 0.000000
#
# Coordination Sequence:
#
# PCOD8266504 Si02
#       7
#    16  16  16  16  16  16   8
#     4   9  17  31  51  77 107 144 183 222 269 330
#     4   9  18  30  48  78 114 145 174 224 285 336
#     4  11  21  38  57  82 110 144 193 240 285 343
#     4  10  21  36  54  79 111 147 188 232 280 336
#     4  10  18  30  53  80 105 140 183 229 279 335
#     4  11  23  36  56  83 110 147 191 238 295 348
#     4  11  24  40  58  82 116 154 192 244 299 344
#
# _framework density 18.876183999999999
#
# number of rings (size 3 to 8) (size 9 to 14) (size 15 to 20)
#    0.000    1.923    2.308    2.769    5.385    1.846 
#    0.000    3.846    0.000    0.462    0.000    2.154 
#    0.000    0.615    0.000    0.000    0.000    0.000 
#
# Total GULP energy -644566.219394 kJ/mol
# GULP energy per Si atom -12395.504219 kJ/mol
# Density = 1.883322 g / cm^3
# Si number density = 18.876184 Si / 1000 Ang^3
#
#
#
# Elastic Constant Matrix: (Units=GPa)
#
#
# Indices 1 2 3 4 5 6 
#
# 1 71.7954 34.0058 49.5784 0.0000 0.0000 0.0000
# 2 34.0058 84.2768 33.8280 0.0000 0.0000 0.0000
# 3 49.5784 33.8280 163.5773 0.0000 0.0000 0.0000
# 4 0.0000 0.0000 0.0000 13.7071 0.0000 0.0000
# 5 0.0000 0.0000 0.0000 0.0000 25.8714 0.0000
# 6 0.0000 0.0000 0.0000 0.0000 0.0000 6.6230
#
#
#
# Elastic Compliance Matrix: (Units=1/GPa)
#
#
# Indices 1 2 3 4 5 6 
#
# 1 0.020215 -0.006213 -0.004842 0.000000 0.000000 0.000000
# 2 -0.006213 0.014849 -0.001188 0.000000 0.000000 0.000000
# 3 -0.004842 -0.001188 0.007827 0.000000 0.000000 0.000000
# 4 0.000000 0.000000 0.000000 0.072955 0.000000 0.000000
# 5 0.000000 0.000000 0.000000 0.000000 0.038653 0.000000
# 6 0.000000 0.000000 0.000000 0.000000 0.000000 0.150988
#
#
# Mechanical properties :
#
#
# Convention : Reuss Voigt Hill
#
# Bulk Modulus (GPa) = 54.33309 61.60823 57.97066
# Shear Modulus (GPa) = 14.87620 22.72280 18.79950
#
# Velocity S-wave (km/s) = 2.81035 3.47332 3.15927
# Velocity P-wave (km/s) = 6.27512 6.98528 6.63970
#
# Compressibility (1/GPa) = 0.01840499
#
# Stress axis : x y z
#
# Youngs Moduli (GPa) = 49.46812 67.34258 127.77090
#
# Poissons Ratio (x) = 0.41841 0.61867
# Poissons Ratio (y) = 0.30736 0.15176
# Poissons Ratio (z) = 0.23953 0.07998
#
# Static dielectric constant tensor:
#      x y z
#    x 3.592840 0.000000 0.000000 
#    y 0.000000 3.595870 0.000000 
#    z 0.000000 0.000000 3.631000 
# 
# 
# High freq. dielectric constant tensor:
#      x y z
#    x 1.734810 0.000000 0.000000 
#    y 0.000000 1.696470 0.000000 
#    z 0.000000 0.000000 1.735260 
# 
# From -- ./inp_files/53302.got.cif
#   From: 2010.03.12/outbox.cif.g09.slc.cpg/sg65_27_cif.got.tgz:53302.got - 2010.04.10 20:52:16.
