data_PCOD8266618
_publ_section_title
;
Structure prediction by ZEFSAII (Michael W. Deem and Ramdas Pophale) SiO2 
 PCOD8266618
Probable space group: C M M M
;
_chemical_formula_sum "Si O2"
_cell_formula_units_Z 88
_cell_length_a 22.753026
_cell_length_b 22.922672
_cell_length_c 8.849997
_cell_angle_alpha 90.000000
_cell_angle_beta 90.000000
_cell_angle_gamma 90.000000
_cell_volume 4615.805781
_symmetry_space_group_name_H-M "C M M M"
_symmetry_group_IT_number 65
_symmetry_cell_setting 'orthorhombic'
loop_
_space_group_symop_operation_xyz
x,y,z
-x,-y,z
x,-y,-z
-x,y,-z
-x,-y,-z
x,y,-z
-x,y,z
x,-y,z
1/2+x,1/2+y,z
1/2-x,1/2-y,z
1/2+x,1/2-y,-z
1/2-x,1/2+y,-z
1/2-x,1/2-y,-z
1/2+x,1/2+y,-z
1/2-x,1/2+y,z
1/2+x,1/2-y,z
loop_
_atom_site_type_symbol
_atom_site_label
_atom_site_fract_x
_atom_site_fract_y
_atom_site_fract_z
Si Si1 0.365630 0.829741 0.673787
Si Si2 0.566041 0.728240 0.175716
Si Si3 0.432144 0.500000 0.679676
Si Si4 0.763907 0.813273 0.672891
Si Si5 0.434174 0.937255 0.679831
Si Si6 0.120558 0.877635 0.320301
O O1 0.383901 0.820058 0.500000
O O2 0.384343 0.771484 0.760514
O O3 0.297377 0.847216 0.687131
O O4 0.397505 0.884675 0.751082
O O5 0.500000 0.752349 0.205335
O O6 0.571175 0.666187 0.258802
O O7 0.578090 0.719072 0.000000
O O8 0.500000 0.500000 0.739947
O O9 0.433855 0.500000 0.500000
O O10 0.396274 0.442720 0.738265
O O11 0.782484 0.800780 0.500000
O O12 0.750000 0.750000 0.750327
O O13 0.816019 0.853440 0.743460
O O14 0.432448 0.933498 0.500000
O O15 0.500000 0.930888 0.740246
O O16 0.408405 0.000000 0.732030
O O17 0.120293 0.878019 0.500000
#
# Coordination Sequence:
#
# PCOD8266618 Si02
#       6
#    16  16   8  16  16  16
#     4  10  18  31  52  74 100 136 173 206 251 311
#     4  11  23  35  49  75 106 131 166 218 267 311
#     4   9  18  32  53  81 105 133 180 225 258 306
#     4   9  16  29  49  75 104 129 163 209 250 296
#     4   8  14  25  42  68  99 126 159 204 246 289
#     4  10  19  35  56  76 104 139 174 214 260 311
#
# _framework density 19.064926
#
# number of rings (size 3 to 8) (size 9 to 14) (size 15 to 20)
#    0.000    2.455    1.818    2.182    0.000    2.909 
#    1.636    2.273    0.000    2.182    0.000    2.545 
#    0.000    0.000    0.000    0.000    0.000    0.000 
#
# Total GULP energy -545163.263320 kJ/mol
# GULP energy per Si atom -12390.074166 kJ/mol
# Density = 1.902153 g / cm^3
# Si number density = 19.064926 Si / 1000 Ang^3
#
#
#
# Elastic Constant Matrix: (Units=GPa)
#
#
# Indices 1 2 3 4 5 6 
#
# 1 107.0283 65.7783 15.9224 0.0000 0.0000 0.0000
# 2 65.7783 160.4064 16.5142 0.0000 0.0000 0.0000
# 3 15.9224 16.5142 18.2074 0.0000 0.0000 0.0000
# 4 0.0000 0.0000 0.0000 2.2870 0.0000 0.0000
# 5 0.0000 0.0000 0.0000 0.0000 11.8174 0.0000
# 6 0.0000 0.0000 0.0000 0.0000 0.0000 35.6776
#
#
#
# Elastic Compliance Matrix: (Units=1/GPa)
#
#
# Indices 1 2 3 4 5 6 
#
# 1 0.013337 -0.004708 -0.007393 0.000000 0.000000 0.000000
# 2 -0.004708 0.008538 -0.003627 0.000000 0.000000 0.000000
# 3 -0.007393 -0.003627 0.064677 0.000000 0.000000 0.000000
# 4 0.000000 0.000000 0.000000 0.437247 0.000000 0.000000
# 5 0.000000 0.000000 0.000000 0.000000 0.084621 0.000000
# 6 0.000000 0.000000 0.000000 0.000000 0.000000 0.028029
#
#
# Mechanical properties :
#
#
# Convention : Reuss Voigt Hill
#
# Bulk Modulus (GPa) = 18.14994 53.56355 35.85674
# Shear Modulus (GPa) = 7.28576 22.45157 14.86867
#
# Velocity S-wave (km/s) = 1.95700 3.43539 2.79569
# Velocity P-wave (km/s) = 3.82717 6.62512 5.41015
#
# Compressibility (1/GPa) = 0.05509660
#
# Stress axis : x y z
#
# Youngs Moduli (GPa) = 74.98216 117.12156 15.46137
#
# Poissons Ratio (x) = 0.55139 0.11430
# Poissons Ratio (y) = 0.35300 0.05608
# Poissons Ratio (z) = 0.55432 0.42481
#
# Static dielectric constant tensor:
#      x y z
#    x 3.671630 0.000000 0.000000 
#    y 0.000000 3.854380 0.000000 
#    z 0.000000 0.000000 2.909490 
# 
# 
# High freq. dielectric constant tensor:
#      x y z
#    x 1.748370 0.000000 0.000000 
#    y 0.000000 1.746830 0.000000 
#    z 0.000000 0.000000 1.677440 
# 
# From -- ./inp_files/11805.got.cif
#   From: 2010.03.12/outbox.cif.g09.slc.cpg/sg65_6_cif.got.tgz:11805.got - 2010.04.10 20:52:16.
