data_PCOD8266512
_publ_section_title
;
Structure prediction by ZEFSAII (Michael W. Deem and Ramdas Pophale) SiO2 
 PCOD8266512
Probable space group: C M M M
;
_chemical_formula_sum "Si O2"
_cell_formula_units_Z 72
_cell_length_a 33.688972
_cell_length_b 9.862295
_cell_length_c 11.930279
_cell_angle_alpha 90.000000
_cell_angle_beta 90.000000
_cell_angle_gamma 90.000000
_cell_volume 3963.842119
_symmetry_space_group_name_H-M "C M M M"
_symmetry_group_IT_number 65
_symmetry_cell_setting 'orthorhombic'
loop_
_space_group_symop_operation_xyz
x,y,z
-x,-y,z
x,-y,-z
-x,y,-z
-x,-y,-z
x,y,-z
-x,y,z
x,-y,z
1/2+x,1/2+y,z
1/2-x,1/2-y,z
1/2+x,1/2-y,-z
1/2-x,1/2+y,-z
1/2-x,1/2-y,-z
1/2+x,1/2+y,-z
1/2-x,1/2+y,z
1/2+x,1/2-y,z
loop_
_atom_site_type_symbol
_atom_site_label
_atom_site_fract_x
_atom_site_fract_y
_atom_site_fract_z
Si Si1 0.865418 0.843251 0.131674
Si Si2 0.286746 0.648377 0.743686
Si Si3 0.083932 0.661382 0.281490
Si Si4 0.372597 0.153627 0.500000
Si Si5 0.205285 0.793113 0.500000
Si Si6 0.000000 0.340631 0.625583
O O1 0.823445 0.795499 0.184099
O O2 0.900511 0.745847 0.175246
O O3 0.874227 0.000000 0.163424
O O4 0.862544 0.822902 0.000000
O O5 0.273575 0.500000 0.788299
O O6 0.250000 0.750000 0.755683
O O7 0.301449 0.626211 0.615149
O O8 0.089306 0.500000 0.260325
O O9 0.108831 0.717181 0.387963
O O10 0.038364 0.702725 0.303036
O O11 0.325016 0.166349 0.500000
O O12 0.386370 0.000000 0.500000
O O13 0.250000 0.750000 0.500000
O O14 0.000000 0.500000 0.608430
O O15 0.000000 0.275219 0.500000
#
# Coordination Sequence:
#
# PCOD8266512 Si02
#       6
#    16  16  16   8   8   8
#     4  10  22  40  57  75 106 148 190 231 272 314
#     4  10  21  35  53  78 106 140 179 224 275 325
#     4  10  19  34  58  87 113 140 177 222 272 328
#     4  10  18  30  54  84 111 141 177 220 269 326
#     4  10  19  31  48  77 111 143 169 214 263 329
#     4   9  16  30  56  89 120 142 167 212 277 336
#
# _framework density 18.164194999999999
#
# number of rings (size 3 to 8) (size 9 to 14) (size 15 to 20)
#    0.000    2.111    3.333    0.333    0.000    5.333 
#    0.000    1.667    0.000    4.000    0.000    0.000 
#    0.000    0.000    0.000    0.000    0.000    0.000 
#
# Total GULP energy -446154.929066 kJ/mol
# GULP energy per Si atom -12393.192474 kJ/mol
# Density = 1.812285 g / cm^3
# Si number density = 18.164195 Si / 1000 Ang^3
#
#
#
# Elastic Constant Matrix: (Units=GPa)
#
#
# Indices 1 2 3 4 5 6 
#
# 1 152.1450 51.3552 63.6363 0.0000 0.0000 0.0000
# 2 51.3552 66.3573 37.6040 0.0000 0.0000 0.0000
# 3 63.6363 37.6040 109.3339 0.0000 0.0000 0.0000
# 4 0.0000 0.0000 0.0000 22.4868 0.0000 0.0000
# 5 0.0000 0.0000 0.0000 0.0000 19.5641 0.0000
# 6 0.0000 0.0000 0.0000 0.0000 0.0000 27.5427
#
#
#
# Elastic Compliance Matrix: (Units=1/GPa)
#
#
# Indices 1 2 3 4 5 6 
#
# 1 0.010116 -0.005580 -0.003969 0.000000 0.000000 0.000000
# 2 -0.005580 0.021796 -0.004249 0.000000 0.000000 0.000000
# 3 -0.003969 -0.004249 0.012918 0.000000 0.000000 0.000000
# 4 0.000000 0.000000 0.000000 0.044471 0.000000 0.000000
# 5 0.000000 0.000000 0.000000 0.000000 0.051114 0.000000
# 6 0.000000 0.000000 0.000000 0.000000 0.000000 0.036307
#
#
# Mechanical properties :
#
#
# Convention : Reuss Voigt Hill
#
# Bulk Modulus (GPa) = 58.02221 70.33634 64.17927
# Shear Modulus (GPa) = 23.80255 25.60145 24.70200
#
# Velocity S-wave (km/s) = 3.62389 3.75833 3.69172
# Velocity P-wave (km/s) = 7.03723 7.59210 7.31992
#
# Compressibility (1/GPa) = 0.01723478
#
# Stress axis : x y z
#
# Youngs Moduli (GPa) = 98.85189 45.87976 77.41397
#
# Poissons Ratio (x) = 0.25601 0.30724
# Poissons Ratio (y) = 0.55159 0.32891
# Poissons Ratio (z) = 0.39232 0.19493
#
# Static dielectric constant tensor:
#      x y z
#    x 3.397580 0.000000 0.000000 
#    y 0.000000 3.111180 0.000000 
#    z 0.000000 0.000000 3.588850 
# 
# 
# High freq. dielectric constant tensor:
#      x y z
#    x 1.706000 0.000000 0.000000 
#    y 0.000000 1.679140 0.000000 
#    z 0.000000 0.000000 1.700130 
# 
# From -- ./inp_files/33460.got.cif
#   From: 2010.03.12/outbox.cif.g09.slc.cpg/sg65_17_cif.got.tgz:33460.got - 2010.04.10 20:52:16.
