data_PCOD8266984
_publ_section_title
;
Structure prediction by ZEFSAII (Michael W. Deem and Ramdas Pophale) SiO2 
 PCOD8266984
Probable space group: C M M M
;
_chemical_formula_sum "Si O2"
_cell_formula_units_Z 88
_cell_length_a 15.250073
_cell_length_b 27.822365
_cell_length_c 11.774343
_cell_angle_alpha 90.000000
_cell_angle_beta 90.000000
_cell_angle_gamma 90.000000
_cell_volume 4995.772460
_symmetry_space_group_name_H-M "C M M M"
_symmetry_group_IT_number 65
_symmetry_cell_setting 'orthorhombic'
loop_
_space_group_symop_operation_xyz
x,y,z
-x,-y,z
x,-y,-z
-x,y,-z
-x,-y,-z
x,y,-z
-x,y,z
x,-y,z
1/2+x,1/2+y,z
1/2-x,1/2-y,z
1/2+x,1/2-y,-z
1/2-x,1/2+y,-z
1/2-x,1/2-y,-z
1/2+x,1/2+y,-z
1/2-x,1/2+y,z
1/2+x,1/2-y,z
loop_
_atom_site_type_symbol
_atom_site_label
_atom_site_fract_x
_atom_site_fract_y
_atom_site_fract_z
Si Si1 0.754289 0.137646 0.367283
Si Si2 0.601753 0.187276 0.757549
Si Si3 0.099868 0.785154 0.630772
Si Si4 0.500000 0.557173 0.126486
Si Si5 0.318677 0.554568 0.777951
Si Si6 0.897578 0.348629 0.000000
Si Si7 0.702882 0.053625 0.000000
O O1 0.744185 0.134106 0.500000
O O2 0.660514 0.152559 0.318316
O O3 0.832103 0.173948 0.332362
O O4 0.776926 0.085101 0.322335
O O5 0.500000 0.172545 0.741250
O O6 0.617529 0.241501 0.716474
O O7 0.632911 0.180952 0.888469
O O8 0.116519 0.768699 0.500000
O O9 0.000000 0.804105 0.644066
O O10 0.500000 0.500000 0.114811
O O11 0.584614 0.574792 0.195385
O O12 0.500000 0.579811 0.000000
O O13 0.322101 0.500000 0.734384
O O14 0.263069 0.559530 0.891207
O O15 0.867199 0.403906 0.000000
O O16 0.000000 0.352315 0.000000
O O17 0.658828 0.000000 0.000000
#
# Coordination Sequence:
#
# PCOD8266984 Si02
#       7
#    16  16  16   8  16   8   8
#     4  11  22  35  55  79 107 144 187 226 264 316
#     4  10  20  36  57  79 107 139 176 222 271 324
#     4   9  19  36  56  78 105 140 183 225 263 311
#     4   9  16  30  53  77 101 137 178 215 261 319
#     4  10  20  34  54  80 110 141 178 223 271 320
#     4  10  20  35  55  81 109 137 172 218 276 327
#     4  10  18  34  57  79 105 139 181 222 267 320
#
# _framework density 17.614894
#
# number of rings (size 3 to 8) (size 9 to 14) (size 15 to 20)
#    0.000    2.091    2.727    1.091    1.273    3.091 
#    0.000    2.727    0.000    2.182    0.000    1.273 
#    0.000    0.000    0.000    0.000    0.000    0.000 
#
# Total GULP energy -545542.741742 kJ/mol
# GULP energy per Si atom -12398.698676 kJ/mol
# Density = 1.757480 g / cm^3
# Si number density = 17.614894 Si / 1000 Ang^3
#
#
#
# Elastic Constant Matrix: (Units=GPa)
#
#
# Indices 1 2 3 4 5 6 
#
# 1 52.4476 37.1157 50.1982 0.0000 0.0000 0.0000
# 2 37.1157 93.8869 65.3267 0.0000 0.0000 0.0000
# 3 50.1982 65.3267 111.4976 0.0000 0.0000 0.0000
# 4 0.0000 0.0000 0.0000 36.1411 0.0000 0.0000
# 5 0.0000 0.0000 0.0000 0.0000 22.5216 0.0000
# 6 0.0000 0.0000 0.0000 0.0000 0.0000 27.7507
#
#
#
# Elastic Compliance Matrix: (Units=1/GPa)
#
#
# Indices 1 2 3 4 5 6 
#
# 1 0.034746 -0.004814 -0.012823 0.000000 0.000000 0.000000
# 2 -0.004814 0.018649 -0.008759 0.000000 0.000000 0.000000
# 3 -0.012823 -0.008759 0.019874 0.000000 0.000000 0.000000
# 4 0.000000 0.000000 0.000000 0.027669 0.000000 0.000000
# 5 0.000000 0.000000 0.000000 0.000000 0.044402 0.000000
# 6 0.000000 0.000000 0.000000 0.000000 0.000000 0.036035
#
#
# Mechanical properties :
#
#
# Convention : Reuss Voigt Hill
#
# Bulk Modulus (GPa) = 48.83478 62.56815 55.70147
# Shear Modulus (GPa) = 20.74756 24.29546 22.52151
#
# Velocity S-wave (km/s) = 3.43569 3.71786 3.57956
# Velocity P-wave (km/s) = 6.59715 7.35032 6.98389
#
# Compressibility (1/GPa) = 0.02047721
#
# Stress axis : x y z
#
# Youngs Moduli (GPa) = 28.78013 53.62318 50.31724
#
# Poissons Ratio (x) = 0.25813 0.64522
# Poissons Ratio (y) = 0.13854 0.44073
# Poissons Ratio (z) = 0.36905 0.46969
#
# Static dielectric constant tensor:
#      x y z
#    x 3.419560 0.000000 0.000000 
#    y 0.000000 3.210690 0.000000 
#    z 0.000000 0.000000 3.422100 
# 
# 
# High freq. dielectric constant tensor:
#      x y z
#    x 1.688520 0.000000 0.000000 
#    y 0.000000 1.666640 0.000000 
#    z 0.000000 0.000000 1.682530 
# 
# From -- ./inp_files/25238.got.cif
#   From: 2010.03.12/outbox.cif.g09.slc.cpg/sg65_13_cif.got.tgz:25238.got - 2010.04.10 20:52:16.
