data_PCOD8266373
_publ_section_title
;
Structure prediction by ZEFSAII (Michael W. Deem and Ramdas Pophale) SiO2 
 PCOD8266373
Probable space group: C M M M
;
_chemical_formula_sum "Si O2"
_cell_formula_units_Z 64
_cell_length_a 28.368935
_cell_length_b 8.767053
_cell_length_c 15.492395
_cell_angle_alpha 90.000000
_cell_angle_beta 90.000000
_cell_angle_gamma 90.000000
_cell_volume 3853.143874
_symmetry_space_group_name_H-M "C M M M"
_symmetry_group_IT_number 65
_symmetry_cell_setting 'orthorhombic'
loop_
_space_group_symop_operation_xyz
x,y,z
-x,-y,z
x,-y,-z
-x,y,-z
-x,-y,-z
x,y,-z
-x,y,z
x,-y,z
1/2+x,1/2+y,z
1/2-x,1/2-y,z
1/2+x,1/2-y,-z
1/2-x,1/2+y,-z
1/2-x,1/2-y,-z
1/2+x,1/2+y,-z
1/2-x,1/2+y,z
1/2+x,1/2-y,z
loop_
_atom_site_type_symbol
_atom_site_label
_atom_site_fract_x
_atom_site_fract_y
_atom_site_fract_z
Si Si1 0.802058 0.681316 0.500000
Si Si2 0.801134 0.321254 0.000000
Si Si3 0.800908 0.821288 0.672238
Si Si4 0.053164 0.323137 0.100508
Si Si5 0.643919 0.676426 0.844453
O O1 0.802285 0.500000 0.500000
O O2 0.750000 0.750000 0.500000
O O3 0.825638 0.744908 0.587876
O O4 0.750000 0.250000 0.000000
O O5 0.829068 0.274849 0.085058
O O6 0.794934 0.500000 0.000000
O O7 0.750000 0.750000 0.692683
O O8 0.835364 0.785655 0.751056
O O9 0.794142 0.000000 0.656028
O O10 0.062395 0.500000 0.120039
O O11 0.088864 0.221488 0.156436
O O12 0.000000 0.277804 0.126801
O O13 0.061674 0.288932 0.000000
O O14 0.650002 0.500000 0.868073
#
# Coordination Sequence:
#
# PCOD8266373 Si02
#       5
#     8   8  16  16  16
#     4  10  18  30  50  72  95 126 163 202 244 289
#     4  12  24  36  49  66  97 136 170 205 241 285
#     4  10  20  33  49  71 100 131 164 203 243 289
#     4   9  18  33  52  73  97 128 165 206 252 294
#     4  11  22  34  50  74 100 130 168 204 245 294
#
# _framework density 16.609814
#
# number of rings (size 3 to 8) (size 9 to 14) (size 15 to 20)
#    0.000    1.750    1.250    6.750    0.000    6.500 
#    0.000    1.250    0.000    0.000    0.000    0.875 
#    0.000    7.000    0.000    0.000    0.000    0.000 
#
# Total GULP energy -396817.159441 kJ/mol
# GULP energy per Si atom -12400.536233 kJ/mol
# Density = 1.657201 g / cm^3
# Si number density = 16.609814 Si / 1000 Ang^3
#
#
#
# Elastic Constant Matrix: (Units=GPa)
#
#
# Indices 1 2 3 4 5 6 
#
# 1 102.6040 47.7341 55.9354 0.0000 0.0000 0.0000
# 2 47.7341 118.3025 69.4415 0.0000 0.0000 0.0000
# 3 55.9354 69.4415 118.3122 0.0000 0.0000 0.0000
# 4 0.0000 0.0000 0.0000 22.9000 0.0000 0.0000
# 5 0.0000 0.0000 0.0000 0.0000 6.7501 0.0000
# 6 0.0000 0.0000 0.0000 0.0000 0.0000 28.9240
#
#
#
# Elastic Compliance Matrix: (Units=1/GPa)
#
#
# Indices 1 2 3 4 5 6 
#
# 1 0.013644 -0.002622 -0.004911 0.000000 0.000000 0.000000
# 2 -0.002622 0.013400 -0.006625 0.000000 0.000000 0.000000
# 3 -0.004911 -0.006625 0.014663 0.000000 0.000000 0.000000
# 4 0.000000 0.000000 0.000000 0.043668 0.000000 0.000000
# 5 0.000000 0.000000 0.000000 0.000000 0.148146 0.000000
# 6 0.000000 0.000000 0.000000 0.000000 0.000000 0.034573
#
#
# Mechanical properties :
#
#
# Convention : Reuss Voigt Hill
#
# Bulk Modulus (GPa) = 74.68923 76.16007 75.42465
# Shear Modulus (GPa) = 16.61829 22.78868 19.70349
#
# Velocity S-wave (km/s) = 3.16652 3.70807 3.44794
# Velocity P-wave (km/s) = 7.64419 8.01780 7.83322
#
# Compressibility (1/GPa) = 0.01338881
#
# Stress axis : x y z
#
# Youngs Moduli (GPa) = 73.29459 74.62846 68.20059
#
# Poissons Ratio (x) = 0.19569 0.33495
# Poissons Ratio (y) = 0.19219 0.45183
# Poissons Ratio (z) = 0.35997 0.49442
#
# Static dielectric constant tensor:
#      x y z
#    x 3.215730 0.000000 0.000000 
#    y 0.000000 3.231020 0.000000 
#    z 0.000000 0.000000 3.598170 
# 
# 
# High freq. dielectric constant tensor:
#      x y z
#    x 1.618770 0.000000 0.000000 
#    y 0.000000 1.656010 0.000000 
#    z 0.000000 0.000000 1.632630 
# 
# From -- ./inp_files/46387.got.cif
#   From: 2010.03.12/outbox.cif.g09.slc.cpg/sg65_24_cif.got.tgz:46387.got - 2010.04.10 20:52:16.
