data_PCOD8266460
_publ_section_title
;
Structure prediction by ZEFSAII (Michael W. Deem and Ramdas Pophale) SiO2 
 PCOD8266460
Probable space group: C M M M
;
_chemical_formula_sum "Si O2"
_cell_formula_units_Z 104
_cell_length_a 26.539991
_cell_length_b 10.168906
_cell_length_c 21.046119
_cell_angle_alpha 90.000000
_cell_angle_beta 90.000000
_cell_angle_gamma 90.000000
_cell_volume 5679.982867
_symmetry_space_group_name_H-M "C M M M"
_symmetry_group_IT_number 65
_symmetry_cell_setting 'orthorhombic'
loop_
_space_group_symop_operation_xyz
x,y,z
-x,-y,z
x,-y,-z
-x,y,-z
-x,-y,-z
x,y,-z
-x,y,z
x,-y,z
1/2+x,1/2+y,z
1/2-x,1/2-y,z
1/2+x,1/2-y,-z
1/2-x,1/2+y,-z
1/2-x,1/2-y,-z
1/2+x,1/2+y,-z
1/2-x,1/2+y,z
1/2+x,1/2-y,z
loop_
_atom_site_type_symbol
_atom_site_label
_atom_site_fract_x
_atom_site_fract_y
_atom_site_fract_z
Si Si1 0.367332 0.647193 0.431155
Si Si2 0.705622 0.350836 0.172677
Si Si3 0.094834 0.847480 0.154986
Si Si4 0.057060 0.645283 0.398429
Si Si5 0.057249 0.353048 0.250480
Si Si6 0.793002 0.149613 0.680531
Si Si7 0.000000 0.844674 0.929369
O O1 0.338469 0.654738 0.500000
O O2 0.388014 0.500000 0.420583
O O3 0.413550 0.746064 0.437544
O O4 0.335454 0.688561 0.369885
O O5 0.725578 0.500000 0.161604
O O6 0.750000 0.250000 0.151605
O O7 0.653509 0.329051 0.132311
O O8 0.690161 0.330464 0.246465
O O9 0.090243 0.757172 0.216620
O O10 0.052433 0.800135 0.104341
O O11 0.085660 0.000000 0.173469
O O12 0.079394 0.500000 0.412266
O O13 0.060601 0.676811 0.324266
O O14 0.000000 0.650383 0.421867
O O15 0.077777 0.500000 0.234988
O O16 0.000000 0.341664 0.226407
O O17 0.750000 0.250000 0.663020
O O18 0.774729 0.000000 0.669292
O O19 0.000000 0.000000 0.933788
O O20 0.000000 0.782486 0.000000
#
# Coordination Sequence:
#
# PCOD8266460 Si02
#       7
#    16  16  16  16  16  16   8
#     4  10  21  35  49  67  92 122 159 205 253 299
#     4   9  18  31  49  74 101 129 165 208 258 309
#     4  10  18  30  51  77 104 137 176 213 247 295
#     4   9  19  34  49  67  93 125 160 200 246 300
#     4   9  17  29  46  71 101 128 158 201 257 310
#     4   9  18  33  50  69  95 122 153 198 250 302
#     4   9  18  32  51  79 113 145 178 215 250 283
#
# _framework density 18.309915
#
# number of rings (size 3 to 8) (size 9 to 14) (size 15 to 20)
#    0.000    2.692    0.769    1.846    0.000    4.308 
#    0.000    6.154    0.000    1.385    0.000    0.000 
#    0.000    0.000    0.000    0.000    0.000    0.000 
#
# Total GULP energy -644266.213408 kJ/mol
# GULP energy per Si atom -12389.734873 kJ/mol
# Density = 1.826824 g / cm^3
# Si number density = 18.309915 Si / 1000 Ang^3
#
#
#
# Elastic Constant Matrix: (Units=GPa)
#
#
# Indices 1 2 3 4 5 6 
#
# 1 107.3099 54.0839 36.3121 0.0000 0.0000 0.0000
# 2 54.0839 78.2943 24.2933 0.0000 0.0000 0.0000
# 3 36.3121 24.2933 48.0058 0.0000 0.0000 0.0000
# 4 0.0000 0.0000 0.0000 9.7690 0.0000 0.0000
# 5 0.0000 0.0000 0.0000 0.0000 11.5359 0.0000
# 6 0.0000 0.0000 0.0000 0.0000 0.0000 33.3757
#
#
#
# Elastic Compliance Matrix: (Units=1/GPa)
#
#
# Indices 1 2 3 4 5 6 
#
# 1 0.016522 -0.008939 -0.007974 0.000000 0.000000 0.000000
# 2 -0.008939 0.019988 -0.003353 0.000000 0.000000 0.000000
# 3 -0.007974 -0.003353 0.028559 0.000000 0.000000 0.000000
# 4 0.000000 0.000000 0.000000 0.102365 0.000000 0.000000
# 5 0.000000 0.000000 0.000000 0.000000 0.086686 0.000000
# 6 0.000000 0.000000 0.000000 0.000000 0.000000 0.029962
#
#
# Mechanical properties :
#
#
# Convention : Reuss Voigt Hill
#
# Bulk Modulus (GPa) = 40.75514 51.44318 46.09916
# Shear Modulus (GPa) = 15.02434 18.86417 16.94426
#
# Velocity S-wave (km/s) = 2.86765 3.21327 3.04536
# Velocity P-wave (km/s) = 5.76813 6.47484 6.13168
#
# Compressibility (1/GPa) = 0.02453678
#
# Stress axis : x y z
#
# Youngs Moduli (GPa) = 60.52403 50.03097 35.01485
#
# Poissons Ratio (x) = 0.44723 0.27921
# Poissons Ratio (y) = 0.54103 0.11741
# Poissons Ratio (z) = 0.48262 0.16776
#
# Static dielectric constant tensor:
#      x y z
#    x 3.340780 0.000000 0.000000 
#    y 0.000000 3.403200 0.000000 
#    z 0.000000 0.000000 3.222150 
# 
# 
# High freq. dielectric constant tensor:
#      x y z
#    x 1.696200 0.000000 0.000000 
#    y 0.000000 1.712050 0.000000 
#    z 0.000000 0.000000 1.681190 
# 
# From -- ./inp_files/65882.got.cif
#   From: 2010.03.12/outbox.cif.g09.slc.cpg/sg65_33_cif.got.tgz:65882.got - 2010.04.10 20:52:16.
