data_PCOD8266535
_publ_section_title
;
Structure prediction by ZEFSAII (Michael W. Deem and Ramdas Pophale) SiO2 
 PCOD8266535
Probable space group: C M M M
;
_chemical_formula_sum "Si O2"
_cell_formula_units_Z 88
_cell_length_a 10.975923
_cell_length_b 30.691380
_cell_length_c 13.747093
_cell_angle_alpha 90.000000
_cell_angle_beta 90.000000
_cell_angle_gamma 90.000000
_cell_volume 4630.931305
_symmetry_space_group_name_H-M "C M M M"
_symmetry_group_IT_number 65
_symmetry_cell_setting 'orthorhombic'
loop_
_space_group_symop_operation_xyz
x,y,z
-x,-y,z
x,-y,-z
-x,y,-z
-x,-y,-z
x,y,-z
-x,y,z
x,-y,z
1/2+x,1/2+y,z
1/2-x,1/2-y,z
1/2+x,1/2-y,-z
1/2-x,1/2+y,-z
1/2-x,1/2-y,-z
1/2+x,1/2+y,-z
1/2-x,1/2+y,z
1/2+x,1/2-y,z
loop_
_atom_site_type_symbol
_atom_site_label
_atom_site_fract_x
_atom_site_fract_y
_atom_site_fract_z
Si Si1 0.861461 0.000000 0.105953
Si Si2 0.000000 0.619351 0.391573
Si Si3 0.860917 0.166177 0.108719
Si Si4 0.000000 0.448376 0.766213
Si Si5 0.360185 0.718067 0.704449
Si Si6 0.735539 0.365711 0.612088
Si Si7 0.257090 0.417040 0.799659
O O1 0.838358 0.042629 0.169663
O O2 0.000000 0.000000 0.079240
O O3 0.791955 0.000000 0.000000
O O4 0.878234 0.647713 0.370133
O O5 0.000000 0.602893 0.500000
O O6 0.000000 0.572899 0.339547
O O7 0.837423 0.205883 0.182786
O O8 0.777432 0.125073 0.133620
O O9 0.000000 0.150293 0.117306
O O10 0.830195 0.182719 0.000000
O O11 0.118826 0.431246 0.821542
O O12 0.000000 0.500000 0.756816
O O13 0.500000 0.736385 0.690283
O O14 0.250000 0.750000 0.672387
O O15 0.349361 0.675165 0.637511
O O16 0.711217 0.379972 0.500000
O O17 0.709995 0.405649 0.686624
#
# Coordination Sequence:
#
# PCOD8266535 Si02
#       7
#     8   8  16   8  16  16  16
#     4  11  22  35  54  78 101 131 179 231 271 313
#     4   8  16  31  54  80 102 138 186 224 260 307
#     4   9  18  36  59  79 103 139 183 225 267 319
#     4  10  18  31  48  72 112 148 170 216 270 318
#     4  10  22  37  57  84 112 143 176 220 275 327
#     4   9  19  36  57  80 108 142 181 220 263 318
#     4  10  19  34  54  77 107 142 179 219 269 316
#
# _framework density 19.002656000000002
#
# number of rings (size 3 to 8) (size 9 to 14) (size 15 to 20)
#    0.000    2.455    0.909    1.091    1.273    3.455 
#    1.636    2.727    0.000    0.545    0.000    0.000 
#    0.000    0.000    0.000    0.000    0.000    0.000 
#
# Total GULP energy -545185.966931 kJ/mol
# GULP energy per Si atom -12390.590158 kJ/mol
# Density = 1.895941 g / cm^3
# Si number density = 19.002656 Si / 1000 Ang^3
#
#
#
# Elastic Constant Matrix: (Units=GPa)
#
#
# Indices 1 2 3 4 5 6 
#
# 1 99.1641 39.2454 23.7418 0.0000 0.0000 0.0000
# 2 39.2454 66.3143 20.8807 0.0000 0.0000 0.0000
# 3 23.7418 20.8807 110.6929 0.0000 0.0000 0.0000
# 4 0.0000 0.0000 0.0000 16.1137 0.0000 0.0000
# 5 0.0000 0.0000 0.0000 0.0000 22.5141 0.0000
# 6 0.0000 0.0000 0.0000 0.0000 0.0000 76.3542
#
#
#
# Elastic Compliance Matrix: (Units=1/GPa)
#
#
# Indices 1 2 3 4 5 6 
#
# 1 0.013388 -0.007462 -0.001464 0.000000 0.000000 0.000000
# 2 -0.007462 0.020191 -0.002208 0.000000 0.000000 0.000000
# 3 -0.001464 -0.002208 0.009765 0.000000 0.000000 0.000000
# 4 0.000000 0.000000 0.000000 0.062059 0.000000 0.000000
# 5 0.000000 0.000000 0.000000 0.000000 0.044417 0.000000
# 6 0.000000 0.000000 0.000000 0.000000 0.000000 0.013097
#
#
# Mechanical properties :
#
#
# Convention : Reuss Voigt Hill
#
# Bulk Modulus (GPa) = 47.44938 49.32300 48.38619
# Shear Modulus (GPa) = 26.01320 35.81663 30.91491
#
# Velocity S-wave (km/s) = 3.70391 4.34616 4.03783
# Velocity P-wave (km/s) = 6.58149 7.15526 6.87436
#
# Compressibility (1/GPa) = 0.02107509
#
# Stress axis : x y z
#
# Youngs Moduli (GPa) = 74.69350 49.52640 102.41144
#
# Poissons Ratio (x) = 0.36958 0.14992
# Poissons Ratio (y) = 0.55738 0.22615
# Poissons Ratio (z) = 0.10934 0.10937
#
# Static dielectric constant tensor:
#      x y z
#    x 3.763680 0.000000 0.000000 
#    y 0.000000 3.190410 0.000000 
#    z 0.000000 0.000000 3.553160 
# 
# 
# High freq. dielectric constant tensor:
#      x y z
#    x 1.744380 0.000000 0.000000 
#    y 0.000000 1.713490 0.000000 
#    z 0.000000 0.000000 1.740560 
# 
# From -- ./inp_files/38685.got.cif
#   From: 2010.03.12/outbox.cif.g09.slc.cpg/sg65_20_cif.got.tgz:38685.got - 2010.04.10 20:52:16.
