data_PCOD8266879
_publ_section_title
;
Structure prediction by ZEFSAII (Michael W. Deem and Ramdas Pophale) SiO2 
 PCOD8266879
Probable space group: C M M M
;
_chemical_formula_sum "Si O2"
_cell_formula_units_Z 64
_cell_length_a 8.562794
_cell_length_b 14.962059
_cell_length_c 24.535697
_cell_angle_alpha 90.000000
_cell_angle_beta 90.000000
_cell_angle_gamma 90.000000
_cell_volume 3143.440605
_symmetry_space_group_name_H-M "C M M M"
_symmetry_group_IT_number 65
_symmetry_cell_setting 'orthorhombic'
loop_
_space_group_symop_operation_xyz
x,y,z
-x,-y,z
x,-y,-z
-x,y,-z
-x,-y,-z
x,y,-z
-x,y,z
x,-y,z
1/2+x,1/2+y,z
1/2-x,1/2-y,z
1/2+x,1/2-y,-z
1/2-x,1/2+y,-z
1/2-x,1/2-y,-z
1/2+x,1/2+y,-z
1/2-x,1/2+y,z
1/2+x,1/2-y,z
loop_
_atom_site_type_symbol
_atom_site_label
_atom_site_fract_x
_atom_site_fract_y
_atom_site_fract_z
Si Si1 0.814846 0.650679 0.747023
Si Si2 0.314794 0.500000 0.060697
Si Si3 0.315031 0.651459 0.858374
Si Si4 0.315509 0.650963 0.635712
Si Si5 0.680250 0.000000 0.435796
O O1 0.750000 0.750000 0.747513
O O2 0.752140 0.606458 0.802756
O O3 0.748851 0.605957 0.691867
O O4 0.000000 0.647711 0.745993
O O5 0.500000 0.500000 0.057539
O O6 0.258685 0.411174 0.092136
O O7 0.241676 0.500000 0.000000
O O8 0.500000 0.656218 0.853262
O O9 0.250000 0.750000 0.869495
O O10 0.500000 0.656463 0.638757
O O11 0.250000 0.750000 0.626039
O O12 0.262943 0.588901 0.586224
O O13 0.500000 0.000000 0.418272
O O14 0.701539 0.000000 0.500000
#
# Coordination Sequence:
#
# PCOD8266879 Si02
#       5
#    16   8  16  16   8
#     4  10  18  32  55  84 117 148 184 228 281 341
#     4   9  20  37  55  76 105 144 188 229 272 331
#     4  10  19  34  56  81 110 143 182 227 279 335
#     4  11  22  39  63  90 121 155 193 237 290 346
#     4  11  25  44  63  86 117 154 200 247 288 337
#
# _framework density 20.359856000000001
#
# number of rings (size 3 to 8) (size 9 to 14) (size 15 to 20)
#    0.000    1.750    0.000    8.625    0.000    3.000 
#    0.000    6.250    0.000    5.250    0.000    0.000 
#    0.000    0.000    0.000    0.000    0.000    0.000 
#
# Total GULP energy -396735.341942 kJ/mol
# GULP energy per Si atom -12397.979436 kJ/mol
# Density = 2.031352 g / cm^3
# Si number density = 20.359856 Si / 1000 Ang^3
#
#
#
# Elastic Constant Matrix: (Units=GPa)
#
#
# Indices 1 2 3 4 5 6 
#
# 1 166.9060 44.7312 62.7660 0.0000 0.0000 0.0000
# 2 44.7312 107.1786 67.5447 0.0000 0.0000 0.0000
# 3 62.7660 67.5447 153.6312 0.0000 0.0000 0.0000
# 4 0.0000 0.0000 0.0000 38.3330 0.0000 0.0000
# 5 0.0000 0.0000 0.0000 0.0000 26.5824 0.0000
# 6 0.0000 0.0000 0.0000 0.0000 0.0000 25.3069
#
#
#
# Elastic Compliance Matrix: (Units=1/GPa)
#
#
# Indices 1 2 3 4 5 6 
#
# 1 0.007274 -0.001609 -0.002265 0.000000 0.000000 0.000000
# 2 -0.001609 0.013262 -0.005173 0.000000 0.000000 0.000000
# 3 -0.002265 -0.005173 0.009709 0.000000 0.000000 0.000000
# 4 0.000000 0.000000 0.000000 0.026087 0.000000 0.000000
# 5 0.000000 0.000000 0.000000 0.000000 0.037619 0.000000
# 6 0.000000 0.000000 0.000000 0.000000 0.000000 0.039515
#
#
# Mechanical properties :
#
#
# Convention : Reuss Voigt Hill
#
# Bulk Modulus (GPa) = 82.29472 86.42216 84.35844
# Shear Modulus (GPa) = 32.13166 34.88940 33.51053
#
# Velocity S-wave (km/s) = 3.97695 4.14410 4.06139
# Velocity P-wave (km/s) = 7.84831 8.08935 7.96974
#
# Compressibility (1/GPa) = 0.01215145
#
# Stress axis : x y z
#
# Youngs Moduli (GPa) = 137.47327 75.40359 102.99926
#
# Poissons Ratio (x) = 0.12130 0.23325
# Poissons Ratio (y) = 0.22116 0.53286
# Poissons Ratio (z) = 0.31132 0.39010
#
# Static dielectric constant tensor:
#      x y z
#    x 3.698870 0.000000 0.000000 
#    y 0.000000 3.505900 0.000000 
#    z 0.000000 0.000000 4.427070 
# 
# 
# High freq. dielectric constant tensor:
#      x y z
#    x 1.801720 0.000000 0.000000 
#    y 0.000000 1.785670 0.000000 
#    z 0.000000 0.000000 1.804800 
# 
# From -- ./inp_files/66767.got.cif
#   From: 2010.03.12/outbox.cif.g09.slc.cpg/sg65_34_cif.got.tgz:66767.got - 2010.04.10 20:52:16.
