data_PCOD8266830
_publ_section_title
;
Structure prediction by ZEFSAII (Michael W. Deem and Ramdas Pophale) SiO2 
 PCOD8266830
Probable space group: C M M M
;
_chemical_formula_sum "Si O2"
_cell_formula_units_Z 60
_cell_length_a 14.183645
_cell_length_b 33.914296
_cell_length_c 7.743036
_cell_angle_alpha 90.000000
_cell_angle_beta 90.000000
_cell_angle_gamma 90.000000
_cell_volume 3724.619714
_symmetry_space_group_name_H-M "C M M M"
_symmetry_group_IT_number 65
_symmetry_cell_setting 'orthorhombic'
loop_
_space_group_symop_operation_xyz
x,y,z
-x,-y,z
x,-y,-z
-x,y,-z
-x,-y,-z
x,y,-z
-x,y,z
x,-y,z
1/2+x,1/2+y,z
1/2-x,1/2-y,z
1/2+x,1/2-y,-z
1/2-x,1/2+y,-z
1/2-x,1/2-y,-z
1/2+x,1/2+y,-z
1/2-x,1/2+y,z
1/2+x,1/2-y,z
loop_
_atom_site_type_symbol
_atom_site_label
_atom_site_fract_x
_atom_site_fract_y
_atom_site_fract_z
Si Si1 0.500000 0.289715 0.691463
Si Si2 0.000000 0.729991 0.000000
Si Si3 0.606210 0.500000 0.797550
Si Si4 0.792811 0.705951 0.000000
Si Si5 0.189740 0.162572 0.699270
Si Si6 0.104957 0.916726 0.300564
O O1 0.500000 0.270848 0.500000
O O2 0.410140 0.316733 0.719110
O O3 0.500000 0.255197 0.827391
O O4 0.094202 0.704099 0.000000
O O5 0.500000 0.500000 0.723042
O O6 0.654306 0.540494 0.730424
O O7 0.609734 0.500000 0.000000
O O8 0.750000 0.750000 0.000000
O O9 0.763075 0.683736 0.825172
O O10 0.226323 0.164622 0.500000
O O11 0.174059 0.117675 0.768002
O O12 0.091314 0.907913 0.500000
O O13 0.000000 0.915753 0.212346
#
# Coordination Sequence:
#
# PCOD8266830 Si02
#       6
#     8   4   8   8  16  16
#     4  10  18  32  54  75  99 129 165 208 243 286
#     4  12  24  40  48  76  98 122 166 206 264 302
#     4   9  17  25  35  65  99 133 166 195 230 278
#     4  12  24  36  54  73  97 129 163 211 255 299
#     4  10  20  34  52  76 100 132 173 206 242 289
#     4   9  16  28  45  65  96 134 167 199 236 281
#
# _framework density 16.109027000000001
#
# number of rings (size 3 to 8) (size 9 to 14) (size 15 to 20)
#    0.000    2.000    4.000    0.400    1.867    3.200 
#    0.000    0.000    0.000    0.000    0.000    0.000 
#    0.000    2.133    0.000    6.000    0.000    0.000 
#
# Total GULP energy -371786.801646 kJ/mol
# GULP energy per Si atom -12392.893388 kJ/mol
# Density = 1.607236 g / cm^3
# Si number density = 16.109027 Si / 1000 Ang^3
#
#
#
# Elastic Constant Matrix: (Units=GPa)
#
#
# Indices 1 2 3 4 5 6 
#
# 1 79.6292 48.5297 36.2148 0.0000 0.0000 0.0000
# 2 48.5297 138.1665 53.3483 0.0000 0.0000 0.0000
# 3 36.2148 53.3483 81.2206 0.0000 0.0000 0.0000
# 4 0.0000 0.0000 0.0000 26.7678 0.0000 0.0000
# 5 0.0000 0.0000 0.0000 0.0000 21.0227 0.0000
# 6 0.0000 0.0000 0.0000 0.0000 0.0000 -9.4080
#
#
#
# Elastic Compliance Matrix: (Units=1/GPa)
#
#
# Indices 1 2 3 4 5 6 
#
# 1 0.017378 -0.004169 -0.005010 0.000000 0.000000 0.000000
# 2 -0.004169 0.010697 -0.005167 0.000000 0.000000 0.000000
# 3 -0.005010 -0.005167 0.017940 0.000000 0.000000 0.000000
# 4 0.000000 0.000000 0.000000 0.037358 0.000000 0.000000
# 5 0.000000 0.000000 0.000000 0.000000 0.047568 0.000000
# 6 0.000000 0.000000 0.000000 0.000000 0.000000 -0.106293
#
#
# Mechanical properties :
#
#
# Convention : Reuss Voigt Hill
#
# Bulk Modulus (GPa) = 57.73006 63.91131 60.82069
# Shear Modulus (GPa) = 84.58099 18.40474 51.49286
#
# Velocity S-wave (km/s) = 7.25392 3.38377 5.65991
# Velocity P-wave (km/s) = 10.29922 7.41801 8.97499
#
# Compressibility (1/GPa) = 0.01732200
#
# Stress axis : x y z
#
# Youngs Moduli (GPa) = 57.54522 93.48185 55.74154
#
# Poissons Ratio (x) = 0.38976 0.27925
# Poissons Ratio (y) = 0.23993 0.28803
# Poissons Ratio (z) = 0.28829 0.48305
#
# Static dielectric constant tensor:
#      x y z
#    x 2.705920 0.000000 0.000000 
#    y 0.000000 3.402730 0.000000 
#    z 0.000000 0.000000 3.249930 
# 
# 
# High freq. dielectric constant tensor:
#      x y z
#    x 1.551440 0.000000 0.000000 
#    y 0.000000 1.628380 0.000000 
#    z 0.000000 0.000000 1.632350 
# 
# From -- ./inp_files/4809.got.cif
#   From: 2010.03.12/outbox.cif.g09.slc.cpg/sg65_3_cif.got.tgz:4809.got - 2010.04.10 20:52:16.
