data_PCOD8266356
_publ_section_title
;
Structure prediction by ZEFSAII (Michael W. Deem and Ramdas Pophale) SiO2 
 PCOD8266356
Probable space group: C M M M
;
_chemical_formula_sum "Si O2"
_cell_formula_units_Z 72
_cell_length_a 18.538695
_cell_length_b 8.694328
_cell_length_c 23.173093
_cell_angle_alpha 90.000000
_cell_angle_beta 90.000000
_cell_angle_gamma 90.000000
_cell_volume 3735.073774
_symmetry_space_group_name_H-M "C M M M"
_symmetry_group_IT_number 65
_symmetry_cell_setting 'orthorhombic'
loop_
_space_group_symop_operation_xyz
x,y,z
-x,-y,z
x,-y,-z
-x,y,-z
-x,-y,-z
x,y,-z
-x,y,z
x,-y,z
1/2+x,1/2+y,z
1/2-x,1/2-y,z
1/2+x,1/2-y,-z
1/2-x,1/2+y,-z
1/2-x,1/2-y,-z
1/2+x,1/2+y,-z
1/2-x,1/2+y,z
1/2+x,1/2-y,z
loop_
_atom_site_type_symbol
_atom_site_label
_atom_site_fract_x
_atom_site_fract_y
_atom_site_fract_z
Si Si1 0.582448 0.678322 0.066323
Si Si2 0.170016 0.183106 0.500000
Si Si3 0.670678 0.182801 0.616538
Si Si4 0.080865 0.317238 0.726827
Si Si5 0.671489 0.180486 0.165376
O O1 0.500000 0.723755 0.079887
O O2 0.595549 0.500000 0.080034
O O3 0.635300 0.779828 0.104590
O O4 0.600669 0.714251 0.000000
O O5 0.250000 0.250000 0.500000
O O6 0.133488 0.248137 0.441566
O O7 0.169579 0.000000 0.500000
O O8 0.750000 0.250000 0.626703
O O9 0.621179 0.238098 0.669245
O O10 0.675723 0.000000 0.611449
O O11 0.078233 0.500000 0.729035
O O12 0.122907 0.252290 0.782585
O O13 0.000000 0.248944 0.727067
O O14 0.750000 0.250000 0.169847
O O15 0.679099 0.000000 0.171014
#
# Coordination Sequence:
#
# PCOD8266356 Si02
#       5
#    16   8  16  16  16
#     4   9  19  37  59  82 110 143 178 218 265 317
#     4  10  18  30  49  74 105 135 169 211 253 302
#     4  10  18  31  53  77 103 134 170 211 255 306
#     4   9  19  35  54  77 104 135 173 217 263 313
#     4  11  22  36  56  81 110 142 179 223 268 315
#
# _framework density 19.276729
#
# number of rings (size 3 to 8) (size 9 to 14) (size 15 to 20)
#    0.000    2.222    0.000    5.667    0.000    2.222 
#    0.000    5.000    0.000   11.333    0.000    0.000 
#    0.000    0.000    0.000    0.000    0.000    0.000 
#
# Total GULP energy -446397.887238 kJ/mol
# GULP energy per Si atom -12399.941312 kJ/mol
# Density = 1.923285 g / cm^3
# Si number density = 19.276729 Si / 1000 Ang^3
#
#
#
# Elastic Constant Matrix: (Units=GPa)
#
#
# Indices 1 2 3 4 5 6 
#
# 1 137.3737 37.3145 88.1652 0.0000 0.0000 0.0000
# 2 37.3145 75.7680 44.4463 0.0000 0.0000 0.0000
# 3 88.1652 44.4463 162.0128 0.0000 0.0000 0.0000
# 4 0.0000 0.0000 0.0000 26.7556 0.0000 0.0000
# 5 0.0000 0.0000 0.0000 0.0000 30.2622 0.0000
# 6 0.0000 0.0000 0.0000 0.0000 0.0000 0.9825
#
#
#
# Elastic Compliance Matrix: (Units=1/GPa)
#
#
# Indices 1 2 3 4 5 6 
#
# 1 0.011536 -0.002382 -0.005624 0.000000 0.000000 0.000000
# 2 -0.002382 0.016221 -0.003154 0.000000 0.000000 0.000000
# 3 -0.005624 -0.003154 0.010098 0.000000 0.000000 0.000000
# 4 0.000000 0.000000 0.000000 0.037375 0.000000 0.000000
# 5 0.000000 0.000000 0.000000 0.000000 0.033045 0.000000
# 6 0.000000 0.000000 0.000000 0.000000 0.000000 1.017833
#
#
# Mechanical properties :
#
#
# Convention : Reuss Voigt Hill
#
# Bulk Modulus (GPa) = 64.36958 79.44517 71.90737
# Shear Modulus (GPa) = 4.33423 25.28195 14.80809
#
# Velocity S-wave (km/s) = 1.50110 3.62543 2.77462
# Velocity P-wave (km/s) = 6.03898 7.66991 6.90278
#
# Compressibility (1/GPa) = 0.01553529
#
# Stress axis : x y z
#
# Youngs Moduli (GPa) = 86.68477 61.64689 99.02726
#
# Poissons Ratio (x) = 0.14685 0.55696
# Poissons Ratio (y) = 0.20649 0.31232
# Poissons Ratio (z) = 0.48754 0.19443
#
# Static dielectric constant tensor:
#      x y z
#    x 3.467840 0.000000 0.000000 
#    y 0.000000 3.311010 0.000000 
#    z 0.000000 0.000000 3.997650 
# 
# 
# High freq. dielectric constant tensor:
#      x y z
#    x 1.736350 0.000000 0.000000 
#    y 0.000000 1.735330 0.000000 
#    z 0.000000 0.000000 1.771480 
# 
# From -- ./inp_files/70358.got.cif
#   From: 2010.03.12/outbox.cif.g09.slc.cpg/sg65_36_cif.got.tgz:70358.got - 2010.04.10 20:52:16.
