data_PCOD8266089
_publ_section_title
;
Structure prediction by ZEFSAII (Michael W. Deem and Ramdas Pophale) SiO2 
 PCOD8266089
Probable space group: C M M M
;
_chemical_formula_sum "Si O2"
_cell_formula_units_Z 96
_cell_length_a 27.794095
_cell_length_b 17.338334
_cell_length_c 11.784912
_cell_angle_alpha 90.000000
_cell_angle_beta 90.000000
_cell_angle_gamma 90.000000
_cell_volume 5679.188011
_symmetry_space_group_name_H-M "C M M M"
_symmetry_group_IT_number 65
_symmetry_cell_setting 'orthorhombic'
loop_
_space_group_symop_operation_xyz
x,y,z
-x,-y,z
x,-y,-z
-x,y,-z
-x,-y,-z
x,y,-z
-x,y,z
x,-y,z
1/2+x,1/2+y,z
1/2-x,1/2-y,z
1/2+x,1/2-y,-z
1/2-x,1/2+y,-z
1/2-x,1/2-y,-z
1/2+x,1/2+y,-z
1/2-x,1/2+y,z
1/2+x,1/2-y,z
loop_
_atom_site_type_symbol
_atom_site_label
_atom_site_fract_x
_atom_site_fract_y
_atom_site_fract_z
Si Si1 0.553999 0.283789 0.630715
Si Si2 0.192417 0.139802 0.369345
Si Si3 0.147026 0.695878 0.370656
Si Si4 0.250759 0.591311 0.000000
Si Si5 0.641527 0.591575 0.000000
Si Si6 0.103040 0.087307 0.762499
Si Si7 0.786629 0.591371 0.759114
O O1 0.562184 0.307998 0.500000
O O2 0.500000 0.253016 0.652059
O O3 0.591988 0.217042 0.662555
O O4 0.562583 0.359942 0.705215
O O5 0.191632 0.115444 0.500000
O O6 0.180851 0.229850 0.354190
O O7 0.153161 0.088373 0.305179
O O8 0.244429 0.122101 0.320411
O O9 0.149859 0.665976 0.500000
O O10 0.163931 0.628867 0.285692
O O11 0.222277 0.618965 0.888272
O O12 0.255210 0.500000 0.000000
O O13 0.304550 0.627253 0.000000
O O14 0.612624 0.619342 0.889279
O O15 0.646306 0.500000 0.000000
O O16 0.083487 0.000000 0.764932
O O17 0.791165 0.500000 0.750360
#
# Coordination Sequence:
#
# PCOD8266089 Si02
#       7
#    16  16  16   8   8  16  16
#     4   9  19  36  55  71  92 126 160 197 252 302
#     4  10  19  30  45  68 102 136 159 187 235 289
#     4   9  19  34  49  69  99 128 157 196 242 293
#     4   9  18  32  46  66  99 137 167 193 230 276
#     4   9  16  30  46  64  98 140 168 192 232 277
#     4  10  18  29  48  72  98 129 166 202 233 275
#     4  11  20  31  49  71  97 129 165 201 234 275
#
# _framework density 16.903824
#
# number of rings (size 3 to 8) (size 9 to 14) (size 15 to 20)
#    0.000    2.333    1.667    3.000    0.000    5.000 
#    0.000    6.250    0.000    2.000    0.000    2.333 
#    0.000    2.000    0.000    0.000    0.000    0.000 
#
# Total GULP energy -595208.872022 kJ/mol
# GULP energy per Si atom -12400.184834 kJ/mol
# Density = 1.686535 g / cm^3
# Si number density = 16.903824 Si / 1000 Ang^3
#
#
#
# Elastic Constant Matrix: (Units=GPa)
#
#
# Indices 1 2 3 4 5 6 
#
# 1 106.9429 39.6861 47.4244 0.0000 0.0000 0.0000
# 2 39.6861 45.5598 32.6481 0.0000 0.0000 0.0000
# 3 47.4244 32.6481 117.4424 0.0000 0.0000 0.0000
# 4 0.0000 0.0000 0.0000 14.9190 0.0000 0.0000
# 5 0.0000 0.0000 0.0000 0.0000 17.9488 0.0000
# 6 0.0000 0.0000 0.0000 0.0000 0.0000 16.5256
#
#
#
# Elastic Compliance Matrix: (Units=1/GPa)
#
#
# Indices 1 2 3 4 5 6 
#
# 1 0.014590 -0.010598 -0.002945 0.000000 0.000000 0.000000
# 2 -0.010598 0.035108 -0.005480 0.000000 0.000000 0.000000
# 3 -0.002945 -0.005480 0.011228 0.000000 0.000000 0.000000
# 4 0.000000 0.000000 0.000000 0.067029 0.000000 0.000000
# 5 0.000000 0.000000 0.000000 0.000000 0.055714 0.000000
# 6 0.000000 0.000000 0.000000 0.000000 0.000000 0.060512
#
#
# Mechanical properties :
#
#
# Convention : Reuss Voigt Hill
#
# Bulk Modulus (GPa) = 43.70975 56.60692 50.15834
# Shear Modulus (GPa) = 17.25007 19.89111 18.57059
#
# Velocity S-wave (km/s) = 3.19797 3.43406 3.31811
# Velocity P-wave (km/s) = 6.28888 7.02026 6.66461
#
# Compressibility (1/GPa) = 0.02287819
#
# Stress axis : x y z
#
# Youngs Moduli (GPa) = 68.54057 28.48343 89.06645
#
# Poissons Ratio (x) = 0.30188 0.26233
# Poissons Ratio (y) = 0.72642 0.48809
# Poissons Ratio (z) = 0.20187 0.15609
#
# Static dielectric constant tensor:
#      x y z
#    x 3.068410 0.000000 0.000000 
#    y 0.000000 2.879630 0.000000 
#    z 0.000000 0.000000 3.407990 
# 
# 
# High freq. dielectric constant tensor:
#      x y z
#    x 1.632760 0.000000 0.000000 
#    y 0.000000 1.620860 0.000000 
#    z 0.000000 0.000000 1.662290 
# 
# From -- ./inp_files/32478.got.cif
#   From: 2010.03.12/outbox.cif.g09.slc.cpg/sg65_17_cif.got.tgz:32478.got - 2010.04.10 20:52:16.
