data_PCOD8266875
_publ_section_title
;
Structure prediction by ZEFSAII (Michael W. Deem and Ramdas Pophale) SiO2 
 PCOD8266875
Probable space group: C M M M
;
_chemical_formula_sum "Si O2"
_cell_formula_units_Z 64
_cell_length_a 17.862537
_cell_length_b 8.682696
_cell_length_c 20.665511
_cell_angle_alpha 90.000000
_cell_angle_beta 90.000000
_cell_angle_gamma 90.000000
_cell_volume 3205.116985
_symmetry_space_group_name_H-M "C M M M"
_symmetry_group_IT_number 65
_symmetry_cell_setting 'orthorhombic'
loop_
_space_group_symop_operation_xyz
x,y,z
-x,-y,z
x,-y,-z
-x,y,-z
-x,-y,-z
x,y,-z
-x,y,z
x,-y,z
1/2+x,1/2+y,z
1/2-x,1/2-y,z
1/2+x,1/2-y,-z
1/2-x,1/2+y,-z
1/2-x,1/2-y,-z
1/2+x,1/2+y,-z
1/2-x,1/2+y,z
1/2+x,1/2-y,z
loop_
_atom_site_type_symbol
_atom_site_label
_atom_site_fract_x
_atom_site_fract_y
_atom_site_fract_z
Si Si1 0.911589 0.674977 0.000000
Si Si2 0.087114 0.821863 0.251449
Si Si3 0.332886 0.317149 0.500000
Si Si4 0.831833 0.680934 0.369546
Si Si5 0.168226 0.818423 0.879065
O O1 0.882806 0.758994 0.936567
O O2 0.882471 0.500000 0.000000
O O3 0.000000 0.684178 0.000000
O O4 0.113477 0.717366 0.310649
O O5 0.131508 0.765940 0.188275
O O6 0.000000 0.793515 0.238736
O O7 0.104045 0.000000 0.267287
O O8 0.334063 0.500000 0.500000
O O9 0.250000 0.250000 0.500000
O O10 0.370378 0.253740 0.434108
O O11 0.823351 0.500000 0.379072
O O12 0.750000 0.750000 0.355541
O O13 0.250000 0.750000 0.885161
O O14 0.173186 0.000000 0.883829
#
# Coordination Sequence:
#
# PCOD8266875 Si02
#       5
#     8  16   8  16  16
#     4  11  24  41  62  89 121 155 192 237 288 341
#     4  10  22  40  60  84 115 151 191 236 289 345
#     4  10  18  32  55  82 113 148 189 237 287 339
#     4  11  21  35  57  85 116 150 191 237 286 341
#     4  11  23  40  63  89 118 153 194 239 285 338
#
# _framework density 19.968070000000001
#
# number of rings (size 3 to 8) (size 9 to 14) (size 15 to 20)
#    0.000    1.375    0.000    7.875    0.000    6.500 
#    0.000    0.625    0.000    3.750    0.000    0.000 
#    0.000    0.000    0.000    0.000    0.000    0.000 
#
# Total GULP energy -396920.008746 kJ/mol
# GULP energy per Si atom -12403.750273 kJ/mol
# Density = 1.992262 g / cm^3
# Si number density = 19.968070 Si / 1000 Ang^3
#
#
#
# Elastic Constant Matrix: (Units=GPa)
#
#
# Indices 1 2 3 4 5 6 
#
# 1 58.7329 21.7870 29.5759 0.0000 0.0000 0.0000
# 2 21.7870 128.1591 59.3983 0.0000 0.0000 0.0000
# 3 29.5759 59.3983 158.0983 0.0000 0.0000 0.0000
# 4 0.0000 0.0000 0.0000 38.1548 0.0000 0.0000
# 5 0.0000 0.0000 0.0000 0.0000 -21.0627 0.0000
# 6 0.0000 0.0000 0.0000 0.0000 0.0000 23.4470
#
#
#
# Elastic Compliance Matrix: (Units=1/GPa)
#
#
# Indices 1 2 3 4 5 6 
#
# 1 0.019185 -0.001935 -0.002862 0.000000 0.000000 0.000000
# 2 -0.001935 0.009643 -0.003261 0.000000 0.000000 0.000000
# 3 -0.002862 -0.003261 0.008086 0.000000 0.000000 0.000000
# 4 0.000000 0.000000 0.000000 0.026209 0.000000 0.000000
# 5 0.000000 0.000000 0.000000 0.000000 -0.047477 0.000000
# 6 0.000000 0.000000 0.000000 0.000000 0.000000 0.042649
#
#
# Mechanical properties :
#
#
# Convention : Reuss Voigt Hill
#
# Bulk Modulus (GPa) = 48.08138 62.94583 55.51361
# Shear Modulus (GPa) = 61.46727 23.72308 42.59517
#
# Velocity S-wave (km/s) = 5.55424 3.45055 4.62363
# Velocity P-wave (km/s) = 8.07863 6.88961 7.50769
#
# Compressibility (1/GPa) = 0.02079807
#
# Stress axis : x y z
#
# Youngs Moduli (GPa) = 52.12340 103.70073 123.67423
#
# Poissons Ratio (x) = 0.20066 0.35396
# Poissons Ratio (y) = 0.10086 0.40330
# Poissons Ratio (z) = 0.14918 0.33817
#
# Static dielectric constant tensor:
#      x y z
#    x 3.553460 0.000000 0.000000 
#    y 0.000000 3.792000 0.000000 
#    z 0.000000 0.000000 4.159690 
# 
# 
# High freq. dielectric constant tensor:
#      x y z
#    x 1.765290 0.000000 0.000000 
#    y 0.000000 1.790550 0.000000 
#    z 0.000000 0.000000 1.803000 
# 
# From -- ./inp_files/63234.got.cif
#   From: 2010.03.12/outbox.cif.g09.slc.cpg/sg65_32_cif.got.tgz:63234.got - 2010.04.10 20:52:16.
