data_PCOD8266608
_publ_section_title
;
Structure prediction by ZEFSAII (Michael W. Deem and Ramdas Pophale) SiO2 
 PCOD8266608
Probable space group: C M M M
;
_chemical_formula_sum "Si O2"
_cell_formula_units_Z 96
_cell_length_a 18.165546
_cell_length_b 24.032708
_cell_length_c 12.436234
_cell_angle_alpha 90.000000
_cell_angle_beta 90.000000
_cell_angle_gamma 90.000000
_cell_volume 5429.252635
_symmetry_space_group_name_H-M "C M M M"
_symmetry_group_IT_number 65
_symmetry_cell_setting 'orthorhombic'
loop_
_space_group_symop_operation_xyz
x,y,z
-x,-y,z
x,-y,-z
-x,y,-z
-x,-y,-z
x,y,-z
-x,y,z
x,-y,z
1/2+x,1/2+y,z
1/2-x,1/2-y,z
1/2+x,1/2-y,-z
1/2-x,1/2+y,-z
1/2-x,1/2-y,-z
1/2+x,1/2+y,-z
1/2-x,1/2+y,z
1/2+x,1/2-y,z
loop_
_atom_site_type_symbol
_atom_site_label
_atom_site_fract_x
_atom_site_fract_y
_atom_site_fract_z
Si Si1 0.842555 0.438379 0.874206
Si Si2 0.750000 0.750000 0.217150
Si Si3 0.792480 0.136060 0.874796
Si Si4 0.915502 0.132846 0.297321
Si Si5 0.122961 0.745837 0.625270
Si Si6 0.000000 0.657659 0.379373
Si Si7 0.412614 0.562664 0.500000
Si Si8 0.000000 0.565300 0.211193
O O1 0.831236 0.500000 0.823675
O O2 0.778481 0.397883 0.829851
O O3 0.925753 0.417182 0.852183
O O4 0.832539 0.441276 0.000000
O O5 0.776365 0.798850 0.139230
O O6 0.811102 0.728109 0.298580
O O7 0.864769 0.120281 0.806123
O O8 0.808885 0.123566 0.000000
O O9 0.912112 0.196162 0.337249
O O10 0.884884 0.093965 0.393148
O O11 0.000000 0.118692 0.266822
O O12 0.145676 0.750056 0.500000
O O13 0.069234 0.695283 0.647302
O O14 0.000000 0.599414 0.319796
O O15 0.000000 0.637468 0.500000
O O16 0.381125 0.500000 0.500000
O O17 0.500000 0.563245 0.500000
O O18 0.000000 0.500000 0.236665
#
# Coordination Sequence:
#
# PCOD8266608 Si02
#       8
#    16   8  16  16  16   8   8   8
#     4   9  18  34  56  78  99 131 176 223 266 309
#     4  10  20  32  50  74 106 141 177 220 268 318
#     4  10  21  35  52  76 110 150 181 219 270 323
#     4  10  19  33  55  78 108 142 180 225 268 319
#     4  10  18  31  51  76 102 134 176 223 266 315
#     4  10  20  30  49  74 100 137 171 204 255 314
#     4   9  18  32  54  81 106 133 171 226 281 318
#     4  10  19  33  54  77 103 130 171 223 267 316
#
# _framework density 17.681992000000001
#
# number of rings (size 3 to 8) (size 9 to 14) (size 15 to 20)
#    0.000    2.250    1.667    1.750    0.000    2.167 
#    0.000    0.000    1.833    1.000    0.000    4.667 
#    0.000    0.000    0.000    0.000    0.000    0.000 
#
# Total GULP energy -594960.800909 kJ/mol
# GULP energy per Si atom -12395.016686 kJ/mol
# Density = 1.764175 g / cm^3
# Si number density = 17.681992 Si / 1000 Ang^3
#
#
#
# Elastic Constant Matrix: (Units=GPa)
#
#
# Indices 1 2 3 4 5 6 
#
# 1 104.8116 30.6788 52.5315 0.0000 0.0000 0.0000
# 2 30.6788 64.0973 36.9714 0.0000 0.0000 0.0000
# 3 52.5315 36.9714 91.5273 0.0000 0.0000 0.0000
# 4 0.0000 0.0000 0.0000 23.2638 0.0000 0.0000
# 5 0.0000 0.0000 0.0000 0.0000 26.8407 0.0000
# 6 0.0000 0.0000 0.0000 0.0000 0.0000 26.2793
#
#
#
# Elastic Compliance Matrix: (Units=1/GPa)
#
#
# Indices 1 2 3 4 5 6 
#
# 1 0.013728 -0.002641 -0.006812 0.000000 0.000000 0.000000
# 2 -0.002641 0.020849 -0.006906 0.000000 0.000000 0.000000
# 3 -0.006812 -0.006906 0.017625 0.000000 0.000000 0.000000
# 4 0.000000 0.000000 0.000000 0.042985 0.000000 0.000000
# 5 0.000000 0.000000 0.000000 0.000000 0.037257 0.000000
# 6 0.000000 0.000000 0.000000 0.000000 0.000000 0.038053
#
#
# Mechanical properties :
#
#
# Convention : Reuss Voigt Hill
#
# Bulk Modulus (GPa) = 51.32565 55.64441 53.48503
# Shear Modulus (GPa) = 23.84242 24.62706 24.23474
#
# Velocity S-wave (km/s) = 3.67604 3.73604 3.70616
# Velocity P-wave (km/s) = 6.86351 7.08156 6.97339
#
# Compressibility (1/GPa) = 0.01948344
#
# Stress axis : x y z
#
# Youngs Moduli (GPa) = 72.84150 47.96470 56.73742
#
# Poissons Ratio (x) = 0.12669 0.38652
# Poissons Ratio (y) = 0.19240 0.39180
# Poissons Ratio (z) = 0.49622 0.33122
#
# Static dielectric constant tensor:
#      x y z
#    x 3.595010 0.000000 0.000000 
#    y 0.000000 3.361040 0.000000 
#    z 0.000000 0.000000 3.149710 
# 
# 
# High freq. dielectric constant tensor:
#      x y z
#    x 1.684760 0.000000 0.000000 
#    y 0.000000 1.683860 0.000000 
#    z 0.000000 0.000000 1.674810 
# 
# From -- ./inp_files/27229.got.cif
#   From: 2010.03.12/outbox.cif.g09.slc.cpg/sg65_14_cif.got.tgz:27229.got - 2010.04.10 20:52:16.
