data_PCOD8266826
_publ_section_title
;
Structure prediction by ZEFSAII (Michael W. Deem and Ramdas Pophale) SiO2 
 PCOD8266826
Probable space group: C M M M
;
_chemical_formula_sum "Si O2"
_cell_formula_units_Z 128
_cell_length_a 20.199904
_cell_length_b 19.608147
_cell_length_c 18.784819
_cell_angle_alpha 90.000000
_cell_angle_beta 90.000000
_cell_angle_gamma 90.000000
_cell_volume 7440.341585
_symmetry_space_group_name_H-M "C M M M"
_symmetry_group_IT_number 65
_symmetry_cell_setting 'orthorhombic'
loop_
_space_group_symop_operation_xyz
x,y,z
-x,-y,z
x,-y,-z
-x,y,-z
-x,-y,-z
x,y,-z
-x,y,z
x,-y,z
1/2+x,1/2+y,z
1/2-x,1/2-y,z
1/2+x,1/2-y,-z
1/2-x,1/2+y,-z
1/2-x,1/2-y,-z
1/2+x,1/2+y,-z
1/2-x,1/2+y,z
1/2+x,1/2-y,z
loop_
_atom_site_type_symbol
_atom_site_label
_atom_site_fract_x
_atom_site_fract_y
_atom_site_fract_z
Si Si1 0.310854 0.078116 0.919628
Si Si2 0.423976 0.182649 0.080680
Si Si3 0.266553 0.424131 0.647915
Si Si4 0.575061 0.210743 0.646045
Si Si5 0.140206 0.747580 0.208923
Si Si6 0.875397 0.422730 0.582919
Si Si7 0.811648 0.206080 0.581844
Si Si8 0.757370 0.858919 0.793078
O O1 0.380483 0.115445 0.905408
O O2 0.252043 0.104630 0.869083
O O3 0.325835 0.000000 0.903673
O O4 0.285913 0.090487 0.000000
O O5 0.500000 0.163199 0.095408
O O6 0.399618 0.240904 0.134903
O O7 0.414394 0.209927 0.000000
O O8 0.296527 0.500000 0.636740
O O9 0.201834 0.414878 0.599741
O O10 0.317825 0.365757 0.623261
O O11 0.250230 0.414841 0.731122
O O12 0.500000 0.231094 0.629603
O O13 0.590648 0.232449 0.726586
O O14 0.583953 0.129720 0.632231
O O15 0.621303 0.251980 0.591722
O O16 0.170283 0.823824 0.210712
O O17 0.200278 0.695927 0.216515
O O18 0.886871 0.405384 0.500000
O O19 0.899209 0.500000 0.600033
O O20 0.799184 0.190305 0.500000
O O21 0.750000 0.250000 0.613600
#
# Coordination Sequence:
#
# PCOD8266826 Si02
#       8
#    16  16  16  16  16  16  16  16
#     4   9  18  31  48  75 109 140 173 214 258 311
#     4   9  18  32  49  72 105 144 180 211 249 304
#     4  11  20  33  56  82 105 135 178 225 269 318
#     4  12  23  36  55  80 110 144 182 223 268 319
#     4  10  19  33  52  75 103 135 172 220 265 306
#     4  10  21  36  54  79 111 144 178 218 266 321
#     4  11  21  36  56  78 106 139 179 225 268 318
#     4  10  18  32  54  75 101 135 172 214 269 318
#
# _framework density 17.203510000000001
#
# number of rings (size 3 to 8) (size 9 to 14) (size 15 to 20)
#    0.000    1.750    3.750    1.500    0.000    2.750 
#    0.000    4.375    0.000    1.875    0.000    0.875 
#    0.000    0.000    0.000    6.000    0.000    0.250 
#
# Total GULP energy -793588.610478 kJ/mol
# GULP energy per Si atom -12399.822039 kJ/mol
# Density = 1.716435 g / cm^3
# Si number density = 17.203510 Si / 1000 Ang^3
#
#
#
# Elastic Constant Matrix: (Units=GPa)
#
#
# Indices 1 2 3 4 5 6 
#
# 1 84.6980 44.0344 35.9100 0.0000 0.0000 0.0000
# 2 44.0344 87.5969 41.3783 0.0000 0.0000 0.0000
# 3 35.9100 41.3783 95.2779 0.0000 0.0000 0.0000
# 4 0.0000 0.0000 0.0000 26.7350 0.0000 0.0000
# 5 0.0000 0.0000 0.0000 0.0000 14.8719 0.0000
# 6 0.0000 0.0000 0.0000 0.0000 0.0000 16.5593
#
#
#
# Elastic Compliance Matrix: (Units=1/GPa)
#
#
# Indices 1 2 3 4 5 6 
#
# 1 0.016793 -0.006859 -0.003350 0.000000 0.000000 0.000000
# 2 -0.006859 0.017164 -0.004869 0.000000 0.000000 0.000000
# 3 -0.003350 -0.004869 0.013873 0.000000 0.000000 0.000000
# 4 0.000000 0.000000 0.000000 0.037404 0.000000 0.000000
# 5 0.000000 0.000000 0.000000 0.000000 0.067241 0.000000
# 6 0.000000 0.000000 0.000000 0.000000 0.000000 0.060389
#
#
# Mechanical properties :
#
#
# Convention : Reuss Voigt Hill
#
# Bulk Modulus (GPa) = 56.58357 56.69089 56.63723
# Shear Modulus (GPa) = 20.08740 21.38325 20.73533
#
# Velocity S-wave (km/s) = 3.42077 3.52939 3.47550
# Velocity P-wave (km/s) = 6.96881 7.04510 7.00706
#
# Compressibility (1/GPa) = 0.01767297
#
# Stress axis : x y z
#
# Youngs Moduli (GPa) = 59.54770 58.26166 72.08292
#
# Poissons Ratio (x) = 0.39963 0.24151
# Poissons Ratio (y) = 0.40845 0.35097
# Poissons Ratio (z) = 0.19951 0.28367
#
# Static dielectric constant tensor:
#      x y z
#    x 2.983490 0.000000 0.000000 
#    y 0.000000 3.270260 0.000000 
#    z 0.000000 0.000000 3.377160 
# 
# 
# High freq. dielectric constant tensor:
#      x y z
#    x 1.631010 0.000000 0.000000 
#    y 0.000000 1.654220 0.000000 
#    z 0.000000 0.000000 1.680170 
# 
# From -- ./inp_files/56251.got.cif
#   From: 2010.03.12/outbox.cif.g09.slc.cpg/sg65_29_cif.got.tgz:56251.got - 2010.04.10 20:52:16.
