data_PCOD8266405
_publ_section_title
;
Structure prediction by ZEFSAII (Michael W. Deem and Ramdas Pophale) SiO2 
 PCOD8266405
Probable space group: C M M M
;
_chemical_formula_sum "Si O2"
_cell_formula_units_Z 104
_cell_length_a 8.711889
_cell_length_b 24.796871
_cell_length_c 25.264301
_cell_angle_alpha 90.000000
_cell_angle_beta 90.000000
_cell_angle_gamma 90.000000
_cell_volume 5457.786000
_symmetry_space_group_name_H-M "C M M M"
_symmetry_group_IT_number 65
_symmetry_cell_setting 'orthorhombic'
loop_
_space_group_symop_operation_xyz
x,y,z
-x,-y,z
x,-y,-z
-x,y,-z
-x,-y,-z
x,y,-z
-x,y,z
x,-y,z
1/2+x,1/2+y,z
1/2-x,1/2-y,z
1/2+x,1/2-y,-z
1/2-x,1/2+y,-z
1/2-x,1/2-y,-z
1/2+x,1/2+y,-z
1/2-x,1/2+y,z
1/2+x,1/2-y,z
loop_
_atom_site_type_symbol
_atom_site_label
_atom_site_fract_x
_atom_site_fract_y
_atom_site_fract_z
Si Si1 0.180785 0.500000 0.738844
Si Si2 0.180331 0.804559 0.214335
Si Si3 0.819110 0.583886 0.942544
Si Si4 0.819812 0.303477 0.099698
Si Si5 0.681234 0.190749 0.392746
Si Si6 0.682592 0.309402 0.500000
Si Si7 0.179998 0.616508 0.705517
Si Si8 0.816733 0.500000 0.141440
O O1 0.230710 0.553351 0.705751
O O2 0.251768 0.500000 0.798812
O O3 0.000000 0.500000 0.745464
O O4 0.250000 0.750000 0.240187
O O5 0.242943 0.812918 0.156007
O O6 0.228126 0.856458 0.247205
O O7 0.000000 0.798258 0.213522
O O8 0.777656 0.646605 0.937392
O O9 0.753139 0.551109 0.892289
O O10 0.000000 0.575062 0.942382
O O11 0.754412 0.564356 0.000000
O O12 0.750000 0.250000 0.072544
O O13 0.000000 0.296696 0.108213
O O14 0.500000 0.197892 0.399188
O O15 0.750000 0.250000 0.379499
O O16 0.752611 0.164234 0.446138
O O17 0.725043 0.146721 0.348558
O O18 0.500000 0.310216 0.500000
O O19 0.750000 0.250000 0.500000
O O20 0.000000 0.622301 0.716841
O O21 0.000000 0.500000 0.145017
#
# Coordination Sequence:
#
# PCOD8266405 Si02
#       8
#     8  16  16  16  16   8  16   8
#     4   9  18  33  53  77 103 136 175 212 255 306
#     4  11  21  33  51  74 102 133 168 210 256 310
#     4   9  17  28  45  71  98 123 156 201 250 299
#     4  10  19  32  49  69  97 130 163 199 243 301
#     4  10  19  31  50  77 108 140 173 212 256 302
#     4  10  18  30  50  75 106 141 175 212 254 302
#     4  10  20  34  53  77 106 138 174 216 260 306
#     4   9  15  26  47  71  97 125 156 202 255 302
#
# _framework density 19.055346
#
# number of rings (size 3 to 8) (size 9 to 14) (size 15 to 20)
#    0.000    2.154    0.000    6.462    0.000    6.154 
#    0.000    0.385    0.000    1.846    0.000    4.846 
#    0.000    6.154    0.000    0.000    0.000    0.000 
#
# Total GULP energy -644469.109086 kJ/mol
# GULP energy per Si atom -12393.636713 kJ/mol
# Density = 1.901198 g / cm^3
# Si number density = 19.055346 Si / 1000 Ang^3
#
#
#
# Elastic Constant Matrix: (Units=GPa)
#
#
# Indices 1 2 3 4 5 6 
#
# 1 70.1502 31.9962 22.7233 0.0000 0.0000 0.0000
# 2 31.9962 132.1555 64.9570 0.0000 0.0000 0.0000
# 3 22.7233 64.9570 114.6123 0.0000 0.0000 0.0000
# 4 0.0000 0.0000 0.0000 1.2491 0.0000 0.0000
# 5 0.0000 0.0000 0.0000 0.0000 17.3777 0.0000
# 6 0.0000 0.0000 0.0000 0.0000 0.0000 20.5438
#
#
#
# Elastic Compliance Matrix: (Units=1/GPa)
#
#
# Indices 1 2 3 4 5 6 
#
# 1 0.016178 -0.003244 -0.001369 0.000000 0.000000 0.000000
# 2 -0.003244 0.011139 -0.005670 0.000000 0.000000 0.000000
# 3 -0.001369 -0.005670 0.012210 0.000000 0.000000 0.000000
# 4 0.000000 0.000000 0.000000 0.800597 0.000000 0.000000
# 5 0.000000 0.000000 0.000000 0.000000 0.057545 0.000000
# 6 0.000000 0.000000 0.000000 0.000000 0.000000 0.048677
#
#
# Mechanical properties :
#
#
# Convention : Reuss Voigt Hill
#
# Bulk Modulus (GPa) = 52.73883 61.80787 57.27335
# Shear Modulus (GPa) = 5.13752 20.98353 13.06053
#
# Velocity S-wave (km/s) = 1.64376 3.32202 2.62085
# Velocity P-wave (km/s) = 5.59816 6.87174 6.26738
#
# Compressibility (1/GPa) = 0.01896136
#
# Stress axis : x y z
#
# Youngs Moduli (GPa) = 61.81154 89.77326 81.90025
#
# Poissons Ratio (x) = 0.29123 0.11212
# Poissons Ratio (y) = 0.20052 0.46437
# Poissons Ratio (z) = 0.08462 0.50901
#
# Static dielectric constant tensor:
#      x y z
#    x 3.250040 0.000000 0.000000 
#    y 0.000000 3.801930 0.000000 
#    z 0.000000 0.000000 3.854070 
# 
# 
# High freq. dielectric constant tensor:
#      x y z
#    x 1.714200 0.000000 0.000000 
#    y 0.000000 1.734400 0.000000 
#    z 0.000000 0.000000 1.741740 
# 
# From -- ./inp_files/73627.got.cif
#   From: 2010.03.12/outbox.cif.g09.slc.cpg/sg65_37_cif.got.tgz:73627.got - 2010.04.10 20:52:16.
