data_PCOD8266090
_publ_section_title
;
Structure prediction by ZEFSAII (Michael W. Deem and Ramdas Pophale) SiO2 
 PCOD8266090
Probable space group: C M M M
;
_chemical_formula_sum "Si O2"
_cell_formula_units_Z 120
_cell_length_a 20.310576
_cell_length_b 13.983132
_cell_length_c 24.084035
_cell_angle_alpha 90.000000
_cell_angle_beta 90.000000
_cell_angle_gamma 90.000000
_cell_volume 6839.997564
_symmetry_space_group_name_H-M "C M M M"
_symmetry_group_IT_number 65
_symmetry_cell_setting 'orthorhombic'
loop_
_space_group_symop_operation_xyz
x,y,z
-x,-y,z
x,-y,-z
-x,y,-z
-x,-y,-z
x,y,-z
-x,y,z
x,-y,z
1/2+x,1/2+y,z
1/2-x,1/2-y,z
1/2+x,1/2-y,-z
1/2-x,1/2+y,-z
1/2-x,1/2-y,-z
1/2+x,1/2+y,-z
1/2-x,1/2+y,z
1/2+x,1/2-y,z
loop_
_atom_site_type_symbol
_atom_site_label
_atom_site_fract_x
_atom_site_fract_y
_atom_site_fract_z
Si Si1 0.422008 0.611368 0.000000
Si Si2 0.426198 0.887645 0.563966
Si Si3 0.713107 0.111740 0.129847
Si Si4 0.425505 0.606685 0.805184
Si Si5 0.150668 0.799333 0.103244
Si Si6 0.135783 0.894970 0.695331
Si Si7 0.780339 0.393214 0.741185
Si Si8 0.823132 0.723239 0.362444
O O1 0.393958 0.665186 0.946769
O O2 0.401238 0.500000 0.000000
O O3 0.500000 0.621807 0.000000
O O4 0.418850 0.858443 0.500000
O O5 0.500000 0.856909 0.584762
O O6 0.365196 0.840430 0.595925
O O7 0.418253 0.000000 0.571900
O O8 0.783876 0.136407 0.104439
O O9 0.663276 0.184746 0.098737
O O10 0.709064 0.137457 0.195178
O O11 0.695892 0.000000 0.118351
O O12 0.500000 0.610793 0.824884
O O13 0.396324 0.500000 0.816665
O O14 0.386522 0.685503 0.839040
O O15 0.421492 0.628378 0.739398
O O16 0.203267 0.887487 0.729653
O O17 0.135368 0.820783 0.644698
O O18 0.126715 0.000000 0.668899
O O19 0.807455 0.500000 0.731610
O O20 0.818755 0.325235 0.698374
O O21 0.750000 0.750000 0.385814
#
# Coordination Sequence:
#
# PCOD8266090 Si02
#       8
#     8  16  16  16  16  16  16  16
#     4  11  24  41  59  79 101 127 169 224 272 307
#     4   9  19  37  58  77 100 136 185 237 283 324
#     4  10  20  33  54  79 107 138 167 205 254 314
#     4  10  18  29  48  72  98 132 173 214 256 305
#     4  11  21  34  55  76 103 133 170 213 260 305
#     4   9  17  28  43  69 106 140 170 205 252 311
#     4   9  16  28  47  74 109 140 167 208 259 316
#     4  10  19  29  50  78 110 141 178 219 269 325
#
# _framework density 17.543866000000001
#
# number of rings (size 3 to 8) (size 9 to 14) (size 15 to 20)
#    0.000    2.200    1.333    3.200    3.733    3.467 
#    0.000    1.000    0.000    2.400    0.000    2.800 
#    0.000    0.000    0.000    0.000    0.000    0.000 
#
# Total GULP energy -743630.924895 kJ/mol
# GULP energy per Si atom -12393.848748 kJ/mol
# Density = 1.750393 g / cm^3
# Si number density = 17.543866 Si / 1000 Ang^3
#
#
#
# Elastic Constant Matrix: (Units=GPa)
#
#
# Indices 1 2 3 4 5 6 
#
# 1 73.6181 42.8049 33.2286 0.0000 0.0000 0.0000
# 2 42.8049 107.0740 38.6861 0.0000 0.0000 0.0000
# 3 33.2286 38.6861 56.2118 0.0000 0.0000 0.0000
# 4 0.0000 0.0000 0.0000 20.7573 0.0000 0.0000
# 5 0.0000 0.0000 0.0000 0.0000 6.2806 0.0000
# 6 0.0000 0.0000 0.0000 0.0000 0.0000 26.5633
#
#
#
# Elastic Compliance Matrix: (Units=1/GPa)
#
#
# Indices 1 2 3 4 5 6 
#
# 1 0.020394 -0.005054 -0.008577 0.000000 0.000000 0.000000
# 2 -0.005054 0.013683 -0.006429 0.000000 0.000000 0.000000
# 3 -0.008577 -0.006429 0.027285 0.000000 0.000000 0.000000
# 4 0.000000 0.000000 0.000000 0.048176 0.000000 0.000000
# 5 0.000000 0.000000 0.000000 0.000000 0.159221 0.000000
# 6 0.000000 0.000000 0.000000 0.000000 0.000000 0.037646
#
#
# Mechanical properties :
#
#
# Convention : Reuss Voigt Hill
#
# Bulk Modulus (GPa) = 47.07951 51.81591 49.44771
# Shear Modulus (GPa) = 14.14011 18.86586 16.50298
#
# Velocity S-wave (km/s) = 2.84207 3.28282 3.07036
# Velocity P-wave (km/s) = 6.13705 6.63086 6.38873
#
# Compressibility (1/GPa) = 0.02124066
#
# Stress axis : x y z
#
# Youngs Moduli (GPa) = 49.03513 73.08581 36.65050
#
# Poissons Ratio (x) = 0.36936 0.31436
# Poissons Ratio (y) = 0.24781 0.23563
# Poissons Ratio (z) = 0.42058 0.46988
#
# Static dielectric constant tensor:
#      x y z
#    x 3.175220 0.000000 0.000000 
#    y 0.000000 3.527490 0.000000 
#    z 0.000000 0.000000 3.062860 
# 
# 
# High freq. dielectric constant tensor:
#      x y z
#    x 1.664030 0.000000 0.000000 
#    y 0.000000 1.684710 0.000000 
#    z 0.000000 0.000000 1.654390 
# 
# From -- ./inp_files/71268.got.cif
#   From: 2010.03.12/outbox.cif.g09.slc.cpg/sg65_36_cif.got.tgz:71268.got - 2010.04.10 20:52:16.
