data_PCOD8266272
_publ_section_title
;
Structure prediction by ZEFSAII (Michael W. Deem and Ramdas Pophale) SiO2 
 PCOD8266272
Probable space group: C M M M
;
_chemical_formula_sum "Si O2"
_cell_formula_units_Z 104
_cell_length_a 21.568104
_cell_length_b 28.788293
_cell_length_c 9.238716
_cell_angle_alpha 90.000000
_cell_angle_beta 90.000000
_cell_angle_gamma 90.000000
_cell_volume 5736.400965
_symmetry_space_group_name_H-M "C M M M"
_symmetry_group_IT_number 65
_symmetry_cell_setting 'orthorhombic'
loop_
_space_group_symop_operation_xyz
x,y,z
-x,-y,z
x,-y,-z
-x,y,-z
-x,-y,-z
x,y,-z
-x,y,z
x,-y,z
1/2+x,1/2+y,z
1/2-x,1/2-y,z
1/2+x,1/2-y,-z
1/2-x,1/2+y,-z
1/2-x,1/2-y,-z
1/2+x,1/2+y,-z
1/2-x,1/2+y,z
1/2+x,1/2-y,z
loop_
_atom_site_type_symbol
_atom_site_label
_atom_site_fract_x
_atom_site_fract_y
_atom_site_fract_z
Si Si1 0.326152 0.704593 0.327368
Si Si2 0.264223 0.054471 0.160578
Si Si3 0.372663 0.901287 0.671953
Si Si4 0.000000 0.446939 0.328495
Si Si5 0.568065 0.638232 0.329739
Si Si6 0.853989 0.052730 0.667592
Si Si7 0.688423 0.807440 0.671421
O O1 0.327168 0.702316 0.500000
O O2 0.381523 0.673496 0.260992
O O3 0.336566 0.757602 0.273134
O O4 0.259245 0.685396 0.272550
O O5 0.324579 0.064387 0.254302
O O6 0.203530 0.073375 0.242317
O O7 0.257460 0.000000 0.147448
O O8 0.268838 0.076810 0.000000
O O9 0.366311 0.905896 0.500000
O O10 0.440471 0.917607 0.725172
O O11 0.356947 0.848721 0.725259
O O12 0.000000 0.500000 0.265980
O O13 0.000000 0.450059 0.500000
O O14 0.564875 0.646961 0.500000
O O15 0.500000 0.646918 0.260928
O O16 0.587196 0.585044 0.297459
O O17 0.834696 0.056281 0.500000
O O18 0.871607 0.000000 0.710049
O O19 0.689466 0.806934 0.500000
#
# Coordination Sequence:
#
# PCOD8266272 Si02
#       7
#    16  16  16   8  16  16  16
#     4   8  13  23  37  59  91 122 148 183 233 277
#     4  10  20  32  47  69  94 118 150 195 240 278
#     4  10  18  30  48  69  91 122 158 191 230 279
#     4   9  18  30  43  63  93 123 151 187 228 272
#     4   9  16  25  39  64  96 127 156 188 230 276
#     4   9  17  29  46  68  93 122 156 192 230 274
#     4   8  14  24  41  63  87 117 153 189 226 272
#
# _framework density 18.129833999999999
#
# number of rings (size 3 to 8) (size 9 to 14) (size 15 to 20)
#    0.000    3.000    0.000    2.769    0.000    4.308 
#    1.385    1.923    0.000    1.846    0.000   10.769 
#    0.000    0.000    0.000    0.000    0.000    0.000 
#
# Total GULP energy -644405.697340 kJ/mol
# GULP energy per Si atom -12392.417257 kJ/mol
# Density = 1.808857 g / cm^3
# Si number density = 18.129834 Si / 1000 Ang^3
#
#
#
# Elastic Constant Matrix: (Units=GPa)
#
#
# Indices 1 2 3 4 5 6 
#
# 1 161.0039 84.6704 18.3245 0.0000 0.0000 0.0000
# 2 84.6704 112.8205 14.4180 0.0000 0.0000 0.0000
# 3 18.3245 14.4180 22.9735 0.0000 0.0000 0.0000
# 4 0.0000 0.0000 0.0000 6.4154 0.0000 0.0000
# 5 0.0000 0.0000 0.0000 0.0000 2.7339 0.0000
# 6 0.0000 0.0000 0.0000 0.0000 0.0000 29.7518
#
#
#
# Elastic Compliance Matrix: (Units=1/GPa)
#
#
# Indices 1 2 3 4 5 6 
#
# 1 0.010549 -0.007438 -0.003746 0.000000 0.000000 0.000000
# 2 -0.007438 0.014881 -0.003406 0.000000 0.000000 0.000000
# 3 -0.003746 -0.003406 0.048654 0.000000 0.000000 0.000000
# 4 0.000000 0.000000 0.000000 0.155875 0.000000 0.000000
# 5 0.000000 0.000000 0.000000 0.000000 0.365781 0.000000
# 6 0.000000 0.000000 0.000000 0.000000 0.000000 0.033611
#
#
# Mechanical properties :
#
#
# Convention : Reuss Voigt Hill
#
# Bulk Modulus (GPa) = 22.27017 59.06932 40.66974
# Shear Modulus (GPa) = 7.42390 19.73922 13.58156
#
# Velocity S-wave (km/s) = 2.02577 3.30323 2.73999
# Velocity P-wave (km/s) = 4.21688 6.87026 5.70011
#
# Compressibility (1/GPa) = 0.04490312
#
# Stress axis : x y z
#
# Youngs Moduli (GPa) = 94.79502 67.19870 20.55317
#
# Poissons Ratio (x) = 0.49984 0.07700
# Poissons Ratio (y) = 0.70511 0.07001
# Poissons Ratio (z) = 0.35512 0.22890
#
# Static dielectric constant tensor:
#      x y z
#    x 3.564490 0.000000 0.000000 
#    y 0.000000 3.629260 0.000000 
#    z 0.000000 0.000000 2.918180 
# 
# 
# High freq. dielectric constant tensor:
#      x y z
#    x 1.699670 0.000000 0.000000 
#    y 0.000000 1.710900 0.000000 
#    z 0.000000 0.000000 1.634840 
# 
# From -- ./inp_files/12743.got.cif
#   From: 2010.03.12/outbox.cif.g09.slc.cpg/sg65_7_cif.got.tgz:12743.got - 2010.04.10 20:52:16.
