data_PCOD8266418
_publ_section_title
;
Structure prediction by ZEFSAII (Michael W. Deem and Ramdas Pophale) SiO2 
 PCOD8266418
Probable space group: C M M M
;
_chemical_formula_sum "Si O2"
_cell_formula_units_Z 88
_cell_length_a 11.186179
_cell_length_b 36.870649
_cell_length_c 12.097400
_cell_angle_alpha 90.000000
_cell_angle_beta 90.000000
_cell_angle_gamma 90.000000
_cell_volume 4989.471974
_symmetry_space_group_name_H-M "C M M M"
_symmetry_group_IT_number 65
_symmetry_cell_setting 'orthorhombic'
loop_
_space_group_symop_operation_xyz
x,y,z
-x,-y,z
x,-y,-z
-x,y,-z
-x,-y,-z
x,y,-z
-x,y,z
x,-y,z
1/2+x,1/2+y,z
1/2-x,1/2-y,z
1/2+x,1/2-y,-z
1/2-x,1/2+y,-z
1/2-x,1/2-y,-z
1/2+x,1/2+y,-z
1/2-x,1/2+y,z
1/2+x,1/2-y,z
loop_
_atom_site_type_symbol
_atom_site_label
_atom_site_fract_x
_atom_site_fract_y
_atom_site_fract_z
Si Si1 0.775942 0.588666 0.869434
Si Si2 0.784823 0.540144 0.500000
Si Si3 0.000000 0.459181 0.130696
Si Si4 0.631239 0.114892 0.500000
Si Si5 0.861423 0.352646 0.280029
Si Si6 0.863067 0.275887 0.372281
Si Si7 0.864064 0.959720 0.280429
O O1 0.794132 0.629854 0.825352
O O2 0.661511 0.569994 0.814330
O O3 0.884765 0.562963 0.829431
O O4 0.760213 0.590731 0.000000
O O5 0.843190 0.500000 0.500000
O O6 0.884312 0.571353 0.500000
O O7 0.706772 0.546989 0.392211
O O8 0.000000 0.500000 0.182156
O O9 0.000000 0.461981 0.000000
O O10 0.500000 0.133017 0.500000
O O11 0.696659 0.128918 0.389471
O O12 0.843910 0.309490 0.289016
O O13 0.000000 0.362772 0.267723
O O14 0.853956 0.288619 0.500000
O O15 0.750000 0.250000 0.344975
O O16 0.000000 0.259825 0.353312
O O17 0.000000 0.955572 0.314907
O O18 0.837055 0.000000 0.232533
#
# Coordination Sequence:
#
# PCOD8266418 Si02
#       7
#    16   8   8   8  16  16  16
#     4  11  21  33  51  75 101 135 179 222 263 309
#     4  10  19  33  52  72  99 136 177 219 265 318
#     4   9  18  32  48  69  99 131 169 222 271 303
#     4  10  18  30  50  77 106 136 168 208 265 326
#     4  10  18  32  53  77 107 141 168 206 258 322
#     4   9  17  31  54  82 110 139 171 210 264 327
#     4  10  21  36  52  69  94 134 182 227 269 315
#
# _framework density 17.637136999999999
#
# number of rings (size 3 to 8) (size 9 to 14) (size 15 to 20)
#    0.000    2.091    3.636    0.818    0.000    2.727 
#    0.000    1.818    0.000    0.545    0.000    0.000 
#    0.000    0.000    0.000    0.000    0.000    0.000 
#
# Total GULP energy -545206.527597 kJ/mol
# GULP energy per Si atom -12391.057445 kJ/mol
# Density = 1.759699 g / cm^3
# Si number density = 17.637137 Si / 1000 Ang^3
#
#
#
# Elastic Constant Matrix: (Units=GPa)
#
#
# Indices 1 2 3 4 5 6 
#
# 1 55.0766 32.9382 16.8064 0.0000 0.0000 0.0000
# 2 32.9382 91.8541 33.5472 0.0000 0.0000 0.0000
# 3 16.8064 33.5472 88.9391 0.0000 0.0000 0.0000
# 4 0.0000 0.0000 0.0000 25.2414 0.0000 0.0000
# 5 0.0000 0.0000 0.0000 0.0000 -8.1139 0.0000
# 6 0.0000 0.0000 0.0000 0.0000 0.0000 25.0099
#
#
#
# Elastic Compliance Matrix: (Units=1/GPa)
#
#
# Indices 1 2 3 4 5 6 
#
# 1 0.023273 -0.007816 -0.001450 0.000000 0.000000 0.000000
# 2 -0.007816 0.015251 -0.004276 0.000000 0.000000 0.000000
# 3 -0.001450 -0.004276 0.013130 0.000000 0.000000 0.000000
# 4 0.000000 0.000000 0.000000 0.039618 0.000000 0.000000
# 5 0.000000 0.000000 0.000000 0.000000 -0.123245 0.000000
# 6 0.000000 0.000000 0.000000 0.000000 0.000000 0.039984
#
#
# Mechanical properties :
#
#
# Convention : Reuss Voigt Hill
#
# Bulk Modulus (GPa) = 40.69693 44.71704 42.70698
# Shear Modulus (GPa) = 115.51170 18.59932 67.05551
#
# Velocity S-wave (km/s) = 8.10158 3.25091 6.17268
# Velocity P-wave (km/s) = 10.51850 6.28492 8.66427
#
# Compressibility (1/GPa) = 0.02457188
#
# Stress axis : x y z
#
# Youngs Moduli (GPa) = 42.96765 65.56842 76.15950
#
# Poissons Ratio (x) = 0.51250 0.11040
# Poissons Ratio (y) = 0.33584 0.32563
# Poissons Ratio (z) = 0.06229 0.28035
#
# Static dielectric constant tensor:
#      x y z
#    x 3.145970 0.000000 0.000000 
#    y 0.000000 3.194600 0.000000 
#    z 0.000000 0.000000 3.149650 
# 
# 
# High freq. dielectric constant tensor:
#      x y z
#    x 1.661800 0.000000 0.000000 
#    y 0.000000 1.670220 0.000000 
#    z 0.000000 0.000000 1.668320 
# 
# From -- ./inp_files/23051.got.cif
#   From: 2010.03.12/outbox.cif.g09.slc.cpg/sg65_12_cif.got.tgz:23051.got - 2010.04.10 20:52:16.
