data_PCOD8266216
_publ_section_title
;
Structure prediction by ZEFSAII (Michael W. Deem and Ramdas Pophale) SiO2 
 PCOD8266216
Probable space group: C M M M
;
_chemical_formula_sum "Si O2"
_cell_formula_units_Z 80
_cell_length_a 9.289553
_cell_length_b 25.299114
_cell_length_c 22.438767
_cell_angle_alpha 90.000000
_cell_angle_beta 90.000000
_cell_angle_gamma 90.000000
_cell_volume 5273.502034
_symmetry_space_group_name_H-M "C M M M"
_symmetry_group_IT_number 65
_symmetry_cell_setting 'orthorhombic'
loop_
_space_group_symop_operation_xyz
x,y,z
-x,-y,z
x,-y,-z
-x,y,-z
-x,-y,-z
x,y,-z
-x,y,z
x,-y,z
1/2+x,1/2+y,z
1/2-x,1/2-y,z
1/2+x,1/2-y,-z
1/2-x,1/2+y,-z
1/2-x,1/2-y,-z
1/2+x,1/2+y,-z
1/2-x,1/2+y,z
1/2+x,1/2-y,z
loop_
_atom_site_type_symbol
_atom_site_label
_atom_site_fract_x
_atom_site_fract_y
_atom_site_fract_z
Si Si1 0.328443 0.941804 0.500000
Si Si2 0.661681 0.936766 0.372569
Si Si3 0.668297 0.804034 0.931460
Si Si4 0.330843 0.604172 0.133815
Si Si5 0.166946 0.059933 0.260241
Si Si6 0.829140 0.000000 0.933302
O O1 0.500000 0.947005 0.500000
O O2 0.282858 0.913747 0.562783
O O3 0.258645 0.000000 0.500000
O O4 0.500000 0.917478 0.360218
O O5 0.756896 0.915051 0.318209
O O6 0.669299 0.000000 0.375757
O O7 0.500000 0.797011 0.916907
O O8 0.750000 0.750000 0.917657
O O9 0.736768 0.847423 0.888652
O O10 0.692032 0.821089 0.000000
O O11 0.500000 0.614252 0.121376
O O12 0.299463 0.596686 0.203741
O O13 0.274227 0.552088 0.100078
O O14 0.000000 0.059104 0.274545
O O15 0.220669 0.000000 0.247200
O O16 0.000000 0.000000 0.933015
O O17 0.766362 0.000000 0.000000
#
# Coordination Sequence:
#
# PCOD8266216 Si02
#       6
#     8  16  16  16  16   8
#     4   7  10  18  31  47  67  95 136 181 214 243
#     4   8  13  21  34  50  70 101 141 179 213 247
#     4  10  21  36  52  69  87 108 138 178 223 267
#     4  10  18  30  47  66  88 116 147 178 212 255
#     4   9  16  26  38  56  84 114 143 174 209 251
#     4   9  16  26  43  65  85 110 145 176 206 251
#
# _framework density 15.170185
#
# number of rings (size 3 to 8) (size 9 to 14) (size 15 to 20)
#    0.000    3.000    1.000    2.400    0.000    2.800 
#    0.000    1.000    0.000    4.800    0.000    0.000 
#    0.000    0.000    0.000    0.900    0.000   11.700 
#
# Total GULP energy -495660.039510 kJ/mol
# GULP energy per Si atom -12391.500988 kJ/mol
# Density = 1.513566 g / cm^3
# Si number density = 15.170185 Si / 1000 Ang^3
#
#
#
# Elastic Constant Matrix: (Units=GPa)
#
#
# Indices 1 2 3 4 5 6 
#
# 1 62.6222 37.2535 59.4215 0.0000 0.0000 0.0000
# 2 37.2535 61.6019 48.4450 0.0000 0.0000 0.0000
# 3 59.4215 48.4450 143.9710 0.0000 0.0000 0.0000
# 4 0.0000 0.0000 0.0000 8.3198 0.0000 0.0000
# 5 0.0000 0.0000 0.0000 0.0000 26.8821 0.0000
# 6 0.0000 0.0000 0.0000 0.0000 0.0000 19.2152
#
#
#
# Elastic Compliance Matrix: (Units=1/GPa)
#
#
# Indices 1 2 3 4 5 6 
#
# 1 0.031724 -0.012086 -0.009027 0.000000 0.000000 0.000000
# 2 -0.012086 0.026679 -0.003989 0.000000 0.000000 0.000000
# 3 -0.009027 -0.003989 0.012014 0.000000 0.000000 0.000000
# 4 0.000000 0.000000 0.000000 0.120195 0.000000 0.000000
# 5 0.000000 0.000000 0.000000 0.000000 0.037200 0.000000
# 6 0.000000 0.000000 0.000000 0.000000 0.000000 0.052042
#
#
# Mechanical properties :
#
#
# Convention : Reuss Voigt Hill
#
# Bulk Modulus (GPa) = 49.47220 62.04834 55.76027
# Shear Modulus (GPa) = 14.84580 19.08843 16.96712
#
# Velocity S-wave (km/s) = 3.13168 3.55108 3.34795
# Velocity P-wave (km/s) = 6.76453 7.60289 7.19593
#
# Compressibility (1/GPa) = 0.02021337
#
# Stress axis : x y z
#
# Youngs Moduli (GPa) = 31.52178 37.48203 83.23852
#
# Poissons Ratio (x) = 0.45302 0.75136
# Poissons Ratio (y) = 0.38098 0.33204
# Poissons Ratio (z) = 0.28453 0.14951
#
# Static dielectric constant tensor:
#      x y z
#    x 2.786600 0.000000 0.000000 
#    y 0.000000 2.519590 0.000000 
#    z 0.000000 0.000000 3.279080 
# 
# 
# High freq. dielectric constant tensor:
#      x y z
#    x 1.565930 0.000000 0.000000 
#    y 0.000000 1.523710 0.000000 
#    z 0.000000 0.000000 1.596430 
# 
# From -- ./inp_files/67765.got.cif
#   From: 2010.03.12/outbox.cif.g09.slc.cpg/sg65_34_cif.got.tgz:67765.got - 2010.04.10 20:52:16.
