data_PCOD8266723
_publ_section_title
;
Structure prediction by ZEFSAII (Michael W. Deem and Ramdas Pophale) SiO2 
 PCOD8266723
Probable space group: C M M M
;
_chemical_formula_sum "Si O2"
_cell_formula_units_Z 64
_cell_length_a 5.259213
_cell_length_b 17.593216
_cell_length_c 35.973967
_cell_angle_alpha 90.000000
_cell_angle_beta 90.000000
_cell_angle_gamma 90.000000
_cell_volume 3328.544189
_symmetry_space_group_name_H-M "C M M M"
_symmetry_group_IT_number 65
_symmetry_cell_setting 'orthorhombic'
loop_
_space_group_symop_operation_xyz
x,y,z
-x,-y,z
x,-y,-z
-x,y,-z
-x,-y,-z
x,y,-z
-x,y,z
x,-y,z
1/2+x,1/2+y,z
1/2-x,1/2-y,z
1/2+x,1/2-y,-z
1/2-x,1/2+y,-z
1/2-x,1/2-y,-z
1/2+x,1/2+y,-z
1/2-x,1/2+y,z
1/2+x,1/2-y,z
loop_
_atom_site_type_symbol
_atom_site_label
_atom_site_fract_x
_atom_site_fract_y
_atom_site_fract_z
Si Si1 0.500000 0.797890 0.735493
Si Si2 0.000000 0.298226 0.650193
Si Si3 0.500000 0.827235 0.043178
Si Si4 0.500000 0.409746 0.458302
Si Si5 0.000000 0.910974 0.153805
Si Si6 0.000000 0.159897 0.925636
Si Si7 0.000000 0.409879 0.584904
Si Si8 0.500000 0.088245 0.800434
O O1 0.750000 0.750000 0.744774
O O2 0.500000 0.825159 0.692867
O O3 0.500000 0.872125 0.760682
O O4 0.250000 0.250000 0.640876
O O5 0.000000 0.374016 0.625706
O O6 0.749523 0.875494 0.054522
O O7 0.500000 0.750394 0.067533
O O8 0.500000 0.805695 0.000000
O O9 0.500000 0.500000 0.460047
O O10 0.500000 0.376056 0.500000
O O11 0.751969 0.381064 0.437284
O O12 0.249864 0.888388 0.176754
O O13 0.000000 0.859175 0.117508
O O14 0.000000 0.000000 0.143055
O O15 0.000000 0.500000 0.590045
O O16 0.500000 0.000000 0.791359
#
# Coordination Sequence:
#
# PCOD8266723 Si02
#       8
#     8   8   8   8   8   8   8   8
#     4  10  21  39  57  84 109 142 180 225 271 317
#     4  10  21  37  57  76 111 146 175 216 281 333
#     4  10  19  33  53  74 103 136 169 220 267 300
#     4   9  17  30  50  77 109 140 175 228 283 321
#     4  10  21  37  55  76 108 143 175 211 258 314
#     4  10  18  32  50  75 100 131 171 206 258 307
#     4  10  19  32  54  82 104 135 189 232 263 319
#     4  10  21  39  58  79 109 149 180 214 267 325
#
# _framework density 19.227623999999999
#
# number of rings (size 3 to 8) (size 9 to 14) (size 15 to 20)
#    0.000    2.125    0.000    4.500    0.000    2.000 
#   13.500    0.000    0.000   20.625    0.000    0.000 
#    0.000    0.000    0.000    0.000    0.000    0.000 
#
# Total GULP energy -396760.373074 kJ/mol
# GULP energy per Si atom -12398.761659 kJ/mol
# Density = 1.918386 g / cm^3
# Si number density = 19.227624 Si / 1000 Ang^3
#
#
#
# Elastic Constant Matrix: (Units=GPa)
#
#
# Indices 1 2 3 4 5 6 
#
# 1 212.4518 35.4465 76.2381 0.0000 0.0000 0.0000
# 2 35.4465 44.8361 66.8596 0.0000 0.0000 0.0000
# 3 76.2381 66.8596 163.2720 0.0000 0.0000 0.0000
# 4 0.0000 0.0000 0.0000 24.8457 0.0000 0.0000
# 5 0.0000 0.0000 0.0000 0.0000 87.8692 0.0000
# 6 0.0000 0.0000 0.0000 0.0000 0.0000 7.1731
#
#
#
# Elastic Compliance Matrix: (Units=1/GPa)
#
#
# Indices 1 2 3 4 5 6 
#
# 1 0.005687 -0.001377 -0.002092 0.000000 0.000000 0.000000
# 2 -0.001377 0.057616 -0.022951 0.000000 0.000000 0.000000
# 3 -0.002092 -0.022951 0.016500 0.000000 0.000000 0.000000
# 4 0.000000 0.000000 0.000000 0.040248 0.000000 0.000000
# 5 0.000000 0.000000 0.000000 0.000000 0.011381 0.000000
# 6 0.000000 0.000000 0.000000 0.000000 0.000000 0.139409
#
#
# Mechanical properties :
#
#
# Convention : Reuss Voigt Hill
#
# Bulk Modulus (GPa) = 37.08623 86.40538 61.74580
# Shear Modulus (GPa) = 15.02999 40.11199 27.57099
#
# Velocity S-wave (km/s) = 2.79890 4.57241 3.79083
# Velocity P-wave (km/s) = 5.45665 8.53883 7.16542
#
# Compressibility (1/GPa) = 0.02696419
#
# Stress axis : x y z
#
# Youngs Moduli (GPa) = 175.82967 17.35622 60.60713
#
# Poissons Ratio (x) = 0.02390 0.12677
# Poissons Ratio (y) = 0.24214 1.39098
# Poissons Ratio (z) = 0.36778 0.39834
#
# Static dielectric constant tensor:
#      x y z
#    x 4.990930 0.000000 0.000000 
#    y 0.000000 3.005110 0.000000 
#    z 0.000000 0.000000 3.483250 
# 
# 
# High freq. dielectric constant tensor:
#      x y z
#    x 1.784690 0.000000 0.000000 
#    y 0.000000 1.701900 0.000000 
#    z 0.000000 0.000000 1.754150 
# 
# From -- ./inp_files/76339.got.cif
#   From: 2010.03.12/outbox.cif.g09.slc.cpg/sg65_39_cif.got.tgz:76339.got - 2010.04.10 20:52:16.
