data_PCOD8266883
_publ_section_title
;
Structure prediction by ZEFSAII (Michael W. Deem and Ramdas Pophale) SiO2 
 PCOD8266883
Probable space group: C M M M
;
_chemical_formula_sum "Si O2"
_cell_formula_units_Z 68
_cell_length_a 17.876762
_cell_length_b 16.816541
_cell_length_c 12.093061
_cell_angle_alpha 90.000000
_cell_angle_beta 90.000000
_cell_angle_gamma 90.000000
_cell_volume 3635.480105
_symmetry_space_group_name_H-M "C M M M"
_symmetry_group_IT_number 65
_symmetry_cell_setting 'orthorhombic'
loop_
_space_group_symop_operation_xyz
x,y,z
-x,-y,z
x,-y,-z
-x,y,-z
-x,-y,-z
x,y,-z
-x,y,z
x,-y,z
1/2+x,1/2+y,z
1/2-x,1/2-y,z
1/2+x,1/2-y,-z
1/2-x,1/2+y,-z
1/2-x,1/2-y,-z
1/2+x,1/2+y,-z
1/2-x,1/2+y,z
1/2+x,1/2-y,z
loop_
_atom_site_type_symbol
_atom_site_label
_atom_site_fract_x
_atom_site_fract_y
_atom_site_fract_z
Si Si1 0.580838 0.821114 0.500000
Si Si2 0.395961 0.000000 0.500000
Si Si3 0.911314 0.500000 0.736598
Si Si4 0.585648 0.589866 0.629404
Si Si5 0.587149 0.155613 0.127313
Si Si6 0.337770 0.742148 0.702872
O O1 0.500000 0.777471 0.500000
O O2 0.624816 0.796121 0.391065
O O3 0.562298 0.915080 0.500000
O O4 0.358998 0.000000 0.376133
O O5 0.890684 0.575412 0.809904
O O6 0.000000 0.500000 0.703066
O O7 0.594709 0.606946 0.500000
O O8 0.500000 0.603003 0.665834
O O9 0.610798 0.500000 0.657469
O O10 0.639258 0.649916 0.694275
O O11 0.500000 0.175065 0.141784
O O12 0.634890 0.227649 0.177894
O O13 0.609243 0.145549 0.000000
O O14 0.250000 0.750000 0.690537
#
# Coordination Sequence:
#
# PCOD8266883 Si02
#       6
#     8   4   8  16  16  16
#     4  12  22  37  58  84 121 160 196 233 281 354
#     4  12  21  32  58  94 124 148 179 224 293 350
#     4  10  18  32  55  89 120 146 187 233 278 342
#     4   9  18  35  59  82 107 148 198 241 282 340
#     4  10  21  38  61  84 110 154 205 245 281 336
#     4  12  24  37  54  87 121 152 191 239 308 358
#
# _framework density 18.704543999999999
#
# number of rings (size 3 to 8) (size 9 to 14) (size 15 to 20)
#    0.000    1.412    3.529    4.588    0.000    1.882 
#    4.235    0.000    0.000    0.706    0.000    3.294 
#    0.000    0.000    0.000    0.000    0.000    0.000 
#
# Total GULP energy -421352.353865 kJ/mol
# GULP energy per Si atom -12392.716290 kJ/mol
# Density = 1.866197 g / cm^3
# Si number density = 18.704544 Si / 1000 Ang^3
#
#
#
# Elastic Constant Matrix: (Units=GPa)
#
#
# Indices 1 2 3 4 5 6 
#
# 1 104.0916 57.1388 52.4031 0.0000 0.0000 0.0000
# 2 57.1388 142.4115 58.8689 0.0000 0.0000 0.0000
# 3 52.4031 58.8689 140.2033 0.0000 0.0000 0.0000
# 4 0.0000 0.0000 0.0000 21.8039 0.0000 0.0000
# 5 0.0000 0.0000 0.0000 0.0000 13.9744 0.0000
# 6 0.0000 0.0000 0.0000 0.0000 0.0000 15.4658
#
#
#
# Elastic Compliance Matrix: (Units=1/GPa)
#
#
# Indices 1 2 3 4 5 6 
#
# 1 0.013511 -0.004033 -0.003356 0.000000 0.000000 0.000000
# 2 -0.004033 0.009701 -0.002566 0.000000 0.000000 0.000000
# 3 -0.003356 -0.002566 0.009464 0.000000 0.000000 0.000000
# 4 0.000000 0.000000 0.000000 0.045863 0.000000 0.000000
# 5 0.000000 0.000000 0.000000 0.000000 0.071560 0.000000
# 6 0.000000 0.000000 0.000000 0.000000 0.000000 0.064659
#
#
# Mechanical properties :
#
#
# Convention : Reuss Voigt Hill
#
# Bulk Modulus (GPa) = 78.33900 80.39200 79.36550
# Shear Modulus (GPa) = 20.92727 24.80186 22.86457
#
# Velocity S-wave (km/s) = 3.34853 3.64535 3.50009
# Velocity P-wave (km/s) = 7.54476 7.79688 7.67186
#
# Compressibility (1/GPa) = 0.01276503
#
# Stress axis : x y z
#
# Youngs Moduli (GPa) = 74.01589 103.08469 105.66129
#
# Poissons Ratio (x) = 0.41578 0.35462
# Poissons Ratio (y) = 0.29854 0.27109
# Poissons Ratio (z) = 0.24841 0.26448
#
# Static dielectric constant tensor:
#      x y z
#    x 3.050010 0.000000 0.000000 
#    y 0.000000 3.633630 0.000000 
#    z 0.000000 0.000000 3.457380 
# 
# 
# High freq. dielectric constant tensor:
#      x y z
#    x 1.692070 0.000000 0.000000 
#    y 0.000000 1.743170 0.000000 
#    z 0.000000 0.000000 1.714830 
# 
# From -- ./inp_files/26365.got.cif
#   From: 2010.03.12/outbox.cif.g09.slc.cpg/sg65_14_cif.got.tgz:26365.got - 2010.04.10 20:52:16.
