data_PCOD8266351
_publ_section_title
;
Structure prediction by ZEFSAII (Michael W. Deem and Ramdas Pophale) SiO2 
 PCOD8266351
Probable space group: C M M M
;
_chemical_formula_sum "Si O2"
_cell_formula_units_Z 80
_cell_length_a 25.973889
_cell_length_b 8.541974
_cell_length_c 19.169405
_cell_angle_alpha 90.000000
_cell_angle_beta 90.000000
_cell_angle_gamma 90.000000
_cell_volume 4253.083003
_symmetry_space_group_name_H-M "C M M M"
_symmetry_group_IT_number 65
_symmetry_cell_setting 'orthorhombic'
loop_
_space_group_symop_operation_xyz
x,y,z
-x,-y,z
x,-y,-z
-x,y,-z
-x,-y,-z
x,y,-z
-x,y,z
x,-y,z
1/2+x,1/2+y,z
1/2-x,1/2-y,z
1/2+x,1/2-y,-z
1/2-x,1/2+y,-z
1/2-x,1/2-y,-z
1/2+x,1/2+y,-z
1/2-x,1/2+y,z
1/2+x,1/2-y,z
loop_
_atom_site_type_symbol
_atom_site_label
_atom_site_fract_x
_atom_site_fract_y
_atom_site_fract_z
Si Si1 0.696150 0.314800 0.078642
Si Si2 0.000000 0.816832 0.674204
Si Si3 0.896506 0.316734 0.332084
Si Si4 0.304497 0.680618 0.418060
Si Si5 0.394285 0.314654 0.821694
Si Si6 0.500000 0.817358 0.825894
O O1 0.697994 0.500000 0.079822
O O2 0.750000 0.250000 0.108080
O O3 0.650653 0.252555 0.127883
O O4 0.686643 0.252474 0.000000
O O5 0.052837 0.769743 0.634857
O O6 0.000000 0.712351 0.743520
O O7 0.000000 0.000000 0.692099
O O8 0.906625 0.500000 0.332484
O O9 0.848431 0.277374 0.380010
O O10 0.885527 0.260806 0.253690
O O11 0.312344 0.703196 0.500000
O O12 0.307338 0.500000 0.395843
O O13 0.250000 0.750000 0.393903
O O14 0.393750 0.500000 0.813210
O O15 0.448310 0.261348 0.856757
O O16 0.500000 0.000000 0.843020
#
# Coordination Sequence:
#
# PCOD8266351 Si02
#       6
#    16   8  16  16  16   8
#     4   9  19  35  54  75 100 133 171 211 257 307
#     4  10  18  32  53  76 105 138 173 212 259 308
#     4  11  21  34  54  80 109 138 173 214 257 307
#     4  10  21  38  58  79 105 138 175 214 259 309
#     4  10  19  33  53  76 104 136 172 212 256 306
#     4  10  18  30  49  74 103 133 169 210 257 307
#
# _framework density 18.809884
#
# number of rings (size 3 to 8) (size 9 to 14) (size 15 to 20)
#    0.000    2.000    0.000    7.200    0.000    3.600 
#    0.000    3.000    0.000    6.000    0.000    0.000 
#    0.000    0.000    0.000    0.000    0.000    0.000 
#
# Total GULP energy -495976.465733 kJ/mol
# GULP energy per Si atom -12399.411643 kJ/mol
# Density = 1.876707 g / cm^3
# Si number density = 18.809884 Si / 1000 Ang^3
#
#
#
# Elastic Constant Matrix: (Units=GPa)
#
#
# Indices 1 2 3 4 5 6 
#
# 1 179.4690 41.5111 54.5645 0.0000 0.0000 0.0000
# 2 41.5111 88.0089 25.5755 0.0000 0.0000 0.0000
# 3 54.5645 25.5755 43.5318 0.0000 0.0000 0.0000
# 4 0.0000 0.0000 0.0000 19.3892 0.0000 0.0000
# 5 0.0000 0.0000 0.0000 0.0000 -3.9940 0.0000
# 6 0.0000 0.0000 0.0000 0.0000 0.0000 37.9920
#
#
#
# Elastic Compliance Matrix: (Units=1/GPa)
#
#
# Indices 1 2 3 4 5 6 
#
# 1 0.009103 -0.001179 -0.010718 0.000000 0.000000 0.000000
# 2 -0.001179 0.013855 -0.006662 0.000000 0.000000 0.000000
# 3 -0.010718 -0.006662 0.040319 0.000000 0.000000 0.000000
# 4 0.000000 0.000000 0.000000 0.051575 0.000000 0.000000
# 5 0.000000 0.000000 0.000000 0.000000 -0.250378 0.000000
# 6 0.000000 0.000000 0.000000 0.000000 0.000000 0.026321
#
#
# Mechanical properties :
#
#
# Convention : Reuss Voigt Hill
#
# Bulk Modulus (GPa) = 38.22594 61.59022 49.90808
# Shear Modulus (GPa) = -78.90513 23.30136 -27.80188
#
# Velocity S-wave (km/s) = -6.48381 3.52345 -3.84871
# Velocity P-wave (km/s) = 5.97384 7.02621 2.61542
#
# Compressibility (1/GPa) = 0.02616025
#
# Stress axis : x y z
#
# Youngs Moduli (GPa) = 109.85120 72.17838 24.80199
#
# Poissons Ratio (x) = 0.08511 0.26582
# Poissons Ratio (y) = 0.12953 0.16522
# Poissons Ratio (z) = 1.17734 0.48083
#
# Static dielectric constant tensor:
#      x y z
#    x 4.110120 0.000000 0.000000 
#    y 0.000000 3.468090 0.000000 
#    z 0.000000 0.000000 3.226020 
# 
# 
# High freq. dielectric constant tensor:
#      x y z
#    x 1.753860 0.000000 0.000000 
#    y 0.000000 1.742870 0.000000 
#    z 0.000000 0.000000 1.692870 
# 
# From -- ./inp_files/57297.got.cif
#   From: 2010.03.12/outbox.cif.g09.slc.cpg/sg65_29_cif.got.tgz:57297.got - 2010.04.10 20:52:16.
