data_PCOD8266695
_publ_section_title
;
Structure prediction by ZEFSAII (Michael W. Deem and Ramdas Pophale) SiO2 
 PCOD8266695
Probable space group: C M M M
;
_chemical_formula_sum "Si O2"
_cell_formula_units_Z 88
_cell_length_a 18.272018
_cell_length_b 31.011297
_cell_length_c 7.751128
_cell_angle_alpha 90.000000
_cell_angle_beta 90.000000
_cell_angle_gamma 90.000000
_cell_volume 4392.091240
_symmetry_space_group_name_H-M "C M M M"
_symmetry_group_IT_number 65
_symmetry_cell_setting 'orthorhombic'
loop_
_space_group_symop_operation_xyz
x,y,z
-x,-y,z
x,-y,-z
-x,y,-z
-x,-y,-z
x,y,-z
-x,y,z
x,-y,z
1/2+x,1/2+y,z
1/2-x,1/2-y,z
1/2+x,1/2-y,-z
1/2-x,1/2+y,-z
1/2-x,1/2-y,-z
1/2+x,1/2+y,-z
1/2-x,1/2+y,z
1/2+x,1/2-y,z
loop_
_atom_site_type_symbol
_atom_site_label
_atom_site_fract_x
_atom_site_fract_y
_atom_site_fract_z
Si Si1 0.086677 0.087428 0.000000
Si Si2 0.671834 0.081772 0.794973
Si Si3 0.918150 0.500000 0.205292
Si Si4 0.082718 0.664140 0.795478
Si Si5 0.175865 0.950431 0.694404
Si Si6 0.413228 0.257140 0.690991
Si Si7 0.412710 0.314897 0.000000
O O1 0.113805 0.064059 0.827484
O O2 0.116504 0.136415 0.000000
O O3 0.000000 0.085465 0.000000
O O4 0.623096 0.042264 0.725922
O O5 0.634321 0.125686 0.729179
O O6 0.752283 0.078742 0.715132
O O7 0.678710 0.080475 0.000000
O O8 0.000000 0.500000 0.281170
O O9 0.920597 0.500000 0.000000
O O10 0.116032 0.708784 0.723477
O O11 0.000000 0.656242 0.727375
O O12 0.082027 0.666416 0.000000
O O13 0.145164 0.944883 0.500000
O O14 0.196709 0.000000 0.733211
O O15 0.389562 0.272600 0.500000
O O16 0.500000 0.255728 0.711344
O O17 0.381163 0.290677 0.830553
O O18 0.500000 0.314367 0.000000
#
# Coordination Sequence:
#
# PCOD8266695 Si02
#       7
#     8  16   8  16  16  16   8
#     4  11  25  44  70  96 117 141 177 234 306 370
#     4  10  18  31  55  81 116 164 207 246 287 335
#     4   9  16  26  47  83 119 157 209 258 293 322
#     4   9  16  27  47  81 121 160 209 257 287 319
#     4  11  24  42  65  90 120 157 196 233 283 355
#     4   9  16  28  50  79 114 156 194 232 285 343
#     4   9  18  35  57  85 115 140 174 230 293 359
#
# _framework density 20.036011999999999
#
# number of rings (size 3 to 8) (size 9 to 14) (size 15 to 20)
#    0.000    2.273    2.727    0.818    0.000    4.727 
#    0.000    2.727    0.000    4.364    0.000    2.545 
#    0.000    0.000    0.000    0.000    0.000    0.000 
#
# Total GULP energy -545596.668939 kJ/mol
# GULP energy per Si atom -12399.924294 kJ/mol
# Density = 1.999041 g / cm^3
# Si number density = 20.036012 Si / 1000 Ang^3
#
#
#
# Elastic Constant Matrix: (Units=GPa)
#
#
# Indices 1 2 3 4 5 6 
#
# 1 72.8736 29.5703 30.0887 0.0000 0.0000 0.0000
# 2 29.5703 109.6621 57.6370 0.0000 0.0000 0.0000
# 3 30.0887 57.6370 109.1224 0.0000 0.0000 0.0000
# 4 0.0000 0.0000 0.0000 14.3517 0.0000 0.0000
# 5 0.0000 0.0000 0.0000 0.0000 9.2290 0.0000
# 6 0.0000 0.0000 0.0000 0.0000 0.0000 12.0858
#
#
#
# Elastic Compliance Matrix: (Units=1/GPa)
#
#
# Indices 1 2 3 4 5 6 
#
# 1 0.016073 -0.002775 -0.002966 0.000000 0.000000 0.000000
# 2 -0.002775 0.013102 -0.006155 0.000000 0.000000 0.000000
# 3 -0.002966 -0.006155 0.013233 0.000000 0.000000 0.000000
# 4 0.000000 0.000000 0.000000 0.069678 0.000000 0.000000
# 5 0.000000 0.000000 0.000000 0.000000 0.108355 0.000000
# 6 0.000000 0.000000 0.000000 0.000000 0.000000 0.082741
#
#
# Mechanical properties :
#
#
# Convention : Reuss Voigt Hill
#
# Bulk Modulus (GPa) = 53.71891 58.47226 56.09558
# Shear Modulus (GPa) = 15.00685 18.75743 16.88214
#
# Velocity S-wave (km/s) = 2.73974 3.06304 2.90589
# Velocity P-wave (km/s) = 6.07270 6.46193 6.27033
#
# Compressibility (1/GPa) = 0.01861542
#
# Stress axis : x y z
#
# Youngs Moduli (GPa) = 62.21558 76.32198 75.56850
#
# Poissons Ratio (x) = 0.21181 0.22414
# Poissons Ratio (y) = 0.17266 0.46515
# Poissons Ratio (z) = 0.18454 0.46978
#
# Static dielectric constant tensor:
#      x y z
#    x 3.242610 0.000000 0.000000 
#    y 0.000000 3.829410 0.000000 
#    z 0.000000 0.000000 3.596850 
# 
# 
# High freq. dielectric constant tensor:
#      x y z
#    x 1.741230 0.000000 0.000000 
#    y 0.000000 1.787380 0.000000 
#    z 0.000000 0.000000 1.779340 
# 
# From -- ./inp_files/10209.got.cif
#   From: 2010.03.12/outbox.cif.g09.slc.cpg/sg65_6_cif.got.tgz:10209.got - 2010.04.10 20:52:16.
