data_PCOD8266658
_publ_section_title
;
Structure prediction by ZEFSAII (Michael W. Deem and Ramdas Pophale) SiO2 
 PCOD8266658
Probable space group: C M M M
;
_chemical_formula_sum "Si O2"
_cell_formula_units_Z 96
_cell_length_a 23.599508
_cell_length_b 25.409529
_cell_length_c 8.736495
_cell_angle_alpha 90.000000
_cell_angle_beta 90.000000
_cell_angle_gamma 90.000000
_cell_volume 5238.860045
_symmetry_space_group_name_H-M "C M M M"
_symmetry_group_IT_number 65
_symmetry_cell_setting 'orthorhombic'
loop_
_space_group_symop_operation_xyz
x,y,z
-x,-y,z
x,-y,-z
-x,y,-z
-x,-y,-z
x,y,-z
-x,y,z
x,-y,z
1/2+x,1/2+y,z
1/2-x,1/2-y,z
1/2+x,1/2-y,-z
1/2-x,1/2+y,-z
1/2-x,1/2-y,-z
1/2+x,1/2+y,-z
1/2-x,1/2+y,z
1/2+x,1/2-y,z
loop_
_atom_site_type_symbol
_atom_site_label
_atom_site_fract_x
_atom_site_fract_y
_atom_site_fract_z
Si Si1 0.251590 0.189889 0.319190
Si Si2 0.634252 0.150594 0.820383
Si Si3 0.137739 0.846111 0.182279
Si Si4 0.562973 0.750268 0.181476
Si Si5 0.936657 0.941584 0.818087
Si Si6 0.564678 0.060801 0.322554
O O1 0.247289 0.189717 0.500000
O O2 0.250000 0.250000 0.256192
O O3 0.307586 0.159689 0.267865
O O4 0.200040 0.156734 0.250784
O O5 0.590055 0.194901 0.765660
O O6 0.607934 0.094304 0.779013
O O7 0.646461 0.153796 0.000000
O O8 0.101041 0.797210 0.245072
O O9 0.108127 0.899241 0.244978
O O10 0.141746 0.845364 0.000000
O O11 0.500000 0.746197 0.252118
O O12 0.559653 0.746819 0.000000
O O13 0.000000 0.928128 0.758064
O O14 0.918674 0.000000 0.762196
O O15 0.937381 0.939374 0.000000
O O16 0.573469 0.074660 0.500000
O O17 0.500000 0.073062 0.273642
O O18 0.578699 0.000000 0.291449
#
# Coordination Sequence:
#
# PCOD8266658 Si02
#       6
#    16  16  16  16  16  16
#     4  11  23  38  54  72 102 143 185 225 272 328
#     4  11  21  34  55  81 109 138 179 229 273 319
#     4  10  18  31  53  77 104 138 177 218 263 313
#     4   9  17  28  46  76 108 133 162 209 270 327
#     4   8  14  26  48  80 112 138 167 207 256 309
#     4   9  19  37  59  82 112 149 182 214 262 324
#
# _framework density 18.324598000000002
#
# number of rings (size 3 to 8) (size 9 to 14) (size 15 to 20)
#    0.000    2.333    1.667    3.000    0.000    4.000 
#    0.000    1.667    0.000    6.500    0.000    1.167 
#    0.000    0.000    0.000    0.000    0.000    0.000 
#
# Total GULP energy -595214.508933 kJ/mol
# GULP energy per Si atom -12400.302269 kJ/mol
# Density = 1.828289 g / cm^3
# Si number density = 18.324598 Si / 1000 Ang^3
#
#
#
# Elastic Constant Matrix: (Units=GPa)
#
#
# Indices 1 2 3 4 5 6 
#
# 1 124.2716 56.4627 15.2168 0.0000 0.0000 0.0000
# 2 56.4627 115.5561 19.2146 0.0000 0.0000 0.0000
# 3 15.2168 19.2146 26.4109 0.0000 0.0000 0.0000
# 4 0.0000 0.0000 0.0000 19.4501 0.0000 0.0000
# 5 0.0000 0.0000 0.0000 0.0000 11.4559 0.0000
# 6 0.0000 0.0000 0.0000 0.0000 0.0000 30.7453
#
#
#
# Elastic Compliance Matrix: (Units=1/GPa)
#
#
# Indices 1 2 3 4 5 6 
#
# 1 0.010502 -0.004693 -0.002636 0.000000 0.000000 0.000000
# 2 -0.004693 0.011942 -0.005984 0.000000 0.000000 0.000000
# 3 -0.002636 -0.005984 0.043736 0.000000 0.000000 0.000000
# 4 0.000000 0.000000 0.000000 0.051414 0.000000 0.000000
# 5 0.000000 0.000000 0.000000 0.000000 0.087291 0.000000
# 6 0.000000 0.000000 0.000000 0.000000 0.000000 0.032525
#
#
# Mechanical properties :
#
#
# Convention : Reuss Voigt Hill
#
# Bulk Modulus (GPa) = 25.28290 49.78075 37.53183
# Shear Modulus (GPa) = 18.03615 24.01990 21.02802
#
# Velocity S-wave (km/s) = 3.14069 3.62443 3.39120
# Velocity P-wave (km/s) = 5.19414 6.68882 5.98830
#
# Compressibility (1/GPa) = 0.03955242
#
# Stress axis : x y z
#
# Youngs Moduli (GPa) = 95.21979 83.73828 22.86454
#
# Poissons Ratio (x) = 0.39299 0.06028
# Poissons Ratio (y) = 0.44687 0.13682
# Poissons Ratio (z) = 0.25105 0.50110
#
# Static dielectric constant tensor:
#      x y z
#    x 3.443070 0.000000 0.000000 
#    y 0.000000 3.534180 0.000000 
#    z 0.000000 0.000000 2.974520 
# 
# 
# High freq. dielectric constant tensor:
#      x y z
#    x 1.714940 0.000000 0.000000 
#    y 0.000000 1.713880 0.000000 
#    z 0.000000 0.000000 1.675500 
# 
# From -- ./inp_files/14308.got.cif
#   From: 2010.03.12/outbox.cif.g09.slc.cpg/sg65_8_cif.got.tgz:14308.got - 2010.04.10 20:52:16.
