data_PCOD8266609
_publ_section_title
;
Structure prediction by ZEFSAII (Michael W. Deem and Ramdas Pophale) SiO2 
 PCOD8266609
Probable space group: C M M M
;
_chemical_formula_sum "Si O2"
_cell_formula_units_Z 72
_cell_length_a 17.565722
_cell_length_b 10.219889
_cell_length_c 21.912421
_cell_angle_alpha 90.000000
_cell_angle_beta 90.000000
_cell_angle_gamma 90.000000
_cell_volume 3933.711881
_symmetry_space_group_name_H-M "C M M M"
_symmetry_group_IT_number 65
_symmetry_cell_setting 'orthorhombic'
loop_
_space_group_symop_operation_xyz
x,y,z
-x,-y,z
x,-y,-z
-x,y,-z
-x,-y,-z
x,y,-z
-x,y,z
x,-y,z
1/2+x,1/2+y,z
1/2-x,1/2-y,z
1/2+x,1/2-y,-z
1/2-x,1/2+y,-z
1/2-x,1/2-y,-z
1/2+x,1/2+y,-z
1/2-x,1/2+y,z
1/2+x,1/2-y,z
loop_
_atom_site_type_symbol
_atom_site_label
_atom_site_fract_x
_atom_site_fract_y
_atom_site_fract_z
Si Si1 0.179374 0.346867 0.882507
Si Si2 0.341734 0.500000 0.568796
Si Si3 0.159622 0.250950 0.642216
Si Si4 0.911792 0.350487 0.240138
Si Si5 0.660728 0.000000 0.568044
Si Si6 0.915303 0.654205 0.000000
O O1 0.204503 0.500000 0.887665
O O2 0.250000 0.250000 0.878219
O O3 0.128522 0.322572 0.823452
O O4 0.130302 0.300712 0.940365
O O5 0.375524 0.500000 0.500000
O O6 0.370702 0.374719 0.605973
O O7 0.251303 0.500000 0.564861
O O8 0.250000 0.250000 0.650376
O O9 0.122495 0.254261 0.708968
O O10 0.130621 0.373454 0.603127
O O11 0.897917 0.500000 0.260869
O O12 0.000000 0.319485 0.231095
O O13 0.626490 0.000000 0.500000
O O14 0.924205 0.500000 0.000000
O O15 0.000000 0.717551 0.000000
#
# Coordination Sequence:
#
# PCOD8266609 Si02
#       6
#    16   8  16  16   8   8
#     4  10  20  35  57  84 112 143 182 226 268 310
#     4   9  18  30  49  77 105 132 165 214 269 319
#     4  10  18  31  51  76 103 132 171 215 264 317
#     4  10  20  35  54  75 102 138 181 224 265 311
#     4   9  16  28  49  75 101 130 169 214 257 309
#     4   9  17  32  57  87 116 149 188 222 258 307
#
# _framework density 18.303324
#
# number of rings (size 3 to 8) (size 9 to 14) (size 15 to 20)
#    0.000    2.333    1.111    2.333    0.000    5.333 
#    2.000    0.556    0.000    6.667    0.000    0.000 
#    0.000    0.000    0.000    0.000    0.000    0.000 
#
# Total GULP energy -446403.541331 kJ/mol
# GULP energy per Si atom -12400.098370 kJ/mol
# Density = 1.826166 g / cm^3
# Si number density = 18.303324 Si / 1000 Ang^3
#
#
#
# Elastic Constant Matrix: (Units=GPa)
#
#
# Indices 1 2 3 4 5 6 
#
# 1 88.8304 47.0573 59.8648 0.0000 0.0000 0.0000
# 2 47.0573 115.3334 71.9674 0.0000 0.0000 0.0000
# 3 59.8648 71.9674 179.9123 0.0000 0.0000 0.0000
# 4 0.0000 0.0000 0.0000 22.8869 0.0000 0.0000
# 5 0.0000 0.0000 0.0000 0.0000 -23.6283 0.0000
# 6 0.0000 0.0000 0.0000 0.0000 0.0000 19.3931
#
#
#
# Elastic Compliance Matrix: (Units=1/GPa)
#
#
# Indices 1 2 3 4 5 6 
#
# 1 0.015939 -0.004256 -0.003601 0.000000 0.000000 0.000000
# 2 -0.004256 0.012691 -0.003660 0.000000 0.000000 0.000000
# 3 -0.003601 -0.003660 0.008221 0.000000 0.000000 0.000000
# 4 0.000000 0.000000 0.000000 0.043693 0.000000 0.000000
# 5 0.000000 0.000000 0.000000 0.000000 -0.042322 0.000000
# 6 0.000000 0.000000 0.000000 0.000000 0.000000 0.051565
#
#
# Mechanical properties :
#
#
# Convention : Reuss Voigt Hill
#
# Bulk Modulus (GPa) = 72.38271 82.42834 77.40553
# Shear Modulus (GPa) = 42.57958 17.40944 29.99451
#
# Velocity S-wave (km/s) = 4.82844 3.08744 4.05254
# Velocity P-wave (km/s) = 8.40935 7.60540 8.01746
#
# Compressibility (1/GPa) = 0.01381545
#
# Stress axis : x y z
#
# Youngs Moduli (GPa) = 62.73943 78.79486 121.64410
#
# Poissons Ratio (x) = 0.33537 0.43804
# Poissons Ratio (y) = 0.26703 0.44527
# Poissons Ratio (z) = 0.22593 0.28842
#
# Static dielectric constant tensor:
#      x y z
#    x 3.121800 0.000000 0.000000 
#    y 0.000000 3.309190 0.000000 
#    z 0.000000 0.000000 3.602810 
# 
# 
# High freq. dielectric constant tensor:
#      x y z
#    x 1.685980 0.000000 0.000000 
#    y 0.000000 1.692110 0.000000 
#    z 0.000000 0.000000 1.731110 
# 
# From -- ./inp_files/59349.got.cif
#   From: 2010.03.12/outbox.cif.g09.slc.cpg/sg65_30_cif.got.tgz:59349.got - 2010.04.10 20:52:16.
