data_PCOD8266576
_publ_section_title
;
Structure prediction by ZEFSAII (Michael W. Deem and Ramdas Pophale) SiO2 
 PCOD8266576
Probable space group: C M M M
;
_chemical_formula_sum "Si O2"
_cell_formula_units_Z 80
_cell_length_a 23.798135
_cell_length_b 9.131884
_cell_length_c 20.169550
_cell_angle_alpha 90.000000
_cell_angle_beta 90.000000
_cell_angle_gamma 90.000000
_cell_volume 4383.283077
_symmetry_space_group_name_H-M "C M M M"
_symmetry_group_IT_number 65
_symmetry_cell_setting 'orthorhombic'
loop_
_space_group_symop_operation_xyz
x,y,z
-x,-y,z
x,-y,-z
-x,y,-z
-x,-y,-z
x,y,-z
-x,y,z
x,-y,z
1/2+x,1/2+y,z
1/2-x,1/2-y,z
1/2+x,1/2-y,-z
1/2-x,1/2+y,-z
1/2-x,1/2-y,-z
1/2+x,1/2+y,-z
1/2-x,1/2+y,z
1/2+x,1/2-y,z
loop_
_atom_site_type_symbol
_atom_site_label
_atom_site_fract_x
_atom_site_fract_y
_atom_site_fract_z
Si Si1 0.563589 0.828169 0.424794
Si Si2 0.500000 0.339632 0.234472
Si Si3 0.500000 0.829202 0.105431
Si Si4 0.122040 0.670828 0.074051
Si Si5 0.614506 0.334956 0.689576
Si Si6 0.309920 0.324916 0.188960
O O1 0.579514 0.786592 0.500000
O O2 0.500000 0.771899 0.409385
O O3 0.611526 0.758290 0.377841
O O4 0.565658 0.000000 0.413765
O O5 0.500000 0.500000 0.199309
O O6 0.500000 0.210201 0.182289
O O7 0.446404 0.322710 0.279541
O O8 0.442516 0.770636 0.072546
O O9 0.500000 0.000000 0.096232
O O10 0.125358 0.500000 0.095520
O O11 0.156476 0.769022 0.125067
O O12 0.146903 0.691665 0.000000
O O13 0.630339 0.500000 0.670137
O O14 0.659325 0.275167 0.743151
O O15 0.305137 0.500000 0.184232
O O16 0.250000 0.250000 0.189058
#
# Coordination Sequence:
#
# PCOD8266576 Si02
#       6
#    16   8   8  16  16  16
#     4   9  18  31  49  79 117 150 178 210 253 310
#     4  10  18  31  50  78 112 140 172 219 272 324
#     4  10  19  32  54  83 113 143 176 214 263 324
#     4  10  21  37  57  82 112 144 178 219 269 325
#     4  10  20  34  54  79 109 142 176 218 267 320
#     4  11  24  41  59  79 104 138 185 234 277 322
#
# _framework density 18.251159999999999
#
# number of rings (size 3 to 8) (size 9 to 14) (size 15 to 20)
#    0.000    2.000    3.000    1.500    0.000    4.800 
#    0.000    1.000    0.000    2.400    0.000    0.000 
#    0.000    0.000    0.000    0.000    0.000    0.000 
#
# Total GULP energy -495799.135276 kJ/mol
# GULP energy per Si atom -12394.978382 kJ/mol
# Density = 1.820962 g / cm^3
# Si number density = 18.251160 Si / 1000 Ang^3
#
#
#
# Elastic Constant Matrix: (Units=GPa)
#
#
# Indices 1 2 3 4 5 6 
#
# 1 115.4488 46.9322 58.3407 0.0000 0.0000 0.0000
# 2 46.9322 54.4493 54.9944 0.0000 0.0000 0.0000
# 3 58.3407 54.9944 135.1641 0.0000 0.0000 0.0000
# 4 0.0000 0.0000 0.0000 33.2304 0.0000 0.0000
# 5 0.0000 0.0000 0.0000 0.0000 -0.1721 0.0000
# 6 0.0000 0.0000 0.0000 0.0000 0.0000 25.0197
#
#
#
# Elastic Compliance Matrix: (Units=1/GPa)
#
#
# Indices 1 2 3 4 5 6 
#
# 1 0.013607 -0.009840 -0.001869 0.000000 0.000000 0.000000
# 2 -0.009840 0.038294 -0.011334 0.000000 0.000000 0.000000
# 3 -0.001869 -0.011334 0.012817 0.000000 0.000000 0.000000
# 4 0.000000 0.000000 0.000000 0.030093 0.000000 0.000000
# 5 0.000000 0.000000 0.000000 0.000000 -5.811050 0.000000
# 6 0.000000 0.000000 0.000000 0.000000 0.000000 0.039968
#
#
# Mechanical properties :
#
#
# Convention : Reuss Voigt Hill
#
# Bulk Modulus (GPa) = 53.67254 69.51076 61.59165
# Shear Modulus (GPa) = -0.88905 21.26860 10.18978
#
# Velocity S-wave (km/s) = -0.69870 3.41739 2.36542
# Velocity P-wave (km/s) = 5.36849 7.33074 6.42497
#
# Compressibility (1/GPa) = 0.01863150
#
# Stress axis : x y z
#
# Youngs Moduli (GPa) = 73.49307 26.11348 78.02372
#
# Poissons Ratio (x) = 0.25696 0.14586
# Poissons Ratio (y) = 0.72318 0.88429
# Poissons Ratio (z) = 0.13739 0.29596
#
# Static dielectric constant tensor:
#      x y z
#    x 3.259590 0.000000 0.000000 
#    y 0.000000 3.361320 0.000000 
#    z 0.000000 0.000000 3.422010 
# 
# 
# High freq. dielectric constant tensor:
#      x y z
#    x 1.689270 0.000000 0.000000 
#    y 0.000000 1.700380 0.000000 
#    z 0.000000 0.000000 1.711510 
# 
# From -- ./inp_files/59697.got.cif
#   From: 2010.03.12/outbox.cif.g09.slc.cpg/sg65_30_cif.got.tgz:59697.got - 2010.04.10 20:52:16.
