data_PCOD8266617
_publ_section_title
;
Structure prediction by ZEFSAII (Michael W. Deem and Ramdas Pophale) SiO2 
 PCOD8266617
Probable space group: C M M M
;
_chemical_formula_sum "Si O2"
_cell_formula_units_Z 104
_cell_length_a 28.863988
_cell_length_b 7.957315
_cell_length_c 24.875474
_cell_angle_alpha 90.000000
_cell_angle_beta 90.000000
_cell_angle_gamma 90.000000
_cell_volume 5713.395004
_symmetry_space_group_name_H-M "C M M M"
_symmetry_group_IT_number 65
_symmetry_cell_setting 'orthorhombic'
loop_
_space_group_symop_operation_xyz
x,y,z
-x,-y,z
x,-y,-z
-x,y,-z
-x,-y,-z
x,y,-z
-x,y,z
x,-y,z
1/2+x,1/2+y,z
1/2-x,1/2-y,z
1/2+x,1/2-y,-z
1/2-x,1/2+y,-z
1/2-x,1/2-y,-z
1/2+x,1/2+y,-z
1/2-x,1/2+y,z
1/2+x,1/2-y,z
loop_
_atom_site_type_symbol
_atom_site_label
_atom_site_fract_x
_atom_site_fract_y
_atom_site_fract_z
Si Si1 0.396149 0.803906 0.765564
Si Si2 0.798478 0.694586 0.277263
Si Si3 0.553607 0.688999 0.131467
Si Si4 0.054900 0.500000 0.059943
Si Si5 0.699802 0.309755 0.396007
Si Si6 0.052296 0.700301 0.341154
Si Si7 0.107527 0.307435 0.558665
O O1 0.340998 0.769077 0.762951
O O2 0.416726 0.699005 0.814456
O O3 0.419623 0.737181 0.710853
O O4 0.407171 0.000000 0.774681
O O5 0.797310 0.500000 0.293463
O O6 0.750000 0.750000 0.249137
O O7 0.804988 0.797539 0.331815
O O8 0.500000 0.724356 0.145689
O O9 0.559609 0.500000 0.107398
O O10 0.571895 0.829817 0.089698
O O11 0.000000 0.500000 0.056426
O O12 0.076345 0.500000 0.000000
O O13 0.691869 0.500000 0.413759
O O14 0.750000 0.250000 0.415692
O O15 0.661370 0.199494 0.425586
O O16 0.054148 0.500000 0.343238
O O17 0.076107 0.778018 0.394785
O O18 0.000000 0.767774 0.337597
O O19 0.099000 0.221966 0.500000
O O20 0.092935 0.500000 0.554340
#
# Coordination Sequence:
#
# PCOD8266617 Si02
#       7
#    16  16  16   8  16  16  16
#     4  10  18  31  52  73 105 143 172 213 262 314
#     4  10  19  32  51  75 103 134 167 203 257 319
#     4  10  20  32  50  79 112 148 190 229 265 309
#     4   9  18  34  54  76 112 156 191 227 269 307
#     4  11  21  34  53  72  95 122 156 199 251 314
#     4   9  17  30  50  74  97 127 166 204 252 310
#     4  10  20  35  52  70  94 121 158 208 257 308
#
# _framework density 18.202836999999999
#
# number of rings (size 3 to 8) (size 9 to 14) (size 15 to 20)
#    0.000    2.077    2.308    3.231    0.000    3.077 
#    0.000    3.077    0.000    0.462    0.000    1.077 
#    0.000    0.615    0.308    0.000    0.000    0.000 
#
# Total GULP energy -644705.333826 kJ/mol
# GULP energy per Si atom -12398.179497 kJ/mol
# Density = 1.816141 g / cm^3
# Si number density = 18.202837 Si / 1000 Ang^3
#
#
#
# Elastic Constant Matrix: (Units=GPa)
#
#
# Indices 1 2 3 4 5 6 
#
# 1 105.0984 22.0227 48.2475 0.0000 0.0000 0.0000
# 2 22.0227 66.7921 33.9649 0.0000 0.0000 0.0000
# 3 48.2475 33.9649 114.7717 0.0000 0.0000 0.0000
# 4 0.0000 0.0000 0.0000 12.5641 0.0000 0.0000
# 5 0.0000 0.0000 0.0000 0.0000 14.4530 0.0000
# 6 0.0000 0.0000 0.0000 0.0000 0.0000 19.7121
#
#
#
# Elastic Compliance Matrix: (Units=1/GPa)
#
#
# Indices 1 2 3 4 5 6 
#
# 1 0.011939 -0.001630 -0.004537 0.000000 0.000000 0.000000
# 2 -0.001630 0.017846 -0.004596 0.000000 0.000000 0.000000
# 3 -0.004537 -0.004596 0.011980 0.000000 0.000000 0.000000
# 4 0.000000 0.000000 0.000000 0.079592 0.000000 0.000000
# 5 0.000000 0.000000 0.000000 0.000000 0.069190 0.000000
# 6 0.000000 0.000000 0.000000 0.000000 0.000000 0.050730
#
#
# Mechanical properties :
#
#
# Convention : Reuss Voigt Hill
#
# Bulk Modulus (GPa) = 49.40565 55.01472 52.21018
# Shear Modulus (GPa) = 18.54949 21.50767 20.02858
#
# Velocity S-wave (km/s) = 3.19571 3.44111 3.32068
# Velocity P-wave (km/s) = 6.38885 6.78801 6.59145
#
# Compressibility (1/GPa) = 0.02024060
#
# Stress axis : x y z
#
# Youngs Moduli (GPa) = 83.75917 56.03354 83.47056
#
# Poissons Ratio (x) = 0.09131 0.37868
# Poissons Ratio (y) = 0.13649 0.38366
# Poissons Ratio (z) = 0.37999 0.25755
#
# Static dielectric constant tensor:
#      x y z
#    x 3.430350 0.000000 0.000000 
#    y 0.000000 3.241390 0.000000 
#    z 0.000000 0.000000 3.254290 
# 
# 
# High freq. dielectric constant tensor:
#      x y z
#    x 1.695670 0.000000 0.000000 
#    y 0.000000 1.697860 0.000000 
#    z 0.000000 0.000000 1.672230 
# 
# From -- ./inp_files/66366.got.cif
#   From: 2010.03.12/outbox.cif.g09.slc.cpg/sg65_34_cif.got.tgz:66366.got - 2010.04.10 20:52:16.
