data_PCOD8266326
_publ_section_title
;
Structure prediction by ZEFSAII (Michael W. Deem and Ramdas Pophale) SiO2 
 PCOD8266326
Probable space group: C M M M
;
_chemical_formula_sum "Si O2"
_cell_formula_units_Z 120
_cell_length_a 23.967871
_cell_length_b 29.786866
_cell_length_c 9.966130
_cell_angle_alpha 90.000000
_cell_angle_beta 90.000000
_cell_angle_gamma 90.000000
_cell_volume 7115.096885
_symmetry_space_group_name_H-M "C M M M"
_symmetry_group_IT_number 65
_symmetry_cell_setting 'orthorhombic'
loop_
_space_group_symop_operation_xyz
x,y,z
-x,-y,z
x,-y,-z
-x,y,-z
-x,-y,-z
x,y,-z
-x,y,z
x,-y,z
1/2+x,1/2+y,z
1/2-x,1/2-y,z
1/2+x,1/2-y,-z
1/2-x,1/2+y,-z
1/2-x,1/2-y,-z
1/2+x,1/2+y,-z
1/2-x,1/2+y,z
1/2+x,1/2-y,z
loop_
_atom_site_type_symbol
_atom_site_label
_atom_site_fract_x
_atom_site_fract_y
_atom_site_fract_z
Si Si1 0.750000 0.250000 0.255292
Si Si2 0.937097 0.550112 0.659011
Si Si3 0.139851 0.127798 0.159775
Si Si4 0.734878 0.348446 0.647397
Si Si5 0.561211 0.705575 0.843473
Si Si6 0.362898 0.212929 0.151840
Si Si7 0.061529 0.950307 0.159275
Si Si8 0.640264 0.131138 0.346332
O O1 0.740628 0.294400 0.344342
O O2 0.695557 0.239738 0.165608
O O3 0.935514 0.548773 0.500000
O O4 0.921574 0.500000 0.713563
O O5 0.892009 0.586957 0.709602
O O6 0.000000 0.563015 0.707080
O O7 0.198709 0.131042 0.233213
O O8 0.101621 0.167847 0.216364
O O9 0.109829 0.082533 0.209375
O O10 0.150199 0.129848 0.000000
O O11 0.709498 0.358621 0.500000
O O12 0.793260 0.374811 0.661776
O O13 0.500000 0.702873 0.775980
O O14 0.586504 0.754014 0.815708
O O15 0.555743 0.695606 0.000000
O O16 0.374834 0.172854 0.253103
O O17 0.365688 0.194646 0.000000
O O18 0.000000 0.935058 0.210633
O O19 0.075306 0.000000 0.213695
O O20 0.060442 0.950000 0.000000
O O21 0.622073 0.141506 0.500000
#
# Coordination Sequence:
#
# PCOD8266326 Si02
#       8
#     8  16  16  16  16  16  16  16
#     4  10  18  32  50  68  86 124 170 208 230 272
#     4   8  14  28  53  79  97 119 158 204 241 279
#     4  10  18  30  49  72  94 124 163 204 239 277
#     4  10  20  32  47  68  97 130 161 195 239 287
#     4   9  17  29  44  66  94 123 155 193 239 285
#     4  10  19  30  47  70  95 125 159 198 235 280
#     4   8  14  26  47  74  98 121 156 202 246 286
#     4   9  19  33  48  71 100 127 156 193 241 288
#
# _framework density 16.865545999999998
#
# number of rings (size 3 to 8) (size 9 to 14) (size 15 to 20)
#    0.000    2.800    1.333    1.600    0.000    4.800 
#    0.000    0.667    0.000    4.000    0.000    1.867 
#    0.000    0.000    0.000    0.000    0.000    0.000 
#
# Total GULP energy -743513.928201 kJ/mol
# GULP energy per Si atom -12391.898803 kJ/mol
# Density = 1.682716 g / cm^3
# Si number density = 16.865546 Si / 1000 Ang^3
#
#
#
# Elastic Constant Matrix: (Units=GPa)
#
#
# Indices 1 2 3 4 5 6 
#
# 1 103.0041 62.3210 36.9934 0.0000 0.0000 0.0000
# 2 62.3210 97.5780 37.4788 0.0000 0.0000 0.0000
# 3 36.9934 37.4788 54.5206 0.0000 0.0000 0.0000
# 4 0.0000 0.0000 0.0000 13.8864 0.0000 0.0000
# 5 0.0000 0.0000 0.0000 0.0000 14.0466 0.0000
# 6 0.0000 0.0000 0.0000 0.0000 0.0000 -191.6232
#
#
#
# Elastic Compliance Matrix: (Units=1/GPa)
#
#
# Indices 1 2 3 4 5 6 
#
# 1 0.016963 -0.008714 -0.005520 0.000000 0.000000 0.000000
# 2 -0.008714 0.018401 -0.006737 0.000000 0.000000 0.000000
# 3 -0.005520 -0.006737 0.026718 0.000000 0.000000 0.000000
# 4 0.000000 0.000000 0.000000 0.072013 0.000000 0.000000
# 5 0.000000 0.000000 0.000000 0.000000 0.071191 0.000000
# 6 0.000000 0.000000 0.000000 0.000000 0.000000 -0.005219
#
#
# Mechanical properties :
#
#
# Convention : Reuss Voigt Hill
#
# Bulk Modulus (GPa) = 49.64902 58.74325 54.19613
# Shear Modulus (GPa) = 20.10277 -24.85075 -2.37399
#
# Velocity S-wave (km/s) = 3.45620 -3.84273 -1.18771
# Velocity P-wave (km/s) = 6.74011 3.90091 5.50664
#
# Compressibility (1/GPa) = 0.02014138
#
# Stress axis : x y z
#
# Youngs Moduli (GPa) = 58.95249 54.34458 37.42803
#
# Poissons Ratio (x) = 0.47355 0.20659
# Poissons Ratio (y) = 0.51370 0.25215
# Poissons Ratio (z) = 0.32539 0.36611
#
# Static dielectric constant tensor:
#      x y z
#    x 3.323660 0.000000 0.000000 
#    y 0.000000 3.376050 0.000000 
#    z 0.000000 0.000000 2.779990 
# 
# 
# High freq. dielectric constant tensor:
#      x y z
#    x 1.654010 0.000000 0.000000 
#    y 0.000000 1.647460 0.000000 
#    z 0.000000 0.000000 1.607390 
# 
# From -- ./inp_files/29809.got.cif
#   From: 2010.03.12/outbox.cif.g09.slc.cpg/sg65_15_cif.got.tgz:29809.got - 2010.04.10 20:52:16.
