data_PCOD8266858
_publ_section_title
;
Structure prediction by ZEFSAII (Michael W. Deem and Ramdas Pophale) SiO2 
 PCOD8266858
Probable space group: C M M M
;
_chemical_formula_sum "Si O2"
_cell_formula_units_Z 88
_cell_length_a 8.560921
_cell_length_b 23.532036
_cell_length_c 22.817947
_cell_angle_alpha 90.000000
_cell_angle_beta 90.000000
_cell_angle_gamma 90.000000
_cell_volume 4596.810076
_symmetry_space_group_name_H-M "C M M M"
_symmetry_group_IT_number 65
_symmetry_cell_setting 'orthorhombic'
loop_
_space_group_symop_operation_xyz
x,y,z
-x,-y,z
x,-y,-z
-x,y,-z
-x,-y,-z
x,y,-z
-x,y,z
x,-y,z
1/2+x,1/2+y,z
1/2-x,1/2-y,z
1/2+x,1/2-y,-z
1/2-x,1/2+y,-z
1/2-x,1/2-y,-z
1/2+x,1/2+y,-z
1/2-x,1/2+y,z
1/2+x,1/2-y,z
loop_
_atom_site_type_symbol
_atom_site_label
_atom_site_fract_x
_atom_site_fract_y
_atom_site_fract_z
Si Si1 0.182047 0.812226 0.381342
Si Si2 0.177594 0.500000 0.233166
Si Si3 0.820027 0.617315 0.932317
Si Si4 0.820032 0.622118 0.275523
Si Si5 0.684087 0.813158 0.500000
Si Si6 0.683575 0.312497 0.167583
Si Si7 0.182565 0.000000 0.108609
O O1 0.250000 0.750000 0.368215
O O2 0.215302 0.853018 0.327138
O O3 0.254149 0.841621 0.439947
O O4 0.000000 0.805182 0.390910
O O5 0.207480 0.445423 0.273850
O O6 0.293662 0.500000 0.178326
O O7 0.000000 0.500000 0.208804
O O8 0.719609 0.663356 0.896733
O O9 0.760076 0.554263 0.920930
O O10 0.000000 0.621397 0.912717
O O11 0.798903 0.632884 0.000000
O O12 0.767898 0.646873 0.213562
O O13 0.000000 0.637773 0.287234
O O14 0.500000 0.814144 0.500000
O O15 0.750000 0.750000 0.500000
O O16 0.500000 0.312059 0.179385
O O17 0.750000 0.250000 0.174777
O O18 0.000000 0.000000 0.094923
#
# Coordination Sequence:
#
# PCOD8266858 Si02
#       7
#    16   8  16  16   8  16   8
#     4  11  21  35  56  86 122 159 197 241 288 340
#     4  10  22  39  63  85 115 153 191 236 292 348
#     4  11  24  42  63  86 115 152 192 237 291 349
#     4  11  22  39  61  87 117 153 194 239 290 347
#     4  10  18  32  54  83 118 157 198 240 286 340
#     4  12  25  41  61  86 116 152 191 238 291 351
#     4  12  23  37  62  91 119 147 189 240 291 345
#
# _framework density 19.143709000000001
#
# number of rings (size 3 to 8) (size 9 to 14) (size 15 to 20)
#    0.000    0.909    1.818    7.909    0.000    3.636 
#    0.000    0.000    0.000    0.545    0.000    3.818 
#    0.000    0.000    0.000    0.000    0.000    0.000 
#
# Total GULP energy -545825.148290 kJ/mol
# GULP energy per Si atom -12405.117007 kJ/mol
# Density = 1.910014 g / cm^3
# Si number density = 19.143709 Si / 1000 Ang^3
#
#
#
# Elastic Constant Matrix: (Units=GPa)
#
#
# Indices 1 2 3 4 5 6 
#
# 1 109.2171 34.3694 31.3566 0.0000 0.0000 0.0000
# 2 34.3694 106.0303 34.2030 0.0000 0.0000 0.0000
# 3 31.3566 34.2030 106.8323 0.0000 0.0000 0.0000
# 4 0.0000 0.0000 0.0000 12.0755 0.0000 0.0000
# 5 0.0000 0.0000 0.0000 0.0000 36.0987 0.0000
# 6 0.0000 0.0000 0.0000 0.0000 0.0000 30.9834
#
#
#
# Elastic Compliance Matrix: (Units=1/GPa)
#
#
# Indices 1 2 3 4 5 6 
#
# 1 0.010662 -0.002728 -0.002256 0.000000 0.000000 0.000000
# 2 -0.002728 0.011216 -0.002790 0.000000 0.000000 0.000000
# 3 -0.002256 -0.002790 0.010916 0.000000 0.000000 0.000000
# 4 0.000000 0.000000 0.000000 0.082812 0.000000 0.000000
# 5 0.000000 0.000000 0.000000 0.000000 0.027702 0.000000
# 6 0.000000 0.000000 0.000000 0.000000 0.000000 0.032275
#
#
# Mechanical properties :
#
#
# Convention : Reuss Voigt Hill
#
# Bulk Modulus (GPa) = 57.98744 57.99310 57.99027
# Shear Modulus (GPa) = 25.39612 30.64156 28.01884
#
# Velocity S-wave (km/s) = 3.64621 4.00510 3.82986
# Velocity P-wave (km/s) = 6.93418 7.19354 7.06505
#
# Compressibility (1/GPa) = 0.01724511
#
# Stress axis : x y z
#
# Youngs Moduli (GPa) = 93.78749 89.16109 91.60989
#
# Poissons Ratio (x) = 0.24327 0.20667
# Poissons Ratio (y) = 0.25589 0.25559
# Poissons Ratio (z) = 0.21159 0.24875
#
# Static dielectric constant tensor:
#      x y z
#    x 3.672130 0.000000 0.000000 
#    y 0.000000 3.390080 0.000000 
#    z 0.000000 0.000000 3.812310 
# 
# 
# High freq. dielectric constant tensor:
#      x y z
#    x 1.763890 0.000000 0.000000 
#    y 0.000000 1.729790 0.000000 
#    z 0.000000 0.000000 1.751200 
# 
# From -- ./inp_files/67645.got.cif
#   From: 2010.03.12/outbox.cif.g09.slc.cpg/sg65_34_cif.got.tgz:67645.got - 2010.04.10 20:52:16.
