data_PCOD8266675
_publ_section_title
;
Structure prediction by ZEFSAII (Michael W. Deem and Ramdas Pophale) SiO2 
 PCOD8266675
Probable space group: C M M M
;
_chemical_formula_sum "Si O2"
_cell_formula_units_Z 104
_cell_length_a 27.967146
_cell_length_b 23.048173
_cell_length_c 8.855355
_cell_angle_alpha 90.000000
_cell_angle_beta 90.000000
_cell_angle_gamma 90.000000
_cell_volume 5708.087619
_symmetry_space_group_name_H-M "C M M M"
_symmetry_group_IT_number 65
_symmetry_cell_setting 'orthorhombic'
loop_
_space_group_symop_operation_xyz
x,y,z
-x,-y,z
x,-y,-z
-x,y,-z
-x,-y,-z
x,y,-z
-x,y,z
x,-y,z
1/2+x,1/2+y,z
1/2-x,1/2-y,z
1/2+x,1/2-y,-z
1/2-x,1/2+y,-z
1/2-x,1/2-y,-z
1/2+x,1/2+y,-z
1/2-x,1/2+y,z
1/2+x,1/2-y,z
loop_
_atom_site_type_symbol
_atom_site_label
_atom_site_fract_x
_atom_site_fract_y
_atom_site_fract_z
Si Si1 0.000000 0.937178 0.177603
Si Si2 0.233638 0.563465 0.676047
Si Si3 0.102212 0.069152 0.170881
Si Si4 0.680449 0.638694 0.323636
Si Si5 0.856294 0.636286 0.675868
Si Si6 0.946297 0.565426 0.679394
Si Si7 0.195322 0.745207 0.821886
O O1 0.049761 0.904862 0.218193
O O2 0.000000 0.000000 0.258713
O O3 0.000000 0.947809 0.000000
O O4 0.244924 0.558370 0.500000
O O5 0.240592 0.500000 0.751802
O O6 0.270769 0.610277 0.743031
O O7 0.179783 0.583369 0.705166
O O8 0.138475 0.093389 0.293633
O O9 0.101276 0.000000 0.181324
O O10 0.116035 0.088302 0.000000
O O11 0.684342 0.653192 0.500000
O O12 0.668771 0.696890 0.232293
O O13 0.859624 0.652515 0.500000
O O14 0.907513 0.612798 0.739344
O O15 0.836061 0.692140 0.760812
O O16 0.942654 0.563861 0.500000
O O17 0.935549 0.500000 0.740133
O O18 0.000000 0.584337 0.729850
O O19 0.250000 0.750000 0.758677
O O20 0.195809 0.740237 0.000000
#
# Coordination Sequence:
#
# PCOD8266675 Si02
#       7
#     8  16  16  16  16  16  16
#     4   7  12  26  49  73  97 131 169 199 234 293
#     4   9  17  28  45  73 105 133 161 197 245 303
#     4   9  17  31  52  77 105 136 169 205 251 306
#     4  11  21  33  51  74 103 134 171 216 258 304
#     4  10  18  31  54  78 103 137 176 211 249 302
#     4   8  14  26  49  84 118 141 166 207 259 312
#     4  11  23  38  54  71  97 133 176 220 262 308
#
# _framework density 18.219761999999999
#
# number of rings (size 3 to 8) (size 9 to 14) (size 15 to 20)
#    0.000    2.538    1.538    3.231    0.000    3.385 
#    0.000    0.385    1.692    4.615    0.000    1.077 
#    0.000    0.000    0.000    0.000    0.000    0.000 
#
# Total GULP energy -644333.652893 kJ/mol
# GULP energy per Si atom -12391.031786 kJ/mol
# Density = 1.817829 g / cm^3
# Si number density = 18.219762 Si / 1000 Ang^3
#
#
#
# Elastic Constant Matrix: (Units=GPa)
#
#
# Indices 1 2 3 4 5 6 
#
# 1 136.9383 52.5996 28.3350 0.0000 0.0000 0.0000
# 2 52.5996 108.0481 28.1873 0.0000 0.0000 0.0000
# 3 28.3350 28.1873 34.3506 0.0000 0.0000 0.0000
# 4 0.0000 0.0000 0.0000 17.1946 0.0000 0.0000
# 5 0.0000 0.0000 0.0000 0.0000 18.8937 0.0000
# 6 0.0000 0.0000 0.0000 0.0000 0.0000 21.7639
#
#
#
# Elastic Compliance Matrix: (Units=1/GPa)
#
#
# Indices 1 2 3 4 5 6 
#
# 1 0.009669 -0.003342 -0.005234 0.000000 0.000000 0.000000
# 2 -0.003342 0.012931 -0.007854 0.000000 0.000000 0.000000
# 3 -0.005234 -0.007854 0.039874 0.000000 0.000000 0.000000
# 4 0.000000 0.000000 0.000000 0.058158 0.000000 0.000000
# 5 0.000000 0.000000 0.000000 0.000000 0.052928 0.000000
# 6 0.000000 0.000000 0.000000 0.000000 0.000000 0.045948
#
#
# Mechanical properties :
#
#
# Convention : Reuss Voigt Hill
#
# Bulk Modulus (GPa) = 33.76739 55.28677 44.52708
# Shear Modulus (GPa) = 19.06665 22.91810 20.99237
#
# Velocity S-wave (km/s) = 3.23845 3.55049 3.39805
# Velocity P-wave (km/s) = 5.70587 6.87156 6.31567
#
# Compressibility (1/GPa) = 0.02961437
#
# Stress axis : x y z
#
# Youngs Moduli (GPa) = 103.42232 77.33380 25.07916
#
# Poissons Ratio (x) = 0.25843 0.13126
# Poissons Ratio (y) = 0.34561 0.19698
# Poissons Ratio (z) = 0.54128 0.60740
#
# Static dielectric constant tensor:
#      x y z
#    x 3.737800 0.000000 0.000000 
#    y 0.000000 3.285550 0.000000 
#    z 0.000000 0.000000 2.949720 
# 
# 
# High freq. dielectric constant tensor:
#      x y z
#    x 1.713930 0.000000 0.000000 
#    y 0.000000 1.693200 0.000000 
#    z 0.000000 0.000000 1.663740 
# 
# From -- ./inp_files/16784.got.cif
#   From: 2010.03.12/outbox.cif.g09.slc.cpg/sg65_9_cif.got.tgz:16784.got - 2010.04.10 20:52:16.
