data_PCOD8266298
_publ_section_title
;
Structure prediction by ZEFSAII (Michael W. Deem and Ramdas Pophale) SiO2 
 PCOD8266298
Probable space group: C M M M
;
_chemical_formula_sum "Si O2"
_cell_formula_units_Z 104
_cell_length_a 29.418130
_cell_length_b 22.520036
_cell_length_c 9.227818
_cell_angle_alpha 90.000000
_cell_angle_beta 90.000000
_cell_angle_gamma 90.000000
_cell_volume 6113.404940
_symmetry_space_group_name_H-M "C M M M"
_symmetry_group_IT_number 65
_symmetry_cell_setting 'orthorhombic'
loop_
_space_group_symop_operation_xyz
x,y,z
-x,-y,z
x,-y,-z
-x,y,-z
-x,-y,-z
x,y,-z
-x,y,z
x,-y,z
1/2+x,1/2+y,z
1/2-x,1/2-y,z
1/2+x,1/2-y,-z
1/2-x,1/2+y,-z
1/2-x,1/2-y,-z
1/2+x,1/2+y,-z
1/2-x,1/2+y,z
1/2+x,1/2-y,z
loop_
_atom_site_type_symbol
_atom_site_label
_atom_site_fract_x
_atom_site_fract_y
_atom_site_fract_z
Si Si1 0.447489 0.778512 0.170292
Si Si2 0.949093 0.500000 0.672076
Si Si3 0.216079 0.929397 0.160657
Si Si4 0.198311 0.567261 0.331311
Si Si5 0.115092 0.069410 0.831139
Si Si6 0.602230 0.116841 0.670648
Si Si7 0.947190 0.841414 0.667520
O O1 0.500000 0.793942 0.203928
O O2 0.415614 0.828070 0.238980
O O3 0.433434 0.716753 0.242968
O O4 0.438263 0.774077 0.000000
O O5 0.948675 0.500000 0.500000
O O6 0.923757 0.441460 0.727945
O O7 0.000000 0.500000 0.734851
O O8 0.256559 0.904307 0.260303
O O9 0.166030 0.909230 0.213268
O O10 0.216829 0.000000 0.161131
O O11 0.225027 0.904822 0.000000
O O12 0.207537 0.565752 0.500000
O O13 0.188889 0.500000 0.275586
O O14 0.155424 0.608557 0.294203
O O15 0.079840 0.102991 0.729959
O O16 0.108758 0.000000 0.800600
O O17 0.106047 0.083429 0.000000
O O18 0.593607 0.127214 0.500000
O O19 0.934619 0.831140 0.500000
O O20 0.000000 0.856063 0.687279
#
# Coordination Sequence:
#
# PCOD8266298 Si02
#       7
#    16   8  16  16  16  16  16
#     4  10  21  36  52  70  94 128 170 210 249 296
#     4   9  16  26  43  67  95 129 165 203 250 299
#     4   8  15  28  46  69  98 132 166 197 234 287
#     4   9  16  27  44  69 100 130 164 206 249 293
#     4   9  18  33  53  78 107 136 164 195 237 290
#     4  10  18  30  48  71  98 129 168 210 251 297
#     4  10  21  36  54  76 101 130 165 203 242 289
#
# _framework density 17.011797000000001
#
# number of rings (size 3 to 8) (size 9 to 14) (size 15 to 20)
#    0.000    2.692    0.769    2.308    0.000    4.308 
#    0.000    3.462    0.000    2.308    0.000    6.462 
#    0.000    0.000    0.000    0.000    0.000    0.000 
#
# Total GULP energy -644700.365257 kJ/mol
# GULP energy per Si atom -12398.083947 kJ/mol
# Density = 1.697308 g / cm^3
# Si number density = 17.011797 Si / 1000 Ang^3
#
#
#
# Elastic Constant Matrix: (Units=GPa)
#
#
# Indices 1 2 3 4 5 6 
#
# 1 111.3325 58.7850 62.0354 0.0000 0.0000 0.0000
# 2 58.7850 78.2324 51.1248 0.0000 0.0000 0.0000
# 3 62.0354 51.1248 81.7914 0.0000 0.0000 0.0000
# 4 0.0000 0.0000 0.0000 27.8089 0.0000 0.0000
# 5 0.0000 0.0000 0.0000 0.0000 32.8480 0.0000
# 6 0.0000 0.0000 0.0000 0.0000 0.0000 12.4159
#
#
#
# Elastic Compliance Matrix: (Units=1/GPa)
#
#
# Indices 1 2 3 4 5 6 
#
# 1 0.017976 -0.007772 -0.008776 0.000000 0.000000 0.000000
# 2 -0.007772 0.024970 -0.009713 0.000000 0.000000 0.000000
# 3 -0.008776 -0.009713 0.024953 0.000000 0.000000 0.000000
# 4 0.000000 0.000000 0.000000 0.035960 0.000000 0.000000
# 5 0.000000 0.000000 0.000000 0.000000 0.030443 0.000000
# 6 0.000000 0.000000 0.000000 0.000000 0.000000 0.080542
#
#
# Mechanical properties :
#
#
# Convention : Reuss Voigt Hill
#
# Bulk Modulus (GPa) = 65.03041 68.36074 66.69558
# Shear Modulus (GPa) = 18.34914 21.24197 19.79555
#
# Velocity S-wave (km/s) = 3.28779 3.53747 3.41491
# Velocity P-wave (km/s) = 7.26102 7.54695 7.40537
#
# Compressibility (1/GPa) = 0.01537742
#
# Stress axis : x y z
#
# Youngs Moduli (GPa) = 55.62972 40.04793 40.07470
#
# Poissons Ratio (x) = 0.31127 0.35169
# Poissons Ratio (y) = 0.43238 0.38924
# Poissons Ratio (z) = 0.48819 0.38898
#
# Static dielectric constant tensor:
#      x y z
#    x 3.357190 0.000000 0.000000 
#    y 0.000000 2.939700 0.000000 
#    z 0.000000 0.000000 3.155220 
# 
# 
# High freq. dielectric constant tensor:
#      x y z
#    x 1.663110 0.000000 0.000000 
#    y 0.000000 1.628360 0.000000 
#    z 0.000000 0.000000 1.649850 
# 
# From -- ./inp_files/18615.got.cif
#   From: 2010.03.12/outbox.cif.g09.slc.cpg/sg65_10_cif.got.tgz:18615.got - 2010.04.10 20:52:16.
