data_PCOD8266408
_publ_section_title
;
Structure prediction by ZEFSAII (Michael W. Deem and Ramdas Pophale) SiO2 
 PCOD8266408
Probable space group: C M M M
;
_chemical_formula_sum "Si O2"
_cell_formula_units_Z 80
_cell_length_a 19.086274
_cell_length_b 9.887597
_cell_length_c 23.377193
_cell_angle_alpha 90.000000
_cell_angle_beta 90.000000
_cell_angle_gamma 90.000000
_cell_volume 4411.682744
_symmetry_space_group_name_H-M "C M M M"
_symmetry_group_IT_number 65
_symmetry_cell_setting 'orthorhombic'
loop_
_space_group_symop_operation_xyz
x,y,z
-x,-y,z
x,-y,-z
-x,y,-z
-x,-y,-z
x,y,-z
-x,y,z
x,-y,z
1/2+x,1/2+y,z
1/2-x,1/2-y,z
1/2+x,1/2-y,-z
1/2-x,1/2+y,-z
1/2-x,1/2-y,-z
1/2+x,1/2+y,-z
1/2-x,1/2+y,z
1/2+x,1/2-y,z
loop_
_atom_site_type_symbol
_atom_site_label
_atom_site_fract_x
_atom_site_fract_y
_atom_site_fract_z
Si Si1 0.667104 0.750379 0.862636
Si Si2 0.417496 0.153084 0.369398
Si Si3 0.314690 0.656874 0.567744
Si Si4 0.333869 0.500000 0.935988
Si Si5 0.919671 0.343791 0.761615
Si Si6 0.332284 0.000000 0.063589
O O1 0.750000 0.750000 0.851464
O O2 0.640072 0.625651 0.899424
O O3 0.629458 0.751533 0.801262
O O4 0.640993 0.873095 0.901194
O O5 0.500000 0.163847 0.378571
O O6 0.383293 0.270158 0.407541
O O7 0.397549 0.181809 0.303713
O O8 0.392978 0.000000 0.386603
O O9 0.320711 0.657767 0.500000
O O10 0.307881 0.500000 0.589253
O O11 0.250000 0.750000 0.588629
O O12 0.250838 0.500000 0.941820
O O13 0.366627 0.500000 0.000000
O O14 0.908013 0.500000 0.777463
O O15 0.000000 0.301841 0.771400
O O16 0.365308 0.000000 0.000000
#
# Coordination Sequence:
#
# PCOD8266408 Si02
#       6
#    16  16  16   8  16   8
#     4  10  18  30  50  76 101 130 171 214 259 312
#     4   9  19  36  57  80 107 144 186 225 271 324
#     4  10  21  37  57  83 115 148 181 221 270 318
#     4   9  18  30  45  71 105 133 162 211 268 313
#     4   9  18  35  56  75 101 137 175 217 261 306
#     4   9  16  28  49  73  97 129 170 213 254 305
#
# _framework density 18.133669999999999
#
# number of rings (size 3 to 8) (size 9 to 14) (size 15 to 20)
#    0.000    2.600    1.000    2.400    0.000    5.200 
#    1.800    2.500    0.000    3.600    0.000    0.000 
#    0.000    0.000    0.000    0.000    0.000    0.000 
#
# Total GULP energy -495836.354383 kJ/mol
# GULP energy per Si atom -12395.908860 kJ/mol
# Density = 1.809240 g / cm^3
# Si number density = 18.133670 Si / 1000 Ang^3
#
#
#
# Elastic Constant Matrix: (Units=GPa)
#
#
# Indices 1 2 3 4 5 6 
#
# 1 47.4123 38.9467 29.0154 0.0000 0.0000 0.0000
# 2 38.9467 146.1804 43.5334 0.0000 0.0000 0.0000
# 3 29.0154 43.5334 46.7406 0.0000 0.0000 0.0000
# 4 0.0000 0.0000 0.0000 15.4012 0.0000 0.0000
# 5 0.0000 0.0000 0.0000 0.0000 17.2388 0.0000
# 6 0.0000 0.0000 0.0000 0.0000 0.0000 29.8734
#
#
#
# Elastic Compliance Matrix: (Units=1/GPa)
#
#
# Indices 1 2 3 4 5 6 
#
# 1 0.035645 -0.004023 -0.018380 0.000000 0.000000 0.000000
# 2 -0.004023 0.009921 -0.006743 0.000000 0.000000 0.000000
# 3 -0.018380 -0.006743 0.039085 0.000000 0.000000 0.000000
# 4 0.000000 0.000000 0.000000 0.064930 0.000000 0.000000
# 5 0.000000 0.000000 0.000000 0.000000 0.058009 0.000000
# 6 0.000000 0.000000 0.000000 0.000000 0.000000 0.033475
#
#
# Mechanical properties :
#
#
# Convention : Reuss Voigt Hill
#
# Bulk Modulus (GPa) = 37.93897 51.48047 44.70972
# Shear Modulus (GPa) = 16.22633 21.09187 18.65910
#
# Velocity S-wave (km/s) = 2.99460 3.41417 3.21124
# Velocity P-wave (km/s) = 5.73795 6.63274 6.20150
#
# Compressibility (1/GPa) = 0.02635812
#
# Stress axis : x y z
#
# Youngs Moduli (GPa) = 28.05467 100.79950 25.58549
#
# Poissons Ratio (x) = 0.40551 0.47027
# Poissons Ratio (y) = 0.11286 0.17251
# Poissons Ratio (z) = 0.51566 0.67965
#
# Static dielectric constant tensor:
#      x y z
#    x 3.017400 0.000000 0.000000 
#    y 0.000000 3.448270 0.000000 
#    z 0.000000 0.000000 3.352180 
# 
# 
# High freq. dielectric constant tensor:
#      x y z
#    x 1.673650 0.000000 0.000000 
#    y 0.000000 1.704860 0.000000 
#    z 0.000000 0.000000 1.707250 
# 
# From -- ./inp_files/67317.got.cif
#   From: 2010.03.12/outbox.cif.g09.slc.cpg/sg65_34_cif.got.tgz:67317.got - 2010.04.10 20:52:16.
