data_PCOD8266691
_publ_section_title
;
Structure prediction by ZEFSAII (Michael W. Deem and Ramdas Pophale) SiO2 
 PCOD8266691
Probable space group: C M M M
;
_chemical_formula_sum "Si O2"
_cell_formula_units_Z 96
_cell_length_a 23.422645
_cell_length_b 14.151181
_cell_length_c 15.499889
_cell_angle_alpha 90.000000
_cell_angle_beta 90.000000
_cell_angle_gamma 90.000000
_cell_volume 5137.563586
_symmetry_space_group_name_H-M "C M M M"
_symmetry_group_IT_number 65
_symmetry_cell_setting 'orthorhombic'
loop_
_space_group_symop_operation_xyz
x,y,z
-x,-y,z
x,-y,-z
-x,y,-z
-x,-y,-z
x,y,-z
-x,y,z
x,-y,z
1/2+x,1/2+y,z
1/2-x,1/2-y,z
1/2+x,1/2-y,-z
1/2-x,1/2+y,-z
1/2-x,1/2-y,-z
1/2+x,1/2+y,-z
1/2-x,1/2+y,z
1/2+x,1/2-y,z
loop_
_atom_site_type_symbol
_atom_site_label
_atom_site_fract_x
_atom_site_fract_y
_atom_site_fract_z
Si Si1 0.184930 0.224431 0.905679
Si Si2 0.809790 0.604958 0.673691
Si Si3 0.500000 0.890849 0.224645
Si Si4 0.623925 0.726447 0.403800
Si Si5 0.000000 0.303895 0.595872
Si Si6 0.382234 0.106099 0.154865
Si Si7 0.315084 0.388936 0.735650
O O1 0.250000 0.250000 0.891567
O O2 0.148254 0.321030 0.908735
O O3 0.167294 0.156127 0.827557
O O4 0.176180 0.175709 0.000000
O O5 0.806022 0.500000 0.631105
O O6 0.839383 0.677436 0.608231
O O7 0.847626 0.599724 0.757730
O O8 0.747538 0.641521 0.702817
O O9 0.500000 0.880199 0.328137
O O10 0.556012 0.849156 0.178372
O O11 0.500000 0.000000 0.205874
O O12 0.637715 0.689686 0.500000
O O13 0.556342 0.740773 0.393374
O O14 0.640361 0.646603 0.335382
O O15 0.000000 0.352012 0.500000
O O16 0.385551 0.000000 0.113813
O O17 0.319971 0.500000 0.747194
#
# Coordination Sequence:
#
# PCOD8266691 Si02
#       7
#    16  16   8  16   8  16  16
#     4  11  21  35  57  83 112 146 182 222 276 331
#     4  10  19  33  55  80 114 148 175 215 270 327
#     4  10  18  31  55  79 108 152 186 212 261 328
#     4  11  22  37  57  80 110 146 187 231 275 325
#     4  10  20  33  51  77 108 140 182 234 279 320
#     4  10  19  34  55  82 114 146 180 217 263 325
#     4  11  22  38  57  79 110 145 186 234 277 321
#
# _framework density 18.6859
#
# number of rings (size 3 to 8) (size 9 to 14) (size 15 to 20)
#    0.000    1.500    5.000    0.500    0.000    2.833 
#    0.000    5.833    0.000    3.000    0.000    0.000 
#    0.000    4.000    0.000    0.000    0.000    0.000 
#
# Total GULP energy -594952.486617 kJ/mol
# GULP energy per Si atom -12394.843471 kJ/mol
# Density = 1.864337 g / cm^3
# Si number density = 18.685900 Si / 1000 Ang^3
#
#
#
# Elastic Constant Matrix: (Units=GPa)
#
#
# Indices 1 2 3 4 5 6 
#
# 1 109.0119 36.0614 39.5727 0.0000 0.0000 0.0000
# 2 36.0614 83.7500 45.7700 0.0000 0.0000 0.0000
# 3 39.5727 45.7700 122.1811 0.0000 0.0000 0.0000
# 4 0.0000 0.0000 0.0000 13.9661 0.0000 0.0000
# 5 0.0000 0.0000 0.0000 0.0000 2.8246 0.0000
# 6 0.0000 0.0000 0.0000 0.0000 0.0000 23.4377
#
#
#
# Elastic Compliance Matrix: (Units=1/GPa)
#
#
# Indices 1 2 3 4 5 6 
#
# 1 0.011183 -0.003566 -0.002286 0.000000 0.000000 0.000000
# 2 -0.003566 0.016151 -0.004895 0.000000 0.000000 0.000000
# 3 -0.002286 -0.004895 0.010759 0.000000 0.000000 0.000000
# 4 0.000000 0.000000 0.000000 0.071602 0.000000 0.000000
# 5 0.000000 0.000000 0.000000 0.000000 0.354032 0.000000
# 6 0.000000 0.000000 0.000000 0.000000 0.000000 0.042666
#
#
# Mechanical properties :
#
#
# Convention : Reuss Voigt Hill
#
# Bulk Modulus (GPa) = 60.24801 61.97234 61.11018
# Shear Modulus (GPa) = 9.37347 20.94826 15.16086
#
# Velocity S-wave (km/s) = 2.24215 3.35188 2.85152
# Velocity P-wave (km/s) = 6.24624 6.94387 6.60427
#
# Compressibility (1/GPa) = 0.01659806
#
# Stress axis : x y z
#
# Youngs Moduli (GPa) = 89.42333 61.91561 92.94627
#
# Poissons Ratio (x) = 0.22077 0.21249
# Poissons Ratio (y) = 0.31886 0.45501
# Poissons Ratio (z) = 0.20444 0.30310
#
# Static dielectric constant tensor:
#      x y z
#    x 4.091940 0.000000 0.000000 
#    y 0.000000 3.938470 0.000000 
#    z 0.000000 0.000000 3.413830 
# 
# 
# High freq. dielectric constant tensor:
#      x y z
#    x 1.730310 0.000000 0.000000 
#    y 0.000000 1.702870 0.000000 
#    z 0.000000 0.000000 1.722050 
# 
# From -- ./inp_files/40414.got.cif
#   From: 2010.03.12/outbox.cif.g09.slc.cpg/sg65_21_cif.got.tgz:40414.got - 2010.04.10 20:52:16.
