data_PCOD8266380
_publ_section_title
;
Structure prediction by ZEFSAII (Michael W. Deem and Ramdas Pophale) SiO2 
 PCOD8266380
Probable space group: C M M M
;
_chemical_formula_sum "Si O2"
_cell_formula_units_Z 104
_cell_length_a 28.969322
_cell_length_b 9.059490
_cell_length_c 23.641371
_cell_angle_alpha 90.000000
_cell_angle_beta 90.000000
_cell_angle_gamma 90.000000
_cell_volume 6204.613585
_symmetry_space_group_name_H-M "C M M M"
_symmetry_group_IT_number 65
_symmetry_cell_setting 'orthorhombic'
loop_
_space_group_symop_operation_xyz
x,y,z
-x,-y,z
x,-y,-z
-x,y,-z
-x,-y,-z
x,y,-z
-x,y,z
x,-y,z
1/2+x,1/2+y,z
1/2-x,1/2-y,z
1/2+x,1/2-y,-z
1/2-x,1/2+y,-z
1/2-x,1/2-y,-z
1/2+x,1/2+y,-z
1/2-x,1/2+y,z
1/2+x,1/2-y,z
loop_
_atom_site_type_symbol
_atom_site_label
_atom_site_fract_x
_atom_site_fract_y
_atom_site_fract_z
Si Si1 0.299580 0.823813 0.666556
Si Si2 0.551708 0.327423 0.603089
Si Si3 0.861600 0.329933 0.562668
Si Si4 0.702040 0.670927 0.000000
Si Si5 0.647049 0.675005 0.768679
Si Si6 0.298965 0.672833 0.878081
Si Si7 0.950263 0.825386 0.269574
O O1 0.250000 0.750000 0.664631
O O2 0.326273 0.770574 0.610034
O O3 0.326267 0.764715 0.721041
O O4 0.294648 0.000000 0.670256
O O5 0.500000 0.292656 0.580853
O O6 0.561743 0.500000 0.600834
O O7 0.589087 0.249517 0.564007
O O8 0.557468 0.266262 0.666918
O O9 0.840217 0.303925 0.500000
O O10 0.871319 0.500000 0.574422
O O11 0.750000 0.750000 0.000000
O O12 0.677641 0.712010 0.939892
O O13 0.713183 0.500000 0.000000
O O14 0.652982 0.500000 0.757672
O O15 0.665936 0.724861 0.829696
O O16 0.593075 0.723256 0.768745
O O17 0.289549 0.500000 0.872685
O O18 0.250000 0.750000 0.869326
O O19 0.000000 0.765384 0.246007
O O20 0.953137 0.000000 0.272451
#
# Coordination Sequence:
#
# PCOD8266380 Si02
#       7
#    16  16  16   8  16  16  16
#     4  11  23  37  52  69  91 119 151 190 234 275
#     4   9  17  31  52  75  96 119 149 186 227 273
#     4  10  22  38  52  68  92 121 153 188 230 280
#     4   8  14  26  40  58  89 123 157 189 222 260
#     4  10  18  30  50  73  95 120 154 190 230 273
#     4   9  17  27  42  65  92 125 157 189 224 266
#     4   8  14  26  46  70  94 118 146 183 224 268
#
# _framework density 16.761721000000001
#
# number of rings (size 3 to 8) (size 9 to 14) (size 15 to 20)
#    0.000    2.615    1.538    1.846    0.000    3.692 
#    0.000    1.538    0.000    0.462    0.000    0.538 
#    0.000    4.308    0.000    0.000    0.000   29.231 
#
# Total GULP energy -644289.144396 kJ/mol
# GULP energy per Si atom -12390.175854 kJ/mol
# Density = 1.672357 g / cm^3
# Si number density = 16.761721 Si / 1000 Ang^3
#
#
#
# Elastic Constant Matrix: (Units=GPa)
#
#
# Indices 1 2 3 4 5 6 
#
# 1 123.2195 30.1228 71.1085 0.0000 0.0000 0.0000
# 2 30.1228 31.6691 31.0105 0.0000 0.0000 0.0000
# 3 71.1085 31.0105 140.7133 0.0000 0.0000 0.0000
# 4 0.0000 0.0000 0.0000 18.2359 0.0000 0.0000
# 5 0.0000 0.0000 0.0000 0.0000 20.2448 0.0000
# 6 0.0000 0.0000 0.0000 0.0000 0.0000 17.2999
#
#
#
# Elastic Compliance Matrix: (Units=1/GPa)
#
#
# Indices 1 2 3 4 5 6 
#
# 1 0.012678 -0.007378 -0.004781 0.000000 0.000000 0.000000
# 2 -0.007378 0.044559 -0.006092 0.000000 0.000000 0.000000
# 3 -0.004781 -0.006092 0.010865 0.000000 0.000000 0.000000
# 4 0.000000 0.000000 0.000000 0.054837 0.000000 0.000000
# 5 0.000000 0.000000 0.000000 0.000000 0.049395 0.000000
# 6 0.000000 0.000000 0.000000 0.000000 0.000000 0.057804
#
#
# Mechanical properties :
#
#
# Convention : Reuss Voigt Hill
#
# Bulk Modulus (GPa) = 31.64385 62.23172 46.93778
# Shear Modulus (GPa) = 18.03928 22.04679 20.04304
#
# Velocity S-wave (km/s) = 3.28414 3.63065 3.46173
# Velocity P-wave (km/s) = 5.77065 7.40158 6.63640
#
# Compressibility (1/GPa) = 0.03160172
#
# Stress axis : x y z
#
# Youngs Moduli (GPa) = 78.87554 22.44220 92.03735
#
# Poissons Ratio (x) = 0.16557 0.44003
# Poissons Ratio (y) = 0.58192 0.56066
# Poissons Ratio (z) = 0.37710 0.13671
#
# Static dielectric constant tensor:
#      x y z
#    x 3.366870 0.000000 0.000000 
#    y 0.000000 3.439170 0.000000 
#    z 0.000000 0.000000 3.504000 
# 
# 
# High freq. dielectric constant tensor:
#      x y z
#    x 1.635840 0.000000 0.000000 
#    y 0.000000 1.629850 0.000000 
#    z 0.000000 0.000000 1.642070 
# 
# From -- ./inp_files/72135.got.cif
#   From: 2010.03.12/outbox.cif.g09.slc.cpg/sg65_37_cif.got.tgz:72135.got - 2010.04.10 20:52:16.
