data_PCOD8266478
_publ_section_title
;
Structure prediction by ZEFSAII (Michael W. Deem and Ramdas Pophale) SiO2 
 PCOD8266478
Probable space group: C M M M
;
_chemical_formula_sum "Si O2"
_cell_formula_units_Z 120
_cell_length_a 15.710566
_cell_length_b 19.828703
_cell_length_c 19.513087
_cell_angle_alpha 90.000000
_cell_angle_beta 90.000000
_cell_angle_gamma 90.000000
_cell_volume 6078.719734
_symmetry_space_group_name_H-M "C M M M"
_symmetry_group_IT_number 65
_symmetry_cell_setting 'orthorhombic'
loop_
_space_group_symop_operation_xyz
x,y,z
-x,-y,z
x,-y,-z
-x,y,-z
-x,-y,-z
x,y,-z
-x,y,z
x,-y,z
1/2+x,1/2+y,z
1/2-x,1/2-y,z
1/2+x,1/2-y,-z
1/2-x,1/2+y,-z
1/2-x,1/2-y,-z
1/2+x,1/2+y,-z
1/2-x,1/2+y,z
1/2+x,1/2-y,z
loop_
_atom_site_type_symbol
_atom_site_label
_atom_site_fract_x
_atom_site_fract_y
_atom_site_fract_z
Si Si1 0.094200 0.419972 0.422641
Si Si2 0.750000 0.750000 0.119891
Si Si3 0.594215 0.782279 0.217610
Si Si4 0.245411 0.105323 0.923774
Si Si5 0.095568 0.839866 0.300248
Si Si6 0.254180 0.576295 0.335671
Si Si7 0.652104 0.073982 0.205822
Si Si8 0.093813 0.926040 0.167651
O O1 0.112382 0.395201 0.500000
O O2 0.092839 0.500000 0.419414
O O3 0.170591 0.393942 0.374138
O O4 0.000000 0.393419 0.399066
O O5 0.666489 0.759946 0.165621
O O6 0.760166 0.814090 0.071713
O O7 0.500000 0.762749 0.189639
O O8 0.609195 0.740971 0.289368
O O9 0.593437 0.863426 0.228932
O O10 0.320433 0.080829 0.873264
O O11 0.156265 0.078197 0.896642
O O12 0.263353 0.077014 0.000000
O O13 0.165504 0.874021 0.350628
O O14 0.110646 0.870262 0.224911
O O15 0.000000 0.855495 0.328043
O O16 0.275539 0.500000 0.360766
O O17 0.235834 0.576406 0.254028
O O18 0.607080 0.000000 0.215764
O O19 0.000000 0.916302 0.136542
O O20 0.102856 0.000000 0.202499
#
# Coordination Sequence:
#
# PCOD8266478 Si02
#       8
#    16   8  16  16  16  16  16  16
#     4   8  15  29  50  79 116 153 186 224 272 320
#     4  10  19  36  54  74  98 128 179 226 267 334
#     4  10  20  35  56  76 100 136 175 223 278 325
#     4  11  21  33  51  72 100 138 176 221 277 332
#     4  10  18  31  51  74 102 138 181 225 267 315
#     4  10  18  30  51  78 109 145 183 222 267 316
#     4  10  21  35  51  76 105 132 173 224 272 327
#     4  10  19  31  48  70  98 130 168 220 275 321
#
# _framework density 19.740998999999999
#
# number of rings (size 3 to 8) (size 9 to 14) (size 15 to 20)
#    0.000    2.133    2.667    2.200    0.000    2.933 
#    0.000    2.000    0.000   10.000    0.000    7.467 
#    0.000    1.067    0.000    0.000    0.000    0.000 
#
# Total GULP energy -743360.643087 kJ/mol
# GULP energy per Si atom -12389.344051 kJ/mol
# Density = 1.969607 g / cm^3
# Si number density = 19.740999 Si / 1000 Ang^3
#
#
#
# Elastic Constant Matrix: (Units=GPa)
#
#
# Indices 1 2 3 4 5 6 
#
# 1 138.2950 42.8656 37.5027 0.0000 0.0000 0.0000
# 2 42.8656 108.8411 17.8132 0.0000 0.0000 0.0000
# 3 37.5027 17.8132 53.5757 0.0000 0.0000 0.0000
# 4 0.0000 0.0000 0.0000 10.6202 0.0000 0.0000
# 5 0.0000 0.0000 0.0000 0.0000 20.6459 0.0000
# 6 0.0000 0.0000 0.0000 0.0000 0.0000 25.9697
#
#
#
# Elastic Compliance Matrix: (Units=1/GPa)
#
#
# Indices 1 2 3 4 5 6 
#
# 1 0.009703 -0.002866 -0.005839 0.000000 0.000000 0.000000
# 2 -0.002866 0.010563 -0.001506 0.000000 0.000000 0.000000
# 3 -0.005839 -0.001506 0.023253 0.000000 0.000000 0.000000
# 4 0.000000 0.000000 0.000000 0.094160 0.000000 0.000000
# 5 0.000000 0.000000 0.000000 0.000000 0.048436 0.000000
# 6 0.000000 0.000000 0.000000 0.000000 0.000000 0.038506
#
#
# Mechanical properties :
#
#
# Convention : Reuss Voigt Hill
#
# Bulk Modulus (GPa) = 43.29523 55.23051 49.26287
# Shear Modulus (GPa) = 19.78311 24.94920 22.36615
#
# Velocity S-wave (km/s) = 3.16908 3.55889 3.36963
# Velocity P-wave (km/s) = 5.94727 6.70268 6.33624
#
# Compressibility (1/GPa) = 0.02309723
#
# Stress axis : x y z
#
# Youngs Moduli (GPa) = 103.06596 94.67212 43.00493
#
# Poissons Ratio (x) = 0.27129 0.25110
# Poissons Ratio (y) = 0.29535 0.06477
# Poissons Ratio (z) = 0.60180 0.14258
#
# Static dielectric constant tensor:
#      x y z
#    x 3.710400 0.000000 0.000000 
#    y 0.000000 3.931220 0.000000 
#    z 0.000000 0.000000 3.145890 
# 
# 
# High freq. dielectric constant tensor:
#      x y z
#    x 1.770760 0.000000 0.000000 
#    y 0.000000 1.775110 0.000000 
#    z 0.000000 0.000000 1.710650 
# 
# From -- ./inp_files/63020.got.cif
#   From: 2010.03.12/outbox.cif.g09.slc.cpg/sg65_32_cif.got.tgz:63020.got - 2010.04.10 20:52:16.
