data_PCOD8266927
_publ_section_title
;
Structure prediction by ZEFSAII (Michael W. Deem and Ramdas Pophale) SiO2 
 PCOD8266927
Probable space group: C M M M
;
_chemical_formula_sum "Si O2"
_cell_formula_units_Z 88
_cell_length_a 18.102154
_cell_length_b 29.074699
_cell_length_c 9.146967
_cell_angle_alpha 90.000000
_cell_angle_beta 90.000000
_cell_angle_gamma 90.000000
_cell_volume 4814.182999
_symmetry_space_group_name_H-M "C M M M"
_symmetry_group_IT_number 65
_symmetry_cell_setting 'orthorhombic'
loop_
_space_group_symop_operation_xyz
x,y,z
-x,-y,z
x,-y,-z
-x,y,-z
-x,-y,-z
x,y,-z
-x,y,z
x,-y,z
1/2+x,1/2+y,z
1/2-x,1/2-y,z
1/2+x,1/2-y,-z
1/2-x,1/2+y,-z
1/2-x,1/2-y,-z
1/2+x,1/2+y,-z
1/2-x,1/2+y,z
1/2+x,1/2-y,z
loop_
_atom_site_type_symbol
_atom_site_label
_atom_site_fract_x
_atom_site_fract_y
_atom_site_fract_z
Si Si1 0.348824 0.705835 0.672891
Si Si2 0.149734 0.404391 0.673900
Si Si3 0.209630 0.946976 0.171497
Si Si4 0.916714 0.122815 0.830043
Si Si5 0.500000 0.948756 0.673877
Si Si6 0.683059 0.804391 0.327609
O O1 0.357592 0.699230 0.500000
O O2 0.405294 0.671359 0.749429
O O3 0.363388 0.759168 0.721871
O O4 0.266712 0.694600 0.731325
O O5 0.157941 0.409152 0.500000
O O6 0.217653 0.431082 0.744325
O O7 0.144886 0.351256 0.724453
O O8 0.073610 0.424972 0.734342
O O9 0.139925 0.916479 0.225312
O O10 0.192523 0.000000 0.210151
O O11 0.223553 0.940611 0.000000
O O12 0.000000 0.105635 0.797502
O O13 0.904572 0.132040 0.000000
O O14 0.500000 0.947130 0.500000
O O15 0.500000 0.000000 0.735005
O O16 0.689623 0.801573 0.500000
#
# Coordination Sequence:
#
# PCOD8266927 Si02
#       6
#    16  16  16  16   8  16
#     4   9  16  31  52  76 102 129 166 208 253 303
#     4  10  18  33  55  77 103 134 170 209 252 305
#     4  10  21  36  54  76 100 130 172 217 261 311
#     4  10  21  36  52  73 104 138 173 215 261 308
#     4   9  18  30  47  75 105 131 163 205 250 295
#     4   8  15  28  51  78 102 128 161 205 250 295
#
# _framework density 18.279322000000001
#
# number of rings (size 3 to 8) (size 9 to 14) (size 15 to 20)
#    0.000    2.636    1.818    1.636    0.000    1.818 
#    1.636    5.000    0.000    1.636    0.000    2.545 
#    0.000    0.000    0.000    0.000    0.000    0.000 
#
# Total GULP energy -545362.168875 kJ/mol
# GULP energy per Si atom -12394.594747 kJ/mol
# Density = 1.823772 g / cm^3
# Si number density = 18.279322 Si / 1000 Ang^3
#
#
#
# Elastic Constant Matrix: (Units=GPa)
#
#
# Indices 1 2 3 4 5 6 
#
# 1 136.0659 80.7069 29.9993 0.0000 0.0000 0.0000
# 2 80.7069 166.1452 31.4357 0.0000 0.0000 0.0000
# 3 29.9993 31.4357 26.3721 0.0000 0.0000 0.0000
# 4 0.0000 0.0000 0.0000 23.4514 0.0000 0.0000
# 5 0.0000 0.0000 0.0000 0.0000 22.1954 0.0000
# 6 0.0000 0.0000 0.0000 0.0000 0.0000 26.8924
#
#
#
# Elastic Compliance Matrix: (Units=1/GPa)
#
#
# Indices 1 2 3 4 5 6 
#
# 1 0.011596 -0.004051 -0.008362 0.000000 0.000000 0.000000
# 2 -0.004051 0.009186 -0.006343 0.000000 0.000000 0.000000
# 3 -0.008362 -0.006343 0.054992 0.000000 0.000000 0.000000
# 4 0.000000 0.000000 0.000000 0.042641 0.000000 0.000000
# 5 0.000000 0.000000 0.000000 0.000000 0.045054 0.000000
# 6 0.000000 0.000000 0.000000 0.000000 0.000000 0.037185
#
#
# Mechanical properties :
#
#
# Convention : Reuss Voigt Hill
#
# Bulk Modulus (GPa) = 26.13495 68.09635 47.11565
# Shear Modulus (GPa) = 19.92665 26.93725 23.43195
#
# Velocity S-wave (km/s) = 3.30528 3.84297 3.58422
# Velocity P-wave (km/s) = 5.37541 7.55151 6.55440
#
# Compressibility (1/GPa) = 0.03826294
#
# Stress axis : x y z
#
# Youngs Moduli (GPa) = 86.23968 108.85543 18.18454
#
# Poissons Ratio (x) = 0.44092 0.15206
# Poissons Ratio (y) = 0.34931 0.11534
# Poissons Ratio (z) = 0.72115 0.69044
#
# Static dielectric constant tensor:
#      x y z
#    x 3.354730 0.000000 0.000000 
#    y 0.000000 3.865890 0.000000 
#    z 0.000000 0.000000 3.000570 
# 
# 
# High freq. dielectric constant tensor:
#      x y z
#    x 1.700490 0.000000 0.000000 
#    y 0.000000 1.727120 0.000000 
#    z 0.000000 0.000000 1.668680 
# 
# From -- ./inp_files/10125.got.cif
#   From: 2010.03.12/outbox.cif.g09.slc.cpg/sg65_6_cif.got.tgz:10125.got - 2010.04.10 20:52:16.
