data_PCOD8266075
_publ_section_title
;
Structure prediction by ZEFSAII (Michael W. Deem and Ramdas Pophale) SiO2 
 PCOD8266075
Probable space group: C M M M
;
_chemical_formula_sum "Si O2"
_cell_formula_units_Z 104
_cell_length_a 28.117937
_cell_length_b 23.984661
_cell_length_c 9.210409
_cell_angle_alpha 90.000000
_cell_angle_beta 90.000000
_cell_angle_gamma 90.000000
_cell_volume 6211.492341
_symmetry_space_group_name_H-M "C M M M"
_symmetry_group_IT_number 65
_symmetry_cell_setting 'orthorhombic'
loop_
_space_group_symop_operation_xyz
x,y,z
-x,-y,z
x,-y,-z
-x,y,-z
-x,-y,-z
x,y,-z
-x,y,z
x,-y,z
1/2+x,1/2+y,z
1/2-x,1/2-y,z
1/2+x,1/2-y,-z
1/2-x,1/2+y,-z
1/2-x,1/2-y,-z
1/2+x,1/2+y,-z
1/2-x,1/2+y,z
1/2+x,1/2-y,z
loop_
_atom_site_type_symbol
_atom_site_label
_atom_site_fract_x
_atom_site_fract_y
_atom_site_fract_z
Si Si1 0.724581 0.066286 0.163749
Si Si2 0.445719 0.152110 0.667600
Si Si3 0.500000 0.437918 0.672372
Si Si4 0.316824 0.564180 0.331022
Si Si5 0.632544 0.936308 0.331118
Si Si6 0.089841 0.867939 0.671206
Si Si7 0.055078 0.763496 0.829675
O O1 0.771781 0.088239 0.243771
O O2 0.677564 0.088430 0.244417
O O3 0.724579 0.000000 0.169488
O O4 0.724522 0.089114 0.000000
O O5 0.438858 0.169163 0.500000
O O6 0.500000 0.134828 0.699681
O O7 0.413686 0.099330 0.710207
O O8 0.429902 0.203902 0.765847
O O9 0.500000 0.500000 0.739189
O O10 0.500000 0.441521 0.500000
O O11 0.546669 0.406122 0.727798
O O12 0.304986 0.569737 0.500000
O O13 0.328005 0.500000 0.290734
O O14 0.361800 0.601070 0.286345
O O15 0.645155 0.931930 0.500000
O O16 0.621572 0.000000 0.286417
O O17 0.085967 0.856862 0.500000
O O18 0.088135 0.809459 0.754297
O O19 0.000000 0.775995 0.792753
O O20 0.064844 0.763385 0.000000
#
# Coordination Sequence:
#
# PCOD8266075 Si02
#       7
#    16  16   8  16  16  16  16
#     4   9  17  29  46  68  95 129 164 194 228 278
#     4   9  18  32  51  74  99 127 159 193 230 278
#     4   9  16  26  43  69  97 123 154 195 242 289
#     4   9  17  29  46  70  97 124 158 200 244 287
#     4   9  17  30  50  76 103 128 153 187 233 281
#     4  10  18  29  48  70  93 124 161 202 243 286
#     4  10  20  33  48  66  92 127 167 204 237 277
#
# _framework density 16.743158999999999
#
# number of rings (size 3 to 8) (size 9 to 14) (size 15 to 20)
#    0.000    2.692    0.769    1.385    0.000    5.846 
#    0.000    1.538    0.000    2.769    0.000   10.769 
#    0.000    0.000    0.000    0.000    0.000    0.000 
#
# Total GULP energy -644866.483951 kJ/mol
# GULP energy per Si atom -12401.278538 kJ/mol
# Density = 1.670505 g / cm^3
# Si number density = 16.743159 Si / 1000 Ang^3
#
#
#
# Elastic Constant Matrix: (Units=GPa)
#
#
# Indices 1 2 3 4 5 6 
#
# 1 134.0484 69.4811 58.7388 0.0000 0.0000 0.0000
# 2 69.4811 94.6678 47.6675 0.0000 0.0000 0.0000
# 3 58.7388 47.6675 69.7149 0.0000 0.0000 0.0000
# 4 0.0000 0.0000 0.0000 15.6925 0.0000 0.0000
# 5 0.0000 0.0000 0.0000 0.0000 18.7860 0.0000
# 6 0.0000 0.0000 0.0000 0.0000 0.0000 12.3828
#
#
#
# Elastic Compliance Matrix: (Units=1/GPa)
#
#
# Indices 1 2 3 4 5 6 
#
# 1 0.014142 -0.006679 -0.007349 0.000000 0.000000 0.000000
# 2 -0.006679 0.019264 -0.007544 0.000000 0.000000 0.000000
# 3 -0.007349 -0.007544 0.025694 0.000000 0.000000 0.000000
# 4 0.000000 0.000000 0.000000 0.063725 0.000000 0.000000
# 5 0.000000 0.000000 0.000000 0.000000 0.053231 0.000000
# 6 0.000000 0.000000 0.000000 0.000000 0.000000 0.080757
#
#
# Mechanical properties :
#
#
# Convention : Reuss Voigt Hill
#
# Bulk Modulus (GPa) = 62.67142 72.24509 67.45826
# Shear Modulus (GPa) = 16.37861 17.54185 16.96023
#
# Velocity S-wave (km/s) = 3.13106 3.24033 3.18616
# Velocity P-wave (km/s) = 7.11222 7.56587 7.34255
#
# Compressibility (1/GPa) = 0.01595624
#
# Stress axis : x y z
#
# Youngs Moduli (GPa) = 70.71033 51.90962 38.91962
#
# Poissons Ratio (x) = 0.34673 0.28600
# Poissons Ratio (y) = 0.47231 0.29361
# Poissons Ratio (z) = 0.51962 0.39161
#
# Static dielectric constant tensor:
#      x y z
#    x 3.170880 0.000000 0.000000 
#    y 0.000000 2.979890 0.000000 
#    z 0.000000 0.000000 3.066670 
# 
# 
# High freq. dielectric constant tensor:
#      x y z
#    x 1.643220 0.000000 0.000000 
#    y 0.000000 1.623160 0.000000 
#    z 0.000000 0.000000 1.637440 
# 
# From -- ./inp_files/14819.got.cif
#   From: 2010.03.12/outbox.cif.g09.slc.cpg/sg65_8_cif.got.tgz:14819.got - 2010.04.10 20:52:16.
