data_PCOD8266639
_publ_section_title
;
Structure prediction by ZEFSAII (Michael W. Deem and Ramdas Pophale) SiO2 
 PCOD8266639
Probable space group: C M M M
;
_chemical_formula_sum "Si O2"
_cell_formula_units_Z 48
_cell_length_a 8.617219
_cell_length_b 14.484332
_cell_length_c 19.238607
_cell_angle_alpha 90.000000
_cell_angle_beta 90.000000
_cell_angle_gamma 90.000000
_cell_volume 2401.260209
_symmetry_space_group_name_H-M "C M M M"
_symmetry_group_IT_number 65
_symmetry_cell_setting 'orthorhombic'
loop_
_space_group_symop_operation_xyz
x,y,z
-x,-y,z
x,-y,-z
-x,y,-z
-x,-y,-z
x,y,-z
-x,y,z
x,-y,z
1/2+x,1/2+y,z
1/2-x,1/2-y,z
1/2+x,1/2-y,-z
1/2-x,1/2+y,-z
1/2-x,1/2-y,-z
1/2+x,1/2+y,-z
1/2-x,1/2+y,z
1/2+x,1/2-y,z
loop_
_atom_site_type_symbol
_atom_site_label
_atom_site_fract_x
_atom_site_fract_y
_atom_site_fract_z
Si Si1 0.316843 0.147575 0.500000
Si Si2 0.181103 0.850015 0.360500
Si Si3 0.181844 0.500000 0.899730
Si Si4 0.179026 0.000000 0.751885
Si Si5 0.184601 0.853195 0.000000
O O1 0.500000 0.145653 0.500000
O O2 0.250000 0.250000 0.500000
O O3 0.255647 0.100905 0.571100
O O4 0.250000 0.750000 0.345583
O O5 0.218382 0.910235 0.293201
O O6 0.000000 0.841586 0.374723
O O7 0.209838 0.500000 0.817857
O O8 0.257118 0.592274 0.931944
O O9 0.000000 0.500000 0.915969
O O10 0.000000 0.000000 0.775760
O O11 0.250000 0.750000 0.000000
O O12 0.000000 0.849512 0.000000
#
# Coordination Sequence:
#
# PCOD8266639 Si02
#       5
#     8  16   8   8   8
#     4  10  18  31  52  77 106 140 184 237 289 339
#     4  10  20  36  56  78 107 145 190 237 287 341
#     4  11  23  40  62  91 125 156 192 237 285 340
#     4  10  23  40  57  80 115 156 191 230 285 344
#     4  11  22  41  68  94 122 155 194 235 280 336
#
# _framework density 19.989502999999999
#
# number of rings (size 3 to 8) (size 9 to 14) (size 15 to 20)
#    0.000    1.667    0.000    8.500    0.000    4.667 
#    0.000    6.667    0.000    0.000    0.000    0.000 
#    0.000    0.000    0.000    0.000    0.000    0.000 
#
# Total GULP energy -297591.372753 kJ/mol
# GULP energy per Si atom -12399.640531 kJ/mol
# Density = 1.994401 g / cm^3
# Si number density = 19.989503 Si / 1000 Ang^3
#
#
#
# Elastic Constant Matrix: (Units=GPa)
#
#
# Indices 1 2 3 4 5 6 
#
# 1 174.3882 59.5479 73.3536 0.0000 0.0000 0.0000
# 2 59.5479 129.6930 57.8348 0.0000 0.0000 0.0000
# 3 73.3536 57.8348 152.7455 0.0000 0.0000 0.0000
# 4 0.0000 0.0000 0.0000 21.1997 0.0000 0.0000
# 5 0.0000 0.0000 0.0000 0.0000 36.0155 0.0000
# 6 0.0000 0.0000 0.0000 0.0000 0.0000 28.9947
#
#
#
# Elastic Compliance Matrix: (Units=1/GPa)
#
#
# Indices 1 2 3 4 5 6 
#
# 1 0.007704 -0.002271 -0.002840 0.000000 0.000000 0.000000
# 2 -0.002271 0.009946 -0.002675 0.000000 0.000000 0.000000
# 3 -0.002840 -0.002675 0.008924 0.000000 0.000000 0.000000
# 4 0.000000 0.000000 0.000000 0.047171 0.000000 0.000000
# 5 0.000000 0.000000 0.000000 0.000000 0.027766 0.000000
# 6 0.000000 0.000000 0.000000 0.000000 0.000000 0.034489
#
#
# Mechanical properties :
#
#
# Convention : Reuss Voigt Hill
#
# Bulk Modulus (GPa) = 90.89617 93.14435 92.02026
# Shear Modulus (GPa) = 32.20820 34.98133 33.59477
#
# Velocity S-wave (km/s) = 4.01840 4.18782 4.10398
# Velocity P-wave (km/s) = 8.19150 8.37147 8.28198
#
# Compressibility (1/GPa) = 0.01100156
#
# Stress axis : x y z
#
# Youngs Moduli (GPa) = 129.79575 100.54007 112.06065
#
# Poissons Ratio (x) = 0.22832 0.31826
# Poissons Ratio (y) = 0.29476 0.29981
# Poissons Ratio (z) = 0.36863 0.26899
#
# Static dielectric constant tensor:
#      x y z
#    x 3.732570 0.000000 0.000000 
#    y 0.000000 34.657470 0.000000 
#    z 0.000000 0.000000 3.884720 
# 
# 
# High freq. dielectric constant tensor:
#      x y z
#    x 1.795580 0.000000 0.000000 
#    y 0.000000 1.776110 0.000000 
#    z 0.000000 0.000000 1.786030 
# 
# From -- ./inp_files/48496.got.cif
#   From: 2010.03.12/outbox.cif.g09.slc.cpg/sg65_25_cif.got.tgz:48496.got - 2010.04.10 20:52:16.
