data_PCOD8266929
_publ_section_title
;
Structure prediction by ZEFSAII (Michael W. Deem and Ramdas Pophale) SiO2 
 PCOD8266929
Probable space group: C M M M
;
_chemical_formula_sum "Si O2"
_cell_formula_units_Z 72
_cell_length_a 21.264585
_cell_length_b 20.008210
_cell_length_c 9.241430
_cell_angle_alpha 90.000000
_cell_angle_beta 90.000000
_cell_angle_gamma 90.000000
_cell_volume 3931.916865
_symmetry_space_group_name_H-M "C M M M"
_symmetry_group_IT_number 65
_symmetry_cell_setting 'orthorhombic'
loop_
_space_group_symop_operation_xyz
x,y,z
-x,-y,z
x,-y,-z
-x,y,-z
-x,-y,-z
x,y,-z
-x,y,z
x,-y,z
1/2+x,1/2+y,z
1/2-x,1/2-y,z
1/2+x,1/2-y,-z
1/2-x,1/2+y,-z
1/2-x,1/2-y,-z
1/2+x,1/2+y,-z
1/2-x,1/2+y,z
1/2+x,1/2-y,z
loop_
_atom_site_type_symbol
_atom_site_label
_atom_site_fract_x
_atom_site_fract_y
_atom_site_fract_z
Si Si1 0.926435 0.617465 0.666955
Si Si2 0.500000 0.575448 0.653839
Si Si3 0.380321 0.610859 0.833401
Si Si4 0.215250 0.000000 0.170553
Si Si5 0.927905 0.250931 0.835849
Si Si6 0.356978 0.000000 0.173275
O O1 0.905576 0.611732 0.500000
O O2 0.909754 0.691124 0.724457
O O3 0.889716 0.565393 0.764702
O O4 0.000000 0.602581 0.684302
O O5 0.500000 0.500000 0.608816
O O6 0.500000 0.616223 0.500000
O O7 0.438877 0.588181 0.744250
O O8 0.319767 0.568613 0.778057
O O9 0.376854 0.691374 0.813020
O O10 0.392725 0.593005 0.000000
O O11 0.285540 0.000000 0.232661
O O12 0.220208 0.000000 0.000000
O O13 0.000000 0.225467 0.807022
O O14 0.923160 0.278306 0.000000
O O15 0.362004 0.000000 0.000000
#
# Coordination Sequence:
#
# PCOD8266929 Si02
#       6
#    16   8  16   8  16   8
#     4  10  21  37  58  83 108 137 170 212 271 334
#     4  11  21  29  43  75 113 144 181 226 269 311
#     4  10  18  33  55  77 106 145 185 224 264 311
#     4   9  20  35  55  79 105 142 189 228 265 307
#     4   9  17  30  52  84 111 135 172 219 268 314
#     4  11  22  38  58  81 106 136 177 228 271 316
#
# _framework density 18.311678000000001
#
# number of rings (size 3 to 8) (size 9 to 14) (size 15 to 20)
#    0.000    2.111    2.222    1.667    0.000    4.000 
#    0.000    3.333    0.000    6.667    0.000    0.000 
#    0.000    0.000    0.000    0.000    0.000    0.000 
#
# Total GULP energy -446133.317987 kJ/mol
# GULP energy per Si atom -12392.592166 kJ/mol
# Density = 1.827000 g / cm^3
# Si number density = 18.311678 Si / 1000 Ang^3
#
#
#
# Elastic Constant Matrix: (Units=GPa)
#
#
# Indices 1 2 3 4 5 6 
#
# 1 93.3936 60.0809 50.7890 0.0000 0.0000 0.0000
# 2 60.0809 120.4547 54.7070 0.0000 0.0000 0.0000
# 3 50.7890 54.7070 92.8588 0.0000 0.0000 0.0000
# 4 0.0000 0.0000 0.0000 12.9576 0.0000 0.0000
# 5 0.0000 0.0000 0.0000 0.0000 -62.6738 0.0000
# 6 0.0000 0.0000 0.0000 0.0000 0.0000 -26.7729
#
#
#
# Elastic Compliance Matrix: (Units=1/GPa)
#
#
# Indices 1 2 3 4 5 6 
#
# 1 0.018082 -0.006181 -0.006248 0.000000 0.000000 0.000000
# 2 -0.006181 0.013448 -0.004542 0.000000 0.000000 0.000000
# 3 -0.006248 -0.004542 0.016862 0.000000 0.000000 0.000000
# 4 0.000000 0.000000 0.000000 0.077175 0.000000 0.000000
# 5 0.000000 0.000000 0.000000 0.000000 -0.015956 0.000000
# 6 0.000000 0.000000 0.000000 0.000000 0.000000 -0.037351
#
#
# Mechanical properties :
#
#
# Convention : Reuss Voigt Hill
#
# Bulk Modulus (GPa) = 69.20740 70.87343 70.04042
# Shear Modulus (GPa) = 45.03785 -5.88913 19.57436
#
# Velocity S-wave (km/s) = 4.96473 -1.79528 3.27303
# Velocity P-wave (km/s) = 8.41076 5.87287 7.25367
#
# Compressibility (1/GPa) = 0.01444932
#
# Stress axis : x y z
#
# Youngs Moduli (GPa) = 55.30502 74.36233 59.30413
#
# Poissons Ratio (x) = 0.45964 0.37054
# Poissons Ratio (y) = 0.34184 0.26935
# Poissons Ratio (z) = 0.34555 0.33774
#
# Static dielectric constant tensor:
#      x y z
#    x 4.613740 0.000000 0.000000 
#    y 0.000000 3.605980 0.000000 
#    z 0.000000 0.000000 3.394200 
# 
# 
# High freq. dielectric constant tensor:
#      x y z
#    x 1.680140 0.000000 0.000000 
#    y 0.000000 1.718250 0.000000 
#    z 0.000000 0.000000 1.709910 
# 
# From -- ./inp_files/9326.got.cif
#   From: 2010.03.12/outbox.cif.g09.slc.cpg/sg65_5_cif.got.tgz:9326.got - 2010.04.10 20:52:16.
