data_PCOD8266969
_publ_section_title
;
Structure prediction by ZEFSAII (Michael W. Deem and Ramdas Pophale) SiO2 
 PCOD8266969
Probable space group: C M M M
;
_chemical_formula_sum "Si O2"
_cell_formula_units_Z 64
_cell_length_a 30.072727
_cell_length_b 12.935491
_cell_length_c 8.995723
_cell_angle_alpha 90.000000
_cell_angle_beta 90.000000
_cell_angle_gamma 90.000000
_cell_volume 3499.385629
_symmetry_space_group_name_H-M "C M M M"
_symmetry_group_IT_number 65
_symmetry_cell_setting 'orthorhombic'
loop_
_space_group_symop_operation_xyz
x,y,z
-x,-y,z
x,-y,-z
-x,y,-z
-x,-y,-z
x,y,-z
-x,y,z
x,-y,z
1/2+x,1/2+y,z
1/2-x,1/2-y,z
1/2+x,1/2-y,-z
1/2-x,1/2+y,-z
1/2-x,1/2-y,-z
1/2+x,1/2+y,-z
1/2-x,1/2+y,z
1/2+x,1/2-y,z
loop_
_atom_site_type_symbol
_atom_site_label
_atom_site_fract_x
_atom_site_fract_y
_atom_site_fract_z
Si Si1 0.378664 0.777040 0.323871
Si Si2 0.854142 0.500000 0.323096
Si Si3 0.211174 0.828379 0.337536
Si Si4 0.049970 0.115729 0.323124
Si Si5 0.741180 0.000000 0.171843
O O1 0.382340 0.777282 0.500000
O O2 0.332058 0.728726 0.272545
O O3 0.418043 0.705338 0.256037
O O4 0.380462 0.896843 0.267623
O O5 0.849737 0.500000 0.500000
O O6 0.803975 0.500000 0.264726
O O7 0.200434 0.880575 0.500000
O O8 0.250000 0.750000 0.368371
O O9 0.227402 0.904706 0.210908
O O10 0.051269 0.119493 0.500000
O O11 0.000000 0.138089 0.266156
O O12 0.064979 0.000000 0.271221
O O13 0.728555 0.000000 0.000000
#
# Coordination Sequence:
#
# PCOD8266969 Si02
#       5
#    16   8  16  16   8
#     4   9  17  28  47  70  93 128 170 206 241 289
#     4  10  18  34  51  68  96 131 173 208 242 290
#     4  10  19  33  52  71  93 129 173 209 240 288
#     4   8  14  25  41  66 101 131 154 192 249 302
#     4  12  24  34  46  69 104 136 162 205 260 301
#
# _framework density 18.288924999999999
#
# number of rings (size 3 to 8) (size 9 to 14) (size 15 to 20)
#    0.000    2.500    2.500    1.875    1.750    0.500 
#    0.000    0.625    0.000    3.750    0.000    0.000 
#    0.000    6.000    0.000    0.000    0.000    0.000 
#
# Total GULP energy -396457.789819 kJ/mol
# GULP energy per Si atom -12389.305932 kJ/mol
# Density = 1.824730 g / cm^3
# Si number density = 18.288925 Si / 1000 Ang^3
#
#
#
# Elastic Constant Matrix: (Units=GPa)
#
#
# Indices 1 2 3 4 5 6 
#
# 1 126.5872 88.3576 4.8426 0.0000 0.0000 0.0000
# 2 88.3576 168.7439 18.0550 0.0000 0.0000 0.0000
# 3 4.8426 18.0550 26.5432 0.0000 0.0000 0.0000
# 4 0.0000 0.0000 0.0000 7.3626 0.0000 0.0000
# 5 0.0000 0.0000 0.0000 0.0000 5.6962 0.0000
# 6 0.0000 0.0000 0.0000 0.0000 0.0000 32.8577
#
#
#
# Elastic Compliance Matrix: (Units=1/GPa)
#
#
# Indices 1 2 3 4 5 6 
#
# 1 0.012585 -0.006842 0.002358 0.000000 0.000000 0.000000
# 2 -0.006842 0.010111 -0.005629 0.000000 0.000000 0.000000
# 3 0.002358 -0.005629 0.041073 0.000000 0.000000 0.000000
# 4 0.000000 0.000000 0.000000 0.135822 0.000000 0.000000
# 5 0.000000 0.000000 0.000000 0.000000 0.175557 0.000000
# 6 0.000000 0.000000 0.000000 0.000000 0.000000 0.030434
#
#
# Mechanical properties :
#
#
# Convention : Reuss Voigt Hill
#
# Bulk Modulus (GPa) = 22.96590 60.48716 41.72653
# Shear Modulus (GPa) = 11.35526 23.22456 17.28991
#
# Velocity S-wave (km/s) = 2.49445 3.56739 3.07803
# Velocity P-wave (km/s) = 4.56957 7.07907 5.95794
#
# Compressibility (1/GPa) = 0.04354281
#
# Stress axis : x y z
#
# Youngs Moduli (GPa) = 79.45738 98.90013 24.34662
#
# Poissons Ratio (x) = 0.67670 -0.05741
# Poissons Ratio (y) = 0.54367 0.13706
# Poissons Ratio (z) = -0.18737 0.55675
#
# Static dielectric constant tensor:
#      x y z
#    x 3.534640 0.000000 0.000000 
#    y 0.000000 3.776350 0.000000 
#    z 0.000000 0.000000 2.713410 
# 
# 
# High freq. dielectric constant tensor:
#      x y z
#    x 1.700630 0.000000 0.000000 
#    y 0.000000 1.721070 0.000000 
#    z 0.000000 0.000000 1.640180 
# 
# From -- ./inp_files/7109.got.cif
#   From: 2010.03.12/outbox.cif.g09.slc.cpg/sg65_4_cif.got.tgz:7109.got - 2010.04.10 20:52:16.
