data_PCOD8266449
_publ_section_title
;
Structure prediction by ZEFSAII (Michael W. Deem and Ramdas Pophale) SiO2 
 PCOD8266449
Probable space group: C M M M
;
_chemical_formula_sum "Si O2"
_cell_formula_units_Z 104
_cell_length_a 9.083540
_cell_length_b 28.727988
_cell_length_c 23.239001
_cell_angle_alpha 90.000000
_cell_angle_beta 90.000000
_cell_angle_gamma 90.000000
_cell_volume 6064.259795
_symmetry_space_group_name_H-M "C M M M"
_symmetry_group_IT_number 65
_symmetry_cell_setting 'orthorhombic'
loop_
_space_group_symop_operation_xyz
x,y,z
-x,-y,z
x,-y,-z
-x,y,-z
-x,-y,-z
x,y,-z
-x,y,z
x,-y,z
1/2+x,1/2+y,z
1/2-x,1/2-y,z
1/2+x,1/2-y,-z
1/2-x,1/2+y,-z
1/2-x,1/2-y,-z
1/2+x,1/2+y,-z
1/2-x,1/2+y,z
1/2+x,1/2-y,z
loop_
_atom_site_type_symbol
_atom_site_label
_atom_site_fract_x
_atom_site_fract_y
_atom_site_fract_z
Si Si1 0.330912 0.384539 0.935159
Si Si2 0.171690 0.946695 0.387307
Si Si3 0.327377 0.797327 0.242552
Si Si4 0.326117 0.388392 0.275650
Si Si5 0.671599 0.796784 0.891077
Si Si6 0.165991 0.444650 0.500000
Si Si7 0.325533 0.448176 0.167782
O O1 0.500000 0.371521 0.921158
O O2 0.233279 0.338814 0.928561
O O3 0.274540 0.424434 0.891805
O O4 0.314009 0.403701 0.000000
O O5 0.217207 0.916506 0.332512
O O6 0.254748 0.925810 0.442729
O O7 0.000000 0.943211 0.400402
O O8 0.217619 0.000000 0.374757
O O9 0.500000 0.793637 0.255110
O O10 0.250000 0.750000 0.263415
O O11 0.257858 0.839485 0.278473
O O12 0.293157 0.806334 0.175625
O O13 0.500000 0.379279 0.271092
O O14 0.267296 0.417969 0.221318
O O15 0.500000 0.791283 0.902829
O O16 0.750000 0.750000 0.912346
O O17 0.175185 0.500000 0.500000
O O18 0.000000 0.426109 0.500000
O O19 0.500000 0.451826 0.171188
O O20 0.256721 0.500000 0.170554
#
# Coordination Sequence:
#
# PCOD8266449 Si02
#       7
#    16  16  16  16  16   8  16
#     4  10  20  33  50  72  97 126 162 203 247 296
#     4   9  17  29  47  73 104 138 175 210 244 287
#     4  10  20  33  51  74  99 127 160 199 247 300
#     4  10  18  30  51  76 102 131 164 204 249 293
#     4  10  20  34  53  73  95 123 156 197 248 303
#     4   9  17  29  45  67 100 141 178 211 249 287
#     4   9  17  30  49  72  98 127 161 203 246 288
#
# _framework density 17.149660000000001
#
# number of rings (size 3 to 8) (size 9 to 14) (size 15 to 20)
#    0.000    2.385    1.538    1.615    0.000    5.538 
#    0.000    1.538    0.000    2.769    0.000    1.615 
#    0.000    0.000    0.000    0.000    0.000    0.000 
#
# Total GULP energy -644910.771354 kJ/mol
# GULP energy per Si atom -12402.130218 kJ/mol
# Density = 1.711063 g / cm^3
# Si number density = 17.149660 Si / 1000 Ang^3
#
#
#
# Elastic Constant Matrix: (Units=GPa)
#
#
# Indices 1 2 3 4 5 6 
#
# 1 61.7872 43.4236 44.9614 0.0000 0.0000 0.0000
# 2 43.4236 123.1735 62.3515 0.0000 0.0000 0.0000
# 3 44.9614 62.3515 124.0328 0.0000 0.0000 0.0000
# 4 0.0000 0.0000 0.0000 21.6004 0.0000 0.0000
# 5 0.0000 0.0000 0.0000 0.0000 18.4582 0.0000
# 6 0.0000 0.0000 0.0000 0.0000 0.0000 24.1651
#
#
#
# Elastic Compliance Matrix: (Units=1/GPa)
#
#
# Indices 1 2 3 4 5 6 
#
# 1 0.024529 -0.005562 -0.006096 0.000000 0.000000 0.000000
# 2 -0.005562 0.012151 -0.004092 0.000000 0.000000 0.000000
# 3 -0.006096 -0.004092 0.012329 0.000000 0.000000 0.000000
# 4 0.000000 0.000000 0.000000 0.046295 0.000000 0.000000
# 5 0.000000 0.000000 0.000000 0.000000 0.054176 0.000000
# 6 0.000000 0.000000 0.000000 0.000000 0.000000 0.041382
#
#
# Mechanical properties :
#
#
# Convention : Reuss Voigt Hill
#
# Bulk Modulus (GPa) = 57.11086 67.82961 62.47023
# Shear Modulus (GPa) = 21.91069 23.39521 22.65295
#
# Velocity S-wave (km/s) = 3.57825 3.69749 3.63836
# Velocity P-wave (km/s) = 7.10251 7.60697 7.35906
#
# Compressibility (1/GPa) = 0.01750981
#
# Stress axis : x y z
#
# Youngs Moduli (GPa) = 40.76778 82.29888 81.10806
#
# Poissons Ratio (x) = 0.45772 0.49442
# Poissons Ratio (y) = 0.22674 0.33191
# Poissons Ratio (z) = 0.24851 0.33678
#
# Static dielectric constant tensor:
#      x y z
#    x 3.036650 0.000000 0.000000 
#    y 0.000000 3.174450 0.000000 
#    z 0.000000 0.000000 3.158050 
# 
# 
# High freq. dielectric constant tensor:
#      x y z
#    x 1.648230 0.000000 0.000000 
#    y 0.000000 1.651440 0.000000 
#    z 0.000000 0.000000 1.651340 
# 
# From -- ./inp_files/66402.got.cif
#   From: 2010.03.12/outbox.cif.g09.slc.cpg/sg65_34_cif.got.tgz:66402.got - 2010.04.10 20:52:16.
