data_PCOD8266008
_publ_section_title
;
Structure prediction by ZEFSAII (Michael W. Deem and Ramdas Pophale) SiO2 
 PCOD8266008
Probable space group: C M M M
;
_chemical_formula_sum "Si O2"
_cell_formula_units_Z 64
_cell_length_a 7.737657
_cell_length_b 28.344004
_cell_length_c 17.416701
_cell_angle_alpha 90.000000
_cell_angle_beta 90.000000
_cell_angle_gamma 90.000000
_cell_volume 3819.764348
_symmetry_space_group_name_H-M "C M M M"
_symmetry_group_IT_number 65
_symmetry_cell_setting 'orthorhombic'
loop_
_space_group_symop_operation_xyz
x,y,z
-x,-y,z
x,-y,-z
-x,y,-z
-x,-y,-z
x,y,-z
-x,y,z
x,-y,z
1/2+x,1/2+y,z
1/2-x,1/2-y,z
1/2+x,1/2-y,-z
1/2-x,1/2+y,-z
1/2-x,1/2-y,-z
1/2+x,1/2+y,-z
1/2-x,1/2+y,z
1/2+x,1/2-y,z
loop_
_atom_site_type_symbol
_atom_site_label
_atom_site_fract_x
_atom_site_fract_y
_atom_site_fract_z
Si Si1 0.800150 0.055430 0.197539
Si Si2 0.793526 0.946508 0.500000
Si Si3 0.297801 0.801444 0.413358
Si Si4 0.000000 0.555727 0.085184
Si Si5 0.197330 0.896570 0.649427
O O1 0.676016 0.071616 0.128064
O O2 0.725338 0.083679 0.271300
O O3 0.000000 0.068274 0.177523
O O4 0.782185 0.000000 0.214971
O O5 0.714219 0.920810 0.424906
O O6 0.000000 0.942665 0.500000
O O7 0.729177 0.000000 0.500000
O O8 0.221849 0.806884 0.500000
O O9 0.500000 0.808957 0.413883
O O10 0.250000 0.750000 0.380580
O O11 0.214918 0.840080 0.356959
O O12 0.000000 0.500000 0.078511
O O13 0.000000 0.578485 0.000000
O O14 0.000000 0.912286 0.650717
#
# Coordination Sequence:
#
# PCOD8266008 Si02
#       5
#    16   8  16   8  16
#     4   9  18  31  47  70 100 132 162 198 241 285
#     4   9  16  26  42  63  88 123 166 199 224 270
#     4  10  20  32  46  63  87 120 162 205 247 285
#     4   9  18  32  50  71  95 127 163 198 242 294
#     4  10  18  29  46  66  91 125 161 198 240 279
#
# _framework density 16.754960000000001
#
# number of rings (size 3 to 8) (size 9 to 14) (size 15 to 20)
#    0.000    2.500    1.250    1.500    1.750    4.500 
#    0.000    2.500    0.000    0.750    0.000    0.000 
#    0.000    1.000    0.500    0.000    0.000    0.000 
#
# Total GULP energy -396701.401123 kJ/mol
# GULP energy per Si atom -12396.918785 kJ/mol
# Density = 1.671682 g / cm^3
# Si number density = 16.754960 Si / 1000 Ang^3
#
#
#
# Elastic Constant Matrix: (Units=GPa)
#
#
# Indices 1 2 3 4 5 6 
#
# 1 59.7721 12.2687 45.0242 0.0000 0.0000 0.0000
# 2 12.2687 89.3559 50.0910 0.0000 0.0000 0.0000
# 3 45.0242 50.0910 140.9597 0.0000 0.0000 0.0000
# 4 0.0000 0.0000 0.0000 14.4885 0.0000 0.0000
# 5 0.0000 0.0000 0.0000 0.0000 17.4473 0.0000
# 6 0.0000 0.0000 0.0000 0.0000 0.0000 17.3944
#
#
#
# Elastic Compliance Matrix: (Units=1/GPa)
#
#
# Indices 1 2 3 4 5 6 
#
# 1 0.022126 0.001154 -0.007477 0.000000 0.000000 0.000000
# 2 0.001154 0.014035 -0.005356 0.000000 0.000000 0.000000
# 3 -0.007477 -0.005356 0.011386 0.000000 0.000000 0.000000
# 4 0.000000 0.000000 0.000000 0.069020 0.000000 0.000000
# 5 0.000000 0.000000 0.000000 0.000000 0.057316 0.000000
# 6 0.000000 0.000000 0.000000 0.000000 0.000000 0.057490
#
#
# Mechanical properties :
#
#
# Convention : Reuss Voigt Hill
#
# Bulk Modulus (GPa) = 41.34329 56.09504 48.71917
# Shear Modulus (GPa) = 19.02628 22.04627 20.53628
#
# Velocity S-wave (km/s) = 3.37346 3.63134 3.50477
# Velocity P-wave (km/s) = 6.31684 7.15084 6.74674
#
# Compressibility (1/GPa) = 0.02418772
#
# Stress axis : x y z
#
# Youngs Moduli (GPa) = 45.19633 71.24901 87.82859
#
# Poissons Ratio (x) = -0.08220 0.65671
# Poissons Ratio (y) = -0.05214 0.47041
# Poissons Ratio (z) = 0.33794 0.38161
#
# Static dielectric constant tensor:
#      x y z
#    x 3.069020 0.000000 0.000000 
#    y 0.000000 3.000780 0.000000 
#    z 0.000000 0.000000 3.223050 
# 
# 
# High freq. dielectric constant tensor:
#      x y z
#    x 1.645960 0.000000 0.000000 
#    y 0.000000 1.623260 0.000000 
#    z 0.000000 0.000000 1.616260 
# 
# From -- ./inp_files/36345.got.cif
#   From: 2010.03.12/outbox.cif.g09.slc.cpg/sg65_19_cif.got.tgz:36345.got - 2010.04.10 20:52:16.
