data_PCOD8266154
_publ_section_title
;
Structure prediction by ZEFSAII (Michael W. Deem and Ramdas Pophale) SiO2 
 PCOD8266154
Probable space group: C M M M
;
_chemical_formula_sum "Si O2"
_cell_formula_units_Z 88
_cell_length_a 8.870531
_cell_length_b 30.090000
_cell_length_c 17.714392
_cell_angle_alpha 90.000000
_cell_angle_beta 90.000000
_cell_angle_gamma 90.000000
_cell_volume 4728.224147
_symmetry_space_group_name_H-M "C M M M"
_symmetry_group_IT_number 65
_symmetry_cell_setting 'orthorhombic'
loop_
_space_group_symop_operation_xyz
x,y,z
-x,-y,z
x,-y,-z
-x,y,-z
-x,-y,-z
x,y,-z
-x,y,z
x,-y,z
1/2+x,1/2+y,z
1/2-x,1/2-y,z
1/2+x,1/2-y,-z
1/2-x,1/2+y,-z
1/2-x,1/2-y,-z
1/2+x,1/2+y,-z
1/2-x,1/2+y,z
1/2+x,1/2-y,z
loop_
_atom_site_type_symbol
_atom_site_label
_atom_site_fract_x
_atom_site_fract_y
_atom_site_fract_z
Si Si1 0.323357 0.052349 0.500000
Si Si2 0.164636 0.207750 0.381513
Si Si3 0.179010 0.549597 0.916493
Si Si4 0.168464 0.793089 0.797012
Si Si5 0.319121 0.610134 0.371882
Si Si6 0.679332 0.116004 0.788992
O O1 0.500000 0.063212 0.500000
O O2 0.246870 0.072693 0.574024
O O3 0.292349 0.000000 0.500000
O O4 0.250000 0.250000 0.417453
O O5 0.156306 0.212794 0.292172
O O6 0.236051 0.159241 0.400376
O O7 0.000000 0.209458 0.417878
O O8 0.238303 0.500000 0.898594
O O9 0.240558 0.582533 0.852738
O O10 0.000000 0.550036 0.915149
O O11 0.235327 0.564422 0.000000
O O12 0.250000 0.750000 0.832718
O O13 0.269337 0.835581 0.816586
O O14 0.000000 0.798009 0.831053
O O15 0.500000 0.608297 0.370113
O O16 0.256963 0.601020 0.288553
O O17 0.500000 0.115130 0.778645
#
# Coordination Sequence:
#
# PCOD8266154 Si02
#       6
#     8  16  16  16  16  16
#     4  11  25  43  60  77  98 129 174 225 272 315
#     4   8  15  27  46  72 100 130 163 199 241 293
#     4   8  15  29  49  74 104 136 170 211 260 311
#     4   9  16  27  44  69 102 137 173 212 255 305
#     4  10  21  37  55  77 106 139 175 212 255 311
#     4  10  18  29  51  81 108 136 173 216 258 303
#
# _framework density 18.611639
#
# number of rings (size 3 to 8) (size 9 to 14) (size 15 to 20)
#    0.000    2.818    0.000    3.545    0.000    6.545 
#    0.000    2.273    0.000    4.364    0.000    5.091 
#    0.000    0.000    0.000    0.000    0.000    0.000 
#
# Total GULP energy -545320.332880 kJ/mol
# GULP energy per Si atom -12393.643929 kJ/mol
# Density = 1.856928 g / cm^3
# Si number density = 18.611639 Si / 1000 Ang^3
#
#
#
# Elastic Constant Matrix: (Units=GPa)
#
#
# Indices 1 2 3 4 5 6 
#
# 1 86.8416 54.9808 38.3685 0.0000 0.0000 0.0000
# 2 54.9808 151.7233 80.6836 0.0000 0.0000 0.0000
# 3 38.3685 80.6836 98.9517 0.0000 0.0000 0.0000
# 4 0.0000 0.0000 0.0000 -10.4346 0.0000 0.0000
# 5 0.0000 0.0000 0.0000 0.0000 -2.2121 0.0000
# 6 0.0000 0.0000 0.0000 0.0000 0.0000 28.5704
#
#
#
# Elastic Compliance Matrix: (Units=1/GPa)
#
#
# Indices 1 2 3 4 5 6 
#
# 1 0.015283 -0.004214 -0.002490 0.000000 0.000000 0.000000
# 2 -0.004214 0.012799 -0.008802 0.000000 0.000000 0.000000
# 3 -0.002490 -0.008802 0.018248 0.000000 0.000000 0.000000
# 4 0.000000 0.000000 0.000000 -0.095835 0.000000 0.000000
# 5 0.000000 0.000000 0.000000 0.000000 -0.452052 0.000000
# 6 0.000000 0.000000 0.000000 0.000000 0.000000 0.035001
#
#
# Mechanical properties :
#
#
# Convention : Reuss Voigt Hill
#
# Bulk Modulus (GPa) = 65.28065 76.17582 70.72823
# Shear Modulus (GPa) = -11.61609 14.08365 1.23378
#
# Velocity S-wave (km/s) = -2.50097 2.75382 0.81508
# Velocity P-wave (km/s) = 5.17798 7.15048 6.24263
#
# Compressibility (1/GPa) = 0.01531847
#
# Stress axis : x y z
#
# Youngs Moduli (GPa) = 65.43037 78.13282 54.79982
#
# Poissons Ratio (x) = 0.32927 0.13645
# Poissons Ratio (y) = 0.27574 0.48234
# Poissons Ratio (z) = 0.16292 0.68771
#
# Static dielectric constant tensor:
#      x y z
#    x 3.432830 0.000000 0.000000 
#    y 0.000000 3.708120 0.000000 
#    z 0.000000 0.000000 3.235770 
# 
# 
# High freq. dielectric constant tensor:
#      x y z
#    x 1.713450 0.000000 0.000000 
#    y 0.000000 1.731740 0.000000 
#    z 0.000000 0.000000 1.692110 
# 
# From -- ./inp_files/50386.got.cif
#   From: 2010.03.12/outbox.cif.g09.slc.cpg/sg65_26_cif.got.tgz:50386.got - 2010.04.10 20:52:16.
