data_PCOD8266041
_publ_section_title
;
Structure prediction by ZEFSAII (Michael W. Deem and Ramdas Pophale) SiO2 
 PCOD8266041
Probable space group: C M M M
;
_chemical_formula_sum "Si O2"
_cell_formula_units_Z 80
_cell_length_a 22.654397
_cell_length_b 17.181893
_cell_length_c 13.535490
_cell_angle_alpha 90.000000
_cell_angle_beta 90.000000
_cell_angle_gamma 90.000000
_cell_volume 5268.627561
_symmetry_space_group_name_H-M "C M M M"
_symmetry_group_IT_number 65
_symmetry_cell_setting 'orthorhombic'
loop_
_space_group_symop_operation_xyz
x,y,z
-x,-y,z
x,-y,-z
-x,y,-z
-x,-y,-z
x,y,-z
-x,y,z
x,-y,z
1/2+x,1/2+y,z
1/2-x,1/2-y,z
1/2+x,1/2-y,-z
1/2-x,1/2+y,-z
1/2-x,1/2-y,-z
1/2+x,1/2+y,-z
1/2-x,1/2+y,z
1/2+x,1/2-y,z
loop_
_atom_site_type_symbol
_atom_site_label
_atom_site_fract_x
_atom_site_fract_y
_atom_site_fract_z
Si Si1 0.000000 0.409183 0.723213
Si Si2 0.707400 0.819661 0.750256
Si Si3 0.000000 0.282972 0.886273
Si Si4 0.624403 0.274995 0.112488
Si Si5 0.292991 0.411372 0.886889
Si Si6 0.879032 0.590336 0.614896
O O1 0.941942 0.386259 0.661307
O O2 0.000000 0.500000 0.750016
O O3 0.000000 0.362469 0.825098
O O4 0.750000 0.750000 0.712373
O O5 0.658135 0.787207 0.822477
O O6 0.742624 0.884055 0.812145
O O7 0.675121 0.859768 0.658261
O O8 0.055584 0.228504 0.860448
O O9 0.000000 0.309400 0.000000
O O10 0.647478 0.362197 0.131972
O O11 0.635905 0.250076 0.000000
O O12 0.309177 0.500000 0.863732
O O13 0.270854 0.400631 0.000000
O O14 0.882869 0.609672 0.500000
O O15 0.865432 0.500000 0.634553
#
# Coordination Sequence:
#
# PCOD8266041 Si02
#       6
#     8  16   8  16  16  16
#     4  10  19  33  50  66  88 119 150 179 220 271
#     4  10  18  29  47  67  90 121 149 183 220 263
#     4  10  18  30  48  68  92 119 145 180 224 266
#     4   9  17  29  45  66  91 120 150 180 221 267
#     4   9  17  29  45  66  92 121 153 184 214 259
#     4  10  20  33  48  66  89 117 149 186 226 266
#
# _framework density 15.184219000000001
#
# number of rings (size 3 to 8) (size 9 to 14) (size 15 to 20)
#    0.000    2.400    2.000    1.500    0.000    4.200 
#    0.000    0.500    0.000    3.000    0.000    0.000 
#    0.000    0.000    0.000    5.200    0.000    0.200 
#
# Total GULP energy -495941.203788 kJ/mol
# GULP energy per Si atom -12398.530095 kJ/mol
# Density = 1.514966 g / cm^3
# Si number density = 15.184219 Si / 1000 Ang^3
#
#
#
# Elastic Constant Matrix: (Units=GPa)
#
#
# Indices 1 2 3 4 5 6 
#
# 1 122.9759 56.6171 57.5814 0.0000 0.0000 0.0000
# 2 56.6171 90.6825 52.2451 0.0000 0.0000 0.0000
# 3 57.5814 52.2451 76.1976 0.0000 0.0000 0.0000
# 4 0.0000 0.0000 0.0000 22.6739 0.0000 0.0000
# 5 0.0000 0.0000 0.0000 0.0000 22.9466 0.0000
# 6 0.0000 0.0000 0.0000 0.0000 0.0000 21.7843
#
#
#
# Elastic Compliance Matrix: (Units=1/GPa)
#
#
# Indices 1 2 3 4 5 6 
#
# 1 0.013494 -0.004215 -0.007307 0.000000 0.000000 0.000000
# 2 -0.004215 0.019545 -0.010216 0.000000 0.000000 0.000000
# 3 -0.007307 -0.010216 0.025650 0.000000 0.000000 0.000000
# 4 0.000000 0.000000 0.000000 0.044104 0.000000 0.000000
# 5 0.000000 0.000000 0.000000 0.000000 0.043579 0.000000
# 6 0.000000 0.000000 0.000000 0.000000 0.000000 0.045905
#
#
# Mechanical properties :
#
#
# Convention : Reuss Voigt Hill
#
# Bulk Modulus (GPa) = 65.73289 69.19369 67.46329
# Shear Modulus (GPa) = 20.76225 21.70844 21.23535
#
# Velocity S-wave (km/s) = 3.70179 3.78520 3.74373
# Velocity P-wave (km/s) = 7.85209 8.04811 7.95070
#
# Compressibility (1/GPa) = 0.01521308
#
# Stress axis : x y z
#
# Youngs Moduli (GPa) = 74.10969 51.16508 38.98645
#
# Poissons Ratio (x) = 0.21565 0.28487
# Poissons Ratio (y) = 0.31236 0.39827
# Poissons Ratio (z) = 0.54151 0.52269
#
# Static dielectric constant tensor:
#      x y z
#    x 3.091580 0.000000 0.000000 
#    y 0.000000 2.874040 0.000000 
#    z 0.000000 0.000000 2.808030 
# 
# 
# High freq. dielectric constant tensor:
#      x y z
#    x 1.588040 0.000000 0.000000 
#    y 0.000000 1.575490 0.000000 
#    z 0.000000 0.000000 1.570600 
# 
# From -- ./inp_files/26685.got.cif
#   From: 2010.03.12/outbox.cif.g09.slc.cpg/sg65_14_cif.got.tgz:26685.got - 2010.04.10 20:52:16.
