data_PCOD8266871
_publ_section_title
;
Structure prediction by ZEFSAII (Michael W. Deem and Ramdas Pophale) SiO2 
 PCOD8266871
Probable space group: C M M M
;
_chemical_formula_sum "Si O2"
_cell_formula_units_Z 72
_cell_length_a 20.232389
_cell_length_b 20.493606
_cell_length_c 8.665616
_cell_angle_alpha 90.000000
_cell_angle_beta 90.000000
_cell_angle_gamma 90.000000
_cell_volume 3593.064298
_symmetry_space_group_name_H-M "C M M M"
_symmetry_group_IT_number 65
_symmetry_cell_setting 'orthorhombic'
loop_
_space_group_symop_operation_xyz
x,y,z
-x,-y,z
x,-y,-z
-x,y,-z
-x,-y,-z
x,y,-z
-x,y,z
x,-y,z
1/2+x,1/2+y,z
1/2-x,1/2-y,z
1/2+x,1/2-y,-z
1/2-x,1/2+y,-z
1/2-x,1/2-y,-z
1/2+x,1/2+y,-z
1/2-x,1/2+y,z
1/2+x,1/2-y,z
loop_
_atom_site_type_symbol
_atom_site_label
_atom_site_fract_x
_atom_site_fract_y
_atom_site_fract_z
Si Si1 0.622283 0.500000 0.318171
Si Si2 0.675658 0.254334 0.816899
Si Si3 0.732975 0.000000 0.816552
Si Si4 0.924657 0.134231 0.181283
Si Si5 0.636828 0.887231 0.183703
Si Si6 0.500000 0.075208 0.831817
O O1 0.618699 0.500000 0.500000
O O2 0.697207 0.500000 0.264144
O O3 0.585501 0.435731 0.258278
O O4 0.750000 0.250000 0.749460
O O5 0.629336 0.313291 0.752862
O O6 0.645651 0.186338 0.762238
O O7 0.678472 0.260908 0.000000
O O8 0.694424 0.064579 0.757947
O O9 0.743303 0.000000 0.000000
O O10 0.000000 0.158167 0.215725
O O11 0.913518 0.125820 0.000000
O O12 0.566528 0.906268 0.259680
O O13 0.634329 0.895359 0.000000
O O14 0.500000 0.000000 0.863467
O O15 0.500000 0.111172 0.000000
#
# Coordination Sequence:
#
# PCOD8266871 Si02
#       6
#     8  16   8  16  16   8
#     4  12  25  39  57  78 103 137 178 229 283 328
#     4   9  17  29  47  75 111 145 175 212 260 311
#     4  10  18  32  55  82 110 146 184 219 262 314
#     4  10  21  37  58  83 109 140 179 222 268 321
#     4   9  16  25  45  76 112 147 176 213 263 314
#     4   9  14  22  36  68 114 147 170 205 259 316
#
# _framework density 20.038606000000001
#
# number of rings (size 3 to 8) (size 9 to 14) (size 15 to 20)
#    0.000    2.333    1.111    2.667    1.556    5.333 
#    0.000    0.000    0.000    6.000    0.000    1.556 
#    0.000    0.000    0.000    0.000    0.000    0.000 
#
# Total GULP energy -446075.332104 kJ/mol
# GULP energy per Si atom -12390.981447 kJ/mol
# Density = 1.999300 g / cm^3
# Si number density = 20.038606 Si / 1000 Ang^3
#
#
#
# Elastic Constant Matrix: (Units=GPa)
#
#
# Indices 1 2 3 4 5 6 
#
# 1 169.9155 69.6084 27.5802 0.0000 0.0000 0.0000
# 2 69.6084 152.1300 23.2144 0.0000 0.0000 0.0000
# 3 27.5802 23.2144 27.5356 0.0000 0.0000 0.0000
# 4 0.0000 0.0000 0.0000 0.8657 0.0000 0.0000
# 5 0.0000 0.0000 0.0000 0.0000 1.4314 0.0000
# 6 0.0000 0.0000 0.0000 0.0000 0.0000 35.1151
#
#
#
# Elastic Compliance Matrix: (Units=1/GPa)
#
#
# Indices 1 2 3 4 5 6 
#
# 1 0.007931 -0.002774 -0.005606 0.000000 0.000000 0.000000
# 2 -0.002774 0.008514 -0.004400 0.000000 0.000000 0.000000
# 3 -0.005606 -0.004400 0.045641 0.000000 0.000000 0.000000
# 4 0.000000 0.000000 0.000000 1.155200 0.000000 0.000000
# 5 0.000000 0.000000 0.000000 0.000000 0.698608 0.000000
# 6 0.000000 0.000000 0.000000 0.000000 0.000000 0.028478
#
#
# Mechanical properties :
#
#
# Convention : Reuss Voigt Hill
#
# Bulk Modulus (GPa) = 27.37644 65.59856 46.48750
# Shear Modulus (GPa) = 2.52257 22.76098 12.64177
#
# Velocity S-wave (km/s) = 1.12320 3.37390 2.51444
# Velocity P-wave (km/s) = 3.92092 6.92711 5.62843
#
# Compressibility (1/GPa) = 0.03652777
#
# Stress axis : x y z
#
# Youngs Moduli (GPa) = 126.07964 117.45634 21.91022
#
# Poissons Ratio (x) = 0.32579 0.12283
# Poissons Ratio (y) = 0.34970 0.09640
# Poissons Ratio (z) = 0.70679 0.51676
#
# Static dielectric constant tensor:
#      x y z
#    x 4.036870 0.000000 0.000000 
#    y 0.000000 3.823050 0.000000 
#    z 0.000000 0.000000 2.919530 
# 
# 
# High freq. dielectric constant tensor:
#      x y z
#    x 1.809400 0.000000 0.000000 
#    y 0.000000 1.793290 0.000000 
#    z 0.000000 0.000000 1.698300 
# 
# From -- ./inp_files/11309.got.cif
#   From: 2010.03.12/outbox.cif.g09.slc.cpg/sg65_6_cif.got.tgz:11309.got - 2010.04.10 20:52:16.
