data_PCOD8266869
_publ_section_title
;
Structure prediction by ZEFSAII (Michael W. Deem and Ramdas Pophale) SiO2 
 PCOD8266869
Probable space group: C M M M
;
_chemical_formula_sum "Si O2"
_cell_formula_units_Z 56
_cell_length_a 15.153449
_cell_length_b 9.995401
_cell_length_c 18.450472
_cell_angle_alpha 90.000000
_cell_angle_beta 90.000000
_cell_angle_gamma 90.000000
_cell_volume 2794.597038
_symmetry_space_group_name_H-M "C M M M"
_symmetry_group_IT_number 65
_symmetry_cell_setting 'orthorhombic'
loop_
_space_group_symop_operation_xyz
x,y,z
-x,-y,z
x,-y,-z
-x,y,-z
-x,-y,-z
x,y,-z
-x,y,z
x,-y,z
1/2+x,1/2+y,z
1/2-x,1/2-y,z
1/2+x,1/2-y,-z
1/2-x,1/2+y,-z
1/2-x,1/2-y,-z
1/2+x,1/2+y,-z
1/2-x,1/2+y,z
1/2+x,1/2-y,z
loop_
_atom_site_type_symbol
_atom_site_label
_atom_site_fract_x
_atom_site_fract_y
_atom_site_fract_z
Si Si1 0.604630 0.500000 0.079093
Si Si2 0.000000 0.842821 0.419687
Si Si3 0.604696 0.000000 0.082717
Si Si4 0.895339 0.244695 0.827762
Si Si5 0.669323 0.661834 0.326927
O O1 0.500000 0.500000 0.073129
O O2 0.638549 0.628151 0.120823
O O3 0.648141 0.500000 0.000000
O O4 0.913079 0.798754 0.376833
O O5 0.000000 0.777069 0.500000
O O6 0.000000 0.000000 0.427473
O O7 0.637551 0.875823 0.130459
O O8 0.500000 0.000000 0.076330
O O9 0.643076 0.000000 0.000000
O O10 0.847886 0.223449 0.751859
O O11 0.000000 0.242360 0.814912
O O12 0.686214 0.500000 0.325415
O O13 0.750000 0.750000 0.358897
#
# Coordination Sequence:
#
# PCOD8266869 Si02
#       5
#     8   8   8  16  16
#     4   9  16  26  49  81 109 147 207 262 305 350
#     4   9  20  42  71  97 126 163 201 243 299 367
#     4   9  18  30  49  83 121 157 205 260 317 366
#     4  10  18  32  55  81 116 162 205 256 303 363
#     4  11  23  39  63  95 127 163 206 250 301 363
#
# _framework density 20.038665999999999
#
# number of rings (size 3 to 8) (size 9 to 14) (size 15 to 20)
#    0.000    2.143    2.857    0.857    2.000    4.000 
#    0.000    0.714    0.000    6.000    0.000    0.000 
#    0.000    0.000    0.000    0.000    0.000    0.000 
#
# Total GULP energy -347016.258189 kJ/mol
# GULP energy per Si atom -12393.437792 kJ/mol
# Density = 1.999306 g / cm^3
# Si number density = 20.038666 Si / 1000 Ang^3
#
#
#
# Elastic Constant Matrix: (Units=GPa)
#
#
# Indices 1 2 3 4 5 6 
#
# 1 102.4127 45.3523 54.8449 0.0000 0.0000 0.0000
# 2 45.3523 149.1557 61.7541 0.0000 0.0000 0.0000
# 3 54.8449 61.7541 160.8377 0.0000 0.0000 0.0000
# 4 0.0000 0.0000 0.0000 19.8812 0.0000 0.0000
# 5 0.0000 0.0000 0.0000 0.0000 -23.8731 0.0000
# 6 0.0000 0.0000 0.0000 0.0000 0.0000 33.6019
#
#
#
# Elastic Compliance Matrix: (Units=1/GPa)
#
#
# Indices 1 2 3 4 5 6 
#
# 1 0.012657 -0.002451 -0.003375 0.000000 0.000000 0.000000
# 2 -0.002451 0.008446 -0.002407 0.000000 0.000000 0.000000
# 3 -0.003375 -0.002407 0.008292 0.000000 0.000000 0.000000
# 4 0.000000 0.000000 0.000000 0.050299 0.000000 0.000000
# 5 0.000000 0.000000 0.000000 0.000000 -0.041888 0.000000
# 6 0.000000 0.000000 0.000000 0.000000 0.000000 0.029760
#
#
# Mechanical properties :
#
#
# Convention : Reuss Voigt Hill
#
# Bulk Modulus (GPa) = 77.34240 81.81208 79.57724
# Shear Modulus (GPa) = 56.59732 22.61899 39.60815
#
# Velocity S-wave (km/s) = 5.32028 3.36336 4.45070
# Velocity P-wave (km/s) = 8.74190 7.48322 8.13694
#
# Compressibility (1/GPa) = 0.01292952
#
# Stress axis : x y z
#
# Youngs Moduli (GPa) = 79.00575 118.39439 120.59096
#
# Poissons Ratio (x) = 0.29022 0.40698
# Poissons Ratio (y) = 0.19367 0.29028
# Poissons Ratio (z) = 0.26664 0.28499
#
# Static dielectric constant tensor:
#      x y z
#    x 3.538300 0.000000 0.000000 
#    y 0.000000 3.671930 0.000000 
#    z 0.000000 0.000000 3.886590 
# 
# 
# High freq. dielectric constant tensor:
#      x y z
#    x 1.771060 0.000000 0.000000 
#    y 0.000000 1.775800 0.000000 
#    z 0.000000 0.000000 1.785140 
# 
# From -- ./inp_files/58626.got.cif
#   From: 2010.03.12/outbox.cif.g09.slc.cpg/sg65_30_cif.got.tgz:58626.got - 2010.04.10 20:52:16.
