data_PCOD8266837
_publ_section_title
;
Structure prediction by ZEFSAII (Michael W. Deem and Ramdas Pophale) SiO2 
 PCOD8266837
Probable space group: C M M M
;
_chemical_formula_sum "Si O2"
_cell_formula_units_Z 64
_cell_length_a 29.681478
_cell_length_b 8.003277
_cell_length_c 13.074897
_cell_angle_alpha 90.000000
_cell_angle_beta 90.000000
_cell_angle_gamma 90.000000
_cell_volume 3105.929887
_symmetry_space_group_name_H-M "C M M M"
_symmetry_group_IT_number 65
_symmetry_cell_setting 'orthorhombic'
loop_
_space_group_symop_operation_xyz
x,y,z
-x,-y,z
x,-y,-z
-x,y,-z
-x,-y,-z
x,y,-z
-x,y,z
x,-y,z
1/2+x,1/2+y,z
1/2-x,1/2-y,z
1/2+x,1/2-y,-z
1/2-x,1/2+y,-z
1/2-x,1/2-y,-z
1/2+x,1/2+y,-z
1/2-x,1/2+y,z
1/2+x,1/2-y,z
loop_
_atom_site_type_symbol
_atom_site_label
_atom_site_fract_x
_atom_site_fract_y
_atom_site_fract_z
Si Si1 0.801268 0.805092 0.500000
Si Si2 0.051895 0.309490 0.750070
Si Si3 0.801320 0.694641 0.283458
Si Si4 0.133285 0.305578 0.887625
Si Si5 0.946857 0.000000 0.387495
O O1 0.750000 0.750000 0.500000
O O2 0.822993 0.739145 0.394335
O O3 0.805287 0.000000 0.500000
O O4 0.059196 0.500000 0.707574
O O5 0.081972 0.279491 0.850481
O O6 0.067976 0.171809 0.667736
O O7 0.000000 0.281631 0.781531
O O8 0.803883 0.500000 0.270528
O O9 0.750000 0.750000 0.272057
O O10 0.831772 0.777317 0.193738
O O11 0.144180 0.500000 0.896982
O O12 0.138750 0.221635 0.000000
O O13 0.924128 0.000000 0.500000
O O14 0.000000 0.000000 0.398406
#
# Coordination Sequence:
#
# PCOD8266837 Si02
#       5
#     8  16  16  16   8
#     4  10  18  32  54  78 105 136 175 221 267 324
#     4   9  18  35  58  82 111 147 187 229 277 332
#     4  10  19  34  55  78 108 141 177 221 270 326
#     4   9  19  36  56  79 108 143 183 227 274 325
#     4   9  18  34  55  81 115 151 186 229 277 329
#
# _framework density 20.605746
#
# number of rings (size 3 to 8) (size 9 to 14) (size 15 to 20)
#    0.000    2.625    0.000    3.375    0.000    1.500 
#    6.750    5.625    0.000    2.250    0.000    0.000 
#    0.000    0.000    0.000    0.000    0.000    0.000 
#
# Total GULP energy -396499.582368 kJ/mol
# GULP energy per Si atom -12390.611949 kJ/mol
# Density = 2.055885 g / cm^3
# Si number density = 20.605746 Si / 1000 Ang^3
#
#
#
# Elastic Constant Matrix: (Units=GPa)
#
#
# Indices 1 2 3 4 5 6 
#
# 1 88.4745 21.6891 75.9986 0.0000 0.0000 0.0000
# 2 21.6891 84.9566 50.8279 0.0000 0.0000 0.0000
# 3 75.9986 50.8279 220.6313 0.0000 0.0000 0.0000
# 4 0.0000 0.0000 0.0000 20.4595 0.0000 0.0000
# 5 0.0000 0.0000 0.0000 0.0000 29.0401 0.0000
# 6 0.0000 0.0000 0.0000 0.0000 0.0000 15.1494
#
#
#
# Elastic Compliance Matrix: (Units=1/GPa)
#
#
# Indices 1 2 3 4 5 6 
#
# 1 0.016114 -0.000920 -0.005339 0.000000 0.000000 0.000000
# 2 -0.000920 0.013705 -0.002840 0.000000 0.000000 0.000000
# 3 -0.005339 -0.002840 0.007026 0.000000 0.000000 0.000000
# 4 0.000000 0.000000 0.000000 0.048877 0.000000 0.000000
# 5 0.000000 0.000000 0.000000 0.000000 0.034435 0.000000
# 6 0.000000 0.000000 0.000000 0.000000 0.000000 0.066009
#
#
# Mechanical properties :
#
#
# Convention : Reuss Voigt Hill
#
# Bulk Modulus (GPa) = 53.62838 76.78819 65.20829
# Shear Modulus (GPa) = 23.74395 29.29958 26.52176
#
# Velocity S-wave (km/s) = 3.39823 3.77492 3.59152
# Velocity P-wave (km/s) = 6.44048 7.50642 6.99379
#
# Compressibility (1/GPa) = 0.01864684
#
# Stress axis : x y z
#
# Youngs Moduli (GPa) = 62.05739 72.96652 142.33247
#
# Poissons Ratio (x) = 0.06711 0.75988
# Poissons Ratio (y) = 0.05708 0.40429
# Poissons Ratio (z) = 0.33131 0.20726
#
# Static dielectric constant tensor:
#      x y z
#    x 2.647040 0.000000 0.000000 
#    y 0.000000 3.613210 0.000000 
#    z 0.000000 0.000000 4.246440 
# 
# 
# High freq. dielectric constant tensor:
#      x y z
#    x 1.795480 0.000000 0.000000 
#    y 0.000000 1.795790 0.000000 
#    z 0.000000 0.000000 1.804960 
# 
# From -- ./inp_files/21000.got.cif
#   From: 2010.03.12/outbox.cif.g09.slc.cpg/sg65_11_cif.got.tgz:21000.got - 2010.04.10 20:52:16.
