data_PCOD8266805
_publ_section_title
;
Structure prediction by ZEFSAII (Michael W. Deem and Ramdas Pophale) SiO2 
 PCOD8266805
Probable space group: C M M M
;
_chemical_formula_sum "Si O2"
_cell_formula_units_Z 104
_cell_length_a 8.851176
_cell_length_b 28.440577
_cell_length_c 22.971651
_cell_angle_alpha 90.000000
_cell_angle_beta 90.000000
_cell_angle_gamma 90.000000
_cell_volume 5782.712343
_symmetry_space_group_name_H-M "C M M M"
_symmetry_group_IT_number 65
_symmetry_cell_setting 'orthorhombic'
loop_
_space_group_symop_operation_xyz
x,y,z
-x,-y,z
x,-y,-z
-x,y,-z
-x,-y,-z
x,y,-z
-x,y,z
x,-y,z
1/2+x,1/2+y,z
1/2-x,1/2-y,z
1/2+x,1/2-y,-z
1/2-x,1/2+y,-z
1/2-x,1/2-y,-z
1/2+x,1/2+y,-z
1/2-x,1/2+y,z
1/2+x,1/2-y,z
loop_
_atom_site_type_symbol
_atom_site_label
_atom_site_fract_x
_atom_site_fract_y
_atom_site_fract_z
Si Si1 0.679422 0.946932 0.000000
Si Si2 0.820452 0.609062 0.886890
Si Si3 0.179496 0.552465 0.225007
Si Si4 0.177665 0.798623 0.712480
Si Si5 0.674048 0.446155 0.432758
Si Si6 0.677866 0.888713 0.665210
Si Si7 0.178061 0.201084 0.846229
O O1 0.736619 0.919112 0.943340
O O2 0.500000 0.949719 0.000000
O O3 0.745813 0.000000 0.000000
O O4 0.761100 0.580370 0.831081
O O5 0.745169 0.660299 0.886835
O O6 0.000000 0.615128 0.886364
O O7 0.247772 0.500000 0.223809
O O8 0.237986 0.577890 0.283072
O O9 0.000000 0.550253 0.224063
O O10 0.250000 0.750000 0.691521
O O11 0.241702 0.838664 0.670507
O O12 0.223791 0.809247 0.779286
O O13 0.000000 0.795109 0.704964
O O14 0.701642 0.434053 0.500000
O O15 0.500000 0.437725 0.415926
O O16 0.719595 0.500000 0.420072
O O17 0.780260 0.412020 0.395949
O O18 0.500000 0.880999 0.669165
O O19 0.250000 0.250000 0.867146
O O20 0.000000 0.204055 0.854445
#
# Coordination Sequence:
#
# PCOD8266805 Si02
#       7
#     8  16  16  16  16  16  16
#     4   9  18  32  54  81 104 137 184 223 256 307
#     4  10  18  32  53  76 105 138 176 219 263 311
#     4   9  17  28  45  72 105 137 168 210 261 308
#     4  10  20  34  53  77 107 139 175 216 265 322
#     4   9  19  36  55  75 105 147 188 223 263 310
#     4  11  20  31  51  80 111 139 175 218 266 319
#     4  10  20  34  54  78 105 135 172 215 266 321
#
# _framework density 17.984639999999999
#
# number of rings (size 3 to 8) (size 9 to 14) (size 15 to 20)
#    0.000    2.231    1.538    2.769    0.000    4.308 
#    0.000    1.538    0.000    3.692    0.000    0.000 
#    0.000    0.000    0.000    0.000    0.000    0.000 
#
# Total GULP energy -644963.557831 kJ/mol
# GULP energy per Si atom -12403.145343 kJ/mol
# Density = 1.794371 g / cm^3
# Si number density = 17.984640 Si / 1000 Ang^3
#
#
#
# Elastic Constant Matrix: (Units=GPa)
#
#
# Indices 1 2 3 4 5 6 
#
# 1 54.9023 44.7229 28.4736 0.0000 0.0000 0.0000
# 2 44.7229 161.3684 64.4568 0.0000 0.0000 0.0000
# 3 28.4736 64.4568 96.3215 0.0000 0.0000 0.0000
# 4 0.0000 0.0000 0.0000 29.2383 0.0000 0.0000
# 5 0.0000 0.0000 0.0000 0.0000 19.6712 0.0000
# 6 0.0000 0.0000 0.0000 0.0000 0.0000 28.0278
#
#
#
# Elastic Compliance Matrix: (Units=1/GPa)
#
#
# Indices 1 2 3 4 5 6 
#
# 1 0.024442 -0.005306 -0.003674 0.000000 0.000000 0.000000
# 2 -0.005306 0.009610 -0.004862 0.000000 0.000000 0.000000
# 3 -0.003674 -0.004862 0.014722 0.000000 0.000000 0.000000
# 4 0.000000 0.000000 0.000000 0.034202 0.000000 0.000000
# 5 0.000000 0.000000 0.000000 0.000000 0.050836 0.000000
# 6 0.000000 0.000000 0.000000 0.000000 0.000000 0.035679
#
#
# Mechanical properties :
#
#
# Convention : Reuss Voigt Hill
#
# Bulk Modulus (GPa) = 47.42030 65.32208 56.37119
# Shear Modulus (GPa) = 24.48514 27.05005 25.76760
#
# Velocity S-wave (km/s) = 3.69378 3.88243 3.78928
# Velocity P-wave (km/s) = 6.67955 7.51649 7.11034
#
# Compressibility (1/GPa) = 0.02108802
#
# Stress axis : x y z
#
# Youngs Moduli (GPa) = 40.91248 104.06073 67.92684
#
# Poissons Ratio (x) = 0.55219 0.24959
# Poissons Ratio (y) = 0.21710 0.33027
# Poissons Ratio (z) = 0.15033 0.50595
#
# Static dielectric constant tensor:
#      x y z
#    x 3.036210 0.000000 0.000000 
#    y 0.000000 3.416690 0.000000 
#    z 0.000000 0.000000 3.210350 
# 
# 
# High freq. dielectric constant tensor:
#      x y z
#    x 1.677620 0.000000 0.000000 
#    y 0.000000 1.706850 0.000000 
#    z 0.000000 0.000000 1.679260 
# 
# From -- ./inp_files/68197.got.cif
#   From: 2010.03.12/outbox.cif.g09.slc.cpg/sg65_35_cif.got.tgz:68197.got - 2010.04.10 20:52:16.
