data_PCOD8266446
_publ_section_title
;
Structure prediction by ZEFSAII (Michael W. Deem and Ramdas Pophale) SiO2 
 PCOD8266446
Probable space group: C M M M
;
_chemical_formula_sum "Si O2"
_cell_formula_units_Z 96
_cell_length_a 9.099637
_cell_length_b 29.340692
_cell_length_c 20.399342
_cell_angle_alpha 90.000000
_cell_angle_beta 90.000000
_cell_angle_gamma 90.000000
_cell_volume 5446.413110
_symmetry_space_group_name_H-M "C M M M"
_symmetry_group_IT_number 65
_symmetry_cell_setting 'orthorhombic'
loop_
_space_group_symop_operation_xyz
x,y,z
-x,-y,z
x,-y,-z
-x,y,-z
-x,-y,-z
x,y,-z
-x,y,z
x,-y,z
1/2+x,1/2+y,z
1/2-x,1/2-y,z
1/2+x,1/2-y,-z
1/2-x,1/2+y,-z
1/2-x,1/2-y,-z
1/2+x,1/2+y,-z
1/2-x,1/2+y,z
1/2+x,1/2-y,z
loop_
_atom_site_type_symbol
_atom_site_label
_atom_site_fract_x
_atom_site_fract_y
_atom_site_fract_z
Si Si1 0.827526 0.297902 0.194081
Si Si2 0.674892 0.049548 0.875915
Si Si3 0.325933 0.049449 0.728733
Si Si4 0.670905 0.296075 0.575929
Si Si5 0.174746 0.643777 0.927762
Si Si6 0.327671 0.143791 0.677595
O O1 0.750000 0.250000 0.204054
O O2 0.765168 0.322136 0.128138
O O3 0.789830 0.329569 0.255795
O O4 0.000000 0.289284 0.188206
O O5 0.500000 0.051342 0.875102
O O6 0.736490 0.054556 0.802151
O O7 0.736298 0.092226 0.917508
O O8 0.725436 0.000000 0.904748
O O9 0.500000 0.052260 0.733220
O O10 0.271686 0.091550 0.684572
O O11 0.277129 0.000000 0.699266
O O12 0.701524 0.306396 0.500000
O O13 0.500000 0.290311 0.591176
O O14 0.750000 0.250000 0.598801
O O15 0.736483 0.337499 0.616751
O O16 0.000000 0.642581 0.922764
O O17 0.225922 0.660547 0.000000
O O18 0.500000 0.147136 0.661550
#
# Coordination Sequence:
#
# PCOD8266446 Si02
#       6
#    16  16  16  16  16  16
#     4  10  20  32  45  65  91 121 159 200 240 279
#     4   8  12  20  36  59  88 119 150 187 235 287
#     4   8  13  23  42  68  96 124 155 194 238 282
#     4  10  21  36  53  75 103 131 159 193 235 284
#     4   9  16  26  39  57  87 124 157 192 237 286
#     4  10  18  30  51  75  99 127 160 198 239 282
#
# _framework density 17.626279
#
# number of rings (size 3 to 8) (size 9 to 14) (size 15 to 20)
#    0.000    2.833    1.667    2.000    0.000    3.667 
#    0.000    1.667    0.000    1.000    0.000    3.500 
#    0.000    0.667    0.000    1.500    0.000    1.667 
#
# Total GULP energy -594842.184818 kJ/mol
# GULP energy per Si atom -12392.545517 kJ/mol
# Density = 1.758616 g / cm^3
# Si number density = 17.626279 Si / 1000 Ang^3
#
#
#
# Elastic Constant Matrix: (Units=GPa)
#
#
# Indices 1 2 3 4 5 6 
#
# 1 30.7676 34.3147 30.5917 0.0000 0.0000 0.0000
# 2 34.3147 143.9328 55.9851 0.0000 0.0000 0.0000
# 3 30.5917 55.9851 82.8841 0.0000 0.0000 0.0000
# 4 0.0000 0.0000 0.0000 29.5242 0.0000 0.0000
# 5 0.0000 0.0000 0.0000 0.0000 12.8348 0.0000
# 6 0.0000 0.0000 0.0000 0.0000 0.0000 16.4273
#
#
#
# Elastic Compliance Matrix: (Units=1/GPa)
#
#
# Indices 1 2 3 4 5 6 
#
# 1 0.056432 -0.007260 -0.015925 0.000000 0.000000 0.000000
# 2 -0.007260 0.010357 -0.004317 0.000000 0.000000 0.000000
# 3 -0.015925 -0.004317 0.020859 0.000000 0.000000 0.000000
# 4 0.000000 0.000000 0.000000 0.033871 0.000000 0.000000
# 5 0.000000 0.000000 0.000000 0.000000 0.077913 0.000000
# 6 0.000000 0.000000 0.000000 0.000000 0.000000 0.060874
#
#
# Mechanical properties :
#
#
# Convention : Reuss Voigt Hill
#
# Bulk Modulus (GPa) = 30.63181 55.48530 43.05855
# Shear Modulus (GPa) = 15.32844 20.87011 18.09927
#
# Velocity S-wave (km/s) = 2.95216 3.44471 3.20790
# Velocity P-wave (km/s) = 5.38856 6.88248 6.18082
#
# Compressibility (1/GPa) = 0.03264581
#
# Stress axis : x y z
#
# Youngs Moduli (GPa) = 17.72033 96.54879 47.94200
#
# Poissons Ratio (x) = 0.70091 0.76348
# Poissons Ratio (y) = 0.12864 0.20695
# Poissons Ratio (z) = 0.28220 0.41677
#
# Static dielectric constant tensor:
#      x y z
#    x 2.739570 0.000000 0.000000 
#    y 0.000000 3.647850 0.000000 
#    z 0.000000 0.000000 3.237600 
# 
# 
# High freq. dielectric constant tensor:
#      x y z
#    x 1.622110 0.000000 0.000000 
#    y 0.000000 1.695370 0.000000 
#    z 0.000000 0.000000 1.669220 
# 
# From -- ./inp_files/65781.got.cif
#   From: 2010.03.12/outbox.cif.g09.slc.cpg/sg65_33_cif.got.tgz:65781.got - 2010.04.10 20:52:16.
