data_PCOD8266022
_publ_section_title
;
Structure prediction by ZEFSAII (Michael W. Deem and Ramdas Pophale) SiO2 
 PCOD8266022
Probable space group: C M M M
;
_chemical_formula_sum "Si O2"
_cell_formula_units_Z 104
_cell_length_a 28.899122
_cell_length_b 8.798284
_cell_length_c 23.609067
_cell_angle_alpha 90.000000
_cell_angle_beta 90.000000
_cell_angle_gamma 90.000000
_cell_volume 6002.904712
_symmetry_space_group_name_H-M "C M M M"
_symmetry_group_IT_number 65
_symmetry_cell_setting 'orthorhombic'
loop_
_space_group_symop_operation_xyz
x,y,z
-x,-y,z
x,-y,-z
-x,y,-z
-x,-y,-z
x,y,-z
-x,y,z
x,-y,z
1/2+x,1/2+y,z
1/2-x,1/2-y,z
1/2+x,1/2-y,-z
1/2-x,1/2+y,-z
1/2-x,1/2-y,-z
1/2+x,1/2+y,-z
1/2-x,1/2+y,z
1/2+x,1/2-y,z
loop_
_atom_site_type_symbol
_atom_site_label
_atom_site_fract_x
_atom_site_fract_y
_atom_site_fract_z
Si Si1 0.800815 0.182080 0.886202
Si Si2 0.699632 0.680758 0.666617
Si Si3 0.948654 0.177125 0.270436
Si Si4 0.854283 0.821372 0.776764
Si Si5 0.698849 0.818045 0.000000
Si Si6 0.551504 0.178690 0.609729
Si Si7 0.361393 0.676500 0.562955
O O1 0.750000 0.250000 0.876953
O O2 0.832057 0.242721 0.834288
O O3 0.824698 0.252002 0.942926
O O4 0.798218 0.000000 0.890664
O O5 0.703271 0.500000 0.666532
O O6 0.750000 0.750000 0.667898
O O7 0.671858 0.742944 0.721336
O O8 0.673929 0.741148 0.609953
O O9 0.908944 0.222261 0.225121
O O10 0.937541 0.267570 0.327035
O O11 0.000000 0.216890 0.246363
O O12 0.944928 0.000000 0.285707
O O13 0.847566 0.000000 0.777080
O O14 0.750000 0.750000 0.000000
O O15 0.698911 0.000000 0.000000
O O16 0.500000 0.232233 0.591555
O O17 0.588491 0.246414 0.566606
O O18 0.555491 0.000000 0.608101
O O19 0.341235 0.708057 0.500000
O O20 0.369210 0.500000 0.574096
#
# Coordination Sequence:
#
# PCOD8266022 Si02
#       7
#    16  16  16  16   8  16  16
#     4  10  18  29  46  69 100 133 166 198 237 281
#     4  10  20  35  51  70  97 124 159 200 244 288
#     4   9  16  30  53  75  97 128 161 193 236 291
#     4   9  17  30  49  74 100 126 157 200 241 282
#     4  10  18  30  46  66  97 132 169 203 236 275
#     4  10  20  33  50  74 101 125 151 193 248 298
#     4  10  21  37  55  71  91 124 165 203 239 291
#
# _framework density 17.324946000000001
#
# number of rings (size 3 to 8) (size 9 to 14) (size 15 to 20)
#    0.000    2.308    1.538    3.000    0.000    2.462 
#    0.000    3.846    0.000    0.000    0.000    0.538 
#    0.000    4.308    0.000    0.000    0.000    0.000 
#
# Total GULP energy -644562.900990 kJ/mol
# GULP energy per Si atom -12395.440404 kJ/mol
# Density = 1.728551 g / cm^3
# Si number density = 17.324946 Si / 1000 Ang^3
#
#
#
# Elastic Constant Matrix: (Units=GPa)
#
#
# Indices 1 2 3 4 5 6 
#
# 1 114.0008 20.2061 68.7849 0.0000 0.0000 0.0000
# 2 20.2061 40.6333 29.4328 0.0000 0.0000 0.0000
# 3 68.7849 29.4328 145.4817 0.0000 0.0000 0.0000
# 4 0.0000 0.0000 0.0000 15.1481 0.0000 0.0000
# 5 0.0000 0.0000 0.0000 0.0000 25.1445 0.0000
# 6 0.0000 0.0000 0.0000 0.0000 0.0000 23.3017
#
#
#
# Elastic Compliance Matrix: (Units=1/GPa)
#
#
# Indices 1 2 3 4 5 6 
#
# 1 0.012447 -0.002258 -0.005428 0.000000 0.000000 0.000000
# 2 -0.002258 0.029246 -0.004849 0.000000 0.000000 0.000000
# 3 -0.005428 -0.004849 0.010421 0.000000 0.000000 0.000000
# 4 0.000000 0.000000 0.000000 0.066015 0.000000 0.000000
# 5 0.000000 0.000000 0.000000 0.000000 0.039770 0.000000
# 6 0.000000 0.000000 0.000000 0.000000 0.000000 0.042915
#
#
# Mechanical properties :
#
#
# Convention : Reuss Voigt Hill
#
# Bulk Modulus (GPa) = 36.97742 59.66259 48.32001
# Shear Modulus (GPa) = 21.28561 24.83166 23.05864
#
# Velocity S-wave (km/s) = 3.50896 3.78999 3.65218
# Velocity P-wave (km/s) = 6.14873 7.32558 6.76280
#
# Compressibility (1/GPa) = 0.02704353
#
# Stress axis : x y z
#
# Youngs Moduli (GPa) = 80.33790 34.19308 95.95619
#
# Poissons Ratio (x) = 0.07720 0.52090
# Poissons Ratio (y) = 0.18138 0.46532
# Poissons Ratio (z) = 0.43611 0.16581
#
# Static dielectric constant tensor:
#      x y z
#    x 3.354930 0.000000 0.000000 
#    y 0.000000 3.093880 0.000000 
#    z 0.000000 0.000000 3.695740 
# 
# 
# High freq. dielectric constant tensor:
#      x y z
#    x 1.658800 0.000000 0.000000 
#    y 0.000000 1.657300 0.000000 
#    z 0.000000 0.000000 1.662100 
# 
# From -- ./inp_files/71783.got.cif
#   From: 2010.03.12/outbox.cif.g09.slc.cpg/sg65_36_cif.got.tgz:71783.got - 2010.04.10 20:52:16.
