data_PCOD8266005
_publ_section_title
;
Structure prediction by ZEFSAII (Michael W. Deem and Ramdas Pophale) SiO2 
 PCOD8266005
Probable space group: C M M M
;
_chemical_formula_sum "Si O2"
_cell_formula_units_Z 80
_cell_length_a 25.785069
_cell_length_b 9.023483
_cell_length_c 22.122340
_cell_angle_alpha 90.000000
_cell_angle_beta 90.000000
_cell_angle_gamma 90.000000
_cell_volume 5147.229885
_symmetry_space_group_name_H-M "C M M M"
_symmetry_group_IT_number 65
_symmetry_cell_setting 'orthorhombic'
loop_
_space_group_symop_operation_xyz
x,y,z
-x,-y,z
x,-y,-z
-x,y,-z
-x,-y,-z
x,y,-z
-x,y,z
x,-y,z
1/2+x,1/2+y,z
1/2-x,1/2-y,z
1/2+x,1/2-y,-z
1/2-x,1/2+y,-z
1/2-x,1/2-y,-z
1/2+x,1/2+y,-z
1/2-x,1/2+y,z
1/2+x,1/2-y,z
loop_
_atom_site_type_symbol
_atom_site_label
_atom_site_fract_x
_atom_site_fract_y
_atom_site_fract_z
Si Si1 0.060113 0.825494 0.760176
Si Si2 0.938364 0.332948 0.118385
Si Si3 0.597935 0.824351 0.356422
Si Si4 0.197718 0.325903 0.568798
Si Si5 0.500000 0.824063 0.432581
Si Si6 0.061902 0.167594 0.000000
O O1 0.080279 0.755730 0.822672
O O2 0.095152 0.756514 0.707670
O O3 0.000000 0.784220 0.748596
O O4 0.068454 0.000000 0.763309
O O5 0.916388 0.500000 0.120590
O O6 0.000000 0.334847 0.115516
O O7 0.916272 0.251098 0.059101
O O8 0.650721 0.774456 0.388824
O O9 0.550800 0.767413 0.397932
O O10 0.595016 0.000000 0.346349
O O11 0.185496 0.276556 0.500000
O O12 0.205664 0.500000 0.572503
O O13 0.250000 0.250000 0.592823
O O14 0.500000 0.756347 0.500000
O O15 0.500000 0.000000 0.436361
O O16 0.000000 0.168081 0.000000
O O17 0.083023 0.000000 0.000000
#
# Coordination Sequence:
#
# PCOD8266005 Si02
#       6
#    16  16  16  16   8   8
#     4  10  19  29  40  57  84 115 145 177 218 265
#     4   9  16  25  38  54  75 106 146 184 215 250
#     4  10  18  29  46  65  85 111 145 180 216 262
#     4   9  18  32  49  68  87 109 141 180 222 268
#     4   9  16  26  43  65  85 106 137 178 217 253
#     4   9  15  23  35  53  77 105 140 181 222 255
#
# _framework density 15.542339999999999
#
# number of rings (size 3 to 8) (size 9 to 14) (size 15 to 20)
#    0.000    2.600    1.000    2.100    0.000    7.600 
#    0.000    0.000    0.000    2.400    0.000    0.000 
#    0.000    0.000    0.000    0.900    0.000   12.300 
#
# Total GULP energy -496017.952751 kJ/mol
# GULP energy per Si atom -12400.448819 kJ/mol
# Density = 1.550697 g / cm^3
# Si number density = 15.542340 Si / 1000 Ang^3
#
#
#
# Elastic Constant Matrix: (Units=GPa)
#
#
# Indices 1 2 3 4 5 6 
#
# 1 78.6737 33.0559 54.6542 0.0000 0.0000 0.0000
# 2 33.0559 74.8261 57.3254 0.0000 0.0000 0.0000
# 3 54.6542 57.3254 150.6165 0.0000 0.0000 0.0000
# 4 0.0000 0.0000 0.0000 24.8611 0.0000 0.0000
# 5 0.0000 0.0000 0.0000 0.0000 12.4503 0.0000
# 6 0.0000 0.0000 0.0000 0.0000 0.0000 16.9935
#
#
#
# Elastic Compliance Matrix: (Units=1/GPa)
#
#
# Indices 1 2 3 4 5 6 
#
# 1 0.017854 -0.004128 -0.004908 0.000000 0.000000 0.000000
# 2 -0.004128 0.019819 -0.006046 0.000000 0.000000 0.000000
# 3 -0.004908 -0.006046 0.010721 0.000000 0.000000 0.000000
# 4 0.000000 0.000000 0.000000 0.040223 0.000000 0.000000
# 5 0.000000 0.000000 0.000000 0.000000 0.080319 0.000000
# 6 0.000000 0.000000 0.000000 0.000000 0.000000 0.058846
#
#
# Mechanical properties :
#
#
# Convention : Reuss Voigt Hill
#
# Bulk Modulus (GPa) = 54.84546 66.02082 60.43314
# Shear Modulus (GPa) = 18.93770 21.46638 20.20204
#
# Velocity S-wave (km/s) = 3.49443 3.72042 3.60919
# Velocity P-wave (km/s) = 7.18650 7.81189 7.50571
#
# Compressibility (1/GPa) = 0.01823305
#
# Stress axis : x y z
#
# Youngs Moduli (GPa) = 56.00843 50.45574 93.27258
#
# Poissons Ratio (x) = 0.20826 0.45777
# Poissons Ratio (y) = 0.23118 0.56389
# Poissons Ratio (z) = 0.27488 0.30503
#
# Static dielectric constant tensor:
#      x y z
#    x 2.591560 0.000000 0.000000 
#    y 0.000000 2.936980 0.000000 
#    z 0.000000 0.000000 3.110430 
# 
# 
# High freq. dielectric constant tensor:
#      x y z
#    x 1.536920 0.000000 0.000000 
#    y 0.000000 1.596680 0.000000 
#    z 0.000000 0.000000 1.606220 
# 
# From -- ./inp_files/60052.got.cif
#   From: 2010.03.12/outbox.cif.g09.slc.cpg/sg65_31_cif.got.tgz:60052.got - 2010.04.10 20:52:16.
