data_PCOD8266053
_publ_section_title
;
Structure prediction by ZEFSAII (Michael W. Deem and Ramdas Pophale) SiO2 
 PCOD8266053
Probable space group: C M M M
;
_chemical_formula_sum "Si O2"
_cell_formula_units_Z 88
_cell_length_a 22.775652
_cell_length_b 27.177387
_cell_length_c 7.845417
_cell_angle_alpha 90.000000
_cell_angle_beta 90.000000
_cell_angle_gamma 90.000000
_cell_volume 4856.177465
_symmetry_space_group_name_H-M "C M M M"
_symmetry_group_IT_number 65
_symmetry_cell_setting 'orthorhombic'
loop_
_space_group_symop_operation_xyz
x,y,z
-x,-y,z
x,-y,-z
-x,y,-z
-x,-y,-z
x,y,-z
-x,y,z
x,-y,z
1/2+x,1/2+y,z
1/2-x,1/2-y,z
1/2+x,1/2-y,-z
1/2-x,1/2+y,-z
1/2-x,1/2-y,-z
1/2+x,1/2+y,-z
1/2-x,1/2+y,z
1/2+x,1/2-y,z
loop_
_atom_site_type_symbol
_atom_site_label
_atom_site_fract_x
_atom_site_fract_y
_atom_site_fract_z
Si Si1 0.368123 0.595553 0.802074
Si Si2 0.430092 0.857901 0.500000
Si Si3 0.933402 0.000000 0.796997
Si Si4 0.657017 0.057059 0.500000
Si Si5 0.069506 0.293079 0.812532
Si Si6 0.565524 0.310402 0.694554
Si Si7 0.742170 0.943195 0.192787
O O1 0.401746 0.548501 0.723426
O O2 0.390222 0.644425 0.710744
O O3 0.298858 0.590135 0.769715
O O4 0.383047 0.600304 0.000000
O O5 0.500000 0.864007 0.500000
O O6 0.402711 0.912157 0.500000
O O7 0.406005 0.829286 0.332972
O O8 0.000000 0.000000 0.732258
O O9 0.928551 0.000000 0.000000
O O10 0.692978 0.070825 0.670225
O O11 0.639269 0.000000 0.500000
O O12 0.092003 0.236936 0.792520
O O13 0.000000 0.291479 0.792733
O O14 0.088639 0.312471 0.000000
O O15 0.560982 0.294091 0.500000
O O16 0.500000 0.324663 0.762565
O O17 0.761334 0.000000 0.212483
O O18 0.718682 0.933638 0.000000
#
# Coordination Sequence:
#
# PCOD8266053 Si02
#       7
#    16   8   8   8  16  16  16
#     4  10  18  29  47  69  97 140 188 233 275 312
#     4  10  20  37  59  87 117 134 159 201 250 320
#     4   9  16  26  41  65  99 137 179 230 284 324
#     4  10  22  37  59  87 109 139 168 200 257 313
#     4   9  17  32  55  79 106 143 179 211 253 309
#     4  10  19  30  45  72 108 142 181 230 276 315
#     4   9  18  35  55  75 102 140 190 231 257 300
#
# _framework density 18.121248000000001
#
# number of rings (size 3 to 8) (size 9 to 14) (size 15 to 20)
#    0.000    2.455    1.818    1.091    1.273    2.727 
#    0.000    0.455    0.000    3.818    0.000    8.909 
#    0.000    0.000    0.000    0.000    0.000    0.000 
#
# Total GULP energy -545511.869949 kJ/mol
# GULP energy per Si atom -12397.997044 kJ/mol
# Density = 1.808000 g / cm^3
# Si number density = 18.121248 Si / 1000 Ang^3
#
#
#
# Elastic Constant Matrix: (Units=GPa)
#
#
# Indices 1 2 3 4 5 6 
#
# 1 55.0294 44.6845 35.4075 0.0000 0.0000 0.0000
# 2 44.6845 102.2705 46.2180 0.0000 0.0000 0.0000
# 3 35.4075 46.2180 107.6238 0.0000 0.0000 0.0000
# 4 0.0000 0.0000 0.0000 21.6632 0.0000 0.0000
# 5 0.0000 0.0000 0.0000 0.0000 14.9413 0.0000
# 6 0.0000 0.0000 0.0000 0.0000 0.0000 18.1248
#
#
#
# Elastic Compliance Matrix: (Units=1/GPa)
#
#
# Indices 1 2 3 4 5 6 
#
# 1 0.030453 -0.010892 -0.005342 0.000000 0.000000 0.000000
# 2 -0.010892 0.016028 -0.003300 0.000000 0.000000 0.000000
# 3 -0.005342 -0.003300 0.012466 0.000000 0.000000 0.000000
# 4 0.000000 0.000000 0.000000 0.046161 0.000000 0.000000
# 5 0.000000 0.000000 0.000000 0.000000 0.066928 0.000000
# 6 0.000000 0.000000 0.000000 0.000000 0.000000 0.055173
#
#
# Mechanical properties :
#
#
# Convention : Reuss Voigt Hill
#
# Bulk Modulus (GPa) = 50.29898 57.50488 53.90193
# Shear Modulus (GPa) = 18.32149 20.18678 19.25413
#
# Velocity S-wave (km/s) = 3.18315 3.34126 3.26316
# Velocity P-wave (km/s) = 6.42862 6.83284 6.63381
#
# Compressibility (1/GPa) = 0.01988112
#
# Stress axis : x y z
#
# Youngs Moduli (GPa) = 32.83716 62.39026 80.21813
#
# Poissons Ratio (x) = 0.67955 0.42849
# Poissons Ratio (y) = 0.35766 0.26470
# Poissons Ratio (z) = 0.17540 0.20587
#
# Static dielectric constant tensor:
#      x y z
#    x 2.908410 0.000000 0.000000 
#    y 0.000000 3.196810 0.000000 
#    z 0.000000 0.000000 3.442320 
# 
# 
# High freq. dielectric constant tensor:
#      x y z
#    x 1.659440 0.000000 0.000000 
#    y 0.000000 1.691570 0.000000 
#    z 0.000000 0.000000 1.710060 
# 
# From -- ./inp_files/12702.got.cif
#   From: 2010.03.12/outbox.cif.g09.slc.cpg/sg65_7_cif.got.tgz:12702.got - 2010.04.10 20:52:16.
