data_PCOD8266436
_publ_section_title
;
Structure prediction by ZEFSAII (Michael W. Deem and Ramdas Pophale) SiO2 
 PCOD8266436
Probable space group: C M M M
;
_chemical_formula_sum "Si O2"
_cell_formula_units_Z 88
_cell_length_a 18.945470
_cell_length_b 8.966632
_cell_length_c 28.948839
_cell_angle_alpha 90.000000
_cell_angle_beta 90.000000
_cell_angle_gamma 90.000000
_cell_volume 4917.743589
_symmetry_space_group_name_H-M "C M M M"
_symmetry_group_IT_number 65
_symmetry_cell_setting 'orthorhombic'
loop_
_space_group_symop_operation_xyz
x,y,z
-x,-y,z
x,-y,-z
-x,y,-z
-x,-y,-z
x,y,-z
-x,y,z
x,-y,z
1/2+x,1/2+y,z
1/2-x,1/2-y,z
1/2+x,1/2-y,-z
1/2-x,1/2+y,-z
1/2-x,1/2-y,-z
1/2+x,1/2+y,-z
1/2-x,1/2+y,z
1/2+x,1/2-y,z
loop_
_atom_site_type_symbol
_atom_site_label
_atom_site_fract_x
_atom_site_fract_y
_atom_site_fract_z
Si Si1 0.175044 0.326240 0.223013
Si Si2 0.420355 0.176287 0.140596
Si Si3 0.916173 0.169005 0.949680
Si Si4 0.920533 0.176584 0.500000
Si Si5 0.827113 0.177818 0.585927
Si Si6 0.825457 0.325391 0.324291
O O1 0.187981 0.500000 0.215117
O O2 0.250000 0.250000 0.217981
O O3 0.123093 0.260376 0.184146
O O4 0.139246 0.299938 0.273803
O O5 0.500000 0.236829 0.145943
O O6 0.385730 0.233250 0.092549
O O7 0.419103 0.000000 0.139786
O O8 0.000000 0.180196 0.949832
O O9 0.891284 0.000000 0.941963
O O10 0.888324 0.226188 0.000000
O O11 0.878088 0.231503 0.544920
O O12 0.000000 0.244031 0.500000
O O13 0.925094 0.000000 0.500000
O O14 0.750000 0.250000 0.578562
O O15 0.863844 0.240846 0.633153
O O16 0.819723 0.000000 0.588052
O O17 0.818840 0.500000 0.335996
O O18 0.750000 0.250000 0.320774
#
# Coordination Sequence:
#
# PCOD8266436 Si02
#       6
#    16  16  16   8  16  16
#     4   9  18  31  47  67  91 121 152 183 222 266
#     4   9  17  29  45  66  91 117 147 183 223 268
#     4   8  14  25  41  62  88 116 146 182 224 266
#     4   9  19  34  49  67  94 127 156 182 220 269
#     4  10  18  30  51  73  92 116 150 191 227 262
#     4   9  16  28  46  68  93 118 149 187 224 263
#
# _framework density 17.894385
#
# number of rings (size 3 to 8) (size 9 to 14) (size 15 to 20)
#    0.000    3.000    0.000    3.000    0.000    1.818 
#    0.000    4.091    0.000    6.000    0.000    0.000 
#    0.000    0.000    0.000    0.000    0.000    0.000 
#
# Total GULP energy -545119.932105 kJ/mol
# GULP energy per Si atom -12389.089366 kJ/mol
# Density = 1.785366 g / cm^3
# Si number density = 17.894385 Si / 1000 Ang^3
#
#
#
# Elastic Constant Matrix: (Units=GPa)
#
#
# Indices 1 2 3 4 5 6 
#
# 1 59.6051 22.1480 63.7751 0.0000 0.0000 0.0000
# 2 22.1480 53.5026 47.8343 0.0000 0.0000 0.0000
# 3 63.7751 47.8343 205.7035 0.0000 0.0000 0.0000
# 4 0.0000 0.0000 0.0000 25.4037 0.0000 0.0000
# 5 0.0000 0.0000 0.0000 0.0000 24.6402 0.0000
# 6 0.0000 0.0000 0.0000 0.0000 0.0000 13.5375
#
#
#
# Elastic Compliance Matrix: (Units=1/GPa)
#
#
# Indices 1 2 3 4 5 6 
#
# 1 0.025928 -0.004477 -0.006997 0.000000 0.000000 0.000000
# 2 -0.004477 0.024370 -0.004279 0.000000 0.000000 0.000000
# 3 -0.006997 -0.004279 0.008026 0.000000 0.000000 0.000000
# 4 0.000000 0.000000 0.000000 0.039364 0.000000 0.000000
# 5 0.000000 0.000000 0.000000 0.000000 0.040584 0.000000
# 6 0.000000 0.000000 0.000000 0.000000 0.000000 0.073869
#
#
# Mechanical properties :
#
#
# Convention : Reuss Voigt Hill
#
# Bulk Modulus (GPa) = 37.29053 65.14733 51.21893
# Shear Modulus (GPa) = 19.79530 25.05321 22.42425
#
# Velocity S-wave (km/s) = 3.32961 3.74580 3.54382
# Velocity P-wave (km/s) = 5.97212 7.42924 6.74017
#
# Compressibility (1/GPa) = 0.02681646
#
# Stress axis : x y z
#
# Youngs Moduli (GPa) = 38.56902 41.03484 124.59832
#
# Poissons Ratio (x) = 0.18371 0.87186
# Poissons Ratio (y) = 0.17267 0.53314
# Poissons Ratio (z) = 0.26988 0.17558
#
# Static dielectric constant tensor:
#      x y z
#    x 2.984410 0.000000 0.000000 
#    y 0.000000 3.245050 0.000000 
#    z 0.000000 0.000000 4.339410 
# 
# 
# High freq. dielectric constant tensor:
#      x y z
#    x 1.635830 0.000000 0.000000 
#    y 0.000000 1.683660 0.000000 
#    z 0.000000 0.000000 1.722360 
# 
# From -- ./inp_files/78146.got.cif
#   From: 2010.03.12/outbox.cif.g09.slc.cpg/sg65_40_cif.got.tgz:78146.got - 2010.04.10 20:52:16.
