data_PCOD8266636
_publ_section_title
;
Structure prediction by ZEFSAII (Michael W. Deem and Ramdas Pophale) SiO2 
 PCOD8266636
Probable space group: C M M M
;
_chemical_formula_sum "Si O2"
_cell_formula_units_Z 64
_cell_length_a 30.090167
_cell_length_b 8.722890
_cell_length_c 12.353877
_cell_angle_alpha 90.000000
_cell_angle_beta 90.000000
_cell_angle_gamma 90.000000
_cell_volume 3242.561836
_symmetry_space_group_name_H-M "C M M M"
_symmetry_group_IT_number 65
_symmetry_cell_setting 'orthorhombic'
loop_
_space_group_symop_operation_xyz
x,y,z
-x,-y,z
x,-y,-z
-x,y,-z
-x,-y,-z
x,y,-z
-x,y,z
x,-y,z
1/2+x,1/2+y,z
1/2-x,1/2-y,z
1/2+x,1/2-y,-z
1/2-x,1/2+y,-z
1/2-x,1/2-y,-z
1/2+x,1/2+y,-z
1/2-x,1/2+y,z
1/2+x,1/2-y,z
loop_
_atom_site_type_symbol
_atom_site_label
_atom_site_fract_x
_atom_site_fract_y
_atom_site_fract_z
Si Si1 0.052734 0.829267 0.500000
Si Si2 0.449767 0.818438 0.720578
Si Si3 0.625290 0.181709 0.120578
Si Si4 0.798485 0.681740 0.281482
Si Si5 0.299084 0.682460 0.500000
O O1 0.069477 0.743598 0.607224
O O2 0.000000 0.831986 0.500000
O O3 0.072943 0.000000 0.500000
O O4 0.500000 0.760008 0.743158
O O5 0.418195 0.756301 0.816326
O O6 0.448453 0.000000 0.713294
O O7 0.670202 0.230473 0.181980
O O8 0.622496 0.000000 0.114068
O O9 0.625928 0.253256 0.000000
O O10 0.794869 0.500000 0.295341
O O11 0.750000 0.750000 0.258043
O O12 0.821196 0.752927 0.390048
O O13 0.299259 0.500000 0.500000
O O14 0.250000 0.750000 0.500000
#
# Coordination Sequence:
#
# PCOD8266636 Si02
#       5
#     8  16  16  16   8
#     4   9  17  30  49  74 105 136 164 198 246 302
#     4   9  17  31  53  78 102 129 164 206 248 293
#     4   9  19  34  51  74 102 132 168 208 249 293
#     4  10  19  33  53  75 102 133 165 203 248 297
#     4  10  18  31  52  77 104 129 161 204 250 302
#
# _framework density 19.737480999999999
#
# number of rings (size 3 to 8) (size 9 to 14) (size 15 to 20)
#    0.000    2.625    0.000    3.750    0.000    3.500 
#    0.000   10.000    0.000    6.000    0.000    3.500 
#    0.000    0.000    0.000    0.000    0.000    0.000 
#
# Total GULP energy -396665.605010 kJ/mol
# GULP energy per Si atom -12395.800157 kJ/mol
# Density = 1.969256 g / cm^3
# Si number density = 19.737481 Si / 1000 Ang^3
#
#
#
# Elastic Constant Matrix: (Units=GPa)
#
#
# Indices 1 2 3 4 5 6 
#
# 1 109.0873 28.6417 87.7064 0.0000 0.0000 0.0000
# 2 28.6417 67.6466 40.1911 0.0000 0.0000 0.0000
# 3 87.7064 40.1911 215.0889 0.0000 0.0000 0.0000
# 4 0.0000 0.0000 0.0000 14.8420 0.0000 0.0000
# 5 0.0000 0.0000 0.0000 0.0000 24.5221 0.0000
# 6 0.0000 0.0000 0.0000 0.0000 0.0000 15.4332
#
#
#
# Elastic Compliance Matrix: (Units=1/GPa)
#
#
# Indices 1 2 3 4 5 6 
#
# 1 0.014119 -0.002877 -0.005220 0.000000 0.000000 0.000000
# 2 -0.002877 0.017215 -0.002044 0.000000 0.000000 0.000000
# 3 -0.005220 -0.002044 0.007160 0.000000 0.000000 0.000000
# 4 0.000000 0.000000 0.000000 0.067376 0.000000 0.000000
# 5 0.000000 0.000000 0.000000 0.000000 0.040780 0.000000
# 6 0.000000 0.000000 0.000000 0.000000 0.000000 0.064795
#
#
# Mechanical properties :
#
#
# Convention : Reuss Voigt Hill
#
# Bulk Modulus (GPa) = 54.90556 78.32235 66.61395
# Shear Modulus (GPa) = 21.02642 26.64503 23.83572
#
# Velocity S-wave (km/s) = 3.26744 3.67818 3.47888
# Velocity P-wave (km/s) = 6.48947 7.60308 7.06824
#
# Compressibility (1/GPa) = 0.01821309
#
# Stress axis : x y z
#
# Youngs Moduli (GPa) = 70.82688 58.08900 139.67359
#
# Poissons Ratio (x) = 0.16711 0.72905
# Poissons Ratio (y) = 0.20375 0.28545
# Poissons Ratio (z) = 0.36970 0.11872
#
# Static dielectric constant tensor:
#      x y z
#    x 3.607990 0.000000 0.000000 
#    y 0.000000 3.379740 0.000000 
#    z 0.000000 0.000000 4.271730 
# 
# 
# High freq. dielectric constant tensor:
#      x y z
#    x 1.762770 0.000000 0.000000 
#    y 0.000000 1.744370 0.000000 
#    z 0.000000 0.000000 1.775390 
# 
# From -- ./inp_files/33270.got.cif
#   From: 2010.03.12/outbox.cif.g09.slc.cpg/sg65_17_cif.got.tgz:33270.got - 2010.04.10 20:52:16.
