data_PCOD8266876
_publ_section_title
;
Structure prediction by ZEFSAII (Michael W. Deem and Ramdas Pophale) SiO2 
 PCOD8266876
Probable space group: C M M M
;
_chemical_formula_sum "Si O2"
_cell_formula_units_Z 72
_cell_length_a 18.395329
_cell_length_b 8.610908
_cell_length_c 23.724949
_cell_angle_alpha 90.000000
_cell_angle_beta 90.000000
_cell_angle_gamma 90.000000
_cell_volume 3758.043444
_symmetry_space_group_name_H-M "C M M M"
_symmetry_group_IT_number 65
_symmetry_cell_setting 'orthorhombic'
loop_
_space_group_symop_operation_xyz
x,y,z
-x,-y,z
x,-y,-z
-x,y,-z
-x,-y,-z
x,y,-z
-x,y,z
x,-y,z
1/2+x,1/2+y,z
1/2-x,1/2-y,z
1/2+x,1/2-y,-z
1/2-x,1/2+y,-z
1/2-x,1/2-y,-z
1/2+x,1/2+y,-z
1/2-x,1/2+y,z
1/2+x,1/2-y,z
loop_
_atom_site_type_symbol
_atom_site_label
_atom_site_fract_x
_atom_site_fract_y
_atom_site_fract_z
Si Si1 0.829601 0.681816 0.886137
Si Si2 0.414718 0.679099 0.215243
Si Si3 0.829307 0.682198 0.559418
Si Si4 0.830721 0.816395 0.000000
Si Si5 0.168996 0.315477 0.318096
O O1 0.821552 0.500000 0.894780
O O2 0.750000 0.750000 0.874423
O O3 0.880759 0.717558 0.833811
O O4 0.867386 0.754062 0.942441
O O5 0.500000 0.707492 0.215423
O O6 0.394549 0.500000 0.204914
O O7 0.384325 0.733641 0.274874
O O8 0.870049 0.732943 0.500000
O O9 0.820871 0.500000 0.559875
O O10 0.750000 0.750000 0.557764
O O11 0.864248 0.729984 0.619651
O O12 0.750000 0.750000 0.000000
O O13 0.831954 0.000000 0.000000
O O14 0.170296 0.500000 0.308037
O O15 0.250000 0.250000 0.310173
#
# Coordination Sequence:
#
# PCOD8266876 Si02
#       5
#    16  16  16   8  16
#     4  11  21  36  59  85 112 140 175 215 257 307
#     4  11  24  40  55  73 102 139 178 221 268 313
#     4   8  14  25  43  70 102 132 163 204 254 305
#     4  10  18  32  55  84 115 142 173 211 255 303
#     4  10  19  32  53  79 106 136 173 215 259 311
#
# _framework density 19.158904
#
# number of rings (size 3 to 8) (size 9 to 14) (size 15 to 20)
#    0.000    2.000    0.000    6.333    0.000    2.667 
#    0.000    0.556    0.000    4.000    0.000    4.667 
#    0.000    0.000    0.000    0.000    0.000    0.000 
#
# Total GULP energy -445994.950695 kJ/mol
# GULP energy per Si atom -12388.748630 kJ/mol
# Density = 1.911530 g / cm^3
# Si number density = 19.158904 Si / 1000 Ang^3
#
#
#
# Elastic Constant Matrix: (Units=GPa)
#
#
# Indices 1 2 3 4 5 6 
#
# 1 52.7649 34.0421 45.3850 0.0000 0.0000 0.0000
# 2 34.0421 107.9290 47.3997 0.0000 0.0000 0.0000
# 3 45.3850 47.3997 184.0523 0.0000 0.0000 0.0000
# 4 0.0000 0.0000 0.0000 32.8122 0.0000 0.0000
# 5 0.0000 0.0000 0.0000 0.0000 -3.9733 0.0000
# 6 0.0000 0.0000 0.0000 0.0000 0.0000 21.3717
#
#
#
# Elastic Compliance Matrix: (Units=1/GPa)
#
#
# Indices 1 2 3 4 5 6 
#
# 1 0.027508 -0.006424 -0.005129 0.000000 0.000000 0.000000
# 2 -0.006424 0.011947 -0.001493 0.000000 0.000000 0.000000
# 3 -0.005129 -0.001493 0.007082 0.000000 0.000000 0.000000
# 4 0.000000 0.000000 0.000000 0.030476 0.000000 0.000000
# 5 0.000000 0.000000 0.000000 0.000000 -0.251677 0.000000
# 6 0.000000 0.000000 0.000000 0.000000 0.000000 0.046791
#
#
# Mechanical properties :
#
#
# Convention : Reuss Voigt Hill
#
# Bulk Modulus (GPa) = 48.90791 66.48886 57.69839
# Shear Modulus (GPa) = -52.65027 24.57007 -14.04010
#
# Velocity S-wave (km/s) = -5.24790 3.58500 -2.71001
# Velocity P-wave (km/s) = 3.33732 7.20524 4.51541
#
# Compressibility (1/GPa) = 0.02044659
#
# Stress axis : x y z
#
# Youngs Moduli (GPa) = 36.35325 83.70236 141.19614
#
# Poissons Ratio (x) = 0.53770 0.72416
# Poissons Ratio (y) = 0.23353 0.21077
# Poissons Ratio (z) = 0.18645 0.12494
#
# Static dielectric constant tensor:
#      x y z
#    x 2.994040 0.000000 0.000000 
#    y 0.000000 3.670070 0.000000 
#    z 0.000000 0.000000 4.653960 
# 
# 
# High freq. dielectric constant tensor:
#      x y z
#    x 1.684120 0.000000 0.000000 
#    y 0.000000 1.759500 0.000000 
#    z 0.000000 0.000000 1.784880 
# 
# From -- ./inp_files/70298.got.cif
#   From: 2010.03.12/outbox.cif.g09.slc.cpg/sg65_36_cif.got.tgz:70298.got - 2010.04.10 20:52:16.
