data_PCOD8266633
_publ_section_title
;
Structure prediction by ZEFSAII (Michael W. Deem and Ramdas Pophale) SiO2 
 PCOD8266633
Probable space group: C M M M
;
_chemical_formula_sum "Si O2"
_cell_formula_units_Z 88
_cell_length_a 14.134157
_cell_length_b 24.665542
_cell_length_c 13.115120
_cell_angle_alpha 90.000000
_cell_angle_beta 90.000000
_cell_angle_gamma 90.000000
_cell_volume 4572.280260
_symmetry_space_group_name_H-M "C M M M"
_symmetry_group_IT_number 65
_symmetry_cell_setting 'orthorhombic'
loop_
_space_group_symop_operation_xyz
x,y,z
-x,-y,z
x,-y,-z
-x,y,-z
-x,-y,-z
x,y,-z
-x,y,z
x,-y,z
1/2+x,1/2+y,z
1/2-x,1/2-y,z
1/2+x,1/2-y,-z
1/2-x,1/2+y,-z
1/2-x,1/2-y,-z
1/2+x,1/2+y,-z
1/2-x,1/2+y,z
1/2+x,1/2-y,z
loop_
_atom_site_type_symbol
_atom_site_label
_atom_site_fract_x
_atom_site_fract_y
_atom_site_fract_z
Si Si1 0.887895 0.621181 0.202821
Si Si2 0.392718 0.438936 0.728451
Si Si3 0.112264 0.731189 0.114029
Si Si4 0.612593 0.061293 0.000000
Si Si5 0.887450 0.850509 0.113658
Si Si6 0.789278 0.561885 0.614502
O O1 0.854194 0.683778 0.190432
O O2 0.849364 0.589547 0.103151
O O3 0.845262 0.598967 0.306952
O O4 0.000000 0.615814 0.210821
O O5 0.500000 0.423891 0.695468
O O6 0.389662 0.500000 0.774011
O O7 0.350107 0.397465 0.812061
O O8 0.324088 0.434235 0.631307
O O9 0.149706 0.790700 0.149100
O O10 0.000000 0.732219 0.110765
O O11 0.149647 0.718411 0.000000
O O12 0.500000 0.064522 0.000000
O O13 0.649844 0.000000 0.000000
O O14 0.000000 0.851139 0.114483
O O15 0.850298 0.863031 0.000000
O O16 0.810938 0.581987 0.500000
O O17 0.823385 0.500000 0.629266
#
# Coordination Sequence:
#
# PCOD8266633 Si02
#       6
#    16  16  16   8  16  16
#     4  10  18  31  52  76 106 141 171 205 249 298
#     4   9  18  34  55  76  98 128 168 215 267 312
#     4   8  13  25  47  75 105 138 173 204 240 294
#     4   9  16  26  44  72 102 131 166 206 246 291
#     4   8  14  26  48  77 107 136 165 202 251 309
#     4  10  22  38  53  73 101 132 174 222 259 302
#
# _framework density 19.246413
#
# number of rings (size 3 to 8) (size 9 to 14) (size 15 to 20)
#    0.000    3.000    0.909    1.636    0.000    2.182 
#    1.636    5.455    0.000    4.364    0.000    5.091 
#    0.000    0.000    0.000    0.000    0.000    0.000 
#
# Total GULP energy -545294.093780 kJ/mol
# GULP energy per Si atom -12393.047586 kJ/mol
# Density = 1.920261 g / cm^3
# Si number density = 19.246413 Si / 1000 Ang^3
#
#
#
# Elastic Constant Matrix: (Units=GPa)
#
#
# Indices 1 2 3 4 5 6 
#
# 1 36.6473 25.7086 34.8340 0.0000 0.0000 0.0000
# 2 25.7086 124.2631 73.9616 0.0000 0.0000 0.0000
# 3 34.8340 73.9616 131.6138 0.0000 0.0000 0.0000
# 4 0.0000 0.0000 0.0000 23.8578 0.0000 0.0000
# 5 0.0000 0.0000 0.0000 0.0000 23.3224 0.0000
# 6 0.0000 0.0000 0.0000 0.0000 0.0000 13.6933
#
#
#
# Elastic Compliance Matrix: (Units=1/GPa)
#
#
# Indices 1 2 3 4 5 6 
#
# 1 0.037074 -0.002750 -0.008267 0.000000 0.000000 0.000000
# 2 -0.002750 0.012296 -0.006182 0.000000 0.000000 0.000000
# 3 -0.008267 -0.006182 0.013260 0.000000 0.000000 0.000000
# 4 0.000000 0.000000 0.000000 0.041915 0.000000 0.000000
# 5 0.000000 0.000000 0.000000 0.000000 0.042877 0.000000
# 6 0.000000 0.000000 0.000000 0.000000 0.000000 0.073029
#
#
# Mechanical properties :
#
#
# Convention : Reuss Voigt Hill
#
# Bulk Modulus (GPa) = 35.42022 62.39251 48.90637
# Shear Modulus (GPa) = 18.92081 22.70936 20.81508
#
# Velocity S-wave (km/s) = 3.13882 3.43873 3.29219
# Velocity P-wave (km/s) = 5.61958 6.94655 6.31800
#
# Compressibility (1/GPa) = 0.02823246
#
# Stress axis : x y z
#
# Youngs Moduli (GPa) = 26.97303 81.32826 75.41420
#
# Poissons Ratio (x) = 0.22362 0.62346
# Poissons Ratio (y) = 0.07416 0.46621
# Poissons Ratio (z) = 0.22299 0.50278
#
# Static dielectric constant tensor:
#      x y z
#    x 3.349210 0.000000 0.000000 
#    y 0.000000 3.951240 0.000000 
#    z 0.000000 0.000000 3.272900 
# 
# 
# High freq. dielectric constant tensor:
#      x y z
#    x 1.747560 0.000000 0.000000 
#    y 0.000000 1.755670 0.000000 
#    z 0.000000 0.000000 1.708080 
# 
# From -- ./inp_files/25130.got.cif
#   From: 2010.03.12/outbox.cif.g09.slc.cpg/sg65_13_cif.got.tgz:25130.got - 2010.04.10 20:52:16.
