data_PCOD8266804
_publ_section_title
;
Structure prediction by ZEFSAII (Michael W. Deem and Ramdas Pophale) SiO2 
 PCOD8266804
Probable space group: C M M M
;
_chemical_formula_sum "Si O2"
_cell_formula_units_Z 72
_cell_length_a 8.776181
_cell_length_b 19.722273
_cell_length_c 22.503507
_cell_angle_alpha 90.000000
_cell_angle_beta 90.000000
_cell_angle_gamma 90.000000
_cell_volume 3895.047359
_symmetry_space_group_name_H-M "C M M M"
_symmetry_group_IT_number 65
_symmetry_cell_setting 'orthorhombic'
loop_
_space_group_symop_operation_xyz
x,y,z
-x,-y,z
x,-y,-z
-x,y,-z
-x,-y,-z
x,y,-z
-x,y,z
x,-y,z
1/2+x,1/2+y,z
1/2-x,1/2-y,z
1/2+x,1/2-y,-z
1/2-x,1/2+y,-z
1/2-x,1/2-y,-z
1/2+x,1/2+y,-z
1/2-x,1/2+y,z
1/2+x,1/2-y,z
loop_
_atom_site_type_symbol
_atom_site_label
_atom_site_fract_x
_atom_site_fract_y
_atom_site_fract_z
Si Si1 0.322064 0.318909 0.066682
Si Si2 0.181743 0.675227 0.500000
Si Si3 0.320252 0.323884 0.380662
Si Si4 0.326732 0.078319 0.152129
Si Si5 0.676333 0.921867 0.711152
O O1 0.500000 0.308461 0.065799
O O2 0.250000 0.250000 0.092154
O O3 0.283424 0.380578 0.109535
O O4 0.260310 0.333898 0.000000
O O5 0.250000 0.750000 0.500000
O O6 0.245972 0.641326 0.560310
O O7 0.000000 0.674378 0.500000
O O8 0.500000 0.315903 0.389364
O O9 0.250000 0.250000 0.367766
O O10 0.285392 0.373549 0.326410
O O11 0.500000 0.100087 0.139628
O O12 0.285024 0.092779 0.220373
O O13 0.302392 0.000000 0.137159
O O14 0.500000 0.905322 0.697668
O O15 0.711396 0.000000 0.695509
#
# Coordination Sequence:
#
# PCOD8266804 Si02
#       5
#    16   8  16  16  16
#     4  10  21  36  54  77 106 139 174 215 262 310
#     4  10  18  32  53  76 105 138 173 215 263 309
#     4  11  21  34  54  80 108 138 176 217 259 309
#     4   9  19  36  57  79 104 137 175 214 258 311
#     4   9  19  37  57  77 105 139 174 214 262 312
#
# _framework density 18.485014
#
# number of rings (size 3 to 8) (size 9 to 14) (size 15 to 20)
#    0.000    2.222    0.000    6.333    0.000    4.444 
#    0.000    5.000    0.000    3.333    0.000    0.000 
#    0.000    0.000    0.000    0.000    0.000    0.000 
#
# Total GULP energy -446403.459165 kJ/mol
# GULP energy per Si atom -12400.096088 kJ/mol
# Density = 1.844294 g / cm^3
# Si number density = 18.485014 Si / 1000 Ang^3
#
#
#
# Elastic Constant Matrix: (Units=GPa)
#
#
# Indices 1 2 3 4 5 6 
#
# 1 115.2389 41.6939 46.8963 0.0000 0.0000 0.0000
# 2 41.6939 76.5304 57.9265 0.0000 0.0000 0.0000
# 3 46.8963 57.9265 96.2718 0.0000 0.0000 0.0000
# 4 0.0000 0.0000 0.0000 882.7105 0.0000 0.0000
# 5 0.0000 0.0000 0.0000 0.0000 35.1680 0.0000
# 6 0.0000 0.0000 0.0000 0.0000 0.0000 32.7670
#
#
#
# Elastic Compliance Matrix: (Units=1/GPa)
#
#
# Indices 1 2 3 4 5 6 
#
# 1 0.011359 -0.003673 -0.003323 0.000000 0.000000 0.000000
# 2 -0.003673 0.025182 -0.013363 0.000000 0.000000 0.000000
# 3 -0.003323 -0.013363 0.020046 0.000000 0.000000 0.000000
# 4 0.000000 0.000000 0.000000 0.001133 0.000000 0.000000
# 5 0.000000 0.000000 0.000000 0.000000 0.028435 0.000000
# 6 0.000000 0.000000 0.000000 0.000000 0.000000 0.030519
#
#
# Mechanical properties :
#
#
# Convention : Reuss Voigt Hill
#
# Bulk Modulus (GPa) = 63.01395 64.56383 63.78889
# Shear Modulus (GPa) = 30.73486 199.56407 115.14946
#
# Velocity S-wave (km/s) = 4.08203 10.40165 7.90118
# Velocity P-wave (km/s) = 7.50870 13.38890 10.85456
#
# Compressibility (1/GPa) = 0.01586950
#
# Stress axis : x y z
#
# Youngs Moduli (GPa) = 88.03681 39.71055 49.88421
#
# Poissons Ratio (x) = 0.14586 0.16577
# Poissons Ratio (y) = 0.32336 0.66660
# Poissons Ratio (z) = 0.29256 0.53065
#
# Static dielectric constant tensor:
#      x y z
#    x 3.332460 0.000000 0.000000 
#    y 0.000000 3.179700 0.000000 
#    z 0.000000 0.000000 3.701070 
# 
# 
# High freq. dielectric constant tensor:
#      x y z
#    x 1.721890 0.000000 0.000000 
#    y 0.000000 1.700650 0.000000 
#    z 0.000000 0.000000 1.726090 
# 
# From -- ./inp_files/59286.got.cif
#   From: 2010.03.12/outbox.cif.g09.slc.cpg/sg65_30_cif.got.tgz:59286.got - 2010.04.10 20:52:16.
