data_PCOD8266897
_publ_section_title
;
Structure prediction by ZEFSAII (Michael W. Deem and Ramdas Pophale) SiO2 
 PCOD8266897
Probable space group: C M M M
;
_chemical_formula_sum "Si O2"
_cell_formula_units_Z 112
_cell_length_a 29.114611
_cell_length_b 14.794756
_cell_length_c 14.108185
_cell_angle_alpha 90.000000
_cell_angle_beta 90.000000
_cell_angle_gamma 90.000000
_cell_volume 6077.009914
_symmetry_space_group_name_H-M "C M M M"
_symmetry_group_IT_number 65
_symmetry_cell_setting 'orthorhombic'
loop_
_space_group_symop_operation_xyz
x,y,z
-x,-y,z
x,-y,-z
-x,y,-z
-x,-y,-z
x,y,-z
-x,y,z
x,-y,z
1/2+x,1/2+y,z
1/2-x,1/2-y,z
1/2+x,1/2-y,-z
1/2-x,1/2+y,-z
1/2-x,1/2-y,-z
1/2+x,1/2+y,-z
1/2-x,1/2+y,z
1/2+x,1/2-y,z
loop_
_atom_site_type_symbol
_atom_site_label
_atom_site_fract_x
_atom_site_fract_y
_atom_site_fract_z
Si Si1 0.551245 0.249207 0.252010
Si Si2 0.866998 0.264509 0.888856
Si Si3 0.554585 0.601025 0.605370
Si Si4 0.178358 0.393075 0.601443
Si Si5 0.073844 0.604060 0.392976
Si Si6 0.792621 0.392870 0.801795
Si Si7 0.196908 0.101692 0.889361
O O1 0.500000 0.273229 0.213563
O O2 0.584448 0.228349 0.164245
O O3 0.573041 0.330547 0.314818
O O4 0.544808 0.162361 0.319371
O O5 0.833220 0.345454 0.859854
O O6 0.844315 0.168256 0.862024
O O7 0.877200 0.271701 0.000000
O O8 0.572735 0.628105 0.500000
O O9 0.500000 0.604746 0.604413
O O10 0.571679 0.500000 0.630735
O O11 0.197387 0.354596 0.500000
O O12 0.179231 0.500000 0.595707
O O13 0.126117 0.361858 0.615343
O O14 0.207266 0.360009 0.691933
O O15 0.055525 0.618751 0.500000
O O16 0.068714 0.500000 0.363400
O O17 0.800677 0.500000 0.812129
O O18 0.743255 0.363351 0.840093
O O19 0.183902 0.000000 0.856395
O O20 0.207225 0.104458 0.000000
#
# Coordination Sequence:
#
# PCOD8266897 Si02
#       7
#    16  16  16  16  16  16  16
#     4  11  22  34  51  75 103 141 183 216 255 311
#     4  11  23  37  53  74 103 138 176 223 270 308
#     4   8  15  30  52  76  99 123 159 212 267 312
#     4   8  14  26  47  75 106 139 170 198 236 295
#     4   9  17  31  51  76 107 140 175 215 255 298
#     4  10  18  32  57  84 107 134 168 208 258 316
#     4   9  19  36  58  82 102 123 162 219 274 317
#
# _framework density 18.430116000000002
#
# number of rings (size 3 to 8) (size 9 to 14) (size 15 to 20)
#    0.000    2.571    1.429    2.571    0.000    4.000 
#    0.000    0.714    0.000    3.429    0.000    8.000 
#    0.000    0.000    0.000    0.000    0.000    0.000 
#
# Total GULP energy -694116.195825 kJ/mol
# GULP energy per Si atom -12394.932068 kJ/mol
# Density = 1.838817 g / cm^3
# Si number density = 18.430116 Si / 1000 Ang^3
#
#
#
# Elastic Constant Matrix: (Units=GPa)
#
#
# Indices 1 2 3 4 5 6 
#
# 1 73.7228 26.5744 48.1137 0.0000 0.0000 0.0000
# 2 26.5744 72.5711 41.2304 0.0000 0.0000 0.0000
# 3 48.1137 41.2304 97.4261 0.0000 0.0000 0.0000
# 4 0.0000 0.0000 0.0000 22.6512 0.0000 0.0000
# 5 0.0000 0.0000 0.0000 0.0000 22.2826 0.0000
# 6 0.0000 0.0000 0.0000 0.0000 0.0000 20.1361
#
#
#
# Elastic Compliance Matrix: (Units=1/GPa)
#
#
# Indices 1 2 3 4 5 6 
#
# 1 0.020300 -0.002288 -0.009057 0.000000 0.000000 0.000000
# 2 -0.002288 0.018399 -0.006657 0.000000 0.000000 0.000000
# 3 -0.009057 -0.006657 0.017554 0.000000 0.000000 0.000000
# 4 0.000000 0.000000 0.000000 0.044148 0.000000 0.000000
# 5 0.000000 0.000000 0.000000 0.000000 0.044878 0.000000
# 6 0.000000 0.000000 0.000000 0.000000 0.000000 0.049662
#
#
# Mechanical properties :
#
#
# Convention : Reuss Voigt Hill
#
# Bulk Modulus (GPa) = 49.38199 52.83969 51.11084
# Shear Modulus (GPa) = 21.03548 21.53407 21.28477
#
# Velocity S-wave (km/s) = 3.38207 3.42192 3.40206
# Velocity P-wave (km/s) = 6.48873 6.65922 6.57453
#
# Compressibility (1/GPa) = 0.02025030
#
# Stress axis : x y z
#
# Youngs Moduli (GPa) = 49.26171 54.34991 56.96743
#
# Poissons Ratio (x) = 0.12435 0.51594
# Poissons Ratio (y) = 0.11271 0.37921
# Poissons Ratio (z) = 0.44615 0.36179
#
# Static dielectric constant tensor:
#      x y z
#    x 3.077490 0.000000 0.000000 
#    y 0.000000 3.457020 0.000000 
#    z 0.000000 0.000000 -2.786540 
# 
# 
# High freq. dielectric constant tensor:
#      x y z
#    x 1.685210 0.000000 0.000000 
#    y 0.000000 1.711280 0.000000 
#    z 0.000000 0.000000 1.713250 
# 
# From -- ./inp_files/41119.got.cif
#   From: 2010.03.12/outbox.cif.g09.slc.cpg/sg65_21_cif.got.tgz:41119.got - 2010.04.10 20:52:16.
