data_PCOD8266888
_publ_section_title
;
Structure prediction by ZEFSAII (Michael W. Deem and Ramdas Pophale) SiO2 
 PCOD8266888
Probable space group: C M M M
;
_chemical_formula_sum "Si O2"
_cell_formula_units_Z 88
_cell_length_a 8.958453
_cell_length_b 28.668341
_cell_length_c 18.062196
_cell_angle_alpha 90.000000
_cell_angle_beta 90.000000
_cell_angle_gamma 90.000000
_cell_volume 4638.805162
_symmetry_space_group_name_H-M "C M M M"
_symmetry_group_IT_number 65
_symmetry_cell_setting 'orthorhombic'
loop_
_space_group_symop_operation_xyz
x,y,z
-x,-y,z
x,-y,-z
-x,y,-z
-x,-y,-z
x,y,-z
-x,y,z
x,-y,z
1/2+x,1/2+y,z
1/2-x,1/2-y,z
1/2+x,1/2-y,-z
1/2-x,1/2+y,-z
1/2-x,1/2-y,-z
1/2+x,1/2+y,-z
1/2-x,1/2+y,z
1/2+x,1/2-y,z
loop_
_atom_site_type_symbol
_atom_site_label
_atom_site_fract_x
_atom_site_fract_y
_atom_site_fract_z
Si Si1 0.323022 0.948129 0.216392
Si Si2 0.675844 0.297966 0.685145
Si Si3 0.674427 0.297179 0.143957
Si Si4 0.176995 0.447571 0.500000
Si Si5 0.827989 0.614781 0.083447
Si Si6 0.822586 0.390365 0.642504
O O1 0.500000 0.951567 0.220253
O O2 0.270189 0.925015 0.139407
O O3 0.264456 0.917403 0.284766
O O4 0.253523 0.000000 0.221055
O O5 0.500000 0.295039 0.671965
O O6 0.750000 0.250000 0.657230
O O7 0.717360 0.306754 0.770814
O O8 0.744813 0.340072 0.637823
O O9 0.500000 0.291704 0.132966
O O10 0.750000 0.250000 0.115310
O O11 0.732535 0.338838 0.093471
O O12 0.244160 0.500000 0.500000
O O13 0.232202 0.420188 0.427605
O O14 0.000000 0.450767 0.500000
O O15 0.000000 0.626971 0.100435
O O16 0.807038 0.596004 0.000000
O O17 0.000000 0.383309 0.643374
#
# Coordination Sequence:
#
# PCOD8266888 Si02
#       6
#    16  16  16   8  16  16
#     4   9  17  30  51  77 103 136 177 218 261 308
#     4  10  20  34  55  82 109 139 178 220 264 317
#     4  10  20  34  54  77 104 137 175 219 266 318
#     4   9  18  32  54  87 118 143 178 223 266 309
#     4  10  20  33  50  75 107 139 175 220 265 312
#     4  10  18  32  56  82 111 143 176 217 263 313
#
# _framework density 18.970400999999999
#
# number of rings (size 3 to 8) (size 9 to 14) (size 15 to 20)
#    0.000    2.273    1.818    1.636    0.000    4.727 
#    0.000    2.727    0.000    4.364    0.000    1.273 
#    0.000    0.000    0.000    0.000    0.000    0.000 
#
# Total GULP energy -545706.468711 kJ/mol
# GULP energy per Si atom -12402.419743 kJ/mol
# Density = 1.892722 g / cm^3
# Si number density = 18.970401 Si / 1000 Ang^3
#
#
#
# Elastic Constant Matrix: (Units=GPa)
#
#
# Indices 1 2 3 4 5 6 
#
# 1 48.9498 40.0924 27.7057 0.0000 0.0000 0.0000
# 2 40.0924 171.6058 74.1215 0.0000 0.0000 0.0000
# 3 27.7057 74.1215 121.0913 0.0000 0.0000 0.0000
# 4 0.0000 0.0000 0.0000 27.1767 0.0000 0.0000
# 5 0.0000 0.0000 0.0000 0.0000 14.7348 0.0000
# 6 0.0000 0.0000 0.0000 0.0000 0.0000 25.0093
#
#
#
# Elastic Compliance Matrix: (Units=1/GPa)
#
#
# Indices 1 2 3 4 5 6 
#
# 1 0.026061 -0.004776 -0.003039 0.000000 0.000000 0.000000
# 2 -0.004776 0.008797 -0.004292 0.000000 0.000000 0.000000
# 3 -0.003039 -0.004292 0.011581 0.000000 0.000000 0.000000
# 4 0.000000 0.000000 0.000000 0.036796 0.000000 0.000000
# 5 0.000000 0.000000 0.000000 0.000000 0.067867 0.000000
# 6 0.000000 0.000000 0.000000 0.000000 0.000000 0.039985
#
#
# Mechanical properties :
#
#
# Convention : Reuss Voigt Hill
#
# Bulk Modulus (GPa) = 44.99577 69.49845 57.24711
# Shear Modulus (GPa) = 22.45077 26.69930 24.57503
#
# Velocity S-wave (km/s) = 3.44388 3.75563 3.60313
# Velocity P-wave (km/s) = 6.29160 7.45125 6.89584
#
# Compressibility (1/GPa) = 0.02222431
#
# Stress axis : x y z
#
# Youngs Moduli (GPa) = 38.37141 113.67593 86.34951
#
# Poissons Ratio (x) = 0.54290 0.26245
# Poissons Ratio (y) = 0.18326 0.37061
# Poissons Ratio (z) = 0.11663 0.48790
#
# Static dielectric constant tensor:
#      x y z
#    x 3.100490 0.000000 0.000000 
#    y 0.000000 3.627420 0.000000 
#    z 0.000000 0.000000 3.452320 
# 
# 
# High freq. dielectric constant tensor:
#      x y z
#    x 1.703960 0.000000 0.000000 
#    y 0.000000 1.747920 0.000000 
#    z 0.000000 0.000000 1.728390 
# 
# From -- ./inp_files/50341.got.cif
#   From: 2010.03.12/outbox.cif.g09.slc.cpg/sg65_26_cif.got.tgz:50341.got - 2010.04.10 20:52:16.
