data_PCOD8266679
_publ_section_title
;
Structure prediction by ZEFSAII (Michael W. Deem and Ramdas Pophale) SiO2 
 PCOD8266679
Probable space group: C M M M
;
_chemical_formula_sum "Si O2"
_cell_formula_units_Z 104
_cell_length_a 27.834513
_cell_length_b 23.095065
_cell_length_c 8.773913
_cell_angle_alpha 90.000000
_cell_angle_beta 90.000000
_cell_angle_gamma 90.000000
_cell_volume 5640.221241
_symmetry_space_group_name_H-M "C M M M"
_symmetry_group_IT_number 65
_symmetry_cell_setting 'orthorhombic'
loop_
_space_group_symop_operation_xyz
x,y,z
-x,-y,z
x,-y,-z
-x,y,-z
-x,-y,-z
x,y,-z
-x,y,z
x,-y,z
1/2+x,1/2+y,z
1/2-x,1/2-y,z
1/2+x,1/2-y,-z
1/2-x,1/2+y,-z
1/2-x,1/2-y,-z
1/2+x,1/2+y,-z
1/2-x,1/2+y,z
1/2+x,1/2-y,z
loop_
_atom_site_type_symbol
_atom_site_label
_atom_site_fract_x
_atom_site_fract_y
_atom_site_fract_z
Si Si1 0.000000 0.568862 0.328415
Si Si2 0.446090 0.565256 0.318913
Si Si3 0.355885 0.363798 0.321956
Si Si4 0.734452 0.563410 0.321674
Si Si5 0.403768 0.068659 0.172709
Si Si6 0.804803 0.246034 0.820404
Si Si7 0.178180 0.362882 0.321117
O O1 0.954248 0.591987 0.236035
O O2 0.000000 0.500000 0.334632
O O3 0.000000 0.594238 0.500000
O O4 0.442513 0.563732 0.500000
O O5 0.500000 0.584035 0.267657
O O6 0.435123 0.500000 0.257783
O O7 0.407275 0.612571 0.258131
O O8 0.358904 0.348958 0.500000
O O9 0.319145 0.415711 0.288270
O O10 0.336677 0.306939 0.239081
O O11 0.744505 0.558434 0.500000
O O12 0.741147 0.500000 0.245940
O O13 0.772639 0.609115 0.254749
O O14 0.363810 0.092487 0.285834
O O15 0.401521 0.000000 0.179356
O O16 0.396529 0.090934 0.000000
O O17 0.750000 0.250000 0.754595
O O18 0.832108 0.303579 0.767153
O O19 0.803267 0.241445 0.000000
O O20 0.181110 0.350155 0.500000
#
# Coordination Sequence:
#
# PCOD8266679 Si02
#       7
#     8  16  16  16  16  16  16
#     4   9  17  31  53  79 105 137 179 219 254 301
#     4   8  14  26  49  84 119 144 170 213 269 323
#     4  10  18  31  54  79 105 139 181 220 258 313
#     4   9  17  28  46  76 108 134 164 209 262 313
#     4  10  20  34  53  79 112 145 174 211 268 329
#     4  11  23  38  54  72 101 139 180 223 272 327
#     4  11  21  34  54  77 104 136 179 228 268 315
#
# _framework density 18.438993
#
# number of rings (size 3 to 8) (size 9 to 14) (size 15 to 20)
#    0.000    2.231    1.538    3.000    0.000    4.923 
#    0.000    0.000    1.692    3.231    0.000    1.077 
#    0.000    0.000    0.000    0.000    0.000    0.000 
#
# Total GULP energy -644624.781415 kJ/mol
# GULP energy per Si atom -12396.630412 kJ/mol
# Density = 1.839702 g / cm^3
# Si number density = 18.438993 Si / 1000 Ang^3
#
#
#
# Elastic Constant Matrix: (Units=GPa)
#
#
# Indices 1 2 3 4 5 6 
#
# 1 135.2037 51.9323 30.5323 0.0000 0.0000 0.0000
# 2 51.9323 104.2044 33.7885 0.0000 0.0000 0.0000
# 3 30.5323 33.7885 44.2243 0.0000 0.0000 0.0000
# 4 0.0000 0.0000 0.0000 15.7974 0.0000 0.0000
# 5 0.0000 0.0000 0.0000 0.0000 20.9167 0.0000
# 6 0.0000 0.0000 0.0000 0.0000 0.0000 20.9060
#
#
#
# Elastic Compliance Matrix: (Units=1/GPa)
#
#
# Indices 1 2 3 4 5 6 
#
# 1 0.009644 -0.003519 -0.003970 0.000000 0.000000 0.000000
# 2 -0.003519 0.014041 -0.008298 0.000000 0.000000 0.000000
# 3 -0.003970 -0.008298 0.031693 0.000000 0.000000 0.000000
# 4 0.000000 0.000000 0.000000 0.063302 0.000000 0.000000
# 5 0.000000 0.000000 0.000000 0.000000 0.047809 0.000000
# 6 0.000000 0.000000 0.000000 0.000000 0.000000 0.047833
#
#
# Mechanical properties :
#
#
# Convention : Reuss Voigt Hill
#
# Bulk Modulus (GPa) = 42.00958 57.34874 49.67916
# Shear Modulus (GPa) = 19.69819 22.68263 21.19041
#
# Velocity S-wave (km/s) = 3.27202 3.51115 3.39369
# Velocity P-wave (km/s) = 6.09157 6.89978 6.50823
#
# Compressibility (1/GPa) = 0.02380409
#
# Stress axis : x y z
#
# Youngs Moduli (GPa) = 103.68611 71.21941 31.55317
#
# Poissons Ratio (x) = 0.25065 0.12526
# Poissons Ratio (y) = 0.36491 0.26183
# Poissons Ratio (z) = 0.41160 0.59098
#
# Static dielectric constant tensor:
#      x y z
#    x 3.611680 0.000000 0.000000 
#    y 0.000000 3.341120 0.000000 
#    z 0.000000 0.000000 3.133540 
# 
# 
# High freq. dielectric constant tensor:
#      x y z
#    x 1.719770 0.000000 0.000000 
#    y 0.000000 1.702740 0.000000 
#    z 0.000000 0.000000 1.687320 
# 
# From -- ./inp_files/16449.got.cif
#   From: 2010.03.12/outbox.cif.g09.slc.cpg/sg65_9_cif.got.tgz:16449.got - 2010.04.10 20:52:16.
