data_PCOD8266825
_publ_section_title
;
Structure prediction by ZEFSAII (Michael W. Deem and Ramdas Pophale) SiO2 
 PCOD8266825
Probable space group: C M M M
;
_chemical_formula_sum "Si O2"
_cell_formula_units_Z 80
_cell_length_a 22.713954
_cell_length_b 17.057498
_cell_length_c 10.541965
_cell_angle_alpha 90.000000
_cell_angle_beta 90.000000
_cell_angle_gamma 90.000000
_cell_volume 4084.412917
_symmetry_space_group_name_H-M "C M M M"
_symmetry_group_IT_number 65
_symmetry_cell_setting 'orthorhombic'
loop_
_space_group_symop_operation_xyz
x,y,z
-x,-y,z
x,-y,-z
-x,y,-z
-x,-y,-z
x,y,-z
-x,y,z
x,-y,z
1/2+x,1/2+y,z
1/2-x,1/2-y,z
1/2+x,1/2-y,-z
1/2-x,1/2+y,-z
1/2-x,1/2-y,-z
1/2+x,1/2+y,-z
1/2-x,1/2+y,z
1/2+x,1/2-y,z
loop_
_atom_site_type_symbol
_atom_site_label
_atom_site_fract_x
_atom_site_fract_y
_atom_site_fract_z
Si Si1 0.069221 0.912960 0.000000
Si Si2 0.625720 0.155848 0.145910
Si Si3 0.657648 0.410634 0.359454
Si Si4 0.930148 0.810722 0.760432
Si Si5 0.933662 0.500000 0.150805
Si Si6 0.251658 0.590822 0.142615
O O1 0.088984 0.864416 0.121490
O O2 0.000000 0.923568 0.000000
O O3 0.099014 0.000000 0.000000
O O4 0.599943 0.226359 0.228152
O O5 0.597469 0.077366 0.204334
O O6 0.695888 0.148028 0.157715
O O7 0.606315 0.168487 0.000000
O O8 0.686113 0.402443 0.500000
O O9 0.638434 0.500000 0.333667
O O10 0.599316 0.356096 0.357442
O O11 0.703060 0.382678 0.251041
O O12 0.000000 0.801928 0.743055
O O13 0.000000 0.500000 0.199346
O O14 0.928310 0.500000 0.000000
O O15 0.232307 0.500000 0.160351
O O16 0.278501 0.602203 0.000000
#
# Coordination Sequence:
#
# PCOD8266825 Si02
#       6
#     8  16  16  16   8  16
#     4   9  18  32  50  74 109 149 187 229 277 333
#     4  10  18  32  53  84 123 157 192 238 289 344
#     4  10  23  42  62  84 112 150 198 249 300 354
#     4  11  22  35  54  84 119 152 191 239 290 347
#     4   9  16  26  48  80 119 163 196 227 282 348
#     4   9  18  35  60  87 116 152 195 243 291 345
#
# _framework density 19.586656999999999
#
# number of rings (size 3 to 8) (size 9 to 14) (size 15 to 20)
#    0.000    2.200    2.000    1.200    1.400    3.200 
#    0.000    5.000    0.000    0.000    0.000    0.000 
#    0.000    3.200    0.000    0.000    0.000    0.000 
#
# Total GULP energy -495910.323623 kJ/mol
# GULP energy per Si atom -12397.758091 kJ/mol
# Density = 1.954208 g / cm^3
# Si number density = 19.586657 Si / 1000 Ang^3
#
#
#
# Elastic Constant Matrix: (Units=GPa)
#
#
# Indices 1 2 3 4 5 6 
#
# 1 96.2425 51.9017 54.3033 0.0000 0.0000 0.0000
# 2 51.9017 121.4051 37.8859 0.0000 0.0000 0.0000
# 3 54.3033 37.8859 87.6623 0.0000 0.0000 0.0000
# 4 0.0000 0.0000 0.0000 22.7143 0.0000 0.0000
# 5 0.0000 0.0000 0.0000 0.0000 13.9600 0.0000
# 6 0.0000 0.0000 0.0000 0.0000 0.0000 32.6486
#
#
#
# Elastic Compliance Matrix: (Units=1/GPa)
#
#
# Indices 1 2 3 4 5 6 
#
# 1 0.018213 -0.004930 -0.009151 0.000000 0.000000 0.000000
# 2 -0.004930 0.010856 -0.001637 0.000000 0.000000 0.000000
# 3 -0.009151 -0.001637 0.017784 0.000000 0.000000 0.000000
# 4 0.000000 0.000000 0.000000 0.044025 0.000000 0.000000
# 5 0.000000 0.000000 0.000000 0.000000 0.071633 0.000000
# 6 0.000000 0.000000 0.000000 0.000000 0.000000 0.030629
#
#
# Mechanical properties :
#
#
# Convention : Reuss Voigt Hill
#
# Bulk Modulus (GPa) = 64.87524 65.94351 65.40937
# Shear Modulus (GPa) = 21.76600 24.61251 23.18925
#
# Velocity S-wave (km/s) = 3.33718 3.54869 3.44456
# Velocity P-wave (km/s) = 6.93131 7.10856 7.02050
#
# Compressibility (1/GPa) = 0.01541420
#
# Stress axis : x y z
#
# Youngs Moduli (GPa) = 54.90674 92.11809 56.23057
#
# Poissons Ratio (x) = 0.45417 0.51458
# Poissons Ratio (y) = 0.27071 0.09207
# Poissons Ratio (z) = 0.50247 0.15084
#
# Static dielectric constant tensor:
#      x y z
#    x 3.454450 0.000000 0.000000 
#    y 0.000000 3.621690 0.000000 
#    z 0.000000 0.000000 3.304170 
# 
# 
# High freq. dielectric constant tensor:
#      x y z
#    x 1.762940 0.000000 0.000000 
#    y 0.000000 1.769470 0.000000 
#    z 0.000000 0.000000 1.721210 
# 
# From -- ./inp_files/30452.got.cif
#   From: 2010.03.12/outbox.cif.g09.slc.cpg/sg65_16_cif.got.tgz:30452.got - 2010.04.10 20:52:16.
