data_PCOD8266095
_publ_section_title
;
Structure prediction by ZEFSAII (Michael W. Deem and Ramdas Pophale) SiO2 
 PCOD8266095
Probable space group: C M M M
;
_chemical_formula_sum "Si O2"
_cell_formula_units_Z 104
_cell_length_a 9.081297
_cell_length_b 28.942578
_cell_length_c 22.889551
_cell_angle_alpha 90.000000
_cell_angle_beta 90.000000
_cell_angle_gamma 90.000000
_cell_volume 6016.201386
_symmetry_space_group_name_H-M "C M M M"
_symmetry_group_IT_number 65
_symmetry_cell_setting 'orthorhombic'
loop_
_space_group_symop_operation_xyz
x,y,z
-x,-y,z
x,-y,-z
-x,y,-z
-x,-y,-z
x,y,-z
-x,y,z
x,-y,z
1/2+x,1/2+y,z
1/2-x,1/2-y,z
1/2+x,1/2-y,-z
1/2-x,1/2+y,-z
1/2-x,1/2-y,-z
1/2+x,1/2+y,-z
1/2-x,1/2+y,z
1/2+x,1/2-y,z
loop_
_atom_site_type_symbol
_atom_site_label
_atom_site_fract_x
_atom_site_fract_y
_atom_site_fract_z
Si Si1 0.327651 0.298603 0.226992
Si Si2 0.175342 0.050440 0.845095
Si Si3 0.328812 0.203156 0.432212
Si Si4 0.174973 0.853251 0.113994
Si Si5 0.174331 0.949472 0.286235
Si Si6 0.672624 0.642892 0.658658
Si Si7 0.824341 0.200347 0.000000
O O1 0.500000 0.290113 0.220531
O O2 0.250000 0.250000 0.231270
O O3 0.266282 0.326221 0.170859
O O4 0.289517 0.326963 0.284796
O O5 0.233231 0.093409 0.884289
O O6 0.236553 0.057164 0.779288
O O7 0.000000 0.051280 0.843538
O O8 0.228243 0.000000 0.869497
O O9 0.298719 0.193255 0.500000
O O10 0.500000 0.208719 0.418211
O O11 0.250000 0.250000 0.411589
O O12 0.262611 0.160430 0.396902
O O13 0.000000 0.853496 0.114152
O O14 0.233309 0.827981 0.056123
O O15 0.230760 0.909190 0.329091
O O16 0.000000 0.945261 0.282151
O O17 0.221590 0.000000 0.310725
O O18 0.500000 0.644516 0.643861
O O19 0.750000 0.250000 0.000000
O O20 0.000000 0.206333 0.000000
#
# Coordination Sequence:
#
# PCOD8266095 Si02
#       7
#    16  16  16  16  16  16   8
#     4  10  19  29  42  63  92 120 149 189 235 279
#     4   8  12  21  40  64  91 121 149 182 232 288
#     4  10  21  36  52  70  95 128 162 193 228 275
#     4   9  16  28  42  61  90 122 154 190 233 277
#     4   8  13  23  42  69  97 123 153 189 232 282
#     4  10  18  29  48  73  97 121 153 195 239 280
#     4  10  20  32  47  63  87 125 164 198 229 272
#
# _framework density 17.286655
#
# number of rings (size 3 to 8) (size 9 to 14) (size 15 to 20)
#    0.000    2.769    1.538    2.308    0.000    2.769 
#    0.000    0.385    0.000    3.231    0.000    3.231 
#    0.000    3.077    0.000    0.000    0.000    0.000 
#
# Total GULP energy -644502.685668 kJ/mol
# GULP energy per Si atom -12394.282417 kJ/mol
# Density = 1.724731 g / cm^3
# Si number density = 17.286655 Si / 1000 Ang^3
#
#
#
# Elastic Constant Matrix: (Units=GPa)
#
#
# Indices 1 2 3 4 5 6 
#
# 1 27.5221 37.2845 30.6218 0.0000 0.0000 0.0000
# 2 37.2845 186.4538 71.3449 0.0000 0.0000 0.0000
# 3 30.6218 71.3449 90.0855 0.0000 0.0000 0.0000
# 4 0.0000 0.0000 0.0000 31.9744 0.0000 0.0000
# 5 0.0000 0.0000 0.0000 0.0000 13.0793 0.0000
# 6 0.0000 0.0000 0.0000 0.0000 0.0000 19.0635
#
#
#
# Elastic Compliance Matrix: (Units=1/GPa)
#
#
# Indices 1 2 3 4 5 6 
#
# 1 0.063267 -0.006345 -0.016481 0.000000 0.000000 0.000000
# 2 -0.006345 0.008332 -0.004442 0.000000 0.000000 0.000000
# 3 -0.016481 -0.004442 0.020220 0.000000 0.000000 0.000000
# 4 0.000000 0.000000 0.000000 0.031275 0.000000 0.000000
# 5 0.000000 0.000000 0.000000 0.000000 0.076457 0.000000
# 6 0.000000 0.000000 0.000000 0.000000 0.000000 0.052456
#
#
# Mechanical properties :
#
#
# Convention : Reuss Voigt Hill
#
# Bulk Modulus (GPa) = 26.82098 64.72933 45.77515
# Shear Modulus (GPa) = 15.67551 23.81079 19.74315
#
# Velocity S-wave (km/s) = 3.01458 3.71537 3.38317
# Velocity P-wave (km/s) = 5.25985 7.47872 6.46519
#
# Compressibility (1/GPa) = 0.03728425
#
# Stress axis : x y z
#
# Youngs Moduli (GPa) = 15.80608 120.02534 49.45557
#
# Poissons Ratio (x) = 0.76157 0.81505
# Poissons Ratio (y) = 0.10029 0.21966
# Poissons Ratio (z) = 0.26049 0.53309
#
# Static dielectric constant tensor:
#      x y z
#    x 2.746670 0.000000 0.000000 
#    y 0.000000 3.636600 0.000000 
#    z 0.000000 0.000000 3.221340 
# 
# 
# High freq. dielectric constant tensor:
#      x y z
#    x 1.615490 0.000000 0.000000 
#    y 0.000000 1.684670 0.000000 
#    z 0.000000 0.000000 1.652930 
# 
# From -- ./inp_files/68188.got.cif
#   From: 2010.03.12/outbox.cif.g09.slc.cpg/sg65_35_cif.got.tgz:68188.got - 2010.04.10 20:52:16.
