data_PCOD8266768
_publ_section_title
;
Structure prediction by ZEFSAII (Michael W. Deem and Ramdas Pophale) SiO2 
 PCOD8266768
Probable space group: C M M M
;
_chemical_formula_sum "Si O2"
_cell_formula_units_Z 72
_cell_length_a 28.761957
_cell_length_b 8.621749
_cell_length_c 15.499145
_cell_angle_alpha 90.000000
_cell_angle_beta 90.000000
_cell_angle_gamma 90.000000
_cell_volume 3843.452776
_symmetry_space_group_name_H-M "C M M M"
_symmetry_group_IT_number 65
_symmetry_cell_setting 'orthorhombic'
loop_
_space_group_symop_operation_xyz
x,y,z
-x,-y,z
x,-y,-z
-x,y,-z
-x,-y,-z
x,y,-z
-x,y,z
x,-y,z
1/2+x,1/2+y,z
1/2-x,1/2-y,z
1/2+x,1/2-y,-z
1/2-x,1/2+y,-z
1/2-x,1/2-y,-z
1/2+x,1/2+y,-z
1/2-x,1/2+y,z
1/2+x,1/2-y,z
loop_
_atom_site_type_symbol
_atom_site_label
_atom_site_fract_x
_atom_site_fract_y
_atom_site_fract_z
Si Si1 0.054288 0.320878 0.098318
Si Si2 0.300704 0.182068 0.175360
Si Si3 0.386992 0.318024 0.751928
Si Si4 0.198429 0.184132 0.000000
Si Si5 0.051921 0.815840 0.404454
O O1 0.067011 0.500000 0.115312
O O2 0.083162 0.213786 0.162595
O O3 0.000000 0.291456 0.114806
O O4 0.067114 0.275124 0.000000
O O5 0.250000 0.250000 0.195943
O O6 0.337198 0.231077 0.248761
O O7 0.324221 0.250190 0.087427
O O8 0.295436 0.000000 0.167326
O O9 0.377805 0.500000 0.744335
O O10 0.413695 0.249936 0.668380
O O11 0.250000 0.250000 0.000000
O O12 0.197519 0.000000 0.000000
O O13 0.068962 0.764084 0.500000
O O14 0.000000 0.750674 0.387503
O O15 0.050564 0.000000 0.398396
#
# Coordination Sequence:
#
# PCOD8266768 Si02
#       5
#    16  16  16   8  16
#     4   9  19  35  51  69 101 144 183 217 258 311
#     4  11  22  37  54  74 104 141 179 223 270 317
#     4  11  21  32  52  81 108 137 177 224 268 319
#     4  10  18  32  52  74  99 130 173 220 264 308
#     4   8  15  30  53  81 111 140 172 215 267 319
#
# _framework density 18.733156000000001
#
# number of rings (size 3 to 8) (size 9 to 14) (size 15 to 20)
#    0.000    2.222    0.000    7.000    1.556    1.778 
#    0.000    1.111    0.000    3.333    0.000    7.778 
#    0.000    0.000    0.000    0.000    0.000    0.000 
#
# Total GULP energy -446310.394023 kJ/mol
# GULP energy per Si atom -12397.510945 kJ/mol
# Density = 1.869052 g / cm^3
# Si number density = 18.733156 Si / 1000 Ang^3
#
#
#
# Elastic Constant Matrix: (Units=GPa)
#
#
# Indices 1 2 3 4 5 6 
#
# 1 104.1161 35.3725 75.9448 0.0000 0.0000 0.0000
# 2 35.3725 98.3412 32.8281 0.0000 0.0000 0.0000
# 3 75.9448 32.8281 120.3140 0.0000 0.0000 0.0000
# 4 0.0000 0.0000 0.0000 13.0427 0.0000 0.0000
# 5 0.0000 0.0000 0.0000 0.0000 27.8383 0.0000
# 6 0.0000 0.0000 0.0000 0.0000 0.0000 29.4104
#
#
#
# Elastic Compliance Matrix: (Units=1/GPa)
#
#
# Indices 1 2 3 4 5 6 
#
# 1 0.018595 -0.003048 -0.010906 0.000000 0.000000 0.000000
# 2 -0.003048 0.011687 -0.001265 0.000000 0.000000 0.000000
# 3 -0.010906 -0.001265 0.015541 0.000000 0.000000 0.000000
# 4 0.000000 0.000000 0.000000 0.076671 0.000000 0.000000
# 5 0.000000 0.000000 0.000000 0.000000 0.035922 0.000000
# 6 0.000000 0.000000 0.000000 0.000000 0.000000 0.034002
#
#
# Mechanical properties :
#
#
# Convention : Reuss Voigt Hill
#
# Bulk Modulus (GPa) = 64.99657 67.89578 66.44617
# Shear Modulus (GPa) = 21.93126 25.96666 23.94896
#
# Velocity S-wave (km/s) = 3.42529 3.72712 3.57939
# Velocity P-wave (km/s) = 7.10034 7.40569 7.25462
#
# Compressibility (1/GPa) = 0.01538543
#
# Stress axis : x y z
#
# Youngs Moduli (GPa) = 53.77680 85.56321 64.34615
#
# Poissons Ratio (x) = 0.26079 0.70177
# Poissons Ratio (y) = 0.16391 0.08140
# Poissons Ratio (z) = 0.58650 0.10824
#
# Static dielectric constant tensor:
#      x y z
#    x 3.507630 0.000000 0.000000 
#    y 0.000000 3.203820 0.000000 
#    z 0.000000 0.000000 3.791130 
# 
# 
# High freq. dielectric constant tensor:
#      x y z
#    x 1.728620 0.000000 0.000000 
#    y 0.000000 1.713340 0.000000 
#    z 0.000000 0.000000 1.710980 
# 
# From -- ./inp_files/36972.got.cif
#   From: 2010.03.12/outbox.cif.g09.slc.cpg/sg65_19_cif.got.tgz:36972.got - 2010.04.10 20:52:16.
