data_PCOD8266426
_publ_section_title
;
Structure prediction by ZEFSAII (Michael W. Deem and Ramdas Pophale) SiO2 
 PCOD8266426
Probable space group: C M M M
;
_chemical_formula_sum "Si O2"
_cell_formula_units_Z 104
_cell_length_a 24.962065
_cell_length_b 8.876907
_cell_length_c 24.878416
_cell_angle_alpha 90.000000
_cell_angle_beta 90.000000
_cell_angle_gamma 90.000000
_cell_volume 5512.706935
_symmetry_space_group_name_H-M "C M M M"
_symmetry_group_IT_number 65
_symmetry_cell_setting 'orthorhombic'
loop_
_space_group_symop_operation_xyz
x,y,z
-x,-y,z
x,-y,-z
-x,y,-z
-x,-y,-z
x,y,-z
-x,y,z
x,-y,z
1/2+x,1/2+y,z
1/2-x,1/2-y,z
1/2+x,1/2-y,-z
1/2-x,1/2+y,-z
1/2-x,1/2-y,-z
1/2+x,1/2+y,-z
1/2-x,1/2+y,z
1/2+x,1/2-y,z
loop_
_atom_site_type_symbol
_atom_site_label
_atom_site_fract_x
_atom_site_fract_y
_atom_site_fract_z
Si Si1 0.116128 0.674457 0.759073
Si Si2 0.806929 0.826496 0.438868
Si Si3 0.608128 0.821178 0.637359
Si Si4 0.808124 0.678799 0.850935
Si Si5 0.500000 0.669455 0.063890
Si Si6 0.500000 0.676285 0.639833
Si Si7 0.500000 0.827142 0.248940
Si Si8 0.392338 0.823091 0.061075
O O1 0.129628 0.500000 0.757125
O O2 0.119739 0.738215 0.698296
O O3 0.159935 0.746804 0.799114
O O4 0.055537 0.699699 0.783457
O O5 0.827667 0.813988 0.500000
O O6 0.750000 0.750000 0.432793
O O7 0.845209 0.733739 0.400587
O O8 0.803684 0.000000 0.420544
O O9 0.553173 0.750357 0.614455
O O10 0.603435 0.000000 0.636087
O O11 0.802359 0.500000 0.847700
O O12 0.750000 0.750000 0.853805
O O13 0.841310 0.726938 0.903784
O O14 0.500000 0.500000 0.085686
O O15 0.446259 0.749564 0.085189
O O16 0.500000 0.677837 0.000000
O O17 0.500000 0.500000 0.627711
O O18 0.500000 0.709198 0.702918
O O19 0.500000 0.000000 0.271912
O O20 0.401576 0.000000 0.064425
O O21 0.381113 0.770090 0.000000
#
# Coordination Sequence:
#
# PCOD8266426 Si02
#       8
#    16  16  16  16   8   8   8  16
#     4   8  16  31  52  76  99 128 166 209 257 307
#     4  10  21  37  56  79 107 138 174 216 259 303
#     4  10  19  34  56  79 105 138 175 212 256 309
#     4  10  21  36  51  70 100 136 174 215 257 300
#     4   9  17  30  51  79 106 128 155 200 256 307
#     4  10  18  30  50  78 110 139 171 211 256 307
#     4   8  14  29  51  72  95 125 166 210 254 308
#     4   9  18  33  53  75  99 131 170 209 252 305
#
# _framework density 18.865504000000001
#
# number of rings (size 3 to 8) (size 9 to 14) (size 15 to 20)
#    0.000    2.692    0.000    2.769    0.000    4.000 
#    0.000    8.077    0.000    6.000    0.000    0.000 
#    0.000    0.000    0.000    0.000    0.000    0.000 
#
# Total GULP energy -644470.709908 kJ/mol
# GULP energy per Si atom -12393.667498 kJ/mol
# Density = 1.882257 g / cm^3
# Si number density = 18.865504 Si / 1000 Ang^3
#
#
#
# Elastic Constant Matrix: (Units=GPa)
#
#
# Indices 1 2 3 4 5 6 
#
# 1 161.6766 43.2018 71.9302 0.0000 0.0000 0.0000
# 2 43.2018 69.6961 31.9698 0.0000 0.0000 0.0000
# 3 71.9302 31.9698 83.8973 0.0000 0.0000 0.0000
# 4 0.0000 0.0000 0.0000 17.2912 0.0000 0.0000
# 5 0.0000 0.0000 0.0000 0.0000 -40.0166 0.0000
# 6 0.0000 0.0000 0.0000 0.0000 0.0000 37.4700
#
#
#
# Elastic Compliance Matrix: (Units=1/GPa)
#
#
# Indices 1 2 3 4 5 6 
#
# 1 0.010453 -0.002870 -0.007868 0.000000 0.000000 0.000000
# 2 -0.002870 0.018175 -0.004465 0.000000 0.000000 0.000000
# 3 -0.007868 -0.004465 0.020367 0.000000 0.000000 0.000000
# 4 0.000000 0.000000 0.000000 0.057833 0.000000 0.000000
# 5 0.000000 0.000000 0.000000 0.000000 -0.024990 0.000000
# 6 0.000000 0.000000 0.000000 0.000000 0.000000 0.026688
#
#
# Mechanical properties :
#
#
# Convention : Reuss Voigt Hill
#
# Bulk Modulus (GPa) = 53.79828 67.71927 60.75878
# Shear Modulus (GPa) = 34.45237 14.16014 24.30625
#
# Velocity S-wave (km/s) = 4.27805 2.74265 3.59332
# Velocity P-wave (km/s) = 7.27880 6.78257 7.03506
#
# Compressibility (1/GPa) = 0.01858795
#
# Stress axis : x y z
#
# Youngs Moduli (GPa) = 95.67020 55.01994 49.10021
#
# Poissons Ratio (x) = 0.15791 0.38632
# Poissons Ratio (y) = 0.27458 0.21924
# Poissons Ratio (z) = 0.75273 0.24567
#
# Static dielectric constant tensor:
#      x y z
#    x 3.677820 0.000000 0.000000 
#    y 0.000000 3.284340 0.000000 
#    z 0.000000 0.000000 3.476820 
# 
# 
# High freq. dielectric constant tensor:
#      x y z
#    x 1.743490 0.000000 0.000000 
#    y 0.000000 1.716970 0.000000 
#    z 0.000000 0.000000 1.714580 
# 
# From -- ./inp_files/65955.got.cif
#   From: 2010.03.12/outbox.cif.g09.slc.cpg/sg65_33_cif.got.tgz:65955.got - 2010.04.10 20:52:16.
