data_PCOD8266823
_publ_section_title
;
Structure prediction by ZEFSAII (Michael W. Deem and Ramdas Pophale) SiO2 
 PCOD8266823
Probable space group: C M M M
;
_chemical_formula_sum "Si O2"
_cell_formula_units_Z 88
_cell_length_a 16.696389
_cell_length_b 22.896159
_cell_length_c 11.848303
_cell_angle_alpha 90.000000
_cell_angle_beta 90.000000
_cell_angle_gamma 90.000000
_cell_volume 4529.406916
_symmetry_space_group_name_H-M "C M M M"
_symmetry_group_IT_number 65
_symmetry_cell_setting 'orthorhombic'
loop_
_space_group_symop_operation_xyz
x,y,z
-x,-y,z
x,-y,-z
-x,y,-z
-x,-y,-z
x,y,-z
-x,y,z
x,-y,z
1/2+x,1/2+y,z
1/2-x,1/2-y,z
1/2+x,1/2-y,-z
1/2-x,1/2+y,-z
1/2-x,1/2-y,-z
1/2+x,1/2+y,-z
1/2-x,1/2+y,z
1/2+x,1/2-y,z
loop_
_atom_site_type_symbol
_atom_site_label
_atom_site_fract_x
_atom_site_fract_y
_atom_site_fract_z
Si Si1 0.844913 0.362808 0.133398
Si Si2 0.407613 0.359106 0.631220
Si Si3 0.231615 0.066730 0.716168
Si Si4 0.658423 0.063441 0.500000
Si Si5 0.410695 0.180739 0.500000
Si Si6 0.500000 0.934058 0.133919
Si Si7 0.094318 0.264968 0.724258
O O1 0.765556 0.392368 0.184240
O O2 0.857722 0.295423 0.172827
O O3 0.920981 0.400694 0.176920
O O4 0.836189 0.362857 0.000000
O O5 0.387252 0.344842 0.500000
O O6 0.500000 0.377112 0.642361
O O7 0.356587 0.412554 0.679602
O O8 0.388037 0.303548 0.711167
O O9 0.287340 0.072567 0.608454
O O10 0.225922 0.000000 0.759148
O O11 0.588085 0.110649 0.500000
O O12 0.617458 0.000000 0.500000
O O13 0.500000 0.206593 0.500000
O O14 0.368926 0.204328 0.612533
O O15 0.500000 0.000000 0.183348
O O16 0.500000 0.935825 0.000000
O O17 0.000000 0.276811 0.740646
#
# Coordination Sequence:
#
# PCOD8266823 Si02
#       7
#    16  16  16   8   8   8  16
#     4  11  22  37  59  86 120 164 205 242 284 339
#     4  10  21  39  64  91 115 149 196 247 307 373
#     4  11  23  39  58  85 122 153 191 249 305 353
#     4  10  20  34  50  79 119 153 189 237 293 350
#     4  10  18  32  53  78 115 161 193 226 285 358
#     4   9  18  34  56  81 109 153 208 242 270 324
#     4  10  19  35  58  87 120 152 194 245 292 349
#
# _framework density 19.428591999999998
#
# number of rings (size 3 to 8) (size 9 to 14) (size 15 to 20)
#    0.000    1.727    4.545    0.545    0.000    2.364 
#    0.000    4.545    0.000    1.636    0.000    1.273 
#    0.000    0.000    0.000    0.000    0.000    0.000 
#
# Total GULP energy -545517.658659 kJ/mol
# GULP energy per Si atom -12398.128606 kJ/mol
# Density = 1.938437 g / cm^3
# Si number density = 19.428592 Si / 1000 Ang^3
#
#
#
# Elastic Constant Matrix: (Units=GPa)
#
#
# Indices 1 2 3 4 5 6 
#
# 1 64.1313 32.6131 28.1577 0.0000 0.0000 0.0000
# 2 32.6131 75.3649 26.2730 0.0000 0.0000 0.0000
# 3 28.1577 26.2730 89.4251 0.0000 0.0000 0.0000
# 4 0.0000 0.0000 0.0000 21.4860 0.0000 0.0000
# 5 0.0000 0.0000 0.0000 0.0000 18.4109 0.0000
# 6 0.0000 0.0000 0.0000 0.0000 0.0000 35.8404
#
#
#
# Elastic Compliance Matrix: (Units=1/GPa)
#
#
# Indices 1 2 3 4 5 6 
#
# 1 0.021502 -0.007737 -0.004497 0.000000 0.000000 0.000000
# 2 -0.007737 0.017567 -0.002725 0.000000 0.000000 0.000000
# 3 -0.004497 -0.002725 0.013399 0.000000 0.000000 0.000000
# 4 0.000000 0.000000 0.000000 0.046542 0.000000 0.000000
# 5 0.000000 0.000000 0.000000 0.000000 0.054316 0.000000
# 6 0.000000 0.000000 0.000000 0.000000 0.000000 0.027902
#
#
# Mechanical properties :
#
#
# Convention : Reuss Voigt Hill
#
# Bulk Modulus (GPa) = 44.34655 44.77877 44.56266
# Shear Modulus (GPa) = 22.86631 24.60595 23.73613
#
# Velocity S-wave (km/s) = 3.43438 3.56263 3.49909
# Velocity P-wave (km/s) = 6.21302 6.32621 6.26987
#
# Compressibility (1/GPa) = 0.02254967
#
# Stress axis : x y z
#
# Youngs Moduli (GPa) = 46.50693 56.92570 74.63108
#
# Poissons Ratio (x) = 0.44043 0.33564
# Poissons Ratio (y) = 0.35982 0.20336
# Poissons Ratio (z) = 0.20916 0.15512
#
# Static dielectric constant tensor:
#      x y z
#    x 3.319600 0.000000 0.000000 
#    y 0.000000 3.599040 0.000000 
#    z 0.000000 0.000000 3.415640 
# 
# 
# High freq. dielectric constant tensor:
#      x y z
#    x 1.735390 0.000000 0.000000 
#    y 0.000000 1.759670 0.000000 
#    z 0.000000 0.000000 1.741460 
# 
# From -- ./inp_files/24845.got.cif
#   From: 2010.03.12/outbox.cif.g09.slc.cpg/sg65_13_cif.got.tgz:24845.got - 2010.04.10 20:52:16.
