data_PCOD8266881
_publ_section_title
;
Structure prediction by ZEFSAII (Michael W. Deem and Ramdas Pophale) SiO2 
 PCOD8266881
Probable space group: C M M M
;
_chemical_formula_sum "Si O2"
_cell_formula_units_Z 68
_cell_length_a 12.151301
_cell_length_b 16.758192
_cell_length_c 16.881047
_cell_angle_alpha 90.000000
_cell_angle_beta 90.000000
_cell_angle_gamma 90.000000
_cell_volume 3437.552343
_symmetry_space_group_name_H-M "C M M M"
_symmetry_group_IT_number 65
_symmetry_cell_setting 'orthorhombic'
loop_
_space_group_symop_operation_xyz
x,y,z
-x,-y,z
x,-y,-z
-x,y,-z
-x,-y,-z
x,y,-z
-x,y,z
x,-y,z
1/2+x,1/2+y,z
1/2-x,1/2-y,z
1/2+x,1/2-y,-z
1/2-x,1/2+y,-z
1/2-x,1/2-y,-z
1/2+x,1/2+y,-z
1/2-x,1/2+y,z
1/2+x,1/2-y,z
loop_
_atom_site_type_symbol
_atom_site_label
_atom_site_fract_x
_atom_site_fract_y
_atom_site_fract_z
Si Si1 0.000000 0.611695 0.000000
Si Si2 0.263074 0.097149 0.000000
Si Si3 0.371730 0.907826 0.589136
Si Si4 0.620836 0.407605 0.146698
Si Si5 0.785784 0.660171 0.256736
Si Si6 0.000000 0.412277 0.820479
O O1 0.877147 0.649889 0.000000
O O2 0.000000 0.568044 0.085702
O O3 0.194379 0.126545 0.075505
O O4 0.287652 0.000000 0.000000
O O5 0.341397 0.881005 0.500000
O O6 0.500000 0.894030 0.605677
O O7 0.303120 0.854172 0.649990
O O8 0.341185 0.000000 0.601637
O O9 0.500000 0.366273 0.147540
O O10 0.603998 0.500000 0.131887
O O11 0.682975 0.393517 0.229297
O O12 0.750000 0.750000 0.240387
O O13 0.893376 0.637239 0.206172
O O14 0.000000 0.500000 0.778462
#
# Coordination Sequence:
#
# PCOD8266881 Si02
#       6
#     4   8  16  16  16   8
#     4  12  21  34  64  96 118 150 223 288 317 348
#     4  10  18  32  55  86 112 146 202 271 316 356
#     4   9  18  36  65  97 123 153 201 257 313 374
#     4  10  21  37  57  80 114 160 207 251 307 377
#     4  12  25  37  60  88 129 162 203 255 315 370
#     4  12  23  42  67  92 122 165 219 271 317 366
#
# _framework density 19.781516
#
# number of rings (size 3 to 8) (size 9 to 14) (size 15 to 20)
#    0.000    1.412    3.529    4.235    1.647    1.882 
#    0.000    2.353    0.000    0.706    0.000    3.294 
#    0.000    0.000    0.000    0.000    0.000    0.000 
#
# Total GULP energy -421220.379278 kJ/mol
# GULP energy per Si atom -12388.834685 kJ/mol
# Density = 1.973649 g / cm^3
# Si number density = 19.781516 Si / 1000 Ang^3
#
#
#
# Elastic Constant Matrix: (Units=GPa)
#
#
# Indices 1 2 3 4 5 6 
#
# 1 179.8031 38.6690 71.3771 0.0000 0.0000 0.0000
# 2 38.6690 62.3529 31.9641 0.0000 0.0000 0.0000
# 3 71.3771 31.9641 138.0831 0.0000 0.0000 0.0000
# 4 0.0000 0.0000 0.0000 3.7660 0.0000 0.0000
# 5 0.0000 0.0000 0.0000 0.0000 15.4060 0.0000
# 6 0.0000 0.0000 0.0000 0.0000 0.0000 24.0698
#
#
#
# Elastic Compliance Matrix: (Units=1/GPa)
#
#
# Indices 1 2 3 4 5 6 
#
# 1 0.007464 -0.003008 -0.003162 0.000000 0.000000 0.000000
# 2 -0.003008 0.019409 -0.002938 0.000000 0.000000 0.000000
# 3 -0.003162 -0.002938 0.009557 0.000000 0.000000 0.000000
# 4 0.000000 0.000000 0.000000 0.265532 0.000000 0.000000
# 5 0.000000 0.000000 0.000000 0.000000 0.064910 0.000000
# 6 0.000000 0.000000 0.000000 0.000000 0.000000 0.041546
#
#
# Mechanical properties :
#
#
# Convention : Reuss Voigt Hill
#
# Bulk Modulus (GPa) = 54.90319 73.80660 64.35489
# Shear Modulus (GPa) = 11.55525 24.53030 18.04277
#
# Velocity S-wave (km/s) = 2.41953 3.52527 3.02338
# Velocity P-wave (km/s) = 5.96829 7.34588 6.69263
#
# Compressibility (1/GPa) = 0.01821388
#
# Stress axis : x y z
#
# Youngs Moduli (GPa) = 133.98238 51.52174 104.64046
#
# Poissons Ratio (x) = 0.15497 0.33085
# Poissons Ratio (y) = 0.40300 0.30745
# Poissons Ratio (z) = 0.42363 0.15138
#
# Static dielectric constant tensor:
#      x y z
#    x 3.870060 0.000000 0.000000 
#    y 0.000000 3.155400 0.000000 
#    z 0.000000 0.000000 3.742980 
# 
# 
# High freq. dielectric constant tensor:
#      x y z
#    x 1.778010 0.000000 0.000000 
#    y 0.000000 1.728270 0.000000 
#    z 0.000000 0.000000 1.780370 
# 
# From -- ./inp_files/61233.got.cif
#   From: 2010.03.12/outbox.cif.g09.slc.cpg/sg65_31_cif.got.tgz:61233.got - 2010.04.10 20:52:16.
