data_PCOD8266441
_publ_section_title
;
Structure prediction by ZEFSAII (Michael W. Deem and Ramdas Pophale) SiO2 
 PCOD8266441
Probable space group: C M M M
;
_chemical_formula_sum "Si O2"
_cell_formula_units_Z 80
_cell_length_a 20.777000
_cell_length_b 19.326081
_cell_length_c 11.681203
_cell_angle_alpha 90.000000
_cell_angle_beta 90.000000
_cell_angle_gamma 90.000000
_cell_volume 4690.446714
_symmetry_space_group_name_H-M "C M M M"
_symmetry_group_IT_number 65
_symmetry_cell_setting 'orthorhombic'
loop_
_space_group_symop_operation_xyz
x,y,z
-x,-y,z
x,-y,-z
-x,y,-z
-x,-y,-z
x,y,-z
-x,y,z
x,-y,z
1/2+x,1/2+y,z
1/2-x,1/2-y,z
1/2+x,1/2-y,-z
1/2-x,1/2+y,-z
1/2-x,1/2-y,-z
1/2+x,1/2+y,-z
1/2-x,1/2+y,z
1/2+x,1/2-y,z
loop_
_atom_site_type_symbol
_atom_site_label
_atom_site_fract_x
_atom_site_fract_y
_atom_site_fract_z
Si Si1 0.571188 0.283661 0.228422
Si Si2 0.194336 0.194484 0.630469
Si Si3 0.590926 0.575550 0.127183
Si Si4 0.730953 0.577383 0.197476
Si Si5 0.672518 0.081390 0.000000
Si Si6 0.074588 0.298277 0.000000
O O1 0.500000 0.256677 0.269500
O O2 0.627617 0.272942 0.320934
O O3 0.562491 0.365649 0.208280
O O4 0.593546 0.246060 0.111798
O O5 0.181096 0.173343 0.500000
O O6 0.250000 0.250000 0.641278
O O7 0.220694 0.127251 0.695067
O O8 0.569403 0.500000 0.174542
O O9 0.667820 0.579220 0.119602
O O10 0.563440 0.586370 0.000000
O O11 0.744268 0.500000 0.244809
O O12 0.788684 0.601330 0.114930
O O13 0.608976 0.127662 0.000000
O O14 0.654791 0.000000 0.000000
O O15 0.000000 0.315878 0.000000
#
# Coordination Sequence:
#
# PCOD8266441 Si02
#       6
#    16  16  16  16   8   8
#     4  10  20  33  48  70  99 130 162 195 239 287
#     4  10  21  35  51  71  94 125 166 207 243 280
#     4   9  15  26  44  68  98 125 154 188 219 261
#     4   9  17  30  49  73  97 122 155 194 240 288
#     4  10  18  30  51  74  95 123 157 195 245 303
#     4  10  20  32  46  69  99 127 157 197 245 295
#
# _framework density 17.055945000000001
#
# number of rings (size 3 to 8) (size 9 to 14) (size 15 to 20)
#    0.000    2.400    2.000    1.200    0.000    1.400 
#    0.000    4.000    0.000    0.000    0.000    5.600 
#    0.000    0.000    0.000   37.200    0.000    0.000 
#
# Total GULP energy -495716.781231 kJ/mol
# GULP energy per Si atom -12392.919531 kJ/mol
# Density = 1.701712 g / cm^3
# Si number density = 17.055945 Si / 1000 Ang^3
#
#
#
# Elastic Constant Matrix: (Units=GPa)
#
#
# Indices 1 2 3 4 5 6 
#
# 1 90.5368 41.4810 53.5685 0.0000 0.0000 0.0000
# 2 41.4810 72.1526 45.4465 0.0000 0.0000 0.0000
# 3 53.5685 45.4465 116.6902 0.0000 0.0000 0.0000
# 4 0.0000 0.0000 0.0000 20.9709 0.0000 0.0000
# 5 0.0000 0.0000 0.0000 0.0000 69.4317 0.0000
# 6 0.0000 0.0000 0.0000 0.0000 0.0000 19.8101
#
#
#
# Elastic Compliance Matrix: (Units=1/GPa)
#
#
# Indices 1 2 3 4 5 6 
#
# 1 0.017200 -0.006513 -0.005360 0.000000 0.000000 0.000000
# 2 -0.006513 0.020830 -0.005123 0.000000 0.000000 0.000000
# 3 -0.005360 -0.005123 0.013025 0.000000 0.000000 0.000000
# 4 0.000000 0.000000 0.000000 0.047685 0.000000 0.000000
# 5 0.000000 0.000000 0.000000 0.000000 0.014403 0.000000
# 6 0.000000 0.000000 0.000000 0.000000 0.000000 0.050479
#
#
# Mechanical properties :
#
#
# Convention : Reuss Voigt Hill
#
# Bulk Modulus (GPa) = 58.59752 62.26350 60.43051
# Shear Modulus (GPa) = 24.59393 31.30145 27.94769
#
# Velocity S-wave (km/s) = 3.80143 4.28860 4.05234
# Velocity P-wave (km/s) = 7.32792 7.81713 7.57647
#
# Compressibility (1/GPa) = 0.01706557
#
# Stress axis : x y z
#
# Youngs Moduli (GPa) = 58.13855 48.00654 76.77370
#
# Poissons Ratio (x) = 0.31265 0.41148
# Poissons Ratio (y) = 0.37864 0.39331
# Poissons Ratio (z) = 0.31160 0.24593
#
# Static dielectric constant tensor:
#      x y z
#    x 3.247290 0.000000 0.000000 
#    y 0.000000 3.194230 0.000000 
#    z 0.000000 0.000000 3.000900 
# 
# 
# High freq. dielectric constant tensor:
#      x y z
#    x 1.663430 0.000000 0.000000 
#    y 0.000000 1.654570 0.000000 
#    z 0.000000 0.000000 1.630150 
# 
# From -- ./inp_files/26722.got.cif
#   From: 2010.03.12/outbox.cif.g09.slc.cpg/sg65_14_cif.got.tgz:26722.got - 2010.04.10 20:52:16.
