data_PCOD8266914
_publ_section_title
;
Structure prediction by ZEFSAII (Michael W. Deem and Ramdas Pophale) SiO2 
 PCOD8266914
Probable space group: C M M M
;
_chemical_formula_sum "Si O2"
_cell_formula_units_Z 80
_cell_length_a 17.558146
_cell_length_b 19.771169
_cell_length_c 12.664789
_cell_angle_alpha 90.000000
_cell_angle_beta 90.000000
_cell_angle_gamma 90.000000
_cell_volume 4396.519088
_symmetry_space_group_name_H-M "C M M M"
_symmetry_group_IT_number 65
_symmetry_cell_setting 'orthorhombic'
loop_
_space_group_symop_operation_xyz
x,y,z
-x,-y,z
x,-y,-z
-x,y,-z
-x,-y,-z
x,y,-z
-x,y,z
x,-y,z
1/2+x,1/2+y,z
1/2-x,1/2-y,z
1/2+x,1/2-y,-z
1/2-x,1/2+y,-z
1/2-x,1/2-y,-z
1/2+x,1/2+y,-z
1/2-x,1/2+y,z
1/2+x,1/2-y,z
loop_
_atom_site_type_symbol
_atom_site_label
_atom_site_fract_x
_atom_site_fract_y
_atom_site_fract_z
Si Si1 0.910563 0.079589 0.000000
Si Si2 0.590142 0.717109 0.619888
Si Si3 0.665498 0.331214 0.175103
Si Si4 0.912604 0.638781 0.692540
Si Si5 0.584463 0.000000 0.377322
Si Si6 0.167304 0.679763 0.881555
O O1 0.875080 0.111083 0.893588
O O2 0.000000 0.094694 0.000000
O O3 0.892939 0.000000 0.000000
O O4 0.609062 0.693653 0.500000
O O5 0.500000 0.713580 0.642117
O O6 0.632159 0.669079 0.705247
O O7 0.620949 0.794157 0.635416
O O8 0.756084 0.343184 0.179490
O O9 0.653433 0.259997 0.116212
O O10 0.871625 0.568912 0.656650
O O11 0.902152 0.645727 0.818566
O O12 0.000000 0.633797 0.659919
O O13 0.500000 0.000000 0.324353
O O14 0.576339 0.000000 0.500000
O O15 0.168945 0.651614 0.000000
#
# Coordination Sequence:
#
# PCOD8266914 Si02
#       6
#     8  16  16  16   8  16
#     4  11  22  35  54  80 103 129 172 215 251 309
#     4   9  17  30  51  78 103 127 163 212 259 300
#     4  10  18  35  53  75 101 133 165 208 258 306
#     4   9  18  30  46  73 101 132 174 208 241 295
#     4   9  16  30  49  65  95 137 168 203 244 285
#     4  10  18  33  53  74 101 132 168 208 259 309
#
# _framework density 18.196214000000001
#
# number of rings (size 3 to 8) (size 9 to 14) (size 15 to 20)
#    0.000    2.400    2.000    1.800    0.000    3.600 
#    1.800    9.500    0.000    2.400    0.000    2.800 
#    0.000    0.000    0.000    0.000    0.000    0.000 
#
# Total GULP energy -495693.951291 kJ/mol
# GULP energy per Si atom -12392.348782 kJ/mol
# Density = 1.815480 g / cm^3
# Si number density = 18.196214 Si / 1000 Ang^3
#
#
#
# Elastic Constant Matrix: (Units=GPa)
#
#
# Indices 1 2 3 4 5 6 
#
# 1 28.4845 19.8981 24.4831 0.0000 0.0000 0.0000
# 2 19.8981 83.7335 36.2549 0.0000 0.0000 0.0000
# 3 24.4831 36.2549 137.1245 0.0000 0.0000 0.0000
# 4 0.0000 0.0000 0.0000 22.4487 0.0000 0.0000
# 5 0.0000 0.0000 0.0000 0.0000 26.3640 0.0000
# 6 0.0000 0.0000 0.0000 0.0000 0.0000 634.4517
#
#
#
# Elastic Compliance Matrix: (Units=1/GPa)
#
#
# Indices 1 2 3 4 5 6 
#
# 1 0.046120 -0.008350 -0.006027 0.000000 0.000000 0.000000
# 2 -0.008350 0.014998 -0.002475 0.000000 0.000000 0.000000
# 3 -0.006027 -0.002475 0.009023 0.000000 0.000000 0.000000
# 4 0.000000 0.000000 0.000000 0.044546 0.000000 0.000000
# 5 0.000000 0.000000 0.000000 0.000000 0.037930 0.000000
# 6 0.000000 0.000000 0.000000 0.000000 0.000000 0.001576
#
#
# Mechanical properties :
#
#
# Convention : Reuss Voigt Hill
#
# Bulk Modulus (GPa) = 27.44375 45.62384 36.53380
# Shear Modulus (GPa) = 24.99453 147.89997 86.44725
#
# Velocity S-wave (km/s) = 3.71025 9.02536 6.90011
# Velocity P-wave (km/s) = 5.78528 11.56448 9.14348
#
# Compressibility (1/GPa) = 0.03643816
#
# Stress axis : x y z
#
# Youngs Moduli (GPa) = 21.68248 66.67365 110.82829
#
# Poissons Ratio (x) = 0.55675 0.66794
# Poissons Ratio (y) = 0.18106 0.27425
# Poissons Ratio (z) = 0.13068 0.16499
#
# Static dielectric constant tensor:
#      x y z
#    x 3.273740 0.000000 0.000000 
#    y 0.000000 3.338380 0.000000 
#    z 0.000000 0.000000 3.358310 
# 
# 
# High freq. dielectric constant tensor:
#      x y z
#    x 1.681970 0.000000 0.000000 
#    y 0.000000 1.680830 0.000000 
#    z 0.000000 0.000000 1.707700 
# 
# From -- ./inp_files/28570.got.cif
#   From: 2010.03.12/outbox.cif.g09.slc.cpg/sg65_15_cif.got.tgz:28570.got - 2010.04.10 20:52:16.
