data_PCOD8266596
_publ_section_title
;
Structure prediction by ZEFSAII (Michael W. Deem and Ramdas Pophale) SiO2 
 PCOD8266596
Probable space group: C M M M
;
_chemical_formula_sum "Si O2"
_cell_formula_units_Z 88
_cell_length_a 25.656921
_cell_length_b 20.803960
_cell_length_c 8.809002
_cell_angle_alpha 90.000000
_cell_angle_beta 90.000000
_cell_angle_gamma 90.000000
_cell_volume 4701.941870
_symmetry_space_group_name_H-M "C M M M"
_symmetry_group_IT_number 65
_symmetry_cell_setting 'orthorhombic'
loop_
_space_group_symop_operation_xyz
x,y,z
-x,-y,z
x,-y,-z
-x,y,-z
-x,-y,-z
x,y,-z
-x,y,z
x,-y,z
1/2+x,1/2+y,z
1/2-x,1/2-y,z
1/2+x,1/2-y,-z
1/2-x,1/2+y,-z
1/2-x,1/2-y,-z
1/2+x,1/2+y,-z
1/2-x,1/2+y,z
1/2+x,1/2-y,z
loop_
_atom_site_type_symbol
_atom_site_label
_atom_site_fract_x
_atom_site_fract_y
_atom_site_fract_z
Si Si1 0.395271 0.574116 0.678570
Si Si2 0.693927 0.330819 0.678742
Si Si3 0.500000 0.627736 0.819443
Si Si4 0.809642 0.315335 0.320414
Si Si5 0.500000 0.773664 0.819325
Si Si6 0.560574 0.000000 0.166474
Si Si7 0.590158 0.134488 0.179863
O O1 0.402765 0.585825 0.500000
O O2 0.381263 0.500000 0.712995
O O3 0.348003 0.618323 0.745961
O O4 0.448902 0.591735 0.760305
O O5 0.691560 0.336305 0.500000
O O6 0.753508 0.343938 0.730144
O O7 0.681407 0.258416 0.729789
O O8 0.500000 0.700930 0.756849
O O9 0.500000 0.625530 0.000000
O O10 0.817625 0.322533 0.500000
O O11 0.850917 0.354936 0.226451
O O12 0.551269 0.810539 0.756300
O O13 0.500000 0.772392 0.000000
O O14 0.576483 0.934783 0.253653
O O15 0.500000 0.000000 0.143998
O O16 0.587620 0.000000 0.000000
O O17 0.583237 0.132191 0.000000
#
# Coordination Sequence:
#
# PCOD8266596 Si02
#       7
#    16  16   8  16   8   8  16
#     4  10  20  35  54  73  95 129 172 204 228 281
#     4   8  16  33  54  73  97 131 166 199 240 291
#     4  11  22  34  50  76 105 128 153 198 258 298
#     4   9  17  32  53  75 100 128 160 202 251 292
#     4   9  18  31  50  74  99 128 165 204 238 287
#     4   9  16  30  51  69  93 135 173 196 231 288
#     4  10  18  31  51  74  98 128 168 205 238 285
#
# _framework density 18.715672000000001
#
# number of rings (size 3 to 8) (size 9 to 14) (size 15 to 20)
#    0.000    2.636    0.909    2.727    0.000    1.455 
#    1.636    4.545    0.000    0.545    0.000    0.000 
#    0.000    0.000    0.000    0.000    0.000    0.000 
#
# Total GULP energy -545291.554778 kJ/mol
# GULP energy per Si atom -12392.989881 kJ/mol
# Density = 1.867307 g / cm^3
# Si number density = 18.715672 Si / 1000 Ang^3
#
#
#
# Elastic Constant Matrix: (Units=GPa)
#
#
# Indices 1 2 3 4 5 6 
#
# 1 149.5773 73.9827 19.3372 0.0000 0.0000 0.0000
# 2 73.9827 130.1042 21.6802 0.0000 0.0000 0.0000
# 3 19.3372 21.6802 17.7357 0.0000 0.0000 0.0000
# 4 0.0000 0.0000 0.0000 19.3200 0.0000 0.0000
# 5 0.0000 0.0000 0.0000 0.0000 27.5012 0.0000
# 6 0.0000 0.0000 0.0000 0.0000 0.0000 26.1559
#
#
#
# Elastic Compliance Matrix: (Units=1/GPa)
#
#
# Indices 1 2 3 4 5 6 
#
# 1 0.009613 -0.004671 -0.004771 0.000000 0.000000 0.000000
# 2 -0.004671 0.011922 -0.009481 0.000000 0.000000 0.000000
# 3 -0.004771 -0.009481 0.073174 0.000000 0.000000 0.000000
# 4 0.000000 0.000000 0.000000 0.051760 0.000000 0.000000
# 5 0.000000 0.000000 0.000000 0.000000 0.036362 0.000000
# 6 0.000000 0.000000 0.000000 0.000000 0.000000 0.038232
#
#
# Mechanical properties :
#
#
# Convention : Reuss Voigt Hill
#
# Bulk Modulus (GPa) = 17.58582 58.60194 38.09388
# Shear Modulus (GPa) = 17.99446 26.75656 22.37551
#
# Velocity S-wave (km/s) = 3.10411 3.78515 3.46142
# Velocity P-wave (km/s) = 4.71848 7.10513 6.03104
#
# Compressibility (1/GPa) = 0.05686401
#
# Stress axis : x y z
#
# Youngs Moduli (GPa) = 104.02916 83.87672 13.66600
#
# Poissons Ratio (x) = 0.39181 0.06519
# Poissons Ratio (y) = 0.48594 0.12956
# Poissons Ratio (z) = 0.49628 0.79522
#
# Static dielectric constant tensor:
#      x y z
#    x 4.233230 0.000000 0.000000 
#    y 0.000000 3.547020 0.000000 
#    z 0.000000 0.000000 2.945890 
# 
# 
# High freq. dielectric constant tensor:
#      x y z
#    x 1.736660 0.000000 0.000000 
#    y 0.000000 1.735050 0.000000 
#    z 0.000000 0.000000 1.678550 
# 
# From -- ./inp_files/14080.got.cif
#   From: 2010.03.12/outbox.cif.g09.slc.cpg/sg65_8_cif.got.tgz:14080.got - 2010.04.10 20:52:16.
