data_PCOD8266111
_publ_section_title
;
Structure prediction by ZEFSAII (Michael W. Deem and Ramdas Pophale) SiO2 
 PCOD8266111
Probable space group: C M M M
;
_chemical_formula_sum "Si O2"
_cell_formula_units_Z 112
_cell_length_a 14.394247
_cell_length_b 25.157990
_cell_length_c 15.587638
_cell_angle_alpha 90.000000
_cell_angle_beta 90.000000
_cell_angle_gamma 90.000000
_cell_volume 5644.756369
_symmetry_space_group_name_H-M "C M M M"
_symmetry_group_IT_number 65
_symmetry_cell_setting 'orthorhombic'
loop_
_space_group_symop_operation_xyz
x,y,z
-x,-y,z
x,-y,-z
-x,y,-z
-x,-y,-z
x,y,-z
-x,y,z
x,-y,z
1/2+x,1/2+y,z
1/2-x,1/2-y,z
1/2+x,1/2-y,-z
1/2-x,1/2+y,-z
1/2-x,1/2-y,-z
1/2+x,1/2+y,-z
1/2-x,1/2+y,z
1/2+x,1/2-y,z
loop_
_atom_site_type_symbol
_atom_site_label
_atom_site_fract_x
_atom_site_fract_y
_atom_site_fract_z
Si Si1 0.103584 0.715363 0.855971
Si Si2 0.205946 0.376251 0.598099
Si Si3 0.606953 0.937279 0.251472
Si Si4 0.602998 0.332611 0.100748
Si Si5 0.848933 0.728203 0.326285
Si Si6 0.899495 0.164481 0.598770
Si Si7 0.211855 0.616926 0.096449
O O1 0.136524 0.776441 0.860946
O O2 0.104279 0.699460 0.755435
O O3 0.169495 0.676179 0.908656
O O4 0.000000 0.709611 0.893730
O O5 0.198217 0.397339 0.500000
O O6 0.153850 0.415882 0.661784
O O7 0.161277 0.317212 0.601185
O O8 0.313920 0.372078 0.630925
O O9 0.500000 0.918407 0.246699
O O10 0.658573 0.918965 0.164841
O O11 0.614321 0.000000 0.255664
O O12 0.500000 0.348755 0.136403
O O13 0.679575 0.377256 0.124949
O O14 0.598158 0.325453 0.000000
O O15 0.750000 0.750000 0.296763
O O16 0.908709 0.777920 0.357694
O O17 0.879209 0.175940 0.500000
O O18 0.000000 0.135900 0.613359
O O19 0.204666 0.592269 0.000000
#
# Coordination Sequence:
#
# PCOD8266111 Si02
#       7
#    16  16  16  16  16  16  16
#     4  11  20  29  48  82 122 159 193 227 267 320
#     4  10  21  38  61  85 113 152 192 232 281 335
#     4  11  26  46  64  84 109 137 181 242 297 343
#     4   9  19  34  53  83 121 157 191 224 263 322
#     4  10  18  29  48  79 120 159 193 227 266 319
#     4   9  18  32  52  84 123 158 191 225 266 325
#     4  11  22  38  61  85 113 151 190 230 280 335
#
# _framework density 19.841422999999999
#
# number of rings (size 3 to 8) (size 9 to 14) (size 15 to 20)
#    0.000    1.857    1.429    3.000    2.000    6.000 
#    0.000    1.429    0.000    1.714    0.000    4.000 
#    0.000    0.000    0.000    0.000    0.000    0.000 
#
# Total GULP energy -694099.272086 kJ/mol
# GULP energy per Si atom -12394.629859 kJ/mol
# Density = 1.979626 g / cm^3
# Si number density = 19.841423 Si / 1000 Ang^3
#
#
#
# Elastic Constant Matrix: (Units=GPa)
#
#
# Indices 1 2 3 4 5 6 
#
# 1 130.7689 48.8473 41.9250 0.0000 0.0000 0.0000
# 2 48.8473 56.2718 34.0899 0.0000 0.0000 0.0000
# 3 41.9250 34.0899 88.8310 0.0000 0.0000 0.0000
# 4 0.0000 0.0000 0.0000 17.6027 0.0000 0.0000
# 5 0.0000 0.0000 0.0000 0.0000 27.3421 0.0000
# 6 0.0000 0.0000 0.0000 0.0000 0.0000 23.5291
#
#
#
# Elastic Compliance Matrix: (Units=1/GPa)
#
#
# Indices 1 2 3 4 5 6 
#
# 1 0.011610 -0.008806 -0.002100 0.000000 0.000000 0.000000
# 2 -0.008806 0.029833 -0.007293 0.000000 0.000000 0.000000
# 3 -0.002100 -0.007293 0.015047 0.000000 0.000000 0.000000
# 4 0.000000 0.000000 0.000000 0.056809 0.000000 0.000000
# 5 0.000000 0.000000 0.000000 0.000000 0.036574 0.000000
# 6 0.000000 0.000000 0.000000 0.000000 0.000000 0.042501
#
#
# Mechanical properties :
#
#
# Convention : Reuss Voigt Hill
#
# Bulk Modulus (GPa) = 49.76934 58.39954 54.08444
# Shear Modulus (GPa) = 21.23438 23.76208 22.49823
#
# Velocity S-wave (km/s) = 3.27495 3.46439 3.37100
# Velocity P-wave (km/s) = 6.28000 6.74535 6.51683
#
# Compressibility (1/GPa) = 0.02009269
#
# Stress axis : x y z
#
# Youngs Moduli (GPa) = 86.13565 33.52035 66.45781
#
# Poissons Ratio (x) = 0.29517 0.13957
# Poissons Ratio (y) = 0.75847 0.48466
# Poissons Ratio (z) = 0.18089 0.24445
#
# Static dielectric constant tensor:
#      x y z
#    x 4.044060 0.000000 0.000000 
#    y 0.000000 3.151720 0.000000 
#    z 0.000000 0.000000 3.544010 
# 
# 
# High freq. dielectric constant tensor:
#      x y z
#    x 1.793480 0.000000 0.000000 
#    y 0.000000 1.715640 0.000000 
#    z 0.000000 0.000000 1.779150 
# 
# From -- ./inp_files/40807.got.cif
#   From: 2010.03.12/outbox.cif.g09.slc.cpg/sg65_21_cif.got.tgz:40807.got - 2010.04.10 20:52:16.
