data_PCOD8266034
_publ_section_title
;
Structure prediction by ZEFSAII (Michael W. Deem and Ramdas Pophale) SiO2 
 PCOD8266034
Probable space group: C M M M
;
_chemical_formula_sum "Si O2"
_cell_formula_units_Z 104
_cell_length_a 18.023481
_cell_length_b 28.229497
_cell_length_c 12.638361
_cell_angle_alpha 90.000000
_cell_angle_beta 90.000000
_cell_angle_gamma 90.000000
_cell_volume 6430.319755
_symmetry_space_group_name_H-M "C M M M"
_symmetry_group_IT_number 65
_symmetry_cell_setting 'orthorhombic'
loop_
_space_group_symop_operation_xyz
x,y,z
-x,-y,z
x,-y,-z
-x,y,-z
-x,-y,-z
x,y,-z
-x,y,z
x,-y,z
1/2+x,1/2+y,z
1/2-x,1/2-y,z
1/2+x,1/2-y,-z
1/2-x,1/2+y,-z
1/2-x,1/2-y,-z
1/2+x,1/2+y,-z
1/2-x,1/2+y,z
1/2+x,1/2-y,z
loop_
_atom_site_type_symbol
_atom_site_label
_atom_site_fract_x
_atom_site_fract_y
_atom_site_fract_z
Si Si1 0.584884 0.127048 0.377451
Si Si2 0.673478 0.691605 0.000000
Si Si3 0.206801 0.446819 0.625456
Si Si4 0.151569 0.298525 0.771204
Si Si5 0.354700 0.393508 0.625225
Si Si6 0.000000 0.052267 0.625436
Si Si7 0.675523 0.689132 0.229211
Si Si8 0.347567 0.794746 0.000000
O O1 0.601742 0.137720 0.500000
O O2 0.500000 0.111517 0.360068
O O3 0.636687 0.084226 0.335481
O O4 0.601170 0.175403 0.314849
O O5 0.655943 0.666153 0.887449
O O6 0.627138 0.740199 0.000000
O O7 0.759416 0.704242 0.000000
O O8 0.207315 0.450185 0.500000
O O9 0.200962 0.500000 0.673302
O O10 0.282544 0.422268 0.664683
O O11 0.236728 0.311374 0.751619
O O12 0.141984 0.241898 0.761191
O O13 0.124587 0.317025 0.888565
O O14 0.353361 0.385397 0.500000
O O15 0.426395 0.421702 0.664703
O O16 0.360482 0.342492 0.679940
O O17 0.000000 0.049275 0.500000
O O18 0.000000 0.000000 0.675234
#
# Coordination Sequence:
#
# PCOD8266034 Si02
#       8
#    16   8  16  16  16   8  16   8
#     4  10  20  32  44  64  96 128 157 189 230 279
#     4   7  12  24  42  69  91 114 151 189 228 263
#     4   9  17  30  48  67  88 116 153 195 231 268
#     4   9  16  29  46  68  94 123 154 188 227 268
#     4  10  18  29  46  72  97 118 152 188 227 281
#     4   9  18  32  48  67  95 125 151 190 240 278
#     4   9  16  27  48  70  94 122 152 189 225 270
#     4   7  12  24  45  66  87 114 154 196 224 258
#
# _framework density 16.173380000000002
#
# number of rings (size 3 to 8) (size 9 to 14) (size 15 to 20)
#    0.000    3.000    1.538    2.308    0.000    2.769 
#    1.385    3.462    0.000    0.462    0.000    4.308 
#    0.000    1.231    0.000    0.000    0.000    0.000 
#
# Total GULP energy -644239.784326 kJ/mol
# GULP energy per Si atom -12389.226622 kJ/mol
# Density = 1.613657 g / cm^3
# Si number density = 16.173380 Si / 1000 Ang^3
#
#
#
# Elastic Constant Matrix: (Units=GPa)
#
#
# Indices 1 2 3 4 5 6 
#
# 1 93.5250 48.9447 33.5643 0.0000 0.0000 0.0000
# 2 48.9447 102.0334 47.9292 0.0000 0.0000 0.0000
# 3 33.5643 47.9292 68.2925 0.0000 0.0000 0.0000
# 4 0.0000 0.0000 0.0000 4.1595 0.0000 0.0000
# 5 0.0000 0.0000 0.0000 0.0000 11.6679 0.0000
# 6 0.0000 0.0000 0.0000 0.0000 0.0000 20.6409
#
#
#
# Elastic Compliance Matrix: (Units=1/GPa)
#
#
# Indices 1 2 3 4 5 6 
#
# 1 0.014792 -0.005491 -0.003416 0.000000 0.000000 0.000000
# 2 -0.005491 0.016659 -0.008993 0.000000 0.000000 0.000000
# 3 -0.003416 -0.008993 0.022634 0.000000 0.000000 0.000000
# 4 0.000000 0.000000 0.000000 0.240413 0.000000 0.000000
# 5 0.000000 0.000000 0.000000 0.000000 0.085706 0.000000
# 6 0.000000 0.000000 0.000000 0.000000 0.000000 0.048447
#
#
# Mechanical properties :
#
#
# Convention : Reuss Voigt Hill
#
# Bulk Modulus (GPa) = 54.69256 58.30303 56.49779
# Shear Modulus (GPa) = 10.62597 16.18783 13.40690
#
# Velocity S-wave (km/s) = 2.56599 3.16712 2.88227
# Velocity P-wave (km/s) = 6.53214 7.03571 6.78860
#
# Compressibility (1/GPa) = 0.01828402
#
# Stress axis : x y z
#
# Youngs Moduli (GPa) = 67.60457 60.02748 44.18225
#
# Poissons Ratio (x) = 0.32960 0.15094
# Poissons Ratio (y) = 0.37120 0.39734
# Poissons Ratio (z) = 0.23096 0.53983
#
# Static dielectric constant tensor:
#      x y z
#    x 2.945770 0.000000 0.000000 
#    y 0.000000 2.995960 0.000000 
#    z 0.000000 0.000000 3.081430 
# 
# 
# High freq. dielectric constant tensor:
#      x y z
#    x 1.607360 0.000000 0.000000 
#    y 0.000000 1.603460 0.000000 
#    z 0.000000 0.000000 1.602130 
# 
# From -- ./inp_files/43138.got.cif
#   From: 2010.03.12/outbox.cif.g09.slc.cpg/sg65_22_cif.got.tgz:43138.got - 2010.04.10 20:52:16.
