data_PCOD8266677
_publ_section_title
;
Structure prediction by ZEFSAII (Michael W. Deem and Ramdas Pophale) SiO2 
 PCOD8266677
Probable space group: C M M M
;
_chemical_formula_sum "Si O2"
_cell_formula_units_Z 80
_cell_length_a 9.017826
_cell_length_b 26.518896
_cell_length_c 17.082251
_cell_angle_alpha 90.000000
_cell_angle_beta 90.000000
_cell_angle_gamma 90.000000
_cell_volume 4085.097161
_symmetry_space_group_name_H-M "C M M M"
_symmetry_group_IT_number 65
_symmetry_cell_setting 'orthorhombic'
loop_
_space_group_symop_operation_xyz
x,y,z
-x,-y,z
x,-y,-z
-x,y,-z
-x,-y,-z
x,y,-z
-x,y,z
x,-y,z
1/2+x,1/2+y,z
1/2-x,1/2-y,z
1/2+x,1/2-y,-z
1/2-x,1/2+y,-z
1/2-x,1/2-y,-z
1/2+x,1/2+y,-z
1/2-x,1/2+y,z
1/2+x,1/2-y,z
loop_
_atom_site_type_symbol
_atom_site_label
_atom_site_fract_x
_atom_site_fract_y
_atom_site_fract_z
Si Si1 0.175974 0.303568 0.342814
Si Si2 0.663610 0.939872 0.500000
Si Si3 0.672305 0.442638 0.909621
Si Si4 0.661574 0.558091 0.645704
Si Si5 0.179248 0.805119 0.500000
Si Si6 0.672594 0.107943 0.225004
O O1 0.250000 0.250000 0.323007
O O2 0.255124 0.329073 0.419331
O O3 0.207890 0.338750 0.266994
O O4 0.000000 0.297319 0.357650
O O5 0.500000 0.916331 0.500000
O O6 0.748688 0.917308 0.574338
O O7 0.654380 0.000000 0.500000
O O8 0.500000 0.438292 0.888725
O O9 0.726299 0.500000 0.891003
O O10 0.759108 0.399282 0.861343
O O11 0.701411 0.430199 0.000000
O O12 0.500000 0.584302 0.652204
O O13 0.639097 0.500000 0.627267
O O14 0.753938 0.563579 0.724592
O O15 0.250000 0.750000 0.500000
O O16 0.000000 0.805342 0.500000
O O17 0.500000 0.098131 0.219578
#
# Coordination Sequence:
#
# PCOD8266677 Si02
#       6
#    16   8  16  16   8  16
#     4  10  21  37  55  77 107 142 181 226 273 319
#     4   9  17  30  47  66  94 134 175 216 261 304
#     4   9  19  37  60  85 113 144 177 214 259 316
#     4  10  20  33  49  70  99 136 176 214 253 305
#     4  10  18  31  54  79 103 137 180 225 274 322
#     4  11  23  35  52  80 109 137 172 218 269 317
#
# _framework density 19.583378
#
# number of rings (size 3 to 8) (size 9 to 14) (size 15 to 20)
#    0.000    2.100    0.000    5.400    0.000    9.600 
#    0.000    2.000    0.000    0.600    0.000    0.000 
#    0.000    0.000    0.000    0.000    0.000    0.000 
#
# Total GULP energy -495734.095280 kJ/mol
# GULP energy per Si atom -12393.352382 kJ/mol
# Density = 1.953881 g / cm^3
# Si number density = 19.583378 Si / 1000 Ang^3
#
#
#
# Elastic Constant Matrix: (Units=GPa)
#
#
# Indices 1 2 3 4 5 6 
#
# 1 155.1455 55.9959 79.3101 0.0000 0.0000 0.0000
# 2 55.9959 69.2561 43.6859 0.0000 0.0000 0.0000
# 3 79.3101 43.6859 127.0172 0.0000 0.0000 0.0000
# 4 0.0000 0.0000 0.0000 34.5872 0.0000 0.0000
# 5 0.0000 0.0000 0.0000 0.0000 39.6356 0.0000
# 6 0.0000 0.0000 0.0000 0.0000 0.0000 25.9876
#
#
#
# Elastic Compliance Matrix: (Units=1/GPa)
#
#
# Indices 1 2 3 4 5 6 
#
# 1 0.011060 -0.005857 -0.004892 0.000000 0.000000 0.000000
# 2 -0.005857 0.021541 -0.003752 0.000000 0.000000 0.000000
# 3 -0.004892 -0.003752 0.012218 0.000000 0.000000 0.000000
# 4 0.000000 0.000000 0.000000 0.028912 0.000000 0.000000
# 5 0.000000 0.000000 0.000000 0.000000 0.025230 0.000000
# 6 0.000000 0.000000 0.000000 0.000000 0.000000 0.038480
#
#
# Mechanical properties :
#
#
# Convention : Reuss Voigt Hill
#
# Bulk Modulus (GPa) = 63.21709 78.82250 71.01980
# Shear Modulus (GPa) = 29.11818 31.53721 30.32769
#
# Velocity S-wave (km/s) = 3.86019 4.01734 3.93955
# Velocity P-wave (km/s) = 7.22629 7.86484 7.55232
#
# Compressibility (1/GPa) = 0.01581851
#
# Stress axis : x y z
#
# Youngs Moduli (GPa) = 90.41604 46.42271 81.84922
#
# Poissons Ratio (x) = 0.27189 0.40037
# Poissons Ratio (y) = 0.52956 0.30708
# Poissons Ratio (z) = 0.44227 0.17417
#
# Static dielectric constant tensor:
#      x y z
#    x 3.824130 0.000000 0.000000 
#    y 0.000000 3.333320 0.000000 
#    z 0.000000 0.000000 3.776790 
# 
# 
# High freq. dielectric constant tensor:
#      x y z
#    x 1.777840 0.000000 0.000000 
#    y 0.000000 1.748410 0.000000 
#    z 0.000000 0.000000 1.750970 
# 
# From -- ./inp_files/49976.got.cif
#   From: 2010.03.12/outbox.cif.g09.slc.cpg/sg65_25_cif.got.tgz:49976.got - 2010.04.10 20:52:16.
