data_PCOD8266660
_publ_section_title
;
Structure prediction by ZEFSAII (Michael W. Deem and Ramdas Pophale) SiO2 
 PCOD8266660
Probable space group: C M M M
;
_chemical_formula_sum "Si O2"
_cell_formula_units_Z 88
_cell_length_a 18.045297
_cell_length_b 28.615359
_cell_length_c 9.574380
_cell_angle_alpha 90.000000
_cell_angle_beta 90.000000
_cell_angle_gamma 90.000000
_cell_volume 4943.947991
_symmetry_space_group_name_H-M "C M M M"
_symmetry_group_IT_number 65
_symmetry_cell_setting 'orthorhombic'
loop_
_space_group_symop_operation_xyz
x,y,z
-x,-y,z
x,-y,-z
-x,y,-z
-x,-y,-z
x,y,-z
-x,y,z
x,-y,z
1/2+x,1/2+y,z
1/2-x,1/2-y,z
1/2+x,1/2-y,-z
1/2-x,1/2+y,-z
1/2-x,1/2-y,-z
1/2+x,1/2+y,-z
1/2-x,1/2+y,z
1/2+x,1/2-y,z
loop_
_atom_site_type_symbol
_atom_site_label
_atom_site_fract_x
_atom_site_fract_y
_atom_site_fract_z
Si Si1 0.347147 0.703219 0.660008
Si Si2 0.144960 0.394903 0.834433
Si Si3 0.207508 0.947463 0.165748
Si Si4 0.915410 0.124502 0.837896
Si Si5 0.500000 0.948390 0.834300
Si Si6 0.675462 0.808095 0.339670
O O1 0.365447 0.691107 0.500000
O O2 0.399906 0.672507 0.757195
O O3 0.361886 0.757875 0.689559
O O4 0.262239 0.692508 0.694559
O O5 0.217458 0.422698 0.781382
O O6 0.137763 0.344625 0.763355
O O7 0.073595 0.422894 0.781800
O O8 0.146602 0.387785 0.000000
O O9 0.137099 0.917293 0.218032
O O10 0.202353 0.000000 0.228367
O O11 0.208246 0.950551 0.000000
O O12 0.000000 0.108934 0.812856
O O13 0.899218 0.134307 0.000000
O O14 0.500000 0.000000 0.769238
O O15 0.500000 0.950934 0.000000
O O16 0.662474 0.822687 0.500000
#
# Coordination Sequence:
#
# PCOD8266660 Si02
#       6
#    16  16  16  16   8  16
#     4   9  18  34  54  74  99 134 172 206 251 308
#     4  10  18  31  53  78 102 132 169 208 254 305
#     4   9  17  30  50  75 101 131 168 206 249 303
#     4  10  20  33  50  76 107 135 169 214 254 290
#     4   9  18  32  51  77 107 135 167 211 258 305
#     4   9  18  33  54  77 100 130 169 212 253 300
#
# _framework density 17.799538999999999
#
# number of rings (size 3 to 8) (size 9 to 14) (size 15 to 20)
#    0.000    2.636    1.818    1.636    0.000    3.636 
#    1.636    4.091    0.000    4.364    0.000    1.273 
#    0.000    0.000    0.000    0.000    0.000    0.000 
#
# Total GULP energy -545578.454526 kJ/mol
# GULP energy per Si atom -12399.510330 kJ/mol
# Density = 1.775903 g / cm^3
# Si number density = 17.799539 Si / 1000 Ang^3
#
#
#
# Elastic Constant Matrix: (Units=GPa)
#
#
# Indices 1 2 3 4 5 6 
#
# 1 124.9693 69.5251 33.1573 0.0000 0.0000 0.0000
# 2 69.5251 144.9684 46.3128 0.0000 0.0000 0.0000
# 3 33.1573 46.3128 39.7585 0.0000 0.0000 0.0000
# 4 0.0000 0.0000 0.0000 6.0427 0.0000 0.0000
# 5 0.0000 0.0000 0.0000 0.0000 17.2394 0.0000
# 6 0.0000 0.0000 0.0000 0.0000 0.0000 27.8122
#
#
#
# Elastic Compliance Matrix: (Units=1/GPa)
#
#
# Indices 1 2 3 4 5 6 
#
# 1 0.011517 -0.003910 -0.005050 0.000000 0.000000 0.000000
# 2 -0.003910 0.012314 -0.011083 0.000000 0.000000 0.000000
# 3 -0.005050 -0.011083 0.042274 0.000000 0.000000 0.000000
# 4 0.000000 0.000000 0.000000 0.165490 0.000000 0.000000
# 5 0.000000 0.000000 0.000000 0.000000 0.058007 0.000000
# 6 0.000000 0.000000 0.000000 0.000000 0.000000 0.035955
#
#
# Mechanical properties :
#
#
# Convention : Reuss Voigt Hill
#
# Bulk Modulus (GPa) = 38.43481 67.52073 52.97777
# Shear Modulus (GPa) = 13.35765 20.93224 17.14494
#
# Velocity S-wave (km/s) = 2.74240 3.43300 3.10695
# Velocity P-wave (km/s) = 5.62741 7.33010 6.53445
#
# Compressibility (1/GPa) = 0.02601808
#
# Stress axis : x y z
#
# Youngs Moduli (GPa) = 86.82598 81.20826 23.65526
#
# Poissons Ratio (x) = 0.31754 0.11947
# Poissons Ratio (y) = 0.33950 0.26217
# Poissons Ratio (z) = 0.43850 0.90004
#
# Static dielectric constant tensor:
#      x y z
#    x 3.293430 0.000000 0.000000 
#    y 0.000000 3.491360 0.000000 
#    z 0.000000 0.000000 2.940260 
# 
# 
# High freq. dielectric constant tensor:
#      x y z
#    x 1.685310 0.000000 0.000000 
#    y 0.000000 1.697630 0.000000 
#    z 0.000000 0.000000 1.652660 
# 
# From -- ./inp_files/10126.got.cif
#   From: 2010.03.12/outbox.cif.g09.slc.cpg/sg65_6_cif.got.tgz:10126.got - 2010.04.10 20:52:16.
