data_PCOD8266420
_publ_section_title
;
Structure prediction by ZEFSAII (Michael W. Deem and Ramdas Pophale) SiO2 
 PCOD8266420
Probable space group: C M M M
;
_chemical_formula_sum "Si O2"
_cell_formula_units_Z 104
_cell_length_a 8.880606
_cell_length_b 26.085357
_cell_length_c 22.824083
_cell_angle_alpha 90.000000
_cell_angle_beta 90.000000
_cell_angle_gamma 90.000000
_cell_volume 5287.285054
_symmetry_space_group_name_H-M "C M M M"
_symmetry_group_IT_number 65
_symmetry_cell_setting 'orthorhombic'
loop_
_space_group_symop_operation_xyz
x,y,z
-x,-y,z
x,-y,-z
-x,y,-z
-x,-y,-z
x,y,-z
-x,y,z
x,-y,z
1/2+x,1/2+y,z
1/2-x,1/2-y,z
1/2+x,1/2-y,-z
1/2-x,1/2+y,-z
1/2-x,1/2-y,-z
1/2+x,1/2+y,-z
1/2-x,1/2+y,z
1/2+x,1/2-y,z
loop_
_atom_site_type_symbol
_atom_site_label
_atom_site_fract_x
_atom_site_fract_y
_atom_site_fract_z
Si Si1 0.321231 0.500000 0.568998
Si Si2 0.175950 0.104478 0.887960
Si Si3 0.167712 0.441497 0.780210
Si Si4 0.665874 0.940297 0.000000
Si Si5 0.820792 0.194334 0.500000
Si Si6 0.824309 0.304873 0.384313
Si Si7 0.829407 0.303593 0.934628
Si Si8 0.675173 0.083845 0.651196
O O1 0.500000 0.500000 0.573735
O O2 0.272364 0.500000 0.500000
O O3 0.262324 0.552198 0.600584
O O4 0.215647 0.084417 0.823910
O O5 0.248837 0.072865 0.940394
O O6 0.237505 0.162151 0.889445
O O7 0.000000 0.103247 0.897377
O O8 0.158756 0.500000 0.798824
O O9 0.228643 0.436985 0.714044
O O10 0.000000 0.416821 0.785649
O O11 0.500000 0.913951 0.000000
O O12 0.644723 0.000000 0.000000
O O13 0.750000 0.250000 0.500000
O O14 0.754306 0.169797 0.441487
O O15 0.000000 0.193409 0.500000
O O16 0.750000 0.250000 0.364060
O O17 0.798596 0.354070 0.342734
O O18 0.000000 0.292926 0.394889
O O19 0.750000 0.250000 0.936208
O O20 0.000000 0.297203 0.913059
O O21 0.822562 0.328506 0.000000
O O22 0.500000 0.072451 0.639819
#
# Coordination Sequence:
#
# PCOD8266420 Si02
#       8
#     8  16  16   8   8  16  16  16
#     4  11  25  41  61  95 131 160 197 258 327 377
#     4  12  24  37  58  89 123 156 196 245 300 356
#     4  10  21  41  65  85 113 158 208 252 301 363
#     4  11  23  39  58  83 116 155 197 243 297 347
#     4  10  18  30  50  77 114 153 192 234 288 352
#     4  10  20  35  57  86 118 153 197 244 297 355
#     4  10  20  36  60  87 120 159 200 246 301 358
#     4  10  22  42  66  89 117 163 213 255 303 370
#
# _framework density 19.669830999999999
#
# number of rings (size 3 to 8) (size 9 to 14) (size 15 to 20)
#    0.000    1.538    1.538    4.846    1.077    5.846 
#    0.000    0.769    0.000    1.846    0.000    0.000 
#    0.000    0.000    0.000    0.000    0.000    0.000 
#
# Total GULP energy -644403.873676 kJ/mol
# GULP energy per Si atom -12392.382186 kJ/mol
# Density = 1.962506 g / cm^3
# Si number density = 19.669831 Si / 1000 Ang^3
#
#
#
# Elastic Constant Matrix: (Units=GPa)
#
#
# Indices 1 2 3 4 5 6 
#
# 1 153.7230 46.4397 55.0102 0.0000 0.0000 0.0000
# 2 46.4397 102.2508 40.8804 0.0000 0.0000 0.0000
# 3 55.0102 40.8804 107.2762 0.0000 0.0000 0.0000
# 4 0.0000 0.0000 0.0000 29.2504 0.0000 0.0000
# 5 0.0000 0.0000 0.0000 0.0000 22.3300 0.0000
# 6 0.0000 0.0000 0.0000 0.0000 0.0000 27.2402
#
#
#
# Elastic Compliance Matrix: (Units=1/GPa)
#
#
# Indices 1 2 3 4 5 6 
#
# 1 0.008473 -0.002490 -0.003396 0.000000 0.000000 0.000000
# 2 -0.002490 0.012270 -0.003399 0.000000 0.000000 0.000000
# 3 -0.003396 -0.003399 0.012358 0.000000 0.000000 0.000000
# 4 0.000000 0.000000 0.000000 0.034188 0.000000 0.000000
# 5 0.000000 0.000000 0.000000 0.000000 0.044783 0.000000
# 6 0.000000 0.000000 0.000000 0.000000 0.000000 0.036710
#
#
# Mechanical properties :
#
#
# Convention : Reuss Voigt Hill
#
# Bulk Modulus (GPa) = 68.81800 71.99007 70.40403
# Shear Modulus (GPa) = 29.03691 30.49212 29.76451
#
# Velocity S-wave (km/s) = 3.84632 3.94153 3.89422
# Velocity P-wave (km/s) = 7.40190 7.57581 7.48936
#
# Compressibility (1/GPa) = 0.01453108
#
# Stress axis : x y z
#
# Youngs Moduli (GPa) = 118.02568 81.50114 80.91840
#
# Poissons Ratio (x) = 0.20298 0.27477
# Poissons Ratio (y) = 0.29394 0.27501
# Poissons Ratio (z) = 0.40078 0.27699
#
# Static dielectric constant tensor:
#      x y z
#    x 3.658970 0.000000 0.000000 
#    y 0.000000 3.623760 0.000000 
#    z 0.000000 0.000000 1.060540 
# 
# 
# High freq. dielectric constant tensor:
#      x y z
#    x 1.772770 0.000000 0.000000 
#    y 0.000000 1.775900 0.000000 
#    z 0.000000 0.000000 1.751430 
# 
# From -- ./inp_files/60473.got.cif
#   From: 2010.03.12/outbox.cif.g09.slc.cpg/sg65_31_cif.got.tgz:60473.got - 2010.04.10 20:52:16.
