data_PCOD8266121
_publ_section_title
;
Structure prediction by ZEFSAII (Michael W. Deem and Ramdas Pophale) SiO2 
 PCOD8266121
Probable space group: C M M M
;
_chemical_formula_sum "Si O2"
_cell_formula_units_Z 112
_cell_length_a 29.717065
_cell_length_b 14.257025
_cell_length_c 13.266983
_cell_angle_alpha 90.000000
_cell_angle_beta 90.000000
_cell_angle_gamma 90.000000
_cell_volume 5620.914742
_symmetry_space_group_name_H-M "C M M M"
_symmetry_group_IT_number 65
_symmetry_cell_setting 'orthorhombic'
loop_
_space_group_symop_operation_xyz
x,y,z
-x,-y,z
x,-y,-z
-x,y,-z
-x,-y,-z
x,y,-z
-x,y,z
x,-y,z
1/2+x,1/2+y,z
1/2-x,1/2-y,z
1/2+x,1/2-y,-z
1/2-x,1/2+y,-z
1/2-x,1/2-y,-z
1/2+x,1/2+y,-z
1/2-x,1/2+y,z
1/2+x,1/2-y,z
loop_
_atom_site_type_symbol
_atom_site_label
_atom_site_fract_x
_atom_site_fract_y
_atom_site_fract_z
Si Si1 0.364646 0.713878 0.382040
Si Si2 0.679875 0.102641 0.380567
Si Si3 0.097014 0.105853 0.112165
Si Si4 0.449738 0.393322 0.693389
Si Si5 0.316634 0.711011 0.120272
Si Si6 0.220745 0.891558 0.384315
Si Si7 0.729480 0.895189 0.880017
O O1 0.360840 0.698827 0.500000
O O2 0.358726 0.822927 0.350580
O O3 0.413437 0.676223 0.353002
O O4 0.321189 0.662486 0.330655
O O5 0.686906 0.099611 0.500000
O O6 0.729735 0.128450 0.333966
O O7 0.664355 0.000000 0.342038
O O8 0.053985 0.111474 0.185048
O O9 0.135011 0.174890 0.159367
O O10 0.116693 0.000000 0.110202
O O11 0.082168 0.136905 0.000000
O O12 0.500000 0.361440 0.662299
O O13 0.440814 0.500000 0.656004
O O14 0.309202 0.820153 0.152710
O O15 0.277227 0.642888 0.162177
O O16 0.316301 0.702210 0.000000
O O17 0.223248 0.857689 0.500000
O O18 0.208802 0.000000 0.377225
O O19 0.719593 0.000000 0.836617
O O20 0.731495 0.899141 0.000000
#
# Coordination Sequence:
#
# PCOD8266121 Si02
#       7
#    16  16  16  16  16  16  16
#     4  10  18  29  49  74 102 137 168 194 235 290
#     4   8  14  25  44  72 103 134 169 206 238 271
#     4   9  17  31  52  72  89 115 153 197 245 292
#     4  10  22  37  51  71  97 123 157 202 248 296
#     4   8  13  21  37  62  87 115 152 186 220 270
#     4   8  13  22  40  69 102 134 167 198 231 276
#     4   8  12  18  32  58  92 124 150 178 216 266
#
# _framework density 19.925581999999999
#
# number of rings (size 3 to 8) (size 9 to 14) (size 15 to 20)
#    0.000    3.286    0.000    3.000    0.000    4.857 
#    0.000    2.143    6.286    1.286    0.000    2.000 
#    0.000    0.000    0.000    6.857    0.000    0.286 
#
# Total GULP energy -693922.880928 kJ/mol
# GULP energy per Si atom -12391.480017 kJ/mol
# Density = 1.988023 g / cm^3
# Si number density = 19.925582 Si / 1000 Ang^3
#
#
#
# Elastic Constant Matrix: (Units=GPa)
#
#
# Indices 1 2 3 4 5 6 
#
# 1 128.5283 80.6088 19.0654 0.0000 0.0000 0.0000
# 2 80.6088 138.4668 15.0255 0.0000 0.0000 0.0000
# 3 19.0654 15.0255 12.4684 0.0000 0.0000 0.0000
# 4 0.0000 0.0000 0.0000 8.7542 0.0000 0.0000
# 5 0.0000 0.0000 0.0000 0.0000 22.0163 0.0000
# 6 0.0000 0.0000 0.0000 0.0000 0.0000 28.1613
#
#
#
# Elastic Compliance Matrix: (Units=1/GPa)
#
#
# Indices 1 2 3 4 5 6 
#
# 1 0.013932 -0.006671 -0.013264 0.000000 0.000000 0.000000
# 2 -0.006671 0.011503 -0.003661 0.000000 0.000000 0.000000
# 3 -0.013264 -0.003661 0.104896 0.000000 0.000000 0.000000
# 4 0.000000 0.000000 0.000000 0.114230 0.000000 0.000000
# 5 0.000000 0.000000 0.000000 0.000000 0.045421 0.000000
# 6 0.000000 0.000000 0.000000 0.000000 0.000000 0.035510
#
#
# Mechanical properties :
#
#
# Convention : Reuss Voigt Hill
#
# Bulk Modulus (GPa) = 12.02808 56.54034 34.28421
# Shear Modulus (GPa) = 12.48761 22.77062 17.62911
#
# Velocity S-wave (km/s) = 2.50614 3.38417 2.97770
# Velocity P-wave (km/s) = 3.79788 6.61117 5.39126
#
# Compressibility (1/GPa) = 0.08313881
#
# Stress axis : x y z
#
# Youngs Moduli (GPa) = 71.77816 86.93497 9.53323
#
# Poissons Ratio (x) = 0.57996 0.12645
# Poissons Ratio (y) = 0.47884 0.03490
# Poissons Ratio (z) = 0.95205 0.31828
#
# Static dielectric constant tensor:
#      x y z
#    x 3.306910 0.000000 0.000000 
#    y 0.000000 3.828130 0.000000 
#    z 0.000000 0.000000 3.674350 
# 
# 
# High freq. dielectric constant tensor:
#      x y z
#    x 1.727160 0.000000 0.000000 
#    y 0.000000 1.768540 0.000000 
#    z 0.000000 0.000000 1.795730 
# 
# From -- ./inp_files/47033.got.cif
#   From: 2010.03.12/outbox.cif.g09.slc.cpg/sg65_24_cif.got.tgz:47033.got - 2010.04.10 20:52:16.
