data_PCOD8266575
_publ_section_title
;
Structure prediction by ZEFSAII (Michael W. Deem and Ramdas Pophale) SiO2 
 PCOD8266575
Probable space group: C M M M
;
_chemical_formula_sum "Si O2"
_cell_formula_units_Z 72
_cell_length_a 19.771009
_cell_length_b 19.418179
_cell_length_c 10.255461
_cell_angle_alpha 90.000000
_cell_angle_beta 90.000000
_cell_angle_gamma 90.000000
_cell_volume 3937.245736
_symmetry_space_group_name_H-M "C M M M"
_symmetry_group_IT_number 65
_symmetry_cell_setting 'orthorhombic'
loop_
_space_group_symop_operation_xyz
x,y,z
-x,-y,z
x,-y,-z
-x,y,-z
-x,-y,-z
x,y,-z
-x,y,z
x,-y,z
1/2+x,1/2+y,z
1/2-x,1/2-y,z
1/2+x,1/2-y,-z
1/2-x,1/2+y,-z
1/2-x,1/2-y,-z
1/2+x,1/2+y,-z
1/2-x,1/2+y,z
1/2+x,1/2-y,z
loop_
_atom_site_type_symbol
_atom_site_label
_atom_site_fract_x
_atom_site_fract_y
_atom_site_fract_z
Si Si1 0.221702 0.424931 0.147411
Si Si2 0.675064 0.221605 0.149128
Si Si3 0.578335 0.707609 0.355480
Si Si4 0.138233 0.922242 0.735448
Si Si5 0.075194 0.081886 0.000000
O O1 0.185351 0.500000 0.164991
O O2 0.171273 0.361301 0.168396
O O3 0.280820 0.420050 0.254934
O O4 0.252458 0.420850 0.000000
O O5 0.750000 0.250000 0.182347
O O6 0.620632 0.250504 0.249249
O O7 0.655997 0.241310 0.000000
O O8 0.585847 0.740804 0.500000
O O9 0.500000 0.706143 0.312877
O O10 0.607990 0.629823 0.370441
O O11 0.112864 0.000000 0.705507
O O12 0.111726 0.890909 0.871666
O O13 0.000000 0.111623 0.000000
O O14 0.077054 0.000000 0.000000
#
# Coordination Sequence:
#
# PCOD8266575 Si02
#       5
#    16  16  16  16   8
#     4   9  16  30  54  83 114 141 170 219 278 328
#     4  10  20  36  59  86 111 140 183 230 275 327
#     4  11  25  40  53  75 111 154 192 228 274 324
#     4  10  18  31  50  76 110 146 183 220 261 318
#     4   9  16  24  40  69 102 138 178 219 260 301
#
# _framework density 18.286895000000001
#
# number of rings (size 3 to 8) (size 9 to 14) (size 15 to 20)
#    0.000    2.111    3.333    0.667    1.556    2.667 
#    0.000    1.111    0.000    1.333    0.000    4.667 
#    0.000    0.000    0.000    0.000    0.000    0.000 
#
# Total GULP energy -446094.195548 kJ/mol
# GULP energy per Si atom -12391.505432 kJ/mol
# Density = 1.824527 g / cm^3
# Si number density = 18.286895 Si / 1000 Ang^3
#
#
#
# Elastic Constant Matrix: (Units=GPa)
#
#
# Indices 1 2 3 4 5 6 
#
# 1 75.1797 47.1341 47.7435 0.0000 0.0000 0.0000
# 2 47.1341 125.9021 43.8860 0.0000 0.0000 0.0000
# 3 47.7435 43.8860 80.2156 0.0000 0.0000 0.0000
# 4 0.0000 0.0000 0.0000 17.1959 0.0000 0.0000
# 5 0.0000 0.0000 0.0000 0.0000 25.9201 0.0000
# 6 0.0000 0.0000 0.0000 0.0000 0.0000 21.2217
#
#
#
# Elastic Compliance Matrix: (Units=1/GPa)
#
#
# Indices 1 2 3 4 5 6 
#
# 1 0.023569 -0.004861 -0.011368 0.000000 0.000000 0.000000
# 2 -0.004861 0.010817 -0.003025 0.000000 0.000000 0.000000
# 3 -0.011368 -0.003025 0.020888 0.000000 0.000000 0.000000
# 4 0.000000 0.000000 0.000000 0.058153 0.000000 0.000000
# 5 0.000000 0.000000 0.000000 0.000000 0.038580 0.000000
# 6 0.000000 0.000000 0.000000 0.000000 0.000000 0.047122
#
#
# Mechanical properties :
#
#
# Convention : Reuss Voigt Hill
#
# Bulk Modulus (GPa) = 59.64797 62.09164 60.86980
# Shear Modulus (GPa) = 20.55717 22.36980 21.46348
#
# Velocity S-wave (km/s) = 3.35647 3.50132 3.42966
# Velocity P-wave (km/s) = 6.90723 7.09743 7.00298
#
# Compressibility (1/GPa) = 0.01676503
#
# Stress axis : x y z
#
# Youngs Moduli (GPa) = 42.42950 92.44933 47.87500
#
# Poissons Ratio (x) = 0.44936 0.54427
# Poissons Ratio (y) = 0.20623 0.14482
# Poissons Ratio (z) = 0.48236 0.27965
#
# Static dielectric constant tensor:
#      x y z
#    x 3.018590 0.000000 0.000000 
#    y 0.000000 3.567370 0.000000 
#    z 0.000000 0.000000 3.275990 
# 
# 
# High freq. dielectric constant tensor:
#      x y z
#    x 1.670300 0.000000 0.000000 
#    y 0.000000 1.711130 0.000000 
#    z 0.000000 0.000000 1.692490 
# 
# From -- ./inp_files/11232.got.cif
#   From: 2010.03.12/outbox.cif.g09.slc.cpg/sg65_6_cif.got.tgz:11232.got - 2010.04.10 20:52:16.
