data_PCOD8266928
_publ_section_title
;
Structure prediction by ZEFSAII (Michael W. Deem and Ramdas Pophale) SiO2 
 PCOD8266928
Probable space group: C M M M
;
_chemical_formula_sum "Si O2"
_cell_formula_units_Z 88
_cell_length_a 19.994576
_cell_length_b 18.025735
_cell_length_c 14.212180
_cell_angle_alpha 90.000000
_cell_angle_beta 90.000000
_cell_angle_gamma 90.000000
_cell_volume 5122.310262
_symmetry_space_group_name_H-M "C M M M"
_symmetry_group_IT_number 65
_symmetry_cell_setting 'orthorhombic'
loop_
_space_group_symop_operation_xyz
x,y,z
-x,-y,z
x,-y,-z
-x,y,-z
-x,-y,-z
x,y,-z
-x,y,z
x,-y,z
1/2+x,1/2+y,z
1/2-x,1/2-y,z
1/2+x,1/2-y,-z
1/2-x,1/2+y,-z
1/2-x,1/2-y,-z
1/2+x,1/2+y,-z
1/2-x,1/2+y,z
1/2+x,1/2-y,z
loop_
_atom_site_type_symbol
_atom_site_label
_atom_site_fract_x
_atom_site_fract_y
_atom_site_fract_z
Si Si1 0.203762 0.318157 0.893363
Si Si2 0.820141 0.709330 0.395143
Si Si3 0.378963 0.340936 0.288431
Si Si4 0.000000 0.083567 0.388891
Si Si5 0.737960 0.086747 0.724628
Si Si6 0.075914 0.772637 0.105381
O O1 0.250000 0.250000 0.855543
O O2 0.218512 0.389659 0.830471
O O3 0.125690 0.297254 0.885332
O O4 0.224375 0.337447 0.000000
O O5 0.850946 0.700326 0.500000
O O6 0.750000 0.750000 0.402177
O O7 0.867721 0.757890 0.328106
O O8 0.810485 0.628512 0.348995
O O9 0.434244 0.377039 0.352777
O O10 0.314596 0.393065 0.295661
O O11 0.403759 0.335700 0.180340
O O12 0.000000 0.087159 0.500000
O O13 0.000000 0.000000 0.351077
O O14 0.726378 0.000000 0.711783
O O15 0.000000 0.745100 0.123613
O O16 0.082783 0.806851 0.000000
#
# Coordination Sequence:
#
# PCOD8266928 Si02
#       6
#    16  16  16   8  16  16
#     4  10  18  33  55  77 106 142 181 225 268 322
#     4   9  18  33  52  73  98 132 179 227 265 310
#     4  11  19  35  55  78 106 144 185 222 262 317
#     4  11  24  38  53  79 114 150 184 221 271 325
#     4  11  21  32  50  79 111 141 176 224 279 325
#     4  10  19  32  56  84 106 134 179 225 267 316
#
# _framework density 17.179748
#
# number of rings (size 3 to 8) (size 9 to 14) (size 15 to 20)
#    0.000    1.727    4.545    1.636    0.000    1.455 
#    0.000    0.000    0.000    2.727    0.000    2.545 
#    0.000    3.636    0.000    0.000    0.000    0.000 
#
# Total GULP energy -545595.668353 kJ/mol
# GULP energy per Si atom -12399.901553 kJ/mol
# Density = 1.714065 g / cm^3
# Si number density = 17.179748 Si / 1000 Ang^3
#
#
#
# Elastic Constant Matrix: (Units=GPa)
#
#
# Indices 1 2 3 4 5 6 
#
# 1 89.5185 40.0406 26.4529 0.0000 0.0000 0.0000
# 2 40.0406 127.2286 50.0079 0.0000 0.0000 0.0000
# 3 26.4529 50.0079 107.1444 0.0000 0.0000 0.0000
# 4 0.0000 0.0000 0.0000 23.8158 0.0000 0.0000
# 5 0.0000 0.0000 0.0000 0.0000 23.1176 0.0000
# 6 0.0000 0.0000 0.0000 0.0000 0.0000 13.5981
#
#
#
# Elastic Compliance Matrix: (Units=1/GPa)
#
#
# Indices 1 2 3 4 5 6 
#
# 1 0.013227 -0.003526 -0.001620 0.000000 0.000000 0.000000
# 2 -0.003526 0.010566 -0.004061 0.000000 0.000000 0.000000
# 3 -0.001620 -0.004061 0.011628 0.000000 0.000000 0.000000
# 4 0.000000 0.000000 0.000000 0.041989 0.000000 0.000000
# 5 0.000000 0.000000 0.000000 0.000000 0.043257 0.000000
# 6 0.000000 0.000000 0.000000 0.000000 0.000000 0.073540
#
#
# Mechanical properties :
#
#
# Convention : Reuss Voigt Hill
#
# Bulk Modulus (GPa) = 58.79745 61.87713 60.33729
# Shear Modulus (GPa) = 22.90543 25.93230 24.41886
#
# Velocity S-wave (km/s) = 3.65537 3.88940 3.77420
# Velocity P-wave (km/s) = 7.21906 7.50104 7.36140
#
# Compressibility (1/GPa) = 0.01700754
#
# Stress axis : x y z
#
# Youngs Moduli (GPa) = 75.60493 94.64626 85.99589
#
# Poissons Ratio (x) = 0.33371 0.13930
# Poissons Ratio (y) = 0.26658 0.34922
# Poissons Ratio (z) = 0.12247 0.38434
#
# Static dielectric constant tensor:
#      x y z
#    x 3.251260 0.000000 0.000000 
#    y 0.000000 2.915680 0.000000 
#    z 0.000000 0.000000 3.525760 
# 
# 
# High freq. dielectric constant tensor:
#      x y z
#    x 1.657840 0.000000 0.000000 
#    y 0.000000 1.623930 0.000000 
#    z 0.000000 0.000000 1.686390 
# 
# From -- ./inp_files/42513.got.cif
#   From: 2010.03.12/outbox.cif.g09.slc.cpg/sg65_22_cif.got.tgz:42513.got - 2010.04.10 20:52:16.
