data_PCOD8266093
_publ_section_title
;
Structure prediction by ZEFSAII (Michael W. Deem and Ramdas Pophale) SiO2 
 PCOD8266093
Probable space group: C M M M
;
_chemical_formula_sum "Si O2"
_cell_formula_units_Z 96
_cell_length_a 15.357796
_cell_length_b 29.297418
_cell_length_c 11.685842
_cell_angle_alpha 90.000000
_cell_angle_beta 90.000000
_cell_angle_gamma 90.000000
_cell_volume 5257.971793
_symmetry_space_group_name_H-M "C M M M"
_symmetry_group_IT_number 65
_symmetry_cell_setting 'orthorhombic'
loop_
_space_group_symop_operation_xyz
x,y,z
-x,-y,z
x,-y,-z
-x,y,-z
-x,-y,-z
x,y,-z
-x,y,z
x,-y,z
1/2+x,1/2+y,z
1/2-x,1/2-y,z
1/2+x,1/2-y,-z
1/2-x,1/2+y,-z
1/2-x,1/2-y,-z
1/2+x,1/2+y,-z
1/2-x,1/2+y,z
1/2+x,1/2-y,z
loop_
_atom_site_type_symbol
_atom_site_label
_atom_site_fract_x
_atom_site_fract_y
_atom_site_fract_z
Si Si1 0.670484 0.051032 0.741757
Si Si2 0.598651 0.256098 0.500000
Si Si3 0.901000 0.204863 0.745388
Si Si4 0.000000 0.446073 0.126344
Si Si5 0.400185 0.070461 0.500000
Si Si6 0.247440 0.642791 0.254596
Si Si7 0.399741 0.200054 0.133844
Si Si8 0.811962 0.339517 0.500000
O O1 0.585738 0.069837 0.807664
O O2 0.648261 0.049013 0.608287
O O3 0.746342 0.088023 0.768791
O O4 0.699015 0.000000 0.781898
O O5 0.500000 0.238166 0.500000
O O6 0.617569 0.286154 0.611690
O O7 0.659809 0.212573 0.500000
O O8 0.836879 0.165066 0.791573
O O9 0.880395 0.249859 0.817712
O O10 0.000000 0.188538 0.765302
O O11 0.000000 0.500000 0.117073
O O12 0.000000 0.423516 0.000000
O O13 0.500000 0.055108 0.500000
O O14 0.393814 0.125628 0.500000
O O15 0.162330 0.664579 0.196931
O O16 0.246461 0.651139 0.389786
O O17 0.500000 0.186121 0.158988
O O18 0.379168 0.200123 0.000000
#
# Coordination Sequence:
#
# PCOD8266093 Si02
#       8
#    16   8  16   8   8  16  16   8
#     4  10  21  34  50  73 102 135 172 213 257 301
#     4  10  18  31  52  75 106 140 167 207 258 305
#     4  10  21  36  54  76 103 137 175 215 258 304
#     4   9  18  33  51  71  99 134 167 201 245 305
#     4  10  18  29  48  73 102 136 172 206 246 304
#     4  11  22  34  54  77 104 138 174 215 258 301
#     4  10  22  37  53  77 109 140 171 206 250 310
#     4  10  20  29  48  79 108 130 169 211 252 305
#
# _framework density 18.257991000000001
#
# number of rings (size 3 to 8) (size 9 to 14) (size 15 to 20)
#    0.000    1.917    2.500    1.500    1.167    3.667 
#    0.000    0.000    0.000    0.500    0.000    0.000 
#    0.000    6.000    0.000    9.833    0.000    0.000 
#
# Total GULP energy -595105.324194 kJ/mol
# GULP energy per Si atom -12398.027587 kJ/mol
# Density = 1.821643 g / cm^3
# Si number density = 18.257991 Si / 1000 Ang^3
#
#
#
# Elastic Constant Matrix: (Units=GPa)
#
#
# Indices 1 2 3 4 5 6 
#
# 1 73.7897 65.4459 15.3406 0.0000 0.0000 0.0000
# 2 65.4459 119.0813 14.6570 0.0000 0.0000 0.0000
# 3 15.3406 14.6570 90.7774 0.0000 0.0000 0.0000
# 4 0.0000 0.0000 0.0000 -77.1505 0.0000 0.0000
# 5 0.0000 0.0000 0.0000 0.0000 5.1384 0.0000
# 6 0.0000 0.0000 0.0000 0.0000 0.0000 23.3554
#
#
#
# Elastic Compliance Matrix: (Units=1/GPa)
#
#
# Indices 1 2 3 4 5 6 
#
# 1 0.026864 -0.014493 -0.002200 0.000000 0.000000 0.000000
# 2 -0.014493 0.016387 -0.000197 0.000000 0.000000 0.000000
# 3 -0.002200 -0.000197 0.011419 0.000000 0.000000 0.000000
# 4 0.000000 0.000000 0.000000 -0.012962 0.000000 0.000000
# 5 0.000000 0.000000 0.000000 0.000000 0.194613 0.000000
# 6 0.000000 0.000000 0.000000 0.000000 0.000000 0.042817
#
#
# Mechanical properties :
#
#
# Convention : Reuss Voigt Hill
#
# Bulk Modulus (GPa) = 47.86703 52.72615 50.29659
# Shear Modulus (GPa) = 15.63081 2.81566 9.22324
#
# Velocity S-wave (km/s) = 2.92911 1.24318 2.25002
# Velocity P-wave (km/s) = 6.14113 5.56792 5.86154
#
# Compressibility (1/GPa) = 0.02089121
#
# Stress axis : x y z
#
# Youngs Moduli (GPa) = 37.22476 61.02316 87.57005
#
# Poissons Ratio (x) = 0.88443 0.19262
# Poissons Ratio (y) = 0.53951 0.01722
# Poissons Ratio (z) = 0.08188 0.01200
#
# Static dielectric constant tensor:
#      x y z
#    x 3.178200 0.000000 0.000000 
#    y 0.000000 3.335920 0.000000 
#    z 0.000000 0.000000 3.516890 
# 
# 
# High freq. dielectric constant tensor:
#      x y z
#    x 1.675310 0.000000 0.000000 
#    y 0.000000 1.699660 0.000000 
#    z 0.000000 0.000000 1.713180 
# 
# From -- ./inp_files/25518.got.cif
#   From: 2010.03.12/outbox.cif.g09.slc.cpg/sg65_13_cif.got.tgz:25518.got - 2010.04.10 20:52:16.
