data_PCOD8266228
_publ_section_title
;
Structure prediction by ZEFSAII (Michael W. Deem and Ramdas Pophale) SiO2 
 PCOD8266228
Probable space group: C M M M
;
_chemical_formula_sum "Si O2"
_cell_formula_units_Z 72
_cell_length_a 19.849620
_cell_length_b 8.735924
_cell_length_c 22.851155
_cell_angle_alpha 90.000000
_cell_angle_beta 90.000000
_cell_angle_gamma 90.000000
_cell_volume 3962.499317
_symmetry_space_group_name_H-M "C M M M"
_symmetry_group_IT_number 65
_symmetry_cell_setting 'orthorhombic'
loop_
_space_group_symop_operation_xyz
x,y,z
-x,-y,z
x,-y,-z
-x,y,-z
-x,-y,-z
x,y,-z
-x,y,z
x,-y,z
1/2+x,1/2+y,z
1/2-x,1/2-y,z
1/2+x,1/2-y,-z
1/2-x,1/2+y,-z
1/2-x,1/2-y,-z
1/2+x,1/2+y,-z
1/2-x,1/2+y,z
1/2+x,1/2-y,z
loop_
_atom_site_type_symbol
_atom_site_label
_atom_site_fract_x
_atom_site_fract_y
_atom_site_fract_z
Si Si1 0.574532 0.181764 0.282538
Si Si2 0.681177 0.320663 0.934061
Si Si3 0.324533 0.682882 0.500000
Si Si4 0.175959 0.682741 0.618356
Si Si5 0.578610 0.824531 0.848281
O O1 0.500000 0.245477 0.298763
O O2 0.629287 0.241747 0.328712
O O3 0.594910 0.235491 0.217315
O O4 0.571648 0.000000 0.283284
O O5 0.689824 0.500000 0.933669
O O6 0.750000 0.250000 0.908480
O O7 0.618466 0.276974 0.894164
O O8 0.668133 0.259489 0.000000
O O9 0.325002 0.500000 0.500000
O O10 0.250000 0.750000 0.500000
O O11 0.358289 0.748959 0.559139
O O12 0.179869 0.500000 0.614032
O O13 0.250000 0.750000 0.628971
O O14 0.500000 0.805684 0.861761
O O15 0.601148 0.000000 0.855241
#
# Coordination Sequence:
#
# PCOD8266228 Si02
#       5
#    16  16   8  16  16
#     4   8  16  32  52  73  98 129 164 201 239 283
#     4  10  21  36  53  74 102 134 168 208 252 297
#     4  10  18  30  47  68  97 127 159 199 241 286
#     4  10  18  30  50  73  97 125 160 200 241 287
#     4   9  18  34  55  77 102 133 168 205 247 296
#
# _framework density 18.170349999999999
#
# number of rings (size 3 to 8) (size 9 to 14) (size 15 to 20)
#    0.000    2.667    0.000    5.000    0.000    3.111 
#    0.000    7.222    0.000    8.667    0.000    0.000 
#    0.000    0.000    0.000    0.000    0.000    0.000 
#
# Total GULP energy -446274.280880 kJ/mol
# GULP energy per Si atom -12396.507802 kJ/mol
# Density = 1.812899 g / cm^3
# Si number density = 18.170350 Si / 1000 Ang^3
#
#
#
# Elastic Constant Matrix: (Units=GPa)
#
#
# Indices 1 2 3 4 5 6 
#
# 1 85.1480 30.4120 74.4623 0.0000 0.0000 0.0000
# 2 30.4120 71.5773 37.8295 0.0000 0.0000 0.0000
# 3 74.4623 37.8295 133.6940 0.0000 0.0000 0.0000
# 4 0.0000 0.0000 0.0000 25.4616 0.0000 0.0000
# 5 0.0000 0.0000 0.0000 0.0000 18.6797 0.0000
# 6 0.0000 0.0000 0.0000 0.0000 0.0000 26.0105
#
#
#
# Elastic Compliance Matrix: (Units=1/GPa)
#
#
# Indices 1 2 3 4 5 6 
#
# 1 0.023673 -0.003633 -0.012157 0.000000 0.000000 0.000000
# 2 -0.003633 0.016985 -0.002783 0.000000 0.000000 0.000000
# 3 -0.012157 -0.002783 0.015038 0.000000 0.000000 0.000000
# 4 0.000000 0.000000 0.000000 0.039275 0.000000 0.000000
# 5 0.000000 0.000000 0.000000 0.000000 0.053534 0.000000
# 6 0.000000 0.000000 0.000000 0.000000 0.000000 0.038446
#
#
# Mechanical properties :
#
#
# Convention : Reuss Voigt Hill
#
# Bulk Modulus (GPa) = 53.90535 63.98077 58.94306
# Shear Modulus (GPa) = 21.71259 23.87803 22.79531
#
# Velocity S-wave (km/s) = 3.46055 3.62901 3.54578
# Velocity P-wave (km/s) = 6.76005 7.26964 7.01947
#
# Compressibility (1/GPa) = 0.01855104
#
# Stress axis : x y z
#
# Youngs Moduli (GPa) = 42.24159 58.87477 66.49771
#
# Poissons Ratio (x) = 0.21391 0.80842
# Poissons Ratio (y) = 0.15347 0.18503
# Poissons Ratio (z) = 0.51353 0.16382
#
# Static dielectric constant tensor:
#      x y z
#    x 3.306330 0.000000 0.000000 
#    y 0.000000 3.155230 0.000000 
#    z 0.000000 0.000000 3.875590 
# 
# 
# High freq. dielectric constant tensor:
#      x y z
#    x 1.688490 0.000000 0.000000 
#    y 0.000000 1.690380 0.000000 
#    z 0.000000 0.000000 1.716120 
# 
# From -- ./inp_files/59242.got.cif
#   From: 2010.03.12/outbox.cif.g09.slc.cpg/sg65_30_cif.got.tgz:59242.got - 2010.04.10 20:52:16.
