data_PCOD8266274
_publ_section_title
;
Structure prediction by ZEFSAII (Michael W. Deem and Ramdas Pophale) SiO2 
 PCOD8266274
Probable space group: C M M M
;
_chemical_formula_sum "Si O2"
_cell_formula_units_Z 96
_cell_length_a 23.819597
_cell_length_b 7.905368
_cell_length_c 26.973287
_cell_angle_alpha 90.000000
_cell_angle_beta 90.000000
_cell_angle_gamma 90.000000
_cell_volume 5079.142228
_symmetry_space_group_name_H-M "C M M M"
_symmetry_group_IT_number 65
_symmetry_cell_setting 'orthorhombic'
loop_
_space_group_symop_operation_xyz
x,y,z
-x,-y,z
x,-y,-z
-x,y,-z
-x,-y,-z
x,y,-z
-x,y,z
x,-y,z
1/2+x,1/2+y,z
1/2-x,1/2-y,z
1/2+x,1/2-y,-z
1/2-x,1/2+y,-z
1/2-x,1/2-y,-z
1/2+x,1/2+y,-z
1/2-x,1/2+y,z
1/2+x,1/2-y,z
loop_
_atom_site_type_symbol
_atom_site_label
_atom_site_fract_x
_atom_site_fract_y
_atom_site_fract_z
Si Si1 0.500000 0.688761 0.324042
Si Si2 0.000000 0.185497 0.791687
Si Si3 0.314237 0.699323 0.704125
Si Si4 0.894960 0.308917 0.622298
Si Si5 0.932834 0.000000 0.557322
Si Si6 0.313892 0.694830 0.895817
Si Si7 0.314290 0.802949 0.000000
Si Si8 0.378471 0.703457 0.197925
O O1 0.500000 0.500000 0.349156
O O2 0.500000 0.662890 0.266537
O O3 0.554330 0.793494 0.339169
O O4 0.941961 0.279148 0.806371
O O5 0.000000 0.000000 0.816885
O O6 0.321591 0.500000 0.699978
O O7 0.250000 0.750000 0.710287
O O8 0.338004 0.779878 0.653444
O O9 0.347549 0.768699 0.752389
O O10 0.893871 0.500000 0.599782
O O11 0.904210 0.169543 0.579536
O O12 0.917043 0.000000 0.500000
O O13 0.000000 0.000000 0.564833
O O14 0.316996 0.500000 0.885324
O O15 0.250000 0.750000 0.895946
O O16 0.346568 0.780612 0.850065
O O17 0.342616 0.734655 0.949282
O O18 0.250000 0.750000 0.000000
O O19 0.320168 0.000000 0.000000
O O20 0.380694 0.500000 0.199220
#
# Coordination Sequence:
#
# PCOD8266274 Si02
#       8
#     8   8  16  16   8  16   8  16
#     4  11  17  33  59  83 117 156 191 232 282 337
#     4   9  16  29  53  78 106 148 186 218 265 331
#     4  11  21  36  55  85 118 154 191 231 282 342
#     4  12  22  37  61  89 119 155 195 237 285 342
#     4  11  24  42  64  92 124 156 192 240 292 336
#     4  10  18  30  48  73 101 135 173 221 272 327
#     4  10  18  30  48  69  92 129 175 220 272 326
#     4   9  18  30  50  77 111 145 180 223 276 329
#
# _framework density 18.900828000000001
#
# number of rings (size 3 to 8) (size 9 to 14) (size 15 to 20)
#    0.000    1.583    4.167    3.500    0.000    0.333 
#    0.000    3.333    0.000    1.000    0.000    3.500 
#    0.000    0.000    0.000    0.000    0.000    0.000 
#
# Total GULP energy -594852.774715 kJ/mol
# GULP energy per Si atom -12392.766140 kJ/mol
# Density = 1.885781 g / cm^3
# Si number density = 18.900828 Si / 1000 Ang^3
#
#
#
# Elastic Constant Matrix: (Units=GPa)
#
#
# Indices 1 2 3 4 5 6 
#
# 1 121.0148 18.8108 55.1852 0.0000 0.0000 0.0000
# 2 18.8108 87.8125 35.5125 0.0000 0.0000 0.0000
# 3 55.1852 35.5125 140.7793 0.0000 0.0000 0.0000
# 4 0.0000 0.0000 0.0000 14.3177 0.0000 0.0000
# 5 0.0000 0.0000 0.0000 0.0000 -336.0308 0.0000
# 6 0.0000 0.0000 0.0000 0.0000 0.0000 18.2347
#
#
#
# Elastic Compliance Matrix: (Units=1/GPa)
#
#
# Indices 1 2 3 4 5 6 
#
# 1 0.010093 -0.000626 -0.003799 0.000000 0.000000 0.000000
# 2 -0.000626 0.012720 -0.002963 0.000000 0.000000 0.000000
# 3 -0.003799 -0.002963 0.009340 0.000000 0.000000 0.000000
# 4 0.000000 0.000000 0.000000 0.069844 0.000000 0.000000
# 5 0.000000 0.000000 0.000000 0.000000 -0.002976 0.000000
# 6 0.000000 0.000000 0.000000 0.000000 0.000000 0.054841
#
#
# Mechanical properties :
#
#
# Convention : Reuss Voigt Hill
#
# Bulk Modulus (GPa) = 57.54568 63.18040 60.36304
# Shear Modulus (GPa) = 28.66481 -44.68914 -8.01216
#
# Velocity S-wave (km/s) = 3.89857 -4.86779 -2.06113
# Velocity P-wave (km/s) = 7.12582 1.38062 5.13242
#
# Compressibility (1/GPa) = 0.01737750
#
# Stress axis : x y z
#
# Youngs Moduli (GPa) = 99.07903 78.61369 107.06769
#
# Poissons Ratio (x) = 0.04920 0.40670
# Poissons Ratio (y) = 0.06201 0.31729
# Poissons Ratio (z) = 0.37636 0.23297
#
# Static dielectric constant tensor:
#      x y z
#    x 4.406810 0.000000 0.000000 
#    y 0.000000 3.364860 0.000000 
#    z 0.000000 0.000000 3.656170 
# 
# 
# High freq. dielectric constant tensor:
#      x y z
#    x 1.717010 0.000000 0.000000 
#    y 0.000000 1.724340 0.000000 
#    z 0.000000 0.000000 1.728850 
# 
# From -- ./inp_files/75750.got.cif
#   From: 2010.03.12/outbox.cif.g09.slc.cpg/sg65_38_cif.got.tgz:75750.got - 2010.04.10 20:52:16.
