data_PCOD8266378
_publ_section_title
;
Structure prediction by ZEFSAII (Michael W. Deem and Ramdas Pophale) SiO2 
 PCOD8266378
Probable space group: C M M M
;
_chemical_formula_sum "Si O2"
_cell_formula_units_Z 96
_cell_length_a 28.989181
_cell_length_b 8.838654
_cell_length_c 20.546838
_cell_angle_alpha 90.000000
_cell_angle_beta 90.000000
_cell_angle_gamma 90.000000
_cell_volume 5264.620565
_symmetry_space_group_name_H-M "C M M M"
_symmetry_group_IT_number 65
_symmetry_cell_setting 'orthorhombic'
loop_
_space_group_symop_operation_xyz
x,y,z
-x,-y,z
x,-y,-z
-x,y,-z
-x,-y,-z
x,y,-z
-x,y,z
x,-y,z
1/2+x,1/2+y,z
1/2-x,1/2-y,z
1/2+x,1/2-y,-z
1/2-x,1/2+y,-z
1/2-x,1/2-y,-z
1/2+x,1/2+y,-z
1/2-x,1/2+y,z
1/2+x,1/2-y,z
loop_
_atom_site_type_symbol
_atom_site_label
_atom_site_fract_x
_atom_site_fract_y
_atom_site_fract_z
Si Si1 0.796345 0.820978 0.871542
Si Si2 0.552027 0.320190 0.806090
Si Si3 0.204456 0.323670 0.731625
Si Si4 0.604956 0.825591 0.687773
Si Si5 0.107878 0.179448 0.071471
Si Si6 0.052902 0.174852 0.425162
O O1 0.750000 0.750000 0.902543
O O2 0.804845 0.756654 0.799937
O O3 0.839420 0.771673 0.915676
O O4 0.791169 0.000000 0.867313
O O5 0.500000 0.257875 0.801164
O O6 0.552634 0.500000 0.807244
O O7 0.580852 0.269394 0.744080
O O8 0.574545 0.253955 0.872505
O O9 0.213517 0.500000 0.743803
O O10 0.250000 0.250000 0.698226
O O11 0.159904 0.295889 0.686561
O O12 0.586095 0.777926 0.617707
O O13 0.593787 0.000000 0.700774
O O14 0.104072 0.000000 0.072575
O O15 0.093216 0.241326 0.000000
O O16 0.061754 0.217238 0.500000
O O17 0.000000 0.207951 0.406152
O O18 0.064398 0.000000 0.412267
#
# Coordination Sequence:
#
# PCOD8266378 Si02
#       6
#    16  16  16  16  16  16
#     4  10  18  30  50  72  98 130 164 209 263 316
#     4  10  20  34  53  75  99 133 177 220 261 307
#     4  10  20  33  51  76 104 134 170 212 257 306
#     4  11  22  34  53  81 111 139 170 212 261 308
#     4   9  18  32  49  71  99 131 170 217 266 311
#     4   9  19  36  57  82 112 145 180 214 249 296
#
# _framework density 18.234932000000001
#
# number of rings (size 3 to 8) (size 9 to 14) (size 15 to 20)
#    0.000    2.167    1.667    3.500    0.000    5.667 
#    0.000    2.500    0.000    4.500    0.000    1.167 
#    0.000    0.000    0.000    0.000    0.000    0.000 
#
# Total GULP energy -595129.797696 kJ/mol
# GULP energy per Si atom -12398.537452 kJ/mol
# Density = 1.819343 g / cm^3
# Si number density = 18.234932 Si / 1000 Ang^3
#
#
#
# Elastic Constant Matrix: (Units=GPa)
#
#
# Indices 1 2 3 4 5 6 
#
# 1 123.4564 37.6437 52.1895 0.0000 0.0000 0.0000
# 2 37.6437 51.3959 17.7349 0.0000 0.0000 0.0000
# 3 52.1895 17.7349 85.8868 0.0000 0.0000 0.0000
# 4 0.0000 0.0000 0.0000 13.5788 0.0000 0.0000
# 5 0.0000 0.0000 0.0000 0.0000 30.9625 0.0000
# 6 0.0000 0.0000 0.0000 0.0000 0.0000 27.7334
#
#
#
# Elastic Compliance Matrix: (Units=1/GPa)
#
#
# Indices 1 2 3 4 5 6 
#
# 1 0.013051 -0.007346 -0.006414 0.000000 0.000000 0.000000
# 2 -0.007346 0.025084 -0.000716 0.000000 0.000000 0.000000
# 3 -0.006414 -0.000716 0.015688 0.000000 0.000000 0.000000
# 4 0.000000 0.000000 0.000000 0.073644 0.000000 0.000000
# 5 0.000000 0.000000 0.000000 0.000000 0.032297 0.000000
# 6 0.000000 0.000000 0.000000 0.000000 0.000000 0.036058
#
#
# Mechanical properties :
#
#
# Convention : Reuss Voigt Hill
#
# Bulk Modulus (GPa) = 40.20477 52.87505 46.53991
# Shear Modulus (GPa) = 21.45326 24.66635 23.05981
#
# Velocity S-wave (km/s) = 3.43373 3.68189 3.55997
# Velocity P-wave (km/s) = 6.14953 6.86547 6.51734
#
# Compressibility (1/GPa) = 0.02487267
#
# Stress axis : x y z
#
# Youngs Moduli (GPa) = 76.62113 39.86575 63.74130
#
# Poissons Ratio (x) = 0.29285 0.40882
# Poissons Ratio (y) = 0.56285 0.04563
# Poissons Ratio (z) = 0.49143 0.02854
#
# Static dielectric constant tensor:
#      x y z
#    x 3.681710 0.000000 0.000000 
#    y 0.000000 3.221690 0.000000 
#    z 0.000000 0.000000 3.280330 
# 
# 
# High freq. dielectric constant tensor:
#      x y z
#    x 1.716370 0.000000 0.000000 
#    y 0.000000 1.693290 0.000000 
#    z 0.000000 0.000000 1.689980 
# 
# From -- ./inp_files/60263.got.cif
#   From: 2010.03.12/outbox.cif.g09.slc.cpg/sg65_31_cif.got.tgz:60263.got - 2010.04.10 20:52:16.
