data_PCOD8266156
_publ_section_title
;
Structure prediction by ZEFSAII (Michael W. Deem and Ramdas Pophale) SiO2 
 PCOD8266156
Probable space group: C M M M
;
_chemical_formula_sum "Si O2"
_cell_formula_units_Z 88
_cell_length_a 9.048505
_cell_length_b 23.558833
_cell_length_c 22.419059
_cell_angle_alpha 90.000000
_cell_angle_beta 90.000000
_cell_angle_gamma 90.000000
_cell_volume 4779.120537
_symmetry_space_group_name_H-M "C M M M"
_symmetry_group_IT_number 65
_symmetry_cell_setting 'orthorhombic'
loop_
_space_group_symop_operation_xyz
x,y,z
-x,-y,z
x,-y,-z
-x,y,-z
-x,-y,-z
x,y,-z
-x,y,z
x,-y,z
1/2+x,1/2+y,z
1/2-x,1/2-y,z
1/2+x,1/2-y,-z
1/2-x,1/2+y,-z
1/2-x,1/2-y,-z
1/2+x,1/2+y,-z
1/2-x,1/2+y,z
1/2+x,1/2-y,z
loop_
_atom_site_type_symbol
_atom_site_label
_atom_site_fract_x
_atom_site_fract_y
_atom_site_fract_z
Si Si1 0.828355 0.000000 0.313402
Si Si2 0.172699 0.192501 0.067532
Si Si3 0.825628 0.064874 0.500000
Si Si4 0.325359 0.190047 0.716878
Si Si5 0.333516 0.875890 0.163256
Si Si6 0.824334 0.112271 0.374711
Si Si7 0.162787 0.500000 0.197831
O O1 0.761510 0.056391 0.342171
O O2 0.795379 0.000000 0.244091
O O3 0.000000 0.000000 0.326820
O O4 0.250000 0.250000 0.088347
O O5 0.223132 0.143802 0.112083
O O6 0.000000 0.201747 0.073323
O O7 0.218502 0.176239 0.000000
O O8 0.777051 0.102875 0.443403
O O9 0.000000 0.056911 0.500000
O O10 0.758841 0.000000 0.500000
O O11 0.500000 0.198170 0.709045
O O12 0.250000 0.250000 0.731267
O O13 0.286778 0.147548 0.771542
O O14 0.258321 0.165641 0.655103
O O15 0.500000 0.855312 0.149154
O O16 0.321679 0.943759 0.158543
O O17 0.000000 0.120978 0.367365
O O18 0.000000 0.500000 0.229316
#
# Coordination Sequence:
#
# PCOD8266156 Si02
#       7
#     8  16   8  16  16  16   8
#     4  10  18  29  52  83 111 142 177 217 267 322
#     4  10  21  37  58  83 111 144 183 227 271 316
#     4   9  16  30  54  83 112 141 176 220 267 320
#     4  11  23  38  56  79 109 143 182 228 275 322
#     4  10  21  36  57  83 111 144 180 221 269 322
#     4  10  19  33  55  83 112 142 180 221 268 324
#     4  10  20  36  54  80 115 147 177 216 271 324
#
# _framework density 18.413429000000001
#
# number of rings (size 3 to 8) (size 9 to 14) (size 15 to 20)
#    0.000    1.909    2.727    1.636    0.000    4.727 
#    0.000    1.364    0.000    3.273    0.000    0.000 
#    0.000    0.000    0.000    0.000    0.000    0.000 
#
# Total GULP energy -545527.415283 kJ/mol
# GULP energy per Si atom -12398.350347 kJ/mol
# Density = 1.837152 g / cm^3
# Si number density = 18.413429 Si / 1000 Ang^3
#
#
#
# Elastic Constant Matrix: (Units=GPa)
#
#
# Indices 1 2 3 4 5 6 
#
# 1 59.1234 40.7829 38.6885 0.0000 0.0000 0.0000
# 2 40.7829 115.4491 48.9850 0.0000 0.0000 0.0000
# 3 38.6885 48.9850 102.7701 0.0000 0.0000 0.0000
# 4 0.0000 0.0000 0.0000 27.3655 0.0000 0.0000
# 5 0.0000 0.0000 0.0000 0.0000 25.7565 0.0000
# 6 0.0000 0.0000 0.0000 0.0000 0.0000 25.8833
#
#
#
# Elastic Compliance Matrix: (Units=1/GPa)
#
#
# Indices 1 2 3 4 5 6 
#
# 1 0.025550 -0.006198 -0.006664 0.000000 0.000000 0.000000
# 2 -0.006198 0.012361 -0.003559 0.000000 0.000000 0.000000
# 3 -0.006664 -0.003559 0.013935 0.000000 0.000000 0.000000
# 4 0.000000 0.000000 0.000000 0.036542 0.000000 0.000000
# 5 0.000000 0.000000 0.000000 0.000000 0.038825 0.000000
# 6 0.000000 0.000000 0.000000 0.000000 0.000000 0.038635
#
#
# Mechanical properties :
#
#
# Convention : Reuss Voigt Hill
#
# Bulk Modulus (GPa) = 52.61796 59.36172 55.98984
# Shear Modulus (GPa) = 24.38718 25.72681 25.05699
#
# Velocity S-wave (km/s) = 3.64321 3.74194 3.69290
# Velocity P-wave (km/s) = 6.80700 7.13987 6.97542
#
# Compressibility (1/GPa) = 0.01900492
#
# Stress axis : x y z
#
# Youngs Moduli (GPa) = 39.13905 80.89812 71.75934
#
# Poissons Ratio (x) = 0.50141 0.47822
# Poissons Ratio (y) = 0.24258 0.25537
# Poissons Ratio (z) = 0.26083 0.28789
#
# Static dielectric constant tensor:
#      x y z
#    x 3.272660 0.000000 0.000000 
#    y 0.000000 3.415930 0.000000 
#    z 0.000000 0.000000 3.376280 
# 
# 
# High freq. dielectric constant tensor:
#      x y z
#    x 1.703500 0.000000 0.000000 
#    y 0.000000 1.713180 0.000000 
#    z 0.000000 0.000000 1.707990 
# 
# From -- ./inp_files/59929.got.cif
#   From: 2010.03.12/outbox.cif.g09.slc.cpg/sg65_30_cif.got.tgz:59929.got - 2010.04.10 20:52:16.
