data_PCOD8266294
_publ_section_title
;
Structure prediction by ZEFSAII (Michael W. Deem and Ramdas Pophale) SiO2 
 PCOD8266294
Probable space group: C M M M
;
_chemical_formula_sum "Si O2"
_cell_formula_units_Z 104
_cell_length_a 25.465553
_cell_length_b 8.909256
_cell_length_c 24.358583
_cell_angle_alpha 90.000000
_cell_angle_beta 90.000000
_cell_angle_gamma 90.000000
_cell_volume 5526.454140
_symmetry_space_group_name_H-M "C M M M"
_symmetry_group_IT_number 65
_symmetry_cell_setting 'orthorhombic'
loop_
_space_group_symop_operation_xyz
x,y,z
-x,-y,z
x,-y,-z
-x,y,-z
-x,-y,-z
x,y,-z
-x,y,z
x,-y,z
1/2+x,1/2+y,z
1/2-x,1/2-y,z
1/2+x,1/2-y,-z
1/2-x,1/2+y,-z
1/2-x,1/2-y,-z
1/2+x,1/2+y,-z
1/2-x,1/2+y,z
1/2+x,1/2-y,z
loop_
_atom_site_type_symbol
_atom_site_label
_atom_site_fract_x
_atom_site_fract_y
_atom_site_fract_z
Si Si1 0.197124 0.323739 0.437973
Si Si2 0.805275 0.825387 0.892487
Si Si3 0.307205 0.821413 0.000000
Si Si4 0.595176 0.823087 0.626549
Si Si5 0.000000 0.821283 0.936965
Si Si6 0.440065 0.672009 0.268682
Si Si7 0.000000 0.824382 0.564041
Si Si8 0.915732 0.174051 0.149680
O O1 0.185292 0.268015 0.500000
O O2 0.204699 0.500000 0.436691
O O3 0.250000 0.250000 0.414910
O O4 0.150460 0.272194 0.398511
O O5 0.750000 0.750000 0.873658
O O6 0.852453 0.802041 0.849741
O O7 0.793617 0.000000 0.904436
O O8 0.832416 0.745023 0.945079
O O9 0.250000 0.750000 0.000000
O O10 0.307392 0.000000 0.000000
O O11 0.594556 0.768819 0.689490
O O12 0.551245 0.745487 0.590441
O O13 0.586588 0.000000 0.623962
O O14 0.948493 0.761391 0.902799
O O15 0.000000 0.000000 0.941688
O O16 0.000000 0.755799 0.000000
O O17 0.500000 0.682442 0.288413
O O18 0.420239 0.500000 0.269367
O O19 0.434911 0.742738 0.207545
O O20 0.000000 0.786413 0.500000
O O21 0.000000 0.000000 0.576152
O O22 0.930006 0.000000 0.149893
#
# Coordination Sequence:
#
# PCOD8266294 Si02
#       8
#    16  16   8  16   8  16   8  16
#     4   9  19  36  57  81 111 148 186 226 272 323
#     4  10  19  32  51  76 105 136 173 213 262 321
#     4  10  18  30  48  71 100 135 171 208 256 312
#     4  11  22  36  56  83 114 146 185 229 279 329
#     4   9  16  27  48  79 107 128 163 220 277 322
#     4  10  19  35  57  79 107 142 185 231 275 325
#     4  11  23  36  53  82 116 149 184 223 272 325
#     4   9  18  32  52  79 107 137 175 224 275 321
#
# _framework density 18.818577999999999
#
# number of rings (size 3 to 8) (size 9 to 14) (size 15 to 20)
#    0.000    2.154    1.538    3.231    1.077    2.462 
#    0.000    3.846    0.000    3.692    0.000    0.538 
#    0.000    0.000    0.000    0.000    0.000    0.000 
#
# Total GULP energy -644459.787097 kJ/mol
# GULP energy per Si atom -12393.457444 kJ/mol
# Density = 1.877575 g / cm^3
# Si number density = 18.818578 Si / 1000 Ang^3
#
#
#
# Elastic Constant Matrix: (Units=GPa)
#
#
# Indices 1 2 3 4 5 6 
#
# 1 130.2899 37.0137 71.2201 0.0000 0.0000 0.0000
# 2 37.0137 65.8091 39.0670 0.0000 0.0000 0.0000
# 3 71.2201 39.0670 136.5322 0.0000 0.0000 0.0000
# 4 0.0000 0.0000 0.0000 21.0542 0.0000 0.0000
# 5 0.0000 0.0000 0.0000 0.0000 25.1547 0.0000
# 6 0.0000 0.0000 0.0000 0.0000 0.0000 25.7544
#
#
#
# Elastic Compliance Matrix: (Units=1/GPa)
#
#
# Indices 1 2 3 4 5 6 
#
# 1 0.011354 -0.003457 -0.004933 0.000000 0.000000 0.000000
# 2 -0.003457 0.019358 -0.003735 0.000000 0.000000 0.000000
# 3 -0.004933 -0.003735 0.010967 0.000000 0.000000 0.000000
# 4 0.000000 0.000000 0.000000 0.047496 0.000000 0.000000
# 5 0.000000 0.000000 0.000000 0.000000 0.039754 0.000000
# 6 0.000000 0.000000 0.000000 0.000000 0.000000 0.038828
#
#
# Mechanical properties :
#
#
# Convention : Reuss Voigt Hill
#
# Bulk Modulus (GPa) = 57.38617 69.69253 63.53935
# Shear Modulus (GPa) = 25.27576 26.74802 26.01189
#
# Velocity S-wave (km/s) = 3.66885 3.77419 3.72189
# Velocity P-wave (km/s) = 6.96476 7.49046 7.23239
#
# Compressibility (1/GPa) = 0.01742580
#
# Stress axis : x y z
#
# Youngs Moduli (GPa) = 88.07358 51.65948 91.18589
#
# Poissons Ratio (x) = 0.17860 0.44986
# Poissons Ratio (y) = 0.30450 0.34062
# Poissons Ratio (z) = 0.43451 0.19297
#
# Static dielectric constant tensor:
#      x y z
#    x 3.505030 0.000000 0.000000 
#    y 0.000000 3.262580 0.000000 
#    z 0.000000 0.000000 4.432480 
# 
# 
# High freq. dielectric constant tensor:
#      x y z
#    x 1.730250 0.000000 0.000000 
#    y 0.000000 1.707470 0.000000 
#    z 0.000000 0.000000 1.731000 
# 
# From -- ./inp_files/71914.got.cif
#   From: 2010.03.12/outbox.cif.g09.slc.cpg/sg65_36_cif.got.tgz:71914.got - 2010.04.10 20:52:16.
