data_PCOD8266388
_publ_section_title
;
Structure prediction by ZEFSAII (Michael W. Deem and Ramdas Pophale) SiO2 
 PCOD8266388
Probable space group: C M M M
;
_chemical_formula_sum "Si O2"
_cell_formula_units_Z 80
_cell_length_a 28.169350
_cell_length_b 20.326138
_cell_length_c 7.787347
_cell_angle_alpha 90.000000
_cell_angle_beta 90.000000
_cell_angle_gamma 90.000000
_cell_volume 4458.833165
_symmetry_space_group_name_H-M "C M M M"
_symmetry_group_IT_number 65
_symmetry_cell_setting 'orthorhombic'
loop_
_space_group_symop_operation_xyz
x,y,z
-x,-y,z
x,-y,-z
-x,y,-z
-x,-y,-z
x,y,-z
-x,y,z
x,-y,z
1/2+x,1/2+y,z
1/2-x,1/2-y,z
1/2+x,1/2-y,-z
1/2-x,1/2+y,-z
1/2-x,1/2-y,-z
1/2+x,1/2+y,-z
1/2-x,1/2+y,z
1/2+x,1/2-y,z
loop_
_atom_site_type_symbol
_atom_site_label
_atom_site_fract_x
_atom_site_fract_y
_atom_site_fract_z
Si Si1 0.717015 0.307539 0.305482
Si Si2 0.222542 0.425587 0.199476
Si Si3 0.880504 0.622035 0.803866
Si Si4 0.446889 0.277706 0.500000
Si Si5 0.947053 0.621293 0.500000
Si Si6 0.382325 0.724182 0.190317
O O1 0.704315 0.288021 0.500000
O O2 0.750000 0.250000 0.224155
O O3 0.743527 0.377257 0.304065
O O4 0.667800 0.313389 0.203064
O O5 0.236425 0.500000 0.247940
O O6 0.167770 0.414418 0.247842
O O7 0.230257 0.410693 0.000000
O O8 0.920778 0.596534 0.672834
O O9 0.871828 0.699252 0.778347
O O10 0.895877 0.605563 0.000000
O O11 0.500000 0.307594 0.500000
O O12 0.449492 0.199581 0.500000
O O13 0.419753 0.303034 0.670443
O O14 0.000000 0.591346 0.500000
O O15 0.403594 0.712014 0.000000
#
# Coordination Sequence:
#
# PCOD8266388 Si02
#       6
#    16  16  16   8   8  16
#     4  11  21  31  51  77 105 138 173 213 256 305
#     4  10  21  35  50  72 103 138 174 213 256 304
#     4   9  18  31  49  70  96 131 170 211 256 305
#     4   9  18  32  46  70 105 131 163 213 263 307
#     4   9  18  30  48  70  94 124 165 218 268 309
#     4  10  18  30  50  74 100 133 173 210 252 304
#
# _framework density 17.941915000000002
#
# number of rings (size 3 to 8) (size 9 to 14) (size 15 to 20)
#    0.000    2.200    3.000    0.600    1.400    2.000 
#    0.000    4.000    0.000    1.200    0.000    2.800 
#    0.000    1.600    0.000    4.200    0.000    0.200 
#
# Total GULP energy -496025.924422 kJ/mol
# GULP energy per Si atom -12400.648111 kJ/mol
# Density = 1.790108 g / cm^3
# Si number density = 17.941915 Si / 1000 Ang^3
#
#
#
# Elastic Constant Matrix: (Units=GPa)
#
#
# Indices 1 2 3 4 5 6 
#
# 1 119.8767 29.5119 57.8247 0.0000 0.0000 0.0000
# 2 29.5119 55.1789 17.6671 0.0000 0.0000 0.0000
# 3 57.8247 17.6671 110.1405 0.0000 0.0000 0.0000
# 4 0.0000 0.0000 0.0000 11.2760 0.0000 0.0000
# 5 0.0000 0.0000 0.0000 0.0000 25.5890 0.0000
# 6 0.0000 0.0000 0.0000 0.0000 0.0000 12.7798
#
#
#
# Elastic Compliance Matrix: (Units=1/GPa)
#
#
# Indices 1 2 3 4 5 6 
#
# 1 0.012241 -0.004732 -0.005667 0.000000 0.000000 0.000000
# 2 -0.004732 0.020933 -0.000873 0.000000 0.000000 0.000000
# 3 -0.005667 -0.000873 0.012195 0.000000 0.000000 0.000000
# 4 0.000000 0.000000 0.000000 0.088684 0.000000 0.000000
# 5 0.000000 0.000000 0.000000 0.000000 0.039079 0.000000
# 6 0.000000 0.000000 0.000000 0.000000 0.000000 0.078249
#
#
# Mechanical properties :
#
#
# Convention : Reuss Voigt Hill
#
# Bulk Modulus (GPa) = 43.81541 55.02261 49.41901
# Shear Modulus (GPa) = 17.75980 21.94177 19.85078
#
# Velocity S-wave (km/s) = 3.14960 3.50084 3.32986
# Velocity P-wave (km/s) = 6.14006 6.86111 6.51058
#
# Compressibility (1/GPa) = 0.02282302
#
# Stress axis : x y z
#
# Youngs Moduli (GPa) = 81.69479 47.77033 82.00191
#
# Poissons Ratio (x) = 0.22606 0.46474
# Poissons Ratio (y) = 0.38660 0.07162
# Poissons Ratio (z) = 0.46300 0.04172
#
# Static dielectric constant tensor:
#      x y z
#    x 3.309570 0.000000 0.000000 
#    y 0.000000 2.862290 0.000000 
#    z 0.000000 0.000000 3.442180 
# 
# 
# High freq. dielectric constant tensor:
#      x y z
#    x 1.683390 0.000000 0.000000 
#    y 0.000000 1.641490 0.000000 
#    z 0.000000 0.000000 1.708120 
# 
# From -- ./inp_files/11572.got.cif
#   From: 2010.03.12/outbox.cif.g09.slc.cpg/sg65_6_cif.got.tgz:11572.got - 2010.04.10 20:52:16.
