data_PCOD8266964
_publ_section_title
;
Structure prediction by ZEFSAII (Michael W. Deem and Ramdas Pophale) SiO2 
 PCOD8266964
Probable space group: C M M M
;
_chemical_formula_sum "Si O2"
_cell_formula_units_Z 64
_cell_length_a 8.517949
_cell_length_b 15.318659
_cell_length_c 24.121498
_cell_angle_alpha 90.000000
_cell_angle_beta 90.000000
_cell_angle_gamma 90.000000
_cell_volume 3147.458838
_symmetry_space_group_name_H-M "C M M M"
_symmetry_group_IT_number 65
_symmetry_cell_setting 'orthorhombic'
loop_
_space_group_symop_operation_xyz
x,y,z
-x,-y,z
x,-y,-z
-x,y,-z
-x,-y,-z
x,y,-z
-x,y,z
x,-y,z
1/2+x,1/2+y,z
1/2-x,1/2-y,z
1/2+x,1/2-y,-z
1/2-x,1/2+y,-z
1/2-x,1/2-y,-z
1/2+x,1/2+y,-z
1/2-x,1/2+y,z
1/2+x,1/2-y,z
loop_
_atom_site_type_symbol
_atom_site_label
_atom_site_fract_x
_atom_site_fract_y
_atom_site_fract_z
Si Si1 0.686127 0.847054 0.000000
Si Si2 0.683784 0.000000 0.186160
Si Si3 0.685172 0.340325 0.617274
Si Si4 0.187216 0.901751 0.500000
Si Si5 0.185647 0.847486 0.885910
Si Si6 0.185909 0.000000 0.693258
O O1 0.750000 0.750000 0.000000
O O2 0.751103 0.890099 0.943595
O O3 0.500000 0.850954 0.000000
O O4 0.760951 0.912001 0.162416
O O5 0.714634 0.000000 0.251129
O O6 0.500000 0.000000 0.173116
O O7 0.500000 0.338178 0.614660
O O8 0.750000 0.250000 0.641445
O O9 0.753286 0.354985 0.555194
O O10 0.739769 0.416213 0.658311
O O11 0.000000 0.902198 0.500000
O O12 0.250929 0.000000 0.500000
O O13 0.250000 0.750000 0.875061
O O14 0.000000 0.841775 0.888099
O O15 0.000000 0.000000 0.705805
#
# Coordination Sequence:
#
# PCOD8266964 Si02
#       6
#     8   8  16   8  16   8
#     4  10  18  33  58  91 127 162 198 241 295 357
#     4  12  26  43  62  87 117 156 204 256 305 358
#     4  10  20  35  59  86 115 150 192 237 288 349
#     4   9  15  30  57  86 115 152 191 229 280 348
#     4  11  22  40  64  92 124 160 200 247 301 360
#     4  10  22  41  59  79 110 154 199 242 292 354
#
# _framework density 20.333863999999998
#
# number of rings (size 3 to 8) (size 9 to 14) (size 15 to 20)
#    0.000    1.625    1.250    6.375    0.000    2.500 
#    0.000    5.000    0.000    0.750    0.000    0.000 
#    0.000    0.000    0.000    0.000    0.000    0.000 
#
# Total GULP energy -396802.194844 kJ/mol
# GULP energy per Si atom -12400.068589 kJ/mol
# Density = 2.028758 g / cm^3
# Si number density = 20.333864 Si / 1000 Ang^3
#
#
#
# Elastic Constant Matrix: (Units=GPa)
#
#
# Indices 1 2 3 4 5 6 
#
# 1 119.5591 38.9819 46.0666 0.0000 0.0000 0.0000
# 2 38.9819 150.6170 69.8951 0.0000 0.0000 0.0000
# 3 46.0666 69.8951 149.0660 0.0000 0.0000 0.0000
# 4 0.0000 0.0000 0.0000 26.0182 0.0000 0.0000
# 5 0.0000 0.0000 0.0000 0.0000 29.0109 0.0000
# 6 0.0000 0.0000 0.0000 0.0000 0.0000 29.7092
#
#
#
# Elastic Compliance Matrix: (Units=1/GPa)
#
#
# Indices 1 2 3 4 5 6 
#
# 1 0.009731 -0.001435 -0.002334 0.000000 0.000000 0.000000
# 2 -0.001435 0.008698 -0.003635 0.000000 0.000000 0.000000
# 3 -0.002334 -0.003635 0.009134 0.000000 0.000000 0.000000
# 4 0.000000 0.000000 0.000000 0.038435 0.000000 0.000000
# 5 0.000000 0.000000 0.000000 0.000000 0.034470 0.000000
# 6 0.000000 0.000000 0.000000 0.000000 0.000000 0.033660
#
#
# Mechanical properties :
#
#
# Convention : Reuss Voigt Hill
#
# Bulk Modulus (GPa) = 78.40398 81.01438 79.70918
# Shear Modulus (GPa) = 32.63981 34.56755 33.60368
#
# Velocity S-wave (km/s) = 4.01083 4.12758 4.06962
# Velocity P-wave (km/s) = 7.75184 7.91483 7.83376
#
# Compressibility (1/GPa) = 0.01275445
#
# Stress axis : x y z
#
# Youngs Moduli (GPa) = 102.75910 114.97553 109.48068
#
# Poissons Ratio (x) = 0.16503 0.25557
# Poissons Ratio (y) = 0.14750 0.39791
# Poissons Ratio (z) = 0.23988 0.41789
#
# Static dielectric constant tensor:
#      x y z
#    x 3.487480 0.000000 0.000000 
#    y 0.000000 2.978500 0.000000 
#    z 0.000000 0.000000 4.038010 
# 
# 
# High freq. dielectric constant tensor:
#      x y z
#    x 1.784150 0.000000 0.000000 
#    y 0.000000 1.797940 0.000000 
#    z 0.000000 0.000000 1.800140 
# 
# From -- ./inp_files/66910.got.cif
#   From: 2010.03.12/outbox.cif.g09.slc.cpg/sg65_34_cif.got.tgz:66910.got - 2010.04.10 20:52:16.
