data_PCOD8266577
_publ_section_title
;
Structure prediction by ZEFSAII (Michael W. Deem and Ramdas Pophale) SiO2 
 PCOD8266577
Probable space group: C M M M
;
_chemical_formula_sum "Si O2"
_cell_formula_units_Z 104
_cell_length_a 24.313973
_cell_length_b 27.935082
_cell_length_c 9.420701
_cell_angle_alpha 90.000000
_cell_angle_beta 90.000000
_cell_angle_gamma 90.000000
_cell_volume 6398.660982
_symmetry_space_group_name_H-M "C M M M"
_symmetry_group_IT_number 65
_symmetry_cell_setting 'orthorhombic'
loop_
_space_group_symop_operation_xyz
x,y,z
-x,-y,z
x,-y,-z
-x,y,-z
-x,-y,-z
x,y,-z
-x,y,z
x,-y,z
1/2+x,1/2+y,z
1/2-x,1/2-y,z
1/2+x,1/2-y,-z
1/2-x,1/2+y,-z
1/2-x,1/2-y,-z
1/2+x,1/2+y,-z
1/2-x,1/2+y,z
1/2+x,1/2-y,z
loop_
_atom_site_type_symbol
_atom_site_label
_atom_site_fract_x
_atom_site_fract_y
_atom_site_fract_z
Si Si1 0.437341 0.120886 0.332044
Si Si2 0.436485 0.315322 0.835198
Si Si3 0.265108 0.552648 0.832847
Si Si4 0.881057 0.913330 0.832267
Si Si5 0.065432 0.726751 0.342579
Si Si6 0.644877 0.943275 0.837740
Si Si7 0.934868 0.000000 0.335006
O O1 0.432840 0.114982 0.500000
O O2 0.500000 0.112752 0.282058
O O3 0.416623 0.174166 0.287402
O O4 0.400264 0.081502 0.258402
O O5 0.500000 0.323729 0.795506
O O6 0.403448 0.361886 0.785051
O O7 0.411595 0.268709 0.757743
O O8 0.428492 0.305765 0.000000
O O9 0.277242 0.500000 0.767386
O O10 0.316096 0.586831 0.793161
O O11 0.205807 0.572264 0.780412
O O12 0.259718 0.546848 0.000000
O O13 0.912330 0.953170 0.742805
O O14 0.890814 0.923095 0.000000
O O15 0.088955 0.735895 0.500000
O O16 0.000000 0.727788 0.346039
O O17 0.638332 0.000000 0.823108
O O18 0.636003 0.926996 0.000000
O O19 0.916714 0.000000 0.500000
O O20 0.000000 0.000000 0.320639
#
# Coordination Sequence:
#
# PCOD8266577 Si02
#       7
#    16  16  16  16  16  16   8
#     4   9  18  32  49  70  95 123 155 186 221 272
#     4   9  17  27  42  69  96 114 145 194 237 275
#     4   8  14  28  49  68  86 116 158 195 228 267
#     4  10  18  31  51  68  87 122 162 196 233 279
#     4   8  15  29  47  64  86 120 155 184 222 275
#     4   9  18  31  48  71  97 122 151 188 229 273
#     4  11  23  33  41  63  99 129 154 193 242 283
#
# _framework density 16.253402000000001
#
# number of rings (size 3 to 8) (size 9 to 14) (size 15 to 20)
#    0.000    3.000    0.769    2.538    0.000    3.385 
#    0.000    5.385    0.000    0.923    0.000    6.462 
#    0.000    0.000    0.000    0.000    0.000    0.000 
#
# Total GULP energy -644474.247589 kJ/mol
# GULP energy per Si atom -12393.735531 kJ/mol
# Density = 1.621641 g / cm^3
# Si number density = 16.253402 Si / 1000 Ang^3
#
#
#
# Elastic Constant Matrix: (Units=GPa)
#
#
# Indices 1 2 3 4 5 6 
#
# 1 93.5436 56.5275 36.3468 0.0000 0.0000 0.0000
# 2 56.5275 92.8600 41.3909 0.0000 0.0000 0.0000
# 3 36.3468 41.3909 46.3424 0.0000 0.0000 0.0000
# 4 0.0000 0.0000 0.0000 26.3297 0.0000 0.0000
# 5 0.0000 0.0000 0.0000 0.0000 14.2556 0.0000
# 6 0.0000 0.0000 0.0000 0.0000 0.0000 5.1103
#
#
#
# Elastic Compliance Matrix: (Units=1/GPa)
#
#
# Indices 1 2 3 4 5 6 
#
# 1 0.018290 -0.007875 -0.007311 0.000000 0.000000 0.000000
# 2 -0.007875 0.021282 -0.012832 0.000000 0.000000 0.000000
# 3 -0.007311 -0.012832 0.038774 0.000000 0.000000 0.000000
# 4 0.000000 0.000000 0.000000 0.037980 0.000000 0.000000
# 5 0.000000 0.000000 0.000000 0.000000 0.070148 0.000000
# 6 0.000000 0.000000 0.000000 0.000000 0.000000 0.195682
#
#
# Mechanical properties :
#
#
# Convention : Reuss Voigt Hill
#
# Bulk Modulus (GPa) = 44.82419 55.69737 50.26078
# Shear Modulus (GPa) = 11.22008 15.70450 13.46229
#
# Velocity S-wave (km/s) = 2.63025 3.11179 2.88110
# Velocity P-wave (km/s) = 6.07145 6.87412 6.48522
#
# Compressibility (1/GPa) = 0.02230938
#
# Stress axis : x y z
#
# Youngs Moduli (GPa) = 54.67556 46.98749 25.79046
#
# Poissons Ratio (x) = 0.37001 0.18857
# Poissons Ratio (y) = 0.43055 0.33095
# Poissons Ratio (z) = 0.39976 0.60295
#
# Static dielectric constant tensor:
#      x y z
#    x 3.098550 0.000000 0.000000 
#    y 0.000000 3.206050 0.000000 
#    z 0.000000 0.000000 2.970290 
# 
# 
# High freq. dielectric constant tensor:
#      x y z
#    x 1.609890 0.000000 0.000000 
#    y 0.000000 1.621600 0.000000 
#    z 0.000000 0.000000 1.608690 
# 
# From -- ./inp_files/16994.got.cif
#   From: 2010.03.12/outbox.cif.g09.slc.cpg/sg65_9_cif.got.tgz:16994.got - 2010.04.10 20:52:16.
