data_PCOD8266068
_publ_section_title
;
Structure prediction by ZEFSAII (Michael W. Deem and Ramdas Pophale) SiO2 
 PCOD8266068
Probable space group: C M M M
;
_chemical_formula_sum "Si O2"
_cell_formula_units_Z 112
_cell_length_a 18.865266
_cell_length_b 18.315652
_cell_length_c 18.804778
_cell_angle_alpha 90.000000
_cell_angle_beta 90.000000
_cell_angle_gamma 90.000000
_cell_volume 6497.608303
_symmetry_space_group_name_H-M "C M M M"
_symmetry_group_IT_number 65
_symmetry_cell_setting 'orthorhombic'
loop_
_space_group_symop_operation_xyz
x,y,z
-x,-y,z
x,-y,-z
-x,y,-z
-x,-y,-z
x,y,-z
-x,y,z
x,-y,z
1/2+x,1/2+y,z
1/2-x,1/2-y,z
1/2+x,1/2-y,-z
1/2-x,1/2+y,-z
1/2-x,1/2-y,-z
1/2+x,1/2+y,-z
1/2-x,1/2+y,z
1/2+x,1/2-y,z
loop_
_atom_site_type_symbol
_atom_site_label
_atom_site_fract_x
_atom_site_fract_y
_atom_site_fract_z
Si Si1 0.584188 0.230308 0.921734
Si Si2 0.083895 0.579603 0.865512
Si Si3 0.813140 0.084544 0.704924
Si Si4 0.081347 0.184950 0.784712
Si Si5 0.812678 0.804112 0.581564
Si Si6 0.580521 0.210301 0.653267
Si Si7 0.346486 0.918768 0.283975
O O1 0.500000 0.226898 0.916279
O O2 0.614250 0.147667 0.910846
O O3 0.610762 0.286092 0.860914
O O4 0.608814 0.257545 0.000000
O O5 0.112373 0.500000 0.893068
O O6 0.105096 0.591454 0.784428
O O7 0.000000 0.579621 0.869366
O O8 0.869668 0.118288 0.759802
O O9 0.814431 0.122575 0.627893
O O10 0.735054 0.096302 0.737528
O O11 0.832582 0.000000 0.694297
O O12 0.087077 0.251592 0.729987
O O13 0.000000 0.157352 0.790006
O O14 0.803555 0.827454 0.500000
O O15 0.750000 0.750000 0.606845
O O16 0.886761 0.761796 0.592482
O O17 0.500000 0.193682 0.632331
O O18 0.625164 0.135527 0.655404
O O19 0.353320 0.000000 0.315993
#
# Coordination Sequence:
#
# PCOD8266068 Si02
#       7
#    16  16  16  16  16  16  16
#     4   9  16  27  45  71 102 133 169 212 255 304
#     4   9  16  26  42  67 101 137 170 209 256 299
#     4  10  21  35  54  78 100 129 169 212 256 299
#     4   9  18  32  51  74  99 128 167 215 262 302
#     4  10  20  35  54  76 103 136 168 202 247 300
#     4  10  18  31  52  76 102 133 168 208 249 293
#     4  10  18  29  47  74 103 133 170 207 248 298
#
# _framework density 17.237112
#
# number of rings (size 3 to 8) (size 9 to 14) (size 15 to 20)
#    0.000    2.429    2.857    0.429    0.000    2.000 
#    0.000    1.429    0.000    2.571    0.000    9.000 
#    0.000    0.000    0.000    0.000    0.000    0.000 
#
# Total GULP energy -694154.802558 kJ/mol
# GULP energy per Si atom -12395.621474 kJ/mol
# Density = 1.719788 g / cm^3
# Si number density = 17.237112 Si / 1000 Ang^3
#
#
#
# Elastic Constant Matrix: (Units=GPa)
#
#
# Indices 1 2 3 4 5 6 
#
# 1 50.5381 41.2956 3.5538 0.0000 0.0000 0.0000
# 2 41.2956 118.0434 43.8871 0.0000 0.0000 0.0000
# 3 3.5538 43.8871 74.8990 0.0000 0.0000 0.0000
# 4 0.0000 0.0000 0.0000 19.7955 0.0000 0.0000
# 5 0.0000 0.0000 0.0000 0.0000 15.1055 0.0000
# 6 0.0000 0.0000 0.0000 0.0000 0.0000 25.8582
#
#
#
# Elastic Compliance Matrix: (Units=1/GPa)
#
#
# Indices 1 2 3 4 5 6 
#
# 1 0.029660 -0.012597 0.005974 0.000000 0.000000 0.000000
# 2 -0.012597 0.016181 -0.008884 0.000000 0.000000 0.000000
# 3 0.005974 -0.008884 0.018273 0.000000 0.000000 0.000000
# 4 0.000000 0.000000 0.000000 0.050516 0.000000 0.000000
# 5 0.000000 0.000000 0.000000 0.000000 0.066201 0.000000
# 6 0.000000 0.000000 0.000000 0.000000 0.000000 0.038672
#
#
# Mechanical properties :
#
#
# Convention : Reuss Voigt Hill
#
# Bulk Modulus (GPa) = 30.21046 46.77261 38.49153
# Shear Modulus (GPa) = 19.11660 22.46811 20.79236
#
# Velocity S-wave (km/s) = 3.33383 3.61428 3.47689
# Velocity P-wave (km/s) = 5.69067 6.67915 6.20463
#
# Compressibility (1/GPa) = 0.03310112
#
# Stress axis : x y z
#
# Youngs Moduli (GPa) = 33.71489 61.79973 54.72471
#
# Poissons Ratio (x) = 0.77851 -0.32693
# Poissons Ratio (y) = 0.42472 0.48616
# Poissons Ratio (z) = -0.20142 0.54901
#
# Static dielectric constant tensor:
#      x y z
#    x 3.164610 0.000000 0.000000 
#    y 0.000000 3.295950 0.000000 
#    z 0.000000 0.000000 3.049970 
# 
# 
# High freq. dielectric constant tensor:
#      x y z
#    x 1.651280 0.000000 0.000000 
#    y 0.000000 1.664320 0.000000 
#    z 0.000000 0.000000 1.643270 
# 
# From -- ./inp_files/54898.got.cif
#   From: 2010.03.12/outbox.cif.g09.slc.cpg/sg65_28_cif.got.tgz:54898.got - 2010.04.10 20:52:16.
