data_PCOD8266501
_publ_section_title
;
Structure prediction by ZEFSAII (Michael W. Deem and Ramdas Pophale) SiO2 
 PCOD8266501
Probable space group: C M M M
;
_chemical_formula_sum "Si O2"
_cell_formula_units_Z 80
_cell_length_a 26.926414
_cell_length_b 10.002952
_cell_length_c 16.070728
_cell_angle_alpha 90.000000
_cell_angle_beta 90.000000
_cell_angle_gamma 90.000000
_cell_volume 4328.548164
_symmetry_space_group_name_H-M "C M M M"
_symmetry_group_IT_number 65
_symmetry_cell_setting 'orthorhombic'
loop_
_space_group_symop_operation_xyz
x,y,z
-x,-y,z
x,-y,-z
-x,y,-z
-x,-y,-z
x,y,-z
-x,y,z
x,-y,z
1/2+x,1/2+y,z
1/2-x,1/2-y,z
1/2+x,1/2-y,-z
1/2-x,1/2+y,-z
1/2-x,1/2-y,-z
1/2+x,1/2+y,-z
1/2-x,1/2+y,z
1/2+x,1/2-y,z
loop_
_atom_site_type_symbol
_atom_site_label
_atom_site_fract_x
_atom_site_fract_y
_atom_site_fract_z
Si Si1 0.651773 0.842458 0.670188
Si Si2 0.704749 0.843082 0.164358
Si Si3 0.555555 0.500000 0.097328
Si Si4 0.053510 0.649001 0.255691
Si Si5 0.798234 0.659277 0.500000
Si Si6 0.899087 0.277315 0.095125
O O1 0.691283 0.801410 0.740807
O O2 0.597547 0.777970 0.691583
O O3 0.670023 0.796686 0.580018
O O4 0.645057 0.000000 0.674292
O O5 0.750000 0.750000 0.135120
O O6 0.659081 0.809429 0.103689
O O7 0.718866 0.000000 0.157158
O O8 0.500000 0.500000 0.138431
O O9 0.588278 0.373325 0.124058
O O10 0.547780 0.500000 0.000000
O O11 0.046761 0.500000 0.290241
O O12 0.069201 0.633378 0.158662
O O13 0.000000 0.724006 0.265125
O O14 0.785504 0.500000 0.500000
O O15 0.750000 0.750000 0.500000
O O16 0.915350 0.306072 0.000000
#
# Coordination Sequence:
#
# PCOD8266501 Si02
#       6
#    16  16   8  16   8  16
#     4   8  16  31  48  73 103 130 162 205 251 295
#     4  10  21  35  52  72 102 139 175 215 259 308
#     4   9  18  32  50  72  98 127 163 215 266 305
#     4   9  17  30  49  71  98 130 163 204 254 305
#     4  10  18  30  53  77 101 131 162 200 243 292
#     4  10  20  33  49  70  98 130 171 217 260 303
#
# _framework density 18.481947999999999
#
# number of rings (size 3 to 8) (size 9 to 14) (size 15 to 20)
#    0.000    2.700    0.000    3.000    1.400    3.200 
#    0.000    1.500    2.200    3.000    0.000    0.000 
#    0.000    0.800    0.000    0.000    0.000    0.000 
#
# Total GULP energy -495583.914806 kJ/mol
# GULP energy per Si atom -12389.597870 kJ/mol
# Density = 1.843988 g / cm^3
# Si number density = 18.481948 Si / 1000 Ang^3
#
#
#
# Elastic Constant Matrix: (Units=GPa)
#
#
# Indices 1 2 3 4 5 6 
#
# 1 144.8196 38.1707 35.4383 0.0000 0.0000 0.0000
# 2 38.1707 65.6696 8.9056 0.0000 0.0000 0.0000
# 3 35.4383 8.9056 92.0727 0.0000 0.0000 0.0000
# 4 0.0000 0.0000 0.0000 12.2841 0.0000 0.0000
# 5 0.0000 0.0000 0.0000 0.0000 8.8610 0.0000
# 6 0.0000 0.0000 0.0000 0.0000 0.0000 23.2922
#
#
#
# Elastic Compliance Matrix: (Units=1/GPa)
#
#
# Indices 1 2 3 4 5 6 
#
# 1 0.008885 -0.004763 -0.002959 0.000000 0.000000 0.000000
# 2 -0.004763 0.017983 0.000094 0.000000 0.000000 0.000000
# 3 -0.002959 0.000094 0.011991 0.000000 0.000000 0.000000
# 4 0.000000 0.000000 0.000000 0.081406 0.000000 0.000000
# 5 0.000000 0.000000 0.000000 0.000000 0.112854 0.000000
# 6 0.000000 0.000000 0.000000 0.000000 0.000000 0.042933
#
#
# Mechanical properties :
#
#
# Convention : Reuss Voigt Hill
#
# Bulk Modulus (GPa) = 42.36801 51.95457 47.16129
# Shear Modulus (GPa) = 16.71260 23.55727 20.13494
#
# Velocity S-wave (km/s) = 3.01036 3.57404 3.30424
# Velocity P-wave (km/s) = 5.92088 6.72337 6.33484
#
# Compressibility (1/GPa) = 0.02360271
#
# Stress axis : x y z
#
# Youngs Moduli (GPa) = 112.55428 55.60658 83.39731
#
# Poissons Ratio (x) = 0.26485 0.24677
# Poissons Ratio (y) = 0.53609 -0.00782
# Poissons Ratio (z) = 0.33304 -0.00522
#
# Static dielectric constant tensor:
#      x y z
#    x 3.801500 0.000000 0.000000 
#    y 0.000000 3.311960 0.000000 
#    z 0.000000 0.000000 3.513360 
# 
# 
# High freq. dielectric constant tensor:
#      x y z
#    x 1.726700 0.000000 0.000000 
#    y 0.000000 1.685780 0.000000 
#    z 0.000000 0.000000 1.696850 
# 
# From -- ./inp_files/56615.got.cif
#   From: 2010.03.12/outbox.cif.g09.slc.cpg/sg65_29_cif.got.tgz:56615.got - 2010.04.10 20:52:16.
