data_PCOD8266479
_publ_section_title
;
Structure prediction by ZEFSAII (Michael W. Deem and Ramdas Pophale) SiO2 
 PCOD8266479
Probable space group: C M M M
;
_chemical_formula_sum "Si O2"
_cell_formula_units_Z 56
_cell_length_a 10.693076
_cell_length_b 18.940617
_cell_length_c 14.561597
_cell_angle_alpha 90.000000
_cell_angle_beta 90.000000
_cell_angle_gamma 90.000000
_cell_volume 2949.210581
_symmetry_space_group_name_H-M "C M M M"
_symmetry_group_IT_number 65
_symmetry_cell_setting 'orthorhombic'
loop_
_space_group_symop_operation_xyz
x,y,z
-x,-y,z
x,-y,-z
-x,y,-z
-x,-y,-z
x,y,-z
-x,y,z
x,-y,z
1/2+x,1/2+y,z
1/2-x,1/2-y,z
1/2+x,1/2-y,-z
1/2-x,1/2+y,-z
1/2-x,1/2-y,-z
1/2+x,1/2+y,-z
1/2-x,1/2+y,z
1/2+x,1/2-y,z
loop_
_atom_site_type_symbol
_atom_site_label
_atom_site_fract_x
_atom_site_fract_y
_atom_site_fract_z
Si Si1 0.000000 0.916841 0.398096
Si Si2 0.361025 0.800960 0.394145
Si Si3 0.360374 0.416389 0.899603
Si Si4 0.245991 0.083119 0.711270
O O1 0.878202 0.893267 0.342971
O O2 0.000000 0.881536 0.500000
O O3 0.000000 0.000000 0.408498
O O4 0.338812 0.821255 0.500000
O O5 0.500000 0.767037 0.380745
O O6 0.250000 0.750000 0.359213
O O7 0.358091 0.872830 0.334107
O O8 0.500000 0.385046 0.885477
O O9 0.371545 0.500000 0.894920
O O10 0.269131 0.392267 0.817567
O O11 0.307670 0.392704 0.000000
O O12 0.274586 0.000000 0.702499
#
# Coordination Sequence:
#
# PCOD8266479 Si02
#       4
#     8  16  16  16
#     4   9  16  24  39  71 107 135 165 207 254 297
#     4  10  23  40  56  76 105 143 180 215 262 320
#     4   8  13  23  42  72 109 142 174 215 263 314
#     4  10  18  30  51  79 108 138 176 220 265 311
#
# _framework density 18.988133000000001
#
# number of rings (size 3 to 8) (size 9 to 14) (size 15 to 20)
#    0.000    2.714    1.429    1.714    2.000    2.286 
#    0.000    1.429    0.000    1.714    0.000    4.000 
#    0.000    0.000    0.000    0.000    0.000    0.000 
#
# Total GULP energy -346979.528079 kJ/mol
# GULP energy per Si atom -12392.126003 kJ/mol
# Density = 1.894492 g / cm^3
# Si number density = 18.988133 Si / 1000 Ang^3
#
#
#
# Elastic Constant Matrix: (Units=GPa)
#
#
# Indices 1 2 3 4 5 6 
#
# 1 87.0735 33.9545 35.5970 0.0000 0.0000 0.0000
# 2 33.9545 48.1711 31.6244 0.0000 0.0000 0.0000
# 3 35.5970 31.6244 127.9866 0.0000 0.0000 0.0000
# 4 0.0000 0.0000 0.0000 14.3211 0.0000 0.0000
# 5 0.0000 0.0000 0.0000 0.0000 22.0808 0.0000
# 6 0.0000 0.0000 0.0000 0.0000 0.0000 25.0547
#
#
#
# Elastic Compliance Matrix: (Units=1/GPa)
#
#
# Indices 1 2 3 4 5 6 
#
# 1 0.016263 -0.010139 -0.002018 0.000000 0.000000 0.000000
# 2 -0.010139 0.031099 -0.004865 0.000000 0.000000 0.000000
# 3 -0.002018 -0.004865 0.009577 0.000000 0.000000 0.000000
# 4 0.000000 0.000000 0.000000 0.069827 0.000000 0.000000
# 5 0.000000 0.000000 0.000000 0.000000 0.045288 0.000000
# 6 0.000000 0.000000 0.000000 0.000000 0.000000 0.039913
#
#
# Mechanical properties :
#
#
# Convention : Reuss Voigt Hill
#
# Bulk Modulus (GPa) = 43.67457 51.73146 47.70302
# Shear Modulus (GPa) = 19.71287 23.09502 21.40394
#
# Velocity S-wave (km/s) = 3.22556 3.49131 3.36106
# Velocity P-wave (km/s) = 6.07645 6.59967 6.34345
#
# Compressibility (1/GPa) = 0.02289662
#
# Stress axis : x y z
#
# Youngs Moduli (GPa) = 61.48880 32.15511 104.42109
#
# Poissons Ratio (x) = 0.32601 0.21074
# Poissons Ratio (y) = 0.62341 0.50796
# Poissons Ratio (z) = 0.12409 0.15642
#
# Static dielectric constant tensor:
#      x y z
#    x 3.287710 0.000000 0.000000 
#    y 0.000000 3.038730 0.000000 
#    z 0.000000 0.000000 3.931230 
# 
# 
# High freq. dielectric constant tensor:
#      x y z
#    x 1.709800 0.000000 0.000000 
#    y 0.000000 1.696210 0.000000 
#    z 0.000000 0.000000 1.745190 
# 
# From -- ./inp_files/35504.got.cif
#   From: 2010.03.12/outbox.cif.g09.slc.cpg/sg65_18_cif.got.tgz:35504.got - 2010.04.10 20:52:16.
