data_PCOD8266464
_publ_section_title
;
Structure prediction by ZEFSAII (Michael W. Deem and Ramdas Pophale) SiO2 
 PCOD8266464
Probable space group: C M M M
;
_chemical_formula_sum "Si O2"
_cell_formula_units_Z 120
_cell_length_a 18.695009
_cell_length_b 18.386491
_cell_length_c 19.211831
_cell_angle_alpha 90.000000
_cell_angle_beta 90.000000
_cell_angle_gamma 90.000000
_cell_volume 6603.790539
_symmetry_space_group_name_H-M "C M M M"
_symmetry_group_IT_number 65
_symmetry_cell_setting 'orthorhombic'
loop_
_space_group_symop_operation_xyz
x,y,z
-x,-y,z
x,-y,-z
-x,y,-z
-x,-y,-z
x,y,-z
-x,y,z
x,-y,z
1/2+x,1/2+y,z
1/2-x,1/2-y,z
1/2+x,1/2-y,-z
1/2-x,1/2+y,-z
1/2-x,1/2-y,-z
1/2+x,1/2+y,-z
1/2-x,1/2+y,z
1/2+x,1/2-y,z
loop_
_atom_site_type_symbol
_atom_site_label
_atom_site_fract_x
_atom_site_fract_y
_atom_site_fract_z
Si Si1 0.146298 0.914560 0.577839
Si Si2 0.681009 0.418432 0.831108
Si Si3 0.419292 0.913229 0.500000
Si Si4 0.416426 0.645809 0.715829
Si Si5 0.671504 0.717860 0.079463
Si Si6 0.582445 0.215038 0.197826
Si Si7 0.830549 0.582999 0.238876
Si Si8 0.695879 0.085427 0.393916
O O1 0.114338 0.901529 0.500000
O O2 0.103272 0.867324 0.634895
O O3 0.228537 0.887164 0.575827
O O4 0.141048 0.000000 0.598015
O O5 0.669197 0.500000 0.858345
O O6 0.629619 0.407307 0.764693
O O7 0.665025 0.365193 0.894895
O O8 0.763108 0.405836 0.810587
O O9 0.500000 0.880044 0.500000
O O10 0.374055 0.883494 0.433752
O O11 0.425421 0.000000 0.500000
O O12 0.500000 0.628671 0.726766
O O13 0.398140 0.728517 0.739849
O O14 0.750000 0.750000 0.088447
O O15 0.619739 0.766251 0.125540
O O16 0.645776 0.720903 0.000000
O O17 0.500000 0.216378 0.181511
O O18 0.604010 0.133471 0.217230
O O19 0.858026 0.500000 0.238556
O O20 0.806383 0.609109 0.314538
O O21 0.693665 0.000000 0.404143
#
# Coordination Sequence:
#
# PCOD8266464 Si02
#       8
#    16  16   8  16  16  16  16  16
#     4  10  18  30  51  77 107 144 185 230 278 330
#     4  10  19  33  56  85 115 146 180 226 280 326
#     4   9  16  26  42  66  98 135 175 221 276 329
#     4  10  21  35  53  78 111 149 187 228 278 334
#     4  10  20  36  59  85 111 146 187 221 260 320
#     4  10  22  39  58  81 111 149 185 225 276 328
#     4  10  19  33  57  85 109 139 184 234 278 328
#     4   9  16  28  47  72 103 136 173 221 274 325
#
# _framework density 18.171381
#
# number of rings (size 3 to 8) (size 9 to 14) (size 15 to 20)
#    0.000    2.200    3.333    0.400    0.000    2.667 
#    0.000    2.000    1.467    1.200    0.000    4.667 
#    0.000    0.000    0.000    0.000    0.000    0.000 
#
# Total GULP energy -743778.955717 kJ/mol
# GULP energy per Si atom -12396.315929 kJ/mol
# Density = 1.813002 g / cm^3
# Si number density = 18.171381 Si / 1000 Ang^3
#
#
#
# Elastic Constant Matrix: (Units=GPa)
#
#
# Indices 1 2 3 4 5 6 
#
# 1 75.4131 26.0286 31.6050 0.0000 0.0000 0.0000
# 2 26.0286 74.2578 47.2527 0.0000 0.0000 0.0000
# 3 31.6050 47.2527 119.1386 0.0000 0.0000 0.0000
# 4 0.0000 0.0000 0.0000 14.7472 0.0000 0.0000
# 5 0.0000 0.0000 0.0000 0.0000 19.7256 0.0000
# 6 0.0000 0.0000 0.0000 0.0000 0.0000 20.5134
#
#
#
# Elastic Compliance Matrix: (Units=1/GPa)
#
#
# Indices 1 2 3 4 5 6 
#
# 1 0.015686 -0.003813 -0.002649 0.000000 0.000000 0.000000
# 2 -0.003813 0.018939 -0.006500 0.000000 0.000000 0.000000
# 3 -0.002649 -0.006500 0.011674 0.000000 0.000000 0.000000
# 4 0.000000 0.000000 0.000000 0.067809 0.000000 0.000000
# 5 0.000000 0.000000 0.000000 0.000000 0.050696 0.000000
# 6 0.000000 0.000000 0.000000 0.000000 0.000000 0.048749
#
#
# Mechanical properties :
#
#
# Convention : Reuss Voigt Hill
#
# Bulk Modulus (GPa) = 49.07698 53.17580 51.12639
# Shear Modulus (GPa) = 20.30291 21.92545 21.11418
#
# Velocity S-wave (km/s) = 3.34623 3.47737 3.41243
# Velocity P-wave (km/s) = 6.48044 6.74165 6.61234
#
# Compressibility (1/GPa) = 0.02037615
#
# Stress axis : x y z
#
# Youngs Moduli (GPa) = 63.74930 52.80017 85.65690
#
# Poissons Ratio (x) = 0.20131 0.22692
# Poissons Ratio (y) = 0.24305 0.55679
# Poissons Ratio (z) = 0.16888 0.34322
#
# Static dielectric constant tensor:
#      x y z
#    x 3.369790 0.000000 0.000000 
#    y 0.000000 3.197220 0.000000 
#    z 0.000000 0.000000 3.397240 
# 
# 
# High freq. dielectric constant tensor:
#      x y z
#    x 1.703540 0.000000 0.000000 
#    y 0.000000 1.680720 0.000000 
#    z 0.000000 0.000000 1.699930 
# 
# From -- ./inp_files/63985.got.cif
#   From: 2010.03.12/outbox.cif.g09.slc.cpg/sg65_32_cif.got.tgz:63985.got - 2010.04.10 20:52:16.
