data_PCOD8266430
_publ_section_title
;
Structure prediction by ZEFSAII (Michael W. Deem and Ramdas Pophale) SiO2 
 PCOD8266430
Probable space group: C M M M
;
_chemical_formula_sum "Si O2"
_cell_formula_units_Z 88
_cell_length_a 7.757851
_cell_length_b 27.269699
_cell_length_c 22.869840
_cell_angle_alpha 90.000000
_cell_angle_beta 90.000000
_cell_angle_gamma 90.000000
_cell_volume 4838.212115
_symmetry_space_group_name_H-M "C M M M"
_symmetry_group_IT_number 65
_symmetry_cell_setting 'orthorhombic'
loop_
_space_group_symop_operation_xyz
x,y,z
-x,-y,z
x,-y,-z
-x,y,-z
-x,-y,-z
x,y,-z
-x,y,z
x,-y,z
1/2+x,1/2+y,z
1/2-x,1/2-y,z
1/2+x,1/2-y,-z
1/2-x,1/2+y,-z
1/2-x,1/2-y,-z
1/2+x,1/2+y,-z
1/2-x,1/2+y,z
1/2+x,1/2-y,z
loop_
_atom_site_type_symbol
_atom_site_label
_atom_site_fract_x
_atom_site_fract_y
_atom_site_fract_z
Si Si1 0.302253 0.101542 0.140641
Si Si2 0.302634 0.352094 0.678642
Si Si3 0.202980 0.554431 0.262697
Si Si4 0.203105 0.194760 0.563845
Si Si5 0.000000 0.943411 0.069054
Si Si6 0.297092 0.305711 0.203306
O O1 0.500000 0.089625 0.122577
O O2 0.243918 0.072283 0.198440
O O3 0.285250 0.159797 0.153210
O O4 0.173118 0.084047 0.090284
O O5 0.500000 0.336409 0.674823
O O6 0.284215 0.410216 0.688483
O O7 0.215514 0.337924 0.616429
O O8 0.219555 0.322104 0.733328
O O9 0.277173 0.500000 0.272772
O O10 0.000000 0.555628 0.269847
O O11 0.281952 0.180164 0.500000
O O12 0.250000 0.250000 0.579347
O O13 0.000000 0.187742 0.560668
O O14 0.000000 0.000000 0.089939
O O15 0.000000 0.939843 0.000000
O O16 0.500000 0.314067 0.202364
O O17 0.250000 0.250000 0.189171
#
# Coordination Sequence:
#
# PCOD8266430 Si02
#       6
#    16  16  16  16   8  16
#     4  10  20  37  57  82 113 145 178 220 268 318
#     4   9  18  29  43  68 100 129 165 210 258 308
#     4   9  18  31  49  73  99 128 163 205 257 311
#     4   9  17  29  44  63  90 126 165 203 246 300
#     4  11  24  40  60  86 114 146 183 223 264 310
#     4  10  18  30  50  80 110 141 176 217 270 323
#
# _framework density 18.188537
#
# number of rings (size 3 to 8) (size 9 to 14) (size 15 to 20)
#    0.000    2.455    0.909    1.636    1.273    3.273 
#    0.000    0.909    0.000    1.091    0.000    3.818 
#    0.000    0.000    0.000    0.000    0.000    0.000 
#
# Total GULP energy -545408.075111 kJ/mol
# GULP energy per Si atom -12395.638071 kJ/mol
# Density = 1.814714 g / cm^3
# Si number density = 18.188537 Si / 1000 Ang^3
#
#
#
# Elastic Constant Matrix: (Units=GPa)
#
#
# Indices 1 2 3 4 5 6 
#
# 1 55.2125 18.2721 29.5394 0.0000 0.0000 0.0000
# 2 18.2721 134.1204 58.9462 0.0000 0.0000 0.0000
# 3 29.5394 58.9462 100.0102 0.0000 0.0000 0.0000
# 4 0.0000 0.0000 0.0000 28.9594 0.0000 0.0000
# 5 0.0000 0.0000 0.0000 0.0000 12.4646 0.0000
# 6 0.0000 0.0000 0.0000 0.0000 0.0000 26.0303
#
#
#
# Elastic Compliance Matrix: (Units=1/GPa)
#
#
# Indices 1 2 3 4 5 6 
#
# 1 0.021515 -0.000187 -0.006245 0.000000 0.000000 0.000000
# 2 -0.000187 0.010064 -0.005877 0.000000 0.000000 0.000000
# 3 -0.006245 -0.005877 0.015307 0.000000 0.000000 0.000000
# 4 0.000000 0.000000 0.000000 0.034531 0.000000 0.000000
# 5 0.000000 0.000000 0.000000 0.000000 0.080227 0.000000
# 6 0.000000 0.000000 0.000000 0.000000 0.000000 0.038417
#
#
# Mechanical properties :
#
#
# Convention : Reuss Voigt Hill
#
# Bulk Modulus (GPa) = 44.90339 55.87318 50.38828
# Shear Modulus (GPa) = 21.54238 25.66322 23.60280
#
# Velocity S-wave (km/s) = 3.44523 3.76034 3.60623
# Velocity P-wave (km/s) = 6.36926 7.04551 6.71590
#
# Compressibility (1/GPa) = 0.02227004
#
# Stress axis : x y z
#
# Youngs Moduli (GPa) = 46.48013 99.36136 65.32856
#
# Poissons Ratio (x) = 0.01853 0.40796
# Poissons Ratio (y) = 0.00867 0.38392
# Poissons Ratio (z) = 0.29025 0.58393
#
# Static dielectric constant tensor:
#      x y z
#    x 3.294030 0.000000 0.000000 
#    y 0.000000 3.436880 0.000000 
#    z 0.000000 0.000000 3.404080 
# 
# 
# High freq. dielectric constant tensor:
#      x y z
#    x 1.703570 0.000000 0.000000 
#    y 0.000000 1.699030 0.000000 
#    z 0.000000 0.000000 1.681420 
# 
# From -- ./inp_files/60215.got.cif
#   From: 2010.03.12/outbox.cif.g09.slc.cpg/sg65_31_cif.got.tgz:60215.got - 2010.04.10 20:52:16.
