data_PCOD8266494
_publ_section_title
;
Structure prediction by ZEFSAII (Michael W. Deem and Ramdas Pophale) SiO2 
 PCOD8266494
Probable space group: C M M M
;
_chemical_formula_sum "Si O2"
_cell_formula_units_Z 56
_cell_length_a 8.690177
_cell_length_b 23.384365
_cell_length_c 15.367153
_cell_angle_alpha 90.000000
_cell_angle_beta 90.000000
_cell_angle_gamma 90.000000
_cell_volume 3122.824792
_symmetry_space_group_name_H-M "C M M M"
_symmetry_group_IT_number 65
_symmetry_cell_setting 'orthorhombic'
loop_
_space_group_symop_operation_xyz
x,y,z
-x,-y,z
x,-y,-z
-x,y,-z
-x,-y,-z
x,y,-z
-x,y,z
x,-y,z
1/2+x,1/2+y,z
1/2-x,1/2-y,z
1/2+x,1/2-y,-z
1/2-x,1/2+y,-z
1/2-x,1/2-y,-z
1/2+x,1/2+y,-z
1/2-x,1/2+y,z
1/2+x,1/2-y,z
loop_
_atom_site_type_symbol
_atom_site_label
_atom_site_fract_x
_atom_site_fract_y
_atom_site_fract_z
Si Si1 0.680956 0.812102 0.500000
Si Si2 0.820588 0.188011 0.174800
Si Si3 0.817500 0.500000 0.398496
Si Si4 0.679650 0.617213 0.654277
Si Si5 0.817747 0.313189 0.000000
O O1 0.500000 0.807409 0.500000
O O2 0.750000 0.750000 0.500000
O O3 0.732881 0.844643 0.585209
O O4 0.750000 0.250000 0.197272
O O5 0.787571 0.143772 0.251668
O O6 0.745385 0.158529 0.088922
O O7 0.000000 0.197450 0.158499
O O8 0.768498 0.500000 0.500000
O O9 0.747405 0.446100 0.348710
O O10 0.000000 0.500000 0.389464
O O11 0.500000 0.616211 0.631661
O O12 0.750000 0.250000 0.000000
O O13 0.000000 0.314008 0.000000
#
# Coordination Sequence:
#
# PCOD8266494 Si02
#       5
#     8  16   8  16   8
#     4  12  24  37  54  79 112 146 180 222 274 328
#     4  10  20  34  54  82 113 145 181 222 272 325
#     4  11  23  39  59  82 106 143 188 232 277 323
#     4  11  23  38  58  81 108 145 185 229 275 324
#     4  10  18  30  52  79 110 147 180 218 268 322
#
# _framework density 17.932482
#
# number of rings (size 3 to 8) (size 9 to 14) (size 15 to 20)
#    0.000    1.286    1.429    7.286    0.000    7.429 
#    0.000    0.000    0.000    0.857    0.000    6.000 
#    0.000    0.000    0.000    0.000    0.000    0.000 
#
# Total GULP energy -347243.538221 kJ/mol
# GULP energy per Si atom -12401.554936 kJ/mol
# Density = 1.789167 g / cm^3
# Si number density = 17.932482 Si / 1000 Ang^3
#
#
#
# Elastic Constant Matrix: (Units=GPa)
#
#
# Indices 1 2 3 4 5 6 
#
# 1 158.7984 64.4205 87.4960 0.0000 0.0000 0.0000
# 2 64.4205 131.7174 66.5089 0.0000 0.0000 0.0000
# 3 87.4960 66.5089 140.9238 0.0000 0.0000 0.0000
# 4 0.0000 0.0000 0.0000 25.8160 0.0000 0.0000
# 5 0.0000 0.0000 0.0000 0.0000 46.2347 0.0000
# 6 0.0000 0.0000 0.0000 0.0000 0.0000 30.6322
#
#
#
# Elastic Compliance Matrix: (Units=1/GPa)
#
#
# Indices 1 2 3 4 5 6 
#
# 1 0.010086 -0.002325 -0.005165 0.000000 0.000000 0.000000
# 2 -0.002325 0.010503 -0.003513 0.000000 0.000000 0.000000
# 3 -0.005165 -0.003513 0.011961 0.000000 0.000000 0.000000
# 4 0.000000 0.000000 0.000000 0.038736 0.000000 0.000000
# 5 0.000000 0.000000 0.000000 0.000000 0.021629 0.000000
# 6 0.000000 0.000000 0.000000 0.000000 0.000000 0.032645
#
#
# Mechanical properties :
#
#
# Convention : Reuss Voigt Hill
#
# Bulk Modulus (GPa) = 94.84453 96.47671 95.66062
# Shear Modulus (GPa) = 33.09461 34.73754 33.91608
#
# Velocity S-wave (km/s) = 4.30060 4.40606 4.35365
# Velocity P-wave (km/s) = 8.81277 8.93315 8.87316
#
# Compressibility (1/GPa) = 0.01054357
#
# Stress axis : x y z
#
# Youngs Moduli (GPa) = 99.14340 95.20918 83.60458
#
# Poissons Ratio (x) = 0.22136 0.43183
# Poissons Ratio (y) = 0.23051 0.29374
# Poissons Ratio (z) = 0.51209 0.33451
#
# Static dielectric constant tensor:
#      x y z
#    x 3.562170 0.000000 0.000000 
#    y 0.000000 3.222990 0.000000 
#    z 0.000000 0.000000 3.921800 
# 
# 
# High freq. dielectric constant tensor:
#      x y z
#    x 1.718990 0.000000 0.000000 
#    y 0.000000 1.671660 0.000000 
#    z 0.000000 0.000000 1.706750 
# 
# From -- ./inp_files/35582.got.cif
#   From: 2010.03.12/outbox.cif.g09.slc.cpg/sg65_18_cif.got.tgz:35582.got - 2010.04.10 20:52:16.
