data_PCOD8266937
_publ_section_title
;
Structure prediction by ZEFSAII (Michael W. Deem and Ramdas Pophale) SiO2 
 PCOD8266937
Probable space group: C M M M
;
_chemical_formula_sum "Si O2"
_cell_formula_units_Z 96
_cell_length_a 26.354880
_cell_length_b 17.359318
_cell_length_c 11.850708
_cell_angle_alpha 90.000000
_cell_angle_beta 90.000000
_cell_angle_gamma 90.000000
_cell_volume 5421.731414
_symmetry_space_group_name_H-M "C M M M"
_symmetry_group_IT_number 65
_symmetry_cell_setting 'orthorhombic'
loop_
_space_group_symop_operation_xyz
x,y,z
-x,-y,z
x,-y,-z
-x,y,-z
-x,-y,-z
x,y,-z
-x,y,z
x,-y,z
1/2+x,1/2+y,z
1/2-x,1/2-y,z
1/2+x,1/2-y,-z
1/2-x,1/2+y,-z
1/2-x,1/2-y,-z
1/2+x,1/2+y,-z
1/2-x,1/2+y,z
1/2+x,1/2-y,z
loop_
_atom_site_type_symbol
_atom_site_label
_atom_site_fract_x
_atom_site_fract_y
_atom_site_fract_z
Si Si1 0.859861 0.723953 0.867068
Si Si2 0.057050 0.295520 0.500000
Si Si3 0.630237 0.586631 0.628431
Si Si4 0.058416 0.800385 0.274371
Si Si5 0.188152 0.410897 0.743296
Si Si6 0.853160 0.587560 0.500000
Si Si7 0.716935 0.319054 0.272678
O O1 0.914543 0.754404 0.826448
O O2 0.851855 0.639035 0.814622
O O3 0.815304 0.782477 0.829817
O O4 0.860014 0.717252 0.000000
O O5 0.066818 0.244491 0.609464
O O6 0.095064 0.365881 0.500000
O O7 0.000000 0.328744 0.500000
O O8 0.611585 0.587534 0.500000
O O9 0.644317 0.500000 0.666813
O O10 0.584676 0.616372 0.708254
O O11 0.679242 0.642001 0.637813
O O12 0.000000 0.811884 0.241897
O O13 0.180400 0.500000 0.774954
O O14 0.180496 0.394549 0.610035
O O15 0.245208 0.384496 0.775026
O O16 0.871283 0.500000 0.500000
O O17 0.750000 0.250000 0.329986
#
# Coordination Sequence:
#
# PCOD8266937 Si02
#       7
#    16   8  16  16  16   8  16
#     4  10  21  38  56  76 102 137 186 232 264 307
#     4  10  18  33  56  79 106 139 179 219 267 327
#     4  10  20  32  49  78 114 143 171 212 264 322
#     4  10  20  35  56  80 105 137 174 219 272 328
#     4  10  20  34  53  80 112 145 175 213 265 320
#     4  10  20  33  52  81 116 145 175 214 266 329
#     4   9  20  34  51  77 104 144 182 219 258 307
#
# _framework density 17.706522
#
# number of rings (size 3 to 8) (size 9 to 14) (size 15 to 20)
#    0.000    2.167    2.500    0.500    1.167    4.500 
#    0.000    0.833    0.000   12.500    0.000    5.833 
#    0.000    0.000    0.000    0.000    0.000    0.000 
#
# Total GULP energy -595132.889805 kJ/mol
# GULP energy per Si atom -12398.601871 kJ/mol
# Density = 1.766622 g / cm^3
# Si number density = 17.706522 Si / 1000 Ang^3
#
#
#
# Elastic Constant Matrix: (Units=GPa)
#
#
# Indices 1 2 3 4 5 6 
#
# 1 118.3215 63.8428 30.5165 0.0000 0.0000 0.0000
# 2 63.8428 124.1323 50.7660 0.0000 0.0000 0.0000
# 3 30.5165 50.7660 97.8681 0.0000 0.0000 0.0000
# 4 0.0000 0.0000 0.0000 13.8567 0.0000 0.0000
# 5 0.0000 0.0000 0.0000 0.0000 14.3806 0.0000
# 6 0.0000 0.0000 0.0000 0.0000 0.0000 23.7324
#
#
#
# Elastic Compliance Matrix: (Units=1/GPa)
#
#
# Indices 1 2 3 4 5 6 
#
# 1 0.011732 -0.005760 -0.000671 0.000000 0.000000 0.000000
# 2 -0.005760 0.013053 -0.004975 0.000000 0.000000 0.000000
# 3 -0.000671 -0.004975 0.013007 0.000000 0.000000 0.000000
# 4 0.000000 0.000000 0.000000 0.072167 0.000000 0.000000
# 5 0.000000 0.000000 0.000000 0.000000 0.069538 0.000000
# 6 0.000000 0.000000 0.000000 0.000000 0.000000 0.042136
#
#
# Mechanical properties :
#
#
# Convention : Reuss Voigt Hill
#
# Bulk Modulus (GPa) = 66.74556 70.06359 68.40457
# Shear Modulus (GPa) = 20.04501 23.40705 21.72603
#
# Velocity S-wave (km/s) = 3.36827 3.63980 3.50667
# Velocity P-wave (km/s) = 7.27354 7.57096 7.42374
#
# Compressibility (1/GPa) = 0.01498227
#
# Stress axis : x y z
#
# Youngs Moduli (GPa) = 85.23454 76.61199 76.87928
#
# Poissons Ratio (x) = 0.44127 0.05155
# Poissons Ratio (y) = 0.49094 0.38245
# Poissons Ratio (z) = 0.05715 0.38112
#
# Static dielectric constant tensor:
#      x y z
#    x 3.359520 0.000000 0.000000 
#    y 0.000000 3.426130 0.000000 
#    z 0.000000 0.000000 2.979710 
# 
# 
# High freq. dielectric constant tensor:
#      x y z
#    x 1.686900 0.000000 0.000000 
#    y 0.000000 1.691600 0.000000 
#    z 0.000000 0.000000 1.655860 
# 
# From -- ./inp_files/32439.got.cif
#   From: 2010.03.12/outbox.cif.g09.slc.cpg/sg65_17_cif.got.tgz:32439.got - 2010.04.10 20:52:16.
