data_PCOD8266712
_publ_section_title
;
Structure prediction by ZEFSAII (Michael W. Deem and Ramdas Pophale) SiO2 
 PCOD8266712
Probable space group: C M M M
;
_chemical_formula_sum "Si O2"
_cell_formula_units_Z 104
_cell_length_a 7.741006
_cell_length_b 25.838647
_cell_length_c 27.742436
_cell_angle_alpha 90.000000
_cell_angle_beta 90.000000
_cell_angle_gamma 90.000000
_cell_volume 5548.962191
_symmetry_space_group_name_H-M "C M M M"
_symmetry_group_IT_number 65
_symmetry_cell_setting 'orthorhombic'
loop_
_space_group_symop_operation_xyz
x,y,z
-x,-y,z
x,-y,-z
-x,y,-z
-x,-y,-z
x,y,-z
-x,y,z
x,-y,z
1/2+x,1/2+y,z
1/2-x,1/2-y,z
1/2+x,1/2-y,-z
1/2-x,1/2+y,-z
1/2-x,1/2-y,-z
1/2+x,1/2+y,-z
1/2-x,1/2+y,z
1/2+x,1/2-y,z
loop_
_atom_site_type_symbol
_atom_site_label
_atom_site_fract_x
_atom_site_fract_y
_atom_site_fract_z
Si Si1 0.805684 0.500000 0.201283
Si Si2 0.301886 0.601561 0.149750
Si Si3 0.701989 0.694025 0.319102
Si Si4 0.500000 0.060884 0.444155
Si Si5 0.794265 0.058426 0.947416
Si Si6 0.703638 0.693876 0.211684
Si Si7 0.296628 0.594662 0.623349
Si Si8 0.302137 0.500000 0.306994
O O1 0.708968 0.449454 0.182232
O O2 0.811096 0.500000 0.259080
O O3 0.000000 0.500000 0.181627
O O4 0.500000 0.615852 0.141871
O O5 0.217025 0.592581 0.096639
O O6 0.212075 0.649871 0.177259
O O7 0.500000 0.687853 0.313978
O O8 0.750000 0.750000 0.341392
O O9 0.784910 0.688637 0.265526
O O10 0.767884 0.649017 0.354300
O O11 0.500000 0.075071 0.500000
O O12 0.323690 0.084806 0.422693
O O13 0.500000 0.000000 0.434787
O O14 0.000000 0.057584 0.944247
O O15 0.724900 0.000000 0.941244
O O16 0.735378 0.080255 0.000000
O O17 0.500000 0.685905 0.214509
O O18 0.750000 0.750000 0.190000
O O19 0.500000 0.594716 0.608297
O O20 0.258115 0.550698 0.662458
O O21 0.500000 0.500000 0.290631
#
# Coordination Sequence:
#
# PCOD8266712 Si02
#       8
#     8  16  16   8  16  16  16   8
#     4  12  24  30  43  75 109 138 165 205 257 320
#     4  10  18  32  50  67  96 137 170 209 264 319
#     4   9  18  32  51  79 106 139 181 222 264 324
#     4  11  24  40  62  90 118 148 188 231 271 325
#     4   8  13  23  44  71  91 115 166 224 262 303
#     4   9  18  32  49  71 100 133 174 210 255 311
#     4  10  21  38  59  84 114 147 185 227 275 324
#     4  10  20  36  54  74 107 145 179 214 256 314
#
# _framework density 18.742242999999998
#
# number of rings (size 3 to 8) (size 9 to 14) (size 15 to 20)
#    0.000    2.385    1.538    2.077    2.154    3.385 
#    0.000    0.769    0.000    1.846    0.000    0.000 
#    0.000    0.000    0.000    0.000    0.000    0.000 
#
# Total GULP energy -644541.103461 kJ/mol
# GULP energy per Si atom -12395.021220 kJ/mol
# Density = 1.869958 g / cm^3
# Si number density = 18.742243 Si / 1000 Ang^3
#
#
#
# Elastic Constant Matrix: (Units=GPa)
#
#
# Indices 1 2 3 4 5 6 
#
# 1 39.3141 15.0825 30.9999 0.0000 0.0000 0.0000
# 2 15.0825 155.0979 81.7234 0.0000 0.0000 0.0000
# 3 30.9999 81.7234 142.6703 0.0000 0.0000 0.0000
# 4 0.0000 0.0000 0.0000 37.3506 0.0000 0.0000
# 5 0.0000 0.0000 0.0000 0.0000 6.3746 0.0000
# 6 0.0000 0.0000 0.0000 0.0000 0.0000 20.8797
#
#
#
# Elastic Compliance Matrix: (Units=1/GPa)
#
#
# Indices 1 2 3 4 5 6 
#
# 1 0.030758 0.000760 -0.007118 0.000000 0.000000 0.000000
# 2 0.000760 0.009254 -0.005466 0.000000 0.000000 0.000000
# 3 -0.007118 -0.005466 0.011687 0.000000 0.000000 0.000000
# 4 0.000000 0.000000 0.000000 0.026773 0.000000 0.000000
# 5 0.000000 0.000000 0.000000 0.000000 0.156873 0.000000
# 6 0.000000 0.000000 0.000000 0.000000 0.000000 0.047894
#
#
# Mechanical properties :
#
#
# Convention : Reuss Voigt Hill
#
# Bulk Modulus (GPa) = 35.65136 65.85489 50.75312
# Shear Modulus (GPa) = 15.81095 26.87274 21.34184
#
# Velocity S-wave (km/s) = 2.90763 3.79067 3.37813
# Velocity P-wave (km/s) = 5.50778 7.37376 6.50799
#
# Compressibility (1/GPa) = 0.02804942
#
# Stress axis : x y z
#
# Youngs Moduli (GPa) = 32.51221 108.06606 85.56765
#
# Poissons Ratio (x) = -0.08210 0.60910
# Poissons Ratio (y) = -0.02470 0.46768
# Poissons Ratio (z) = 0.23143 0.59065
#
# Static dielectric constant tensor:
#      x y z
#    x 3.181690 0.000000 0.000000 
#    y 0.000000 3.430710 0.000000 
#    z 0.000000 0.000000 3.590430 
# 
# 
# High freq. dielectric constant tensor:
#      x y z
#    x 1.712310 0.000000 0.000000 
#    y 0.000000 1.719160 0.000000 
#    z 0.000000 0.000000 1.713860 
# 
# From -- ./inp_files/68311.got.cif
#   From: 2010.03.12/outbox.cif.g09.slc.cpg/sg65_35_cif.got.tgz:68311.got - 2010.04.10 20:52:16.
