data_PCOD8266775
_publ_section_title
;
Structure prediction by ZEFSAII (Michael W. Deem and Ramdas Pophale) SiO2 
 PCOD8266775
Probable space group: C M M M
;
_chemical_formula_sum "Si O2"
_cell_formula_units_Z 104
_cell_length_a 8.730448
_cell_length_b 28.562176
_cell_length_c 23.340154
_cell_angle_alpha 90.000000
_cell_angle_beta 90.000000
_cell_angle_gamma 90.000000
_cell_volume 5820.114627
_symmetry_space_group_name_H-M "C M M M"
_symmetry_group_IT_number 65
_symmetry_cell_setting 'orthorhombic'
loop_
_space_group_symop_operation_xyz
x,y,z
-x,-y,z
x,-y,-z
-x,y,-z
-x,-y,-z
x,y,-z
-x,y,z
x,-y,z
1/2+x,1/2+y,z
1/2-x,1/2-y,z
1/2+x,1/2-y,-z
1/2-x,1/2+y,-z
1/2-x,1/2-y,-z
1/2+x,1/2+y,-z
1/2-x,1/2+y,z
1/2+x,1/2-y,z
loop_
_atom_site_type_symbol
_atom_site_label
_atom_site_fract_x
_atom_site_fract_y
_atom_site_fract_z
Si Si1 0.319297 0.857944 0.436828
Si Si2 0.819183 0.801148 0.884715
Si Si3 0.178195 0.947573 0.388946
Si Si4 0.821920 0.947188 0.257101
Si Si5 0.682389 0.198217 0.000000
Si Si6 0.678458 0.143003 0.782892
Si Si7 0.819818 0.699533 0.669936
O O1 0.262975 0.841593 0.500000
O O2 0.500000 0.856209 0.432894
O O3 0.270513 0.911380 0.427441
O O4 0.250189 0.823651 0.388075
O O5 0.750000 0.750000 0.873089
O O6 0.746627 0.825303 0.941833
O O7 0.780273 0.834149 0.831940
O O8 0.000000 0.796332 0.892230
O O9 0.227719 0.942406 0.323038
O O10 0.000000 0.936840 0.395879
O O11 0.216223 0.000000 0.410473
O O12 0.719384 0.911894 0.219867
O O13 0.000000 0.934643 0.249571
O O14 0.789727 0.000000 0.235511
O O15 0.750000 0.250000 0.000000
O O16 0.500000 0.197831 0.000000
O O17 0.500000 0.149771 0.796930
O O18 0.725359 0.166730 0.722967
O O19 0.750000 0.750000 0.680155
O O20 0.000000 0.705220 0.664845
#
# Coordination Sequence:
#
# PCOD8266775 Si02
#       7
#    16  16  16  16   8  16  16
#     4  10  21  37  53  71  97 129 167 211 260 315
#     4  11  21  34  52  78 112 149 186 222 263 308
#     4   9  18  33  53  76 101 128 161 203 254 312
#     4   9  18  33  53  77 104 134 167 208 261 316
#     4  10  18  32  52  76 109 148 187 224 262 304
#     4  11  21  34  53  79 107 137 176 216 262 313
#     4  10  22  37  52  72  97 129 167 213 261 309
#
# _framework density 17.869063000000001
#
# number of rings (size 3 to 8) (size 9 to 14) (size 15 to 20)
#    0.000    2.000    1.538    4.846    0.000    4.615 
#    0.000    3.077    0.000    0.000    0.000    0.538 
#    0.000    4.308    0.000    0.000    0.000    0.000 
#
# Total GULP energy -644782.380322 kJ/mol
# GULP energy per Si atom -12399.661160 kJ/mol
# Density = 1.782839 g / cm^3
# Si number density = 17.869063 Si / 1000 Ang^3
#
#
#
# Elastic Constant Matrix: (Units=GPa)
#
#
# Indices 1 2 3 4 5 6 
#
# 1 66.2824 27.9996 44.6926 0.0000 0.0000 0.0000
# 2 27.9996 92.6545 41.2132 0.0000 0.0000 0.0000
# 3 44.6926 41.2132 108.0410 0.0000 0.0000 0.0000
# 4 0.0000 0.0000 0.0000 48.0825 0.0000 0.0000
# 5 0.0000 0.0000 0.0000 0.0000 24.7056 0.0000
# 6 0.0000 0.0000 0.0000 0.0000 0.0000 29.9720
#
#
#
# Elastic Compliance Matrix: (Units=1/GPa)
#
#
# Indices 1 2 3 4 5 6 
#
# 1 0.021628 -0.003079 -0.007772 0.000000 0.000000 0.000000
# 2 -0.003079 0.013436 -0.003852 0.000000 0.000000 0.000000
# 3 -0.007772 -0.003852 0.013940 0.000000 0.000000 0.000000
# 4 0.000000 0.000000 0.000000 0.020798 0.000000 0.000000
# 5 0.000000 0.000000 0.000000 0.000000 0.040477 0.000000
# 6 0.000000 0.000000 0.000000 0.000000 0.000000 0.033364
#
#
# Mechanical properties :
#
#
# Convention : Reuss Voigt Hill
#
# Bulk Modulus (GPa) = 51.02323 54.97653 52.99988
# Shear Modulus (GPa) = 27.84230 30.75685 29.29958
#
# Velocity S-wave (km/s) = 3.95160 4.15328 4.05369
# Velocity P-wave (km/s) = 7.03108 7.33708 7.18571
#
# Compressibility (1/GPa) = 0.01959892
#
# Stress axis : x y z
#
# Youngs Moduli (GPa) = 46.23580 74.42414 71.73457
#
# Poissons Ratio (x) = 0.22913 0.55755
# Poissons Ratio (y) = 0.14235 0.27632
# Poissons Ratio (z) = 0.35936 0.28668
#
# Static dielectric constant tensor:
#      x y z
#    x 3.220210 0.000000 0.000000 
#    y 0.000000 3.258830 0.000000 
#    z 0.000000 0.000000 3.651050 
# 
# 
# High freq. dielectric constant tensor:
#      x y z
#    x 1.691300 0.000000 0.000000 
#    y 0.000000 1.677410 0.000000 
#    z 0.000000 0.000000 1.685730 
# 
# From -- ./inp_files/68167.got.cif
#   From: 2010.03.12/outbox.cif.g09.slc.cpg/sg65_35_cif.got.tgz:68167.got - 2010.04.10 20:52:16.
