data_PCOD8266601
_publ_section_title
;
Structure prediction by ZEFSAII (Michael W. Deem and Ramdas Pophale) SiO2 
 PCOD8266601
Probable space group: C M M M
;
_chemical_formula_sum "Si O2"
_cell_formula_units_Z 104
_cell_length_a 8.980046
_cell_length_b 28.314975
_cell_length_c 23.153811
_cell_angle_alpha 90.000000
_cell_angle_beta 90.000000
_cell_angle_gamma 90.000000
_cell_volume 5887.314383
_symmetry_space_group_name_H-M "C M M M"
_symmetry_group_IT_number 65
_symmetry_cell_setting 'orthorhombic'
loop_
_space_group_symop_operation_xyz
x,y,z
-x,-y,z
x,-y,-z
-x,y,-z
-x,-y,-z
x,y,-z
-x,y,z
x,-y,z
1/2+x,1/2+y,z
1/2-x,1/2-y,z
1/2+x,1/2-y,-z
1/2-x,1/2+y,-z
1/2-x,1/2-y,-z
1/2+x,1/2+y,-z
1/2-x,1/2+y,z
1/2+x,1/2-y,z
loop_
_atom_site_type_symbol
_atom_site_label
_atom_site_fract_x
_atom_site_fract_y
_atom_site_fract_z
Si Si1 0.327003 0.296181 0.853803
Si Si2 0.824918 0.898101 0.890930
Si Si3 0.174538 0.796737 0.277338
Si Si4 0.676598 0.552845 0.436606
Si Si5 0.175794 0.445509 0.000000
Si Si6 0.328417 0.944436 0.782683
Si Si7 0.823487 0.103212 0.322983
O O1 0.500000 0.285702 0.853127
O O2 0.250000 0.250000 0.881426
O O3 0.289881 0.342143 0.891856
O O4 0.269758 0.304737 0.788374
O O5 0.740180 0.921343 0.943579
O O6 0.768874 0.919444 0.831307
O O7 0.000000 0.907858 0.896467
O O8 0.250000 0.750000 0.304113
O O9 0.222768 0.842334 0.314176
O O10 0.000000 0.789033 0.279944
O O11 0.734197 0.569667 0.500000
O O12 0.500000 0.551617 0.436924
O O13 0.736753 0.500000 0.423616
O O14 0.731109 0.588658 0.387039
O O15 0.223218 0.500000 0.000000
O O16 0.000000 0.439473 0.000000
O O17 0.500000 0.928343 0.787591
O O18 0.262819 0.930360 0.721014
O O19 0.313523 0.000000 0.791150
O O20 0.000000 0.096065 0.313656
#
# Coordination Sequence:
#
# PCOD8266601 Si02
#       7
#    16  16  16  16   8  16  16
#     4   9  18  33  53  79 107 133 168 212 257 311
#     4  11  22  39  60  82 106 137 179 220 257 305
#     4   9  17  30  47  72 102 132 168 209 257 312
#     4   8  14  25  44  72 102 132 170 216 263 308
#     4  11  25  43  60  81 110 143 180 217 256 309
#     4  11  23  35  49  75 109 139 169 211 263 315
#     4  10  18  31  51  75 102 133 173 218 262 310
#
# _framework density 17.665101
#
# number of rings (size 3 to 8) (size 9 to 14) (size 15 to 20)
#    0.000    2.231    1.538    2.538    0.000    6.154 
#    0.000    0.385    0.000    0.923    0.000    2.154 
#    0.000    0.000    0.000    0.000    0.000    0.000 
#
# Total GULP energy -644744.238297 kJ/mol
# GULP energy per Si atom -12398.927660 kJ/mol
# Density = 1.762489 g / cm^3
# Si number density = 17.665101 Si / 1000 Ang^3
#
#
#
# Elastic Constant Matrix: (Units=GPa)
#
#
# Indices 1 2 3 4 5 6 
#
# 1 40.2617 48.6163 28.7122 0.0000 0.0000 0.0000
# 2 48.6163 124.3080 56.7352 0.0000 0.0000 0.0000
# 3 28.7122 56.7352 104.3074 0.0000 0.0000 0.0000
# 4 0.0000 0.0000 0.0000 30.5327 0.0000 0.0000
# 5 0.0000 0.0000 0.0000 0.0000 20.5702 0.0000
# 6 0.0000 0.0000 0.0000 0.0000 0.0000 29.4896
#
#
#
# Elastic Compliance Matrix: (Units=1/GPa)
#
#
# Indices 1 2 3 4 5 6 
#
# 1 0.048297 -0.017055 -0.004018 0.000000 0.000000 0.000000
# 2 -0.017055 0.016724 -0.004402 0.000000 0.000000 0.000000
# 3 -0.004018 -0.004402 0.013087 0.000000 0.000000 0.000000
# 4 0.000000 0.000000 0.000000 0.032752 0.000000 0.000000
# 5 0.000000 0.000000 0.000000 0.000000 0.048614 0.000000
# 6 0.000000 0.000000 0.000000 0.000000 0.000000 0.033910
#
#
# Mechanical properties :
#
#
# Convention : Reuss Voigt Hill
#
# Bulk Modulus (GPa) = 36.82080 59.66715 48.24398
# Shear Modulus (GPa) = 19.73283 25.10607 22.41945
#
# Velocity S-wave (km/s) = 3.34586 3.77400 3.56636
# Velocity P-wave (km/s) = 5.98460 7.26918 6.65794
#
# Compressibility (1/GPa) = 0.02715856
#
# Stress axis : x y z
#
# Youngs Moduli (GPa) = 20.70542 59.79591 76.41026
#
# Poissons Ratio (x) = 1.01980 0.30701
# Poissons Ratio (y) = 0.35313 0.33634
# Poissons Ratio (z) = 0.08319 0.26321
#
# Static dielectric constant tensor:
#      x y z
#    x 3.171700 0.000000 0.000000 
#    y 0.000000 3.452810 0.000000 
#    z 0.000000 0.000000 4.794150 
# 
# 
# High freq. dielectric constant tensor:
#      x y z
#    x 1.670650 0.000000 0.000000 
#    y 0.000000 1.691270 0.000000 
#    z 0.000000 0.000000 1.668580 
# 
# From -- ./inp_files/60906.got.cif
#   From: 2010.03.12/outbox.cif.g09.slc.cpg/sg65_31_cif.got.tgz:60906.got - 2010.04.10 20:52:16.
