data_PCOD8266125
_publ_section_title
;
Structure prediction by ZEFSAII (Michael W. Deem and Ramdas Pophale) SiO2 
 PCOD8266125
Probable space group: C M M M
;
_chemical_formula_sum "Si O2"
_cell_formula_units_Z 112
_cell_length_a 23.021397
_cell_length_b 29.430970
_cell_length_c 9.406813
_cell_angle_alpha 90.000000
_cell_angle_beta 90.000000
_cell_angle_gamma 90.000000
_cell_volume 6373.511312
_symmetry_space_group_name_H-M "C M M M"
_symmetry_group_IT_number 65
_symmetry_cell_setting 'orthorhombic'
loop_
_space_group_symop_operation_xyz
x,y,z
-x,-y,z
x,-y,-z
-x,y,-z
-x,-y,-z
x,y,-z
-x,y,z
x,-y,z
1/2+x,1/2+y,z
1/2-x,1/2-y,z
1/2+x,1/2-y,-z
1/2-x,1/2+y,-z
1/2-x,1/2-y,-z
1/2+x,1/2+y,-z
1/2-x,1/2+y,z
1/2+x,1/2-y,z
loop_
_atom_site_type_symbol
_atom_site_label
_atom_site_fract_x
_atom_site_fract_y
_atom_site_fract_z
Si Si1 0.665697 0.632929 0.668902
Si Si2 0.895435 0.702457 0.666283
Si Si3 0.711469 0.552452 0.834369
Si Si4 0.064602 0.621082 0.837195
Si Si5 0.736670 0.799102 0.666553
Si Si6 0.565067 0.301055 0.668541
Si Si7 0.842807 0.449939 0.168757
O O1 0.667717 0.626061 0.500000
O O2 0.668117 0.583872 0.743592
O O3 0.720047 0.662680 0.727108
O O4 0.606501 0.657877 0.718537
O O5 0.909475 0.698728 0.500000
O O6 0.935854 0.667739 0.750116
O O7 0.829410 0.688146 0.700324
O O8 0.908795 0.753169 0.722400
O O9 0.696602 0.500000 0.801867
O O10 0.777517 0.563603 0.786410
O O11 0.702783 0.563030 0.000000
O O12 0.110543 0.585656 0.769102
O O13 0.000000 0.599919 0.827055
O O14 0.081152 0.631878 0.000000
O O15 0.749167 0.795379 0.500000
O O16 0.750000 0.750000 0.736247
O O17 0.563719 0.299860 0.500000
O O18 0.500000 0.308465 0.729749
O O19 0.857544 0.500000 0.229912
O O20 0.847259 0.451608 0.000000
#
# Coordination Sequence:
#
# PCOD8266125 Si02
#       7
#    16  16  16  16  16  16  16
#     4  10  18  29  49  74  97 122 154 194 233 270
#     4  10  18  30  49  68  92 127 162 191 225 278
#     4   9  18  33  52  72  95 122 150 186 237 291
#     4  10  20  31  44  66  95 124 157 200 239 266
#     4   9  15  26  45  71  98 121 150 192 237 273
#     4   9  17  29  46  68  93 124 161 193 220 263
#     4   8  15  30  50  68  88 119 157 193 232 280
#
# _framework density 17.572731000000001
#
# number of rings (size 3 to 8) (size 9 to 14) (size 15 to 20)
#    0.000    2.714    1.429    2.143    0.000    1.429 
#    0.000    2.143    0.000    3.857    0.000    4.000 
#    0.000    0.000    0.000    0.000    0.000    0.000 
#
# Total GULP energy -694215.484862 kJ/mol
# GULP energy per Si atom -12396.705087 kJ/mol
# Density = 1.753273 g / cm^3
# Si number density = 17.572731 Si / 1000 Ang^3
#
#
#
# Elastic Constant Matrix: (Units=GPa)
#
#
# Indices 1 2 3 4 5 6 
#
# 1 107.6501 64.4182 28.1189 0.0000 0.0000 0.0000
# 2 64.4182 125.9035 35.7360 0.0000 0.0000 0.0000
# 3 28.1189 35.7360 28.1307 0.0000 0.0000 0.0000
# 4 0.0000 0.0000 0.0000 22.9939 0.0000 0.0000
# 5 0.0000 0.0000 0.0000 0.0000 15.4335 0.0000
# 6 0.0000 0.0000 0.0000 0.0000 0.0000 26.5797
#
#
#
# Elastic Compliance Matrix: (Units=1/GPa)
#
#
# Indices 1 2 3 4 5 6 
#
# 1 0.014427 -0.005143 -0.007888 0.000000 0.000000 0.000000
# 2 -0.005143 0.014255 -0.012968 0.000000 0.000000 0.000000
# 3 -0.007888 -0.012968 0.059907 0.000000 0.000000 0.000000
# 4 0.000000 0.000000 0.000000 0.043490 0.000000 0.000000
# 5 0.000000 0.000000 0.000000 0.000000 0.064794 0.000000
# 6 0.000000 0.000000 0.000000 0.000000 0.000000 0.037623
#
#
# Mechanical properties :
#
#
# Convention : Reuss Voigt Hill
#
# Bulk Modulus (GPa) = 27.32883 57.58116 42.45500
# Shear Modulus (GPa) = 16.73980 21.89552 19.31766
#
# Velocity S-wave (km/s) = 3.08977 3.53369 3.31916
# Velocity P-wave (km/s) = 5.32114 7.03476 6.23708
#
# Compressibility (1/GPa) = 0.03659139
#
# Stress axis : x y z
#
# Youngs Moduli (GPa) = 69.31363 70.15282 16.69260
#
# Poissons Ratio (x) = 0.36078 0.13167
# Poissons Ratio (y) = 0.35646 0.21647
# Poissons Ratio (z) = 0.54675 0.90973
#
# Static dielectric constant tensor:
#      x y z
#    x 3.384400 0.000000 0.000000 
#    y 0.000000 3.325670 0.000000 
#    z 0.000000 0.000000 2.749860 
# 
# 
# High freq. dielectric constant tensor:
#      x y z
#    x 1.677720 0.000000 0.000000 
#    y 0.000000 1.680230 0.000000 
#    z 0.000000 0.000000 1.627860 
# 
# From -- ./inp_files/31078.got.cif
#   From: 2010.03.12/outbox.cif.g09.slc.cpg/sg65_16_cif.got.tgz:31078.got - 2010.04.10 20:52:16.
