data_PCOD8266055
_publ_section_title
;
Structure prediction by ZEFSAII (Michael W. Deem and Ramdas Pophale) SiO2 
 PCOD8266055
Probable space group: C M M M
;
_chemical_formula_sum "Si O2"
_cell_formula_units_Z 56
_cell_length_a 33.945441
_cell_length_b 10.422670
_cell_length_c 9.026568
_cell_angle_alpha 90.000000
_cell_angle_beta 90.000000
_cell_angle_gamma 90.000000
_cell_volume 3193.618981
_symmetry_space_group_name_H-M "C M M M"
_symmetry_group_IT_number 65
_symmetry_cell_setting 'orthorhombic'
loop_
_space_group_symop_operation_xyz
x,y,z
-x,-y,z
x,-y,-z
-x,y,-z
-x,-y,-z
x,y,-z
-x,y,z
x,-y,z
1/2+x,1/2+y,z
1/2-x,1/2-y,z
1/2+x,1/2-y,-z
1/2-x,1/2+y,-z
1/2-x,1/2-y,-z
1/2+x,1/2+y,-z
1/2-x,1/2+y,z
1/2+x,1/2-y,z
loop_
_atom_site_type_symbol
_atom_site_label
_atom_site_fract_x
_atom_site_fract_y
_atom_site_fract_z
Si Si1 0.000000 0.651887 0.338128
Si Si2 0.914998 0.646794 0.323309
Si Si3 0.840170 0.255314 0.824102
Si Si4 0.703012 0.500000 0.823949
Si Si5 0.708547 0.000000 0.823949
O O1 0.041546 0.689862 0.260154
O O2 0.000000 0.500000 0.358173
O O3 0.000000 0.716584 0.500000
O O4 0.913851 0.661204 0.500000
O O5 0.906049 0.500000 0.276973
O O6 0.883258 0.738902 0.247934
O O7 0.813883 0.373832 0.766390
O O8 0.819673 0.125678 0.767085
O O9 0.844695 0.257779 0.000000
O O10 0.747251 0.500000 0.758627
O O11 0.705094 0.500000 0.000000
O O12 0.710164 0.000000 0.000000
#
# Coordination Sequence:
#
# PCOD8266055 Si02
#       5
#     8  16  16   8   8
#     4   7  12  24  43  66  89 116 148 180 217 268
#     4   9  16  28  47  69  93 119 148 183 226 270
#     4  10  18  29  47  70  93 117 151 190 225 263
#     4   9  18  30  45  66  93 124 152 183 225 269
#     4   9  16  28  47  68  89 116 154 193 223 259
#
# _framework density 17.534967000000002
#
# number of rings (size 3 to 8) (size 9 to 14) (size 15 to 20)
#    0.000    3.000    1.429    2.571    0.000    3.429 
#    0.000    1.429    0.000    8.571    0.000    6.000 
#    0.000    0.000    0.000    0.000    0.000    0.000 
#
# Total GULP energy -346965.379325 kJ/mol
# GULP energy per Si atom -12391.620690 kJ/mol
# Density = 1.749506 g / cm^3
# Si number density = 17.534967 Si / 1000 Ang^3
#
#
#
# Elastic Constant Matrix: (Units=GPa)
#
#
# Indices 1 2 3 4 5 6 
#
# 1 197.6384 75.1760 25.6174 0.0000 0.0000 0.0000
# 2 75.1760 114.7641 14.5013 0.0000 0.0000 0.0000
# 3 25.6174 14.5013 14.9361 0.0000 0.0000 0.0000
# 4 0.0000 0.0000 0.0000 11.2187 0.0000 0.0000
# 5 0.0000 0.0000 0.0000 0.0000 -17.7082 0.0000
# 6 0.0000 0.0000 0.0000 0.0000 0.0000 12.7244
#
#
#
# Elastic Compliance Matrix: (Units=1/GPa)
#
#
# Indices 1 2 3 4 5 6 
#
# 1 0.007778 -0.003886 -0.009567 0.000000 0.000000 0.000000
# 2 -0.003886 0.011874 -0.004863 0.000000 0.000000 0.000000
# 3 -0.009567 -0.004863 0.088082 0.000000 0.000000 0.000000
# 4 0.000000 0.000000 0.000000 0.089137 0.000000 0.000000
# 5 0.000000 0.000000 0.000000 0.000000 -0.056471 0.000000
# 6 0.000000 0.000000 0.000000 0.000000 0.000000 0.078589
#
#
# Mechanical properties :
#
#
# Convention : Reuss Voigt Hill
#
# Bulk Modulus (GPa) = 14.06439 61.99200 38.02819
# Shear Modulus (GPa) = 17.90047 15.38323 16.64185
#
# Velocity S-wave (km/s) = 3.19853 2.96512 3.08403
# Velocity P-wave (km/s) = 4.65607 6.86678 5.86650
#
# Compressibility (1/GPa) = 0.07110157
#
# Stress axis : x y z
#
# Youngs Moduli (GPa) = 128.56807 84.22091 11.35300
#
# Poissons Ratio (x) = 0.32729 0.10862
# Poissons Ratio (y) = 0.49962 0.05521
# Poissons Ratio (z) = 1.23005 0.40955
#
# Static dielectric constant tensor:
#      x y z
#    x 3.681650 0.000000 0.000000 
#    y 0.000000 3.106550 0.000000 
#    z 0.000000 0.000000 2.699140 
# 
# 
# High freq. dielectric constant tensor:
#      x y z
#    x 1.703570 0.000000 0.000000 
#    y 0.000000 1.648290 0.000000 
#    z 0.000000 0.000000 1.622880 
# 
# From -- ./inp_files/20858.got.cif
#   From: 2010.03.12/outbox.cif.g09.slc.cpg/sg65_11_cif.got.tgz:20858.got - 2010.04.10 20:52:16.
