data_PCOD8266611
_publ_section_title
;
Structure prediction by ZEFSAII (Michael W. Deem and Ramdas Pophale) SiO2 
 PCOD8266611
Probable space group: C M M M
;
_chemical_formula_sum "Si O2"
_cell_formula_units_Z 88
_cell_length_a 14.426626
_cell_length_b 17.256947
_cell_length_c 18.550151
_cell_angle_alpha 90.000000
_cell_angle_beta 90.000000
_cell_angle_gamma 90.000000
_cell_volume 4618.236694
_symmetry_space_group_name_H-M "C M M M"
_symmetry_group_IT_number 65
_symmetry_cell_setting 'orthorhombic'
loop_
_space_group_symop_operation_xyz
x,y,z
-x,-y,z
x,-y,-z
-x,y,-z
-x,-y,-z
x,y,-z
-x,y,z
x,-y,z
1/2+x,1/2+y,z
1/2-x,1/2-y,z
1/2+x,1/2-y,-z
1/2-x,1/2+y,-z
1/2-x,1/2-y,-z
1/2+x,1/2+y,-z
1/2-x,1/2+y,z
1/2+x,1/2-y,z
loop_
_atom_site_type_symbol
_atom_site_label
_atom_site_fract_x
_atom_site_fract_y
_atom_site_fract_z
Si Si1 0.603561 0.908407 0.920246
Si Si2 0.778789 0.590479 0.786961
Si Si3 0.648861 0.285931 0.582242
Si Si4 0.610559 0.000000 0.578351
Si Si5 0.601312 0.142922 0.665997
Si Si6 0.394761 0.410564 0.698107
O O1 0.500000 0.879801 0.895424
O O2 0.687590 0.883442 0.866653
O O3 0.601211 0.000000 0.924494
O O4 0.625934 0.874611 0.000000
O O5 0.805576 0.500000 0.773353
O O6 0.833954 0.649464 0.735318
O O7 0.669584 0.603915 0.769431
O O8 0.614788 0.300817 0.500000
O O9 0.750000 0.250000 0.582866
O O10 0.586572 0.222065 0.622104
O O11 0.642233 0.364501 0.628251
O O12 0.647996 0.076954 0.616555
O O13 0.500000 0.000000 0.573144
O O14 0.656325 0.000000 0.500000
O O15 0.500000 0.115436 0.692022
O O16 0.500000 0.386098 0.718300
O O17 0.390165 0.500000 0.675295
#
# Coordination Sequence:
#
# PCOD8266611 Si02
#       6
#    16  16  16   8  16  16
#     4   8  14  25  45  77 115 149 176 207 257 321
#     4  10  18  31  51  76 108 142 178 221 263 312
#     4  11  23  39  56  76 104 137 180 235 290 333
#     4   9  18  30  44  68 102 136 168 199 248 326
#     4  11  20  31  50  76 104 138 174 212 271 336
#     4  10  22  40  59  77 100 140 193 238 276 319
#
# _framework density 19.054891000000001
#
# number of rings (size 3 to 8) (size 9 to 14) (size 15 to 20)
#    0.000    2.091    2.727    2.182    0.000    3.273 
#    0.000    0.909    0.000    0.545    0.000    6.364 
#    0.000    2.909    0.000    0.182    0.000    0.000 
#
# Total GULP energy -545171.456210 kJ/mol
# GULP energy per Si atom -12390.260368 kJ/mol
# Density = 1.901152 g / cm^3
# Si number density = 19.054891 Si / 1000 Ang^3
#
#
#
# Elastic Constant Matrix: (Units=GPa)
#
#
# Indices 1 2 3 4 5 6 
#
# 1 115.9488 20.0474 68.5319 0.0000 0.0000 0.0000
# 2 20.0474 57.7190 32.7477 0.0000 0.0000 0.0000
# 3 68.5319 32.7477 144.4605 0.0000 0.0000 0.0000
# 4 0.0000 0.0000 0.0000 17.4613 0.0000 0.0000
# 5 0.0000 0.0000 0.0000 0.0000 18.6700 0.0000
# 6 0.0000 0.0000 0.0000 0.0000 0.0000 16.4760
#
#
#
# Elastic Compliance Matrix: (Units=1/GPa)
#
#
# Indices 1 2 3 4 5 6 
#
# 1 0.012043 -0.001080 -0.005468 0.000000 0.000000 0.000000
# 2 -0.001080 0.019979 -0.004017 0.000000 0.000000 0.000000
# 3 -0.005468 -0.004017 0.010427 0.000000 0.000000 0.000000
# 4 0.000000 0.000000 0.000000 0.057270 0.000000 0.000000
# 5 0.000000 0.000000 0.000000 0.000000 0.053562 0.000000
# 6 0.000000 0.000000 0.000000 0.000000 0.000000 0.060694
#
#
# Mechanical properties :
#
#
# Convention : Reuss Voigt Hill
#
# Bulk Modulus (GPa) = 46.90649 62.30913 54.60781
# Shear Modulus (GPa) = 20.64299 23.64155 22.14227
#
# Velocity S-wave (km/s) = 3.29499 3.52619 3.41255
# Velocity P-wave (km/s) = 6.25667 7.02492 6.65189
#
# Compressibility (1/GPa) = 0.02131901
#
# Stress axis : x y z
#
# Youngs Moduli (GPa) = 83.03262 50.05148 95.90421
#
# Poissons Ratio (x) = 0.05408 0.52445
# Poissons Ratio (y) = 0.08971 0.38521
# Poissons Ratio (z) = 0.45406 0.20104
#
# Static dielectric constant tensor:
#      x y z
#    x 3.603160 0.000000 0.000000 
#    y 0.000000 3.262080 0.000000 
#    z 0.000000 0.000000 3.676180 
# 
# 
# High freq. dielectric constant tensor:
#      x y z
#    x 1.741020 0.000000 0.000000 
#    y 0.000000 1.711430 0.000000 
#    z 0.000000 0.000000 1.721320 
# 
# From -- ./inp_files/52982.got.cif
#   From: 2010.03.12/outbox.cif.g09.slc.cpg/sg65_27_cif.got.tgz:52982.got - 2010.04.10 20:52:16.
