data_PCOD8266007
_publ_section_title
;
Structure prediction by ZEFSAII (Michael W. Deem and Ramdas Pophale) SiO2 
 PCOD8266007
Probable space group: C M M M
;
_chemical_formula_sum "Si O2"
_cell_formula_units_Z 112
_cell_length_a 31.254271
_cell_length_b 14.113828
_cell_length_c 14.458679
_cell_angle_alpha 90.000000
_cell_angle_beta 90.000000
_cell_angle_gamma 90.000000
_cell_volume 6377.974963
_symmetry_space_group_name_H-M "C M M M"
_symmetry_group_IT_number 65
_symmetry_cell_setting 'orthorhombic'
loop_
_space_group_symop_operation_xyz
x,y,z
-x,-y,z
x,-y,-z
-x,y,-z
-x,-y,-z
x,y,-z
-x,y,z
x,-y,z
1/2+x,1/2+y,z
1/2-x,1/2-y,z
1/2+x,1/2-y,-z
1/2-x,1/2+y,-z
1/2-x,1/2-y,-z
1/2+x,1/2+y,-z
1/2-x,1/2+y,z
1/2+x,1/2-y,z
loop_
_atom_site_type_symbol
_atom_site_label
_atom_site_fract_x
_atom_site_fract_y
_atom_site_fract_z
Si Si1 0.300061 0.765624 0.106112
Si Si2 0.682867 0.892366 0.271880
Si Si3 0.233659 0.894124 0.394439
Si Si4 0.454132 0.389223 0.203986
Si Si5 0.656174 0.261268 0.395402
Si Si6 0.868614 0.108590 0.108284
Si Si7 0.424310 0.608576 0.601211
O O1 0.250000 0.750000 0.122154
O O2 0.314137 0.854879 0.167327
O O3 0.327258 0.671895 0.134976
O O4 0.309612 0.792168 0.000000
O O5 0.727553 0.881987 0.324576
O O6 0.649074 0.829187 0.329267
O O7 0.666509 0.000000 0.268888
O O8 0.249176 0.875747 0.500000
O O9 0.198682 0.817388 0.364821
O O10 0.214281 0.000000 0.386454
O O11 0.500000 0.348613 0.165709
O O12 0.452733 0.500000 0.182596
O O13 0.411365 0.346914 0.156583
O O14 0.456047 0.369312 0.314486
O O15 0.659502 0.224781 0.500000
O O16 0.617663 0.331749 0.381656
O O17 0.859424 0.000000 0.140419
O O18 0.877493 0.111970 0.000000
O O19 0.445135 0.631742 0.500000
O O20 0.409636 0.500000 0.604241
#
# Coordination Sequence:
#
# PCOD8266007 Si02
#       7
#    16  16  16  16  16  16  16
#     4  10  21  36  52  69  91 122 161 201 239 283
#     4  11  22  32  43  61  87 120 156 195 241 286
#     4   9  17  29  45  65  88 115 151 195 241 287
#     4   9  17  28  44  69 101 135 165 191 224 274
#     4  10  18  29  46  65  88 119 156 198 239 279
#     4   9  18  33  53  75  98 125 157 195 240 288
#     4   9  17  28  43  65  93 126 161 192 224 267
#
# _framework density 17.560433
#
# number of rings (size 3 to 8) (size 9 to 14) (size 15 to 20)
#    0.000    2.429    0.000    3.000    0.000    5.143 
#    0.000    7.857    0.000    0.000    0.000    0.000 
#    0.000    9.143    0.000   25.143    0.000    1.429 
#
# Total GULP energy -694007.175426 kJ/mol
# GULP energy per Si atom -12392.985275 kJ/mol
# Density = 1.752047 g / cm^3
# Si number density = 17.560433 Si / 1000 Ang^3
#
#
#
# Elastic Constant Matrix: (Units=GPa)
#
#
# Indices 1 2 3 4 5 6 
#
# 1 91.5625 27.6981 29.4190 0.0000 0.0000 0.0000
# 2 27.6981 79.8793 39.2363 0.0000 0.0000 0.0000
# 3 29.4190 39.2363 71.3058 0.0000 0.0000 0.0000
# 4 0.0000 0.0000 0.0000 27.2175 0.0000 0.0000
# 5 0.0000 0.0000 0.0000 0.0000 -4.9772 0.0000
# 6 0.0000 0.0000 0.0000 0.0000 0.0000 14.1384
#
#
#
# Elastic Compliance Matrix: (Units=1/GPa)
#
#
# Indices 1 2 3 4 5 6 
#
# 1 0.012961 -0.002559 -0.003939 0.000000 0.000000 0.000000
# 2 -0.002559 0.017661 -0.008662 0.000000 0.000000 0.000000
# 3 -0.003939 -0.008662 0.020416 0.000000 0.000000 0.000000
# 4 0.000000 0.000000 0.000000 0.036741 0.000000 0.000000
# 5 0.000000 0.000000 0.000000 0.000000 -0.200918 0.000000
# 6 0.000000 0.000000 0.000000 0.000000 0.000000 0.070729
#
#
# Mechanical properties :
#
#
# Convention : Reuss Voigt Hill
#
# Bulk Modulus (GPa) = 48.27033 48.38383 48.32708
# Shear Modulus (GPa) = -964.85310 17.03536 -473.90887
#
# Velocity S-wave (km/s) = -23.46572 3.11802 -16.44564
# Velocity P-wave (km/s) = 26.58268 6.36987 18.24916
#
# Compressibility (1/GPa) = 0.02071666
#
# Stress axis : x y z
#
# Youngs Moduli (GPa) = 77.15214 56.62129 48.98176
#
# Poissons Ratio (x) = 0.14492 0.19295
# Poissons Ratio (y) = 0.19747 0.42429
# Poissons Ratio (z) = 0.30392 0.49047
#
# Static dielectric constant tensor:
#      x y z
#    x 3.196930 0.000000 0.000000 
#    y 0.000000 3.247110 0.000000 
#    z 0.000000 0.000000 3.503430 
# 
# 
# High freq. dielectric constant tensor:
#      x y z
#    x 1.653760 0.000000 0.000000 
#    y 0.000000 1.647780 0.000000 
#    z 0.000000 0.000000 1.694080 
# 
# From -- ./inp_files/41352.got.cif
#   From: 2010.03.12/outbox.cif.g09.slc.cpg/sg65_21_cif.got.tgz:41352.got - 2010.04.10 20:52:16.
