data_PCOD8266159
_publ_section_title
;
Structure prediction by ZEFSAII (Michael W. Deem and Ramdas Pophale) SiO2 
 PCOD8266159
Probable space group: C M M M
;
_chemical_formula_sum "Si O2"
_cell_formula_units_Z 88
_cell_length_a 24.978857
_cell_length_b 14.238751
_cell_length_c 15.898380
_cell_angle_alpha 90.000000
_cell_angle_beta 90.000000
_cell_angle_gamma 90.000000
_cell_volume 5654.540647
_symmetry_space_group_name_H-M "C M M M"
_symmetry_group_IT_number 65
_symmetry_cell_setting 'orthorhombic'
loop_
_space_group_symop_operation_xyz
x,y,z
-x,-y,z
x,-y,-z
-x,y,-z
-x,-y,-z
x,y,-z
-x,y,z
x,-y,z
1/2+x,1/2+y,z
1/2-x,1/2-y,z
1/2+x,1/2-y,-z
1/2-x,1/2+y,-z
1/2-x,1/2-y,-z
1/2+x,1/2+y,-z
1/2-x,1/2+y,z
1/2+x,1/2-y,z
loop_
_atom_site_type_symbol
_atom_site_label
_atom_site_fract_x
_atom_site_fract_y
_atom_site_fract_z
Si Si1 0.188288 0.773999 0.408057
Si Si2 0.500000 0.888984 0.906492
Si Si3 0.885253 0.606188 0.145312
Si Si4 0.177131 0.396812 0.692578
Si Si5 0.311847 0.727772 0.092099
Si Si6 0.705041 0.609720 0.748548
O O1 0.165906 0.805423 0.500000
O O2 0.250000 0.750000 0.416508
O O3 0.160965 0.676268 0.379768
O O4 0.177472 0.853696 0.337897
O O5 0.445934 0.854665 0.860629
O O6 0.500000 0.000000 0.908856
O O7 0.500000 0.846421 0.000000
O O8 0.879691 0.500000 0.106839
O O9 0.871789 0.602413 0.243412
O O10 0.845637 0.676291 0.097531
O O11 0.185960 0.500000 0.652164
O O12 0.231351 0.366578 0.743270
O O13 0.250000 0.750000 0.094522
O O14 0.323176 0.658300 0.170703
O O15 0.325483 0.682227 0.000000
O O16 0.694249 0.500000 0.756911
#
# Coordination Sequence:
#
# PCOD8266159 Si02
#       6
#    16   8  16  16  16  16
#     4   9  16  27  43  63  89 120 154 188 227 278
#     4   9  18  30  44  66  92 120 159 200 234 274
#     4  10  18  31  48  66  93 126 156 191 234 276
#     4   9  16  27  44  63  90 124 150 181 229 278
#     4  11  20  29  43  64  91 124 158 188 230 281
#     4  10  18  30  42  59  92 124 155 190 225 271
#
# _framework density 15.562714
#
# number of rings (size 3 to 8) (size 9 to 14) (size 15 to 20)
#    0.000    2.273    3.636    1.091    0.000    2.182 
#    0.000    5.455    0.000    0.000    0.000    1.273 
#    0.000    5.818    0.000    1.636    0.000    0.182 
#
# Total GULP energy -545159.410887 kJ/mol
# GULP energy per Si atom -12389.986611 kJ/mol
# Density = 1.552729 g / cm^3
# Si number density = 15.562714 Si / 1000 Ang^3
#
#
#
# Elastic Constant Matrix: (Units=GPa)
#
#
# Indices 1 2 3 4 5 6 
#
# 1 72.1583 32.8862 24.2090 0.0000 0.0000 0.0000
# 2 32.8862 80.8962 53.5367 0.0000 0.0000 0.0000
# 3 24.2090 53.5367 131.9212 0.0000 0.0000 0.0000
# 4 0.0000 0.0000 0.0000 15.2646 0.0000 0.0000
# 5 0.0000 0.0000 0.0000 0.0000 10.8082 0.0000
# 6 0.0000 0.0000 0.0000 0.0000 0.0000 13.8895
#
#
#
# Elastic Compliance Matrix: (Units=1/GPa)
#
#
# Indices 1 2 3 4 5 6 
#
# 1 0.017028 -0.006637 -0.000431 0.000000 0.000000 0.000000
# 2 -0.006637 0.019487 -0.006690 0.000000 0.000000 0.000000
# 3 -0.000431 -0.006690 0.010375 0.000000 0.000000 0.000000
# 4 0.000000 0.000000 0.000000 0.065511 0.000000 0.000000
# 5 0.000000 0.000000 0.000000 0.000000 0.092522 0.000000
# 6 0.000000 0.000000 0.000000 0.000000 0.000000 0.071997
#
#
# Mechanical properties :
#
#
# Convention : Reuss Voigt Hill
#
# Bulk Modulus (GPa) = 51.61974 56.24883 53.93428
# Shear Modulus (GPa) = 16.08265 19.61540 17.84902
#
# Velocity S-wave (km/s) = 3.21816 3.55408 3.39028
# Velocity P-wave (km/s) = 6.85927 7.28449 7.07507
#
# Compressibility (1/GPa) = 0.01937244
#
# Stress axis : x y z
#
# Youngs Moduli (GPa) = 58.72735 51.31576 96.38928
#
# Poissons Ratio (x) = 0.34057 0.04159
# Poissons Ratio (y) = 0.38975 0.64489
# Poissons Ratio (z) = 0.02534 0.34333
#
# Static dielectric constant tensor:
#      x y z
#    x 2.814390 0.000000 0.000000 
#    y 0.000000 3.010450 0.000000 
#    z 0.000000 0.000000 3.300750 
# 
# 
# High freq. dielectric constant tensor:
#      x y z
#    x 1.540400 0.000000 0.000000 
#    y 0.000000 1.588290 0.000000 
#    z 0.000000 0.000000 1.601850 
# 
# From -- ./inp_files/45582.got.cif
#   From: 2010.03.12/outbox.cif.g09.slc.cpg/sg65_23_cif.got.tgz:45582.got - 2010.04.10 20:52:16.
