data_PCOD8266864
_publ_section_title
;
Structure prediction by ZEFSAII (Michael W. Deem and Ramdas Pophale) SiO2 
 PCOD8266864
Probable space group: C M M M
;
_chemical_formula_sum "Si O2"
_cell_formula_units_Z 88
_cell_length_a 9.470539
_cell_length_b 26.937444
_cell_length_c 18.937725
_cell_angle_alpha 90.000000
_cell_angle_beta 90.000000
_cell_angle_gamma 90.000000
_cell_volume 4831.243058
_symmetry_space_group_name_H-M "C M M M"
_symmetry_group_IT_number 65
_symmetry_cell_setting 'orthorhombic'
loop_
_space_group_symop_operation_xyz
x,y,z
-x,-y,z
x,-y,-z
-x,y,-z
-x,-y,-z
x,y,-z
-x,y,z
x,-y,z
1/2+x,1/2+y,z
1/2-x,1/2-y,z
1/2+x,1/2-y,-z
1/2-x,1/2+y,-z
1/2-x,1/2-y,-z
1/2+x,1/2+y,-z
1/2-x,1/2+y,z
1/2+x,1/2-y,z
loop_
_atom_site_type_symbol
_atom_site_label
_atom_site_fract_x
_atom_site_fract_y
_atom_site_fract_z
Si Si1 0.667660 0.000000 0.579097
Si Si2 0.334321 0.094245 0.669221
Si Si3 0.664645 0.202632 0.155752
Si Si4 0.339346 0.555515 0.792056
Si Si5 0.838765 0.703335 0.679273
Si Si6 0.659216 0.621130 0.080594
O O1 0.721140 0.949320 0.617001
O O2 0.500000 0.000000 0.576960
O O3 0.730119 0.000000 0.500000
O O4 0.500000 0.088048 0.683487
O O5 0.256482 0.090416 0.743794
O O6 0.303842 0.150494 0.640189
O O7 0.500000 0.209557 0.139665
O O8 0.750000 0.250000 0.128768
O O9 0.693436 0.194195 0.238485
O O10 0.723535 0.157977 0.109713
O O11 0.500000 0.559527 0.764953
O O12 0.281094 0.500000 0.785497
O O13 0.328530 0.571104 0.873692
O O14 0.750000 0.750000 0.648927
O O15 0.000000 0.718303 0.666571
O O16 0.500000 0.643368 0.088170
O O17 0.693369 0.607479 0.000000
#
# Coordination Sequence:
#
# PCOD8266864 Si02
#       6
#     8  16  16  16  16  16
#     4   9  18  32  55  87 116 141 170 208 253 301
#     4  10  18  32  55  80 107 138 174 213 255 303
#     4  10  19  32  50  71  97 127 166 214 265 315
#     4  10  20  33  51  75 100 129 170 212 258 313
#     4   9  18  30  48  76 103 133 171 214 259 303
#     4  10  21  35  49  67  95 132 172 215 262 311
#
# _framework density 18.214774999999999
#
# number of rings (size 3 to 8) (size 9 to 14) (size 15 to 20)
#    0.000    2.273    2.727    0.545    0.000    2.545 
#    0.000    1.818    0.000    1.636    0.000    2.545 
#    0.000    0.000    0.000    0.000    0.000    0.000 
#
# Total GULP energy -545384.866457 kJ/mol
# GULP energy per Si atom -12395.110601 kJ/mol
# Density = 1.817332 g / cm^3
# Si number density = 18.214775 Si / 1000 Ang^3
#
#
#
# Elastic Constant Matrix: (Units=GPa)
#
#
# Indices 1 2 3 4 5 6 
#
# 1 64.0850 50.3825 23.2745 0.0000 0.0000 0.0000
# 2 50.3825 143.4726 37.2879 0.0000 0.0000 0.0000
# 3 23.2745 37.2879 64.2908 0.0000 0.0000 0.0000
# 4 0.0000 0.0000 0.0000 19.4372 0.0000 0.0000
# 5 0.0000 0.0000 0.0000 0.0000 11.5879 0.0000
# 6 0.0000 0.0000 0.0000 0.0000 0.0000 29.1671
#
#
#
# Elastic Compliance Matrix: (Units=1/GPa)
#
#
# Indices 1 2 3 4 5 6 
#
# 1 0.022475 -0.006803 -0.004190 0.000000 0.000000 0.000000
# 2 -0.006803 0.010266 -0.003492 0.000000 0.000000 0.000000
# 3 -0.004190 -0.003492 0.019096 0.000000 0.000000 0.000000
# 4 0.000000 0.000000 0.000000 0.051448 0.000000 0.000000
# 5 0.000000 0.000000 0.000000 0.000000 0.086297 0.000000
# 6 0.000000 0.000000 0.000000 0.000000 0.000000 0.034285
#
#
# Mechanical properties :
#
#
# Convention : Reuss Voigt Hill
#
# Bulk Modulus (GPa) = 43.73090 54.85977 49.29533
# Shear Modulus (GPa) = 19.19676 22.76534 20.98105
#
# Velocity S-wave (km/s) = 3.24992 3.53913 3.39760
# Velocity P-wave (km/s) = 6.17602 6.84721 6.52026
#
# Compressibility (1/GPa) = 0.02286713
#
# Stress axis : x y z
#
# Youngs Moduli (GPa) = 44.49431 97.40449 52.36591
#
# Poissons Ratio (x) = 0.66267 0.21944
# Poissons Ratio (y) = 0.30271 0.18284
# Poissons Ratio (z) = 0.18645 0.34009
#
# Static dielectric constant tensor:
#      x y z
#    x 3.262830 0.000000 0.000000 
#    y 0.000000 3.618990 0.000000 
#    z 0.000000 0.000000 3.142700 
# 
# 
# High freq. dielectric constant tensor:
#      x y z
#    x 1.696320 0.000000 0.000000 
#    y 0.000000 1.717940 0.000000 
#    z 0.000000 0.000000 1.668560 
# 
# From -- ./inp_files/50369.got.cif
#   From: 2010.03.12/outbox.cif.g09.slc.cpg/sg65_26_cif.got.tgz:50369.got - 2010.04.10 20:52:16.
