data_PCOD8266192
_publ_section_title
;
Structure prediction by ZEFSAII (Michael W. Deem and Ramdas Pophale) SiO2 
 PCOD8266192
Probable space group: C M M M
;
_chemical_formula_sum "Si O2"
_cell_formula_units_Z 120
_cell_length_a 23.735459
_cell_length_b 22.935020
_cell_length_c 13.858584
_cell_angle_alpha 90.000000
_cell_angle_beta 90.000000
_cell_angle_gamma 90.000000
_cell_volume 7544.242092
_symmetry_space_group_name_H-M "C M M M"
_symmetry_group_IT_number 65
_symmetry_cell_setting 'orthorhombic'
loop_
_space_group_symop_operation_xyz
x,y,z
-x,-y,z
x,-y,-z
-x,y,-z
-x,-y,-z
x,y,-z
-x,y,z
x,-y,z
1/2+x,1/2+y,z
1/2-x,1/2-y,z
1/2+x,1/2-y,-z
1/2-x,1/2+y,-z
1/2-x,1/2-y,-z
1/2+x,1/2+y,-z
1/2-x,1/2+y,z
1/2+x,1/2-y,z
loop_
_atom_site_type_symbol
_atom_site_label
_atom_site_fract_x
_atom_site_fract_y
_atom_site_fract_z
Si Si1 0.935577 0.838533 0.388628
Si Si2 0.936390 0.500000 0.384809
Si Si3 0.936429 0.654783 0.891306
Si Si4 0.270008 0.932607 0.706734
Si Si5 0.435629 0.779870 0.706009
Si Si6 0.155459 0.933255 0.388964
Si Si7 0.338032 0.933262 0.108775
Si Si8 0.625906 0.886234 0.387373
O O1 0.927965 0.820191 0.500000
O O2 0.915364 0.784759 0.322088
O O3 0.898047 0.894149 0.361853
O O4 0.000000 0.855678 0.366445
O O5 0.932931 0.500000 0.500000
O O6 0.906569 0.557837 0.342488
O O7 0.000000 0.500000 0.347493
O O8 0.929226 0.710488 0.821115
O O9 0.892195 0.604864 0.861146
O O10 0.000000 0.629216 0.881461
O O11 0.925068 0.676730 0.000000
O O12 0.205830 0.915253 0.683497
O O13 0.285686 0.920974 0.819113
O O14 0.308709 0.892245 0.639484
O O15 0.279723 0.000000 0.678173
O O16 0.500000 0.788512 0.671524
O O17 0.397492 0.826335 0.652475
O O18 0.174560 0.923512 0.500000
O O19 0.137363 0.000000 0.372238
O O20 0.357767 0.000000 0.116316
O O21 0.317746 0.918347 0.000000
O O22 0.617542 0.884831 0.500000
#
# Coordination Sequence:
#
# PCOD8266192 Si02
#       8
#    16   8  16  16  16  16  16  16
#     4   9  18  33  52  74  99 124 150 184 230 285
#     4   9  18  28  36  52  81 117 162 208 233 252
#     4   9  17  29  45  65  89 120 162 208 248 283
#     4  10  18  30  46  66  92 125 160 194 236 280
#     4  10  19  31  46  65  91 126 161 194 237 282
#     4   9  18  32  52  76  99 122 150 186 229 282
#     4   9  17  29  45  65  89 120 161 207 250 285
#     4  11  19  27  40  60  87 124 165 197 229 268
#
# _framework density 15.906169999999999
#
# number of rings (size 3 to 8) (size 9 to 14) (size 15 to 20)
#    0.000    2.467    2.000    1.200    0.000    2.400 
#    0.000    3.333    0.000    3.200    0.000    1.867 
#    0.000    0.000    0.000   10.400    0.000    0.267 
#
# Total GULP energy -743880.989601 kJ/mol
# GULP energy per Si atom -12398.016493 kJ/mol
# Density = 1.586997 g / cm^3
# Si number density = 15.906170 Si / 1000 Ang^3
#
#
#
# Elastic Constant Matrix: (Units=GPa)
#
#
# Indices 1 2 3 4 5 6 
#
# 1 96.8500 65.8562 45.2803 0.0000 0.0000 0.0000
# 2 65.8562 95.5547 45.4558 0.0000 0.0000 0.0000
# 3 45.2803 45.4558 74.9991 0.0000 0.0000 0.0000
# 4 0.0000 0.0000 0.0000 18.5563 0.0000 0.0000
# 5 0.0000 0.0000 0.0000 0.0000 20.5632 0.0000
# 6 0.0000 0.0000 0.0000 0.0000 0.0000 21.8248
#
#
#
# Elastic Compliance Matrix: (Units=1/GPa)
#
#
# Indices 1 2 3 4 5 6 
#
# 1 0.020914 -0.011813 -0.005467 0.000000 0.000000 0.000000
# 2 -0.011813 0.021378 -0.005824 0.000000 0.000000 0.000000
# 3 -0.005467 -0.005824 0.020164 0.000000 0.000000 0.000000
# 4 0.000000 0.000000 0.000000 0.053890 0.000000 0.000000
# 5 0.000000 0.000000 0.000000 0.000000 0.048631 0.000000
# 6 0.000000 0.000000 0.000000 0.000000 0.000000 0.045819
#
#
# Mechanical properties :
#
#
# Convention : Reuss Voigt Hill
#
# Bulk Modulus (GPa) = 61.55123 64.50982 63.03052
# Shear Modulus (GPa) = 19.05339 19.57630 19.31484
#
# Velocity S-wave (km/s) = 3.46477 3.51199 3.48846
# Velocity P-wave (km/s) = 7.40180 7.55579 7.47919
#
# Compressibility (1/GPa) = 0.01624663
#
# Stress axis : x y z
#
# Youngs Moduli (GPa) = 47.81485 46.77791 49.59288
#
# Poissons Ratio (x) = 0.55260 0.27112
# Poissons Ratio (y) = 0.56485 0.28885
# Poissons Ratio (z) = 0.26140 0.27245
#
# Static dielectric constant tensor:
#      x y z
#    x 2.914430 0.000000 0.000000 
#    y 0.000000 2.862930 0.000000 
#    z 0.000000 0.000000 3.116360 
# 
# 
# High freq. dielectric constant tensor:
#      x y z
#    x 1.596230 0.000000 0.000000 
#    y 0.000000 1.588600 0.000000 
#    z 0.000000 0.000000 1.608870 
# 
# From -- ./inp_files/44710.got.cif
#   From: 2010.03.12/outbox.cif.g09.slc.cpg/sg65_23_cif.got.tgz:44710.got - 2010.04.10 20:52:16.
