data_PCOD8266886
_publ_section_title
;
Structure prediction by ZEFSAII (Michael W. Deem and Ramdas Pophale) SiO2 
 PCOD8266886
Probable space group: C M M M
;
_chemical_formula_sum "Si O2"
_cell_formula_units_Z 96
_cell_length_a 23.292994
_cell_length_b 18.427857
_cell_length_c 12.725124
_cell_angle_alpha 90.000000
_cell_angle_beta 90.000000
_cell_angle_gamma 90.000000
_cell_volume 5462.131749
_symmetry_space_group_name_H-M "C M M M"
_symmetry_group_IT_number 65
_symmetry_cell_setting 'orthorhombic'
loop_
_space_group_symop_operation_xyz
x,y,z
-x,-y,z
x,-y,-z
-x,y,-z
-x,-y,-z
x,y,-z
-x,y,z
x,-y,z
1/2+x,1/2+y,z
1/2-x,1/2-y,z
1/2+x,1/2-y,-z
1/2-x,1/2+y,-z
1/2-x,1/2-y,-z
1/2+x,1/2+y,-z
1/2-x,1/2+y,z
1/2+x,1/2-y,z
loop_
_atom_site_type_symbol
_atom_site_label
_atom_site_fract_x
_atom_site_fract_y
_atom_site_fract_z
Si Si1 0.335094 0.913848 0.307564
Si Si2 0.066936 0.844262 0.305815
Si Si3 0.239066 0.586175 0.884660
Si Si4 0.868352 0.915717 0.878045
Si Si5 0.370174 0.414203 0.500000
Si Si6 0.934050 0.315704 0.377703
Si Si7 0.241590 0.585973 0.500000
O O1 0.307649 0.885815 0.198463
O O2 0.397006 0.878190 0.322839
O O3 0.292037 0.886520 0.397715
O O4 0.343654 0.000000 0.310034
O O5 0.088930 0.867934 0.191567
O O6 0.098187 0.889164 0.395734
O O7 0.079428 0.759447 0.320010
O O8 0.000000 0.861469 0.315208
O O9 0.239347 0.500000 0.887459
O O10 0.303394 0.610777 0.853945
O O11 0.222429 0.616760 0.000000
O O12 0.875881 0.000000 0.848133
O O13 0.883569 0.903050 0.000000
O O14 0.368054 0.500000 0.500000
O O15 0.305661 0.381530 0.500000
O O16 0.918245 0.307578 0.500000
O O17 0.000000 0.338623 0.363583
O O18 0.244568 0.500000 0.500000
#
# Coordination Sequence:
#
# PCOD8266886 Si02
#       7
#    16  16  16  16   8  16   8
#     4  10  18  32  56  82 104 129 170 215 257 312
#     4  11  22  36  51  70 102 142 176 212 260 307
#     4   8  15  30  53  79 107 137 165 203 260 313
#     4   9  18  34  56  80 105 136 176 218 255 295
#     4  11  21  33  51  74 102 135 171 208 250 306
#     4  10  21  38  54  71 104 142 173 212 263 312
#     4   9  18  30  47  76 106 127 154 209 270 305
#
# _framework density 17.575555000000001
#
# number of rings (size 3 to 8) (size 9 to 14) (size 15 to 20)
#    0.000    2.333    1.667    2.750    0.000    5.000 
#    0.000    6.667    0.000    3.500    0.000    2.333 
#    0.000    0.000    0.000    0.000    0.000    0.000 
#
# Total GULP energy -595196.338506 kJ/mol
# GULP energy per Si atom -12399.923719 kJ/mol
# Density = 1.753555 g / cm^3
# Si number density = 17.575555 Si / 1000 Ang^3
#
#
#
# Elastic Constant Matrix: (Units=GPa)
#
#
# Indices 1 2 3 4 5 6 
#
# 1 120.7352 53.0439 65.5710 0.0000 0.0000 0.0000
# 2 53.0439 54.6594 41.7783 0.0000 0.0000 0.0000
# 3 65.5710 41.7783 114.5425 0.0000 0.0000 0.0000
# 4 0.0000 0.0000 0.0000 20.5048 0.0000 0.0000
# 5 0.0000 0.0000 0.0000 0.0000 23.6416 0.0000
# 6 0.0000 0.0000 0.0000 0.0000 0.0000 10.1125
#
#
#
# Elastic Compliance Matrix: (Units=1/GPa)
#
#
# Indices 1 2 3 4 5 6 
#
# 1 0.016214 -0.011980 -0.004912 0.000000 0.000000 0.000000
# 2 -0.011980 0.034219 -0.005623 0.000000 0.000000 0.000000
# 3 -0.004912 -0.005623 0.013593 0.000000 0.000000 0.000000
# 4 0.000000 0.000000 0.000000 0.048769 0.000000 0.000000
# 5 0.000000 0.000000 0.000000 0.000000 0.042298 0.000000
# 6 0.000000 0.000000 0.000000 0.000000 0.000000 0.098888
#
#
# Mechanical properties :
#
#
# Convention : Reuss Voigt Hill
#
# Bulk Modulus (GPa) = 52.64328 67.85815 60.25072
# Shear Modulus (GPa) = 16.37507 19.48805 17.93156
#
# Velocity S-wave (km/s) = 3.05568 3.33350 3.19761
# Velocity P-wave (km/s) = 6.51668 7.31502 6.92736
#
# Compressibility (1/GPa) = 0.01899578
#
# Stress axis : x y z
#
# Youngs Moduli (GPa) = 61.67683 29.22372 73.56573
#
# Poissons Ratio (x) = 0.35010 0.36136
# Poissons Ratio (y) = 0.73888 0.41366
# Poissons Ratio (z) = 0.30296 0.16433
#
# Static dielectric constant tensor:
#      x y z
#    x 3.348430 0.000000 0.000000 
#    y 0.000000 2.957240 0.000000 
#    z 0.000000 0.000000 3.543350 
# 
# 
# High freq. dielectric constant tensor:
#      x y z
#    x 1.682550 0.000000 0.000000 
#    y 0.000000 1.649530 0.000000 
#    z 0.000000 0.000000 1.686810 
# 
# From -- ./inp_files/29053.got.cif
#   From: 2010.03.12/outbox.cif.g09.slc.cpg/sg65_15_cif.got.tgz:29053.got - 2010.04.10 20:52:16.
