data_PCOD8266047
_publ_section_title
;
Structure prediction by ZEFSAII (Michael W. Deem and Ramdas Pophale) SiO2 
 PCOD8266047
Probable space group: C M M M
;
_chemical_formula_sum "Si O2"
_cell_formula_units_Z 64
_cell_length_a 8.542498
_cell_length_b 19.370077
_cell_length_c 20.819578
_cell_angle_alpha 90.000000
_cell_angle_beta 90.000000
_cell_angle_gamma 90.000000
_cell_volume 3444.991505
_symmetry_space_group_name_H-M "C M M M"
_symmetry_group_IT_number 65
_symmetry_cell_setting 'orthorhombic'
loop_
_space_group_symop_operation_xyz
x,y,z
-x,-y,z
x,-y,-z
-x,y,-z
-x,-y,-z
x,y,-z
-x,y,z
x,-y,z
1/2+x,1/2+y,z
1/2-x,1/2-y,z
1/2+x,1/2-y,-z
1/2-x,1/2+y,-z
1/2-x,1/2-y,-z
1/2+x,1/2+y,-z
1/2-x,1/2+y,z
1/2+x,1/2-y,z
loop_
_atom_site_type_symbol
_atom_site_label
_atom_site_fract_x
_atom_site_fract_y
_atom_site_fract_z
Si Si1 0.313717 0.826836 0.500000
Si Si2 0.185959 0.673427 0.868960
Si Si3 0.814018 0.577020 0.756248
Si Si4 0.313933 0.922548 0.386419
Si Si5 0.185537 0.827040 0.000000
O O1 0.500000 0.824691 0.500000
O O2 0.250000 0.750000 0.500000
O O3 0.248239 0.867461 0.437574
O O4 0.250000 0.750000 0.860220
O O5 0.252986 0.629081 0.809517
O O6 0.249257 0.637895 0.934836
O O7 0.000000 0.674972 0.871018
O O8 0.752486 0.500000 0.771508
O O9 0.756924 0.599505 0.684991
O O10 0.000000 0.577683 0.758436
O O11 0.500000 0.923304 0.389236
O O12 0.253049 0.000000 0.402664
O O13 0.250000 0.750000 0.000000
O O14 0.000000 0.828085 0.000000
#
# Coordination Sequence:
#
# PCOD8266047 Si02
#       5
#     8  16  16  16   8
#     4  10  19  29  45  71  99 124 150 188 234 272
#     4  10  18  29  47  69  92 118 150 188 229 273
#     4   8  15  28  46  68  92 118 152 194 231 263
#     4   8  14  27  47  68  89 118 159 197 224 259
#     4  10  18  30  47  66  91 121 153 187 223 268
#
# _framework density 18.577694000000001
#
# number of rings (size 3 to 8) (size 9 to 14) (size 15 to 20)
#    0.000    3.000    0.000    5.250    0.000    2.500 
#    0.000    0.625    0.000    9.750    0.000    7.000 
#    0.000    0.000    0.000    0.000    0.000    0.000 
#
# Total GULP energy -396554.224306 kJ/mol
# GULP energy per Si atom -12392.319510 kJ/mol
# Density = 1.853541 g / cm^3
# Si number density = 18.577694 Si / 1000 Ang^3
#
#
#
# Elastic Constant Matrix: (Units=GPa)
#
#
# Indices 1 2 3 4 5 6 
#
# 1 46.7739 17.7619 28.8466 0.0000 0.0000 0.0000
# 2 17.7619 114.8455 108.2398 0.0000 0.0000 0.0000
# 3 28.8466 108.2398 209.6133 0.0000 0.0000 0.0000
# 4 0.0000 0.0000 0.0000 38.1535 0.0000 0.0000
# 5 0.0000 0.0000 0.0000 0.0000 14.4254 0.0000
# 6 0.0000 0.0000 0.0000 0.0000 0.0000 19.3443
#
#
#
# Elastic Compliance Matrix: (Units=1/GPa)
#
#
# Indices 1 2 3 4 5 6 
#
# 1 0.023439 -0.001140 -0.002637 0.000000 0.000000 0.000000
# 2 -0.001140 0.017018 -0.008631 0.000000 0.000000 0.000000
# 3 -0.002637 -0.008631 0.009590 0.000000 0.000000 0.000000
# 4 0.000000 0.000000 0.000000 0.026210 0.000000 0.000000
# 5 0.000000 0.000000 0.000000 0.000000 0.069322 0.000000
# 6 0.000000 0.000000 0.000000 0.000000 0.000000 0.051695
#
#
# Mechanical properties :
#
#
# Convention : Reuss Voigt Hill
#
# Bulk Modulus (GPa) = 39.63244 75.65882 57.64563
# Shear Modulus (GPa) = 21.69199 28.81028 25.25114
#
# Velocity S-wave (km/s) = 3.42078 3.94229 3.69076
# Velocity P-wave (km/s) = 6.08128 7.84450 7.01848
#
# Compressibility (1/GPa) = 0.02523186
#
# Stress axis : x y z
#
# Youngs Moduli (GPa) = 42.66472 58.76091 104.27035
#
# Poissons Ratio (x) = 0.06696 0.27498
# Poissons Ratio (y) = 0.04862 0.89995
# Poissons Ratio (z) = 0.11251 0.50716
#
# Static dielectric constant tensor:
#      x y z
#    x 2.950260 0.000000 0.000000 
#    y 0.000000 3.448570 0.000000 
#    z 0.000000 0.000000 4.261910 
# 
# 
# High freq. dielectric constant tensor:
#      x y z
#    x 1.677290 0.000000 0.000000 
#    y 0.000000 1.699230 0.000000 
#    z 0.000000 0.000000 1.744390 
# 
# From -- ./inp_files/58827.got.cif
#   From: 2010.03.12/outbox.cif.g09.slc.cpg/sg65_30_cif.got.tgz:58827.got - 2010.04.10 20:52:16.
