data_PCOD8266645
_publ_section_title
;
Structure prediction by ZEFSAII (Michael W. Deem and Ramdas Pophale) SiO2 
 PCOD8266645
Probable space group: C M M M
;
_chemical_formula_sum "Si O2"
_cell_formula_units_Z 88
_cell_length_a 17.742606
_cell_length_b 9.994013
_cell_length_c 26.870998
_cell_angle_alpha 90.000000
_cell_angle_beta 90.000000
_cell_angle_gamma 90.000000
_cell_volume 4764.760932
_symmetry_space_group_name_H-M "C M M M"
_symmetry_group_IT_number 65
_symmetry_cell_setting 'orthorhombic'
loop_
_space_group_symop_operation_xyz
x,y,z
-x,-y,z
x,-y,-z
-x,y,-z
-x,-y,-z
x,y,-z
-x,y,z
x,-y,z
1/2+x,1/2+y,z
1/2-x,1/2-y,z
1/2+x,1/2-y,-z
1/2-x,1/2+y,-z
1/2-x,1/2-y,-z
1/2+x,1/2+y,-z
1/2-x,1/2+y,z
1/2+x,1/2-y,z
loop_
_atom_site_type_symbol
_atom_site_label
_atom_site_fract_x
_atom_site_fract_y
_atom_site_fract_z
Si Si1 0.912523 0.654502 0.214964
Si Si2 0.838207 0.500000 0.944633
Si Si3 0.839402 0.250784 0.881717
Si Si4 0.911800 0.652250 0.412644
Si Si5 0.679035 0.845837 0.312943
Si Si6 0.659206 0.500000 0.055890
Si Si7 0.089508 0.846252 0.500000
O O1 0.898203 0.500000 0.200970
O O2 0.878317 0.747476 0.171962
O O3 0.872491 0.692136 0.266248
O O4 0.000000 0.686415 0.221465
O O5 0.867717 0.373474 0.914671
O O6 0.748659 0.500000 0.948449
O O7 0.873067 0.500000 0.000000
O O8 0.750000 0.250000 0.873418
O O9 0.869144 0.125552 0.912771
O O10 0.896004 0.500000 0.431620
O O11 0.869313 0.681898 0.361824
O O12 0.882130 0.762188 0.452196
O O13 0.000000 0.671079 0.402653
O O14 0.750000 0.750000 0.313185
O O15 0.705742 0.000000 0.310347
O O16 0.624748 0.500000 0.000000
O O17 0.000000 0.850506 0.500000
O O18 0.121232 0.000000 0.500000
#
# Coordination Sequence:
#
# PCOD8266645 Si02
#       7
#    16   8  16  16  16   8   8
#     4  10  20  36  57  78 102 135 177 220 262 312
#     4   9  16  28  49  77 105 135 175 214 251 302
#     4  10  18  31  52  78 106 136 172 215 260 307
#     4   9  17  32  55  81 109 145 188 225 260 309
#     4  10  21  37  57  81 108 139 176 221 271 319
#     4   9  18  30  49  77 107 137 169 212 261 308
#     4   9  17  29  50  81 116 149 181 223 270 313
#
# _framework density 18.468921999999999
#
# number of rings (size 3 to 8) (size 9 to 14) (size 15 to 20)
#    0.000    2.455    0.909    1.909    0.000    6.182 
#    1.636    0.909    0.000    4.364    0.000    0.000 
#    0.000    0.000    0.000    0.000    0.000    0.000 
#
# Total GULP energy -545544.854278 kJ/mol
# GULP energy per Si atom -12398.746688 kJ/mol
# Density = 1.842689 g / cm^3
# Si number density = 18.468922 Si / 1000 Ang^3
#
#
#
# Elastic Constant Matrix: (Units=GPa)
#
#
# Indices 1 2 3 4 5 6 
#
# 1 64.2591 46.5256 55.8302 0.0000 0.0000 0.0000
# 2 46.5256 144.3623 95.0229 0.0000 0.0000 0.0000
# 3 55.8302 95.0229 183.4530 0.0000 0.0000 0.0000
# 4 0.0000 0.0000 0.0000 30.7649 0.0000 0.0000
# 5 0.0000 0.0000 0.0000 0.0000 44.3022 0.0000
# 6 0.0000 0.0000 0.0000 0.0000 0.0000 12.5776
#
#
#
# Elastic Compliance Matrix: (Units=1/GPa)
#
#
# Indices 1 2 3 4 5 6 
#
# 1 0.022722 -0.004205 -0.004737 0.000000 0.000000 0.000000
# 2 -0.004205 0.011289 -0.004567 0.000000 0.000000 0.000000
# 3 -0.004737 -0.004567 0.009258 0.000000 0.000000 0.000000
# 4 0.000000 0.000000 0.000000 0.032505 0.000000 0.000000
# 5 0.000000 0.000000 0.000000 0.000000 0.022572 0.000000
# 6 0.000000 0.000000 0.000000 0.000000 0.000000 0.079507
#
#
# Mechanical properties :
#
#
# Convention : Reuss Voigt Hill
#
# Bulk Modulus (GPa) = 61.53711 87.42575 74.48143
# Shear Modulus (GPa) = 23.77688 30.50864 27.14276
#
# Velocity S-wave (km/s) = 3.59193 4.06875 3.83775
# Velocity P-wave (km/s) = 7.11296 8.33741 7.74941
#
# Compressibility (1/GPa) = 0.01625036
#
# Stress axis : x y z
#
# Youngs Moduli (GPa) = 44.00987 88.58471 108.01013
#
# Poissons Ratio (x) = 0.37250 0.51164
# Poissons Ratio (y) = 0.18506 0.49333
# Poissons Ratio (z) = 0.20847 0.40461
#
# Static dielectric constant tensor:
#      x y z
#    x 3.023160 0.000000 0.000000 
#    y 0.000000 3.485630 0.000000 
#    z 0.000000 0.000000 3.538680 
# 
# 
# High freq. dielectric constant tensor:
#      x y z
#    x 1.682160 0.000000 0.000000 
#    y 0.000000 1.715140 0.000000 
#    z 0.000000 0.000000 1.733940 
# 
# From -- ./inp_files/78036.got.cif
#   From: 2010.03.12/outbox.cif.g09.slc.cpg/sg65_40_cif.got.tgz:78036.got - 2010.04.10 20:52:16.
