data_PCOD8266756
_publ_section_title
;
Structure prediction by ZEFSAII (Michael W. Deem and Ramdas Pophale) SiO2 
 PCOD8266756
Probable space group: C M M M
;
_chemical_formula_sum "Si O2"
_cell_formula_units_Z 88
_cell_length_a 25.521675
_cell_length_b 8.723046
_cell_length_c 21.783079
_cell_angle_alpha 90.000000
_cell_angle_beta 90.000000
_cell_angle_gamma 90.000000
_cell_volume 4849.495974
_symmetry_space_group_name_H-M "C M M M"
_symmetry_group_IT_number 65
_symmetry_cell_setting 'orthorhombic'
loop_
_space_group_symop_operation_xyz
x,y,z
-x,-y,z
x,-y,-z
-x,y,-z
-x,-y,-z
x,y,-z
-x,y,z
x,-y,z
1/2+x,1/2+y,z
1/2-x,1/2-y,z
1/2+x,1/2-y,-z
1/2-x,1/2+y,-z
1/2-x,1/2-y,-z
1/2+x,1/2+y,-z
1/2-x,1/2+y,z
1/2+x,1/2-y,z
loop_
_atom_site_type_symbol
_atom_site_label
_atom_site_fract_x
_atom_site_fract_y
_atom_site_fract_z
Si Si1 0.692469 0.318415 0.124194
Si Si2 0.307911 0.817222 0.000000
Si Si3 0.500000 0.327042 0.206506
Si Si4 0.000000 0.172458 0.352405
Si Si5 0.107408 0.676769 0.207806
Si Si6 0.393883 0.824289 0.647156
Si Si7 0.304078 0.679992 0.569111
O O1 0.697457 0.500000 0.117975
O O2 0.750000 0.250000 0.136731
O O3 0.665967 0.247733 0.062255
O O4 0.654735 0.274754 0.179988
O O5 0.250000 0.750000 0.000000
O O6 0.308564 0.000000 0.000000
O O7 0.500000 0.500000 0.180345
O O8 0.500000 0.328567 0.279418
O O9 0.551784 0.239523 0.182783
O O10 0.050733 0.261128 0.377043
O O11 0.000000 0.000000 0.378585
O O12 0.112625 0.500000 0.188356
O O13 0.111409 0.697941 0.280385
O O14 0.349225 0.728114 0.614928
O O15 0.389003 0.000000 0.627690
O O16 0.316183 0.738863 0.500000
O O17 0.298291 0.500000 0.570452
O O18 0.250000 0.750000 0.593602
#
# Coordination Sequence:
#
# PCOD8266756 Si02
#       7
#    16   8   8   8  16  16  16
#     4  11  21  34  52  76 105 137 173 213 256 304
#     4  10  18  32  52  73 100 135 172 210 253 304
#     4   9  17  31  51  75 101 135 173 208 250 301
#     4   9  17  31  52  76 104 134 167 207 252 303
#     4  10  20  34  52  77 106 137 171 210 255 302
#     4  10  20  34  54  78 105 135 169 210 256 304
#     4  10  21  37  56  76 100 133 172 211 253 305
#
# _framework density 18.146215999999999
#
# number of rings (size 3 to 8) (size 9 to 14) (size 15 to 20)
#    0.000    2.000    0.000    5.727    0.000    6.182 
#    0.000    0.455    0.000    3.273    0.000    3.818 
#    0.000    0.000    0.000    0.000    0.000    0.000 
#
# Total GULP energy -545639.913168 kJ/mol
# GULP energy per Si atom -12400.907117 kJ/mol
# Density = 1.810491 g / cm^3
# Si number density = 18.146216 Si / 1000 Ang^3
#
#
#
# Elastic Constant Matrix: (Units=GPa)
#
#
# Indices 1 2 3 4 5 6 
#
# 1 126.7897 48.9560 39.3462 0.0000 0.0000 0.0000
# 2 48.9560 131.3632 32.0697 0.0000 0.0000 0.0000
# 3 39.3462 32.0697 39.0062 0.0000 0.0000 0.0000
# 4 0.0000 0.0000 0.0000 27.6903 0.0000 0.0000
# 5 0.0000 0.0000 0.0000 0.0000 -3.0890 0.0000
# 6 0.0000 0.0000 0.0000 0.0000 0.0000 37.6384
#
#
#
# Elastic Compliance Matrix: (Units=1/GPa)
#
#
# Indices 1 2 3 4 5 6 
#
# 1 0.011838 -0.001872 -0.010402 0.000000 0.000000 0.000000
# 2 -0.001872 0.009820 -0.006185 0.000000 0.000000 0.000000
# 3 -0.010402 -0.006185 0.041215 0.000000 0.000000 0.000000
# 4 0.000000 0.000000 0.000000 0.036114 0.000000 0.000000
# 5 0.000000 0.000000 0.000000 0.000000 -0.323732 0.000000
# 6 0.000000 0.000000 0.000000 0.000000 0.000000 0.026569
#
#
# Mechanical properties :
#
#
# Convention : Reuss Voigt Hill
#
# Bulk Modulus (GPa) = 38.52942 59.76699 49.14821
# Shear Modulus (GPa) = -32.76402 24.23378 -4.26512
#
# Velocity S-wave (km/s) = -4.25379 3.65838 -1.53477
# Velocity P-wave (km/s) = 1.68745 7.13111 4.89925
#
# Compressibility (1/GPa) = 0.02595419
#
# Stress axis : x y z
#
# Youngs Moduli (GPa) = 84.47402 101.83021 24.26324
#
# Poissons Ratio (x) = 0.19066 0.25238
# Poissons Ratio (y) = 0.15817 0.15007
# Poissons Ratio (z) = 0.87868 0.62984
#
# Static dielectric constant tensor:
#      x y z
#    x 3.325130 0.000000 0.000000 
#    y 0.000000 3.544470 0.000000 
#    z 0.000000 0.000000 3.386850 
# 
# 
# High freq. dielectric constant tensor:
#      x y z
#    x 1.700130 0.000000 0.000000 
#    y 0.000000 1.725440 0.000000 
#    z 0.000000 0.000000 1.679170 
# 
# From -- ./inp_files/65264.got.cif
#   From: 2010.03.12/outbox.cif.g09.slc.cpg/sg65_33_cif.got.tgz:65264.got - 2010.04.10 20:52:16.
