data_PCOD8266887
_publ_section_title
;
Structure prediction by ZEFSAII (Michael W. Deem and Ramdas Pophale) SiO2 
 PCOD8266887
Probable space group: C M M M
;
_chemical_formula_sum "Si O2"
_cell_formula_units_Z 72
_cell_length_a 23.797513
_cell_length_b 17.640052
_cell_length_c 8.993088
_cell_angle_alpha 90.000000
_cell_angle_beta 90.000000
_cell_angle_gamma 90.000000
_cell_volume 3775.202717
_symmetry_space_group_name_H-M "C M M M"
_symmetry_group_IT_number 65
_symmetry_cell_setting 'orthorhombic'
loop_
_space_group_symop_operation_xyz
x,y,z
-x,-y,z
x,-y,-z
-x,y,-z
-x,-y,-z
x,y,-z
-x,y,z
x,-y,z
1/2+x,1/2+y,z
1/2-x,1/2-y,z
1/2+x,1/2-y,-z
1/2-x,1/2+y,-z
1/2-x,1/2-y,-z
1/2+x,1/2+y,-z
1/2-x,1/2+y,z
1/2+x,1/2-y,z
loop_
_atom_site_type_symbol
_atom_site_label
_atom_site_fract_x
_atom_site_fract_y
_atom_site_fract_z
Si Si1 0.500000 0.616694 0.826463
Si Si2 0.936149 0.500000 0.825408
Si Si3 0.117008 0.915359 0.673042
Si Si4 0.000000 0.261148 0.341395
Si Si5 0.811359 0.770855 0.676932
Si Si6 0.608626 0.859523 0.333787
O O1 0.443042 0.584108 0.755258
O O2 0.500000 0.706548 0.799749
O O3 0.500000 0.597453 0.000000
O O4 0.898834 0.429498 0.775006
O O5 0.000000 0.500000 0.757445
O O6 0.941152 0.500000 0.000000
O O7 0.105449 0.898900 0.500000
O O8 0.160353 0.850375 0.735145
O O9 0.143431 0.000000 0.695405
O O10 0.051776 0.315079 0.337194
O O11 0.000000 0.215462 0.500000
O O12 0.809761 0.775879 0.500000
O O13 0.750000 0.750000 0.741713
O O14 0.846252 0.698571 0.732510
O O15 0.625243 0.887557 0.500000
#
# Coordination Sequence:
#
# PCOD8266887 Si02
#       6
#     8   8  16   8  16  16
#     4  12  23  33  53  84 117 148 182 225 278 336
#     4  11  23  35  51  81 119 147 179 226 275 330
#     4  10  20  36  58  83 113 148 184 225 277 331
#     4  10  18  32  56  82 108 143 187 228 275 335
#     4   9  18  35  58  85 112 140 183 237 279 319
#     4  10  19  34  57  80 108 144 184 228 278 332
#
# _framework density 19.071823999999999
#
# number of rings (size 3 to 8) (size 9 to 14) (size 15 to 20)
#    0.000    1.889    3.333    1.667    0.000    3.111 
#    2.000    0.000    0.000    2.667    0.000    0.000 
#    0.000    0.000    0.000    0.000    0.000    0.000 
#
# Total GULP energy -446011.787945 kJ/mol
# GULP energy per Si atom -12389.216332 kJ/mol
# Density = 1.902842 g / cm^3
# Si number density = 19.071824 Si / 1000 Ang^3
#
#
#
# Elastic Constant Matrix: (Units=GPa)
#
#
# Indices 1 2 3 4 5 6 
#
# 1 143.8229 71.7321 24.2310 0.0000 0.0000 0.0000
# 2 71.7321 154.7886 37.9337 0.0000 0.0000 0.0000
# 3 24.2310 37.9337 55.8600 0.0000 0.0000 0.0000
# 4 0.0000 0.0000 0.0000 -24.7678 0.0000 0.0000
# 5 0.0000 0.0000 0.0000 0.0000 10.3421 0.0000
# 6 0.0000 0.0000 0.0000 0.0000 0.0000 21.1054
#
#
#
# Elastic Compliance Matrix: (Units=1/GPa)
#
#
# Indices 1 2 3 4 5 6 
#
# 1 0.009122 -0.003908 -0.001303 0.000000 0.000000 0.000000
# 2 -0.003908 0.009424 -0.004705 0.000000 0.000000 0.000000
# 3 -0.001303 -0.004705 0.021662 0.000000 0.000000 0.000000
# 4 0.000000 0.000000 0.000000 -0.040375 0.000000 0.000000
# 5 0.000000 0.000000 0.000000 0.000000 0.096692 0.000000
# 6 0.000000 0.000000 0.000000 0.000000 0.000000 0.047381
#
#
# Mechanical properties :
#
#
# Convention : Reuss Voigt Hill
#
# Bulk Modulus (GPa) = 49.07557 69.14057 59.10807
# Shear Modulus (GPa) = 29.32043 16.04093 22.68068
#
# Velocity S-wave (km/s) = 3.92518 2.90328 3.45225
# Velocity P-wave (km/s) = 6.80666 6.89711 6.85203
#
# Compressibility (1/GPa) = 0.02037674
#
# Stress axis : x y z
#
# Youngs Moduli (GPa) = 109.63056 106.10791 46.16355
#
# Poissons Ratio (x) = 0.41465 0.06015
# Poissons Ratio (y) = 0.42841 0.21719
# Poissons Ratio (z) = 0.14285 0.49922
#
# Static dielectric constant tensor:
#      x y z
#    x 3.541970 0.000000 0.000000 
#    y 0.000000 3.997400 0.000000 
#    z 0.000000 0.000000 3.243080 
# 
# 
# High freq. dielectric constant tensor:
#      x y z
#    x 1.733770 0.000000 0.000000 
#    y 0.000000 1.755870 0.000000 
#    z 0.000000 0.000000 1.699400 
# 
# From -- ./inp_files/13628.got.cif
#   From: 2010.03.12/outbox.cif.g09.slc.cpg/sg65_7_cif.got.tgz:13628.got - 2010.04.10 20:52:16.
