data_PCOD8266355
_publ_section_title
;
Structure prediction by ZEFSAII (Michael W. Deem and Ramdas Pophale) SiO2 
 PCOD8266355
Probable space group: C M M M
;
_chemical_formula_sum "Si O2"
_cell_formula_units_Z 80
_cell_length_a 18.277267
_cell_length_b 8.684944
_cell_length_c 26.211641
_cell_angle_alpha 90.000000
_cell_angle_beta 90.000000
_cell_angle_gamma 90.000000
_cell_volume 4160.758316
_symmetry_space_group_name_H-M "C M M M"
_symmetry_group_IT_number 65
_symmetry_cell_setting 'orthorhombic'
loop_
_space_group_symop_operation_xyz
x,y,z
-x,-y,z
x,-y,-z
-x,y,-z
-x,-y,-z
x,y,-z
-x,y,z
x,-y,z
1/2+x,1/2+y,z
1/2-x,1/2-y,z
1/2+x,1/2-y,-z
1/2-x,1/2+y,-z
1/2-x,1/2-y,-z
1/2+x,1/2+y,-z
1/2-x,1/2+y,z
1/2+x,1/2-y,z
loop_
_atom_site_type_symbol
_atom_site_label
_atom_site_fract_x
_atom_site_fract_y
_atom_site_fract_z
Si Si1 0.587134 0.823480 0.110214
Si Si2 0.420219 0.181895 0.000000
Si Si3 0.830445 0.182854 0.397021
Si Si4 0.417929 0.683016 0.298000
Si Si5 0.170427 0.819998 0.798607
Si Si6 0.168819 0.316834 0.500000
O O1 0.500000 0.801673 0.111937
O O2 0.618458 0.773340 0.053777
O O3 0.624578 0.713364 0.150777
O O4 0.608199 0.000000 0.122271
O O5 0.500000 0.260641 0.000000
O O6 0.431104 0.000000 0.000000
O O7 0.750000 0.250000 0.388238
O O8 0.880249 0.237749 0.350167
O O9 0.868342 0.252048 0.448318
O O10 0.825389 0.000000 0.401662
O O11 0.500000 0.750857 0.295757
O O12 0.420429 0.500000 0.295408
O O13 0.372225 0.749766 0.250229
O O14 0.250000 0.750000 0.802700
O O15 0.179308 0.000000 0.791925
O O16 0.168421 0.500000 0.500000
O O17 0.250000 0.250000 0.500000
#
# Coordination Sequence:
#
# PCOD8266355 Si02
#       6
#    16   8  16  16  16   8
#     4   9  17  32  55  81 107 136 172 212 256 308
#     4   7  12  26  50  77 104 135 169 207 252 303
#     4  10  18  31  53  77 102 132 168 207 246 294
#     4   9  19  35  54  76 101 131 168 210 256 306
#     4  11  22  36  54  76 105 138 174 216 262 310
#     4  10  18  30  49  74 105 135 167 205 245 292
#
# _framework density 19.227264000000002
#
# number of rings (size 3 to 8) (size 9 to 14) (size 15 to 20)
#    0.000    2.500    0.000    5.700    0.000    1.200 
#    0.000    4.500    0.000   12.000    0.000    0.000 
#    0.000    0.000    0.000    0.000    0.000    0.000 
#
# Total GULP energy -495747.555406 kJ/mol
# GULP energy per Si atom -12393.688885 kJ/mol
# Density = 1.918350 g / cm^3
# Si number density = 19.227264 Si / 1000 Ang^3
#
#
#
# Elastic Constant Matrix: (Units=GPa)
#
#
# Indices 1 2 3 4 5 6 
#
# 1 76.8802 20.4957 57.9173 0.0000 0.0000 0.0000
# 2 20.4957 63.2199 35.8770 0.0000 0.0000 0.0000
# 3 57.9173 35.8770 192.0830 0.0000 0.0000 0.0000
# 4 0.0000 0.0000 0.0000 27.1372 0.0000 0.0000
# 5 0.0000 0.0000 0.0000 0.0000 22.0290 0.0000
# 6 0.0000 0.0000 0.0000 0.0000 0.0000 13.2354
#
#
#
# Elastic Compliance Matrix: (Units=1/GPa)
#
#
# Indices 1 2 3 4 5 6 
#
# 1 0.017313 -0.002965 -0.004667 0.000000 0.000000 0.000000
# 2 -0.002965 0.018201 -0.002506 0.000000 0.000000 0.000000
# 3 -0.004667 -0.002506 0.007081 0.000000 0.000000 0.000000
# 4 0.000000 0.000000 0.000000 0.036850 0.000000 0.000000
# 5 0.000000 0.000000 0.000000 0.000000 0.045395 0.000000
# 6 0.000000 0.000000 0.000000 0.000000 0.000000 0.075555
#
#
# Mechanical properties :
#
#
# Convention : Reuss Voigt Hill
#
# Bulk Modulus (GPa) = 44.79981 62.30701 53.55341
# Shear Modulus (GPa) = 21.91934 27.00650 24.46292
#
# Velocity S-wave (km/s) = 3.38007 3.75186 3.57081
# Velocity P-wave (km/s) = 6.21159 7.15852 6.70181
#
# Compressibility (1/GPa) = 0.02232152
#
# Stress axis : x y z
#
# Youngs Moduli (GPa) = 57.75965 54.94244 141.21983
#
# Poissons Ratio (x) = 0.16288 0.65901
# Poissons Ratio (y) = 0.17123 0.35385
# Poissons Ratio (z) = 0.26954 0.13767
#
# Static dielectric constant tensor:
#      x y z
#    x 3.303490 0.000000 0.000000 
#    y 0.000000 3.252840 0.000000 
#    z 0.000000 0.000000 4.238960 
# 
# 
# High freq. dielectric constant tensor:
#      x y z
#    x 1.718240 0.000000 0.000000 
#    y 0.000000 1.723440 0.000000 
#    z 0.000000 0.000000 1.777400 
# 
# From -- ./inp_files/70826.got.cif
#   From: 2010.03.12/outbox.cif.g09.slc.cpg/sg65_36_cif.got.tgz:70826.got - 2010.04.10 20:52:16.
