data_PCOD8266592
_publ_section_title
;
Structure prediction by ZEFSAII (Michael W. Deem and Ramdas Pophale) SiO2 
 PCOD8266592
Probable space group: C M M M
;
_chemical_formula_sum "Si O2"
_cell_formula_units_Z 96
_cell_length_a 14.427983
_cell_length_b 31.340766
_cell_length_c 11.299387
_cell_angle_alpha 90.000000
_cell_angle_beta 90.000000
_cell_angle_gamma 90.000000
_cell_volume 5109.402453
_symmetry_space_group_name_H-M "C M M M"
_symmetry_group_IT_number 65
_symmetry_cell_setting 'orthorhombic'
loop_
_space_group_symop_operation_xyz
x,y,z
-x,-y,z
x,-y,-z
-x,y,-z
-x,-y,-z
x,y,-z
-x,y,z
x,-y,z
1/2+x,1/2+y,z
1/2-x,1/2-y,z
1/2+x,1/2-y,-z
1/2-x,1/2+y,-z
1/2-x,1/2-y,-z
1/2+x,1/2+y,-z
1/2-x,1/2+y,z
1/2+x,1/2-y,z
loop_
_atom_site_type_symbol
_atom_site_label
_atom_site_fract_x
_atom_site_fract_y
_atom_site_fract_z
Si Si1 0.761014 0.203122 0.137613
Si Si2 0.101115 0.343219 0.749571
Si Si3 0.390094 0.871148 0.500000
Si Si4 0.894020 0.871244 0.859377
Si Si5 0.398445 0.065347 0.137512
Si Si6 0.208113 0.953343 0.755075
Si Si7 0.730039 0.951901 0.500000
O O1 0.750000 0.250000 0.197561
O O2 0.661647 0.183152 0.159857
O O3 0.840124 0.171024 0.190169
O O4 0.781464 0.208676 0.000000
O O5 0.144552 0.345870 0.616892
O O6 0.092808 0.389515 0.802250
O O7 0.000000 0.321395 0.743879
O O8 0.500000 0.874841 0.500000
O O9 0.354967 0.919466 0.500000
O O10 0.846334 0.915027 0.817415
O O11 0.000000 0.869375 0.814006
O O12 0.889231 0.871458 0.000000
O O13 0.500000 0.042492 0.151888
O O14 0.314437 0.041229 0.201064
O O15 0.372963 0.069997 0.000000
O O16 0.206054 0.944111 0.614928
O O17 0.161508 0.000000 0.780690
O O18 0.689475 0.000000 0.500000
#
# Coordination Sequence:
#
# PCOD8266592 Si02
#       7
#    16  16   8  16  16  16   8
#     4  10  20  35  57  84 112 142 176 218 275 335
#     4  10  19  32  53  79 108 141 178 218 263 321
#     4  10  18  31  51  74 103 145 186 219 262 317
#     4  10  21  38  58  80 109 143 182 229 276 324
#     4  10  19  31  50  76 107 143 178 215 267 325
#     4  11  22  36  55  78 108 146 187 230 276 325
#     4  10  20  33  51  75 104 140 184 232 275 316
#
# _framework density 18.788889999999999
#
# number of rings (size 3 to 8) (size 9 to 14) (size 15 to 20)
#    0.000    1.833    3.333    1.000    0.000    3.833 
#    0.000    5.833    0.000    1.500    0.000    0.000 
#    0.000    0.000    0.000    0.000    0.000    0.000 
#
# Total GULP energy -594681.582466 kJ/mol
# GULP energy per Si atom -12389.199635 kJ/mol
# Density = 1.874613 g / cm^3
# Si number density = 18.788890 Si / 1000 Ang^3
#
#
#
# Elastic Constant Matrix: (Units=GPa)
#
#
# Indices 1 2 3 4 5 6 
#
# 1 101.3494 53.3486 18.0617 0.0000 0.0000 0.0000
# 2 53.3486 71.9720 13.2327 0.0000 0.0000 0.0000
# 3 18.0617 13.2327 54.6080 0.0000 0.0000 0.0000
# 4 0.0000 0.0000 0.0000 17.0620 0.0000 0.0000
# 5 0.0000 0.0000 0.0000 0.0000 13.0231 0.0000
# 6 0.0000 0.0000 0.0000 0.0000 0.0000 5.9739
#
#
#
# Elastic Compliance Matrix: (Units=1/GPa)
#
#
# Indices 1 2 3 4 5 6 
#
# 1 0.016529 -0.011771 -0.002615 0.000000 0.000000 0.000000
# 2 -0.011771 0.022925 -0.001662 0.000000 0.000000 0.000000
# 3 -0.002615 -0.001662 0.019580 0.000000 0.000000 0.000000
# 4 0.000000 0.000000 0.000000 0.058610 0.000000 0.000000
# 5 0.000000 0.000000 0.000000 0.000000 0.076787 0.000000
# 6 0.000000 0.000000 0.000000 0.000000 0.000000 0.167394
#
#
# Mechanical properties :
#
#
# Convention : Reuss Voigt Hill
#
# Bulk Modulus (GPa) = 37.12151 44.13503 40.62827
# Shear Modulus (GPa) = 12.41005 16.76424 14.58715
#
# Velocity S-wave (km/s) = 2.57281 2.99028 2.78937
# Velocity P-wave (km/s) = 5.35031 5.95511 5.66079
#
# Compressibility (1/GPa) = 0.02693856
#
# Stress axis : x y z
#
# Youngs Moduli (GPa) = 60.49983 43.62018 51.07302
#
# Poissons Ratio (x) = 0.51346 0.13353
# Poissons Ratio (y) = 0.71216 0.08488
# Poissons Ratio (z) = 0.15818 0.07249
#
# Static dielectric constant tensor:
#      x y z
#    x 3.620730 0.000000 0.000000 
#    y 0.000000 3.379670 0.000000 
#    z 0.000000 0.000000 3.661150 
# 
# 
# High freq. dielectric constant tensor:
#      x y z
#    x 1.713520 0.000000 0.000000 
#    y 0.000000 1.724180 0.000000 
#    z 0.000000 0.000000 1.724270 
# 
# From -- ./inp_files/25478.got.cif
#   From: 2010.03.12/outbox.cif.g09.slc.cpg/sg65_13_cif.got.tgz:25478.got - 2010.04.10 20:52:16.
