data_PCOD8266872
_publ_section_title
;
Structure prediction by ZEFSAII (Michael W. Deem and Ramdas Pophale) SiO2 
 PCOD8266872
Probable space group: C M M M
;
_chemical_formula_sum "Si O2"
_cell_formula_units_Z 72
_cell_length_a 18.390182
_cell_length_b 8.675616
_cell_length_c 23.305797
_cell_angle_alpha 90.000000
_cell_angle_beta 90.000000
_cell_angle_gamma 90.000000
_cell_volume 3718.350352
_symmetry_space_group_name_H-M "C M M M"
_symmetry_group_IT_number 65
_symmetry_cell_setting 'orthorhombic'
loop_
_space_group_symop_operation_xyz
x,y,z
-x,-y,z
x,-y,-z
-x,y,-z
-x,-y,-z
x,y,-z
-x,y,z
x,-y,z
1/2+x,1/2+y,z
1/2-x,1/2-y,z
1/2+x,1/2-y,-z
1/2-x,1/2+y,-z
1/2-x,1/2-y,-z
1/2+x,1/2+y,-z
1/2-x,1/2+y,z
1/2+x,1/2-y,z
loop_
_atom_site_type_symbol
_atom_site_label
_atom_site_fract_x
_atom_site_fract_y
_atom_site_fract_z
Si Si1 0.585008 0.178225 0.717570
Si Si2 0.918475 0.683257 0.063537
Si Si3 0.328615 0.181514 0.830296
Si Si4 0.169489 0.317129 0.500000
Si Si5 0.329431 0.319148 0.615670
O O1 0.500000 0.210432 0.722390
O O2 0.620414 0.228571 0.777472
O O3 0.617710 0.284192 0.668099
O O4 0.601706 0.000000 0.703522
O O5 0.920079 0.500000 0.067730
O O6 0.864101 0.751113 0.111510
O O7 0.000000 0.746010 0.074787
O O8 0.891916 0.735069 0.000000
O O9 0.250000 0.250000 0.819873
O O10 0.321174 0.000000 0.835434
O O11 0.168293 0.500000 0.500000
O O12 0.250000 0.250000 0.500000
O O13 0.133066 0.253937 0.558467
O O14 0.320830 0.500000 0.606864
O O15 0.250000 0.250000 0.628217
#
# Coordination Sequence:
#
# PCOD8266872 Si02
#       5
#    16  16  16   8  16
#     4  10  21  37  55  75 102 137 177 221 270 321
#     4   8  14  27  49  75 101 132 173 217 258 305
#     4  10  20  33  51  76 104 135 172 216 264 314
#     4  10  18  32  55  82 111 142 177 215 259 309
#     4  11  21  35  56  82 111 141 177 218 261 311
#
# _framework density 19.363426
#
# number of rings (size 3 to 8) (size 9 to 14) (size 15 to 20)
#    0.000    2.222    0.000    6.333    0.000    6.222 
#    0.000    0.556    0.000    5.333    0.000    1.556 
#    0.000    0.000    0.000    0.000    0.000    0.000 
#
# Total GULP energy -446351.153735 kJ/mol
# GULP energy per Si atom -12398.643159 kJ/mol
# Density = 1.931935 g / cm^3
# Si number density = 19.363426 Si / 1000 Ang^3
#
#
#
# Elastic Constant Matrix: (Units=GPa)
#
#
# Indices 1 2 3 4 5 6 
#
# 1 106.3029 35.8429 69.9188 0.0000 0.0000 0.0000
# 2 35.8429 87.0792 55.1548 0.0000 0.0000 0.0000
# 3 69.9188 55.1548 168.5365 0.0000 0.0000 0.0000
# 4 0.0000 0.0000 0.0000 -13.4015 0.0000 0.0000
# 5 0.0000 0.0000 0.0000 0.0000 43.4664 0.0000
# 6 0.0000 0.0000 0.0000 0.0000 0.0000 22.7183
#
#
#
# Elastic Compliance Matrix: (Units=1/GPa)
#
#
# Indices 1 2 3 4 5 6 
#
# 1 0.013358 -0.002508 -0.004721 0.000000 0.000000 0.000000
# 2 -0.002508 0.014958 -0.003854 0.000000 0.000000 0.000000
# 3 -0.004721 -0.003854 0.009153 0.000000 0.000000 0.000000
# 4 0.000000 0.000000 0.000000 -0.074619 0.000000 0.000000
# 5 0.000000 0.000000 0.000000 0.000000 0.023006 0.000000
# 6 0.000000 0.000000 0.000000 0.000000 0.000000 0.044017
#
#
# Mechanical properties :
#
#
# Convention : Reuss Voigt Hill
#
# Bulk Modulus (GPa) = 65.35152 75.97239 70.66195
# Shear Modulus (GPa) = 87.50282 23.95677 55.72980
#
# Velocity S-wave (km/s) = 6.72962 3.52123 5.37061
# Velocity P-wave (km/s) = 9.70603 7.47343 8.66196
#
# Compressibility (1/GPa) = 0.01530186
#
# Stress axis : x y z
#
# Youngs Moduli (GPa) = 74.86274 66.85588 109.25048
#
# Poissons Ratio (x) = 0.16769 0.51575
# Poissons Ratio (y) = 0.18777 0.42110
# Poissons Ratio (z) = 0.35341 0.25769
#
# Static dielectric constant tensor:
#      x y z
#    x 3.531770 0.000000 0.000000 
#    y 0.000000 3.272060 0.000000 
#    z 0.000000 0.000000 4.177470 
# 
# 
# High freq. dielectric constant tensor:
#      x y z
#    x 1.736380 0.000000 0.000000 
#    y 0.000000 1.728040 0.000000 
#    z 0.000000 0.000000 1.777880 
# 
# From -- ./inp_files/64297.got.cif
#   From: 2010.03.12/outbox.cif.g09.slc.cpg/sg65_33_cif.got.tgz:64297.got - 2010.04.10 20:52:16.
