data_PCOD8266857
_publ_section_title
;
Structure prediction by ZEFSAII (Michael W. Deem and Ramdas Pophale) SiO2 
 PCOD8266857
Probable space group: C M M M
;
_chemical_formula_sum "Si O2"
_cell_formula_units_Z 88
_cell_length_a 8.634023
_cell_length_b 23.663610
_cell_length_c 23.142240
_cell_angle_alpha 90.000000
_cell_angle_beta 90.000000
_cell_angle_gamma 90.000000
_cell_volume 4728.240880
_symmetry_space_group_name_H-M "C M M M"
_symmetry_group_IT_number 65
_symmetry_cell_setting 'orthorhombic'
loop_
_space_group_symop_operation_xyz
x,y,z
-x,-y,z
x,-y,-z
-x,y,-z
-x,-y,-z
x,y,-z
-x,y,z
x,-y,z
1/2+x,1/2+y,z
1/2-x,1/2-y,z
1/2+x,1/2-y,-z
1/2-x,1/2+y,-z
1/2-x,1/2-y,-z
1/2+x,1/2+y,-z
1/2-x,1/2+y,z
1/2+x,1/2-y,z
loop_
_atom_site_type_symbol
_atom_site_label
_atom_site_fract_x
_atom_site_fract_y
_atom_site_fract_z
Si Si1 0.316654 0.812407 0.382486
Si Si2 0.184915 0.500000 0.243424
Si Si3 0.680859 0.612753 0.065179
Si Si4 0.683633 0.616970 0.278537
Si Si5 0.815859 0.812689 0.500000
Si Si6 0.681779 0.311262 0.168018
Si Si7 0.318190 0.000000 0.112187
O O1 0.500000 0.807906 0.386854
O O2 0.250000 0.750000 0.371559
O O3 0.267601 0.852558 0.330920
O O4 0.249064 0.840920 0.441328
O O5 0.253843 0.446363 0.276355
O O6 0.247628 0.500000 0.177468
O O7 0.000000 0.500000 0.246848
O O8 0.500000 0.602413 0.075529
O O9 0.743476 0.661207 0.108329
O O10 0.764291 0.554211 0.077135
O O11 0.716786 0.632702 0.000000
O O12 0.500000 0.617891 0.287584
O O13 0.734536 0.648502 0.220034
O O14 0.750000 0.750000 0.500000
O O15 0.000000 0.813699 0.500000
O O16 0.500000 0.304460 0.166382
O O17 0.750000 0.250000 0.177407
O O18 0.500000 0.000000 0.115166
#
# Coordination Sequence:
#
# PCOD8266857 Si02
#       7
#    16   8  16  16   8  16   8
#     4  11  21  35  56  86 122 157 194 236 282 333
#     4  11  23  38  58  84 111 144 181 232 287 340
#     4  10  21  38  58  79 106 144 185 226 278 340
#     4  11  22  38  59  83 111 148 190 234 283 338
#     4  10  18  32  54  83 118 157 198 236 279 328
#     4  10  22  37  55  79 108 143 183 227 277 334
#     4  11  22  36  57  84 111 137 177 230 285 333
#
# _framework density 18.611573
#
# number of rings (size 3 to 8) (size 9 to 14) (size 15 to 20)
#    0.000    1.455    1.818    5.455    0.000    6.182 
#    0.000    0.000    0.000    0.545    0.000    3.818 
#    0.000    0.000    0.000    0.000    0.000    0.000 
#
# Total GULP energy -545703.892323 kJ/mol
# GULP energy per Si atom -12402.361189 kJ/mol
# Density = 1.856921 g / cm^3
# Si number density = 18.611573 Si / 1000 Ang^3
#
#
#
# Elastic Constant Matrix: (Units=GPa)
#
#
# Indices 1 2 3 4 5 6 
#
# 1 98.4961 39.9231 56.5849 0.0000 0.0000 0.0000
# 2 39.9231 123.2813 57.3227 0.0000 0.0000 0.0000
# 3 56.5849 57.3227 147.8685 0.0000 0.0000 0.0000
# 4 0.0000 0.0000 0.0000 151.6989 0.0000 0.0000
# 5 0.0000 0.0000 0.0000 0.0000 28.2598 0.0000
# 6 0.0000 0.0000 0.0000 0.0000 0.0000 24.8235
#
#
#
# Elastic Compliance Matrix: (Units=1/GPa)
#
#
# Indices 1 2 3 4 5 6 
#
# 1 0.013579 -0.002417 -0.004259 0.000000 0.000000 0.000000
# 2 -0.002417 0.010325 -0.003078 0.000000 0.000000 0.000000
# 3 -0.004259 -0.003078 0.009586 0.000000 0.000000 0.000000
# 4 0.000000 0.000000 0.000000 0.006592 0.000000 0.000000
# 5 0.000000 0.000000 0.000000 0.000000 0.035386 0.000000
# 6 0.000000 0.000000 0.000000 0.000000 0.000000 0.040284
#
#
# Mechanical properties :
#
#
# Convention : Reuss Voigt Hill
#
# Bulk Modulus (GPa) = 71.52004 75.25638 73.38821
# Shear Modulus (GPa) = 35.73415 55.34411 45.53913
#
# Velocity S-wave (km/s) = 4.38653 5.45902 4.95190
# Velocity P-wave (km/s) = 8.01041 8.95866 8.49777
#
# Compressibility (1/GPa) = 0.01398209
#
# Stress axis : x y z
#
# Youngs Moduli (GPa) = 73.64111 96.84904 104.32000
#
# Poissons Ratio (x) = 0.23408 0.44435
# Poissons Ratio (y) = 0.17799 0.32108
# Poissons Ratio (z) = 0.31367 0.29808
#
# Static dielectric constant tensor:
#      x y z
#    x 3.453310 0.000000 0.000000 
#    y 0.000000 3.254900 0.000000 
#    z 0.000000 0.000000 4.003480 
# 
# 
# High freq. dielectric constant tensor:
#      x y z
#    x 1.730180 0.000000 0.000000 
#    y 0.000000 1.706860 0.000000 
#    z 0.000000 0.000000 1.736690 
# 
# From -- ./inp_files/67648.got.cif
#   From: 2010.03.12/outbox.cif.g09.slc.cpg/sg65_34_cif.got.tgz:67648.got - 2010.04.10 20:52:16.
