data_PCOD8266300
_publ_section_title
;
Structure prediction by ZEFSAII (Michael W. Deem and Ramdas Pophale) SiO2 
 PCOD8266300
Probable space group: C M M M
;
_chemical_formula_sum "Si O2"
_cell_formula_units_Z 104
_cell_length_a 8.760904
_cell_length_b 28.518267
_cell_length_c 23.295702
_cell_angle_alpha 90.000000
_cell_angle_beta 90.000000
_cell_angle_gamma 90.000000
_cell_volume 5820.333290
_symmetry_space_group_name_H-M "C M M M"
_symmetry_group_IT_number 65
_symmetry_cell_setting 'orthorhombic'
loop_
_space_group_symop_operation_xyz
x,y,z
-x,-y,z
x,-y,-z
-x,y,-z
-x,-y,-z
x,y,-z
-x,y,z
x,-y,z
1/2+x,1/2+y,z
1/2-x,1/2-y,z
1/2+x,1/2-y,-z
1/2-x,1/2+y,-z
1/2-x,1/2-y,-z
1/2+x,1/2+y,-z
1/2-x,1/2+y,z
1/2+x,1/2-y,z
loop_
_atom_site_type_symbol
_atom_site_label
_atom_site_fract_x
_atom_site_fract_y
_atom_site_fract_z
Si Si1 0.179524 0.300822 0.334334
Si Si2 0.321821 0.052976 0.607698
Si Si3 0.320873 0.139185 0.225189
Si Si4 0.681840 0.698122 0.000000
Si Si5 0.824801 0.142427 0.564992
Si Si6 0.319542 0.801030 0.885071
Si Si7 0.175997 0.947355 0.270542
O O1 0.250000 0.250000 0.328291
O O2 0.235535 0.331947 0.280756
O O3 0.227021 0.324611 0.393840
O O4 0.000000 0.295139 0.333529
O O5 0.500000 0.063374 0.601124
O O6 0.230024 0.088555 0.567626
O O7 0.277273 0.061516 0.673408
O O8 0.281154 0.000000 0.588588
O O9 0.500000 0.129554 0.227456
O O10 0.273897 0.166974 0.168411
O O11 0.232666 0.089535 0.222960
O O12 0.750000 0.750000 0.000000
O O13 0.746324 0.674374 0.941813
O O14 0.500000 0.698074 0.000000
O O15 0.803110 0.160400 0.500000
O O16 0.000000 0.145252 0.584160
O O17 0.500000 0.796195 0.892915
O O18 0.250000 0.750000 0.873906
O O19 0.000000 0.938889 0.286422
O O20 0.201179 0.000000 0.246675
#
# Coordination Sequence:
#
# PCOD8266300 Si02
#       7
#    16  16  16   8  16  16  16
#     4  11  23  39  58  79 104 136 174 216 265 314
#     4  10  20  35  56  80 106 135 168 209 261 320
#     4  10  21  35  54  81 109 140 176 216 262 314
#     4  10  18  30  48  72 105 146 187 222 262 303
#     4  11  24  40  57  78 103 134 174 218 265 318
#     4  10  19  32  50  76 110 146 184 220 260 306
#     4  10  20  33  53  80 108 139 173 211 259 313
#
# _framework density 17.868393000000001
#
# number of rings (size 3 to 8) (size 9 to 14) (size 15 to 20)
#    0.000    1.692    1.538    4.385    0.000    5.538 
#    0.000    1.538    0.000    0.000    0.000    0.538 
#    0.000    4.308    0.000    0.000    0.000    0.000 
#
# Total GULP energy -644895.591069 kJ/mol
# GULP energy per Si atom -12401.838290 kJ/mol
# Density = 1.782772 g / cm^3
# Si number density = 17.868393 Si / 1000 Ang^3
#
#
#
# Elastic Constant Matrix: (Units=GPa)
#
#
# Indices 1 2 3 4 5 6 
#
# 1 69.0449 36.7201 41.3701 0.0000 0.0000 0.0000
# 2 36.7201 103.3737 50.8088 0.0000 0.0000 0.0000
# 3 41.3701 50.8088 112.8880 0.0000 0.0000 0.0000
# 4 0.0000 0.0000 0.0000 22.4433 0.0000 0.0000
# 5 0.0000 0.0000 0.0000 0.0000 27.3902 0.0000
# 6 0.0000 0.0000 0.0000 0.0000 0.0000 33.0027
#
#
#
# Elastic Compliance Matrix: (Units=1/GPa)
#
#
# Indices 1 2 3 4 5 6 
#
# 1 0.020074 -0.004513 -0.005325 0.000000 0.000000 0.000000
# 2 -0.004513 0.013436 -0.004393 0.000000 0.000000 0.000000
# 3 -0.005325 -0.004393 0.012787 0.000000 0.000000 0.000000
# 4 0.000000 0.000000 0.000000 0.044557 0.000000 0.000000
# 5 0.000000 0.000000 0.000000 0.000000 0.036509 0.000000
# 6 0.000000 0.000000 0.000000 0.000000 0.000000 0.030301
#
#
# Mechanical properties :
#
#
# Convention : Reuss Voigt Hill
#
# Bulk Modulus (GPa) = 56.07309 60.34494 58.20901
# Shear Modulus (GPa) = 26.03170 26.99440 26.51305
#
# Velocity S-wave (km/s) = 3.82102 3.89103 3.85619
# Velocity P-wave (km/s) = 7.13556 7.35065 7.24390
#
# Compressibility (1/GPa) = 0.01783387
#
# Stress axis : x y z
#
# Youngs Moduli (GPa) = 49.81448 74.42552 78.20263
#
# Poissons Ratio (x) = 0.33591 0.41645
# Poissons Ratio (y) = 0.22483 0.34357
# Poissons Ratio (z) = 0.26528 0.32698
#
# Static dielectric constant tensor:
#      x y z
#    x 3.381890 0.000000 0.000000 
#    y 0.000000 3.349760 0.000000 
#    z 0.000000 0.000000 3.483850 
# 
# 
# High freq. dielectric constant tensor:
#      x y z
#    x 1.706980 0.000000 0.000000 
#    y 0.000000 1.680690 0.000000 
#    z 0.000000 0.000000 1.679490 
# 
# From -- ./inp_files/60887.got.cif
#   From: 2010.03.12/outbox.cif.g09.slc.cpg/sg65_31_cif.got.tgz:60887.got - 2010.04.10 20:52:16.
