data_PCOD8266354
_publ_section_title
;
Structure prediction by ZEFSAII (Michael W. Deem and Ramdas Pophale) SiO2 
 PCOD8266354
Probable space group: C M M M
;
_chemical_formula_sum "Si O2"
_cell_formula_units_Z 120
_cell_length_a 18.437324
_cell_length_b 18.927073
_cell_length_c 19.117645
_cell_angle_alpha 90.000000
_cell_angle_beta 90.000000
_cell_angle_gamma 90.000000
_cell_volume 6671.380906
_symmetry_space_group_name_H-M "C M M M"
_symmetry_group_IT_number 65
_symmetry_cell_setting 'orthorhombic'
loop_
_space_group_symop_operation_xyz
x,y,z
-x,-y,z
x,-y,-z
-x,y,-z
-x,-y,-z
x,y,-z
-x,y,z
x,-y,z
1/2+x,1/2+y,z
1/2-x,1/2-y,z
1/2+x,1/2-y,-z
1/2-x,1/2+y,-z
1/2-x,1/2-y,-z
1/2+x,1/2+y,-z
1/2-x,1/2+y,z
1/2+x,1/2-y,z
loop_
_atom_site_type_symbol
_atom_site_label
_atom_site_fract_x
_atom_site_fract_y
_atom_site_fract_z
Si Si1 0.356656 0.579469 0.192183
Si Si2 0.919739 0.084144 0.664613
Si Si3 0.356985 0.916133 0.341891
Si Si4 0.500000 0.084275 0.580130
Si Si5 0.814880 0.699208 0.920276
Si Si6 0.418188 0.677910 0.920461
Si Si7 0.310337 0.079852 0.807789
Si Si8 0.215829 0.084336 0.578863
O O1 0.381131 0.500000 0.173633
O O2 0.403276 0.610114 0.256583
O O3 0.367854 0.626230 0.123866
O O4 0.273252 0.581336 0.215313
O O5 0.858698 0.114533 0.612410
O O6 0.000000 0.110963 0.642222
O O7 0.916352 0.000000 0.663559
O O8 0.429060 0.886153 0.379551
O O9 0.356161 0.894324 0.259924
O O10 0.285812 0.885230 0.380458
O O11 0.355317 0.000000 0.348033
O O12 0.500000 0.111597 0.500000
O O13 0.500000 0.000000 0.581113
O O14 0.750000 0.750000 0.893540
O O15 0.889717 0.742149 0.915012
O O16 0.824668 0.630197 0.873270
O O17 0.798797 0.675036 0.000000
O O18 0.500000 0.676170 0.892165
O O19 0.413507 0.651032 0.000000
O O20 0.332759 0.000000 0.829439
O O21 0.219681 0.112408 0.500000
O O22 0.215632 0.000000 0.581498
#
# Coordination Sequence:
#
# PCOD8266354 Si02
#       8
#    16  16  16   8  16  16  16  16
#     4  10  18  30  49  74 104 138 171 205 251 308
#     4   9  16  25  37  57  90 131 168 201 240 286
#     4   9  16  28  43  65  96 129 164 204 256 311
#     4   9  16  26  44  70 101 135 167 207 265 326
#     4  10  20  36  55  74  99 134 172 215 262 304
#     4  10  21  36  53  74 102 135 168 210 264 312
#     4  10  19  32  53  76 102 137 173 213 261 311
#     4   9  15  23  37  57  86 125 162 196 239 294
#
# _framework density 17.987279999999998
#
# number of rings (size 3 to 8) (size 9 to 14) (size 15 to 20)
#    0.000    2.467    2.667    0.800    0.000    3.200 
#    1.200    3.333    0.000    0.000    0.000    1.867 
#    0.000    9.600    0.533    0.000    0.000    0.000 
#
# Total GULP energy -743850.027892 kJ/mol
# GULP energy per Si atom -12397.500465 kJ/mol
# Density = 1.794634 g / cm^3
# Si number density = 17.987280 Si / 1000 Ang^3
#
#
#
# Elastic Constant Matrix: (Units=GPa)
#
#
# Indices 1 2 3 4 5 6 
#
# 1 106.6689 18.2118 54.8943 0.0000 0.0000 0.0000
# 2 18.2118 43.3905 46.2534 0.0000 0.0000 0.0000
# 3 54.8943 46.2534 128.2628 0.0000 0.0000 0.0000
# 4 0.0000 0.0000 0.0000 1.2026 0.0000 0.0000
# 5 0.0000 0.0000 0.0000 0.0000 31.5699 0.0000
# 6 0.0000 0.0000 0.0000 0.0000 0.0000 12.4950
#
#
#
# Elastic Compliance Matrix: (Units=1/GPa)
#
#
# Indices 1 2 3 4 5 6 
#
# 1 0.012036 0.000714 -0.005409 0.000000 0.000000 0.000000
# 2 0.000714 0.037480 -0.013821 0.000000 0.000000 0.000000
# 3 -0.005409 -0.013821 0.015096 0.000000 0.000000 0.000000
# 4 0.000000 0.000000 0.000000 0.831531 0.000000 0.000000
# 5 0.000000 0.000000 0.000000 0.000000 0.031676 0.000000
# 6 0.000000 0.000000 0.000000 0.000000 0.000000 0.080032
#
#
# Mechanical properties :
#
#
# Convention : Reuss Voigt Hill
#
# Bulk Modulus (GPa) = 36.25898 57.44903 46.85400
# Shear Modulus (GPa) = 4.74349 19.65102 12.19725
#
# Velocity S-wave (km/s) = 1.62569 3.30888 2.60687
# Velocity P-wave (km/s) = 4.87090 6.82688 5.93009
#
# Compressibility (1/GPa) = 0.02757938
#
# Stress axis : x y z
#
# Youngs Moduli (GPa) = 83.08111 26.68072 66.24465
#
# Poissons Ratio (x) = -0.01904 0.35830
# Poissons Ratio (y) = -0.05930 0.91559
# Poissons Ratio (z) = 0.44937 0.36876
#
# Static dielectric constant tensor:
#      x y z
#    x 3.541980 0.000000 0.000000 
#    y 0.000000 2.748070 0.000000 
#    z 0.000000 0.000000 3.360950 
# 
# 
# High freq. dielectric constant tensor:
#      x y z
#    x 1.703680 0.000000 0.000000 
#    y 0.000000 1.629900 0.000000 
#    z 0.000000 0.000000 1.703300 
# 
# From -- ./inp_files/54951.got.cif
#   From: 2010.03.12/outbox.cif.g09.slc.cpg/sg65_28_cif.got.tgz:54951.got - 2010.04.10 20:52:16.
