data_PCOD8266065
_publ_section_title
;
Structure prediction by ZEFSAII (Michael W. Deem and Ramdas Pophale) SiO2 
 PCOD8266065
Probable space group: C M M M
;
_chemical_formula_sum "Si O2"
_cell_formula_units_Z 80
_cell_length_a 23.114210
_cell_length_b 8.978285
_cell_length_c 20.550093
_cell_angle_alpha 90.000000
_cell_angle_beta 90.000000
_cell_angle_gamma 90.000000
_cell_volume 4264.677879
_symmetry_space_group_name_H-M "C M M M"
_symmetry_group_IT_number 65
_symmetry_cell_setting 'orthorhombic'
loop_
_space_group_symop_operation_xyz
x,y,z
-x,-y,z
x,-y,-z
-x,y,-z
-x,-y,-z
x,y,-z
-x,y,z
x,-y,z
1/2+x,1/2+y,z
1/2-x,1/2-y,z
1/2+x,1/2-y,-z
1/2-x,1/2+y,-z
1/2-x,1/2-y,-z
1/2+x,1/2+y,-z
1/2-x,1/2+y,z
1/2+x,1/2-y,z
loop_
_atom_site_type_symbol
_atom_site_label
_atom_site_fract_x
_atom_site_fract_y
_atom_site_fract_z
Si Si1 0.879086 0.176723 0.874832
Si Si2 0.187139 0.176352 0.252093
Si Si3 0.000000 0.676666 0.424683
Si Si4 0.000000 0.177679 0.925360
Si Si5 0.810966 0.176246 0.000000
Si Si6 0.114215 0.824905 0.378249
Si Si7 0.189133 0.174003 0.500000
O O1 0.847931 0.239105 0.810309
O O2 0.843871 0.234423 0.936681
O O3 0.944578 0.235914 0.884580
O O4 0.879927 0.000000 0.871420
O O5 0.250000 0.250000 0.256882
O O6 0.147731 0.221655 0.313132
O O7 0.196575 0.000000 0.248530
O O8 0.945344 0.736743 0.384768
O O9 0.000000 0.500000 0.423070
O O10 0.000000 0.734016 0.500000
O O11 0.000000 0.000000 0.929298
O O12 0.000000 0.238497 0.000000
O O13 0.750000 0.250000 0.000000
O O14 0.805185 0.000000 0.000000
O O15 0.154466 0.773375 0.437148
O O16 0.100446 0.000000 0.380137
O O17 0.250000 0.250000 0.500000
O O18 0.199754 0.000000 0.500000
#
# Coordination Sequence:
#
# PCOD8266065 Si02
#       7
#    16  16   8   8   8  16   8
#     4   9  17  29  48  75 105 137 176 221 271 320
#     4  10  21  36  54  79 110 144 182 224 272 325
#     4  11  23  38  59  87 113 140 179 226 272 320
#     4   9  14  25  46  72 102 133 169 222 271 307
#     4  10  18  29  47  73 103 136 175 218 264 316
#     4  10  21  37  57  79 108 147 183 221 271 322
#     4  10  20  33  52  77 103 138 182 222 267 318
#
# _framework density 18.758745000000001
#
# number of rings (size 3 to 8) (size 9 to 14) (size 15 to 20)
#    0.000    2.200    2.000    1.500    0.000    2.800 
#    0.000    3.000    0.000    0.000    0.000    2.800 
#    0.000    0.000    0.000    0.000    0.000    0.000 
#
# Total GULP energy -495953.979334 kJ/mol
# GULP energy per Si atom -12398.849483 kJ/mol
# Density = 1.871605 g / cm^3
# Si number density = 18.758745 Si / 1000 Ang^3
#
#
#
# Elastic Constant Matrix: (Units=GPa)
#
#
# Indices 1 2 3 4 5 6 
#
# 1 207.6603 44.2767 102.1708 0.0000 0.0000 0.0000
# 2 44.2767 26.1211 31.4863 0.0000 0.0000 0.0000
# 3 102.1708 31.4863 181.6556 0.0000 0.0000 0.0000
# 4 0.0000 0.0000 0.0000 2.1683 0.0000 0.0000
# 5 0.0000 0.0000 0.0000 0.0000 35.3225 0.0000
# 6 0.0000 0.0000 0.0000 0.0000 0.0000 33.6250
#
#
#
# Elastic Compliance Matrix: (Units=1/GPa)
#
#
# Indices 1 2 3 4 5 6 
#
# 1 0.008618 -0.011080 -0.002927 0.000000 0.000000 0.000000
# 2 -0.011080 0.062640 -0.004625 0.000000 0.000000 0.000000
# 3 -0.002927 -0.004625 0.007953 0.000000 0.000000 0.000000
# 4 0.000000 0.000000 0.000000 0.461195 0.000000 0.000000
# 5 0.000000 0.000000 0.000000 0.000000 0.028311 0.000000
# 6 0.000000 0.000000 0.000000 0.000000 0.000000 0.029740
#
#
# Mechanical properties :
#
#
# Convention : Reuss Voigt Hill
#
# Bulk Modulus (GPa) = 23.83990 85.70051 54.77020
# Shear Modulus (GPa) = 7.69583 30.05671 18.87627
#
# Velocity S-wave (km/s) = 2.02767 4.00719 3.17561
# Velocity P-wave (km/s) = 4.26828 8.19725 6.53502
#
# Compressibility (1/GPa) = 0.04194649
#
# Stress axis : x y z
#
# Youngs Moduli (GPa) = 116.03702 15.96416 125.74382
#
# Poissons Ratio (x) = 0.17689 0.36800
# Poissons Ratio (y) = 1.28571 0.58162
# Poissons Ratio (z) = 0.33959 0.07384
#
# Static dielectric constant tensor:
#      x y z
#    x 3.589920 0.000000 0.000000 
#    y 0.000000 3.031190 0.000000 
#    z 0.000000 0.000000 3.569570 
# 
# 
# High freq. dielectric constant tensor:
#      x y z
#    x 1.747340 0.000000 0.000000 
#    y 0.000000 1.684610 0.000000 
#    z 0.000000 0.000000 1.740210 
# 
# From -- ./inp_files/65098.got.cif
#   From: 2010.03.12/outbox.cif.g09.slc.cpg/sg65_33_cif.got.tgz:65098.got - 2010.04.10 20:52:16.
