data_PCOD8266547
_publ_section_title
;
Structure prediction by ZEFSAII (Michael W. Deem and Ramdas Pophale) SiO2 
 PCOD8266547
Probable space group: C M M M
;
_chemical_formula_sum "Si O2"
_cell_formula_units_Z 104
_cell_length_a 9.051433
_cell_length_b 32.442139
_cell_length_c 20.566841
_cell_angle_alpha 90.000000
_cell_angle_beta 90.000000
_cell_angle_gamma 90.000000
_cell_volume 6039.408590
_symmetry_space_group_name_H-M "C M M M"
_symmetry_group_IT_number 65
_symmetry_cell_setting 'orthorhombic'
loop_
_space_group_symop_operation_xyz
x,y,z
-x,-y,z
x,-y,-z
-x,y,-z
-x,-y,-z
x,y,-z
-x,y,z
x,-y,z
1/2+x,1/2+y,z
1/2-x,1/2-y,z
1/2+x,1/2-y,-z
1/2-x,1/2+y,-z
1/2-x,1/2-y,-z
1/2+x,1/2+y,-z
1/2-x,1/2+y,z
1/2+x,1/2-y,z
loop_
_atom_site_type_symbol
_atom_site_label
_atom_site_fract_x
_atom_site_fract_y
_atom_site_fract_z
Si Si1 0.333155 0.500000 0.786349
Si Si2 0.825752 0.452803 0.000000
Si Si3 0.830348 0.656190 0.426976
Si Si4 0.825773 0.500000 0.654272
Si Si5 0.328023 0.582813 0.365035
Si Si6 0.829420 0.134169 0.760972
Si Si7 0.668274 0.577453 0.123726
Si Si8 0.327313 0.792866 0.303853
O O1 0.500000 0.500000 0.756657
O O2 0.213569 0.500000 0.730032
O O3 0.305738 0.539097 0.830215
O O4 0.773783 0.426787 0.937876
O O5 0.762277 0.500000 0.000000
O O6 0.000000 0.454457 0.000000
O O7 0.804951 0.672895 0.500000
O O8 0.728727 0.616500 0.416161
O O9 0.786133 0.692304 0.376812
O O10 0.000000 0.643086 0.415241
O O11 0.758029 0.540566 0.620925
O O12 0.000000 0.500000 0.644412
O O13 0.500000 0.575105 0.376837
O O14 0.295964 0.598203 0.291505
O O15 0.793098 0.117858 0.833489
O O16 0.728290 0.173721 0.748300
O O17 0.000000 0.147405 0.754835
O O18 0.500000 0.579197 0.098744
O O19 0.500000 0.786845 0.294364
O O20 0.250000 0.750000 0.289391
#
# Coordination Sequence:
#
# PCOD8266547 Si02
#       8
#     8   8  16   8  16  16  16  16
#     4  10  18  31  49  71  98 132 175 218 257 297
#     4  11  23  33  43  69 108 145 182 223 257 289
#     4   9  19  36  54  74 103 135 165 201 251 306
#     4  12  22  30  46  72 100 132 170 213 263 306
#     4  10  19  33  51  72  98 128 170 216 255 298
#     4   9  18  33  53  75  99 129 167 212 257 304
#     4  10  19  33  52  71  98 140 181 213 254 302
#     4  10  20  34  54  80 107 134 162 200 250 303
#
# _framework density 17.220227999999999
#
# number of rings (size 3 to 8) (size 9 to 14) (size 15 to 20)
#    0.000    2.077    2.308    1.846    0.000    3.385 
#    0.000    0.385    0.000    2.308    0.000    0.538 
#    0.000    0.000    0.000    0.000    0.000    0.000 
#
# Total GULP energy -644856.894196 kJ/mol
# GULP energy per Si atom -12401.094119 kJ/mol
# Density = 1.718103 g / cm^3
# Si number density = 17.220228 Si / 1000 Ang^3
#
#
#
# Elastic Constant Matrix: (Units=GPa)
#
#
# Indices 1 2 3 4 5 6 
#
# 1 87.3553 54.7285 28.2401 0.0000 0.0000 0.0000
# 2 54.7285 108.5749 30.0126 0.0000 0.0000 0.0000
# 3 28.2401 30.0126 76.2380 0.0000 0.0000 0.0000
# 4 0.0000 0.0000 0.0000 17.0066 0.0000 0.0000
# 5 0.0000 0.0000 0.0000 0.0000 26.7011 0.0000
# 6 0.0000 0.0000 0.0000 0.0000 0.0000 29.5376
#
#
#
# Elastic Compliance Matrix: (Units=1/GPa)
#
#
# Indices 1 2 3 4 5 6 
#
# 1 0.017471 -0.007874 -0.003372 0.000000 0.000000 0.000000
# 2 -0.007874 0.013884 -0.002549 0.000000 0.000000 0.000000
# 3 -0.003372 -0.002549 0.015369 0.000000 0.000000 0.000000
# 4 0.000000 0.000000 0.000000 0.058801 0.000000 0.000000
# 5 0.000000 0.000000 0.000000 0.000000 0.037452 0.000000
# 6 0.000000 0.000000 0.000000 0.000000 0.000000 0.033855
#
#
# Mechanical properties :
#
#
# Convention : Reuss Voigt Hill
#
# Bulk Modulus (GPa) = 52.26254 55.34785 53.80519
# Shear Modulus (GPa) = 23.71923 25.26153 24.49038
#
# Velocity S-wave (km/s) = 3.71537 3.83426 3.77528
# Velocity P-wave (km/s) = 6.98718 7.19812 7.09344
#
# Compressibility (1/GPa) = 0.01913417
#
# Stress axis : x y z
#
# Youngs Moduli (GPa) = 57.23834 72.02550 65.06540
#
# Poissons Ratio (x) = 0.56716 0.21938
# Poissons Ratio (y) = 0.45072 0.16584
# Poissons Ratio (z) = 0.19299 0.18358
#
# Static dielectric constant tensor:
#      x y z
#    x 3.222110 0.000000 0.000000 
#    y 0.000000 3.155110 0.000000 
#    z 0.000000 0.000000 3.135350 
# 
# 
# High freq. dielectric constant tensor:
#      x y z
#    x 1.669050 0.000000 0.000000 
#    y 0.000000 1.651380 0.000000 
#    z 0.000000 0.000000 1.645800 
# 
# From -- ./inp_files/60978.got.cif
#   From: 2010.03.12/outbox.cif.g09.slc.cpg/sg65_31_cif.got.tgz:60978.got - 2010.04.10 20:52:16.
