data_PCOD8266560
_publ_section_title
;
Structure prediction by ZEFSAII (Michael W. Deem and Ramdas Pophale) SiO2 
 PCOD8266560
Probable space group: C M M M
;
_chemical_formula_sum "Si O2"
_cell_formula_units_Z 88
_cell_length_a 27.345229
_cell_length_b 7.924185
_cell_length_c 22.964683
_cell_angle_alpha 90.000000
_cell_angle_beta 90.000000
_cell_angle_gamma 90.000000
_cell_volume 4976.186236
_symmetry_space_group_name_H-M "C M M M"
_symmetry_group_IT_number 65
_symmetry_cell_setting 'orthorhombic'
loop_
_space_group_symop_operation_xyz
x,y,z
-x,-y,z
x,-y,-z
-x,y,-z
-x,-y,-z
x,y,-z
-x,y,z
x,-y,z
1/2+x,1/2+y,z
1/2-x,1/2-y,z
1/2+x,1/2-y,-z
1/2-x,1/2+y,-z
1/2-x,1/2-y,-z
1/2+x,1/2+y,-z
1/2-x,1/2+y,z
1/2+x,1/2-y,z
loop_
_atom_site_type_symbol
_atom_site_label
_atom_site_fract_x
_atom_site_fract_y
_atom_site_fract_z
Si Si1 0.896303 0.805652 0.243220
Si Si2 0.695232 0.199155 0.179313
Si Si3 0.147278 0.304694 0.936697
Si Si4 0.442043 0.500000 0.435083
Si Si5 0.445153 0.300223 0.875235
Si Si6 0.056535 0.310734 0.642792
O O1 0.839027 0.779786 0.228903
O O2 0.928090 0.740312 0.188639
O O3 0.911469 0.697453 0.298881
O O4 0.907353 0.000000 0.257136
O O5 0.750000 0.250000 0.194321
O O6 0.679858 0.274755 0.115622
O O7 0.687982 0.000000 0.179986
O O8 0.159398 0.500000 0.940766
O O9 0.089840 0.279811 0.923766
O O10 0.159566 0.221359 0.000000
O O11 0.500000 0.500000 0.439008
O O12 0.419353 0.500000 0.500000
O O13 0.424069 0.670474 0.402715
O O14 0.500000 0.235269 0.886586
O O15 0.441494 0.500000 0.879674
O O16 0.062566 0.500000 0.616422
O O17 0.000000 0.274096 0.658458
#
# Coordination Sequence:
#
# PCOD8266560 Si02
#       6
#    16  16  16   8  16  16
#     4  10  18  31  50  70  96 128 160 203 251 301
#     4  10  20  34  50  69  92 119 152 197 255 309
#     4   9  19  34  48  63  86 117 155 196 240 296
#     4   9  18  32  48  70 106 148 183 215 247 281
#     4   9  18  30  45  66  91 120 154 194 241 290
#     4  10  19  30  48  75 105 141 180 214 249 291
#
# _framework density 17.684227
#
# number of rings (size 3 to 8) (size 9 to 14) (size 15 to 20)
#    0.000    2.455    0.909    1.636    0.000    4.000 
#    0.000    3.636    0.000    0.000    0.000    0.000 
#    0.000    0.727    0.364    0.000    0.000    0.000 
#
# Total GULP energy -545501.979963 kJ/mol
# GULP energy per Si atom -12397.772272 kJ/mol
# Density = 1.764398 g / cm^3
# Si number density = 17.684227 Si / 1000 Ang^3
#
#
#
# Elastic Constant Matrix: (Units=GPa)
#
#
# Indices 1 2 3 4 5 6 
#
# 1 76.7148 7.9006 23.1359 0.0000 0.0000 0.0000
# 2 7.9006 68.5987 34.5992 0.0000 0.0000 0.0000
# 3 23.1359 34.5992 105.5834 0.0000 0.0000 0.0000
# 4 0.0000 0.0000 0.0000 19.5972 0.0000 0.0000
# 5 0.0000 0.0000 0.0000 0.0000 13.1210 0.0000
# 6 0.0000 0.0000 0.0000 0.0000 0.0000 22.2881
#
#
#
# Elastic Compliance Matrix: (Units=1/GPa)
#
#
# Indices 1 2 3 4 5 6 
#
# 1 0.013958 -0.000078 -0.003033 0.000000 0.000000 0.000000
# 2 -0.000078 0.017464 -0.005706 0.000000 0.000000 0.000000
# 3 -0.003033 -0.005706 0.012006 0.000000 0.000000 0.000000
# 4 0.000000 0.000000 0.000000 0.051028 0.000000 0.000000
# 5 0.000000 0.000000 0.000000 0.000000 0.076214 0.000000
# 6 0.000000 0.000000 0.000000 0.000000 0.000000 0.044867
#
#
# Mechanical properties :
#
#
# Convention : Reuss Voigt Hill
#
# Bulk Modulus (GPa) = 38.76800 42.46314 40.61557
# Shear Modulus (GPa) = 20.68098 23.35201 22.01649
#
# Velocity S-wave (km/s) = 3.42345 3.63781 3.53225
# Velocity P-wave (km/s) = 6.13161 6.45824 6.29704
#
# Compressibility (1/GPa) = 0.02579447
#
# Stress axis : x y z
#
# Youngs Moduli (GPa) = 71.64332 57.25934 83.29438
#
# Poissons Ratio (x) = 0.00445 0.25264
# Poissons Ratio (y) = 0.00557 0.47527
# Poissons Ratio (z) = 0.21730 0.32672
#
# Static dielectric constant tensor:
#      x y z
#    x 3.152850 0.000000 0.000000 
#    y 0.000000 3.282540 0.000000 
#    z 0.000000 0.000000 3.286570 
# 
# 
# High freq. dielectric constant tensor:
#      x y z
#    x 1.656430 0.000000 0.000000 
#    y 0.000000 1.688810 0.000000 
#    z 0.000000 0.000000 1.661870 
# 
# From -- ./inp_files/65755.got.cif
#   From: 2010.03.12/outbox.cif.g09.slc.cpg/sg65_33_cif.got.tgz:65755.got - 2010.04.10 20:52:16.
