data_PCOD8266334
_publ_section_title
;
Structure prediction by ZEFSAII (Michael W. Deem and Ramdas Pophale) SiO2 
 PCOD8266334
Probable space group: C M M M
;
_chemical_formula_sum "Si O2"
_cell_formula_units_Z 104
_cell_length_a 8.757840
_cell_length_b 20.011065
_cell_length_c 33.133044
_cell_angle_alpha 90.000000
_cell_angle_beta 90.000000
_cell_angle_gamma 90.000000
_cell_volume 5806.688735
_symmetry_space_group_name_H-M "C M M M"
_symmetry_group_IT_number 65
_symmetry_cell_setting 'orthorhombic'
loop_
_space_group_symop_operation_xyz
x,y,z
-x,-y,z
x,-y,-z
-x,y,-z
-x,-y,-z
x,y,-z
-x,y,z
x,-y,z
1/2+x,1/2+y,z
1/2-x,1/2-y,z
1/2+x,1/2-y,-z
1/2-x,1/2+y,-z
1/2-x,1/2-y,-z
1/2+x,1/2+y,-z
1/2-x,1/2+y,z
1/2+x,1/2-y,z
loop_
_atom_site_type_symbol
_atom_site_label
_atom_site_fract_x
_atom_site_fract_y
_atom_site_fract_z
Si Si1 0.180506 0.819858 0.300378
Si Si2 0.818478 0.074426 0.544877
Si Si3 0.320618 0.075924 0.151632
Si Si4 0.318405 0.176680 0.081575
Si Si5 0.680885 0.319806 0.608409
Si Si6 0.682297 0.323676 0.000000
Si Si7 0.319190 0.424883 0.235496
O O1 0.250000 0.750000 0.285814
O O2 0.232796 0.837043 0.345975
O O3 0.243837 0.877714 0.271117
O O4 0.000000 0.814089 0.297603
O O5 0.766024 0.097089 0.500000
O O6 0.750932 0.124096 0.578533
O O7 0.000000 0.074194 0.547154
O O8 0.756554 0.000000 0.554015
O O9 0.500000 0.079327 0.157894
O O10 0.267753 0.126414 0.116801
O O11 0.243075 0.100899 0.192773
O O12 0.269190 0.000000 0.140877
O O13 0.500000 0.182709 0.077296
O O14 0.250000 0.250000 0.090399
O O15 0.247796 0.143247 0.040891
O O16 0.500000 0.315406 0.605255
O O17 0.750000 0.250000 0.594116
O O18 0.750000 0.250000 0.000000
O O19 0.500000 0.324275 0.000000
O O20 0.500000 0.422540 0.233964
O O21 0.260357 0.500000 0.244159
#
# Coordination Sequence:
#
# PCOD8266334 Si02
#       7
#    16  16  16  16  16   8  16
#     4   9  18  31  46  66  92 120 150 185 227 273
#     4   8  14  25  42  65  90 115 148 190 230 267
#     4   9  19  35  52  70  94 125 158 190 227 273
#     4  10  19  32  51  73  97 124 156 193 230 271
#     4   9  17  29  45  65  90 119 149 184 226 272
#     4  10  18  30  49  72  99 127 157 193 231 272
#     4   9  18  32  49  68  90 117 150 189 230 270
#
# _framework density 17.91038
#
# number of rings (size 3 to 8) (size 9 to 14) (size 15 to 20)
#    0.000    2.923    0.000    2.538    0.000    3.385 
#    0.000    6.538    0.000    2.769    0.000    5.385 
#    0.000    0.000    0.000    0.000    0.000    0.000 
#
# Total GULP energy -644613.730021 kJ/mol
# GULP energy per Si atom -12396.417885 kJ/mol
# Density = 1.786961 g / cm^3
# Si number density = 17.910380 Si / 1000 Ang^3
#
#
#
# Elastic Constant Matrix: (Units=GPa)
#
#
# Indices 1 2 3 4 5 6 
#
# 1 33.1954 25.4882 30.9342 0.0000 0.0000 0.0000
# 2 25.4882 120.8623 107.1314 0.0000 0.0000 0.0000
# 3 30.9342 107.1314 162.3253 0.0000 0.0000 0.0000
# 4 0.0000 0.0000 0.0000 36.8743 0.0000 0.0000
# 5 0.0000 0.0000 0.0000 0.0000 20.0606 0.0000
# 6 0.0000 0.0000 0.0000 0.0000 0.0000 23.4775
#
#
#
# Elastic Compliance Matrix: (Units=1/GPa)
#
#
# Indices 1 2 3 4 5 6 
#
# 1 0.037331 -0.003775 -0.004623 0.000000 0.000000 0.000000
# 2 -0.003775 0.020319 -0.012691 0.000000 0.000000 0.000000
# 3 -0.004623 -0.012691 0.015417 0.000000 0.000000 0.000000
# 4 0.000000 0.000000 0.000000 0.027119 0.000000 0.000000
# 5 0.000000 0.000000 0.000000 0.000000 0.049849 0.000000
# 6 0.000000 0.000000 0.000000 0.000000 0.000000 0.042594
#
#
# Mechanical properties :
#
#
# Convention : Reuss Voigt Hill
#
# Bulk Modulus (GPa) = 32.37280 71.49894 51.93587
# Shear Modulus (GPa) = 20.39962 26.27109 23.33535
#
# Velocity S-wave (km/s) = 3.37854 3.83405 3.61348
# Velocity P-wave (km/s) = 5.77352 7.72055 6.81691
#
# Compressibility (1/GPa) = 0.03089013
#
# Stress axis : x y z
#
# Youngs Moduli (GPa) = 26.78733 49.21528 64.86362
#
# Poissons Ratio (x) = 0.18579 0.29984
# Poissons Ratio (y) = 0.10113 0.82316
# Poissons Ratio (z) = 0.12383 0.62457
#
# Static dielectric constant tensor:
#      x y z
#    x 3.075090 0.000000 0.000000 
#    y 0.000000 3.447200 0.000000 
#    z 0.000000 0.000000 3.749040 
# 
# 
# High freq. dielectric constant tensor:
#      x y z
#    x 1.672980 0.000000 0.000000 
#    y 0.000000 1.683680 0.000000 
#    z 0.000000 0.000000 1.703890 
# 
# From -- ./inp_files/73567.got.cif
#   From: 2010.03.12/outbox.cif.g09.slc.cpg/sg65_37_cif.got.tgz:73567.got - 2010.04.10 20:52:16.
