data_PCOD8266496
_publ_section_title
;
Structure prediction by ZEFSAII (Michael W. Deem and Ramdas Pophale) SiO2 
 PCOD8266496
Probable space group: C M M M
;
_chemical_formula_sum "Si O2"
_cell_formula_units_Z 88
_cell_length_a 22.432254
_cell_length_b 22.386991
_cell_length_c 9.269218
_cell_angle_alpha 90.000000
_cell_angle_beta 90.000000
_cell_angle_gamma 90.000000
_cell_volume 4654.914783
_symmetry_space_group_name_H-M "C M M M"
_symmetry_group_IT_number 65
_symmetry_cell_setting 'orthorhombic'
loop_
_space_group_symop_operation_xyz
x,y,z
-x,-y,z
x,-y,-z
-x,y,-z
-x,-y,-z
x,y,-z
-x,y,z
x,-y,z
1/2+x,1/2+y,z
1/2-x,1/2-y,z
1/2+x,1/2-y,-z
1/2-x,1/2+y,-z
1/2-x,1/2-y,-z
1/2+x,1/2+y,-z
1/2-x,1/2+y,z
1/2+x,1/2-y,z
loop_
_atom_site_type_symbol
_atom_site_label
_atom_site_fract_x
_atom_site_fract_y
_atom_site_fract_z
Si Si1 0.931775 0.000000 0.671242
Si Si2 0.000000 0.784159 0.671207
Si Si3 0.500000 0.165827 0.163614
Si Si4 0.158081 0.101854 0.666681
Si Si5 0.129993 0.344959 0.162899
Si Si6 0.883752 0.793079 0.170090
Si Si7 0.209331 0.434803 0.334413
O O1 0.895527 0.058902 0.722096
O O2 0.933115 0.000000 0.500000
O O3 0.000000 0.000000 0.732471
O O4 0.057440 0.814116 0.743473
O O5 0.000000 0.794075 0.500000
O O6 0.000000 0.714657 0.711562
O O7 0.438165 0.129346 0.181006
O O8 0.500000 0.195043 0.000000
O O9 0.148512 0.120365 0.500000
O O10 0.164667 0.161057 0.766578
O O11 0.220058 0.067877 0.687323
O O12 0.132851 0.275238 0.208028
O O13 0.175226 0.381847 0.256993
O O14 0.151633 0.352188 0.000000
O O15 0.892306 0.801206 0.000000
O O16 0.192082 0.428136 0.500000
O O17 0.188609 0.500000 0.276653
#
# Coordination Sequence:
#
# PCOD8266496 Si02
#       7
#     8   8   8  16  16  16  16
#     4   9  18  34  57  83 111 144 188 235 273 320
#     4  10  18  30  52  80 110 146 186 218 263 335
#     4   8  16  34  55  79 113 144 172 221 280 323
#     4  10  20  36  57  81 110 146 189 231 278 334
#     4   9  19  36  58  81 109 146 184 223 273 336
#     4  10  21  36  53  80 116 147 179 231 287 327
#     4  10  21  38  57  78 110 148 184 230 284 333
#
# _framework density 18.904748999999999
#
# number of rings (size 3 to 8) (size 9 to 14) (size 15 to 20)
#    0.000    2.455    0.909    2.455    1.273    5.455 
#    0.000    4.545    0.000    3.273    0.000    0.000 
#    0.000    0.000    0.000    0.000    0.000    0.000 
#
# Total GULP energy -545255.581559 kJ/mol
# GULP energy per Si atom -12392.172308 kJ/mol
# Density = 1.886172 g / cm^3
# Si number density = 18.904749 Si / 1000 Ang^3
#
#
#
# Elastic Constant Matrix: (Units=GPa)
#
#
# Indices 1 2 3 4 5 6 
#
# 1 81.0023 51.9088 37.0348 0.0000 0.0000 0.0000
# 2 51.9088 112.7808 56.5988 0.0000 0.0000 0.0000
# 3 37.0348 56.5988 84.1529 0.0000 0.0000 0.0000
# 4 0.0000 0.0000 0.0000 21.7308 0.0000 0.0000
# 5 0.0000 0.0000 0.0000 0.0000 29.6950 0.0000
# 6 0.0000 0.0000 0.0000 0.0000 0.0000 19.9331
#
#
#
# Elastic Compliance Matrix: (Units=1/GPa)
#
#
# Indices 1 2 3 4 5 6 
#
# 1 0.018200 -0.006577 -0.003586 0.000000 0.000000 0.000000
# 2 -0.006577 0.015761 -0.007706 0.000000 0.000000 0.000000
# 3 -0.003586 -0.007706 0.018644 0.000000 0.000000 0.000000
# 4 0.000000 0.000000 0.000000 0.046018 0.000000 0.000000
# 5 0.000000 0.000000 0.000000 0.000000 0.033676 0.000000
# 6 0.000000 0.000000 0.000000 0.000000 0.000000 0.050168
#
#
# Mechanical properties :
#
#
# Convention : Reuss Voigt Hill
#
# Bulk Modulus (GPa) = 59.28763 63.22452 61.25607
# Shear Modulus (GPa) = 22.33873 23.09801 22.71837
#
# Velocity S-wave (km/s) = 3.44124 3.49923 3.47036
# Velocity P-wave (km/s) = 6.87159 7.05992 6.96639
#
# Compressibility (1/GPa) = 0.01686693
#
# Stress axis : x y z
#
# Youngs Moduli (GPa) = 54.94630 63.44707 53.63618
#
# Poissons Ratio (x) = 0.41729 0.19234
# Poissons Ratio (y) = 0.36138 0.41332
# Poissons Ratio (z) = 0.19703 0.48893
#
# Static dielectric constant tensor:
#      x y z
#    x 3.589740 0.000000 0.000000 
#    y 0.000000 3.284960 0.000000 
#    z 0.000000 0.000000 3.292130 
# 
# 
# High freq. dielectric constant tensor:
#      x y z
#    x 1.736970 0.000000 0.000000 
#    y 0.000000 1.720710 0.000000 
#    z 0.000000 0.000000 1.720880 
# 
# From -- ./inp_files/14081.got.cif
#   From: 2010.03.12/outbox.cif.g09.slc.cpg/sg65_8_cif.got.tgz:14081.got - 2010.04.10 20:52:16.
