data_PCOD8266652
_publ_section_title
;
Structure prediction by ZEFSAII (Michael W. Deem and Ramdas Pophale) SiO2 
 PCOD8266652
Probable space group: C M M M
;
_chemical_formula_sum "Si O2"
_cell_formula_units_Z 88
_cell_length_a 9.070845
_cell_length_b 28.613725
_cell_length_c 19.524074
_cell_angle_alpha 90.000000
_cell_angle_beta 90.000000
_cell_angle_gamma 90.000000
_cell_volume 5067.486377
_symmetry_space_group_name_H-M "C M M M"
_symmetry_group_IT_number 65
_symmetry_cell_setting 'orthorhombic'
loop_
_space_group_symop_operation_xyz
x,y,z
-x,-y,z
x,-y,-z
-x,y,-z
-x,-y,-z
x,y,-z
-x,y,z
x,-y,z
1/2+x,1/2+y,z
1/2-x,1/2-y,z
1/2+x,1/2-y,-z
1/2-x,1/2+y,-z
1/2-x,1/2-y,-z
1/2+x,1/2+y,-z
1/2-x,1/2+y,z
1/2+x,1/2-y,z
loop_
_atom_site_type_symbol
_atom_site_label
_atom_site_fract_x
_atom_site_fract_y
_atom_site_fract_z
Si Si1 0.163729 0.887937 0.681027
Si Si2 0.828078 0.297250 0.696710
Si Si3 0.670633 0.203849 0.857117
Si Si4 0.174074 0.446750 0.795682
Si Si5 0.824944 0.609805 0.075795
Si Si6 0.500000 0.555022 0.579658
O O1 0.253957 0.841670 0.659293
O O2 0.248397 0.915457 0.739576
O O3 0.145629 0.921713 0.614483
O O4 0.000000 0.873609 0.707974
O O5 0.750000 0.250000 0.670437
O O6 0.799604 0.304353 0.777106
O O7 0.000000 0.294837 0.678197
O O8 0.500000 0.210644 0.872222
O O9 0.750000 0.250000 0.884585
O O10 0.735930 0.159632 0.897868
O O11 0.223758 0.500000 0.786295
O O12 0.224288 0.430576 0.871558
O O13 0.000000 0.440159 0.786295
O O14 0.000000 0.612291 0.073309
O O15 0.761116 0.598898 0.000000
O O16 0.500000 0.500000 0.593815
O O17 0.500000 0.566903 0.500000
#
# Coordination Sequence:
#
# PCOD8266652 Si02
#       6
#    16  16  16  16  16   8
#     4  10  20  32  56  83 108 141 178 219 268 319
#     4  10  18  31  52  82 116 142 180 227 272 319
#     4   9  17  29  45  66  96 130 167 214 262 310
#     4  10  19  32  51  75 103 134 177 230 277 323
#     4   9  17  30  46  66  97 135 175 221 272 321
#     4   9  20  38  60  86 115 145 181 221 265 325
#
# _framework density 17.365611999999999
#
# number of rings (size 3 to 8) (size 9 to 14) (size 15 to 20)
#    0.545    1.909    1.818    1.636    0.000    1.455 
#    0.000    1.818    0.000    4.364    0.000    7.636 
#    0.000    0.000    0.000    0.000    0.000    0.000 
#
# Total GULP energy -545421.486483 kJ/mol
# GULP energy per Si atom -12395.942875 kJ/mol
# Density = 1.732609 g / cm^3
# Si number density = 17.365612 Si / 1000 Ang^3
#
#
#
# Elastic Constant Matrix: (Units=GPa)
#
#
# Indices 1 2 3 4 5 6 
#
# 1 59.1272 56.4414 24.2342 0.0000 0.0000 0.0000
# 2 56.4414 141.8538 48.7804 0.0000 0.0000 0.0000
# 3 24.2342 48.7804 76.4691 0.0000 0.0000 0.0000
# 4 0.0000 0.0000 0.0000 25.2906 0.0000 0.0000
# 5 0.0000 0.0000 0.0000 0.0000 14.4036 0.0000
# 6 0.0000 0.0000 0.0000 0.0000 0.0000 32.6400
#
#
#
# Elastic Compliance Matrix: (Units=1/GPa)
#
#
# Indices 1 2 3 4 5 6 
#
# 1 0.027563 -0.010201 -0.002228 0.000000 0.000000 0.000000
# 2 -0.010201 0.012806 -0.004936 0.000000 0.000000 0.000000
# 3 -0.002228 -0.004936 0.016932 0.000000 0.000000 0.000000
# 4 0.000000 0.000000 0.000000 0.039540 0.000000 0.000000
# 5 0.000000 0.000000 0.000000 0.000000 0.069427 0.000000
# 6 0.000000 0.000000 0.000000 0.000000 0.000000 0.030637
#
#
# Mechanical properties :
#
#
# Convention : Reuss Voigt Hill
#
# Bulk Modulus (GPa) = 44.30422 59.59579 51.95000
# Shear Modulus (GPa) = 20.90656 24.33311 22.61984
#
# Velocity S-wave (km/s) = 3.47350 3.74735 3.61302
# Velocity P-wave (km/s) = 6.45406 7.28809 6.88372
#
# Compressibility (1/GPa) = 0.02257121
#
# Stress axis : x y z
#
# Youngs Moduli (GPa) = 36.28002 78.09032 59.05970
#
# Poissons Ratio (x) = 0.79659 0.13158
# Poissons Ratio (y) = 0.37009 0.29152
# Poissons Ratio (z) = 0.08083 0.38546
#
# Static dielectric constant tensor:
#      x y z
#    x 3.057830 0.000000 0.000000 
#    y 0.000000 3.446080 0.000000 
#    z 0.000000 0.000000 3.011650 
# 
# 
# High freq. dielectric constant tensor:
#      x y z
#    x 1.649000 0.000000 0.000000 
#    y 0.000000 1.687940 0.000000 
#    z 0.000000 0.000000 1.637470 
# 
# From -- ./inp_files/60725.got.cif
#   From: 2010.03.12/outbox.cif.g09.slc.cpg/sg65_31_cif.got.tgz:60725.got - 2010.04.10 20:52:16.
