data_PCOD8266694
_publ_section_title
;
Structure prediction by ZEFSAII (Michael W. Deem and Ramdas Pophale) SiO2 
 PCOD8266694
Probable space group: C M M M
;
_chemical_formula_sum "Si O2"
_cell_formula_units_Z 64
_cell_length_a 17.123028
_cell_length_b 14.133483
_cell_length_c 14.749498
_cell_angle_alpha 90.000000
_cell_angle_beta 90.000000
_cell_angle_gamma 90.000000
_cell_volume 3569.496883
_symmetry_space_group_name_H-M "C M M M"
_symmetry_group_IT_number 65
_symmetry_cell_setting 'orthorhombic'
loop_
_space_group_symop_operation_xyz
x,y,z
-x,-y,z
x,-y,-z
-x,y,-z
-x,-y,-z
x,y,-z
-x,y,z
x,-y,z
1/2+x,1/2+y,z
1/2-x,1/2-y,z
1/2+x,1/2-y,-z
1/2-x,1/2+y,-z
1/2-x,1/2-y,-z
1/2+x,1/2+y,-z
1/2-x,1/2+y,z
1/2+x,1/2-y,z
loop_
_atom_site_type_symbol
_atom_site_label
_atom_site_fract_x
_atom_site_fract_y
_atom_site_fract_z
Si Si1 0.808020 0.833525 0.229070
Si Si2 0.087712 0.500000 0.172712
Si Si3 0.740753 0.500000 0.104072
Si Si4 0.719374 0.892649 0.399036
Si Si5 0.913313 0.687058 0.292428
O O1 0.750000 0.750000 0.203147
O O2 0.788570 0.879347 0.326853
O O3 0.893101 0.783186 0.235995
O O4 0.800639 0.909963 0.150054
O O5 0.163981 0.500000 0.108047
O O6 0.095715 0.405783 0.231318
O O7 0.000000 0.500000 0.125756
O O8 0.716052 0.500000 0.000000
O O9 0.749589 0.867259 0.500000
O O10 0.647127 0.823453 0.375439
O O11 0.689007 0.000000 0.394793
O O12 0.000000 0.696548 0.331633
#
# Coordination Sequence:
#
# PCOD8266694 Si02
#       5
#    16   8   8  16  16
#     4  10  19  36  55  79 110 139 184 224 267 322
#     4  10  18  35  54  80 113 135 163 216 281 328
#     4  12  22  37  59  82 106 141 185 229 269 321
#     4  10  18  31  55  81 109 145 181 220 268 324
#     4  10  19  33  55  78 111 145 175 218 273 326
#
# _framework density 17.929698999999999
#
# number of rings (size 3 to 8) (size 9 to 14) (size 15 to 20)
#    0.000    1.750    7.500    0.000    0.000    5.750 
#    0.000    1.875    0.000    1.500    0.000    1.750 
#    0.000    0.000    0.000    0.000    0.000    0.000 
#
# Total GULP energy -396462.069944 kJ/mol
# GULP energy per Si atom -12389.439686 kJ/mol
# Density = 1.788889 g / cm^3
# Si number density = 17.929699 Si / 1000 Ang^3
#
#
#
# Elastic Constant Matrix: (Units=GPa)
#
#
# Indices 1 2 3 4 5 6 
#
# 1 59.0017 26.4973 27.8505 0.0000 0.0000 0.0000
# 2 26.4973 106.9034 54.4105 0.0000 0.0000 0.0000
# 3 27.8505 54.4105 124.2755 0.0000 0.0000 0.0000
# 4 0.0000 0.0000 0.0000 13.4236 0.0000 0.0000
# 5 0.0000 0.0000 0.0000 0.0000 14.4914 0.0000
# 6 0.0000 0.0000 0.0000 0.0000 0.0000 16.2797
#
#
#
# Elastic Compliance Matrix: (Units=1/GPa)
#
#
# Indices 1 2 3 4 5 6 
#
# 1 0.019882 -0.003423 -0.002957 0.000000 0.000000 0.000000
# 2 -0.003423 0.012626 -0.004761 0.000000 0.000000 0.000000
# 3 -0.002957 -0.004761 0.010794 0.000000 0.000000 0.000000
# 4 0.000000 0.000000 0.000000 0.074496 0.000000 0.000000
# 5 0.000000 0.000000 0.000000 0.000000 0.069006 0.000000
# 6 0.000000 0.000000 0.000000 0.000000 0.000000 0.061426
#
#
# Mechanical properties :
#
#
# Convention : Reuss Voigt Hill
#
# Bulk Modulus (GPa) = 47.57403 56.41079 51.99241
# Shear Modulus (GPa) = 18.01692 20.93377 19.47535
#
# Velocity S-wave (km/s) = 3.17340 3.42065 3.29934
# Velocity P-wave (km/s) = 6.32602 6.86525 6.60114
#
# Compressibility (1/GPa) = 0.02101987
#
# Stress axis : x y z
#
# Youngs Moduli (GPa) = 50.29775 79.20350 92.64727
#
# Poissons Ratio (x) = 0.27111 0.27395
# Poissons Ratio (y) = 0.17217 0.44107
# Poissons Ratio (z) = 0.14872 0.37707
#
# Static dielectric constant tensor:
#      x y z
#    x 3.459890 0.000000 0.000000 
#    y 0.000000 3.762190 0.000000 
#    z 0.000000 0.000000 3.067580 
# 
# 
# High freq. dielectric constant tensor:
#      x y z
#    x 1.668220 0.000000 0.000000 
#    y 0.000000 1.710300 0.000000 
#    z 0.000000 0.000000 1.665730 
# 
# From -- ./inp_files/39689.got.cif
#   From: 2010.03.12/outbox.cif.g09.slc.cpg/sg65_20_cif.got.tgz:39689.got - 2010.04.10 20:52:16.
