data_PCOD8266810
_publ_section_title
;
Structure prediction by ZEFSAII (Michael W. Deem and Ramdas Pophale) SiO2 
 PCOD8266810
Probable space group: C M M M
;
_chemical_formula_sum "Si O2"
_cell_formula_units_Z 80
_cell_length_a 19.358829
_cell_length_b 8.654592
_cell_length_c 25.973784
_cell_angle_alpha 90.000000
_cell_angle_beta 90.000000
_cell_angle_gamma 90.000000
_cell_volume 4351.719630
_symmetry_space_group_name_H-M "C M M M"
_symmetry_group_IT_number 65
_symmetry_cell_setting 'orthorhombic'
loop_
_space_group_symop_operation_xyz
x,y,z
-x,-y,z
x,-y,-z
-x,y,-z
-x,-y,-z
x,y,-z
-x,y,z
x,-y,z
1/2+x,1/2+y,z
1/2-x,1/2-y,z
1/2+x,1/2-y,-z
1/2-x,1/2+y,-z
1/2-x,1/2-y,-z
1/2+x,1/2+y,-z
1/2-x,1/2+y,z
1/2+x,1/2-y,z
loop_
_atom_site_type_symbol
_atom_site_label
_atom_site_fract_x
_atom_site_fract_y
_atom_site_fract_z
Si Si1 0.420569 0.820255 0.297053
Si Si2 0.419730 0.678898 0.810767
Si Si3 0.173483 0.183146 0.000000
Si Si4 0.325898 0.817021 0.610960
Si Si5 0.174406 0.318704 0.103956
Si Si6 0.675165 0.818594 0.500000
O O1 0.500000 0.792121 0.311359
O O2 0.398732 0.723347 0.247109
O O3 0.376245 0.754559 0.344678
O O4 0.405898 0.000000 0.286041
O O5 0.500000 0.716114 0.820380
O O6 0.402740 0.500000 0.820235
O O7 0.375359 0.783143 0.848800
O O8 0.250000 0.250000 0.000000
O O9 0.138806 0.246081 0.947508
O O10 0.172254 0.000000 0.000000
O O11 0.250000 0.750000 0.619532
O O12 0.358840 0.767244 0.554766
O O13 0.320465 0.000000 0.614502
O O14 0.182255 0.500000 0.096277
O O15 0.250000 0.250000 0.114840
O O16 0.750000 0.750000 0.500000
O O17 0.682186 0.000000 0.500000
#
# Coordination Sequence:
#
# PCOD8266810 Si02
#       6
#    16  16   8  16  16   8
#     4   9  18  33  50  68  94 129 165 201 246 299
#     4  10  21  37  55  75 101 134 171 211 257 306
#     4  10  18  32  53  78 109 140 171 207 251 299
#     4   9  17  29  47  70  95 124 159 200 243 291
#     4  11  21  35  56  81 108 137 172 211 252 299
#     4   8  14  26  43  65  93 123 155 192 240 292
#
# _framework density 18.383538000000001
#
# number of rings (size 3 to 8) (size 9 to 14) (size 15 to 20)
#    0.000    2.400    0.000    4.500    0.000    2.800 
#    0.000    3.000    0.000    6.000    0.000    0.000 
#    0.000   11.200    0.000    0.000    0.000    0.000 
#
# Total GULP energy -495743.495169 kJ/mol
# GULP energy per Si atom -12393.587379 kJ/mol
# Density = 1.834170 g / cm^3
# Si number density = 18.383538 Si / 1000 Ang^3
#
#
#
# Elastic Constant Matrix: (Units=GPa)
#
#
# Indices 1 2 3 4 5 6 
#
# 1 60.9012 28.0253 67.5100 0.0000 0.0000 0.0000
# 2 28.0253 87.3287 45.9244 0.0000 0.0000 0.0000
# 3 67.5100 45.9244 160.3662 0.0000 0.0000 0.0000
# 4 0.0000 0.0000 0.0000 26.8536 0.0000 0.0000
# 5 0.0000 0.0000 0.0000 0.0000 4.6461 0.0000
# 6 0.0000 0.0000 0.0000 0.0000 0.0000 23.5484
#
#
#
# Elastic Compliance Matrix: (Units=1/GPa)
#
#
# Indices 1 2 3 4 5 6 
#
# 1 0.031784 -0.003725 -0.012314 0.000000 0.000000 0.000000
# 2 -0.003725 0.013918 -0.002418 0.000000 0.000000 0.000000
# 3 -0.012314 -0.002418 0.012112 0.000000 0.000000 0.000000
# 4 0.000000 0.000000 0.000000 0.037239 0.000000 0.000000
# 5 0.000000 0.000000 0.000000 0.000000 0.215236 0.000000
# 6 0.000000 0.000000 0.000000 0.000000 0.000000 0.042466
#
#
# Mechanical properties :
#
#
# Convention : Reuss Voigt Hill
#
# Bulk Modulus (GPa) = 47.84311 65.72395 56.78353
# Shear Modulus (GPa) = 12.60613 22.15204 17.37909
#
# Velocity S-wave (km/s) = 2.62148 3.47507 3.07801
# Velocity P-wave (km/s) = 5.93670 7.20629 6.60208
#
# Compressibility (1/GPa) = 0.02090165
#
# Stress axis : x y z
#
# Youngs Moduli (GPa) = 31.46268 71.85107 82.56437
#
# Poissons Ratio (x) = 0.26761 1.01666
# Poissons Ratio (y) = 0.11718 0.19962
# Poissons Ratio (z) = 0.38742 0.17371
#
# Static dielectric constant tensor:
#      x y z
#    x 3.128310 0.000000 0.000000 
#    y 0.000000 3.418350 0.000000 
#    z 0.000000 0.000000 4.147010 
# 
# 
# High freq. dielectric constant tensor:
#      x y z
#    x 1.677030 0.000000 0.000000 
#    y 0.000000 1.715960 0.000000 
#    z 0.000000 0.000000 1.737350 
# 
# From -- ./inp_files/70778.got.cif
#   From: 2010.03.12/outbox.cif.g09.slc.cpg/sg65_36_cif.got.tgz:70778.got - 2010.04.10 20:52:16.
