data_PCOD8266603
_publ_section_title
;
Structure prediction by ZEFSAII (Michael W. Deem and Ramdas Pophale) SiO2 
 PCOD8266603
Probable space group: C M M M
;
_chemical_formula_sum "Si O2"
_cell_formula_units_Z 88
_cell_length_a 17.033710
_cell_length_b 28.706887
_cell_length_c 9.124959
_cell_angle_alpha 90.000000
_cell_angle_beta 90.000000
_cell_angle_gamma 90.000000
_cell_volume 4461.966144
_symmetry_space_group_name_H-M "C M M M"
_symmetry_group_IT_number 65
_symmetry_cell_setting 'orthorhombic'
loop_
_space_group_symop_operation_xyz
x,y,z
-x,-y,z
x,-y,-z
-x,y,-z
-x,-y,-z
x,y,-z
-x,y,z
x,-y,z
1/2+x,1/2+y,z
1/2-x,1/2-y,z
1/2+x,1/2-y,-z
1/2-x,1/2+y,-z
1/2-x,1/2-y,-z
1/2+x,1/2+y,-z
1/2-x,1/2+y,z
1/2+x,1/2-y,z
loop_
_atom_site_type_symbol
_atom_site_label
_atom_site_fract_x
_atom_site_fract_y
_atom_site_fract_z
Si Si1 0.154305 0.397121 0.673623
Si Si2 0.336163 0.267466 0.672276
Si Si3 0.500000 0.948782 0.674047
Si Si4 0.188847 0.947713 0.674315
Si Si5 0.410432 0.186873 0.170310
Si Si6 0.912240 0.863037 0.326370
O O1 0.156450 0.388770 0.500000
O O2 0.227710 0.427543 0.727110
O O3 0.152147 0.346975 0.750673
O O4 0.077395 0.423448 0.730282
O O5 0.349054 0.260194 0.500000
O O6 0.250000 0.250000 0.720331
O O7 0.400316 0.237596 0.759174
O O8 0.353140 0.321134 0.717884
O O9 0.500000 0.950958 0.500000
O O10 0.500000 0.000000 0.742658
O O11 0.187900 0.950110 0.500000
O O12 0.122035 0.912285 0.732858
O O13 0.175897 0.000000 0.738335
O O14 0.500000 0.170541 0.197783
O O15 0.390140 0.189004 0.000000
O O16 0.916963 0.865435 0.500000
O O17 0.000000 0.855800 0.261300
#
# Coordination Sequence:
#
# PCOD8266603 Si02
#       6
#    16  16   8  16  16  16
#     4  10  18  31  51  75 103 137 178 221 265 311
#     4  10  20  35  56  80 105 137 180 225 271 322
#     4   9  16  26  45  73  99 127 171 223 268 311
#     4   9  17  29  48  75 104 133 169 216 264 310
#     4  11  23  36  51  75 109 145 181 219 263 319
#     4   9  17  29  46  72 105 138 171 209 258 319
#
# _framework density 19.722248
#
# number of rings (size 3 to 8) (size 9 to 14) (size 15 to 20)
#    0.000    2.273    0.909    2.727    0.000    7.636 
#    0.000    1.818    0.000    2.727    0.000    0.000 
#    0.000    0.000    0.000    7.818    0.000    8.000 
#
# Total GULP energy -545484.332276 kJ/mol
# GULP energy per Si atom -12397.371188 kJ/mol
# Density = 1.967736 g / cm^3
# Si number density = 19.722248 Si / 1000 Ang^3
#
#
#
# Elastic Constant Matrix: (Units=GPa)
#
#
# Indices 1 2 3 4 5 6 
#
# 1 129.4878 69.1251 17.2714 0.0000 0.0000 0.0000
# 2 69.1251 171.0080 26.8880 0.0000 0.0000 0.0000
# 3 17.2714 26.8880 30.0883 0.0000 0.0000 0.0000
# 4 0.0000 0.0000 0.0000 2.0759 0.0000 0.0000
# 5 0.0000 0.0000 0.0000 0.0000 10.7874 0.0000
# 6 0.0000 0.0000 0.0000 0.0000 0.0000 36.3218
#
#
#
# Elastic Compliance Matrix: (Units=1/GPa)
#
#
# Indices 1 2 3 4 5 6 
#
# 1 0.010004 -0.003654 -0.002477 0.000000 0.000000 0.000000
# 2 -0.003654 0.008139 -0.005175 0.000000 0.000000 0.000000
# 3 -0.002477 -0.005175 0.039282 0.000000 0.000000 0.000000
# 4 0.000000 0.000000 0.000000 0.481715 0.000000 0.000000
# 5 0.000000 0.000000 0.000000 0.000000 0.092701 0.000000
# 6 0.000000 0.000000 0.000000 0.000000 0.000000 0.027532
#
#
# Mechanical properties :
#
#
# Convention : Reuss Voigt Hill
#
# Bulk Modulus (GPa) = 28.72595 61.90589 45.31592
# Shear Modulus (GPa) = 7.20888 24.32365 15.76627
#
# Velocity S-wave (km/s) = 1.91393 3.51566 2.83046
# Velocity P-wave (km/s) = 4.41373 6.92364 5.80594
#
# Compressibility (1/GPa) = 0.03481173
#
# Stress axis : x y z
#
# Youngs Moduli (GPa) = 99.96076 122.87173 25.45691
#
# Poissons Ratio (x) = 0.44902 0.06305
# Poissons Ratio (y) = 0.36529 0.13175
# Poissons Ratio (z) = 0.24758 0.63589
#
# Static dielectric constant tensor:
#      x y z
#    x 3.730610 0.000000 0.000000 
#    y 0.000000 3.876370 0.000000 
#    z 0.000000 0.000000 2.940500 
# 
# 
# High freq. dielectric constant tensor:
#      x y z
#    x 1.774960 0.000000 0.000000 
#    y 0.000000 1.784730 0.000000 
#    z 0.000000 0.000000 1.699620 
# 
# From -- ./inp_files/10071.got.cif
#   From: 2010.03.12/outbox.cif.g09.slc.cpg/sg65_6_cif.got.tgz:10071.got - 2010.04.10 20:52:16.
