data_PCOD8266612
_publ_section_title
;
Structure prediction by ZEFSAII (Michael W. Deem and Ramdas Pophale) SiO2 
 PCOD8266612
Probable space group: C M M M
;
_chemical_formula_sum "Si O2"
_cell_formula_units_Z 80
_cell_length_a 29.239086
_cell_length_b 8.694767
_cell_length_c 15.748849
_cell_angle_alpha 90.000000
_cell_angle_beta 90.000000
_cell_angle_gamma 90.000000
_cell_volume 4003.783266
_symmetry_space_group_name_H-M "C M M M"
_symmetry_group_IT_number 65
_symmetry_cell_setting 'orthorhombic'
loop_
_space_group_symop_operation_xyz
x,y,z
-x,-y,z
x,-y,-z
-x,y,-z
-x,-y,-z
x,y,-z
-x,y,z
x,-y,z
1/2+x,1/2+y,z
1/2-x,1/2-y,z
1/2+x,1/2-y,-z
1/2-x,1/2+y,-z
1/2-x,1/2-y,-z
1/2+x,1/2+y,-z
1/2-x,1/2+y,z
1/2+x,1/2-y,z
loop_
_atom_site_type_symbol
_atom_site_label
_atom_site_fract_x
_atom_site_fract_y
_atom_site_fract_z
Si Si1 0.892367 0.182300 0.906992
Si Si2 0.551386 0.316620 0.747494
Si Si3 0.613968 0.322982 0.594400
Si Si4 0.296420 0.681658 0.161835
Si Si5 0.703457 0.181202 0.346925
O O1 0.924153 0.250753 0.832189
O O2 0.839591 0.231152 0.894879
O O3 0.896230 0.000000 0.903466
O O4 0.908418 0.242672 0.000000
O O5 0.500000 0.250638 0.744334
O O6 0.550689 0.500000 0.749495
O O7 0.578090 0.258522 0.663676
O O8 0.592464 0.306418 0.500000
O O9 0.625719 0.500000 0.615167
O O10 0.660559 0.226033 0.595290
O O11 0.291560 0.500000 0.168910
O O12 0.250000 0.750000 0.120872
O O13 0.304792 0.748811 0.254554
O O14 0.750000 0.250000 0.387187
O O15 0.708454 0.000000 0.340773
#
# Coordination Sequence:
#
# PCOD8266612 Si02
#       5
#    16  16  16  16  16
#     4   9  17  29  48  76 110 143 175 217 267 316
#     4   9  17  31  52  78 108 140 176 221 271 319
#     4  10  20  35  55  80 110 142 177 219 267 317
#     4  10  18  31  51  76 109 144 181 219 262 315
#     4  11  21  34  55  80 109 144 182 219 263 315
#
# _framework density 19.981102
#
# number of rings (size 3 to 8) (size 9 to 14) (size 15 to 20)
#    0.000    2.200    2.000    3.600    0.000    2.000 
#    0.000    4.000    0.000    2.400    0.000    1.400 
#    0.000    1.600    0.000    0.000    0.000    0.000 
#
# Total GULP energy -495885.632487 kJ/mol
# GULP energy per Si atom -12397.140812 kJ/mol
# Density = 1.993562 g / cm^3
# Si number density = 19.981102 Si / 1000 Ang^3
#
#
#
# Elastic Constant Matrix: (Units=GPa)
#
#
# Indices 1 2 3 4 5 6 
#
# 1 160.4003 31.4068 84.9976 0.0000 0.0000 0.0000
# 2 31.4068 59.3303 15.1866 0.0000 0.0000 0.0000
# 3 84.9976 15.1866 145.0661 0.0000 0.0000 0.0000
# 4 0.0000 0.0000 0.0000 11.6712 0.0000 0.0000
# 5 0.0000 0.0000 0.0000 0.0000 16.3182 0.0000
# 6 0.0000 0.0000 0.0000 0.0000 0.0000 19.9353
#
#
#
# Elastic Compliance Matrix: (Units=1/GPa)
#
#
# Indices 1 2 3 4 5 6 
#
# 1 0.009821 -0.003828 -0.005353 0.000000 0.000000 0.000000
# 2 -0.003828 0.018811 0.000274 0.000000 0.000000 0.000000
# 3 -0.005353 0.000274 0.010001 0.000000 0.000000 0.000000
# 4 0.000000 0.000000 0.000000 0.085681 0.000000 0.000000
# 5 0.000000 0.000000 0.000000 0.000000 0.061281 0.000000
# 6 0.000000 0.000000 0.000000 0.000000 0.000000 0.050162
#
#
# Mechanical properties :
#
#
# Convention : Reuss Voigt Hill
#
# Bulk Modulus (GPa) = 48.03646 69.77541 58.90594
# Shear Modulus (GPa) = 19.19285 25.13198 22.16241
#
# Velocity S-wave (km/s) = 3.10264 3.55038 3.33403
# Velocity P-wave (km/s) = 6.07686 7.19746 6.66077
#
# Compressibility (1/GPa) = 0.02081752
#
# Stress axis : x y z
#
# Youngs Moduli (GPa) = 101.82386 53.15959 99.98525
#
# Poissons Ratio (x) = 0.20352 0.53527
# Poissons Ratio (y) = 0.38982 -0.02738
# Poissons Ratio (z) = 0.54511 -0.01456
#
# Static dielectric constant tensor:
#      x y z
#    x 3.882570 0.000000 0.000000 
#    y 0.000000 3.200360 0.000000 
#    z 0.000000 0.000000 3.735910 
# 
# 
# High freq. dielectric constant tensor:
#      x y z
#    x 1.780620 0.000000 0.000000 
#    y 0.000000 1.733210 0.000000 
#    z 0.000000 0.000000 1.781210 
# 
# From -- ./inp_files/57230.got.cif
#   From: 2010.03.12/outbox.cif.g09.slc.cpg/sg65_29_cif.got.tgz:57230.got - 2010.04.10 20:52:16.
