data_PCOD8266163
_publ_section_title
;
Structure prediction by ZEFSAII (Michael W. Deem and Ramdas Pophale) SiO2 
 PCOD8266163
Probable space group: C M M M
;
_chemical_formula_sum "Si O2"
_cell_formula_units_Z 96
_cell_length_a 29.939699
_cell_length_b 13.268356
_cell_length_c 14.859925
_cell_angle_alpha 90.000000
_cell_angle_beta 90.000000
_cell_angle_gamma 90.000000
_cell_volume 5903.113897
_symmetry_space_group_name_H-M "C M M M"
_symmetry_group_IT_number 65
_symmetry_cell_setting 'orthorhombic'
loop_
_space_group_symop_operation_xyz
x,y,z
-x,-y,z
x,-y,-z
-x,y,-z
-x,-y,-z
x,y,-z
-x,y,z
x,-y,z
1/2+x,1/2+y,z
1/2-x,1/2-y,z
1/2+x,1/2-y,-z
1/2-x,1/2+y,-z
1/2-x,1/2-y,-z
1/2+x,1/2+y,-z
1/2-x,1/2+y,z
1/2+x,1/2-y,z
loop_
_atom_site_type_symbol
_atom_site_label
_atom_site_fract_x
_atom_site_fract_y
_atom_site_fract_z
Si Si1 0.280275 0.613547 0.645047
Si Si2 0.313111 0.817861 0.402824
Si Si3 0.768826 0.111520 0.146379
Si Si4 0.949529 0.380250 0.601023
Si Si5 0.377103 0.114291 0.740292
Si Si6 0.175776 0.702095 0.099832
O O1 0.297421 0.500000 0.622301
O O2 0.317269 0.698412 0.622400
O O3 0.237236 0.642524 0.587090
O O4 0.266316 0.624926 0.747673
O O5 0.336323 0.833643 0.500000
O O6 0.335831 0.886827 0.328104
O O7 0.806966 0.183489 0.107128
O O8 0.718966 0.131466 0.111176
O O9 0.783045 0.000000 0.116932
O O10 0.936102 0.341698 0.500000
O O11 0.945392 0.500000 0.601827
O O12 0.918249 0.337521 0.682203
O O13 0.000000 0.345930 0.622499
O O14 0.363870 0.178772 0.828759
O O15 0.387225 0.000000 0.771309
O O16 0.155687 0.685396 0.000000
#
# Coordination Sequence:
#
# PCOD8266163 Si02
#       6
#    16  16  16  16  16  16
#     4  10  18  30  44  57  84 121 150 185 225 262
#     4  11  20  29  42  61  86 117 153 184 218 264
#     4  10  18  32  49  61  84 123 161 197 233 261
#     4   8  15  29  49  71  92 116 145 175 214 266
#     4  11  20  31  45  65  93 117 146 187 224 258
#     4  11  21  32  46  65  89 117 156 197 232 269
#
# _framework density 16.262602000000001
#
# number of rings (size 3 to 8) (size 9 to 14) (size 15 to 20)
#    0.000    1.833    3.333    5.000    0.000    5.333 
#    0.000    0.000    0.000    0.500    0.000    2.333 
#    0.000    2.667    0.000   10.667    0.000    0.667 
#
# Total GULP energy -594780.553300 kJ/mol
# GULP energy per Si atom -12391.261527 kJ/mol
# Density = 1.622559 g / cm^3
# Si number density = 16.262602 Si / 1000 Ang^3
#
#
#
# Elastic Constant Matrix: (Units=GPa)
#
#
# Indices 1 2 3 4 5 6 
#
# 1 65.3628 9.7033 40.2166 0.0000 0.0000 0.0000
# 2 9.7033 62.8131 25.1923 0.0000 0.0000 0.0000
# 3 40.2166 25.1923 133.7355 0.0000 0.0000 0.0000
# 4 0.0000 0.0000 0.0000 3.8113 0.0000 0.0000
# 5 0.0000 0.0000 0.0000 0.0000 5.8117 0.0000
# 6 0.0000 0.0000 0.0000 0.0000 0.0000 11.5790
#
#
#
# Elastic Compliance Matrix: (Units=1/GPa)
#
#
# Indices 1 2 3 4 5 6 
#
# 1 0.018800 -0.000689 -0.005524 0.000000 0.000000 0.000000
# 2 -0.000689 0.017247 -0.003042 0.000000 0.000000 0.000000
# 3 -0.005524 -0.003042 0.009712 0.000000 0.000000 0.000000
# 4 0.000000 0.000000 0.000000 0.262381 0.000000 0.000000
# 5 0.000000 0.000000 0.000000 0.000000 0.172068 0.000000
# 6 0.000000 0.000000 0.000000 0.000000 0.000000 0.086364
#
#
# Mechanical properties :
#
#
# Convention : Reuss Voigt Hill
#
# Bulk Modulus (GPa) = 36.69765 45.79289 41.24527
# Shear Modulus (GPa) = 8.41521 16.69365 12.55443
#
# Velocity S-wave (km/s) = 2.27724 3.20739 2.78147
# Velocity P-wave (km/s) = 5.43407 6.47580 5.97767
#
# Compressibility (1/GPa) = 0.02724970
#
# Stress axis : x y z
#
# Youngs Moduli (GPa) = 53.19098 57.98258 102.97053
#
# Poissons Ratio (x) = 0.03994 0.56879
# Poissons Ratio (y) = 0.03664 0.31320
# Poissons Ratio (z) = 0.29382 0.17636
#
# Static dielectric constant tensor:
#      x y z
#    x 2.815720 0.000000 0.000000 
#    y 0.000000 3.141860 0.000000 
#    z 0.000000 0.000000 3.241830 
# 
# 
# High freq. dielectric constant tensor:
#      x y z
#    x 1.566500 0.000000 0.000000 
#    y 0.000000 1.609790 0.000000 
#    z 0.000000 0.000000 1.640510 
# 
# From -- ./inp_files/47866.got.cif
#   From: 2010.03.12/outbox.cif.g09.slc.cpg/sg65_24_cif.got.tgz:47866.got - 2010.04.10 20:52:16.
