data_PCOD8266215
_publ_section_title
;
Structure prediction by ZEFSAII (Michael W. Deem and Ramdas Pophale) SiO2 
 PCOD8266215
Probable space group: C M M M
;
_chemical_formula_sum "Si O2"
_cell_formula_units_Z 88
_cell_length_a 28.495986
_cell_length_b 16.893603
_cell_length_c 11.626286
_cell_angle_alpha 90.000000
_cell_angle_beta 90.000000
_cell_angle_gamma 90.000000
_cell_volume 5596.892622
_symmetry_space_group_name_H-M "C M M M"
_symmetry_group_IT_number 65
_symmetry_cell_setting 'orthorhombic'
loop_
_space_group_symop_operation_xyz
x,y,z
-x,-y,z
x,-y,-z
-x,y,-z
-x,-y,-z
x,y,-z
-x,y,z
x,-y,z
1/2+x,1/2+y,z
1/2-x,1/2-y,z
1/2+x,1/2-y,-z
1/2-x,1/2+y,-z
1/2-x,1/2-y,-z
1/2+x,1/2+y,-z
1/2-x,1/2+y,z
1/2+x,1/2-y,z
loop_
_atom_site_type_symbol
_atom_site_label
_atom_site_fract_x
_atom_site_fract_y
_atom_site_fract_z
Si Si1 0.946914 0.655100 0.756203
Si Si2 0.816522 0.588916 0.000000
Si Si3 0.444450 0.000000 0.626995
Si Si4 0.717317 0.326228 0.373494
Si Si5 0.206364 0.406762 0.752677
Si Si6 0.427311 0.908958 0.000000
Si Si7 0.861873 0.286388 0.363976
O O1 0.927330 0.576434 0.694910
O O2 0.910164 0.720622 0.710111
O O3 0.000000 0.678110 0.718956
O O4 0.946496 0.639962 0.891887
O O5 0.797825 0.628730 0.117451
O O6 0.872058 0.591827 0.000000
O O7 0.797430 0.500000 0.000000
O O8 0.500000 0.000000 0.620197
O O9 0.422051 0.000000 0.500000
O O10 0.714283 0.365204 0.500000
O O11 0.750000 0.250000 0.378258
O O12 0.740041 0.390551 0.287757
O O13 0.665974 0.295162 0.334771
O O14 0.194882 0.500000 0.748517
O O15 0.168909 0.362764 0.671873
O O16 0.446263 0.000000 0.000000
O O17 0.872585 0.292701 0.500000
#
# Coordination Sequence:
#
# PCOD8266215 Si02
#       7
#    16   8   8  16  16   8  16
#     4  11  21  31  44  60  81 114 152 186 217 254
#     4   9  18  29  42  62  88 114 145 183 218 254
#     4   9  18  29  39  57  81 102 135 183 221 245
#     4   8  16  31  46  62  86 113 139 175 224 270
#     4  10  18  30  47  66  86 112 148 183 215 260
#     4  11  19  32  44  56  83 119 153 187 227 256
#     4  10  20  32  45  62  89 117 142 181 227 265
#
# _framework density 15.723011
#
# number of rings (size 3 to 8) (size 9 to 14) (size 15 to 20)
#    0.000    2.273    2.727    2.455    1.273    2.909 
#    0.000    5.000    0.000    0.000    0.000    0.000 
#    0.000    0.727    0.000    4.000    0.000    7.455 
#
# Total GULP energy -545293.843921 kJ/mol
# GULP energy per Si atom -12393.041907 kJ/mol
# Density = 1.568722 g / cm^3
# Si number density = 15.723011 Si / 1000 Ang^3
#
#
#
# Elastic Constant Matrix: (Units=GPa)
#
#
# Indices 1 2 3 4 5 6 
#
# 1 96.8689 20.3006 38.3318 0.0000 0.0000 0.0000
# 2 20.3006 18.1918 13.5749 0.0000 0.0000 0.0000
# 3 38.3318 13.5749 96.6883 0.0000 0.0000 0.0000
# 4 0.0000 0.0000 0.0000 9.7246 0.0000 0.0000
# 5 0.0000 0.0000 0.0000 0.0000 69.8916 0.0000
# 6 0.0000 0.0000 0.0000 0.0000 0.0000 20.0908
#
#
#
# Elastic Compliance Matrix: (Units=1/GPa)
#
#
# Indices 1 2 3 4 5 6 
#
# 1 0.014705 -0.013470 -0.003938 0.000000 0.000000 0.000000
# 2 -0.013470 0.073742 -0.005013 0.000000 0.000000 0.000000
# 3 -0.003938 -0.005013 0.012608 0.000000 0.000000 0.000000
# 4 0.000000 0.000000 0.000000 0.102832 0.000000 0.000000
# 5 0.000000 0.000000 0.000000 0.000000 0.014308 0.000000
# 6 0.000000 0.000000 0.000000 0.000000 0.000000 0.049774
#
#
# Mechanical properties :
#
#
# Convention : Reuss Voigt Hill
#
# Bulk Modulus (GPa) = 17.79008 39.57373 28.68190
# Shear Modulus (GPa) = 15.08072 29.24416 22.16244
#
# Velocity S-wave (km/s) = 3.10037 4.31740 3.75848
# Velocity P-wave (km/s) = 4.91484 7.07653 6.09233
#
# Compressibility (1/GPa) = 0.05621111
#
# Stress axis : x y z
#
# Youngs Moduli (GPa) = 68.00575 13.56075 79.31658
#
# Poissons Ratio (x) = 0.18267 0.31238
# Poissons Ratio (y) = 0.91606 0.39762
# Poissons Ratio (z) = 0.26783 0.06798
#
# Static dielectric constant tensor:
#      x y z
#    x 3.096920 0.000000 0.000000 
#    y 0.000000 2.685570 0.000000 
#    z 0.000000 0.000000 3.272750 
# 
# 
# High freq. dielectric constant tensor:
#      x y z
#    x 1.597360 0.000000 0.000000 
#    y 0.000000 1.537380 0.000000 
#    z 0.000000 0.000000 1.619840 
# 
# From -- ./inp_files/34101.got.cif
#   From: 2010.03.12/outbox.cif.g09.slc.cpg/sg65_18_cif.got.tgz:34101.got - 2010.04.10 20:52:16.
