data_PCOD8266450
_publ_section_title
;
Structure prediction by ZEFSAII (Michael W. Deem and Ramdas Pophale) SiO2 
 PCOD8266450
Probable space group: C M M M
;
_chemical_formula_sum "Si O2"
_cell_formula_units_Z 104
_cell_length_a 26.204622
_cell_length_b 9.310148
_cell_length_c 24.231419
_cell_angle_alpha 90.000000
_cell_angle_beta 90.000000
_cell_angle_gamma 90.000000
_cell_volume 5911.712859
_symmetry_space_group_name_H-M "C M M M"
_symmetry_group_IT_number 65
_symmetry_cell_setting 'orthorhombic'
loop_
_space_group_symop_operation_xyz
x,y,z
-x,-y,z
x,-y,-z
-x,y,-z
-x,-y,-z
x,y,-z
-x,y,z
x,-y,z
1/2+x,1/2+y,z
1/2-x,1/2-y,z
1/2+x,1/2-y,-z
1/2-x,1/2+y,-z
1/2-x,1/2-y,-z
1/2+x,1/2+y,-z
1/2-x,1/2+y,z
1/2+x,1/2-y,z
loop_
_atom_site_type_symbol
_atom_site_label
_atom_site_fract_x
_atom_site_fract_y
_atom_site_fract_z
Si Si1 0.939706 0.668186 0.267064
Si Si2 0.097971 0.829892 0.370810
Si Si3 0.294190 0.844233 0.064719
Si Si4 0.557949 0.658112 0.837175
Si Si5 0.000000 0.170083 0.561091
Si Si6 0.300411 0.332479 0.563504
Si Si7 0.408023 0.830710 0.062877
O O1 0.927119 0.500000 0.264962
O O2 0.906293 0.743677 0.314075
O O3 0.919051 0.739098 0.210169
O O4 0.000000 0.694404 0.276881
O O5 0.150819 0.786664 0.400268
O O6 0.050962 0.777217 0.408444
O O7 0.094968 0.000000 0.359231
O O8 0.250000 0.750000 0.093028
O O9 0.350094 0.779139 0.074307
O O10 0.291008 0.000000 0.092777
O O11 0.283879 0.859324 0.000000
O O12 0.500000 0.632382 0.821167
O O13 0.584876 0.500000 0.839282
O O14 0.558285 0.737148 0.896216
O O15 0.000000 0.237810 0.500000
O O16 0.000000 0.000000 0.557290
O O17 0.312463 0.292738 0.500000
O O18 0.289282 0.500000 0.570060
O O19 0.250000 0.250000 0.584602
O O20 0.414697 0.000000 0.074254
O O21 0.424182 0.796523 0.000000
#
# Coordination Sequence:
#
# PCOD8266450 Si02
#       7
#    16  16  16  16   8  16  16
#     4  10  20  34  52  73  98 128 164 203 250 309
#     4  10  18  30  51  76 102 133 171 213 253 298
#     4   8  14  25  42  65  92 121 152 185 223 274
#     4  10  21  35  51  71  96 127 166 209 249 292
#     4   9  16  26  45  75 107 135 162 199 248 297
#     4   9  18  32  50  74 104 140 181 218 253 299
#     4   9  18  32  49  71 100 131 162 197 243 300
#
# _framework density 17.592193000000002
#
# number of rings (size 3 to 8) (size 9 to 14) (size 15 to 20)
#    0.000    2.692    0.769    2.308    0.000    5.231 
#    0.000    3.077    0.000    2.769    0.000    6.462 
#    0.000    0.000    0.000    0.000    0.000    0.000 
#
# Total GULP energy -644529.448421 kJ/mol
# GULP energy per Si atom -12394.797085 kJ/mol
# Density = 1.755215 g / cm^3
# Si number density = 17.592193 Si / 1000 Ang^3
#
#
#
# Elastic Constant Matrix: (Units=GPa)
#
#
# Indices 1 2 3 4 5 6 
#
# 1 81.9758 40.0320 41.5802 0.0000 0.0000 0.0000
# 2 40.0320 86.1763 60.6490 0.0000 0.0000 0.0000
# 3 41.5802 60.6490 116.1382 0.0000 0.0000 0.0000
# 4 0.0000 0.0000 0.0000 26.0828 0.0000 0.0000
# 5 0.0000 0.0000 0.0000 0.0000 19.3264 0.0000
# 6 0.0000 0.0000 0.0000 0.0000 0.0000 27.7553
#
#
#
# Elastic Compliance Matrix: (Units=1/GPa)
#
#
# Indices 1 2 3 4 5 6 
#
# 1 0.016412 -0.005516 -0.002995 0.000000 0.000000 0.000000
# 2 -0.005516 0.020201 -0.008574 0.000000 0.000000 0.000000
# 3 -0.002995 -0.008574 0.014161 0.000000 0.000000 0.000000
# 4 0.000000 0.000000 0.000000 0.038339 0.000000 0.000000
# 5 0.000000 0.000000 0.000000 0.000000 0.051743 0.000000
# 6 0.000000 0.000000 0.000000 0.000000 0.000000 0.036029
#
#
# Mechanical properties :
#
#
# Convention : Reuss Voigt Hill
#
# Bulk Modulus (GPa) = 60.23373 63.20141 61.71757
# Shear Modulus (GPa) = 23.08517 24.10149 23.59333
#
# Velocity S-wave (km/s) = 3.62641 3.70538 3.66611
# Velocity P-wave (km/s) = 7.20054 7.36955 7.28553
#
# Compressibility (1/GPa) = 0.01660199
#
# Stress axis : x y z
#
# Youngs Moduli (GPa) = 60.93261 49.50286 70.61892
#
# Poissons Ratio (x) = 0.27304 0.21153
# Poissons Ratio (y) = 0.33609 0.60552
# Poissons Ratio (z) = 0.18251 0.42446
#
# Static dielectric constant tensor:
#      x y z
#    x 3.185010 0.000000 0.000000 
#    y 0.000000 3.400930 0.000000 
#    z 0.000000 0.000000 3.111820 
# 
# 
# High freq. dielectric constant tensor:
#      x y z
#    x 1.663480 0.000000 0.000000 
#    y 0.000000 1.675430 0.000000 
#    z 0.000000 0.000000 1.662980 
# 
# From -- ./inp_files/60860.got.cif
#   From: 2010.03.12/outbox.cif.g09.slc.cpg/sg65_31_cif.got.tgz:60860.got - 2010.04.10 20:52:16.
