data_PCOD8266681
_publ_section_title
;
Structure prediction by ZEFSAII (Michael W. Deem and Ramdas Pophale) SiO2 
 PCOD8266681
Probable space group: C M M M
;
_chemical_formula_sum "Si O2"
_cell_formula_units_Z 96
_cell_length_a 19.886689
_cell_length_b 19.157331
_cell_length_c 13.789993
_cell_angle_alpha 90.000000
_cell_angle_beta 90.000000
_cell_angle_gamma 90.000000
_cell_volume 5253.654769
_symmetry_space_group_name_H-M "C M M M"
_symmetry_group_IT_number 65
_symmetry_cell_setting 'orthorhombic'
loop_
_space_group_symop_operation_xyz
x,y,z
-x,-y,z
x,-y,-z
-x,y,-z
-x,-y,-z
x,y,-z
-x,y,z
x,-y,z
1/2+x,1/2+y,z
1/2-x,1/2-y,z
1/2+x,1/2-y,-z
1/2-x,1/2+y,-z
1/2-x,1/2-y,-z
1/2+x,1/2+y,-z
1/2-x,1/2+y,z
1/2+x,1/2-y,z
loop_
_atom_site_type_symbol
_atom_site_label
_atom_site_fract_x
_atom_site_fract_y
_atom_site_fract_z
Si Si1 0.287869 0.181936 0.611297
Si Si2 0.426457 0.253124 0.105074
Si Si3 0.199746 0.919352 0.285193
Si Si4 0.076230 0.861647 0.387080
Si Si5 0.789355 0.178893 0.108894
Si Si6 0.425956 0.205292 0.309583
O O1 0.296681 0.198167 0.500000
O O2 0.250000 0.250000 0.659069
O O3 0.243918 0.113201 0.628415
O O4 0.362473 0.163555 0.650505
O O5 0.500000 0.290117 0.111902
O O6 0.369496 0.311269 0.113545
O O7 0.420528 0.198636 0.192915
O O8 0.419020 0.214448 0.000000
O O9 0.122416 0.909905 0.318511
O O10 0.224429 0.881602 0.186294
O O11 0.215970 0.000000 0.271486
O O12 0.099222 0.863360 0.500000
O O13 0.082803 0.783966 0.346437
O O14 0.000000 0.889119 0.377741
O O15 0.750000 0.250000 0.137214
O O16 0.767518 0.155621 0.000000
O O17 0.500000 0.176947 0.343293
#
# Coordination Sequence:
#
# PCOD8266681 Si02
#       6
#    16  16  16  16  16  16
#     4  11  21  35  55  77 104 140 183 231 274 318
#     4   9  16  27  48  77 106 134 166 210 261 314
#     4  12  24  36  53  78 111 148 181 218 271 327
#     4  10  20  34  52  76 107 144 185 225 265 314
#     4  10  20  36  58  80 104 138 180 223 267 316
#     4  10  18  31  54  81 107 134 175 231 281 321
#
# _framework density 18.272993
#
# number of rings (size 3 to 8) (size 9 to 14) (size 15 to 20)
#    0.000    1.667    3.333    2.500    0.000    3.000 
#    0.000    0.833    0.000    0.500    0.000    4.667 
#    0.000    0.000    0.000   30.000    0.000    0.000 
#
# Total GULP energy -594724.300220 kJ/mol
# GULP energy per Si atom -12390.089588 kJ/mol
# Density = 1.823140 g / cm^3
# Si number density = 18.272993 Si / 1000 Ang^3
#
#
#
# Elastic Constant Matrix: (Units=GPa)
#
#
# Indices 1 2 3 4 5 6 
#
# 1 110.5493 32.7677 28.1234 0.0000 0.0000 0.0000
# 2 32.7677 78.4083 28.4799 0.0000 0.0000 0.0000
# 3 28.1234 28.4799 101.2503 0.0000 0.0000 0.0000
# 4 0.0000 0.0000 0.0000 12.1337 0.0000 0.0000
# 5 0.0000 0.0000 0.0000 0.0000 28.0568 0.0000
# 6 0.0000 0.0000 0.0000 0.0000 0.0000 15.4753
#
#
#
# Elastic Compliance Matrix: (Units=1/GPa)
#
#
# Indices 1 2 3 4 5 6 
#
# 1 0.010643 -0.003758 -0.001899 0.000000 0.000000 0.000000
# 2 -0.003758 0.015532 -0.003325 0.000000 0.000000 0.000000
# 3 -0.001899 -0.003325 0.011339 0.000000 0.000000 0.000000
# 4 0.000000 0.000000 0.000000 0.082415 0.000000 0.000000
# 5 0.000000 0.000000 0.000000 0.000000 0.035642 0.000000
# 6 0.000000 0.000000 0.000000 0.000000 0.000000 0.064619
#
#
# Mechanical properties :
#
#
# Convention : Reuss Voigt Hill
#
# Bulk Modulus (GPa) = 51.15131 52.10554 51.62843
# Shear Modulus (GPa) = 20.43562 24.52230 22.47896
#
# Velocity S-wave (km/s) = 3.34780 3.66730 3.51119
# Velocity P-wave (km/s) = 6.55724 6.81976 6.68978
#
# Compressibility (1/GPa) = 0.01954984
#
# Stress axis : x y z
#
# Youngs Moduli (GPa) = 93.96077 64.38334 88.18893
#
# Poissons Ratio (x) = 0.24195 0.16748
# Poissons Ratio (y) = 0.35310 0.29323
# Poissons Ratio (z) = 0.17844 0.21408
#
# Static dielectric constant tensor:
#      x y z
#    x 3.772610 0.000000 0.000000 
#    y 0.000000 2.723970 0.000000 
#    z 0.000000 0.000000 3.728110 
# 
# 
# High freq. dielectric constant tensor:
#      x y z
#    x 1.730910 0.000000 0.000000 
#    y 0.000000 1.620920 0.000000 
#    z 0.000000 0.000000 1.732850 
# 
# From -- ./inp_files/44102.got.cif
#   From: 2010.03.12/outbox.cif.g09.slc.cpg/sg65_23_cif.got.tgz:44102.got - 2010.04.10 20:52:16.
