data_PCOD8266269
_publ_section_title
;
Structure prediction by ZEFSAII (Michael W. Deem and Ramdas Pophale) SiO2 
 PCOD8266269
Probable space group: C M M M
;
_chemical_formula_sum "Si O2"
_cell_formula_units_Z 104
_cell_length_a 9.604357
_cell_length_b 29.301016
_cell_length_c 23.036246
_cell_angle_alpha 90.000000
_cell_angle_beta 90.000000
_cell_angle_gamma 90.000000
_cell_volume 6482.800873
_symmetry_space_group_name_H-M "C M M M"
_symmetry_group_IT_number 65
_symmetry_cell_setting 'orthorhombic'
loop_
_space_group_symop_operation_xyz
x,y,z
-x,-y,z
x,-y,-z
-x,y,-z
-x,-y,-z
x,y,-z
-x,y,z
x,-y,z
1/2+x,1/2+y,z
1/2-x,1/2-y,z
1/2+x,1/2-y,-z
1/2-x,1/2+y,-z
1/2-x,1/2-y,-z
1/2+x,1/2+y,-z
1/2-x,1/2+y,z
1/2+x,1/2-y,z
loop_
_atom_site_type_symbol
_atom_site_label
_atom_site_fract_x
_atom_site_fract_y
_atom_site_fract_z
Si Si1 0.164456 0.050054 0.334319
Si Si2 0.337507 0.446729 0.203569
Si Si3 0.664722 0.892505 0.111215
Si Si4 0.666483 0.611815 0.435962
Si Si5 0.334837 0.051502 0.000000
Si Si6 0.848042 0.787627 0.567790
Si Si7 0.161073 0.293314 0.932436
O O1 0.197910 0.067636 0.269705
O O2 0.231172 0.081055 0.384859
O O3 0.000000 0.047871 0.342727
O O4 0.229198 0.000000 0.342618
O O5 0.500000 0.438974 0.189817
O O6 0.299112 0.500000 0.192682
O O7 0.244911 0.412583 0.166086
O O8 0.500000 0.898553 0.120243
O O9 0.718364 0.921495 0.056238
O O10 0.702608 0.839117 0.102579
O O11 0.716784 0.595060 0.500000
O O12 0.500000 0.612272 0.435113
O O13 0.720562 0.662792 0.423392
O O14 0.500000 0.050210 0.000000
O O15 0.273672 0.000000 0.000000
O O16 0.864605 0.777108 0.500000
O O17 0.750000 0.750000 0.597980
O O18 0.000000 0.784927 0.597609
O O19 0.250000 0.250000 0.909877
O O20 0.000000 0.281345 0.922429
O O21 0.191407 0.302942 0.000000
#
# Coordination Sequence:
#
# PCOD8266269 Si02
#       7
#    16  16  16  16   8  16  16
#     4   8  14  25  40  58  83 115 146 175 212 259
#     4   9  18  31  45  63  89 120 152 183 217 264
#     4  10  18  30  48  69  90 115 149 185 219 258
#     4   8  13  21  36  60  85 107 137 178 219 257
#     4   9  16  26  42  65  91 115 139 173 218 259
#     4   8  13  21  34  54  80 106 131 162 201 246
#     4   9  17  30  47  68  93 117 145 182 222 265
#
# _framework density 16.042448
#
# number of rings (size 3 to 8) (size 9 to 14) (size 15 to 20)
#    0.000    3.308    0.769    2.308    0.000    1.846 
#    0.000    1.923    0.000    3.231    0.000    4.308 
#    0.000    0.000    0.000    9.385    0.000    9.538 
#
# Total GULP energy -644367.930991 kJ/mol
# GULP energy per Si atom -12391.690981 kJ/mol
# Density = 1.600593 g / cm^3
# Si number density = 16.042448 Si / 1000 Ang^3
#
#
#
# Elastic Constant Matrix: (Units=GPa)
#
#
# Indices 1 2 3 4 5 6 
#
# 1 38.2888 44.6276 32.8257 0.0000 0.0000 0.0000
# 2 44.6276 129.2752 73.4530 0.0000 0.0000 0.0000
# 3 32.8257 73.4530 102.3503 0.0000 0.0000 0.0000
# 4 0.0000 0.0000 0.0000 15.6969 0.0000 0.0000
# 5 0.0000 0.0000 0.0000 0.0000 11.5070 0.0000
# 6 0.0000 0.0000 0.0000 0.0000 0.0000 23.3546
#
#
#
# Elastic Compliance Matrix: (Units=1/GPa)
#
#
# Indices 1 2 3 4 5 6 
#
# 1 0.045532 -0.012531 -0.005610 0.000000 0.000000 0.000000
# 2 -0.012531 0.016510 -0.007830 0.000000 0.000000 0.000000
# 3 -0.005610 -0.007830 0.017189 0.000000 0.000000 0.000000
# 4 0.000000 0.000000 0.000000 0.063707 0.000000 0.000000
# 5 0.000000 0.000000 0.000000 0.000000 0.086904 0.000000
# 6 0.000000 0.000000 0.000000 0.000000 0.000000 0.042818
#
#
# Mechanical properties :
#
#
# Convention : Reuss Voigt Hill
#
# Bulk Modulus (GPa) = 36.64398 63.52521 50.08460
# Shear Modulus (GPa) = 14.98361 18.04556 16.51458
#
# Velocity S-wave (km/s) = 3.05945 3.35754 3.21195
# Velocity P-wave (km/s) = 5.94742 7.39695 6.71143
#
# Compressibility (1/GPa) = 0.02728961
#
# Stress axis : x y z
#
# Youngs Moduli (GPa) = 21.96247 60.56939 58.17722
#
# Poissons Ratio (x) = 0.75897 0.32639
# Poissons Ratio (y) = 0.27520 0.45552
# Poissons Ratio (z) = 0.12322 0.47425
#
# Static dielectric constant tensor:
#      x y z
#    x 2.828450 0.000000 0.000000 
#    y 0.000000 3.273850 0.000000 
#    z 0.000000 0.000000 2.971600 
# 
# 
# High freq. dielectric constant tensor:
#      x y z
#    x 1.575920 0.000000 0.000000 
#    y 0.000000 1.622840 0.000000 
#    z 0.000000 0.000000 1.594130 
# 
# From -- ./inp_files/68563.got.cif
#   From: 2010.03.12/outbox.cif.g09.slc.cpg/sg65_35_cif.got.tgz:68563.got - 2010.04.10 20:52:16.
