data_PCOD8266803
_publ_section_title
;
Structure prediction by ZEFSAII (Michael W. Deem and Ramdas Pophale) SiO2 
 PCOD8266803
Probable space group: C M M M
;
_chemical_formula_sum "Si O2"
_cell_formula_units_Z 104
_cell_length_a 8.845618
_cell_length_b 19.825309
_cell_length_c 32.232657
_cell_angle_alpha 90.000000
_cell_angle_beta 90.000000
_cell_angle_gamma 90.000000
_cell_volume 5652.547910
_symmetry_space_group_name_H-M "C M M M"
_symmetry_group_IT_number 65
_symmetry_cell_setting 'orthorhombic'
loop_
_space_group_symop_operation_xyz
x,y,z
-x,-y,z
x,-y,-z
-x,y,-z
-x,-y,-z
x,y,-z
-x,y,z
x,-y,z
1/2+x,1/2+y,z
1/2-x,1/2-y,z
1/2+x,1/2-y,-z
1/2-x,1/2+y,-z
1/2-x,1/2-y,-z
1/2+x,1/2+y,-z
1/2-x,1/2+y,z
1/2+x,1/2-y,z
loop_
_atom_site_type_symbol
_atom_site_label
_atom_site_fract_x
_atom_site_fract_y
_atom_site_fract_z
Si Si1 0.179224 0.823457 0.416851
Si Si2 0.681072 0.824192 0.500000
Si Si3 0.673784 0.921818 0.047268
Si Si4 0.177083 0.818542 0.106612
Si Si5 0.328000 0.077694 0.258249
Si Si6 0.176660 0.818271 0.799739
Si Si7 0.825318 0.577654 0.645868
O O1 0.250000 0.750000 0.407841
O O2 0.253864 0.857841 0.458028
O O3 0.215317 0.873430 0.379309
O O4 0.000000 0.815735 0.422505
O O5 0.500000 0.824866 0.500000
O O6 0.750000 0.750000 0.500000
O O7 0.500000 0.904704 0.056691
O O8 0.779205 0.880707 0.077931
O O9 0.706696 0.000000 0.055223
O O10 0.713696 0.902677 0.000000
O O11 0.250000 0.750000 0.089134
O O12 0.234586 0.832846 0.153480
O O13 0.000000 0.808841 0.105346
O O14 0.500000 0.098440 0.248709
O O15 0.217494 0.119852 0.229521
O O16 0.290279 0.091473 0.306125
O O17 0.300871 0.000000 0.247415
O O18 0.250000 0.750000 0.782093
O O19 0.000000 0.807607 0.799060
O O20 0.789555 0.500000 0.634665
O O21 0.000000 0.593978 0.635722
#
# Coordination Sequence:
#
# PCOD8266803 Si02
#       7
#    16   8  16  16  16  16  16
#     4  11  21  34  54  80 108 138 176 217 259 309
#     4  10  18  32  53  76 105 138 173 215 263 309
#     4   9  19  36  56  78 105 137 173 213 257 306
#     4  10  21  36  54  77 105 138 175 214 259 309
#     4   9  19  36  57  79 104 137 175 213 257 312
#     4  10  21  36  54  77 106 138 173 216 261 307
#     4   9  19  37  57  77 105 139 174 214 261 311
#
# _framework density 18.398782000000001
#
# number of rings (size 3 to 8) (size 9 to 14) (size 15 to 20)
#    0.000    2.308    0.000    5.308    0.000    5.231 
#    0.000    5.769    0.000    2.308    0.000    0.000 
#    0.000    0.000    0.000    0.000    0.000    0.000 
#
# Total GULP energy -644837.847193 kJ/mol
# GULP energy per Si atom -12400.727831 kJ/mol
# Density = 1.835691 g / cm^3
# Si number density = 18.398782 Si / 1000 Ang^3
#
#
#
# Elastic Constant Matrix: (Units=GPa)
#
#
# Indices 1 2 3 4 5 6 
#
# 1 101.7196 44.0189 45.1943 0.0000 0.0000 0.0000
# 2 44.0189 83.6275 58.4784 0.0000 0.0000 0.0000
# 3 45.1943 58.4784 88.8261 0.0000 0.0000 0.0000
# 4 0.0000 0.0000 0.0000 48.5155 0.0000 0.0000
# 5 0.0000 0.0000 0.0000 0.0000 35.0556 0.0000
# 6 0.0000 0.0000 0.0000 0.0000 0.0000 35.2304
#
#
#
# Elastic Compliance Matrix: (Units=1/GPa)
#
#
# Indices 1 2 3 4 5 6 
#
# 1 0.013474 -0.004259 -0.004052 0.000000 0.000000 0.000000
# 2 -0.004259 0.023505 -0.013308 0.000000 0.000000 0.000000
# 3 -0.004052 -0.013308 0.022080 0.000000 0.000000 0.000000
# 4 0.000000 0.000000 0.000000 0.020612 0.000000 0.000000
# 5 0.000000 0.000000 0.000000 0.000000 0.028526 0.000000
# 6 0.000000 0.000000 0.000000 0.000000 0.000000 0.028385
#
#
# Mechanical properties :
#
#
# Convention : Reuss Voigt Hill
#
# Bulk Modulus (GPa) = 63.19854 63.28405 63.24129
# Shear Modulus (GPa) = 27.01328 32.19238 29.60283
#
# Velocity S-wave (km/s) = 3.83588 4.18748 4.01553
# Velocity P-wave (km/s) = 7.35136 7.60595 7.47974
#
# Compressibility (1/GPa) = 0.01582315
#
# Stress axis : x y z
#
# Youngs Moduli (GPa) = 74.21556 42.54337 45.28904
#
# Poissons Ratio (x) = 0.18121 0.18349
# Poissons Ratio (y) = 0.31611 0.60269
# Poissons Ratio (z) = 0.30069 0.56615
#
# Static dielectric constant tensor:
#      x y z
#    x 3.316450 0.000000 0.000000 
#    y 0.000000 3.220680 0.000000 
#    z 0.000000 0.000000 3.595650 
# 
# 
# High freq. dielectric constant tensor:
#      x y z
#    x 1.717460 0.000000 0.000000 
#    y 0.000000 1.703830 0.000000 
#    z 0.000000 0.000000 1.718830 
# 
# From -- ./inp_files/73349.got.cif
#   From: 2010.03.12/outbox.cif.g09.slc.cpg/sg65_37_cif.got.tgz:73349.got - 2010.04.10 20:52:16.
