data_PCOD8266987
_publ_section_title
;
Structure prediction by ZEFSAII (Michael W. Deem and Ramdas Pophale) SiO2 
 PCOD8266987
Probable space group: C M M M
;
_chemical_formula_sum "Si O2"
_cell_formula_units_Z 104
_cell_length_a 8.917868
_cell_length_b 21.879673
_cell_length_c 26.947065
_cell_angle_alpha 90.000000
_cell_angle_beta 90.000000
_cell_angle_gamma 90.000000
_cell_volume 5257.912285
_symmetry_space_group_name_H-M "C M M M"
_symmetry_group_IT_number 65
_symmetry_cell_setting 'orthorhombic'
loop_
_space_group_symop_operation_xyz
x,y,z
-x,-y,z
x,-y,-z
-x,y,-z
-x,-y,-z
x,y,-z
-x,y,z
x,-y,z
1/2+x,1/2+y,z
1/2-x,1/2-y,z
1/2+x,1/2-y,-z
1/2-x,1/2+y,-z
1/2-x,1/2-y,-z
1/2+x,1/2+y,-z
1/2-x,1/2+y,z
1/2+x,1/2-y,z
loop_
_atom_site_type_symbol
_atom_site_label
_atom_site_fract_x
_atom_site_fract_y
_atom_site_fract_z
Si Si1 0.339053 0.500000 0.882186
Si Si2 0.823388 0.685986 0.813909
Si Si3 0.823768 0.314188 0.000000
Si Si4 0.825195 0.389842 0.277651
Si Si5 0.669961 0.630513 0.906270
Si Si6 0.675926 0.313350 0.557372
Si Si7 0.325523 0.000000 0.785630
Si Si8 0.822666 0.071438 0.622459
O O1 0.500000 0.500000 0.853354
O O2 0.330517 0.441439 0.917232
O O3 0.205804 0.500000 0.843260
O O4 0.750000 0.750000 0.825974
O O5 0.796069 0.670847 0.755376
O O6 0.743248 0.639894 0.851975
O O7 0.000000 0.685754 0.825313
O O8 0.750000 0.250000 0.000000
O O9 0.772567 0.344694 0.949439
O O10 0.000000 0.309716 0.000000
O O11 0.759845 0.441228 0.241371
O O12 0.730835 0.395617 0.327477
O O13 0.000000 0.396932 0.291506
O O14 0.500000 0.657497 0.907880
O O15 0.719552 0.319456 0.500000
O O16 0.500000 0.305721 0.566218
O O17 0.750000 0.250000 0.578836
O O18 0.731166 0.378322 0.581390
O O19 0.500000 0.000000 0.777950
O O20 0.000000 0.066956 0.622433
O O21 0.761430 0.000000 0.615316
#
# Coordination Sequence:
#
# PCOD8266987 Si02
#       8
#     8  16   8  16  16  16   8  16
#     4  10  22  37  61  92 119 149 185 230 283 333
#     4  11  23  39  58  83 114 151 193 236 281 336
#     4  12  26  45  66  87 113 150 190 232 283 338
#     4  10  21  36  56  81 113 152 189 229 281 337
#     4  11  23  41  63  89 118 149 186 231 283 339
#     4   9  19  37  59  82 111 150 195 241 292 350
#     4  10  18  34  57  81 111 147 189 231 273 332
#     4  10  21  35  55  85 117 150 191 241 294 348
#
# _framework density 19.779713999999998
#
# number of rings (size 3 to 8) (size 9 to 14) (size 15 to 20)
#    0.000    1.692    2.308    2.077    0.000    4.308 
#    0.000    6.154    0.000    0.000    0.000    3.231 
#    0.000    0.000    0.000    0.000    0.000    0.000 
#
# Total GULP energy -644188.438979 kJ/mol
# GULP energy per Si atom -12388.239211 kJ/mol
# Density = 1.973469 g / cm^3
# Si number density = 19.779714 Si / 1000 Ang^3
#
#
#
# Elastic Constant Matrix: (Units=GPa)
#
#
# Indices 1 2 3 4 5 6 
#
# 1 77.8895 41.6892 36.0938 0.0000 0.0000 0.0000
# 2 41.6892 130.9306 49.7913 0.0000 0.0000 0.0000
# 3 36.0938 49.7913 100.8640 0.0000 0.0000 0.0000
# 4 0.0000 0.0000 0.0000 35.5923 0.0000 0.0000
# 5 0.0000 0.0000 0.0000 0.0000 32.8596 0.0000
# 6 0.0000 0.0000 0.0000 0.0000 0.0000 25.0317
#
#
#
# Elastic Compliance Matrix: (Units=1/GPa)
#
#
# Indices 1 2 3 4 5 6 
#
# 1 0.016774 -0.003765 -0.004144 0.000000 0.000000 0.000000
# 2 -0.003765 0.010248 -0.003712 0.000000 0.000000 0.000000
# 3 -0.004144 -0.003712 0.013229 0.000000 0.000000 0.000000
# 4 0.000000 0.000000 0.000000 0.028096 0.000000 0.000000
# 5 0.000000 0.000000 0.000000 0.000000 0.030433 0.000000
# 6 0.000000 0.000000 0.000000 0.000000 0.000000 0.039949
#
#
# Mechanical properties :
#
#
# Convention : Reuss Voigt Hill
#
# Bulk Modulus (GPa) = 58.78771 62.75919 60.77345
# Shear Modulus (GPa) = 29.82570 30.83738 30.33154
#
# Velocity S-wave (km/s) = 3.88737 3.95275 3.92020
# Velocity P-wave (km/s) = 7.06644 7.25467 7.16118
#
# Compressibility (1/GPa) = 0.01701036
#
# Stress axis : x y z
#
# Youngs Moduli (GPa) = 59.61529 97.58077 75.58904
#
# Poissons Ratio (x) = 0.36740 0.31324
# Poissons Ratio (y) = 0.22446 0.28055
# Poissons Ratio (z) = 0.24704 0.36217
#
# Static dielectric constant tensor:
#      x y z
#    x 3.460000 0.000000 0.000000 
#    y 0.000000 3.947840 0.000000 
#    z 0.000000 0.000000 3.486520 
# 
# 
# High freq. dielectric constant tensor:
#      x y z
#    x 1.766130 0.000000 0.000000 
#    y 0.000000 1.787000 0.000000 
#    z 0.000000 0.000000 1.761500 
# 
# From -- ./inp_files/73386.got.cif
#   From: 2010.03.12/outbox.cif.g09.slc.cpg/sg65_37_cif.got.tgz:73386.got - 2010.04.10 20:52:16.
