data_PCOD8266131
_publ_section_title
;
Structure prediction by ZEFSAII (Michael W. Deem and Ramdas Pophale) SiO2 
 PCOD8266131
Probable space group: C M M M
;
_chemical_formula_sum "Si O2"
_cell_formula_units_Z 96
_cell_length_a 16.124774
_cell_length_b 17.685207
_cell_length_c 18.250386
_cell_angle_alpha 90.000000
_cell_angle_beta 90.000000
_cell_angle_gamma 90.000000
_cell_volume 5204.461955
_symmetry_space_group_name_H-M "C M M M"
_symmetry_group_IT_number 65
_symmetry_cell_setting 'orthorhombic'
loop_
_space_group_symop_operation_xyz
x,y,z
-x,-y,z
x,-y,-z
-x,y,-z
-x,-y,-z
x,y,-z
-x,y,z
x,-y,z
1/2+x,1/2+y,z
1/2-x,1/2-y,z
1/2+x,1/2-y,-z
1/2-x,1/2+y,-z
1/2-x,1/2-y,-z
1/2+x,1/2+y,-z
1/2-x,1/2+y,z
1/2+x,1/2-y,z
loop_
_atom_site_type_symbol
_atom_site_label
_atom_site_fract_x
_atom_site_fract_y
_atom_site_fract_z
Si Si1 0.655874 0.774865 0.080018
Si Si2 0.905001 0.416422 0.687682
Si Si3 0.500000 0.687503 0.582285
Si Si4 0.339903 0.233284 0.359866
Si Si5 0.500000 0.587926 0.721163
Si Si6 0.647175 0.673775 0.212437
Si Si7 0.310819 0.914517 0.833971
O O1 0.750000 0.750000 0.074650
O O2 0.614644 0.721634 0.142105
O O3 0.651612 0.863972 0.100357
O O4 0.612944 0.763921 0.000000
O O5 0.892554 0.500000 0.652923
O O6 0.848835 0.357407 0.643225
O O7 0.880504 0.418758 0.772316
O O8 0.000000 0.389851 0.682938
O O9 0.500000 0.655138 0.500000
O O10 0.416053 0.735728 0.592526
O O11 0.500000 0.619126 0.638902
O O12 0.250000 0.250000 0.396625
O O13 0.340436 0.266805 0.277884
O O14 0.500000 0.500000 0.712509
O O15 0.420566 0.612508 0.766843
O O16 0.730353 0.627520 0.197895
O O17 0.289251 0.000000 0.861275
#
# Coordination Sequence:
#
# PCOD8266131 Si02
#       7
#    16  16   8  16   8  16  16
#     4   9  17  30  48  71 104 143 180 222 277 330
#     4  10  19  31  52  82 111 139 179 236 287 322
#     4  10  24  39  57  87 119 146 176 217 275 344
#     4  11  18  34  59  82 109 148 191 235 274 326
#     4  10  22  37  59  81 105 139 175 222 270 321
#     4  10  18  32  52  78 107 136 188 233 272 316
#     4  10  18  29  49  75 107 139 181 234 277 322
#
# _framework density 18.445710999999999
#
# number of rings (size 3 to 8) (size 9 to 14) (size 15 to 20)
#    0.000    2.000    4.167    1.000    0.000    0.833 
#    0.000    0.417    0.000    3.000    0.000    2.333 
#    0.000    0.000    0.000    0.000    0.000    0.000 
#
# Total GULP energy -594945.174302 kJ/mol
# GULP energy per Si atom -12394.691131 kJ/mol
# Density = 1.840373 g / cm^3
# Si number density = 18.445711 Si / 1000 Ang^3
#
#
#
# Elastic Constant Matrix: (Units=GPa)
#
#
# Indices 1 2 3 4 5 6 
#
# 1 97.6415 38.7196 24.0829 0.0000 0.0000 0.0000
# 2 38.7196 141.0071 37.0912 0.0000 0.0000 0.0000
# 3 24.0829 37.0912 92.8465 0.0000 0.0000 0.0000
# 4 0.0000 0.0000 0.0000 8.7328 0.0000 0.0000
# 5 0.0000 0.0000 0.0000 0.0000 -16.7844 0.0000
# 6 0.0000 0.0000 0.0000 0.0000 0.0000 26.3903
#
#
#
# Elastic Compliance Matrix: (Units=1/GPa)
#
#
# Indices 1 2 3 4 5 6 
#
# 1 0.011809 -0.002723 -0.001975 0.000000 0.000000 0.000000
# 2 -0.002723 0.008552 -0.002710 0.000000 0.000000 0.000000
# 3 -0.001975 -0.002710 0.012366 0.000000 0.000000 0.000000
# 4 0.000000 0.000000 0.000000 0.114510 0.000000 0.000000
# 5 0.000000 0.000000 0.000000 0.000000 -0.059579 0.000000
# 6 0.000000 0.000000 0.000000 0.000000 0.000000 0.037893
#
#
# Mechanical properties :
#
#
# Convention : Reuss Voigt Hill
#
# Bulk Modulus (GPa) = 55.83588 59.03138 57.43363
# Shear Modulus (GPa) = 34.16767 19.10784 26.63776
#
# Velocity S-wave (km/s) = 4.30855 3.22203 3.80428
# Velocity P-wave (km/s) = 7.42210 6.77600 7.10640
#
# Compressibility (1/GPa) = 0.01790963
#
# Stress axis : x y z
#
# Youngs Moduli (GPa) = 84.68476 116.92489 80.86989
#
# Poissons Ratio (x) = 0.31838 0.15973
# Poissons Ratio (y) = 0.23060 0.21918
# Poissons Ratio (z) = 0.16726 0.31691
#
# Static dielectric constant tensor:
#      x y z
#    x 3.488220 0.000000 0.000000 
#    y 0.000000 3.580920 0.000000 
#    z 0.000000 0.000000 3.356370 
# 
# 
# High freq. dielectric constant tensor:
#      x y z
#    x 1.710560 0.000000 0.000000 
#    y 0.000000 1.723590 0.000000 
#    z 0.000000 0.000000 1.686150 
# 
# From -- ./inp_files/54541.got.cif
#   From: 2010.03.12/outbox.cif.g09.slc.cpg/sg65_28_cif.got.tgz:54541.got - 2010.04.10 20:52:16.
