data_PCOD8266671
_publ_section_title
;
Structure prediction by ZEFSAII (Michael W. Deem and Ramdas Pophale) SiO2 
 PCOD8266671
Probable space group: C M M M
;
_chemical_formula_sum "Si O2"
_cell_formula_units_Z 56
_cell_length_a 19.362769
_cell_length_b 7.574920
_cell_length_c 19.221193
_cell_angle_alpha 90.000000
_cell_angle_beta 90.000000
_cell_angle_gamma 90.000000
_cell_volume 2819.199790
_symmetry_space_group_name_H-M "C M M M"
_symmetry_group_IT_number 65
_symmetry_cell_setting 'orthorhombic'
loop_
_space_group_symop_operation_xyz
x,y,z
-x,-y,z
x,-y,-z
-x,y,-z
-x,-y,-z
x,y,-z
-x,y,z
x,-y,z
1/2+x,1/2+y,z
1/2-x,1/2-y,z
1/2+x,1/2-y,-z
1/2-x,1/2+y,-z
1/2-x,1/2-y,-z
1/2+x,1/2+y,-z
1/2-x,1/2+y,z
1/2+x,1/2-y,z
loop_
_atom_site_type_symbol
_atom_site_label
_atom_site_fract_x
_atom_site_fract_y
_atom_site_fract_z
Si Si1 0.920272 0.000000 0.917725
Si Si2 0.328868 0.197890 0.147353
Si Si3 0.422540 0.709812 0.423498
Si Si4 0.826403 0.792943 0.302444
O O1 0.882430 0.174201 0.890223
O O2 0.000000 0.000000 0.892272
O O3 0.916090 0.000000 0.000000
O O4 0.250000 0.250000 0.130589
O O5 0.342396 0.198642 0.229817
O O6 0.342001 0.000000 0.119641
O O7 0.397217 0.774647 0.500000
O O8 0.500000 0.777566 0.410403
O O9 0.419857 0.500000 0.421262
O O10 0.375332 0.787768 0.362252
O O11 0.750000 0.750000 0.328238
O O12 0.837577 0.000000 0.290915
#
# Coordination Sequence:
#
# PCOD8266671 Si02
#       4
#     8  16  16  16
#     4  11  26  46  66  96 134 164 200 253 308 368
#     4  11  21  41  67  94 125 164 211 256 304 368
#     4   8  15  28  46  71 104 146 197 245 292 353
#     4  10  18  31  53  82 113 150 191 249 302 351
#
# _framework density 19.863793000000001
#
# number of rings (size 3 to 8) (size 9 to 14) (size 15 to 20)
#    0.000    2.143    2.857    3.429    0.000    3.429 
#    0.000    1.429    0.000    5.143    0.000    8.000 
#    0.000    0.000    0.000    0.000    0.000    0.000 
#
# Total GULP energy -347137.980567 kJ/mol
# GULP energy per Si atom -12397.785020 kJ/mol
# Density = 1.981858 g / cm^3
# Si number density = 19.863793 Si / 1000 Ang^3
#
#
#
# Elastic Constant Matrix: (Units=GPa)
#
#
# Indices 1 2 3 4 5 6 
#
# 1 140.9548 49.3682 83.3670 0.0000 0.0000 0.0000
# 2 49.3682 120.7910 29.3548 0.0000 0.0000 0.0000
# 3 83.3670 29.3548 96.4464 0.0000 0.0000 0.0000
# 4 0.0000 0.0000 0.0000 8.9965 0.0000 0.0000
# 5 0.0000 0.0000 0.0000 0.0000 182.6109 0.0000
# 6 0.0000 0.0000 0.0000 0.0000 0.0000 36.0580
#
#
#
# Elastic Compliance Matrix: (Units=1/GPa)
#
#
# Indices 1 2 3 4 5 6 
#
# 1 0.015687 -0.003365 -0.012536 0.000000 0.000000 0.000000
# 2 -0.003365 0.009662 -0.000032 0.000000 0.000000 0.000000
# 3 -0.012536 -0.000032 0.021214 0.000000 0.000000 0.000000
# 4 0.000000 0.000000 0.000000 0.111155 0.000000 0.000000
# 5 0.000000 0.000000 0.000000 0.000000 0.005476 0.000000
# 6 0.000000 0.000000 0.000000 0.000000 0.000000 0.027733
#
#
# Mechanical properties :
#
#
# Convention : Reuss Voigt Hill
#
# Bulk Modulus (GPa) = 68.03866 75.81913 71.92889
# Shear Modulus (GPa) = 21.95955 58.60655 40.28305
#
# Velocity S-wave (km/s) = 3.32852 5.43767 4.50818
# Velocity P-wave (km/s) = 7.00707 8.81344 7.96165
#
# Compressibility (1/GPa) = 0.01469753
#
# Stress axis : x y z
#
# Youngs Moduli (GPa) = 63.74641 103.49968 47.13913
#
# Poissons Ratio (x) = 0.34828 0.59092
# Poissons Ratio (y) = 0.21451 0.00151
# Poissons Ratio (z) = 0.79910 0.00331
#
# Static dielectric constant tensor:
#      x y z
#    x 3.900340 0.000000 0.000000 
#    y 0.000000 3.520250 0.000000 
#    z 0.000000 0.000000 3.755640 
# 
# 
# High freq. dielectric constant tensor:
#      x y z
#    x 1.767970 0.000000 0.000000 
#    y 0.000000 1.770550 0.000000 
#    z 0.000000 0.000000 1.774420 
# 
# From -- ./inp_files/63215.got.cif
#   From: 2010.03.12/outbox.cif.g09.slc.cpg/sg65_32_cif.got.tgz:63215.got - 2010.04.10 20:52:16.
