data_PCOD8266042
_publ_section_title
;
Structure prediction by ZEFSAII (Michael W. Deem and Ramdas Pophale) SiO2 
 PCOD8266042
Probable space group: C M M M
;
_chemical_formula_sum "Si O2"
_cell_formula_units_Z 112
_cell_length_a 18.471444
_cell_length_b 25.572475
_cell_length_c 14.315492
_cell_angle_alpha 90.000000
_cell_angle_beta 90.000000
_cell_angle_gamma 90.000000
_cell_volume 6762.073530
_symmetry_space_group_name_H-M "C M M M"
_symmetry_group_IT_number 65
_symmetry_cell_setting 'orthorhombic'
loop_
_space_group_symop_operation_xyz
x,y,z
-x,-y,z
x,-y,-z
-x,y,-z
-x,-y,-z
x,y,-z
-x,y,z
x,-y,z
1/2+x,1/2+y,z
1/2-x,1/2-y,z
1/2+x,1/2-y,-z
1/2-x,1/2+y,-z
1/2-x,1/2-y,-z
1/2+x,1/2+y,-z
1/2-x,1/2+y,z
1/2+x,1/2-y,z
loop_
_atom_site_type_symbol
_atom_site_label
_atom_site_fract_x
_atom_site_fract_y
_atom_site_fract_z
Si Si1 0.085996 0.747430 0.895914
Si Si2 0.917558 0.152954 0.206489
Si Si3 0.163151 0.940604 0.108329
Si Si4 0.919753 0.109277 0.396641
Si Si5 0.807750 0.439978 0.214425
Si Si6 0.084978 0.631111 0.891771
Si Si7 0.769810 0.060735 0.602138
O O1 0.118846 0.793236 0.830318
O O2 0.113556 0.689680 0.867480
O O3 0.000000 0.745787 0.890946
O O4 0.112325 0.760881 0.000000
O O5 0.882443 0.100251 0.167838
O O6 0.911165 0.154524 0.318995
O O7 0.000000 0.151600 0.171927
O O8 0.246816 0.935277 0.135389
O O9 0.136457 0.000000 0.129785
O O10 0.154241 0.927016 0.000000
O O11 0.913114 0.134715 0.500000
O O12 0.855859 0.067605 0.380610
O O13 0.000000 0.082796 0.385381
O O14 0.831692 0.500000 0.227942
O O15 0.876672 0.407984 0.179673
O O16 0.777588 0.415563 0.312774
O O17 0.000000 0.625847 0.873499
O O18 0.102426 0.617780 0.000000
O O19 0.747678 0.084597 0.500000
O O20 0.754502 0.000000 0.601835
#
# Coordination Sequence:
#
# PCOD8266042 Si02
#       7
#    16  16  16  16  16  16  16
#     4   8  15  29  48  69  92 120 156 196 236 276
#     4  10  18  29  47  67  91 128 166 196 230 274
#     4  10  20  31  42  62  95 130 160 191 228 273
#     4   9  17  28  44  68  94 121 161 210 245 269
#     4  10  19  32  49  70  96 126 154 185 236 294
#     4   9  18  33  53  75  96 118 150 196 244 288
#     4   9  17  30  48  68  92 126 164 197 234 280
#
# _framework density 16.562967
#
# number of rings (size 3 to 8) (size 9 to 14) (size 15 to 20)
#    0.000    2.714    1.429    1.714    0.000    2.571 
#    0.000    5.000    0.000    3.857    0.000    6.000 
#    0.000    0.000    0.000    0.000    0.000    0.000 
#
# Total GULP energy -693817.826609 kJ/mol
# GULP energy per Si atom -12389.604047 kJ/mol
# Density = 1.652527 g / cm^3
# Si number density = 16.562967 Si / 1000 Ang^3
#
#
#
# Elastic Constant Matrix: (Units=GPa)
#
#
# Indices 1 2 3 4 5 6 
#
# 1 55.3565 35.7618 44.7034 0.0000 0.0000 0.0000
# 2 35.7618 80.5226 53.9623 0.0000 0.0000 0.0000
# 3 44.7034 53.9623 119.7876 0.0000 0.0000 0.0000
# 4 0.0000 0.0000 0.0000 17.4659 0.0000 0.0000
# 5 0.0000 0.0000 0.0000 0.0000 26.4281 0.0000
# 6 0.0000 0.0000 0.0000 0.0000 0.0000 7.4725
#
#
#
# Elastic Compliance Matrix: (Units=1/GPa)
#
#
# Indices 1 2 3 4 5 6 
#
# 1 0.029128 -0.008096 -0.007223 0.000000 0.000000 0.000000
# 2 -0.008096 0.020039 -0.006006 0.000000 0.000000 0.000000
# 3 -0.007223 -0.006006 0.013749 0.000000 0.000000 0.000000
# 4 0.000000 0.000000 0.000000 0.057254 0.000000 0.000000
# 5 0.000000 0.000000 0.000000 0.000000 0.037839 0.000000
# 6 0.000000 0.000000 0.000000 0.000000 0.000000 0.133824
#
#
# Mechanical properties :
#
#
# Convention : Reuss Voigt Hill
#
# Bulk Modulus (GPa) = 49.34244 58.28017 53.81131
# Shear Modulus (GPa) = 14.65246 18.35591 16.50419
#
# Velocity S-wave (km/s) = 2.97754 3.33265 3.16009
# Velocity P-wave (km/s) = 6.45573 7.07617 6.77306
#
# Compressibility (1/GPa) = 0.02026653
#
# Stress axis : x y z
#
# Youngs Moduli (GPa) = 34.33132 49.90179 72.73019
#
# Poissons Ratio (x) = 0.40399 0.52535
# Poissons Ratio (y) = 0.27793 0.43683
# Poissons Ratio (z) = 0.24798 0.29972
#
# Static dielectric constant tensor:
#      x y z
#    x 2.856560 0.000000 0.000000 
#    y 0.000000 3.078200 0.000000 
#    z 0.000000 0.000000 3.505080 
# 
# 
# High freq. dielectric constant tensor:
#      x y z
#    x 1.611860 0.000000 0.000000 
#    y 0.000000 1.614120 0.000000 
#    z 0.000000 0.000000 1.646640 
# 
# From -- ./inp_files/41038.got.cif
#   From: 2010.03.12/outbox.cif.g09.slc.cpg/sg65_21_cif.got.tgz:41038.got - 2010.04.10 20:52:16.
