data_PCOD8266248
_publ_section_title
;
Structure prediction by ZEFSAII (Michael W. Deem and Ramdas Pophale) SiO2 
 PCOD8266248
Probable space group: C M M M
;
_chemical_formula_sum "Si O2"
_cell_formula_units_Z 64
_cell_length_a 8.926003
_cell_length_b 35.713043
_cell_length_c 12.605366
_cell_angle_alpha 90.000000
_cell_angle_beta 90.000000
_cell_angle_gamma 90.000000
_cell_volume 4018.272130
_symmetry_space_group_name_H-M "C M M M"
_symmetry_group_IT_number 65
_symmetry_cell_setting 'orthorhombic'
loop_
_space_group_symop_operation_xyz
x,y,z
-x,-y,z
x,-y,-z
-x,y,-z
-x,-y,-z
x,y,-z
-x,y,z
x,-y,z
1/2+x,1/2+y,z
1/2-x,1/2-y,z
1/2+x,1/2-y,-z
1/2-x,1/2+y,-z
1/2-x,1/2-y,-z
1/2+x,1/2+y,-z
1/2-x,1/2+y,z
1/2+x,1/2-y,z
loop_
_atom_site_type_symbol
_atom_site_label
_atom_site_fract_x
_atom_site_fract_y
_atom_site_fract_z
Si Si1 0.179779 0.208821 0.500000
Si Si2 0.825632 0.648044 0.120187
Si Si3 0.322665 0.209822 0.289866
Si Si4 0.831427 0.500000 0.873421
Si Si5 0.831533 0.073556 0.126311
O O1 0.250000 0.250000 0.500000
O O2 0.245140 0.190101 0.392770
O O3 0.000000 0.208919 0.500000
O O4 0.784841 0.684041 0.189647
O O5 0.744099 0.611610 0.167997
O O6 0.000000 0.638870 0.123891
O O7 0.772799 0.656609 0.000000
O O8 0.500000 0.214320 0.308852
O O9 0.250000 0.250000 0.266099
O O10 0.751850 0.537084 0.827674
O O11 0.000000 0.500000 0.831211
O O12 0.825053 0.500000 0.000000
O O13 0.000000 0.072409 0.168858
O O14 0.824194 0.072867 0.000000
#
# Coordination Sequence:
#
# PCOD8266248 Si02
#       5
#     8  16  16   8  16
#     4  10  18  30  48  66  84 105 136 179 224 264
#     4   9  18  31  44  60  86 119 149 176 211 257
#     4  10  19  31  47  65  86 112 144 181 219 259
#     4   9  15  23  37  55  77 108 143 176 211 253
#     4   9  16  25  38  57  81 109 142 179 214 249
#
# _framework density 15.927244
#
# number of rings (size 3 to 8) (size 9 to 14) (size 15 to 20)
#    0.000    2.625    0.000    4.500    0.000    7.000 
#    0.000    0.000    0.000    0.000    0.000    0.000 
#    0.000    1.000    0.000   10.500    0.000    8.000 
#
# Total GULP energy -396674.567178 kJ/mol
# GULP energy per Si atom -12396.080224 kJ/mol
# Density = 1.589099 g / cm^3
# Si number density = 15.927244 Si / 1000 Ang^3
#
#
#
# Elastic Constant Matrix: (Units=GPa)
#
#
# Indices 1 2 3 4 5 6 
#
# 1 116.7084 66.6465 41.5714 0.0000 0.0000 0.0000
# 2 66.6465 118.0216 48.2352 0.0000 0.0000 0.0000
# 3 41.5714 48.2352 64.7572 0.0000 0.0000 0.0000
# 4 0.0000 0.0000 0.0000 1.2283 0.0000 0.0000
# 5 0.0000 0.0000 0.0000 0.0000 17.4588 0.0000
# 6 0.0000 0.0000 0.0000 0.0000 0.0000 30.4072
#
#
#
# Elastic Compliance Matrix: (Units=1/GPa)
#
#
# Indices 1 2 3 4 5 6 
#
# 1 0.013421 -0.005833 -0.004270 0.000000 0.000000 0.000000
# 2 -0.005833 0.014717 -0.007217 0.000000 0.000000 0.000000
# 3 -0.004270 -0.007217 0.023560 0.000000 0.000000 0.000000
# 4 0.000000 0.000000 0.000000 0.814132 0.000000 0.000000
# 5 0.000000 0.000000 0.000000 0.000000 0.057278 0.000000
# 6 0.000000 0.000000 0.000000 0.000000 0.000000 0.032887
#
#
# Mechanical properties :
#
#
# Convention : Reuss Voigt Hill
#
# Bulk Modulus (GPa) = 58.63387 68.04373 63.33880
# Shear Modulus (GPa) = 5.01846 19.35447 12.18647
#
# Velocity S-wave (km/s) = 1.77699 3.48973 2.76911
# Velocity P-wave (km/s) = 6.41122 7.68452 7.07657
#
# Compressibility (1/GPa) = 0.01705499
#
# Stress axis : x y z
#
# Youngs Moduli (GPa) = 74.51245 67.94996 42.44550
#
# Poissons Ratio (x) = 0.39637 0.18126
# Poissons Ratio (y) = 0.43465 0.30634
# Poissons Ratio (z) = 0.31820 0.49041
#
# Static dielectric constant tensor:
#      x y z
#    x 3.184760 0.000000 0.000000 
#    y 0.000000 3.008290 0.000000 
#    z 0.000000 0.000000 3.091240 
# 
# 
# High freq. dielectric constant tensor:
#      x y z
#    x 1.629330 0.000000 0.000000 
#    y 0.000000 1.603880 0.000000 
#    z 0.000000 0.000000 1.563220 
# 
# From -- ./inp_files/36843.got.cif
#   From: 2010.03.12/outbox.cif.g09.slc.cpg/sg65_19_cif.got.tgz:36843.got - 2010.04.10 20:52:16.
