data_PCOD8266991
_publ_section_title
;
Structure prediction by ZEFSAII (Michael W. Deem and Ramdas Pophale) SiO2 
 PCOD8266991
Probable space group: C M M M
;
_chemical_formula_sum "Si O2"
_cell_formula_units_Z 88
_cell_length_a 15.261220
_cell_length_b 19.127689
_cell_length_c 14.835538
_cell_angle_alpha 90.000000
_cell_angle_beta 90.000000
_cell_angle_gamma 90.000000
_cell_volume 4330.669639
_symmetry_space_group_name_H-M "C M M M"
_symmetry_group_IT_number 65
_symmetry_cell_setting 'orthorhombic'
loop_
_space_group_symop_operation_xyz
x,y,z
-x,-y,z
x,-y,-z
-x,y,-z
-x,-y,-z
x,y,-z
-x,y,z
x,-y,z
1/2+x,1/2+y,z
1/2-x,1/2-y,z
1/2+x,1/2-y,-z
1/2-x,1/2+y,-z
1/2-x,1/2-y,-z
1/2+x,1/2+y,-z
1/2-x,1/2+y,z
1/2+x,1/2-y,z
loop_
_atom_site_type_symbol
_atom_site_label
_atom_site_fract_x
_atom_site_fract_y
_atom_site_fract_z
Si Si1 0.361804 0.077165 0.840443
Si Si2 0.500000 0.417985 0.098176
Si Si3 0.399552 0.224132 0.900964
Si Si4 0.000000 0.281158 0.603250
Si Si5 0.163677 0.078663 0.782778
Si Si6 0.000000 0.422955 0.312696
Si Si7 0.340267 0.279145 0.713020
O O1 0.392350 0.139489 0.904684
O O2 0.257524 0.081408 0.829685
O O3 0.411813 0.087367 0.745693
O O4 0.386021 0.000000 0.880083
O O5 0.500000 0.500000 0.086405
O O6 0.588567 0.395294 0.148371
O O7 0.500000 0.381530 0.000000
O O8 0.500000 0.246511 0.885558
O O9 0.344714 0.256239 0.818572
O O10 0.367172 0.250602 0.000000
O O11 0.083763 0.250891 0.652602
O O12 0.000000 0.257663 0.500000
O O13 0.000000 0.365262 0.609096
O O14 0.160301 0.136255 0.703534
O O15 0.144174 0.000000 0.746023
O O16 0.000000 0.500000 0.357227
O O17 0.250000 0.250000 0.672928
#
# Coordination Sequence:
#
# PCOD8266991 Si02
#       7
#    16   8  16   8  16   8  16
#     4  10  18  34  58  85 119 160 201 242 290 347
#     4   9  19  34  49  70 104 147 199 253 292 325
#     4  11  22  36  56  86 124 168 207 242 294 354
#     4  12  25  42  66  96 123 152 197 248 308 368
#     4  10  21  36  58  82 108 154 203 245 299 351
#     4  10  18  36  64  90 123 158 192 233 293 363
#     4  12  22  42  65  87 123 158 198 251 302 355
#
# _framework density 20.320184000000001
#
# number of rings (size 3 to 8) (size 9 to 14) (size 15 to 20)
#    0.000    1.364    5.455    0.545    0.000    2.727 
#    0.000    2.727    0.000    1.091    0.000    0.000 
#    0.000    0.000    0.000    0.000    0.000    0.000 
#
# Total GULP energy -545359.406418 kJ/mol
# GULP energy per Si atom -12394.531964 kJ/mol
# Density = 2.027393 g / cm^3
# Si number density = 20.320184 Si / 1000 Ang^3
#
#
#
# Elastic Constant Matrix: (Units=GPa)
#
#
# Indices 1 2 3 4 5 6 
#
# 1 143.5605 23.9118 37.5349 0.0000 0.0000 0.0000
# 2 23.9118 111.3113 35.1235 0.0000 0.0000 0.0000
# 3 37.5349 35.1235 83.3289 0.0000 0.0000 0.0000
# 4 0.0000 0.0000 0.0000 11.7300 0.0000 0.0000
# 5 0.0000 0.0000 0.0000 0.0000 110.2673 0.0000
# 6 0.0000 0.0000 0.0000 0.0000 0.0000 31.5926
#
#
#
# Elastic Compliance Matrix: (Units=1/GPa)
#
#
# Indices 1 2 3 4 5 6 
#
# 1 0.007938 -0.000665 -0.003295 0.000000 0.000000 0.000000
# 2 -0.000665 0.010418 -0.004091 0.000000 0.000000 0.000000
# 3 -0.003295 -0.004091 0.015209 0.000000 0.000000 0.000000
# 4 0.000000 0.000000 0.000000 0.085252 0.000000 0.000000
# 5 0.000000 0.000000 0.000000 0.000000 0.009069 0.000000
# 6 0.000000 0.000000 0.000000 0.000000 0.000000 0.031653
#
#
# Mechanical properties :
#
#
# Convention : Reuss Voigt Hill
#
# Bulk Modulus (GPa) = 57.26956 59.03791 58.15374
# Shear Modulus (GPa) = 27.55376 46.82666 37.19021
#
# Velocity S-wave (km/s) = 3.68636 4.80567 4.28274
# Velocity P-wave (km/s) = 6.80909 7.74012 7.28949
#
# Compressibility (1/GPa) = 0.01746128
#
# Stress axis : x y z
#
# Youngs Moduli (GPa) = 125.97486 95.98969 65.74857
#
# Poissons Ratio (x) = 0.06388 0.21665
# Poissons Ratio (y) = 0.08383 0.26900
# Poissons Ratio (z) = 0.41511 0.39273
#
# Static dielectric constant tensor:
#      x y z
#    x 4.023290 0.000000 0.000000 
#    y 0.000000 4.231630 0.000000 
#    z 0.000000 0.000000 3.144020 
# 
# 
# High freq. dielectric constant tensor:
#      x y z
#    x 1.812230 0.000000 0.000000 
#    y 0.000000 1.822910 0.000000 
#    z 0.000000 0.000000 1.721770 
# 
# From -- ./inp_files/40258.got.cif
#   From: 2010.03.12/outbox.cif.g09.slc.cpg/sg65_21_cif.got.tgz:40258.got - 2010.04.10 20:52:16.
