data_PCOD8266530
_publ_section_title
;
Structure prediction by ZEFSAII (Michael W. Deem and Ramdas Pophale) SiO2 
 PCOD8266530
Probable space group: C M M M
;
_chemical_formula_sum "Si O2"
_cell_formula_units_Z 80
_cell_length_a 20.779508
_cell_length_b 28.910014
_cell_length_c 7.759109
_cell_angle_alpha 90.000000
_cell_angle_beta 90.000000
_cell_angle_gamma 90.000000
_cell_volume 4661.175074
_symmetry_space_group_name_H-M "C M M M"
_symmetry_group_IT_number 65
_symmetry_cell_setting 'orthorhombic'
loop_
_space_group_symop_operation_xyz
x,y,z
-x,-y,z
x,-y,-z
-x,y,-z
-x,-y,-z
x,y,-z
-x,y,z
x,-y,z
1/2+x,1/2+y,z
1/2-x,1/2-y,z
1/2+x,1/2-y,-z
1/2-x,1/2+y,-z
1/2-x,1/2-y,-z
1/2+x,1/2+y,-z
1/2-x,1/2+y,z
1/2+x,1/2-y,z
loop_
_atom_site_type_symbol
_atom_site_label
_atom_site_fract_x
_atom_site_fract_y
_atom_site_fract_z
Si Si1 0.595637 0.356580 0.312144
Si Si2 0.429097 0.257179 0.197399
Si Si3 0.700229 0.787642 0.299165
Si Si4 0.787604 0.052475 0.000000
Si Si5 0.931636 0.080439 0.000000
Si Si6 0.240025 0.880279 0.697245
O O1 0.576116 0.376523 0.500000
O O2 0.571585 0.304289 0.303767
O O3 0.563814 0.387955 0.168392
O O4 0.671866 0.355203 0.292030
O O5 0.500000 0.234090 0.222417
O O6 0.374123 0.222586 0.261365
O O7 0.415985 0.269776 0.000000
O O8 0.714559 0.788026 0.500000
O O9 0.750000 0.750000 0.214736
O O10 0.711901 0.840256 0.233851
O O11 0.759230 0.076386 0.828004
O O12 0.866077 0.050926 0.000000
O O13 0.763006 0.000000 0.000000
O O14 0.000000 0.051647 0.000000
O O15 0.255030 0.897043 0.500000
#
# Coordination Sequence:
#
# PCOD8266530 Si02
#       6
#    16  16  16   8   8  16
#     4  10  18  31  48  67  97 134 170 210 250 286
#     4  11  22  31  42  68 106 143 177 211 242 285
#     4  10  19  32  50  73 101 135 174 209 246 299
#     4  10  22  37  54  74  94 127 166 209 271 312
#     4  10  20  33  47  69  96 123 168 217 254 303
#     4   9  19  34  53  77  99 125 167 212 251 300
#
# _framework density 17.163053000000001
#
# number of rings (size 3 to 8) (size 9 to 14) (size 15 to 20)
#    0.000    2.000    3.000    1.200    1.400    3.800 
#    0.000    0.000    0.000    0.000    0.000    5.600 
#    0.000    1.600    0.000    4.400    0.000    0.000 
#
# Total GULP energy -495697.089301 kJ/mol
# GULP energy per Si atom -12392.427233 kJ/mol
# Density = 1.712399 g / cm^3
# Si number density = 17.163053 Si / 1000 Ang^3
#
#
#
# Elastic Constant Matrix: (Units=GPa)
#
#
# Indices 1 2 3 4 5 6 
#
# 1 62.0977 39.5566 4.1278 0.0000 0.0000 0.0000
# 2 39.5566 101.9009 42.6616 0.0000 0.0000 0.0000
# 3 4.1278 42.6616 83.1615 0.0000 0.0000 0.0000
# 4 0.0000 0.0000 0.0000 17.2147 0.0000 0.0000
# 5 0.0000 0.0000 0.0000 0.0000 18.5872 0.0000
# 6 0.0000 0.0000 0.0000 0.0000 0.0000 -1.9088
#
#
#
# Elastic Compliance Matrix: (Units=1/GPa)
#
#
# Indices 1 2 3 4 5 6 
#
# 1 0.022535 -0.010544 0.004291 0.000000 0.000000 0.000000
# 2 -0.010544 0.017431 -0.008419 0.000000 0.000000 0.000000
# 3 0.004291 -0.008419 0.016131 0.000000 0.000000 0.000000
# 4 0.000000 0.000000 0.000000 0.058090 0.000000 0.000000
# 5 0.000000 0.000000 0.000000 0.000000 0.053800 0.000000
# 6 0.000000 0.000000 0.000000 0.000000 0.000000 -0.523883
#
#
# Mechanical properties :
#
#
# Convention : Reuss Voigt Hill
#
# Bulk Modulus (GPa) = 37.38005 46.65021 42.01513
# Shear Modulus (GPa) = -15.74137 17.49957 0.87910
#
# Velocity S-wave (km/s) = -3.03176 3.19659 0.71646
# Velocity P-wave (km/s) = 3.09374 6.39249 5.02171
#
# Compressibility (1/GPa) = 0.02675224
#
# Stress axis : x y z
#
# Youngs Moduli (GPa) = 44.37520 57.36879 61.99399
#
# Poissons Ratio (x) = 0.60490 -0.26599
# Poissons Ratio (y) = 0.46790 0.52191
# Poissons Ratio (z) = -0.19039 0.48297
#
# Static dielectric constant tensor:
#      x y z
#    x 3.216310 0.000000 0.000000 
#    y 0.000000 2.839760 0.000000 
#    z 0.000000 0.000000 3.441460 
# 
# 
# High freq. dielectric constant tensor:
#      x y z
#    x 1.648840 0.000000 0.000000 
#    y 0.000000 1.614620 0.000000 
#    z 0.000000 0.000000 1.677500 
# 
# From -- ./inp_files/9697.got.cif
#   From: 2010.03.12/outbox.cif.g09.slc.cpg/sg65_5_cif.got.tgz:9697.got - 2010.04.10 20:52:16.
