data_PCOD8266848
_publ_section_title
;
Structure prediction by ZEFSAII (Michael W. Deem and Ramdas Pophale) SiO2 
 PCOD8266848
Probable space group: C M M M
;
_chemical_formula_sum "Si O2"
_cell_formula_units_Z 72
_cell_length_a 13.145049
_cell_length_b 18.681138
_cell_length_c 15.293851
_cell_angle_alpha 90.000000
_cell_angle_beta 90.000000
_cell_angle_gamma 90.000000
_cell_volume 3755.626482
_symmetry_space_group_name_H-M "C M M M"
_symmetry_group_IT_number 65
_symmetry_cell_setting 'orthorhombic'
loop_
_space_group_symop_operation_xyz
x,y,z
-x,-y,z
x,-y,-z
-x,y,-z
-x,-y,-z
x,y,-z
-x,y,z
x,-y,z
1/2+x,1/2+y,z
1/2-x,1/2-y,z
1/2+x,1/2-y,-z
1/2-x,1/2+y,-z
1/2-x,1/2-y,-z
1/2+x,1/2+y,-z
1/2-x,1/2+y,z
1/2+x,1/2-y,z
loop_
_atom_site_type_symbol
_atom_site_label
_atom_site_fract_x
_atom_site_fract_y
_atom_site_fract_z
Si Si1 0.615861 0.080458 0.763087
Si Si2 0.115936 0.200810 0.664870
Si Si3 0.784349 0.174303 0.151852
Si Si4 0.685155 0.146825 0.599565
Si Si5 0.379825 0.582169 0.000000
O O1 0.500000 0.104070 0.776857
O O2 0.682785 0.134028 0.819252
O O3 0.645383 0.082526 0.660011
O O4 0.633937 0.000000 0.796271
O O5 0.142260 0.190416 0.766525
O O6 0.191964 0.153061 0.605923
O O7 0.131246 0.282775 0.638069
O O8 0.000000 0.176908 0.647177
O O9 0.750000 0.250000 0.109196
O O10 0.842726 0.124021 0.084979
O O11 0.652610 0.133055 0.500000
O O12 0.339181 0.500000 0.000000
O O13 0.500000 0.582008 0.000000
#
# Coordination Sequence:
#
# PCOD8266848 Si02
#       5
#    16  16  16  16   8
#     4  10  21  37  57  82 116 155 190 230 285 345
#     4  10  18  32  54  80 111 146 187 234 288 334
#     4  11  21  39  61  88 113 144 189 237 282 333
#     4  10  20  32  49  80 115 149 191 238 281 329
#     4  11  25  42  61  87 117 149 184 227 284 344
#
# _framework density 19.171237000000001
#
# number of rings (size 3 to 8) (size 9 to 14) (size 15 to 20)
#    0.000    1.667    4.444    3.667    0.000    4.444 
#    0.000    1.667    0.000    8.000    0.000    6.222 
#    0.000    0.000    0.000    0.000    0.000    0.000 
#
# Total GULP energy -446326.372571 kJ/mol
# GULP energy per Si atom -12397.954794 kJ/mol
# Density = 1.912760 g / cm^3
# Si number density = 19.171237 Si / 1000 Ang^3
#
#
#
# Elastic Constant Matrix: (Units=GPa)
#
#
# Indices 1 2 3 4 5 6 
#
# 1 125.6873 50.9239 23.8031 0.0000 0.0000 0.0000
# 2 50.9239 95.1657 35.1119 0.0000 0.0000 0.0000
# 3 23.8031 35.1119 97.8145 0.0000 0.0000 0.0000
# 4 0.0000 0.0000 0.0000 11.7803 0.0000 0.0000
# 5 0.0000 0.0000 0.0000 0.0000 10.5568 0.0000
# 6 0.0000 0.0000 0.0000 0.0000 0.0000 21.5425
#
#
#
# Elastic Compliance Matrix: (Units=1/GPa)
#
#
# Indices 1 2 3 4 5 6 
#
# 1 0.010189 -0.005230 -0.000602 0.000000 0.000000 0.000000
# 2 -0.005230 0.014797 -0.004039 0.000000 0.000000 0.000000
# 3 -0.000602 -0.004039 0.011820 0.000000 0.000000 0.000000
# 4 0.000000 0.000000 0.000000 0.084887 0.000000 0.000000
# 5 0.000000 0.000000 0.000000 0.000000 0.094726 0.000000
# 6 0.000000 0.000000 0.000000 0.000000 0.000000 0.046420
#
#
# Mechanical properties :
#
#
# Convention : Reuss Voigt Hill
#
# Bulk Modulus (GPa) = 58.60388 59.81614 59.21001
# Shear Modulus (GPa) = 17.34491 22.69783 20.02137
#
# Velocity S-wave (km/s) = 3.01115 3.44459 3.23514
# Velocity P-wave (km/s) = 6.53639 6.86214 6.70124
#
# Compressibility (1/GPa) = 0.01706372
#
# Stress axis : x y z
#
# Youngs Moduli (GPa) = 98.14127 67.58190 84.60434
#
# Poissons Ratio (x) = 0.35347 0.05094
# Poissons Ratio (y) = 0.51331 0.34170
# Poissons Ratio (z) = 0.05909 0.27295
#
# Static dielectric constant tensor:
#      x y z
#    x 3.570040 0.000000 0.000000 
#    y 0.000000 3.502190 0.000000 
#    z 0.000000 0.000000 3.561180 
# 
# 
# High freq. dielectric constant tensor:
#      x y z
#    x 1.753120 0.000000 0.000000 
#    y 0.000000 1.735320 0.000000 
#    z 0.000000 0.000000 1.737140 
# 
# From -- ./inp_files/39739.got.cif
#   From: 2010.03.12/outbox.cif.g09.slc.cpg/sg65_20_cif.got.tgz:39739.got - 2010.04.10 20:52:16.
