data_PCOD8266568
_publ_section_title
;
Structure prediction by ZEFSAII (Michael W. Deem and Ramdas Pophale) SiO2 
 PCOD8266568
Probable space group: C M M M
;
_chemical_formula_sum "Si O2"
_cell_formula_units_Z 96
_cell_length_a 26.882558
_cell_length_b 22.269859
_cell_length_c 8.992702
_cell_angle_alpha 90.000000
_cell_angle_beta 90.000000
_cell_angle_gamma 90.000000
_cell_volume 5383.667887
_symmetry_space_group_name_H-M "C M M M"
_symmetry_group_IT_number 65
_symmetry_cell_setting 'orthorhombic'
loop_
_space_group_symop_operation_xyz
x,y,z
-x,-y,z
x,-y,-z
-x,y,-z
-x,-y,-z
x,y,-z
-x,y,z
x,-y,z
1/2+x,1/2+y,z
1/2-x,1/2-y,z
1/2+x,1/2-y,-z
1/2-x,1/2+y,-z
1/2-x,1/2-y,-z
1/2+x,1/2+y,-z
1/2-x,1/2+y,z
1/2+x,1/2-y,z
loop_
_atom_site_type_symbol
_atom_site_label
_atom_site_fract_x
_atom_site_fract_y
_atom_site_fract_z
Si Si1 0.387606 0.115839 0.676556
Si Si2 0.000000 0.066991 0.676920
Si Si3 0.943513 0.267359 0.323076
Si Si4 0.716754 0.930607 0.329561
Si Si5 0.556075 0.000000 0.677512
Si Si6 0.181852 0.931487 0.175027
Si Si7 0.594905 0.360668 0.676312
O O1 0.392230 0.115429 0.500000
O O2 0.412103 0.176575 0.741275
O O3 0.329643 0.110578 0.721870
O O4 0.417353 0.059140 0.742360
O O5 0.951082 0.100082 0.736278
O O6 0.000000 0.067473 0.500000
O O7 0.000000 0.000000 0.741870
O O8 0.946047 0.269419 0.500000
O O9 0.914954 0.207398 0.271619
O O10 0.000000 0.268602 0.260153
O O11 0.731577 0.917326 0.500000
O O12 0.762858 0.913762 0.225655
O O13 0.700821 0.000000 0.311532
O O14 0.500000 0.000000 0.736001
O O15 0.558413 0.000000 0.500000
O O16 0.144776 0.885030 0.250647
O O17 0.169759 0.000000 0.225142
O O18 0.178034 0.924539 0.000000
O O19 0.600322 0.365605 0.500000
#
# Coordination Sequence:
#
# PCOD8266568 Si02
#       7
#    16   8  16  16   8  16  16
#     4   9  15  24  41  68 101 134 166 200 241 288
#     4   9  16  26  45  71  95 118 154 200 239 283
#     4   9  16  27  44  69 101 135 166 198 238 290
#     4   9  16  29  49  72  98 129 166 206 246 289
#     4   9  14  20  34  64 105 139 161 192 245 298
#     4  10  21  35  51  72  97 124 160 207 258 302
#     4  10  18  31  50  73  99 130 165 198 240 293
#
# _framework density 17.831707999999999
#
# number of rings (size 3 to 8) (size 9 to 14) (size 15 to 20)
#    0.000    2.667    1.667    1.500    0.000    3.667 
#    0.000    1.250    0.000    7.500    0.000    0.000 
#    0.000    2.667    0.000    0.000    0.000    0.000 
#
# Total GULP energy -595116.493120 kJ/mol
# GULP energy per Si atom -12398.260273 kJ/mol
# Density = 1.779112 g / cm^3
# Si number density = 17.831708 Si / 1000 Ang^3
#
#
#
# Elastic Constant Matrix: (Units=GPa)
#
#
# Indices 1 2 3 4 5 6 
#
# 1 145.0902 92.2684 26.1487 0.0000 0.0000 0.0000
# 2 92.2684 159.2205 23.6494 0.0000 0.0000 0.0000
# 3 26.1487 23.6494 22.6370 0.0000 0.0000 0.0000
# 4 0.0000 0.0000 0.0000 9.0631 0.0000 0.0000
# 5 0.0000 0.0000 0.0000 0.0000 -1.2497 0.0000
# 6 0.0000 0.0000 0.0000 0.0000 0.0000 33.2529
#
#
#
# Elastic Compliance Matrix: (Units=1/GPa)
#
#
# Indices 1 2 3 4 5 6 
#
# 1 0.011973 -0.005781 -0.007790 0.000000 0.000000 0.000000
# 2 -0.005781 0.010226 -0.004005 0.000000 0.000000 0.000000
# 3 -0.007790 -0.004005 0.057358 0.000000 0.000000 0.000000
# 4 0.000000 0.000000 0.000000 0.110338 0.000000 0.000000
# 5 0.000000 0.000000 0.000000 0.000000 -0.800169 0.000000
# 6 0.000000 0.000000 0.000000 0.000000 0.000000 0.030073
#
#
# Mechanical properties :
#
#
# Convention : Reuss Voigt Hill
#
# Bulk Modulus (GPa) = 22.52062 67.89784 45.20923
# Shear Modulus (GPa) = -9.42956 20.53867 5.55456
#
# Velocity S-wave (km/s) = -2.30208 3.39751 1.76685
# Velocity P-wave (km/s) = 2.36450 7.31782 5.43789
#
# Compressibility (1/GPa) = 0.04440376
#
# Stress axis : x y z
#
# Youngs Moduli (GPa) = 83.52359 97.79378 17.43423
#
# Poissons Ratio (x) = 0.56535 0.13582
# Poissons Ratio (y) = 0.48285 0.06982
# Poissons Ratio (z) = 0.65068 0.39167
#
# Static dielectric constant tensor:
#      x y z
#    x 3.394950 0.000000 0.000000 
#    y 0.000000 3.478610 0.000000 
#    z 0.000000 0.000000 2.713480 
# 
# 
# High freq. dielectric constant tensor:
#      x y z
#    x 1.702040 0.000000 0.000000 
#    y 0.000000 1.688270 0.000000 
#    z 0.000000 0.000000 1.628730 
# 
# From -- ./inp_files/16696.got.cif
#   From: 2010.03.12/outbox.cif.g09.slc.cpg/sg65_9_cif.got.tgz:16696.got - 2010.04.10 20:52:16.
