data_PCOD8266271
_publ_section_title
;
Structure prediction by ZEFSAII (Michael W. Deem and Ramdas Pophale) SiO2 
 PCOD8266271
Probable space group: C M M M
;
_chemical_formula_sum "Si O2"
_cell_formula_units_Z 80
_cell_length_a 9.140741
_cell_length_b 25.459842
_cell_length_c 22.048414
_cell_angle_alpha 90.000000
_cell_angle_beta 90.000000
_cell_angle_gamma 90.000000
_cell_volume 5131.147070
_symmetry_space_group_name_H-M "C M M M"
_symmetry_group_IT_number 65
_symmetry_cell_setting 'orthorhombic'
loop_
_space_group_symop_operation_xyz
x,y,z
-x,-y,z
x,-y,-z
-x,y,-z
-x,-y,-z
x,y,-z
-x,y,z
x,-y,z
1/2+x,1/2+y,z
1/2-x,1/2-y,z
1/2+x,1/2-y,-z
1/2-x,1/2+y,-z
1/2-x,1/2-y,-z
1/2+x,1/2+y,-z
1/2-x,1/2+y,z
1/2+x,1/2-y,z
loop_
_atom_site_type_symbol
_atom_site_label
_atom_site_fract_x
_atom_site_fract_y
_atom_site_fract_z
Si Si1 0.165148 0.937323 0.500000
Si Si2 0.664842 0.937443 0.382989
Si Si3 0.671258 0.804060 0.930374
Si Si4 0.329125 0.603326 0.135722
Si Si5 0.167961 0.060158 0.265353
Si Si6 0.826153 0.000000 0.931760
O O1 0.246420 0.915140 0.559534
O O2 0.000000 0.915977 0.500000
O O3 0.167655 0.000000 0.500000
O O4 0.500000 0.916104 0.386792
O O5 0.736370 0.917233 0.320588
O O6 0.669147 0.000000 0.384066
O O7 0.500000 0.797426 0.918041
O O8 0.750000 0.750000 0.913979
O O9 0.735682 0.847752 0.886266
O O10 0.702845 0.820010 0.000000
O O11 0.500000 0.612512 0.121085
O O12 0.302379 0.596307 0.207220
O O13 0.268110 0.551836 0.101671
O O14 0.000000 0.063069 0.285765
O O15 0.209375 0.000000 0.249234
O O16 0.000000 0.000000 0.929513
O O17 0.765424 0.000000 0.000000
#
# Coordination Sequence:
#
# PCOD8266271 Si02
#       6
#     8  16  16  16  16   8
#     4   9  15  23  35  51  71 101 142 185 224 257
#     4   9  16  24  35  52  76 107 144 183 221 257
#     4  10  21  36  52  69  88 112 145 186 232 279
#     4  10  18  30  48  69  91 118 150 185 222 266
#     4   9  16  27  41  59  85 116 150 181 213 259
#     4   9  16  26  43  67  91 116 147 180 217 263
#
# _framework density 15.591056
#
# number of rings (size 3 to 8) (size 9 to 14) (size 15 to 20)
#    0.000    2.600    1.000    2.100    0.000    6.400 
#    0.000    0.500    0.000    1.800    0.000    0.000 
#    0.000    0.000    0.000    0.900    0.000   12.100 
#
# Total GULP energy -496004.473564 kJ/mol
# GULP energy per Si atom -12400.111839 kJ/mol
# Density = 1.555557 g / cm^3
# Si number density = 15.591056 Si / 1000 Ang^3
#
#
#
# Elastic Constant Matrix: (Units=GPa)
#
#
# Indices 1 2 3 4 5 6 
#
# 1 104.2387 41.1589 67.2232 0.0000 0.0000 0.0000
# 2 41.1589 66.0036 43.6346 0.0000 0.0000 0.0000
# 3 67.2232 43.6346 118.3206 0.0000 0.0000 0.0000
# 4 0.0000 0.0000 0.0000 8.6918 0.0000 0.0000
# 5 0.0000 0.0000 0.0000 0.0000 27.1613 0.0000
# 6 0.0000 0.0000 0.0000 0.0000 0.0000 19.5969
#
#
#
# Elastic Compliance Matrix: (Units=1/GPa)
#
#
# Indices 1 2 3 4 5 6 
#
# 1 0.016480 -0.005405 -0.007370 0.000000 0.000000 0.000000
# 2 -0.005405 0.021808 -0.004972 0.000000 0.000000 0.000000
# 3 -0.007370 -0.004972 0.014472 0.000000 0.000000 0.000000
# 4 0.000000 0.000000 0.000000 0.115051 0.000000 0.000000
# 5 0.000000 0.000000 0.000000 0.000000 0.036817 0.000000
# 6 0.000000 0.000000 0.000000 0.000000 0.000000 0.051029
#
#
# Mechanical properties :
#
#
# Convention : Reuss Voigt Hill
#
# Bulk Modulus (GPa) = 57.91188 65.84402 61.87795
# Shear Modulus (GPa) = 16.84036 20.19309 18.51672
#
# Velocity S-wave (km/s) = 3.29010 3.60275 3.44997
# Velocity P-wave (km/s) = 7.18734 7.72205 7.45949
#
# Compressibility (1/GPa) = 0.01726761
#
# Stress axis : x y z
#
# Youngs Moduli (GPa) = 60.67843 45.85547 69.09720
#
# Poissons Ratio (x) = 0.24783 0.50925
# Poissons Ratio (y) = 0.32794 0.34353
# Poissons Ratio (z) = 0.44721 0.22798
#
# Static dielectric constant tensor:
#      x y z
#    x 2.985770 0.000000 0.000000 
#    y 0.000000 2.551800 0.000000 
#    z 0.000000 0.000000 3.079360 
# 
# 
# High freq. dielectric constant tensor:
#      x y z
#    x 1.599190 0.000000 0.000000 
#    y 0.000000 1.539450 0.000000 
#    z 0.000000 0.000000 1.606820 
# 
# From -- ./inp_files/60058.got.cif
#   From: 2010.03.12/outbox.cif.g09.slc.cpg/sg65_31_cif.got.tgz:60058.got - 2010.04.10 20:52:16.
