data_PCOD8266056
_publ_section_title
;
Structure prediction by ZEFSAII (Michael W. Deem and Ramdas Pophale) SiO2 
 PCOD8266056
Probable space group: C M M M
;
_chemical_formula_sum "Si O2"
_cell_formula_units_Z 104
_cell_length_a 23.759184
_cell_length_b 27.843456
_cell_length_c 9.281742
_cell_angle_alpha 90.000000
_cell_angle_beta 90.000000
_cell_angle_gamma 90.000000
_cell_volume 6140.223130
_symmetry_space_group_name_H-M "C M M M"
_symmetry_group_IT_number 65
_symmetry_cell_setting 'orthorhombic'
loop_
_space_group_symop_operation_xyz
x,y,z
-x,-y,z
x,-y,-z
-x,y,-z
-x,-y,-z
x,y,-z
-x,y,z
x,-y,z
1/2+x,1/2+y,z
1/2-x,1/2-y,z
1/2+x,1/2-y,-z
1/2-x,1/2+y,-z
1/2-x,1/2-y,-z
1/2+x,1/2+y,-z
1/2-x,1/2+y,z
1/2+x,1/2-y,z
loop_
_atom_site_type_symbol
_atom_site_label
_atom_site_fract_x
_atom_site_fract_y
_atom_site_fract_z
Si Si1 0.563640 0.500000 0.671380
Si Si2 0.642773 0.056206 0.167113
Si Si3 0.433276 0.126740 0.664637
Si Si4 0.064183 0.175769 0.169994
Si Si5 0.433286 0.782962 0.159333
Si Si6 0.127128 0.093710 0.668644
Si Si7 0.747369 0.555365 0.335403
O O1 0.500000 0.500000 0.728700
O O2 0.566895 0.500000 0.500000
O O3 0.594239 0.547461 0.730923
O O4 0.592244 0.082736 0.247088
O O5 0.702492 0.072609 0.232320
O O6 0.633322 0.000000 0.193019
O O7 0.641924 0.069904 0.000000
O O8 0.413285 0.124081 0.500000
O O9 0.500000 0.122684 0.678297
O O10 0.410699 0.177121 0.729692
O O11 0.083948 0.229697 0.211555
O O12 0.106384 0.140676 0.250371
O O13 0.000000 0.166452 0.221244
O O14 0.068784 0.167943 0.000000
O O15 0.500000 0.785000 0.149742
O O16 0.408273 0.793546 0.000000
O O17 0.114952 0.099785 0.500000
O O18 0.193246 0.087651 0.699719
O O19 0.766910 0.562468 0.500000
O O20 0.731000 0.500000 0.307472
#
# Coordination Sequence:
#
# PCOD8266056 Si02
#       7
#     8  16  16  16  16  16  16
#     4   9  16  26  41  65  97 129 162 201 246 295
#     4  10  21  35  52  75 101 131 166 198 233 283
#     4  10  20  33  52  79 106 130 157 192 238 287
#     4   9  18  31  46  68  99 132 165 203 249 296
#     4   8  15  30  50  69  94 130 166 198 236 288
#     4  10  18  29  47  70  94 127 168 209 251 294
#     4   9  17  32  51  69  93 126 168 211 249 289
#
# _framework density 16.937494999999998
#
# number of rings (size 3 to 8) (size 9 to 14) (size 15 to 20)
#    0.000    2.692    0.769    2.308    0.000    4.308 
#    0.000    3.462    0.000    2.308    0.000    6.462 
#    0.000    0.000    0.000    0.000    0.000    0.000 
#
# Total GULP energy -644773.897556 kJ/mol
# GULP energy per Si atom -12399.498030 kJ/mol
# Density = 1.689894 g / cm^3
# Si number density = 16.937495 Si / 1000 Ang^3
#
#
#
# Elastic Constant Matrix: (Units=GPa)
#
#
# Indices 1 2 3 4 5 6 
#
# 1 58.2290 46.7239 45.3992 0.0000 0.0000 0.0000
# 2 46.7239 100.9605 60.5645 0.0000 0.0000 0.0000
# 3 45.3992 60.5645 93.8938 0.0000 0.0000 0.0000
# 4 0.0000 0.0000 0.0000 31.1020 0.0000 0.0000
# 5 0.0000 0.0000 0.0000 0.0000 25.8460 0.0000
# 6 0.0000 0.0000 0.0000 0.0000 0.0000 13.6837
#
#
#
# Elastic Compliance Matrix: (Units=1/GPa)
#
#
# Indices 1 2 3 4 5 6 
#
# 1 0.031884 -0.008984 -0.009622 0.000000 0.000000 0.000000
# 2 -0.008984 0.018688 -0.007710 0.000000 0.000000 0.000000
# 3 -0.009622 -0.007710 0.020276 0.000000 0.000000 0.000000
# 4 0.000000 0.000000 0.000000 0.032152 0.000000 0.000000
# 5 0.000000 0.000000 0.000000 0.000000 0.038691 0.000000
# 6 0.000000 0.000000 0.000000 0.000000 0.000000 0.073079
#
#
# Mechanical properties :
#
#
# Convention : Reuss Voigt Hill
#
# Bulk Modulus (GPa) = 54.89637 62.05094 58.47365
# Shear Modulus (GPa) = 18.28326 20.81938 19.55132
#
# Velocity S-wave (km/s) = 3.28907 3.50978 3.40122
# Velocity P-wave (km/s) = 6.84876 7.28969 7.07266
#
# Compressibility (1/GPa) = 0.01821614
#
# Stress axis : x y z
#
# Youngs Moduli (GPa) = 31.36368 53.51045 49.31948
#
# Poissons Ratio (x) = 0.48073 0.47453
# Poissons Ratio (y) = 0.28177 0.38027
# Poissons Ratio (z) = 0.30177 0.41259
#
# Static dielectric constant tensor:
#      x y z
#    x 2.977280 0.000000 0.000000 
#    y 0.000000 3.243650 0.000000 
#    z 0.000000 0.000000 3.180110 
# 
# 
# High freq. dielectric constant tensor:
#      x y z
#    x 1.632050 0.000000 0.000000 
#    y 0.000000 1.651240 0.000000 
#    z 0.000000 0.000000 1.648330 
# 
# From -- ./inp_files/14705.got.cif
#   From: 2010.03.12/outbox.cif.g09.slc.cpg/sg65_8_cif.got.tgz:14705.got - 2010.04.10 20:52:16.
