data_PCOD8266522
_publ_section_title
;
Structure prediction by ZEFSAII (Michael W. Deem and Ramdas Pophale) SiO2 
 PCOD8266522
Probable space group: C M M M
;
_chemical_formula_sum "Si O2"
_cell_formula_units_Z 88
_cell_length_a 18.784416
_cell_length_b 21.877360
_cell_length_c 12.572371
_cell_angle_alpha 90.000000
_cell_angle_beta 90.000000
_cell_angle_gamma 90.000000
_cell_volume 5166.659001
_symmetry_space_group_name_H-M "C M M M"
_symmetry_group_IT_number 65
_symmetry_cell_setting 'orthorhombic'
loop_
_space_group_symop_operation_xyz
x,y,z
-x,-y,z
x,-y,-z
-x,y,-z
-x,-y,-z
x,y,-z
-x,y,z
x,-y,z
1/2+x,1/2+y,z
1/2-x,1/2-y,z
1/2+x,1/2-y,-z
1/2-x,1/2+y,-z
1/2-x,1/2-y,-z
1/2+x,1/2+y,-z
1/2-x,1/2+y,z
1/2+x,1/2-y,z
loop_
_atom_site_type_symbol
_atom_site_label
_atom_site_fract_x
_atom_site_fract_y
_atom_site_fract_z
Si Si1 0.084895 0.430917 0.500000
Si Si2 0.078262 0.932993 0.876274
Si Si3 0.919799 0.217133 0.378482
Si Si4 0.171386 0.313366 0.123231
Si Si5 0.831339 0.180470 0.189448
Si Si6 0.419351 0.854095 0.694036
O O1 0.110827 0.500000 0.500000
O O2 0.115098 0.400669 0.391544
O O3 0.000000 0.422877 0.500000
O O4 0.136240 0.880723 0.858687
O O5 0.000000 0.915202 0.828778
O O6 0.101978 0.000000 0.829611
O O7 0.069691 0.940697 0.000000
O O8 0.904215 0.200511 0.500000
O O9 0.859644 0.182737 0.310308
O O10 0.912598 0.288932 0.361549
O O11 0.000000 0.196258 0.346329
O O12 0.144795 0.242622 0.128081
O O13 0.246660 0.322407 0.181426
O O14 0.119030 0.356311 0.191104
O O15 0.173979 0.334151 0.000000
O O16 0.500000 0.872464 0.718758
#
# Coordination Sequence:
#
# PCOD8266522 Si02
#       6
#     8  16  16  16  16  16
#     4   9  16  30  54  75  92 118 154 201 250 294
#     4   9  17  29  47  70  93 122 166 213 246 283
#     4   9  16  28  47  71  99 126 158 206 256 300
#     4  10  20  32  47  72 103 133 164 203 252 308
#     4  10  18  31  47  69  97 134 166 201 252 303
#     4   9  17  31  49  71  97 125 160 205 250 298
#
# _framework density 17.032284000000001
#
# number of rings (size 3 to 8) (size 9 to 14) (size 15 to 20)
#    0.000    2.636    0.909    3.273    0.000    1.091 
#    1.636    2.727    0.000    2.182    0.000    5.091 
#    0.000    0.000    0.000    0.000    0.000    0.000 
#
# Total GULP energy -545182.295960 kJ/mol
# GULP energy per Si atom -12390.506726 kJ/mol
# Density = 1.699352 g / cm^3
# Si number density = 17.032284 Si / 1000 Ang^3
#
#
#
# Elastic Constant Matrix: (Units=GPa)
#
#
# Indices 1 2 3 4 5 6 
#
# 1 75.4498 42.2599 57.8254 0.0000 0.0000 0.0000
# 2 42.2599 85.5557 35.2801 0.0000 0.0000 0.0000
# 3 57.8254 35.2801 125.8060 0.0000 0.0000 0.0000
# 4 0.0000 0.0000 0.0000 19.0045 0.0000 0.0000
# 5 0.0000 0.0000 0.0000 0.0000 25.9737 0.0000
# 6 0.0000 0.0000 0.0000 0.0000 0.0000 18.6771
#
#
#
# Elastic Compliance Matrix: (Units=1/GPa)
#
#
# Indices 1 2 3 4 5 6 
#
# 1 0.025059 -0.008625 -0.009099 0.000000 0.000000 0.000000
# 2 -0.008625 0.016186 -0.000574 0.000000 0.000000 0.000000
# 3 -0.009099 -0.000574 0.012292 0.000000 0.000000 0.000000
# 4 0.000000 0.000000 0.000000 0.052619 0.000000 0.000000
# 5 0.000000 0.000000 0.000000 0.000000 0.038500 0.000000
# 6 0.000000 0.000000 0.000000 0.000000 0.000000 0.053542
#
#
# Mechanical properties :
#
#
# Convention : Reuss Voigt Hill
#
# Bulk Modulus (GPa) = 59.03690 61.94913 60.49301
# Shear Modulus (GPa) = 20.79510 22.82749 21.81129
#
# Velocity S-wave (km/s) = 3.49796 3.66491 3.58241
# Velocity P-wave (km/s) = 7.14502 7.37288 7.25984
#
# Compressibility (1/GPa) = 0.01693856
#
# Stress axis : x y z
#
# Youngs Moduli (GPa) = 39.90644 61.78314 81.35299
#
# Poissons Ratio (x) = 0.53291 0.74024
# Poissons Ratio (y) = 0.34421 0.04673
# Poissons Ratio (z) = 0.36311 0.03549
#
# Static dielectric constant tensor:
#      x y z
#    x 3.119220 0.000000 0.000000 
#    y 0.000000 3.119090 0.000000 
#    z 0.000000 0.000000 3.177590 
# 
# 
# High freq. dielectric constant tensor:
#      x y z
#    x 1.641650 0.000000 0.000000 
#    y 0.000000 1.634490 0.000000 
#    z 0.000000 0.000000 1.650420 
# 
# From -- ./inp_files/26814.got.cif
#   From: 2010.03.12/outbox.cif.g09.slc.cpg/sg65_14_cif.got.tgz:26814.got - 2010.04.10 20:52:16.
