data_PCOD8266621
_publ_section_title
;
Structure prediction by ZEFSAII (Michael W. Deem and Ramdas Pophale) SiO2 
 PCOD8266621
Probable space group: C M M M
;
_chemical_formula_sum "Si O2"
_cell_formula_units_Z 120
_cell_length_a 8.907499
_cell_length_b 27.412040
_cell_length_c 25.949233
_cell_angle_alpha 90.000000
_cell_angle_beta 90.000000
_cell_angle_gamma 90.000000
_cell_volume 6336.094775
_symmetry_space_group_name_H-M "C M M M"
_symmetry_group_IT_number 65
_symmetry_cell_setting 'orthorhombic'
loop_
_space_group_symop_operation_xyz
x,y,z
-x,-y,z
x,-y,-z
-x,y,-z
-x,-y,-z
x,y,-z
-x,y,z
x,-y,z
1/2+x,1/2+y,z
1/2-x,1/2-y,z
1/2+x,1/2-y,-z
1/2-x,1/2+y,-z
1/2-x,1/2-y,-z
1/2+x,1/2+y,-z
1/2-x,1/2+y,z
1/2+x,1/2-y,z
loop_
_atom_site_type_symbol
_atom_site_label
_atom_site_fract_x
_atom_site_fract_y
_atom_site_fract_z
Si Si1 0.824017 0.906214 0.123318
Si Si2 0.177595 0.199831 0.739720
Si Si3 0.670445 0.445457 0.324518
Si Si4 0.173664 0.200444 0.141850
Si Si5 0.331528 0.054609 0.218759
Si Si6 0.322125 0.500000 0.057621
Si Si7 0.325013 0.856247 0.351014
Si Si8 0.672185 0.698531 0.442968
O O1 0.794010 0.848930 0.107336
O O2 0.729316 0.910240 0.174983
O O3 0.000000 0.913566 0.134941
O O4 0.768715 0.948718 0.083886
O O5 0.250000 0.250000 0.720034
O O6 0.224525 0.190110 0.799064
O O7 0.245357 0.158689 0.702601
O O8 0.000000 0.201845 0.732581
O O9 0.500000 0.426404 0.329616
O O10 0.685220 0.500000 0.345999
O O11 0.716311 0.442760 0.265171
O O12 0.784486 0.413103 0.358081
O O13 0.250000 0.250000 0.119658
O O14 0.000000 0.212827 0.140696
O O15 0.500000 0.070665 0.235719
O O16 0.334507 0.000000 0.196050
O O17 0.500000 0.500000 0.056136
O O18 0.254854 0.500000 0.000000
O O19 0.500000 0.846240 0.346748
O O20 0.261906 0.831890 0.401663
O O21 0.681653 0.674174 0.500000
O O22 0.500000 0.704075 0.425250
O O23 0.750000 0.750000 0.445412
#
# Coordination Sequence:
#
# PCOD8266621 Si02
#       8
#    16  16  16  16  16   8  16  16
#     4  10  18  31  52  75 101 136 177 219 265 317
#     4  10  19  32  48  70 104 139 177 216 255 308
#     4  10  21  36  53  73 102 140 179 216 255 303
#     4   9  19  32  48  71  99 135 175 213 255 307
#     4  10  19  30  47  75 108 138 172 210 256 312
#     4   9  18  32  53  81 107 133 173 227 278 319
#     4  12  23  34  52  77 106 139 174 214 265 317
#     4  10  21  38  59  81 105 133 169 215 266 319
#
# _framework density 18.939111
#
# number of rings (size 3 to 8) (size 9 to 14) (size 15 to 20)
#    0.000    1.933    0.667    4.000    0.000    4.267 
#    0.000    0.000    0.000    1.600    0.000    2.800 
#    0.000    0.000    0.000    0.000    0.000    0.000 
#
# Total GULP energy -743568.934382 kJ/mol
# GULP energy per Si atom -12392.815573 kJ/mol
# Density = 1.889601 g / cm^3
# Si number density = 18.939111 Si / 1000 Ang^3
#
#
#
# Elastic Constant Matrix: (Units=GPa)
#
#
# Indices 1 2 3 4 5 6 
#
# 1 87.5034 40.6168 20.5718 0.0000 0.0000 0.0000
# 2 40.6168 127.5975 42.8462 0.0000 0.0000 0.0000
# 3 20.5718 42.8462 53.8933 0.0000 0.0000 0.0000
# 4 0.0000 0.0000 0.0000 20.5616 0.0000 0.0000
# 5 0.0000 0.0000 0.0000 0.0000 17.1093 0.0000
# 6 0.0000 0.0000 0.0000 0.0000 0.0000 31.2459
#
#
#
# Elastic Compliance Matrix: (Units=1/GPa)
#
#
# Indices 1 2 3 4 5 6 
#
# 1 0.013632 -0.003536 -0.002392 0.000000 0.000000 0.000000
# 2 -0.003536 0.011609 -0.007879 0.000000 0.000000 0.000000
# 3 -0.002392 -0.007879 0.025733 0.000000 0.000000 0.000000
# 4 0.000000 0.000000 0.000000 0.048634 0.000000 0.000000
# 5 0.000000 0.000000 0.000000 0.000000 0.058448 0.000000
# 6 0.000000 0.000000 0.000000 0.000000 0.000000 0.032004
#
#
# Mechanical properties :
#
#
# Convention : Reuss Voigt Hill
#
# Bulk Modulus (GPa) = 42.81223 53.00710 47.90967
# Shear Modulus (GPa) = 22.17686 24.78064 23.47875
#
# Velocity S-wave (km/s) = 3.42564 3.62116 3.52475
# Velocity P-wave (km/s) = 6.18877 6.74779 6.47432
#
# Compressibility (1/GPa) = 0.02335781
#
# Stress axis : x y z
#
# Youngs Moduli (GPa) = 73.35760 86.14367 38.86131
#
# Poissons Ratio (x) = 0.30460 0.09297
# Poissons Ratio (y) = 0.25939 0.30620
# Poissons Ratio (z) = 0.17549 0.67875
#
# Static dielectric constant tensor:
#      x y z
#    x 3.493450 0.000000 0.000000 
#    y 0.000000 3.846790 0.000000 
#    z 0.000000 0.000000 3.350360 
# 
# 
# High freq. dielectric constant tensor:
#      x y z
#    x 1.737850 0.000000 0.000000 
#    y 0.000000 1.748720 0.000000 
#    z 0.000000 0.000000 1.691500 
# 
# From -- ./inp_files/73868.got.cif
#   From: 2010.03.12/outbox.cif.g09.slc.cpg/sg65_37_cif.got.tgz:73868.got - 2010.04.10 20:52:16.
