data_PCOD8266421
_publ_section_title
;
Structure prediction by ZEFSAII (Michael W. Deem and Ramdas Pophale) SiO2 
 PCOD8266421
Probable space group: C M M M
;
_chemical_formula_sum "Si O2"
_cell_formula_units_Z 104
_cell_length_a 9.374061
_cell_length_b 28.337979
_cell_length_c 22.810415
_cell_angle_alpha 90.000000
_cell_angle_beta 90.000000
_cell_angle_gamma 90.000000
_cell_volume 6059.402979
_symmetry_space_group_name_H-M "C M M M"
_symmetry_group_IT_number 65
_symmetry_cell_setting 'orthorhombic'
loop_
_space_group_symop_operation_xyz
x,y,z
-x,-y,z
x,-y,-z
-x,y,-z
-x,-y,-z
x,y,-z
-x,y,z
x,-y,z
1/2+x,1/2+y,z
1/2-x,1/2-y,z
1/2+x,1/2-y,-z
1/2-x,1/2+y,-z
1/2-x,1/2-y,-z
1/2+x,1/2+y,-z
1/2-x,1/2+y,z
1/2+x,1/2-y,z
loop_
_atom_site_type_symbol
_atom_site_label
_atom_site_fract_x
_atom_site_fract_y
_atom_site_fract_z
Si Si1 0.332496 0.103606 0.105414
Si Si2 0.331993 0.106676 0.663948
Si Si3 0.669396 0.052706 0.777184
Si Si4 0.334635 0.553640 0.432273
Si Si5 0.668746 0.555453 0.000000
Si Si6 0.165624 0.295123 0.717410
Si Si7 0.335255 0.204906 0.851647
O O1 0.500000 0.093498 0.093742
O O2 0.279904 0.081786 0.166594
O O3 0.237681 0.079762 0.056155
O O4 0.302300 0.159650 0.107803
O O5 0.500000 0.099209 0.656785
O O6 0.270837 0.076222 0.718130
O O7 0.256813 0.090492 0.604715
O O8 0.294111 0.161057 0.676192
O O9 0.500000 0.053061 0.774810
O O10 0.731038 0.000000 0.781772
O O11 0.303384 0.564285 0.500000
O O12 0.500000 0.561120 0.417843
O O13 0.289281 0.500000 0.417048
O O14 0.705115 0.500000 0.000000
O O15 0.500000 0.564297 0.000000
O O16 0.250000 0.250000 0.693460
O O17 0.208376 0.306836 0.784592
O O18 0.000000 0.283317 0.713333
O O19 0.500000 0.218299 0.855038
O O20 0.250000 0.250000 0.876115
#
# Coordination Sequence:
#
# PCOD8266421 Si02
#       7
#    16  16  16  16   8  16  16
#     4  10  19  35  57  78  99 132 177 213 244 300
#     4  10  18  30  50  78 106 130 165 213 258 299
#     4   9  16  27  47  75 103 128 158 204 256 298
#     4   9  19  35  51  69 100 141 178 210 248 300
#     4  11  25  41  54  73 104 137 170 213 260 303
#     4   9  17  30  48  74 107 136 164 203 252 305
#     4   9  17  31  52  78 106 133 165 206 252 303
#
# _framework density 17.163406999999999
#
# number of rings (size 3 to 8) (size 9 to 14) (size 15 to 20)
#    0.000    2.538    1.538    1.615    0.000    3.692 
#    0.000    1.923    0.000    3.231    0.000    0.000 
#    0.000    0.000    0.000    0.000    0.000    0.000 
#
# Total GULP energy -644780.003652 kJ/mol
# GULP energy per Si atom -12399.615455 kJ/mol
# Density = 1.712434 g / cm^3
# Si number density = 17.163407 Si / 1000 Ang^3
#
#
#
# Elastic Constant Matrix: (Units=GPa)
#
#
# Indices 1 2 3 4 5 6 
#
# 1 57.5701 62.8424 45.9433 0.0000 0.0000 0.0000
# 2 62.8424 143.4095 63.7943 0.0000 0.0000 0.0000
# 3 45.9433 63.7943 93.7818 0.0000 0.0000 0.0000
# 4 0.0000 0.0000 0.0000 26.2816 0.0000 0.0000
# 5 0.0000 0.0000 0.0000 0.0000 23.7483 0.0000
# 6 0.0000 0.0000 0.0000 0.0000 0.0000 30.7227
#
#
#
# Elastic Compliance Matrix: (Units=1/GPa)
#
#
# Indices 1 2 3 4 5 6 
#
# 1 0.039865 -0.012591 -0.010964 0.000000 0.000000 0.000000
# 2 -0.012591 0.013976 -0.003338 0.000000 0.000000 0.000000
# 3 -0.010964 -0.003338 0.018305 0.000000 0.000000 0.000000
# 4 0.000000 0.000000 0.000000 0.038049 0.000000 0.000000
# 5 0.000000 0.000000 0.000000 0.000000 0.042108 0.000000
# 6 0.000000 0.000000 0.000000 0.000000 0.000000 0.032549
#
#
# Mechanical properties :
#
#
# Convention : Reuss Voigt Hill
#
# Bulk Modulus (GPa) = 54.47376 71.10235 62.78806
# Shear Modulus (GPa) = 20.42819 24.29596 22.36208
#
# Velocity S-wave (km/s) = 3.45370 3.76648 3.61348
# Velocity P-wave (km/s) = 6.90733 7.77379 7.35334
#
# Compressibility (1/GPa) = 0.01835746
#
# Stress axis : x y z
#
# Youngs Moduli (GPa) = 25.08487 71.55297 54.62897
#
# Poissons Ratio (x) = 0.90095 0.59897
# Poissons Ratio (y) = 0.31585 0.18237
# Poissons Ratio (z) = 0.27504 0.23887
#
# Static dielectric constant tensor:
#      x y z
#    x 2.979420 0.000000 0.000000 
#    y 0.000000 3.340450 0.000000 
#    z 0.000000 0.000000 3.107310 
# 
# 
# High freq. dielectric constant tensor:
#      x y z
#    x 1.641610 0.000000 0.000000 
#    y 0.000000 1.671420 0.000000 
#    z 0.000000 0.000000 1.648250 
# 
# From -- ./inp_files/60910.got.cif
#   From: 2010.03.12/outbox.cif.g09.slc.cpg/sg65_31_cif.got.tgz:60910.got - 2010.04.10 20:52:16.
