data_PCOD8266240
_publ_section_title
;
Structure prediction by ZEFSAII (Michael W. Deem and Ramdas Pophale) SiO2 
 PCOD8266240
Probable space group: C M M M
;
_chemical_formula_sum "Si O2"
_cell_formula_units_Z 120
_cell_length_a 14.251495
_cell_length_b 33.786148
_cell_length_c 13.708402
_cell_angle_alpha 90.000000
_cell_angle_beta 90.000000
_cell_angle_gamma 90.000000
_cell_volume 6600.638323
_symmetry_space_group_name_H-M "C M M M"
_symmetry_group_IT_number 65
_symmetry_cell_setting 'orthorhombic'
loop_
_space_group_symop_operation_xyz
x,y,z
-x,-y,z
x,-y,-z
-x,y,-z
-x,-y,-z
x,y,-z
-x,y,z
x,-y,z
1/2+x,1/2+y,z
1/2-x,1/2-y,z
1/2+x,1/2-y,-z
1/2-x,1/2+y,-z
1/2-x,1/2-y,-z
1/2+x,1/2+y,-z
1/2-x,1/2+y,z
1/2+x,1/2-y,z
loop_
_atom_site_type_symbol
_atom_site_label
_atom_site_fract_x
_atom_site_fract_y
_atom_site_fract_z
Si Si1 0.106150 0.000000 0.115185
Si Si2 0.890453 0.100111 0.612375
Si Si3 0.710287 0.573378 0.793029
Si Si4 0.709971 0.654912 0.113665
Si Si5 0.392964 0.953299 0.888104
Si Si6 0.110574 0.809119 0.607581
Si Si7 0.346533 0.268958 0.798565
Si Si8 0.399625 0.193864 0.888586
O O1 0.157396 0.961194 0.151992
O O2 0.000000 0.000000 0.154086
O O3 0.110615 0.000000 0.000000
O O4 0.874323 0.087735 0.500000
O O5 0.821198 0.073212 0.679180
O O6 0.860392 0.145674 0.628530
O O7 0.000000 0.093580 0.640339
O O8 0.675545 0.615190 0.834855
O O9 0.822185 0.568224 0.812422
O O10 0.637658 0.690015 0.142532
O O11 0.815413 0.666321 0.151314
O O12 0.707924 0.646988 0.000000
O O13 0.500000 0.941736 0.860846
O O14 0.378699 0.000000 0.878806
O O15 0.371167 0.940064 0.000000
O O16 0.145373 0.796593 0.500000
O O17 0.155427 0.778663 0.683761
O O18 0.000000 0.805531 0.615520
O O19 0.250000 0.250000 0.833703
O O20 0.418356 0.234487 0.827648
O O21 0.500000 0.170875 0.881605
O O22 0.376210 0.205471 0.000000
#
# Coordination Sequence:
#
# PCOD8266240 Si02
#       8
#     8  16  16  16  16  16  16  16
#     4  11  24  38  52  80 120 151 174 212 276 341
#     4   9  19  36  57  80 106 139 184 233 275 322
#     4  12  20  35  59  80 107 148 182 224 277 325
#     4  10  20  31  47  73 102 134 177 215 254 317
#     4   9  18  33  54  81 111 142 178 218 262 319
#     4   9  17  31  50  71  96 128 170 221 269 311
#     4  10  18  30  47  71 102 134 168 210 261 314
#     4   9  18  32  48  68 100 139 174 215 263 306
#
# _framework density 18.180060999999998
#
# number of rings (size 3 to 8) (size 9 to 14) (size 15 to 20)
#    0.000    2.200    2.000    3.600    0.000    2.400 
#    0.000    1.667    0.000    4.800    0.000    0.933 
#    0.000    0.000    0.000    0.000    0.000    0.000 
#
# Total GULP energy -743578.171124 kJ/mol
# GULP energy per Si atom -12392.969519 kJ/mol
# Density = 1.813868 g / cm^3
# Si number density = 18.180061 Si / 1000 Ang^3
#
#
#
# Elastic Constant Matrix: (Units=GPa)
#
#
# Indices 1 2 3 4 5 6 
#
# 1 64.0012 19.7154 33.2240 0.0000 0.0000 0.0000
# 2 19.7154 80.2665 28.3034 0.0000 0.0000 0.0000
# 3 33.2240 28.3034 87.2824 0.0000 0.0000 0.0000
# 4 0.0000 0.0000 0.0000 21.6286 0.0000 0.0000
# 5 0.0000 0.0000 0.0000 0.0000 27.6625 0.0000
# 6 0.0000 0.0000 0.0000 0.0000 0.0000 -69.0362
#
#
#
# Elastic Compliance Matrix: (Units=1/GPa)
#
#
# Indices 1 2 3 4 5 6 
#
# 1 0.019909 -0.002504 -0.006766 0.000000 0.000000 0.000000
# 2 -0.002504 0.014382 -0.003710 0.000000 0.000000 0.000000
# 3 -0.006766 -0.003710 0.015236 0.000000 0.000000 0.000000
# 4 0.000000 0.000000 0.000000 0.046235 0.000000 0.000000
# 5 0.000000 0.000000 0.000000 0.000000 0.036150 0.000000
# 6 0.000000 0.000000 0.000000 0.000000 0.000000 -0.014485
#
#
# Mechanical properties :
#
#
# Convention : Reuss Voigt Hill
#
# Bulk Modulus (GPa) = 42.43632 43.78174 43.10903
# Shear Modulus (GPa) = 33.05945 6.07146 19.56546
#
# Velocity S-wave (km/s) = 4.26895 1.82945 3.28411
# Velocity P-wave (km/s) = 6.90590 5.34762 6.17611
#
# Compressibility (1/GPa) = 0.02356472
#
# Stress axis : x y z
#
# Youngs Moduli (GPa) = 50.22979 69.53153 65.63488
#
# Poissons Ratio (x) = 0.17412 0.44409
# Poissons Ratio (y) = 0.12578 0.24354
# Poissons Ratio (z) = 0.33986 0.25800
#
# Static dielectric constant tensor:
#      x y z
#    x 3.368050 0.000000 0.000000 
#    y 0.000000 3.390560 0.000000 
#    z 0.000000 0.000000 3.417840 
# 
# 
# High freq. dielectric constant tensor:
#      x y z
#    x 1.696580 0.000000 0.000000 
#    y 0.000000 1.698380 0.000000 
#    z 0.000000 0.000000 1.687770 
# 
# From -- ./inp_files/41444.got.cif
#   From: 2010.03.12/outbox.cif.g09.slc.cpg/sg65_21_cif.got.tgz:41444.got - 2010.04.10 20:52:16.
