data_PCOD8266710
_publ_section_title
;
Structure prediction by ZEFSAII (Michael W. Deem and Ramdas Pophale) SiO2 
 PCOD8266710
Probable space group: C M M M
;
_chemical_formula_sum "Si O2"
_cell_formula_units_Z 84
_cell_length_a 19.166453
_cell_length_b 13.947512
_cell_length_c 15.761641
_cell_angle_alpha 90.000000
_cell_angle_beta 90.000000
_cell_angle_gamma 90.000000
_cell_volume 4213.470171
_symmetry_space_group_name_H-M "C M M M"
_symmetry_group_IT_number 65
_symmetry_cell_setting 'orthorhombic'
loop_
_space_group_symop_operation_xyz
x,y,z
-x,-y,z
x,-y,-z
-x,y,-z
-x,-y,-z
x,y,-z
-x,y,z
x,-y,z
1/2+x,1/2+y,z
1/2-x,1/2-y,z
1/2+x,1/2-y,-z
1/2-x,1/2+y,-z
1/2-x,1/2-y,-z
1/2+x,1/2+y,-z
1/2-x,1/2+y,z
1/2+x,1/2-y,z
loop_
_atom_site_type_symbol
_atom_site_label
_atom_site_fract_x
_atom_site_fract_y
_atom_site_fract_z
Si Si1 0.500000 0.361333 0.000000
Si Si2 0.640235 0.893230 0.906930
Si Si3 0.217436 0.112750 0.171166
Si Si4 0.000000 0.293437 0.133574
Si Si5 0.250000 0.250000 0.307924
Si Si6 0.500000 0.889463 0.690893
Si Si7 0.355117 0.890956 0.599798
Si Si8 0.153526 0.896819 0.000000
O O1 0.500000 0.311164 0.907128
O O2 0.571396 0.420041 0.000000
O O3 0.699500 0.868243 0.838676
O O4 0.570943 0.832942 0.904571
O O5 0.614382 0.000000 0.889502
O O6 0.674850 0.881618 0.000000
O O7 0.199702 0.179308 0.251784
O O8 0.177225 0.154857 0.087713
O O9 0.199783 0.000000 0.186559
O O10 0.000000 0.310326 0.234185
O O11 0.299316 0.184135 0.365064
O O12 0.431767 0.869461 0.635682
O O13 0.500000 0.000000 0.725037
O O14 0.359346 0.877131 0.500000
O O15 0.332195 0.000000 0.623299
O O16 0.192902 0.000000 0.000000
#
# Coordination Sequence:
#
# PCOD8266710 Si02
#       8
#     4  16  16   8   8   8  16   8
#     4  12  27  34  53  76 110 146 204 248 289 322
#     4  10  18  32  49  71 109 158 192 221 270 333
#     4  10  22  38  58  82 114 156 201 238 279 337
#     4  12  22  31  46  83 121 141 182 233 282 335
#     4  12  23  33  60  94 128 146 184 243 303 352
#     4  10  21  38  60  85 116 155 194 237 288 353
#     4  10  22  42  65  89 119 154 191 235 298 370
#     4  10  23  44  57  69 103 160 209 245 281 322
#
# _framework density 19.936062
#
# number of rings (size 3 to 8) (size 9 to 14) (size 15 to 20)
#    0.000    1.524    1.905    3.286    5.333    5.333 
#    0.000    0.000    0.000    0.000    0.000    2.000 
#    0.000    7.619    0.000    0.000    0.000    0.000 
#
# Total GULP energy -520383.456776 kJ/mol
# GULP energy per Si atom -12390.082304 kJ/mol
# Density = 1.989069 g / cm^3
# Si number density = 19.936062 Si / 1000 Ang^3
#
#
#
# Elastic Constant Matrix: (Units=GPa)
#
#
# Indices 1 2 3 4 5 6 
#
# 1 94.9849 39.5345 37.4865 0.0000 0.0000 0.0000
# 2 39.5345 85.4490 57.6128 0.0000 0.0000 0.0000
# 3 37.4865 57.6128 121.7437 0.0000 0.0000 0.0000
# 4 0.0000 0.0000 0.0000 24.4667 0.0000 0.0000
# 5 0.0000 0.0000 0.0000 0.0000 35.8940 0.0000
# 6 0.0000 0.0000 0.0000 0.0000 0.0000 25.6932
#
#
#
# Elastic Compliance Matrix: (Units=1/GPa)
#
#
# Indices 1 2 3 4 5 6 
#
# 1 0.013284 -0.004976 -0.001736 0.000000 0.000000 0.000000
# 2 -0.004976 0.019050 -0.007483 0.000000 0.000000 0.000000
# 3 -0.001736 -0.007483 0.012290 0.000000 0.000000 0.000000
# 4 0.000000 0.000000 0.000000 0.040872 0.000000 0.000000
# 5 0.000000 0.000000 0.000000 0.000000 0.027860 0.000000
# 6 0.000000 0.000000 0.000000 0.000000 0.000000 0.038921
#
#
# Mechanical properties :
#
#
# Convention : Reuss Voigt Hill
#
# Bulk Modulus (GPa) = 61.59562 63.49392 62.54477
# Shear Modulus (GPa) = 26.87055 28.38037 27.62546
#
# Velocity S-wave (km/s) = 3.67527 3.77712 3.72654
# Velocity P-wave (km/s) = 6.99813 7.13723 7.06802
#
# Compressibility (1/GPa) = 0.01623492
#
# Stress axis : x y z
#
# Youngs Moduli (GPa) = 75.27850 52.49221 81.36947
#
# Poissons Ratio (x) = 0.26120 0.14122
# Poissons Ratio (y) = 0.37458 0.60890
# Poissons Ratio (z) = 0.13065 0.39280
#
# Static dielectric constant tensor:
#      x y z
#    x 3.592780 0.000000 0.000000 
#    y 0.000000 3.604880 0.000000 
#    z 0.000000 0.000000 3.686710 
# 
# 
# High freq. dielectric constant tensor:
#      x y z
#    x 1.778220 0.000000 0.000000 
#    y 0.000000 1.774470 0.000000 
#    z 0.000000 0.000000 1.769360 
# 
# From -- ./inp_files/44081.got.cif
#   From: 2010.03.12/outbox.cif.g09.slc.cpg/sg65_23_cif.got.tgz:44081.got - 2010.04.10 20:52:16.
