data_PCOD8266485
_publ_section_title
;
Structure prediction by ZEFSAII (Michael W. Deem and Ramdas Pophale) SiO2 
 PCOD8266485
Probable space group: C M M M
;
_chemical_formula_sum "Si O2"
_cell_formula_units_Z 60
_cell_length_a 14.281817
_cell_length_b 34.302415
_cell_length_c 7.581932
_cell_angle_alpha 90.000000
_cell_angle_beta 90.000000
_cell_angle_gamma 90.000000
_cell_volume 3714.394656
_symmetry_space_group_name_H-M "C M M M"
_symmetry_group_IT_number 65
_symmetry_cell_setting 'orthorhombic'
loop_
_space_group_symop_operation_xyz
x,y,z
-x,-y,z
x,-y,-z
-x,y,-z
-x,-y,-z
x,y,-z
-x,y,z
x,-y,z
1/2+x,1/2+y,z
1/2-x,1/2-y,z
1/2+x,1/2-y,-z
1/2-x,1/2+y,-z
1/2-x,1/2-y,-z
1/2+x,1/2+y,-z
1/2-x,1/2+y,z
1/2+x,1/2-y,z
loop_
_atom_site_type_symbol
_atom_site_label
_atom_site_fract_x
_atom_site_fract_y
_atom_site_fract_z
Si Si1 0.500000 0.292008 0.697343
Si Si2 0.000000 0.730706 0.000000
Si Si3 0.388562 0.500000 0.693704
Si Si4 0.794062 0.706643 0.000000
Si Si5 0.189408 0.162248 0.703442
Si Si6 0.104689 0.916703 0.289346
O O1 0.500000 0.275114 0.500000
O O2 0.500000 0.255743 0.824440
O O3 0.410475 0.318239 0.732432
O O4 0.906215 0.705216 0.000000
O O5 0.500000 0.500000 0.677806
O O6 0.342631 0.500000 0.500000
O O7 0.359374 0.458927 0.787484
O O8 0.750000 0.750000 0.000000
O O9 0.764414 0.683859 0.824157
O O10 0.222344 0.165258 0.500000
O O11 0.176959 0.117300 0.766075
O O12 0.099497 0.918925 0.500000
O O13 0.000000 0.907615 0.217188
#
# Coordination Sequence:
#
# PCOD8266485 Si02
#       6
#     8   4   8   8  16  16
#     4  10  18  30  52  73  94 124 155 192 231 271
#     4  12  24  40  48  68  94 114 156 206 246 286
#     4   7  10  16  32  61  95 129 157 180 215 263
#     4  12  24  36  52  69  91 121 157 201 245 283
#     4  10  19  32  50  73  97 126 162 193 226 274
#     4   8  12  21  39  65  97 129 158 186 219 266
#
# _framework density 16.153372000000001
#
# number of rings (size 3 to 8) (size 9 to 14) (size 15 to 20)
#    0.000    2.533    4.000    1.600    0.000    1.600 
#    0.000    0.000    0.000    0.800    0.000    2.800 
#    0.000    2.133    0.000    8.533    0.000    0.000 
#
# Total GULP energy -371642.839003 kJ/mol
# GULP energy per Si atom -12388.094633 kJ/mol
# Density = 1.611661 g / cm^3
# Si number density = 16.153372 Si / 1000 Ang^3
#
#
#
# Elastic Constant Matrix: (Units=GPa)
#
#
# Indices 1 2 3 4 5 6 
#
# 1 82.3510 53.8803 35.1971 0.0000 0.0000 0.0000
# 2 53.8803 148.4770 50.0043 0.0000 0.0000 0.0000
# 3 35.1971 50.0043 67.7143 0.0000 0.0000 0.0000
# 4 0.0000 0.0000 0.0000 40.3258 0.0000 0.0000
# 5 0.0000 0.0000 0.0000 0.0000 20.1534 0.0000
# 6 0.0000 0.0000 0.0000 0.0000 0.0000 45.6572
#
#
#
# Elastic Compliance Matrix: (Units=1/GPa)
#
#
# Indices 1 2 3 4 5 6 
#
# 1 0.017518 -0.004380 -0.005872 0.000000 0.000000 0.000000
# 2 -0.004380 0.010059 -0.005152 0.000000 0.000000 0.000000
# 3 -0.005872 -0.005152 0.021624 0.000000 0.000000 0.000000
# 4 0.000000 0.000000 0.000000 0.024798 0.000000 0.000000
# 5 0.000000 0.000000 0.000000 0.000000 0.049619 0.000000
# 6 0.000000 0.000000 0.000000 0.000000 0.000000 0.021902
#
#
# Mechanical properties :
#
#
# Convention : Reuss Voigt Hill
#
# Bulk Modulus (GPa) = 54.36066 64.07841 59.21954
# Shear Modulus (GPa) = 27.40324 31.85800 29.63062
#
# Velocity S-wave (km/s) = 4.12326 4.44579 4.28755
# Velocity P-wave (km/s) = 7.50961 8.13070 7.82632
#
# Compressibility (1/GPa) = 0.01839565
#
# Stress axis : x y z
#
# Youngs Moduli (GPa) = 57.08356 99.40866 46.24400
#
# Poissons Ratio (x) = 0.43538 0.27152
# Poissons Ratio (y) = 0.25001 0.23825
# Poissons Ratio (z) = 0.33517 0.51215
#
# Static dielectric constant tensor:
#      x y z
#    x 2.647500 0.000000 0.000000 
#    y 0.000000 3.595060 0.000000 
#    z 0.000000 0.000000 3.048060 
# 
# 
# High freq. dielectric constant tensor:
#      x y z
#    x 1.552650 0.000000 0.000000 
#    y 0.000000 1.634610 0.000000 
#    z 0.000000 0.000000 1.616320 
# 
# From -- ./inp_files/4806.got.cif
#   From: 2010.03.12/outbox.cif.g09.slc.cpg/sg65_3_cif.got.tgz:4806.got - 2010.04.10 20:52:16.
