data_PCOD8266437
_publ_section_title
;
Structure prediction by ZEFSAII (Michael W. Deem and Ramdas Pophale) SiO2 
 PCOD8266437
Probable space group: C M M M
;
_chemical_formula_sum "Si O2"
_cell_formula_units_Z 88
_cell_length_a 8.827963
_cell_length_b 18.941053
_cell_length_c 28.626201
_cell_angle_alpha 90.000000
_cell_angle_beta 90.000000
_cell_angle_gamma 90.000000
_cell_volume 4786.613264
_symmetry_space_group_name_H-M "C M M M"
_symmetry_group_IT_number 65
_symmetry_cell_setting 'orthorhombic'
loop_
_space_group_symop_operation_xyz
x,y,z
-x,-y,z
x,-y,-z
-x,y,-z
-x,-y,-z
x,y,-z
-x,y,z
x,-y,z
1/2+x,1/2+y,z
1/2-x,1/2-y,z
1/2+x,1/2-y,-z
1/2-x,1/2+y,-z
1/2-x,1/2-y,-z
1/2+x,1/2+y,-z
1/2-x,1/2+y,z
1/2+x,1/2-y,z
loop_
_atom_site_type_symbol
_atom_site_label
_atom_site_fract_x
_atom_site_fract_y
_atom_site_fract_z
Si Si1 0.322898 0.826119 0.178657
Si Si2 0.820123 0.172331 0.913220
Si Si3 0.321321 0.823585 0.447474
Si Si4 0.320270 0.420428 0.000000
Si Si5 0.180416 0.578708 0.635212
Si Si6 0.676813 0.173909 0.718820
O O1 0.500000 0.820720 0.167260
O O2 0.250000 0.750000 0.181971
O O3 0.239291 0.864191 0.135132
O O4 0.293844 0.860884 0.229676
O O5 0.750000 0.250000 0.920286
O O6 0.762789 0.121601 0.954531
O O7 0.000000 0.179072 0.912303
O O8 0.269661 0.843992 0.500000
O O9 0.500000 0.814887 0.444519
O O10 0.250000 0.750000 0.431453
O O11 0.263324 0.883860 0.412289
O O12 0.252988 0.500000 0.000000
O O13 0.500000 0.423972 0.000000
O O14 0.248703 0.500000 0.636006
O O15 0.243701 0.620622 0.680255
O O16 0.000000 0.575911 0.636782
O O17 0.500000 0.185613 0.710866
O O18 0.750000 0.250000 0.712650
#
# Coordination Sequence:
#
# PCOD8266437 Si02
#       6
#    16  16  16   8  16  16
#     4   9  16  27  44  68  94 116 146 186 225 266
#     4  10  18  30  51  73  93 118 149 187 226 265
#     4   9  17  29  47  70  92 116 149 189 230 270
#     4   9  19  34  49  67  92 123 156 184 216 265
#     4   9  17  29  45  66  92 121 153 187 224 268
#     4   9  17  29  47  68  89 118 152 186 224 265
#
# _framework density 18.384606999999999
#
# number of rings (size 3 to 8) (size 9 to 14) (size 15 to 20)
#    0.000    2.818    0.000    3.000    0.000    1.091 
#    0.000    4.091    0.000    7.636    0.000    2.545 
#    0.000    0.000    0.000    0.000    0.000    0.000 
#
# Total GULP energy -545273.246291 kJ/mol
# GULP energy per Si atom -12392.573779 kJ/mol
# Density = 1.834276 g / cm^3
# Si number density = 18.384607 Si / 1000 Ang^3
#
#
#
# Elastic Constant Matrix: (Units=GPa)
#
#
# Indices 1 2 3 4 5 6 
#
# 1 42.9483 23.1606 32.7089 0.0000 0.0000 0.0000
# 2 23.1606 122.0444 93.0392 0.0000 0.0000 0.0000
# 3 32.7089 93.0392 183.1802 0.0000 0.0000 0.0000
# 4 0.0000 0.0000 0.0000 10.8069 0.0000 0.0000
# 5 0.0000 0.0000 0.0000 0.0000 15.7153 0.0000
# 6 0.0000 0.0000 0.0000 0.0000 0.0000 15.7805
#
#
#
# Elastic Compliance Matrix: (Units=1/GPa)
#
#
# Indices 1 2 3 4 5 6 
#
# 1 0.027371 -0.002396 -0.003670 0.000000 0.000000 0.000000
# 2 -0.002396 0.013581 -0.006470 0.000000 0.000000 0.000000
# 3 -0.003670 -0.006470 0.009401 0.000000 0.000000 0.000000
# 4 0.000000 0.000000 0.000000 0.092533 0.000000 0.000000
# 5 0.000000 0.000000 0.000000 0.000000 0.063632 0.000000
# 6 0.000000 0.000000 0.000000 0.000000 0.000000 0.063369
#
#
# Mechanical properties :
#
#
# Convention : Reuss Voigt Hill
#
# Bulk Modulus (GPa) = 39.55750 71.77670 55.66710
# Shear Modulus (GPa) = 16.48058 21.74482 19.11270
#
# Velocity S-wave (km/s) = 2.99730 3.44288 3.22779
# Velocity P-wave (km/s) = 5.79152 7.41155 6.65104
#
# Compressibility (1/GPa) = 0.02527966
#
# Stress axis : x y z
#
# Youngs Moduli (GPa) = 36.53452 73.63355 106.37556
#
# Poissons Ratio (x) = 0.17644 0.39044
# Poissons Ratio (y) = 0.08754 0.68824
# Poissons Ratio (z) = 0.13410 0.47641
#
# Static dielectric constant tensor:
#      x y z
#    x 3.167970 0.000000 0.000000 
#    y 0.000000 3.318040 0.000000 
#    z 0.000000 0.000000 4.234140 
# 
# 
# High freq. dielectric constant tensor:
#      x y z
#    x 1.687530 0.000000 0.000000 
#    y 0.000000 1.679450 0.000000 
#    z 0.000000 0.000000 1.739980 
# 
# From -- ./inp_files/76637.got.cif
#   From: 2010.03.12/outbox.cif.g09.slc.cpg/sg65_39_cif.got.tgz:76637.got - 2010.04.10 20:52:16.
