data_PCOD8266395
_publ_section_title
;
Structure prediction by ZEFSAII (Michael W. Deem and Ramdas Pophale) SiO2 
 PCOD8266395
Probable space group: C M M M
;
_chemical_formula_sum "Si O2"
_cell_formula_units_Z 120
_cell_length_a 22.267297
_cell_length_b 32.018308
_cell_length_c 10.109485
_cell_angle_alpha 90.000000
_cell_angle_beta 90.000000
_cell_angle_gamma 90.000000
_cell_volume 7207.670291
_symmetry_space_group_name_H-M "C M M M"
_symmetry_group_IT_number 65
_symmetry_cell_setting 'orthorhombic'
loop_
_space_group_symop_operation_xyz
x,y,z
-x,-y,z
x,-y,-z
-x,y,-z
-x,-y,-z
x,y,-z
-x,y,z
x,-y,z
1/2+x,1/2+y,z
1/2-x,1/2-y,z
1/2+x,1/2-y,-z
1/2-x,1/2+y,-z
1/2-x,1/2-y,-z
1/2+x,1/2+y,-z
1/2-x,1/2+y,z
1/2+x,1/2-y,z
loop_
_atom_site_type_symbol
_atom_site_label
_atom_site_fract_x
_atom_site_fract_y
_atom_site_fract_z
Si Si1 0.874189 0.098243 0.647608
Si Si2 0.930461 0.185223 0.350158
Si Si3 0.928839 0.255025 0.853077
Si Si4 0.430409 0.545070 0.142128
Si Si5 0.247501 0.049117 0.652251
Si Si6 0.433066 0.152502 0.843721
Si Si7 0.434472 0.000000 0.844560
Si Si8 0.147075 0.423836 0.157540
O O1 0.893739 0.085786 0.500000
O O2 0.882391 0.147830 0.667439
O O3 0.921105 0.078705 0.746535
O O4 0.809000 0.079400 0.677838
O O5 0.927541 0.202287 0.500000
O O6 0.906240 0.221084 0.252215
O O7 0.000000 0.172136 0.317704
O O8 0.909126 0.301312 0.805071
O O9 0.000000 0.254625 0.860996
O O10 0.902671 0.244981 0.000000
O O11 0.500000 0.539288 0.123782
O O12 0.401988 0.500000 0.181645
O O13 0.402868 0.559504 0.000000
O O14 0.269577 0.053878 0.500000
O O15 0.294197 0.067520 0.756757
O O16 0.233455 0.000000 0.681335
O O17 0.500000 0.143805 0.783223
O O18 0.383340 0.119437 0.795402
O O19 0.439337 0.148925 0.000000
O O20 0.399594 0.040868 0.799527
O O21 0.500000 0.000000 0.776582
O O22 0.442257 0.000000 0.000000
O O23 0.162164 0.424786 0.000000
#
# Coordination Sequence:
#
# PCOD8266395 Si02
#       8
#    16  16  16  16  16  16   8  16
#     4  10  20  33  49  67  87 120 166 205 238 281
#     4   9  17  29  46  70  97 119 146 194 246 284
#     4   8  14  26  45  69  97 127 153 178 222 286
#     4   9  18  31  45  65  94 121 145 185 244 297
#     4  10  21  36  50  64  90 127 164 202 241 280
#     4   8  14  26  47  75 102 125 152 188 227 273
#     4   9  16  26  45  75 103 123 148 187 232 277
#     4  10  18  30  50  74  97 123 158 196 232 275
#
# _framework density 16.648928999999999
#
# number of rings (size 3 to 8) (size 9 to 14) (size 15 to 20)
#    0.000    2.867    0.667    2.400    0.000    4.267 
#    0.000    2.667    0.000    3.600    0.000    5.600 
#    0.000    0.000    0.000    0.000    0.000    0.000 
#
# Total GULP energy -743321.325391 kJ/mol
# GULP energy per Si atom -12388.688757 kJ/mol
# Density = 1.661104 g / cm^3
# Si number density = 16.648929 Si / 1000 Ang^3
#
#
#
# Elastic Constant Matrix: (Units=GPa)
#
#
# Indices 1 2 3 4 5 6 
#
# 1 61.9349 52.5610 38.2440 0.0000 0.0000 0.0000
# 2 52.5610 134.6902 66.1673 0.0000 0.0000 0.0000
# 3 38.2440 66.1673 79.0094 0.0000 0.0000 0.0000
# 4 0.0000 0.0000 0.0000 27.2325 0.0000 0.0000
# 5 0.0000 0.0000 0.0000 0.0000 20.9967 0.0000
# 6 0.0000 0.0000 0.0000 0.0000 0.0000 26.3438
#
#
#
# Elastic Compliance Matrix: (Units=1/GPa)
#
#
# Indices 1 2 3 4 5 6 
#
# 1 0.026243 -0.006797 -0.007011 0.000000 0.000000 0.000000
# 2 -0.006797 0.014374 -0.008748 0.000000 0.000000 0.000000
# 3 -0.007011 -0.008748 0.023376 0.000000 0.000000 0.000000
# 4 0.000000 0.000000 0.000000 0.036721 0.000000 0.000000
# 5 0.000000 0.000000 0.000000 0.000000 0.047627 0.000000
# 6 0.000000 0.000000 0.000000 0.000000 0.000000 0.037960
#
#
# Mechanical properties :
#
#
# Convention : Reuss Voigt Hill
#
# Bulk Modulus (GPa) = 52.95855 65.50877 59.23366
# Shear Modulus (GPa) = 21.03436 22.82540 21.92988
#
# Velocity S-wave (km/s) = 3.55830 3.70670 3.63325
# Velocity P-wave (km/s) = 6.98284 7.59947 7.29767
#
# Compressibility (1/GPa) = 0.01888269
#
# Stress axis : x y z
#
# Youngs Moduli (GPa) = 38.10498 69.56826 42.77860
#
# Poissons Ratio (x) = 0.47286 0.29990
# Poissons Ratio (y) = 0.25900 0.37422
# Poissons Ratio (z) = 0.26714 0.60858
#
# Static dielectric constant tensor:
#      x y z
#    x 2.945530 0.000000 0.000000 
#    y 0.000000 3.412250 0.000000 
#    z 0.000000 0.000000 3.153030 
# 
# 
# High freq. dielectric constant tensor:
#      x y z
#    x 1.609220 0.000000 0.000000 
#    y 0.000000 1.645570 0.000000 
#    z 0.000000 0.000000 1.629570 
# 
# From -- ./inp_files/29755.got.cif
#   From: 2010.03.12/outbox.cif.g09.slc.cpg/sg65_15_cif.got.tgz:29755.got - 2010.04.10 20:52:16.
