data_PCOD8266708
_publ_section_title
;
Structure prediction by ZEFSAII (Michael W. Deem and Ramdas Pophale) SiO2 
 PCOD8266708
Probable space group: C M M M
;
_chemical_formula_sum "Si O2"
_cell_formula_units_Z 96
_cell_length_a 26.087836
_cell_length_b 16.899833
_cell_length_c 12.657890
_cell_angle_alpha 90.000000
_cell_angle_beta 90.000000
_cell_angle_gamma 90.000000
_cell_volume 5580.611451
_symmetry_space_group_name_H-M "C M M M"
_symmetry_group_IT_number 65
_symmetry_cell_setting 'orthorhombic'
loop_
_space_group_symop_operation_xyz
x,y,z
-x,-y,z
x,-y,-z
-x,y,-z
-x,-y,-z
x,y,-z
-x,y,z
x,-y,z
1/2+x,1/2+y,z
1/2-x,1/2-y,z
1/2+x,1/2-y,-z
1/2-x,1/2+y,-z
1/2-x,1/2-y,-z
1/2+x,1/2+y,-z
1/2-x,1/2+y,z
1/2+x,1/2-y,z
loop_
_atom_site_type_symbol
_atom_site_label
_atom_site_fract_x
_atom_site_fract_y
_atom_site_fract_z
Si Si1 0.124995 0.647245 0.877940
Si Si2 0.221934 0.332977 0.500000
Si Si3 0.000000 0.089431 0.874274
Si Si4 0.220523 0.332682 0.728864
Si Si5 0.675667 0.410072 0.500000
Si Si6 0.442059 0.000000 0.874503
Si Si7 0.174889 0.091738 0.728418
Si Si8 0.100116 0.176942 0.878198
O O1 0.178301 0.650393 0.816312
O O2 0.088374 0.577653 0.834466
O O3 0.094225 0.729118 0.863643
O O4 0.139106 0.632464 0.000000
O O5 0.250000 0.250000 0.500000
O O6 0.192015 0.336986 0.612557
O O7 0.262962 0.403587 0.500000
O O8 0.049741 0.134968 0.831073
O O9 0.000000 0.000000 0.830563
O O10 0.000000 0.090923 0.000000
O O11 0.250000 0.250000 0.746909
O O12 0.263778 0.400316 0.738053
O O13 0.659349 0.500000 0.500000
O O14 0.655689 0.374894 0.387676
O O15 0.500000 0.000000 0.827718
O O16 0.445363 0.000000 0.000000
O O17 0.149255 0.145696 0.816504
O O18 0.160116 0.000000 0.744316
O O19 0.108344 0.154062 0.000000
#
# Coordination Sequence:
#
# PCOD8266708 Si02
#       8
#    16   8   8  16   8   8  16  16
#     4  10  21  34  50  75 103 130 166 207 257 308
#     4   8  16  28  48  68  92 130 173 207 233 285
#     4   9  18  32  50  70  96 124 158 201 237 283
#     4  10  18  32  48  72 104 135 167 203 247 296
#     4   8  16  30  46  67  95 129 169 207 235 270
#     4   9  20  38  58  75  97 133 179 227 264 305
#     4  10  19  31  49  72 102 137 168 199 239 292
#     4  10  20  33  50  73  99 129 163 202 249 299
#
# _framework density 17.202415999999999
#
# number of rings (size 3 to 8) (size 9 to 14) (size 15 to 20)
#    0.000    2.500    1.667    0.500    2.333    2.000 
#    0.000    0.000    0.000    0.500    0.000    3.500 
#    0.000    0.000    0.000    0.000    0.000    0.000 
#
# Total GULP energy -594679.831664 kJ/mol
# GULP energy per Si atom -12389.163160 kJ/mol
# Density = 1.716326 g / cm^3
# Si number density = 17.202416 Si / 1000 Ang^3
#
#
#
# Elastic Constant Matrix: (Units=GPa)
#
#
# Indices 1 2 3 4 5 6 
#
# 1 92.9829 44.3004 48.6525 0.0000 0.0000 0.0000
# 2 44.3004 97.2623 39.5718 0.0000 0.0000 0.0000
# 3 48.6525 39.5718 81.8320 0.0000 0.0000 0.0000
# 4 0.0000 0.0000 0.0000 16.0413 0.0000 0.0000
# 5 0.0000 0.0000 0.0000 0.0000 2.2718 0.0000
# 6 0.0000 0.0000 0.0000 0.0000 0.0000 29.2956
#
#
#
# Elastic Compliance Matrix: (Units=1/GPa)
#
#
# Indices 1 2 3 4 5 6 
#
# 1 0.017084 -0.004543 -0.007961 0.000000 0.000000 0.000000
# 2 -0.004543 0.014008 -0.004073 0.000000 0.000000 0.000000
# 3 -0.007961 -0.004073 0.018923 0.000000 0.000000 0.000000
# 4 0.000000 0.000000 0.000000 0.062339 0.000000 0.000000
# 5 0.000000 0.000000 0.000000 0.000000 0.440174 0.000000
# 6 0.000000 0.000000 0.000000 0.000000 0.000000 0.034135
#
#
# Mechanical properties :
#
#
# Convention : Reuss Voigt Hill
#
# Bulk Modulus (GPa) = 59.30429 59.68073 59.49251
# Shear Modulus (GPa) = 7.99443 18.82524 13.40984
#
# Velocity S-wave (km/s) = 2.15809 3.31167 2.79504
# Velocity P-wave (km/s) = 6.38428 7.02790 6.71381
#
# Compressibility (1/GPa) = 0.01686219
#
# Stress axis : x y z
#
# Youngs Moduli (GPa) = 58.53346 71.38974 52.84680
#
# Poissons Ratio (x) = 0.32430 0.42069
# Poissons Ratio (y) = 0.26589 0.21524
# Poissons Ratio (z) = 0.46596 0.29077
#
# Static dielectric constant tensor:
#      x y z
#    x 2.999510 0.000000 0.000000 
#    y 0.000000 3.393490 0.000000 
#    z 0.000000 0.000000 3.351160 
# 
# 
# High freq. dielectric constant tensor:
#      x y z
#    x 1.628230 0.000000 0.000000 
#    y 0.000000 1.675380 0.000000 
#    z 0.000000 0.000000 1.653720 
# 
# From -- ./inp_files/32493.got.cif
#   From: 2010.03.12/outbox.cif.g09.slc.cpg/sg65_17_cif.got.tgz:32493.got - 2010.04.10 20:52:16.
