data_PCOD8266649
_publ_section_title
;
Structure prediction by ZEFSAII (Michael W. Deem and Ramdas Pophale) SiO2 
 PCOD8266649
Probable space group: C M M M
;
_chemical_formula_sum "Si O2"
_cell_formula_units_Z 72
_cell_length_a 15.451685
_cell_length_b 23.629762
_cell_length_c 10.812305
_cell_angle_alpha 90.000000
_cell_angle_beta 90.000000
_cell_angle_gamma 90.000000
_cell_volume 3947.784899
_symmetry_space_group_name_H-M "C M M M"
_symmetry_group_IT_number 65
_symmetry_cell_setting 'orthorhombic'
loop_
_space_group_symop_operation_xyz
x,y,z
-x,-y,z
x,-y,-z
-x,y,-z
-x,-y,-z
x,y,-z
-x,y,z
x,-y,z
1/2+x,1/2+y,z
1/2-x,1/2-y,z
1/2+x,1/2-y,-z
1/2-x,1/2+y,-z
1/2-x,1/2-y,-z
1/2+x,1/2+y,-z
1/2-x,1/2+y,z
1/2+x,1/2-y,z
loop_
_atom_site_type_symbol
_atom_site_label
_atom_site_fract_x
_atom_site_fract_y
_atom_site_fract_z
Si Si1 0.404891 0.360073 0.646162
Si Si2 0.399609 0.877400 0.747499
Si Si3 0.648782 0.760792 0.642246
Si Si4 0.244689 0.938049 0.642535
Si Si5 0.398101 0.064133 0.000000
O O1 0.390517 0.358321 0.500000
O O2 0.500000 0.383933 0.681361
O O3 0.397825 0.295555 0.692656
O O4 0.330261 0.399516 0.706198
O O5 0.500000 0.892036 0.722083
O O6 0.383049 0.810614 0.732497
O O7 0.339345 0.910169 0.650438
O O8 0.368518 0.899496 0.881550
O O9 0.623338 0.775400 0.500000
O O10 0.750000 0.750000 0.652708
O O11 0.221435 0.944792 0.500000
O O12 0.244434 0.000000 0.706136
O O13 0.500000 0.058271 0.000000
O O14 0.358403 0.000000 0.000000
#
# Coordination Sequence:
#
# PCOD8266649 Si02
#       5
#    16  16  16  16   8
#     4   9  17  30  48  70 100 138 173 204 245 303
#     4  11  21  34  54  77 102 135 174 215 260 314
#     4  10  18  31  52  78 109 139 166 206 261 317
#     4  10  20  32  48  74 105 135 170 213 260 311
#     4   9  20  38  55  72  99 139 183 220 257 307
#
# _framework density 18.238076
#
# number of rings (size 3 to 8) (size 9 to 14) (size 15 to 20)
#    0.000    2.111    2.222    2.000    0.000    4.444 
#    0.000    3.889    0.000    0.000    0.000    0.778 
#    0.000    2.667    0.000    0.000    0.000    0.000 
#
# Total GULP energy -446210.531073 kJ/mol
# GULP energy per Si atom -12394.736974 kJ/mol
# Density = 1.819657 g / cm^3
# Si number density = 18.238076 Si / 1000 Ang^3
#
#
#
# Elastic Constant Matrix: (Units=GPa)
#
#
# Indices 1 2 3 4 5 6 
#
# 1 114.3656 62.8241 12.8166 0.0000 0.0000 0.0000
# 2 62.8241 159.0036 30.0991 0.0000 0.0000 0.0000
# 3 12.8166 30.0991 36.1141 0.0000 0.0000 0.0000
# 4 0.0000 0.0000 0.0000 20.3381 0.0000 0.0000
# 5 0.0000 0.0000 0.0000 0.0000 7.2249 0.0000
# 6 0.0000 0.0000 0.0000 0.0000 0.0000 24.9860
#
#
#
# Elastic Compliance Matrix: (Units=1/GPa)
#
#
# Indices 1 2 3 4 5 6 
#
# 1 0.011171 -0.004350 -0.000339 0.000000 0.000000 0.000000
# 2 -0.004350 0.009161 -0.006091 0.000000 0.000000 0.000000
# 3 -0.000339 -0.006091 0.032887 0.000000 0.000000 0.000000
# 4 0.000000 0.000000 0.000000 0.049169 0.000000 0.000000
# 5 0.000000 0.000000 0.000000 0.000000 0.138410 0.000000
# 6 0.000000 0.000000 0.000000 0.000000 0.000000 0.040022
#
#
# Mechanical properties :
#
#
# Convention : Reuss Voigt Hill
#
# Bulk Modulus (GPa) = 31.58705 57.88474 44.73589
# Shear Modulus (GPa) = 15.97779 24.09270 20.03524
#
# Velocity S-wave (km/s) = 2.96305 3.63851 3.31802
# Velocity P-wave (km/s) = 5.39102 7.03271 6.26587
#
# Compressibility (1/GPa) = 0.03165855
#
# Stress axis : x y z
#
# Youngs Moduli (GPa) = 89.51500 109.16010 30.40685
#
# Poissons Ratio (x) = 0.47481 0.01032
# Poissons Ratio (y) = 0.38936 0.18522
# Poissons Ratio (z) = 0.03038 0.66494
#
# Static dielectric constant tensor:
#      x y z
#    x 3.381200 0.000000 0.000000 
#    y 0.000000 3.754610 0.000000 
#    z 0.000000 0.000000 2.969000 
# 
# 
# High freq. dielectric constant tensor:
#      x y z
#    x 1.712300 0.000000 0.000000 
#    y 0.000000 1.723300 0.000000 
#    z 0.000000 0.000000 1.640260 
# 
# From -- ./inp_files/24480.got.cif
#   From: 2010.03.12/outbox.cif.g09.slc.cpg/sg65_13_cif.got.tgz:24480.got - 2010.04.10 20:52:16.
