data_PCOD8266733
_publ_section_title
;
Structure prediction by ZEFSAII (Michael W. Deem and Ramdas Pophale) SiO2 
 PCOD8266733
Probable space group: C M M M
;
_chemical_formula_sum "Si O2"
_cell_formula_units_Z 64
_cell_length_a 8.032530
_cell_length_b 19.199173
_cell_length_c 22.256585
_cell_angle_alpha 90.000000
_cell_angle_beta 90.000000
_cell_angle_gamma 90.000000
_cell_volume 3432.364537
_symmetry_space_group_name_H-M "C M M M"
_symmetry_group_IT_number 65
_symmetry_cell_setting 'orthorhombic'
loop_
_space_group_symop_operation_xyz
x,y,z
-x,-y,z
x,-y,-z
-x,y,-z
-x,-y,-z
x,y,-z
-x,y,z
x,-y,z
1/2+x,1/2+y,z
1/2-x,1/2-y,z
1/2+x,1/2-y,-z
1/2-x,1/2+y,-z
1/2-x,1/2-y,-z
1/2+x,1/2+y,-z
1/2-x,1/2+y,z
1/2+x,1/2-y,z
loop_
_atom_site_type_symbol
_atom_site_label
_atom_site_fract_x
_atom_site_fract_y
_atom_site_fract_z
Si Si1 0.500000 0.916864 0.568128
Si Si2 0.690571 0.077942 0.767408
Si Si3 0.807568 0.170522 0.126539
Si Si4 0.196327 0.329342 0.000000
Si Si5 0.184174 0.082794 0.358422
O O1 0.500000 0.889702 0.500000
O O2 0.331976 0.886911 0.599676
O O3 0.500000 0.000000 0.570693
O O4 0.500000 0.075940 0.746846
O O5 0.708071 0.127422 0.824340
O O6 0.792576 0.107660 0.710487
O O7 0.751721 0.000000 0.784592
O O8 0.750000 0.250000 0.128609
O O9 0.000000 0.164940 0.141591
O O10 0.769888 0.136805 0.060882
O O11 0.250000 0.250000 0.000000
O O12 0.000000 0.337194 0.000000
O O13 0.000000 0.107664 0.380555
O O14 0.195596 0.000000 0.360039
#
# Coordination Sequence:
#
# PCOD8266733 Si02
#       5
#     8  16  16   8  16
#     4   9  16  26  40  62  94 129 165 205 246 295
#     4  10  19  33  52  73 100 135 170 207 256 309
#     4  11  21  34  52  75 101 130 166 211 254 303
#     4  10  18  32  51  70  95 128 165 201 255 309
#     4   9  16  27  43  64  92 129 167 202 248 302
#
# _framework density 18.646037
#
# number of rings (size 3 to 8) (size 9 to 14) (size 15 to 20)
#    0.000    2.125    1.250    5.625    0.000    2.000 
#    0.000    3.125    0.000    3.750    0.000    0.000 
#    0.000    1.000    0.500    0.000    0.000    0.000 
#
# Total GULP energy -396659.533735 kJ/mol
# GULP energy per Si atom -12395.610429 kJ/mol
# Density = 1.860360 g / cm^3
# Si number density = 18.646037 Si / 1000 Ang^3
#
#
#
# Elastic Constant Matrix: (Units=GPa)
#
#
# Indices 1 2 3 4 5 6 
#
# 1 127.1847 10.3342 50.4779 0.0000 0.0000 0.0000
# 2 10.3342 29.3703 29.3201 0.0000 0.0000 0.0000
# 3 50.4779 29.3201 144.0442 0.0000 0.0000 0.0000
# 4 0.0000 0.0000 0.0000 -5.2657 0.0000 0.0000
# 5 0.0000 0.0000 0.0000 0.0000 29.2874 0.0000
# 6 0.0000 0.0000 0.0000 0.0000 0.0000 14.9801
#
#
#
# Elastic Compliance Matrix: (Units=1/GPa)
#
#
# Indices 1 2 3 4 5 6 
#
# 1 0.009133 -0.000023 -0.003196 0.000000 0.000000 0.000000
# 2 -0.000023 0.042731 -0.008690 0.000000 0.000000 0.000000
# 3 -0.003196 -0.008690 0.009831 0.000000 0.000000 0.000000
# 4 0.000000 0.000000 0.000000 -0.189910 0.000000 0.000000
# 5 0.000000 0.000000 0.000000 0.000000 0.034144 0.000000
# 6 0.000000 0.000000 0.000000 0.000000 0.000000 0.066755
#
#
# Mechanical properties :
#
#
# Convention : Reuss Voigt Hill
#
# Bulk Modulus (GPa) = 26.40089 53.42930 39.91510
# Shear Modulus (GPa) = 547.76827 21.83150 284.79988
#
# Velocity S-wave (km/s) = 17.15837 3.42546 12.37222
# Velocity P-wave (km/s) = 20.16770 6.66046 15.01829
#
# Compressibility (1/GPa) = 0.03787751
#
# Stress axis : x y z
#
# Youngs Moduli (GPa) = 109.49539 23.40218 101.71909
#
# Poissons Ratio (x) = 0.00054 0.32507
# Poissons Ratio (y) = 0.00254 0.88391
# Poissons Ratio (z) = 0.34992 0.20336
#
# Static dielectric constant tensor:
#      x y z
#    x 3.691370 0.000000 0.000000 
#    y 0.000000 2.742750 0.000000 
#    z 0.000000 0.000000 3.735380 
# 
# 
# High freq. dielectric constant tensor:
#      x y z
#    x 1.746930 0.000000 0.000000 
#    y 0.000000 1.647460 0.000000 
#    z 0.000000 0.000000 1.732650 
# 
# From -- ./inp_files/58871.got.cif
#   From: 2010.03.12/outbox.cif.g09.slc.cpg/sg65_30_cif.got.tgz:58871.got - 2010.04.10 20:52:16.
