data_PCOD8266107
_publ_section_title
;
Structure prediction by ZEFSAII (Michael W. Deem and Ramdas Pophale) SiO2 
 PCOD8266107
Probable space group: C M M M
;
_chemical_formula_sum "Si O2"
_cell_formula_units_Z 104
_cell_length_a 32.485378
_cell_length_b 19.487669
_cell_length_c 9.152371
_cell_angle_alpha 90.000000
_cell_angle_beta 90.000000
_cell_angle_gamma 90.000000
_cell_volume 5794.039284
_symmetry_space_group_name_H-M "C M M M"
_symmetry_group_IT_number 65
_symmetry_cell_setting 'orthorhombic'
loop_
_space_group_symop_operation_xyz
x,y,z
-x,-y,z
x,-y,-z
-x,y,-z
-x,-y,-z
x,y,-z
-x,y,z
x,-y,z
1/2+x,1/2+y,z
1/2-x,1/2-y,z
1/2+x,1/2-y,-z
1/2-x,1/2+y,-z
1/2-x,1/2-y,-z
1/2+x,1/2+y,-z
1/2-x,1/2+y,z
1/2+x,1/2-y,z
loop_
_atom_site_type_symbol
_atom_site_label
_atom_site_fract_x
_atom_site_fract_y
_atom_site_fract_z
Si Si1 0.741287 0.669700 0.834643
Si Si2 0.319990 0.159825 0.667162
Si Si3 0.578125 0.333614 0.173411
Si Si4 0.046021 0.686424 0.827619
Si Si5 0.599577 0.921640 0.332144
Si Si6 0.160409 0.185355 0.672475
Si Si7 0.000000 0.921995 0.826504
O O1 0.750000 0.750000 0.828721
O O2 0.781335 0.634943 0.763150
O O3 0.700849 0.650138 0.741993
O O4 0.735509 0.643433 0.000000
O O5 0.305188 0.163738 0.500000
O O6 0.353997 0.102442 0.694301
O O7 0.338718 0.233771 0.712579
O O8 0.567129 0.256728 0.222397
O O9 0.620637 0.351237 0.255615
O O10 0.541442 0.383747 0.228160
O O11 0.584648 0.340163 0.000000
O O12 0.068624 0.620791 0.765457
O O13 0.000000 0.686448 0.765545
O O14 0.046234 0.681014 0.000000
O O15 0.587056 0.911167 0.500000
O O16 0.596182 0.000000 0.282985
O O17 0.159760 0.172236 0.500000
O O18 0.000000 0.000000 0.766966
O O19 0.000000 0.920162 0.000000
#
# Coordination Sequence:
#
# PCOD8266107 Si02
#       7
#    16  16  16  16  16  16   8
#     4   9  17  28  45  72 102 131 163 205 256 305
#     4   9  17  30  47  69  99 133 169 211 257 305
#     4  10  18  31  53  79 105 134 170 212 257 306
#     4  10  20  34  52  74 102 135 173 218 264 309
#     4  10  21  36  52  72 101 139 181 221 262 309
#     4  10  18  29  48  75 104 134 168 209 257 306
#     4   9  18  34  57  83 108 135 168 206 255 315
#
# _framework density 17.949480999999999
#
# number of rings (size 3 to 8) (size 9 to 14) (size 15 to 20)
#    0.000    2.385    2.308    0.923    0.000    4.000 
#    0.000    1.923    0.000    1.846    0.000    0.000 
#    0.000    0.000    0.000    0.000    0.000    0.000 
#
# Total GULP energy -644783.440537 kJ/mol
# GULP energy per Si atom -12399.681549 kJ/mol
# Density = 1.790863 g / cm^3
# Si number density = 17.949481 Si / 1000 Ang^3
#
#
#
# Elastic Constant Matrix: (Units=GPa)
#
#
# Indices 1 2 3 4 5 6 
#
# 1 137.9279 36.3797 50.1545 0.0000 0.0000 0.0000
# 2 36.3797 21.8619 43.9629 0.0000 0.0000 0.0000
# 3 50.1545 43.9629 42.7089 0.0000 0.0000 0.0000
# 4 0.0000 0.0000 0.0000 15.6190 0.0000 0.0000
# 5 0.0000 0.0000 0.0000 0.0000 30.2675 0.0000
# 6 0.0000 0.0000 0.0000 0.0000 0.0000 18.4504
#
#
#
# Elastic Compliance Matrix: (Units=1/GPa)
#
#
# Indices 1 2 3 4 5 6 
#
# 1 0.011240 -0.007327 -0.005658 0.000000 0.000000 0.000000
# 2 -0.007327 -0.037974 0.047693 0.000000 0.000000 0.000000
# 3 -0.005658 0.047693 -0.019035 0.000000 0.000000 0.000000
# 4 0.000000 0.000000 0.000000 0.064025 0.000000 0.000000
# 5 0.000000 0.000000 0.000000 0.000000 0.033039 0.000000
# 6 0.000000 0.000000 0.000000 0.000000 0.000000 0.054199
#
#
# Mechanical properties :
#
#
# Convention : Reuss Voigt Hill
#
# Bulk Modulus (GPa) = 42.28651 51.49922 46.89287
# Shear Modulus (GPa) = 113.74214 17.66747 65.70480
#
# Velocity S-wave (km/s) = 7.96903 3.14074 6.05680
# Velocity P-wave (km/s) = 10.40595 6.47347 8.66573
#
# Compressibility (1/GPa) = 0.02364820
#
# Stress axis : x y z
#
# Youngs Moduli (GPa) = 88.96839 -26.33365 -52.53515
#
# Poissons Ratio (x) = -0.19293 -0.29724
# Poissons Ratio (y) = 0.65183 2.50556
# Poissons Ratio (z) = 0.50337 1.25593
#
# Static dielectric constant tensor:
#      x y z
#    x 3.473830 0.000000 0.000000 
#    y 0.000000 2.978910 0.000000 
#    z 0.000000 0.000000 3.213810 
# 
# 
# High freq. dielectric constant tensor:
#      x y z
#    x 1.710910 0.000000 0.000000 
#    y 0.000000 1.654440 0.000000 
#    z 0.000000 0.000000 1.685620 
# 
# From -- ./inp_files/18636.got.cif
#   From: 2010.03.12/outbox.cif.g09.slc.cpg/sg65_10_cif.got.tgz:18636.got - 2010.04.10 20:52:16.
