data_PCOD8266017
_publ_section_title
;
Structure prediction by ZEFSAII (Michael W. Deem and Ramdas Pophale) SiO2 
 PCOD8266017
Probable space group: C M M M
;
_chemical_formula_sum "Si O2"
_cell_formula_units_Z 72
_cell_length_a 28.859804
_cell_length_b 13.948092
_cell_length_c 11.096752
_cell_angle_alpha 90.000000
_cell_angle_beta 90.000000
_cell_angle_gamma 90.000000
_cell_volume 4466.877687
_symmetry_space_group_name_H-M "C M M M"
_symmetry_group_IT_number 65
_symmetry_cell_setting 'orthorhombic'
loop_
_space_group_symop_operation_xyz
x,y,z
-x,-y,z
x,-y,-z
-x,y,-z
-x,-y,-z
x,y,-z
-x,y,z
x,-y,z
1/2+x,1/2+y,z
1/2-x,1/2-y,z
1/2+x,1/2-y,-z
1/2-x,1/2+y,-z
1/2-x,1/2-y,-z
1/2+x,1/2+y,-z
1/2-x,1/2+y,z
1/2+x,1/2-y,z
loop_
_atom_site_type_symbol
_atom_site_label
_atom_site_fract_x
_atom_site_fract_y
_atom_site_fract_z
Si Si1 0.403538 0.386842 0.742026
Si Si2 0.817271 0.778816 0.360460
Si Si3 0.000000 0.113525 0.365680
Si Si4 0.733703 0.106180 0.740667
Si Si5 0.370347 0.389755 0.000000
Si Si6 0.734123 0.644462 0.000000
O O1 0.395596 0.500000 0.715508
O O2 0.366832 0.324111 0.668603
O O3 0.454235 0.351158 0.703121
O O4 0.400056 0.362316 0.883142
O O5 0.815047 0.750475 0.500000
O O6 0.778606 0.858008 0.331657
O O7 0.807968 0.681935 0.282300
O O8 0.000000 0.156910 0.500000
O O9 0.000000 0.000000 0.371029
O O10 0.719603 0.000000 0.693886
O O11 0.746613 0.093302 0.881082
O O12 0.357388 0.500000 0.000000
O O13 0.320894 0.340242 0.000000
O O14 0.750000 0.750000 0.000000
#
# Coordination Sequence:
#
# PCOD8266017 Si02
#       6
#    16  16   8  16   8   8
#     4  10  19  32  50  71  97 127 162 205 250 298
#     4  11  22  33  47  69  96 132 170 200 241 290
#     4   9  18  31  47  69  96 127 161 198 245 300
#     4  11  21  33  49  70  97 129 164 203 242 286
#     4  10  18  29  46  68  92 124 160 194 243 292
#     4  12  18  32  51  70  98 128 164 205 242 289
#
# _framework density 16.118642000000001
#
# number of rings (size 3 to 8) (size 9 to 14) (size 15 to 20)
#    0.000    1.444    4.444    3.667    0.000    4.444 
#    0.000    2.222    0.000    0.000    0.000    0.778 
#    0.000    2.667    0.000    6.556    0.000    1.000 
#
# Total GULP energy -446298.352959 kJ/mol
# GULP energy per Si atom -12397.176471 kJ/mol
# Density = 1.608195 g / cm^3
# Si number density = 16.118642 Si / 1000 Ang^3
#
#
#
# Elastic Constant Matrix: (Units=GPa)
#
#
# Indices 1 2 3 4 5 6 
#
# 1 126.2731 43.9133 54.6837 0.0000 0.0000 0.0000
# 2 43.9133 89.3953 23.8553 0.0000 0.0000 0.0000
# 3 54.6837 23.8553 119.8217 0.0000 0.0000 0.0000
# 4 0.0000 0.0000 0.0000 9.0253 0.0000 0.0000
# 5 0.0000 0.0000 0.0000 0.0000 39.1697 0.0000
# 6 0.0000 0.0000 0.0000 0.0000 0.0000 21.7933
#
#
#
# Elastic Compliance Matrix: (Units=1/GPa)
#
#
# Indices 1 2 3 4 5 6 
#
# 1 0.011308 -0.004412 -0.004282 0.000000 0.000000 0.000000
# 2 -0.004412 0.013535 -0.000681 0.000000 0.000000 0.000000
# 3 -0.004282 -0.000681 0.010436 0.000000 0.000000 0.000000
# 4 0.000000 0.000000 0.000000 0.110800 0.000000 0.000000
# 5 0.000000 0.000000 0.000000 0.000000 0.025530 0.000000
# 6 0.000000 0.000000 0.000000 0.000000 0.000000 0.045886
#
#
# Mechanical properties :
#
#
# Convention : Reuss Voigt Hill
#
# Bulk Modulus (GPa) = 60.50348 64.48828 62.49588
# Shear Modulus (GPa) = 20.68204 28.20017 24.44110
#
# Velocity S-wave (km/s) = 3.58594 4.18728 3.89823
# Velocity P-wave (km/s) = 7.40021 7.96700 7.68883
#
# Compressibility (1/GPa) = 0.01652797
#
# Stress axis : x y z
#
# Youngs Moduli (GPa) = 88.43093 73.88030 95.82462
#
# Poissons Ratio (x) = 0.32597 0.41036
# Poissons Ratio (y) = 0.39017 0.06527
# Poissons Ratio (z) = 0.37870 0.05032
#
# Static dielectric constant tensor:
#      x y z
#    x 3.019800 0.000000 0.000000 
#    y 0.000000 2.888670 0.000000 
#    z 0.000000 0.000000 3.178480 
# 
# 
# High freq. dielectric constant tensor:
#      x y z
#    x 1.600910 0.000000 0.000000 
#    y 0.000000 1.592750 0.000000 
#    z 0.000000 0.000000 1.639340 
# 
# From -- ./inp_files/30336.got.cif
#   From: 2010.03.12/outbox.cif.g09.slc.cpg/sg65_16_cif.got.tgz:30336.got - 2010.04.10 20:52:16.
