data_PCOD8266168
_publ_section_title
;
Structure prediction by ZEFSAII (Michael W. Deem and Ramdas Pophale) SiO2 
 PCOD8266168
Probable space group: C M M M
;
_chemical_formula_sum "Si O2"
_cell_formula_units_Z 96
_cell_length_a 24.370088
_cell_length_b 14.349711
_cell_length_c 16.312777
_cell_angle_alpha 90.000000
_cell_angle_beta 90.000000
_cell_angle_gamma 90.000000
_cell_volume 5704.638798
_symmetry_space_group_name_H-M "C M M M"
_symmetry_group_IT_number 65
_symmetry_cell_setting 'orthorhombic'
loop_
_space_group_symop_operation_xyz
x,y,z
-x,-y,z
x,-y,-z
-x,y,-z
-x,-y,-z
x,y,-z
-x,y,z
x,-y,z
1/2+x,1/2+y,z
1/2-x,1/2-y,z
1/2+x,1/2-y,-z
1/2-x,1/2+y,-z
1/2-x,1/2-y,-z
1/2+x,1/2+y,-z
1/2-x,1/2+y,z
1/2+x,1/2-y,z
loop_
_atom_site_type_symbol
_atom_site_label
_atom_site_fract_x
_atom_site_fract_y
_atom_site_fract_z
Si Si1 0.439076 0.392254 0.319302
Si Si2 0.333235 0.106487 0.175787
Si Si3 0.613411 0.706562 0.826249
Si Si4 0.065342 0.227849 0.000000
Si Si5 0.216072 0.109922 0.756273
Si Si6 0.363423 0.101208 0.000000
Si Si7 0.333157 0.390225 0.589113
O O1 0.500000 0.373757 0.353706
O O2 0.430035 0.500000 0.295906
O O3 0.430721 0.333843 0.236641
O O4 0.395729 0.361857 0.388642
O O5 0.380500 0.182508 0.195396
O O6 0.277529 0.138081 0.220210
O O7 0.350208 0.000000 0.201200
O O8 0.323615 0.114184 0.078045
O O9 0.672851 0.658490 0.816837
O O10 0.591468 0.683581 0.917622
O O11 0.082620 0.335437 0.000000
O O12 0.000000 0.216432 0.000000
O O13 0.206574 0.144421 0.662228
O O14 0.206572 0.000000 0.764214
O O15 0.390689 0.000000 0.000000
O O16 0.318321 0.345221 0.500000
O O17 0.327936 0.500000 0.581067
#
# Coordination Sequence:
#
# PCOD8266168 Si02
#       7
#    16  16  16   8  16   8  16
#     4   9  17  29  45  64  87 116 146 176 214 257
#     4   9  17  29  46  66  86 111 145 182 219 256
#     4  10  18  30  45  61  87 116 146 180 215 254
#     4  10  20  30  42  61  83 112 147 181 218 257
#     4   9  17  29  45  65  89 117 145 173 211 258
#     4   8  16  30  45  62  82 105 140 187 225 252
#     4   8  14  25  42  65  90 113 140 175 212 253
#
# _framework density 16.828410000000002
#
# number of rings (size 3 to 8) (size 9 to 14) (size 15 to 20)
#    0.000    3.000    0.000    2.500    0.000    1.167 
#    0.000    6.667    0.000   12.500    0.000    0.000 
#    0.000    0.000    0.000    6.000    0.000    0.667 
#
# Total GULP energy -594691.364975 kJ/mol
# GULP energy per Si atom -12389.403437 kJ/mol
# Density = 1.679011 g / cm^3
# Si number density = 16.828410 Si / 1000 Ang^3
#
#
#
# Elastic Constant Matrix: (Units=GPa)
#
#
# Indices 1 2 3 4 5 6 
#
# 1 64.0417 18.7060 39.5414 0.0000 0.0000 0.0000
# 2 18.7060 40.2703 26.3768 0.0000 0.0000 0.0000
# 3 39.5414 26.3768 117.4473 0.0000 0.0000 0.0000
# 4 0.0000 0.0000 0.0000 12.9376 0.0000 0.0000
# 5 0.0000 0.0000 0.0000 0.0000 16.3487 0.0000
# 6 0.0000 0.0000 0.0000 0.0000 0.0000 20.1331
#
#
#
# Elastic Compliance Matrix: (Units=1/GPa)
#
#
# Indices 1 2 3 4 5 6 
#
# 1 0.020869 -0.005970 -0.005685 0.000000 0.000000 0.000000
# 2 -0.005970 0.030823 -0.004912 0.000000 0.000000 0.000000
# 3 -0.005685 -0.004912 0.011532 0.000000 0.000000 0.000000
# 4 0.000000 0.000000 0.000000 0.077294 0.000000 0.000000
# 5 0.000000 0.000000 0.000000 0.000000 0.061167 0.000000
# 6 0.000000 0.000000 0.000000 0.000000 0.000000 0.049669
#
#
# Mechanical properties :
#
#
# Convention : Reuss Voigt Hill
#
# Bulk Modulus (GPa) = 33.23555 43.44529 38.34042
# Shear Modulus (GPa) = 16.97687 19.02624 18.00155
#
# Velocity S-wave (km/s) = 3.17964 3.36609 3.27419
# Velocity P-wave (km/s) = 5.76825 6.40157 6.09314
#
# Compressibility (1/GPa) = 0.03008826
#
# Stress axis : x y z
#
# Youngs Moduli (GPa) = 47.91833 32.44338 86.71711
#
# Poissons Ratio (x) = 0.19369 0.49300
# Poissons Ratio (y) = 0.28607 0.42599
# Poissons Ratio (z) = 0.27243 0.15937
#
# Static dielectric constant tensor:
#      x y z
#    x 3.026550 0.000000 0.000000 
#    y 0.000000 3.150830 0.000000 
#    z 0.000000 0.000000 3.406480 
# 
# 
# High freq. dielectric constant tensor:
#      x y z
#    x 1.632060 0.000000 0.000000 
#    y 0.000000 1.633510 0.000000 
#    z 0.000000 0.000000 1.645410 
# 
# From -- ./inp_files/40661.got.cif
#   From: 2010.03.12/outbox.cif.g09.slc.cpg/sg65_21_cif.got.tgz:40661.got - 2010.04.10 20:52:16.
