data_PCOD8266407
_publ_section_title
;
Structure prediction by ZEFSAII (Michael W. Deem and Ramdas Pophale) SiO2 
 PCOD8266407
Probable space group: C M M M
;
_chemical_formula_sum "Si O2"
_cell_formula_units_Z 96
_cell_length_a 28.939389
_cell_length_b 9.660630
_cell_length_c 20.320483
_cell_angle_alpha 90.000000
_cell_angle_beta 90.000000
_cell_angle_gamma 90.000000
_cell_volume 5681.052898
_symmetry_space_group_name_H-M "C M M M"
_symmetry_group_IT_number 65
_symmetry_cell_setting 'orthorhombic'
loop_
_space_group_symop_operation_xyz
x,y,z
-x,-y,z
x,-y,-z
-x,y,-z
-x,-y,-z
x,y,-z
-x,y,z
x,-y,z
1/2+x,1/2+y,z
1/2-x,1/2-y,z
1/2+x,1/2-y,-z
1/2-x,1/2+y,-z
1/2-x,1/2-y,-z
1/2+x,1/2+y,-z
1/2-x,1/2+y,z
1/2+x,1/2-y,z
loop_
_atom_site_type_symbol
_atom_site_label
_atom_site_fract_x
_atom_site_fract_y
_atom_site_fract_z
Si Si1 0.448005 0.664883 0.306002
Si Si2 0.207348 0.159689 0.374269
Si Si3 0.707765 0.342103 0.779503
Si Si4 0.389874 0.664586 0.427169
Si Si5 0.393240 0.337099 0.177957
Si Si6 0.947198 0.658607 0.923331
O O1 0.500000 0.722694 0.300923
O O2 0.447589 0.500000 0.308080
O O3 0.425169 0.725117 0.372900
O O4 0.419089 0.717297 0.243359
O O5 0.250000 0.250000 0.400185
O O6 0.198593 0.183306 0.297242
O O7 0.162070 0.213876 0.411842
O O8 0.217940 0.000000 0.390064
O O9 0.721464 0.500000 0.793088
O O10 0.750000 0.250000 0.806243
O O11 0.661005 0.302062 0.817508
O O12 0.404338 0.716968 0.500000
O O13 0.391068 0.500000 0.423551
O O14 0.401582 0.500000 0.168848
O O15 0.412961 0.258612 0.115212
O O16 0.937148 0.500000 0.903947
O O17 0.000000 0.696889 0.905885
O O18 0.937890 0.682187 0.000000
#
# Coordination Sequence:
#
# PCOD8266407 Si02
#       6
#    16  16  16  16  16  16
#     4   9  16  26  41  63  91 121 155 196 239 280
#     4   9  16  28  44  63  89 119 152 192 238 284
#     4   9  17  29  46  68  96 125 156 196 241 286
#     4   9  16  26  40  59  87 123 158 193 236 283
#     4  10  18  30  50  75  99 125 159 201 243 281
#     4   9  19  35  52  73 104 136 161 189 230 280
#
# _framework density 16.898275999999999
#
# number of rings (size 3 to 8) (size 9 to 14) (size 15 to 20)
#    0.000    2.833    1.667    1.000    0.000    2.667 
#    0.000    2.500    0.000    0.500    0.000    0.000 
#    0.000    0.000    0.000    5.000    0.000    5.000 
#
# Total GULP energy -595123.863278 kJ/mol
# GULP energy per Si atom -12398.413818 kJ/mol
# Density = 1.685981 g / cm^3
# Si number density = 16.898276 Si / 1000 Ang^3
#
#
#
# Elastic Constant Matrix: (Units=GPa)
#
#
# Indices 1 2 3 4 5 6 
#
# 1 130.1841 50.1775 60.9675 0.0000 0.0000 0.0000
# 2 50.1775 43.9026 35.2637 0.0000 0.0000 0.0000
# 3 60.9675 35.2637 83.2440 0.0000 0.0000 0.0000
# 4 0.0000 0.0000 0.0000 13.8433 0.0000 0.0000
# 5 0.0000 0.0000 0.0000 0.0000 29.1432 0.0000
# 6 0.0000 0.0000 0.0000 0.0000 0.0000 25.9869
#
#
#
# Elastic Compliance Matrix: (Units=1/GPa)
#
#
# Indices 1 2 3 4 5 6 
#
# 1 0.015370 -0.012922 -0.005783 0.000000 0.000000 0.000000
# 2 -0.012922 0.045389 -0.009764 0.000000 0.000000 0.000000
# 3 -0.005783 -0.009764 0.020384 0.000000 0.000000 0.000000
# 4 0.000000 0.000000 0.000000 0.072237 0.000000 0.000000
# 5 0.000000 0.000000 0.000000 0.000000 0.034313 0.000000
# 6 0.000000 0.000000 0.000000 0.000000 0.000000 0.038481
#
#
# Mechanical properties :
#
#
# Convention : Reuss Voigt Hill
#
# Bulk Modulus (GPa) = 41.31159 61.12756 51.21957
# Shear Modulus (GPa) = 17.17142 21.18949 19.18046
#
# Velocity S-wave (km/s) = 3.19119 3.54495 3.37271
# Velocity P-wave (km/s) = 6.17078 7.28065 6.74857
#
# Compressibility (1/GPa) = 0.02420628
#
# Stress axis : x y z
#
# Youngs Moduli (GPa) = 65.06014 22.03176 49.05696
#
# Poissons Ratio (x) = 0.28470 0.28371
# Poissons Ratio (y) = 0.84071 0.47897
# Poissons Ratio (z) = 0.37625 0.21511
#
# Static dielectric constant tensor:
#      x y z
#    x 3.292440 0.000000 0.000000 
#    y 0.000000 2.822060 0.000000 
#    z 0.000000 0.000000 3.075490 
# 
# 
# High freq. dielectric constant tensor:
#      x y z
#    x 1.658530 0.000000 0.000000 
#    y 0.000000 1.610410 0.000000 
#    z 0.000000 0.000000 1.641210 
# 
# From -- ./inp_files/51664.got.cif
#   From: 2010.03.12/outbox.cif.g09.slc.cpg/sg65_26_cif.got.tgz:51664.got - 2010.04.10 20:52:16.
