data_PCOD8266412
_publ_section_title
;
Structure prediction by ZEFSAII (Michael W. Deem and Ramdas Pophale) SiO2 
 PCOD8266412
Probable space group: C M M M
;
_chemical_formula_sum "Si O2"
_cell_formula_units_Z 104
_cell_length_a 9.101955
_cell_length_b 25.607565
_cell_length_c 25.931426
_cell_angle_alpha 90.000000
_cell_angle_beta 90.000000
_cell_angle_gamma 90.000000
_cell_volume 6044.068359
_symmetry_space_group_name_H-M "C M M M"
_symmetry_group_IT_number 65
_symmetry_cell_setting 'orthorhombic'
loop_
_space_group_symop_operation_xyz
x,y,z
-x,-y,z
x,-y,-z
-x,y,-z
-x,-y,-z
x,y,-z
-x,y,z
x,-y,z
1/2+x,1/2+y,z
1/2-x,1/2-y,z
1/2+x,1/2-y,-z
1/2-x,1/2+y,-z
1/2-x,1/2-y,-z
1/2+x,1/2+y,-z
1/2-x,1/2+y,z
1/2+x,1/2-y,z
loop_
_atom_site_type_symbol
_atom_site_label
_atom_site_fract_x
_atom_site_fract_y
_atom_site_fract_z
Si Si1 0.834144 0.062129 0.000000
Si Si2 0.827830 0.803524 0.736380
Si Si3 0.674609 0.000000 0.269464
Si Si4 0.169668 0.440430 0.099836
Si Si5 0.330474 0.104807 0.439265
Si Si6 0.327918 0.897939 0.210201
Si Si7 0.828146 0.803361 0.382302
Si Si8 0.174445 0.500000 0.385651
O O1 0.757768 0.083855 0.948328
O O2 0.000000 0.082059 0.000000
O O3 0.820469 0.000000 0.000000
O O4 0.750000 0.750000 0.752447
O O5 0.763940 0.848463 0.772159
O O6 0.793260 0.817339 0.676984
O O7 0.000000 0.797497 0.746368
O O8 0.732304 0.948418 0.240742
O O9 0.500000 0.000000 0.267787
O O10 0.736357 0.000000 0.327539
O O11 0.217590 0.500000 0.111815
O O12 0.202648 0.405601 0.149737
O O13 0.000000 0.438699 0.084757
O O14 0.311684 0.100698 0.500000
O O15 0.500000 0.114214 0.423622
O O16 0.232923 0.151552 0.418381
O O17 0.268325 0.051386 0.414791
O O18 0.500000 0.888979 0.221502
O O19 0.750000 0.750000 0.398707
O O20 0.000000 0.796550 0.392162
O O21 0.000000 0.500000 0.385929
#
# Coordination Sequence:
#
# PCOD8266412 Si02
#       8
#     8  16   8  16  16  16  16   8
#     4   9  17  27  41  63  94 135 178 215 253 294
#     4  10  21  36  53  74  99 130 167 207 250 299
#     4   9  16  27  47  75 103 132 165 198 241 296
#     4   9  16  28  45  68 100 136 173 209 247 294
#     4  10  20  34  53  77 102 129 164 204 246 293
#     4  10  18  30  50  76 105 135 168 207 249 297
#     4  10  21  37  56  76  99 127 162 203 252 304
#     4   9  17  30  50  74 101 133 166 200 237 286
#
# _framework density 17.206952000000001
#
# number of rings (size 3 to 8) (size 9 to 14) (size 15 to 20)
#    0.000    2.385    0.769    2.308    0.000    6.154 
#    0.000    0.769    0.000    3.692    0.000    0.538 
#    0.000    0.000    0.000    0.000    0.000    0.000 
#
# Total GULP energy -644909.312649 kJ/mol
# GULP energy per Si atom -12402.102166 kJ/mol
# Density = 1.716779 g / cm^3
# Si number density = 17.206952 Si / 1000 Ang^3
#
#
#
# Elastic Constant Matrix: (Units=GPa)
#
#
# Indices 1 2 3 4 5 6 
#
# 1 71.4853 46.6014 50.8072 0.0000 0.0000 0.0000
# 2 46.6014 109.2755 59.8303 0.0000 0.0000 0.0000
# 3 50.8072 59.8303 109.9394 0.0000 0.0000 0.0000
# 4 0.0000 0.0000 0.0000 9.4607 0.0000 0.0000
# 5 0.0000 0.0000 0.0000 0.0000 25.3235 0.0000
# 6 0.0000 0.0000 0.0000 0.0000 0.0000 26.8172
#
#
#
# Elastic Compliance Matrix: (Units=1/GPa)
#
#
# Indices 1 2 3 4 5 6 
#
# 1 0.023082 -0.005702 -0.007564 0.000000 0.000000 0.000000
# 2 -0.005702 0.014444 -0.005225 0.000000 0.000000 0.000000
# 3 -0.007564 -0.005225 0.015435 0.000000 0.000000 0.000000
# 4 0.000000 0.000000 0.000000 0.105700 0.000000 0.000000
# 5 0.000000 0.000000 0.000000 0.000000 0.039489 0.000000
# 6 0.000000 0.000000 0.000000 0.000000 0.000000 0.037289
#
#
# Mechanical properties :
#
#
# Convention : Reuss Voigt Hill
#
# Bulk Modulus (GPa) = 62.58487 67.24200 64.91343
# Shear Modulus (GPa) = 18.00186 21.21770 19.60978
#
# Velocity S-wave (km/s) = 3.23801 3.51535 3.37952
# Velocity P-wave (km/s) = 7.10144 7.45923 7.28253
#
# Compressibility (1/GPa) = 0.01597830
#
# Stress axis : x y z
#
# Youngs Moduli (GPa) = 43.32362 69.23342 64.78695
#
# Poissons Ratio (x) = 0.39478 0.49004
# Poissons Ratio (y) = 0.24704 0.33854
# Poissons Ratio (z) = 0.32770 0.36177
#
# Static dielectric constant tensor:
#      x y z
#    x 3.074700 0.000000 0.000000 
#    y 0.000000 3.115910 0.000000 
#    z 0.000000 0.000000 3.270560 
# 
# 
# High freq. dielectric constant tensor:
#      x y z
#    x 1.651140 0.000000 0.000000 
#    y 0.000000 1.649130 0.000000 
#    z 0.000000 0.000000 1.668040 
# 
# From -- ./inp_files/68331.got.cif
#   From: 2010.03.12/outbox.cif.g09.slc.cpg/sg65_35_cif.got.tgz:68331.got - 2010.04.10 20:52:16.
