data_PCOD8266016
_publ_section_title
;
Structure prediction by ZEFSAII (Michael W. Deem and Ramdas Pophale) SiO2 
 PCOD8266016
Probable space group: C M M M
;
_chemical_formula_sum "Si O2"
_cell_formula_units_Z 64
_cell_length_a 25.828385
_cell_length_b 18.057282
_cell_length_c 7.888526
_cell_angle_alpha 90.000000
_cell_angle_beta 90.000000
_cell_angle_gamma 90.000000
_cell_volume 3679.133045
_symmetry_space_group_name_H-M "C M M M"
_symmetry_group_IT_number 65
_symmetry_cell_setting 'orthorhombic'
loop_
_space_group_symop_operation_xyz
x,y,z
-x,-y,z
x,-y,-z
-x,y,-z
-x,-y,-z
x,y,-z
-x,y,z
x,-y,z
1/2+x,1/2+y,z
1/2-x,1/2-y,z
1/2+x,1/2-y,-z
1/2-x,1/2+y,-z
1/2-x,1/2-y,-z
1/2+x,1/2+y,-z
1/2-x,1/2+y,z
1/2+x,1/2-y,z
loop_
_atom_site_type_symbol
_atom_site_label
_atom_site_fract_x
_atom_site_fract_y
_atom_site_fract_z
Si Si1 0.559390 0.765385 0.500000
Si Si2 0.677610 0.874660 0.186607
Si Si3 0.711437 0.582344 0.698455
Si Si4 0.108431 0.418232 0.500000
Si Si5 0.348699 0.277506 0.311711
O O1 0.500000 0.741273 0.500000
O O2 0.564471 0.855087 0.500000
O O3 0.588464 0.731786 0.332443
O O4 0.736540 0.899791 0.202055
O O5 0.643320 0.911615 0.332171
O O6 0.674787 0.785250 0.191621
O O7 0.657928 0.899732 0.000000
O O8 0.723254 0.587662 0.500000
O O9 0.691818 0.500000 0.747186
O O10 0.666839 0.640861 0.754256
O O11 0.082792 0.500000 0.500000
O O12 0.324467 0.263804 0.500000
#
# Coordination Sequence:
#
# PCOD8266016 Si02
#       5
#     8  16  16   8  16
#     4   8  16  32  54  73  89 124 171 207 249 303
#     4  11  20  31  50  74 101 138 173 195 228 288
#     4  10  18  29  46  68 101 136 162 195 240 287
#     4  10  20  34  49  72 106 133 158 203 249 285
#     4   8  17  32  49  69  95 127 165 203 244 287
#
# _framework density 17.395403999999999
#
# number of rings (size 3 to 8) (size 9 to 14) (size 15 to 20)
#    0.750    1.750    2.500    1.500    0.000    6.250 
#    0.000    0.000    0.000   13.500    0.000    7.000 
#    0.000    0.000    0.000   11.250    0.000    0.000 
#
# Total GULP energy -396422.977528 kJ/mol
# GULP energy per Si atom -12388.218048 kJ/mol
# Density = 1.735581 g / cm^3
# Si number density = 17.395404 Si / 1000 Ang^3
#
#
#
# Elastic Constant Matrix: (Units=GPa)
#
#
# Indices 1 2 3 4 5 6 
#
# 1 62.1045 33.4385 10.4624 0.0000 0.0000 0.0000
# 2 33.4385 109.1821 16.5155 0.0000 0.0000 0.0000
# 3 10.4624 16.5155 77.6272 0.0000 0.0000 0.0000
# 4 0.0000 0.0000 0.0000 -0.2000 0.0000 0.0000
# 5 0.0000 0.0000 0.0000 0.0000 2.1752 0.0000
# 6 0.0000 0.0000 0.0000 0.0000 0.0000 8.0729
#
#
#
# Elastic Compliance Matrix: (Units=1/GPa)
#
#
# Indices 1 2 3 4 5 6 
#
# 1 0.019427 -0.005738 -0.001397 0.000000 0.000000 0.000000
# 2 -0.005738 0.011159 -0.001601 0.000000 0.000000 0.000000
# 3 -0.001397 -0.001601 0.013411 0.000000 0.000000 0.000000
# 4 0.000000 0.000000 0.000000 -5.000565 0.000000 0.000000
# 5 0.000000 0.000000 0.000000 0.000000 0.459733 0.000000
# 6 0.000000 0.000000 0.000000 0.000000 0.000000 0.123872
#
#
# Mechanical properties :
#
#
# Convention : Reuss Voigt Hill
#
# Bulk Modulus (GPa) = 37.70226 41.08294 39.39260
# Shear Modulus (GPa) = -1.15031 14.57611 6.71290
#
# Velocity S-wave (km/s) = -0.81407 2.89784 1.96657
# Velocity P-wave (km/s) = 4.56477 5.90466 5.27741
#
# Compressibility (1/GPa) = 0.02652361
#
# Stress axis : x y z
#
# Youngs Moduli (GPa) = 51.47476 89.61704 74.56584
#
# Poissons Ratio (x) = 0.51426 0.10420
# Poissons Ratio (y) = 0.29538 0.11935
# Poissons Ratio (z) = 0.07193 0.14344
#
# Static dielectric constant tensor:
#      x y z
#    x 2.776270 0.000000 0.000000 
#    y 0.000000 3.527790 0.000000 
#    z 0.000000 0.000000 3.070820 
# 
# 
# High freq. dielectric constant tensor:
#      x y z
#    x 1.617400 0.000000 0.000000 
#    y 0.000000 1.683540 0.000000 
#    z 0.000000 0.000000 1.654470 
# 
# From -- ./inp_files/17952.got.cif
#   From: 2010.03.12/outbox.cif.g09.slc.cpg/sg65_9_cif.got.tgz:17952.got - 2010.04.10 20:52:16.
