data_PCOD8266868
_publ_section_title
;
Structure prediction by ZEFSAII (Michael W. Deem and Ramdas Pophale) SiO2 
 PCOD8266868
Probable space group: C M M M
;
_chemical_formula_sum "Si O2"
_cell_formula_units_Z 104
_cell_length_a 22.361518
_cell_length_b 27.014182
_cell_length_c 8.706921
_cell_angle_alpha 90.000000
_cell_angle_beta 90.000000
_cell_angle_gamma 90.000000
_cell_volume 5259.660443
_symmetry_space_group_name_H-M "C M M M"
_symmetry_group_IT_number 65
_symmetry_cell_setting 'orthorhombic'
loop_
_space_group_symop_operation_xyz
x,y,z
-x,-y,z
x,-y,-z
-x,y,-z
-x,-y,-z
x,y,-z
-x,y,z
x,-y,z
1/2+x,1/2+y,z
1/2-x,1/2-y,z
1/2+x,1/2-y,-z
1/2-x,1/2+y,-z
1/2-x,1/2-y,-z
1/2+x,1/2+y,-z
1/2-x,1/2+y,z
1/2+x,1/2-y,z
loop_
_atom_site_type_symbol
_atom_site_label
_atom_site_fract_x
_atom_site_fract_y
_atom_site_fract_z
Si Si1 0.754311 0.195574 0.830142
Si Si2 0.245244 0.443040 0.818498
Si Si3 0.568613 0.796561 0.180887
Si Si4 0.867418 0.092355 0.680507
Si Si5 0.662805 0.130294 0.322417
Si Si6 0.107853 0.811085 0.169938
Si Si7 0.070548 0.000000 0.826412
O O1 0.750000 0.250000 0.763894
O O2 0.721247 0.163372 0.703669
O O3 0.822206 0.181943 0.847277
O O4 0.723142 0.191123 0.000000
O O5 0.251449 0.500000 0.767162
O O6 0.301333 0.411601 0.755425
O O7 0.181325 0.422080 0.755668
O O8 0.244686 0.436850 0.000000
O O9 0.500000 0.804727 0.227370
O O10 0.605262 0.842204 0.251788
O O11 0.589474 0.742169 0.243125
O O12 0.578777 0.797445 0.000000
O O13 0.858181 0.090669 0.500000
O O14 0.906665 0.141630 0.723553
O O15 0.907558 0.047547 0.736305
O O16 0.650028 0.121353 0.500000
O O17 0.077873 0.816008 0.000000
O O18 0.000000 0.000000 0.831133
O O19 0.097100 0.000000 0.000000
#
# Coordination Sequence:
#
# PCOD8266868 Si02
#       7
#    16  16  16  16  16  16   8
#     4  10  18  32  55  81 114 152 193 239 282 337
#     4  11  23  40  64  90 120 157 201 250 302 365
#     4  10  22  42  65  86 115 161 212 252 291 354
#     4  12  24  37  59  91 126 158 195 253 315 362
#     4  12  24  36  58  90 125 157 192 244 309 371
#     4  10  20  35  58  87 120 159 203 247 291 347
#     4  11  25  45  65  81 107 159 218 257 292 353
#
# _framework density 19.773140000000001
#
# number of rings (size 3 to 8) (size 9 to 14) (size 15 to 20)
#    0.000    1.154    3.846    3.462    0.000    3.385 
#    0.000    1.538    0.000    0.462    0.000    3.231 
#    0.000    0.000    0.000    0.000    0.000    0.000 
#
# Total GULP energy -644425.840160 kJ/mol
# GULP energy per Si atom -12392.804618 kJ/mol
# Density = 1.972813 g / cm^3
# Si number density = 19.773140 Si / 1000 Ang^3
#
#
#
# Elastic Constant Matrix: (Units=GPa)
#
#
# Indices 1 2 3 4 5 6 
#
# 1 92.4835 30.4109 29.2771 0.0000 0.0000 0.0000
# 2 30.4109 97.2137 34.1241 0.0000 0.0000 0.0000
# 3 29.2771 34.1241 94.3724 0.0000 0.0000 0.0000
# 4 0.0000 0.0000 0.0000 6.3323 0.0000 0.0000
# 5 0.0000 0.0000 0.0000 0.0000 14.0466 0.0000
# 6 0.0000 0.0000 0.0000 0.0000 0.0000 41.8987
#
#
#
# Elastic Compliance Matrix: (Units=1/GPa)
#
#
# Indices 1 2 3 4 5 6 
#
# 1 0.012695 -0.002965 -0.002866 0.000000 0.000000 0.000000
# 2 -0.002965 0.012475 -0.003591 0.000000 0.000000 0.000000
# 3 -0.002866 -0.003591 0.012784 0.000000 0.000000 0.000000
# 4 0.000000 0.000000 0.000000 0.157920 0.000000 0.000000
# 5 0.000000 0.000000 0.000000 0.000000 0.071192 0.000000
# 6 0.000000 0.000000 0.000000 0.000000 0.000000 0.023867
#
#
# Mechanical properties :
#
#
# Convention : Reuss Voigt Hill
#
# Bulk Modulus (GPa) = 52.33088 52.41043 52.37066
# Shear Modulus (GPa) = 15.81542 25.13936 20.47739
#
# Velocity S-wave (km/s) = 2.83122 3.56952 3.22159
# Velocity P-wave (km/s) = 6.10007 6.59940 6.35464
#
# Compressibility (1/GPa) = 0.01910918
#
# Stress axis : x y z
#
# Youngs Moduli (GPa) = 78.77038 80.16239 78.22345
#
# Poissons Ratio (x) = 0.23770 0.22420
# Poissons Ratio (y) = 0.23357 0.28089
# Poissons Ratio (z) = 0.22577 0.28785
#
# Static dielectric constant tensor:
#      x y z
#    x 3.494350 0.000000 0.000000 
#    y 0.000000 3.894680 0.000000 
#    z 0.000000 0.000000 3.675530 
# 
# 
# High freq. dielectric constant tensor:
#      x y z
#    x 1.750140 0.000000 0.000000 
#    y 0.000000 1.781240 0.000000 
#    z 0.000000 0.000000 1.760530 
# 
# From -- ./inp_files/14734.got.cif
#   From: 2010.03.12/outbox.cif.g09.slc.cpg/sg65_8_cif.got.tgz:14734.got - 2010.04.10 20:52:16.
