data_PCOD8266582
_publ_section_title
;
Structure prediction by ZEFSAII (Michael W. Deem and Ramdas Pophale) SiO2 
 PCOD8266582
Probable space group: C M M M
;
_chemical_formula_sum "Si O2"
_cell_formula_units_Z 128
_cell_length_a 16.059823
_cell_length_b 17.655179
_cell_length_c 25.414292
_cell_angle_alpha 90.000000
_cell_angle_beta 90.000000
_cell_angle_gamma 90.000000
_cell_volume 7205.944204
_symmetry_space_group_name_H-M "C M M M"
_symmetry_group_IT_number 65
_symmetry_cell_setting 'orthorhombic'
loop_
_space_group_symop_operation_xyz
x,y,z
-x,-y,z
x,-y,-z
-x,y,-z
-x,-y,-z
x,y,-z
-x,y,z
x,-y,z
1/2+x,1/2+y,z
1/2-x,1/2-y,z
1/2+x,1/2-y,-z
1/2-x,1/2+y,-z
1/2-x,1/2-y,-z
1/2+x,1/2+y,-z
1/2-x,1/2+y,z
1/2+x,1/2-y,z
loop_
_atom_site_type_symbol
_atom_site_label
_atom_site_fract_x
_atom_site_fract_y
_atom_site_fract_z
Si Si1 0.842618 0.717494 0.833834
Si Si2 0.257862 0.416878 0.817292
Si Si3 0.700795 0.179190 0.639667
Si Si4 0.096878 0.087738 0.893146
Si Si5 0.346895 0.270764 0.056875
Si Si6 0.321721 0.414561 0.296743
Si Si7 0.402125 0.914712 0.559541
Si Si8 0.407228 0.263518 0.724039
O O1 0.750000 0.750000 0.826540
O O2 0.825719 0.627715 0.833148
O O3 0.887569 0.735497 0.890070
O O4 0.898478 0.747059 0.786105
O O5 0.241353 0.500000 0.839405
O O6 0.345733 0.388008 0.842939
O O7 0.265309 0.415330 0.754905
O O8 0.750000 0.250000 0.613999
O O9 0.763110 0.111366 0.655196
O O10 0.637817 0.147819 0.596819
O O11 0.655459 0.210246 0.691994
O O12 0.131799 0.139324 0.941037
O O13 0.000000 0.104592 0.879935
O O14 0.108142 0.000000 0.908811
O O15 0.250000 0.250000 0.059581
O O16 0.381756 0.241304 0.000000
O O17 0.357069 0.500000 0.307597
O O18 0.394364 0.352687 0.288855
O O19 0.370889 0.901229 0.500000
O O20 0.500000 0.903205 0.562772
O O21 0.378463 0.000000 0.577506
O O22 0.500000 0.242524 0.706592
#
# Coordination Sequence:
#
# PCOD8266582 Si02
#       8
#    16  16  16  16  16  16  16  16
#     4  11  17  35  51  67  95 128 167 205 246 296
#     4  10  18  31  51  71  97 132 164 200 246 302
#     4  10  19  33  51  74 105 138 179 212 245 294
#     4  10  20  33  51  76 103 129 158 200 256 311
#     4  10  20  33  50  69  94 132 169 201 241 300
#     4  10  19  31  49  71 100 136 169 202 243 296
#     4   9  18  33  53  77 106 138 171 214 266 307
#     4  11  21  32  50  76 103 132 166 207 256 301
#
# _framework density 17.763113000000001
#
# number of rings (size 3 to 8) (size 9 to 14) (size 15 to 20)
#    0.000    1.875    5.000    1.500    0.000    3.000 
#    0.000    1.875    0.000    1.500    0.000    0.000 
#    0.000    0.500    0.000   28.500    0.000    0.125 
#
# Total GULP energy -792974.232453 kJ/mol
# GULP energy per Si atom -12390.222382 kJ/mol
# Density = 1.772268 g / cm^3
# Si number density = 17.763113 Si / 1000 Ang^3
#
#
#
# Elastic Constant Matrix: (Units=GPa)
#
#
# Indices 1 2 3 4 5 6 
#
# 1 55.0918 37.4792 18.4334 0.0000 0.0000 0.0000
# 2 37.4792 86.5310 38.1310 0.0000 0.0000 0.0000
# 3 18.4334 38.1310 89.5630 0.0000 0.0000 0.0000
# 4 0.0000 0.0000 0.0000 20.0896 0.0000 0.0000
# 5 0.0000 0.0000 0.0000 0.0000 -58.3859 0.0000
# 6 0.0000 0.0000 0.0000 0.0000 0.0000 23.3682
#
#
#
# Elastic Compliance Matrix: (Units=1/GPa)
#
#
# Indices 1 2 3 4 5 6 
#
# 1 0.025768 -0.010862 -0.000679 0.000000 0.000000 0.000000
# 2 -0.010862 0.018804 -0.005770 0.000000 0.000000 0.000000
# 3 -0.000679 -0.005770 0.013762 0.000000 0.000000 0.000000
# 4 0.000000 0.000000 0.000000 0.049777 0.000000 0.000000
# 5 0.000000 0.000000 0.000000 0.000000 -0.017127 0.000000
# 6 0.000000 0.000000 0.000000 0.000000 0.000000 0.042793
#
#
# Mechanical properties :
#
#
# Convention : Reuss Voigt Hill
#
# Bulk Modulus (GPa) = 42.17339 46.58589 44.37964
# Shear Modulus (GPa) = 28.36046 6.15718 17.25882
#
# Velocity S-wave (km/s) = 4.00007 1.86381 3.12045
# Velocity P-wave (km/s) = 6.71772 5.56011 6.16614
#
# Compressibility (1/GPa) = 0.02371163
#
# Stress axis : x y z
#
# Youngs Moduli (GPa) = 38.80791 53.18105 72.66542
#
# Poissons Ratio (x) = 0.57763 0.04935
# Poissons Ratio (y) = 0.42151 0.41929
# Poissons Ratio (z) = 0.02636 0.30686
#
# Static dielectric constant tensor:
#      x y z
#    x 3.069240 0.000000 0.000000 
#    y 0.000000 3.730710 0.000000 
#    z 0.000000 0.000000 3.271580 
# 
# 
# High freq. dielectric constant tensor:
#      x y z
#    x 1.658240 0.000000 0.000000 
#    y 0.000000 1.695310 0.000000 
#    z 0.000000 0.000000 1.674080 
# 
# From -- ./inp_files/70656.got.cif
#   From: 2010.03.12/outbox.cif.g09.slc.cpg/sg65_36_cif.got.tgz:70656.got - 2010.04.10 20:52:16.
