data_PCOD8266726
_publ_section_title
;
Structure prediction by ZEFSAII (Michael W. Deem and Ramdas Pophale) SiO2 
 PCOD8266726
Probable space group: C M M M
;
_chemical_formula_sum "Si O2"
_cell_formula_units_Z 80
_cell_length_a 23.644810
_cell_length_b 9.502251
_cell_length_c 19.308991
_cell_angle_alpha 90.000000
_cell_angle_beta 90.000000
_cell_angle_gamma 90.000000
_cell_volume 4338.323234
_symmetry_space_group_name_H-M "C M M M"
_symmetry_group_IT_number 65
_symmetry_cell_setting 'orthorhombic'
loop_
_space_group_symop_operation_xyz
x,y,z
-x,-y,z
x,-y,-z
-x,y,-z
-x,-y,-z
x,y,-z
-x,y,z
x,-y,z
1/2+x,1/2+y,z
1/2-x,1/2-y,z
1/2+x,1/2-y,-z
1/2-x,1/2+y,-z
1/2-x,1/2-y,-z
1/2+x,1/2+y,-z
1/2-x,1/2+y,z
1/2+x,1/2-y,z
loop_
_atom_site_type_symbol
_atom_site_label
_atom_site_fract_x
_atom_site_fract_y
_atom_site_fract_z
Si Si1 0.500000 0.156267 0.777017
Si Si2 0.892284 0.664109 0.699110
Si Si3 0.692385 0.834680 0.816238
Si Si4 0.623707 0.655618 0.078448
Si Si5 0.500000 0.747051 0.924262
Si Si6 0.435120 0.336618 0.420780
O O1 0.443258 0.227498 0.746635
O O2 0.500000 0.145739 0.860219
O O3 0.500000 0.000000 0.747821
O O4 0.899624 0.500000 0.682802
O O5 0.834113 0.690578 0.740248
O O6 0.892367 0.747881 0.626910
O O7 0.750000 0.750000 0.820946
O O8 0.649686 0.777241 0.874190
O O9 0.702171 0.000000 0.830285
O O10 0.644742 0.500000 0.101608
O O11 0.555688 0.651954 0.082678
O O12 0.643463 0.686633 0.000000
O O13 0.500000 0.824535 0.000000
O O14 0.418875 0.305182 0.500000
O O15 0.500000 0.290951 0.406820
O O16 0.427192 0.500000 0.403756
#
# Coordination Sequence:
#
# PCOD8266726 Si02
#       6
#     8  16  16  16   8  16
#     4  10  18  32  50  79 115 143 178 226 277 332
#     4  10  20  35  55  80 112 144 177 221 271 326
#     4  11  24  41  59  79 105 141 188 238 282 327
#     4  10  21  37  57  82 112 145 182 226 276 331
#     4  10  19  33  54  82 116 150 183 222 269 328
#     4   9  18  32  51  81 119 151 179 212 255 315
#
# _framework density 18.440304999999999
#
# number of rings (size 3 to 8) (size 9 to 14) (size 15 to 20)
#    0.000    2.000    3.000    1.500    0.000    4.200 
#    0.000    3.000    0.000    0.600    0.000    0.000 
#    0.000    0.000    0.000    0.000    0.000    0.000 
#
# Total GULP energy -495805.201046 kJ/mol
# GULP energy per Si atom -12395.130026 kJ/mol
# Density = 1.839833 g / cm^3
# Si number density = 18.440305 Si / 1000 Ang^3
#
#
#
# Elastic Constant Matrix: (Units=GPa)
#
#
# Indices 1 2 3 4 5 6 
#
# 1 86.3063 46.7434 40.2628 0.0000 0.0000 0.0000
# 2 46.7434 97.8295 60.5325 0.0000 0.0000 0.0000
# 3 40.2628 60.5325 117.2872 0.0000 0.0000 0.0000
# 4 0.0000 0.0000 0.0000 33.5889 0.0000 0.0000
# 5 0.0000 0.0000 0.0000 0.0000 16.1874 0.0000
# 6 0.0000 0.0000 0.0000 0.0000 0.0000 22.0511
#
#
#
# Elastic Compliance Matrix: (Units=1/GPa)
#
#
# Indices 1 2 3 4 5 6 
#
# 1 0.016036 -0.006252 -0.002278 0.000000 0.000000 0.000000
# 2 -0.006252 0.017456 -0.006863 0.000000 0.000000 0.000000
# 3 -0.002278 -0.006863 0.012850 0.000000 0.000000 0.000000
# 4 0.000000 0.000000 0.000000 0.029772 0.000000 0.000000
# 5 0.000000 0.000000 0.000000 0.000000 0.061776 0.000000
# 6 0.000000 0.000000 0.000000 0.000000 0.000000 0.045349
#
#
# Mechanical properties :
#
#
# Convention : Reuss Voigt Hill
#
# Bulk Modulus (GPa) = 64.28675 66.27783 65.28229
# Shear Modulus (GPa) = 22.80927 24.62443 23.71685
#
# Velocity S-wave (km/s) = 3.52081 3.65822 3.59017
# Velocity P-wave (km/s) = 7.17397 7.33916 7.25704
#
# Compressibility (1/GPa) = 0.01555531
#
# Stress axis : x y z
#
# Youngs Moduli (GPa) = 62.36126 57.28833 77.82219
#
# Poissons Ratio (x) = 0.35819 0.17727
# Poissons Ratio (y) = 0.38991 0.53406
# Poissons Ratio (z) = 0.14205 0.39314
#
# Static dielectric constant tensor:
#      x y z
#    x 3.245490 0.000000 0.000000 
#    y 0.000000 3.195810 0.000000 
#    z 0.000000 0.000000 3.381800 
# 
# 
# High freq. dielectric constant tensor:
#      x y z
#    x 1.694150 0.000000 0.000000 
#    y 0.000000 1.705750 0.000000 
#    z 0.000000 0.000000 1.716290 
# 
# From -- ./inp_files/57294.got.cif
#   From: 2010.03.12/outbox.cif.g09.slc.cpg/sg65_29_cif.got.tgz:57294.got - 2010.04.10 20:52:16.
