data_PCOD8266952
_publ_section_title
;
Structure prediction by ZEFSAII (Michael W. Deem and Ramdas Pophale) SiO2 
 PCOD8266952
Probable space group: C M M M
;
_chemical_formula_sum "Si O2"
_cell_formula_units_Z 88
_cell_length_a 18.887503
_cell_length_b 22.259812
_cell_length_c 11.838929
_cell_angle_alpha 90.000000
_cell_angle_beta 90.000000
_cell_angle_gamma 90.000000
_cell_volume 4977.467746
_symmetry_space_group_name_H-M "C M M M"
_symmetry_group_IT_number 65
_symmetry_cell_setting 'orthorhombic'
loop_
_space_group_symop_operation_xyz
x,y,z
-x,-y,z
x,-y,-z
-x,y,-z
-x,-y,-z
x,y,-z
-x,y,z
x,-y,z
1/2+x,1/2+y,z
1/2-x,1/2-y,z
1/2+x,1/2-y,-z
1/2-x,1/2+y,-z
1/2-x,1/2-y,-z
1/2+x,1/2+y,-z
1/2-x,1/2+y,z
1/2+x,1/2-y,z
loop_
_atom_site_type_symbol
_atom_site_label
_atom_site_fract_x
_atom_site_fract_y
_atom_site_fract_z
Si Si1 0.330319 0.065389 0.500000
Si Si2 0.328642 0.272250 0.132245
Si Si3 0.421128 0.839641 0.866918
Si Si4 0.335449 0.604505 0.253872
Si Si5 0.173555 0.571328 0.742284
Si Si6 0.083417 0.000000 0.131056
Si Si7 0.335947 0.433451 0.500000
O O1 0.349794 0.097857 0.381920
O O2 0.246856 0.055952 0.500000
O O3 0.367041 0.000000 0.500000
O O4 0.250000 0.250000 0.159394
O O5 0.381886 0.220487 0.173130
O O6 0.348996 0.329244 0.207115
O O7 0.336986 0.288041 0.000000
O O8 0.500000 0.840961 0.814530
O O9 0.377889 0.898564 0.831877
O O10 0.424981 0.840836 0.000000
O O11 0.254412 0.586729 0.230619
O O12 0.385211 0.559350 0.186967
O O13 0.356977 0.602776 0.386590
O O14 0.163650 0.500000 0.746965
O O15 0.000000 0.000000 0.149984
O O16 0.103961 0.000000 0.000000
O O17 0.371975 0.500000 0.500000
#
# Coordination Sequence:
#
# PCOD8266952 Si02
#       7
#     8  16  16  16  16   8   8
#     4   7  14  28  50  78 108 135 175 220 265 319
#     4  10  20  35  56  80 108 146 193 233 273 333
#     4  10  22  38  54  77 111 147 182 227 284 336
#     4  11  19  36  59  84 111 147 187 230 275 331
#     4  10  18  33  57  84 108 143 184 228 276 330
#     4  11  24  37  53  85 120 145 181 234 287 336
#     4   9  16  32  56  84 114 145 179 225 281 333
#
# _framework density 17.679673000000001
#
# number of rings (size 3 to 8) (size 9 to 14) (size 15 to 20)
#    0.000    2.091    3.636    1.636    0.000    2.182 
#    0.000    5.455    0.000    1.636    0.000    0.000 
#    0.000    0.000    0.000    0.000    0.000    0.000 
#
# Total GULP energy -545381.034253 kJ/mol
# GULP energy per Si atom -12395.023506 kJ/mol
# Density = 1.763943 g / cm^3
# Si number density = 17.679673 Si / 1000 Ang^3
#
#
#
# Elastic Constant Matrix: (Units=GPa)
#
#
# Indices 1 2 3 4 5 6 
#
# 1 94.5266 42.5002 40.2967 0.0000 0.0000 0.0000
# 2 42.5002 106.6046 45.6023 0.0000 0.0000 0.0000
# 3 40.2967 45.6023 76.1556 0.0000 0.0000 0.0000
# 4 0.0000 0.0000 0.0000 -4.2489 0.0000 0.0000
# 5 0.0000 0.0000 0.0000 0.0000 15.1014 0.0000
# 6 0.0000 0.0000 0.0000 0.0000 0.0000 23.0384
#
#
#
# Elastic Compliance Matrix: (Units=1/GPa)
#
#
# Indices 1 2 3 4 5 6 
#
# 1 0.014504 -0.003360 -0.005662 0.000000 0.000000 0.000000
# 2 -0.003360 0.013389 -0.006240 0.000000 0.000000 0.000000
# 3 -0.005662 -0.006240 0.019863 0.000000 0.000000 0.000000
# 4 0.000000 0.000000 0.000000 -0.235354 0.000000 0.000000
# 5 0.000000 0.000000 0.000000 0.000000 0.066219 0.000000
# 6 0.000000 0.000000 0.000000 0.000000 0.000000 0.043406
#
#
# Mechanical properties :
#
#
# Convention : Reuss Voigt Hill
#
# Bulk Modulus (GPa) = 58.03065 59.34281 58.68673
# Shear Modulus (GPa) = -119.88984 16.70400 -51.59292
#
# Velocity S-wave (km/s) = -8.24375 3.07712 -5.40790
# Velocity P-wave (km/s) = 7.59724 6.80171 2.39319
#
# Compressibility (1/GPa) = 0.01723227
#
# Stress axis : x y z
#
# Youngs Moduli (GPa) = 68.94839 74.68770 50.34364
#
# Poissons Ratio (x) = 0.25095 0.28507
# Poissons Ratio (y) = 0.23166 0.31412
# Poissons Ratio (z) = 0.39041 0.46602
#
# Static dielectric constant tensor:
#      x y z
#    x 3.254860 0.000000 0.000000 
#    y 0.000000 3.248880 0.000000 
#    z 0.000000 0.000000 3.594810 
# 
# 
# High freq. dielectric constant tensor:
#      x y z
#    x 1.666120 0.000000 0.000000 
#    y 0.000000 1.677020 0.000000 
#    z 0.000000 0.000000 1.687910 
# 
# From -- ./inp_files/26858.got.cif
#   From: 2010.03.12/outbox.cif.g09.slc.cpg/sg65_14_cif.got.tgz:26858.got - 2010.04.10 20:52:16.
