data_PCOD8266256
_publ_section_title
;
Structure prediction by ZEFSAII (Michael W. Deem and Ramdas Pophale) SiO2 
 PCOD8266256
Probable space group: C M M M
;
_chemical_formula_sum "Si O2"
_cell_formula_units_Z 64
_cell_length_a 9.071043
_cell_length_b 25.924107
_cell_length_c 17.224117
_cell_angle_alpha 90.000000
_cell_angle_beta 90.000000
_cell_angle_gamma 90.000000
_cell_volume 4050.400779
_symmetry_space_group_name_H-M "C M M M"
_symmetry_group_IT_number 65
_symmetry_cell_setting 'orthorhombic'
loop_
_space_group_symop_operation_xyz
x,y,z
-x,-y,z
x,-y,-z
-x,y,-z
-x,-y,-z
x,y,-z
-x,y,z
x,-y,z
1/2+x,1/2+y,z
1/2-x,1/2-y,z
1/2+x,1/2-y,-z
1/2-x,1/2+y,-z
1/2-x,1/2-y,-z
1/2+x,1/2+y,-z
1/2-x,1/2+y,z
1/2+x,1/2-y,z
loop_
_atom_site_type_symbol
_atom_site_label
_atom_site_fract_x
_atom_site_fract_y
_atom_site_fract_z
Si Si1 0.162497 0.561565 0.000000
Si Si2 0.175239 0.557625 0.834752
Si Si3 0.829052 0.000000 0.591422
Si Si4 0.672760 0.198635 0.411090
Si Si5 0.325506 0.904630 0.671903
O O1 0.241649 0.578045 0.081829
O O2 0.151278 0.500000 0.000000
O O3 0.000000 0.586446 0.000000
O O4 0.234113 0.500000 0.816349
O O5 0.220953 0.593863 0.762867
O O6 0.000000 0.555696 0.844021
O O7 0.754224 0.949181 0.624957
O O8 0.804775 0.000000 0.500000
O O9 0.000000 0.000000 0.614281
O O10 0.719167 0.188329 0.500000
O O11 0.500000 0.206813 0.402861
O O12 0.750000 0.250000 0.378680
O O13 0.727444 0.150298 0.360576
O O14 0.500000 0.912636 0.661308
#
# Coordination Sequence:
#
# PCOD8266256 Si02
#       5
#     8  16   8  16  16
#     4   7  10  16  30  56  89 114 132 162 208 248
#     4   8  12  20  36  61  89 113 136 169 209 248
#     4  11  23  33  41  60  91 122 146 171 213 265
#     4   9  18  31  46  63  82 107 142 184 224 258
#     4  10  18  30  48  67  86 112 148 183 215 253
#
# _framework density 15.800907
#
# number of rings (size 3 to 8) (size 9 to 14) (size 15 to 20)
#    0.000    3.000    1.250    2.625    0.000    3.000 
#    0.000    2.500    0.000    0.000    0.000    2.625 
#    0.000    0.000    0.000    0.000    0.000    0.000 
#
# Total GULP energy -396456.773686 kJ/mol
# GULP energy per Si atom -12389.274178 kJ/mol
# Density = 1.576494 g / cm^3
# Si number density = 15.800907 Si / 1000 Ang^3
#
#
#
# Elastic Constant Matrix: (Units=GPa)
#
#
# Indices 1 2 3 4 5 6 
#
# 1 26.3893 31.0522 28.4420 0.0000 0.0000 0.0000
# 2 31.0522 122.0986 79.2359 0.0000 0.0000 0.0000
# 3 28.4420 79.2359 139.1997 0.0000 0.0000 0.0000
# 4 0.0000 0.0000 0.0000 15.7227 0.0000 0.0000
# 5 0.0000 0.0000 0.0000 0.0000 8.6087 0.0000
# 6 0.0000 0.0000 0.0000 0.0000 0.0000 20.4402
#
#
#
# Elastic Compliance Matrix: (Units=1/GPa)
#
#
# Indices 1 2 3 4 5 6 
#
# 1 0.056468 -0.010900 -0.005333 0.000000 0.000000 0.000000
# 2 -0.010900 0.015092 -0.006363 0.000000 0.000000 0.000000
# 3 -0.005333 -0.006363 0.011896 0.000000 0.000000 0.000000
# 4 0.000000 0.000000 0.000000 0.063603 0.000000 0.000000
# 5 0.000000 0.000000 0.000000 0.000000 0.116162 0.000000
# 6 0.000000 0.000000 0.000000 0.000000 0.000000 0.048923
#
#
# Mechanical properties :
#
#
# Convention : Reuss Voigt Hill
#
# Bulk Modulus (GPa) = 26.13531 62.79420 44.46476
# Shear Modulus (GPa) = 13.51017 18.88481 16.19749
#
# Velocity S-wave (km/s) = 2.92725 3.46088 3.20519
# Velocity P-wave (km/s) = 5.29163 7.46976 6.47297
#
# Compressibility (1/GPa) = 0.03826241
#
# Stress axis : x y z
#
# Youngs Moduli (GPa) = 17.70902 66.26134 84.06250
#
# Poissons Ratio (x) = 0.72225 0.44834
# Poissons Ratio (y) = 0.19303 0.53493
# Poissons Ratio (z) = 0.09445 0.42165
#
# Static dielectric constant tensor:
#      x y z
#    x 2.671430 0.000000 0.000000 
#    y 0.000000 2.878190 0.000000 
#    z 0.000000 0.000000 3.538780 
# 
# 
# High freq. dielectric constant tensor:
#      x y z
#    x 1.567340 0.000000 0.000000 
#    y 0.000000 1.574080 0.000000 
#    z 0.000000 0.000000 1.623100 
# 
# From -- ./inp_files/49647.got.cif
#   From: 2010.03.12/outbox.cif.g09.slc.cpg/sg65_25_cif.got.tgz:49647.got - 2010.04.10 20:52:16.
