data_PCOD8266221
_publ_section_title
;
Structure prediction by ZEFSAII (Michael W. Deem and Ramdas Pophale) SiO2 
 PCOD8266221
Probable space group: C M M M
;
_chemical_formula_sum "Si O2"
_cell_formula_units_Z 104
_cell_length_a 20.596631
_cell_length_b 32.567187
_cell_length_c 8.757311
_cell_angle_alpha 90.000000
_cell_angle_beta 90.000000
_cell_angle_gamma 90.000000
_cell_volume 5874.179448
_symmetry_space_group_name_H-M "C M M M"
_symmetry_group_IT_number 65
_symmetry_cell_setting 'orthorhombic'
loop_
_space_group_symop_operation_xyz
x,y,z
-x,-y,z
x,-y,-z
-x,y,-z
-x,-y,-z
x,y,-z
-x,y,z
x,-y,z
1/2+x,1/2+y,z
1/2-x,1/2-y,z
1/2+x,1/2-y,-z
1/2-x,1/2+y,-z
1/2-x,1/2-y,-z
1/2+x,1/2+y,-z
1/2-x,1/2+y,z
1/2+x,1/2-y,z
loop_
_atom_site_type_symbol
_atom_site_label
_atom_site_fract_x
_atom_site_fract_y
_atom_site_fract_z
Si Si1 0.324053 0.654785 0.179248
Si Si2 0.926563 0.696193 0.178051
Si Si3 0.840608 0.928696 0.678940
Si Si4 0.426611 0.716532 0.319994
Si Si5 0.711476 0.954601 0.177289
Si Si6 0.819501 0.365651 0.820516
Si Si7 0.429854 0.500000 0.318624
O O1 0.355145 0.611512 0.222778
O O2 0.368403 0.689701 0.252617
O O3 0.249312 0.652504 0.242611
O O4 0.324750 0.662062 0.000000
O O5 0.912015 0.737140 0.271245
O O6 0.879146 0.660886 0.245052
O O7 0.000000 0.680842 0.204761
O O8 0.913696 0.705208 0.000000
O O9 0.843487 0.918186 0.500000
O O10 0.773695 0.951492 0.715980
O O11 0.895798 0.958946 0.737283
O O12 0.423293 0.712858 0.500000
O O13 0.500000 0.703820 0.263848
O O14 0.668280 0.914224 0.219990
O O15 0.678476 0.000000 0.206433
O O16 0.732217 0.951042 0.000000
O O17 0.817827 0.360441 0.000000
O O18 0.500000 0.500000 0.243189
O O19 0.431299 0.500000 0.500000
#
# Coordination Sequence:
#
# PCOD8266221 Si02
#       7
#    16  16  16  16  16  16   8
#     4  10  20  34  51  72  99 129 163 203 246 293
#     4   9  17  32  54  74  95 128 167 202 240 296
#     4  10  18  30  47  67  92 123 160 202 246 287
#     4  10  21  36  52  71  97 129 164 203 249 296
#     4   9  16  28  48  69  94 128 162 197 240 291
#     4   8  16  30  48  74 101 127 162 204 249 289
#     4   9  18  30  43  61  87 121 156 191 238 288
#
# _framework density 17.704599999999999
#
# number of rings (size 3 to 8) (size 9 to 14) (size 15 to 20)
#    0.000    2.692    0.769    2.308    0.000    2.154 
#    0.000    8.462    0.000    3.692    0.000    3.231 
#    0.000    0.000    0.000    9.385    0.000   10.154 
#
# Total GULP energy -644231.863562 kJ/mol
# GULP energy per Si atom -12389.074299 kJ/mol
# Density = 1.766430 g / cm^3
# Si number density = 17.704600 Si / 1000 Ang^3
#
#
#
# Elastic Constant Matrix: (Units=GPa)
#
#
# Indices 1 2 3 4 5 6 
#
# 1 104.9151 83.6934 21.7908 0.0000 0.0000 0.0000
# 2 83.6934 140.2001 25.2542 0.0000 0.0000 0.0000
# 3 21.7908 25.2542 33.1203 0.0000 0.0000 0.0000
# 4 0.0000 0.0000 0.0000 20.6090 0.0000 0.0000
# 5 0.0000 0.0000 0.0000 0.0000 16.2729 0.0000
# 6 0.0000 0.0000 0.0000 0.0000 0.0000 29.2752
#
#
#
# Elastic Compliance Matrix: (Units=1/GPa)
#
#
# Indices 1 2 3 4 5 6 
#
# 1 0.018735 -0.010391 -0.004403 0.000000 0.000000 0.000000
# 2 -0.010391 0.014031 -0.003862 0.000000 0.000000 0.000000
# 3 -0.004403 -0.003862 0.036035 0.000000 0.000000 0.000000
# 4 0.000000 0.000000 0.000000 0.048523 0.000000 0.000000
# 5 0.000000 0.000000 0.000000 0.000000 0.061452 0.000000
# 6 0.000000 0.000000 0.000000 0.000000 0.000000 0.034159
#
#
# Mechanical properties :
#
#
# Convention : Reuss Voigt Hill
#
# Bulk Modulus (GPa) = 31.75778 59.96805 45.86291
# Shear Modulus (GPa) = 19.17588 23.06455 21.12022
#
# Velocity S-wave (km/s) = 3.29462 3.61327 3.45762
# Velocity P-wave (km/s) = 5.69642 7.16607 6.47309
#
# Compressibility (1/GPa) = 0.03148835
#
# Stress axis : x y z
#
# Youngs Moduli (GPa) = 53.37550 71.26913 27.75065
#
# Poissons Ratio (x) = 0.74055 0.12220
# Poissons Ratio (y) = 0.55462 0.10718
# Poissons Ratio (z) = 0.23503 0.27527
#
# Static dielectric constant tensor:
#      x y z
#    x 3.479400 0.000000 0.000000 
#    y 0.000000 3.367380 0.000000 
#    z 0.000000 0.000000 3.105980 
# 
# 
# High freq. dielectric constant tensor:
#      x y z
#    x 1.663150 0.000000 0.000000 
#    y 0.000000 1.695090 0.000000 
#    z 0.000000 0.000000 1.668030 
# 
# From -- ./inp_files/12804.got.cif
#   From: 2010.03.12/outbox.cif.g09.slc.cpg/sg65_7_cif.got.tgz:12804.got - 2010.04.10 20:52:16.
