data_PCOD8266955
_publ_section_title
;
Structure prediction by ZEFSAII (Michael W. Deem and Ramdas Pophale) SiO2 
 PCOD8266955
Probable space group: C M M M
;
_chemical_formula_sum "Si O2"
_cell_formula_units_Z 72
_cell_length_a 13.231570
_cell_length_b 18.904974
_cell_length_c 14.828586
_cell_angle_alpha 90.000000
_cell_angle_beta 90.000000
_cell_angle_gamma 90.000000
_cell_volume 3709.259378
_symmetry_space_group_name_H-M "C M M M"
_symmetry_group_IT_number 65
_symmetry_cell_setting 'orthorhombic'
loop_
_space_group_symop_operation_xyz
x,y,z
-x,-y,z
x,-y,-z
-x,y,-z
-x,-y,-z
x,y,-z
-x,y,z
x,-y,z
1/2+x,1/2+y,z
1/2-x,1/2-y,z
1/2+x,1/2-y,-z
1/2-x,1/2+y,-z
1/2-x,1/2-y,-z
1/2+x,1/2+y,-z
1/2-x,1/2+y,z
1/2+x,1/2-y,z
loop_
_atom_site_type_symbol
_atom_site_label
_atom_site_fract_x
_atom_site_fract_y
_atom_site_fract_z
Si Si1 0.885984 0.366960 0.786256
Si Si2 0.805883 0.417959 0.400939
Si Si3 0.750000 0.750000 0.239217
Si Si4 0.116635 0.130510 0.321238
Si Si5 0.111579 0.000000 0.186154
Si Si6 0.818259 0.500000 0.103406
O O1 0.862147 0.377186 0.679680
O O2 0.813705 0.304227 0.822465
O O3 0.866985 0.434102 0.846967
O O4 0.000000 0.342055 0.796618
O O5 0.848427 0.396200 0.500000
O O6 0.825116 0.500000 0.383448
O O7 0.685585 0.400926 0.401511
O O8 0.834070 0.793857 0.296003
O O9 0.125723 0.072129 0.242308
O O10 0.000000 0.140712 0.351187
O O11 0.196691 0.000000 0.109247
O O12 0.000000 0.000000 0.141829
O O13 0.851759 0.500000 0.000000
#
# Coordination Sequence:
#
# PCOD8266955 Si02
#       6
#    16  16   8  16   8   8
#     4  11  22  40  61  87 120 155 195 243 294 343
#     4  10  19  33  56  87 119 152 194 243 294 343
#     4  10  20  36  60  84 114 160 194 236 290 352
#     4  10  18  33  57  84 113 152 194 236 287 343
#     4  10  18  36  63  84 111 149 191 235 283 337
#     4  12  23  41  66  91 117 149 192 244 295 346
#
# _framework density 19.410882999999998
#
# number of rings (size 3 to 8) (size 9 to 14) (size 15 to 20)
#    0.000    1.556    6.667    1.000    0.000    2.000 
#    0.000   11.667    0.000   10.667    0.000    0.000 
#    0.000    0.000    0.000    0.000    0.000    0.000 
#
# Total GULP energy -446016.364157 kJ/mol
# GULP energy per Si atom -12389.343449 kJ/mol
# Density = 1.936670 g / cm^3
# Si number density = 19.410883 Si / 1000 Ang^3
#
#
#
# Elastic Constant Matrix: (Units=GPa)
#
#
# Indices 1 2 3 4 5 6 
#
# 1 127.0443 40.2833 28.4698 0.0000 0.0000 0.0000
# 2 40.2833 113.5434 30.7980 0.0000 0.0000 0.0000
# 3 28.4698 30.7980 79.4324 0.0000 0.0000 0.0000
# 4 0.0000 0.0000 0.0000 -10.7477 0.0000 0.0000
# 5 0.0000 0.0000 0.0000 0.0000 12.5122 0.0000
# 6 0.0000 0.0000 0.0000 0.0000 0.0000 27.9955
#
#
#
# Elastic Compliance Matrix: (Units=1/GPa)
#
#
# Indices 1 2 3 4 5 6 
#
# 1 0.009223 -0.002655 -0.002276 0.000000 0.000000 0.000000
# 2 -0.002655 0.010606 -0.003161 0.000000 0.000000 0.000000
# 3 -0.002276 -0.003161 0.014631 0.000000 0.000000 0.000000
# 4 0.000000 0.000000 0.000000 -0.093043 0.000000 0.000000
# 5 0.000000 0.000000 0.000000 0.000000 0.079922 0.000000
# 6 0.000000 0.000000 0.000000 0.000000 0.000000 0.035720
#
#
# Mechanical properties :
#
#
# Convention : Reuss Voigt Hill
#
# Bulk Modulus (GPa) = 54.71570 57.68023 56.19797
# Shear Modulus (GPa) = 63.02362 20.64994 41.83678
#
# Velocity S-wave (km/s) = 5.70427 3.26518 4.64759
# Velocity P-wave (km/s) = 8.46370 6.63288 7.60360
#
# Compressibility (1/GPa) = 0.01827629
#
# Stress axis : x y z
#
# Youngs Moduli (GPa) = 108.42258 94.28234 68.34905
#
# Poissons Ratio (x) = 0.25030 0.15559
# Poissons Ratio (y) = 0.28784 0.21604
# Poissons Ratio (z) = 0.24681 0.29802
#
# Static dielectric constant tensor:
#      x y z
#    x 3.911380 0.000000 0.000000 
#    y 0.000000 3.776300 0.000000 
#    z 0.000000 0.000000 3.107840 
# 
# 
# High freq. dielectric constant tensor:
#      x y z
#    x 1.772900 0.000000 0.000000 
#    y 0.000000 1.766630 0.000000 
#    z 0.000000 0.000000 1.702910 
# 
# From -- ./inp_files/39896.got.cif
#   From: 2010.03.12/outbox.cif.g09.slc.cpg/sg65_20_cif.got.tgz:39896.got - 2010.04.10 20:52:16.
