data_PCOD8266340
_publ_section_title
;
Structure prediction by ZEFSAII (Michael W. Deem and Ramdas Pophale) SiO2 
 PCOD8266340
Probable space group: C M M M
;
_chemical_formula_sum "Si O2"
_cell_formula_units_Z 80
_cell_length_a 18.402245
_cell_length_b 8.695010
_cell_length_c 26.053703
_cell_angle_alpha 90.000000
_cell_angle_beta 90.000000
_cell_angle_gamma 90.000000
_cell_volume 4168.793205
_symmetry_space_group_name_H-M "C M M M"
_symmetry_group_IT_number 65
_symmetry_cell_setting 'orthorhombic'
loop_
_space_group_symop_operation_xyz
x,y,z
-x,-y,z
x,-y,-z
-x,y,-z
-x,-y,-z
x,y,-z
-x,y,z
x,-y,z
1/2+x,1/2+y,z
1/2-x,1/2-y,z
1/2+x,1/2-y,-z
1/2-x,1/2+y,-z
1/2-x,1/2-y,-z
1/2+x,1/2+y,-z
1/2-x,1/2+y,z
1/2+x,1/2-y,z
loop_
_atom_site_type_symbol
_atom_site_label
_atom_site_fract_x
_atom_site_fract_y
_atom_site_fract_z
Si Si1 0.917259 0.319275 0.798207
Si Si2 0.670281 0.817131 0.896914
Si Si3 0.830793 0.817019 0.000000
Si Si4 0.170091 0.182604 0.594605
Si Si5 0.917809 0.181719 0.692984
Si Si6 0.085467 0.679688 0.500000
O O1 0.909382 0.500000 0.792136
O O2 0.874133 0.259736 0.847662
O O3 0.885299 0.243137 0.746627
O O4 0.000000 0.267191 0.805922
O O5 0.750000 0.750000 0.890538
O O6 0.672670 0.000000 0.901602
O O7 0.631526 0.747413 0.948094
O O8 0.750000 0.750000 0.000000
O O9 0.830639 0.000000 0.000000
O O10 0.250000 0.250000 0.588950
O O11 0.134297 0.240947 0.647680
O O12 0.119252 0.242615 0.549702
O O13 0.174360 0.000000 0.591793
O O14 0.000000 0.245246 0.684396
O O15 0.918845 0.000000 0.694423
O O16 0.103888 0.500000 0.500000
O O17 0.000000 0.711765 0.500000
#
# Coordination Sequence:
#
# PCOD8266340 Si02
#       6
#    16  16   8  16  16   8
#     4   9  19  35  54  76 103 137 175 215 260 310
#     4  10  19  32  51  74 101 132 169 212 258 310
#     4  10  18  30  49  72  99 131 169 211 257 308
#     4  11  23  39  59  84 116 149 183 225 273 321
#     4   9  19  36  57  79 104 139 180 219 263 316
#     4  11  24  41  62  87 113 145 186 227 270 323
#
# _framework density 19.190206
#
# number of rings (size 3 to 8) (size 9 to 14) (size 15 to 20)
#    0.000    2.100    0.000    4.500    0.000    5.600 
#    0.000    6.500    0.000    3.000    0.000    0.000 
#    0.000    0.000    0.000    0.000    0.000    0.000 
#
# Total GULP energy -495998.002717 kJ/mol
# GULP energy per Si atom -12399.950068 kJ/mol
# Density = 1.914653 g / cm^3
# Si number density = 19.190206 Si / 1000 Ang^3
#
#
#
# Elastic Constant Matrix: (Units=GPa)
#
#
# Indices 1 2 3 4 5 6 
#
# 1 80.1917 32.8170 70.2555 0.0000 0.0000 0.0000
# 2 32.8170 75.3434 56.7627 0.0000 0.0000 0.0000
# 3 70.2555 56.7627 202.3444 0.0000 0.0000 0.0000
# 4 0.0000 0.0000 0.0000 37.8740 0.0000 0.0000
# 5 0.0000 0.0000 0.0000 0.0000 37.5209 0.0000
# 6 0.0000 0.0000 0.0000 0.0000 0.0000 22.7958
#
#
#
# Elastic Compliance Matrix: (Units=1/GPa)
#
#
# Indices 1 2 3 4 5 6 
#
# 1 0.018901 -0.004170 -0.005393 0.000000 0.000000 0.000000
# 2 -0.004170 0.017749 -0.003531 0.000000 0.000000 0.000000
# 3 -0.005393 -0.003531 0.007805 0.000000 0.000000 0.000000
# 4 0.000000 0.000000 0.000000 0.026403 0.000000 0.000000
# 5 0.000000 0.000000 0.000000 0.000000 0.026652 0.000000
# 6 0.000000 0.000000 0.000000 0.000000 0.000000 0.043868
#
#
# Mechanical properties :
#
#
# Convention : Reuss Voigt Hill
#
# Bulk Modulus (GPa) = 54.74182 75.28333 65.01257
# Shear Modulus (GPa) = 28.79261 32.84110 30.81685
#
# Velocity S-wave (km/s) = 3.87768 4.14133 4.01167
# Velocity P-wave (km/s) = 6.97398 7.88560 7.44376
#
# Compressibility (1/GPa) = 0.01826757
#
# Stress axis : x y z
#
# Youngs Moduli (GPa) = 52.90658 56.34054 128.12029
#
# Poissons Ratio (x) = 0.23493 0.69094
# Poissons Ratio (y) = 0.22061 0.45243
# Poissons Ratio (z) = 0.28532 0.19896
#
# Static dielectric constant tensor:
#      x y z
#    x 3.464980 0.000000 0.000000 
#    y 0.000000 3.491900 0.000000 
#    z 0.000000 0.000000 4.164470 
# 
# 
# High freq. dielectric constant tensor:
#      x y z
#    x 1.727470 0.000000 0.000000 
#    y 0.000000 1.749540 0.000000 
#    z 0.000000 0.000000 1.770840 
# 
# From -- ./inp_files/75061.got.cif
#   From: 2010.03.12/outbox.cif.g09.slc.cpg/sg65_38_cif.got.tgz:75061.got - 2010.04.10 20:52:16.
