data_PCOD8266467
_publ_section_title
;
Structure prediction by ZEFSAII (Michael W. Deem and Ramdas Pophale) SiO2 
 PCOD8266467
Probable space group: C M M M
;
_chemical_formula_sum "Si O2"
_cell_formula_units_Z 72
_cell_length_a 33.446706
_cell_length_b 9.246524
_cell_length_c 12.741789
_cell_angle_alpha 90.000000
_cell_angle_beta 90.000000
_cell_angle_gamma 90.000000
_cell_volume 3940.599183
_symmetry_space_group_name_H-M "C M M M"
_symmetry_group_IT_number 65
_symmetry_cell_setting 'orthorhombic'
loop_
_space_group_symop_operation_xyz
x,y,z
-x,-y,z
x,-y,-z
-x,y,-z
-x,-y,-z
x,y,-z
-x,y,z
x,-y,z
1/2+x,1/2+y,z
1/2-x,1/2-y,z
1/2+x,1/2-y,-z
1/2-x,1/2+y,-z
1/2-x,1/2-y,-z
1/2+x,1/2+y,-z
1/2-x,1/2+y,z
1/2+x,1/2-y,z
loop_
_atom_site_type_symbol
_atom_site_label
_atom_site_fract_x
_atom_site_fract_y
_atom_site_fract_z
Si Si1 0.397751 0.171510 0.183827
Si Si2 0.044684 0.671562 0.000000
Si Si3 0.821606 0.836936 0.115218
Si Si4 0.787556 0.836295 0.329646
Si Si5 0.376156 0.669491 0.382719
O O1 0.433096 0.223437 0.106134
O O2 0.356584 0.221877 0.131836
O O3 0.403216 0.244248 0.298740
O O4 0.397174 0.000000 0.197836
O O5 0.043618 0.500000 0.000000
O O6 0.000000 0.737028 0.000000
O O7 0.787631 0.817093 0.203164
O O8 0.839460 0.000000 0.125502
O O9 0.802553 0.812438 0.000000
O O10 0.750000 0.750000 0.376960
O O11 0.829860 0.779363 0.374591
O O12 0.781116 0.000000 0.365287
O O13 0.391949 0.703084 0.500000
O O14 0.378867 0.500000 0.356377
#
# Coordination Sequence:
#
# PCOD8266467 Si02
#       5
#    16   8  16  16  16
#     4  10  18  30  51  78 103 127 163 205 240 283
#     4   9  18  32  51  79 114 141 154 181 240 299
#     4   9  17  30  47  64  91 132 169 200 244 298
#     4   9  18  30  43  64  92 125 163 205 253 299
#     4   9  19  36  54  70  94 132 171 206 252 301
#
# _framework density 18.271334
#
# number of rings (size 3 to 8) (size 9 to 14) (size 15 to 20)
#    0.000    2.778    1.111    2.000    0.000    4.889 
#    0.000    0.000    0.000    6.000    0.000    4.667 
#    0.000    0.000    0.000    0.000    0.000    0.000 
#
# Total GULP energy -446155.528125 kJ/mol
# GULP energy per Si atom -12393.209115 kJ/mol
# Density = 1.822975 g / cm^3
# Si number density = 18.271334 Si / 1000 Ang^3
#
#
#
# Elastic Constant Matrix: (Units=GPa)
#
#
# Indices 1 2 3 4 5 6 
#
# 1 74.5215 32.6895 29.3824 0.0000 0.0000 0.0000
# 2 32.6895 59.6277 38.5165 0.0000 0.0000 0.0000
# 3 29.3824 38.5165 133.0990 0.0000 0.0000 0.0000
# 4 0.0000 0.0000 0.0000 24.6313 0.0000 0.0000
# 5 0.0000 0.0000 0.0000 0.0000 13.4269 0.0000
# 6 0.0000 0.0000 0.0000 0.0000 0.0000 15.0694
#
#
#
# Elastic Compliance Matrix: (Units=1/GPa)
#
#
# Indices 1 2 3 4 5 6 
#
# 1 0.017867 -0.008914 -0.001365 0.000000 0.000000 0.000000
# 2 -0.008914 0.025073 -0.005288 0.000000 0.000000 0.000000
# 3 -0.001365 -0.005288 0.009345 0.000000 0.000000 0.000000
# 4 0.000000 0.000000 0.000000 0.040599 0.000000 0.000000
# 5 0.000000 0.000000 0.000000 0.000000 0.074477 0.000000
# 6 0.000000 0.000000 0.000000 0.000000 0.000000 0.066359
#
#
# Mechanical properties :
#
#
# Convention : Reuss Voigt Hill
#
# Bulk Modulus (GPa) = 47.27647 52.04720 49.66184
# Shear Modulus (GPa) = 18.38883 21.73618 20.06250
#
# Velocity S-wave (km/s) = 3.17587 3.45285 3.31725
# Velocity P-wave (km/s) = 6.27527 6.66662 6.47390
#
# Compressibility (1/GPa) = 0.02115217
#
# Stress axis : x y z
#
# Youngs Moduli (GPa) = 55.96874 39.88316 107.01185
#
# Poissons Ratio (x) = 0.35550 0.14605
# Poissons Ratio (y) = 0.49888 0.56588
# Poissons Ratio (z) = 0.07639 0.21090
#
# Static dielectric constant tensor:
#      x y z
#    x 3.059380 0.000000 0.000000 
#    y 0.000000 3.217920 0.000000 
#    z 0.000000 0.000000 3.672500 
# 
# 
# High freq. dielectric constant tensor:
#      x y z
#    x 1.657890 0.000000 0.000000 
#    y 0.000000 1.694940 0.000000 
#    z 0.000000 0.000000 1.725590 
# 
# From -- ./inp_files/46501.got.cif
#   From: 2010.03.12/outbox.cif.g09.slc.cpg/sg65_24_cif.got.tgz:46501.got - 2010.04.10 20:52:16.
