data_PCOD8266709
_publ_section_title
;
Structure prediction by ZEFSAII (Michael W. Deem and Ramdas Pophale) SiO2 
 PCOD8266709
Probable space group: C M M M
;
_chemical_formula_sum "Si O2"
_cell_formula_units_Z 104
_cell_length_a 23.997442
_cell_length_b 26.479651
_cell_length_c 9.554273
_cell_angle_alpha 90.000000
_cell_angle_beta 90.000000
_cell_angle_gamma 90.000000
_cell_volume 6071.204392
_symmetry_space_group_name_H-M "C M M M"
_symmetry_group_IT_number 65
_symmetry_cell_setting 'orthorhombic'
loop_
_space_group_symop_operation_xyz
x,y,z
-x,-y,z
x,-y,-z
-x,y,-z
-x,-y,-z
x,y,-z
-x,y,z
x,-y,z
1/2+x,1/2+y,z
1/2-x,1/2-y,z
1/2+x,1/2-y,-z
1/2-x,1/2+y,-z
1/2-x,1/2-y,-z
1/2+x,1/2+y,-z
1/2-x,1/2+y,z
1/2+x,1/2-y,z
loop_
_atom_site_type_symbol
_atom_site_label
_atom_site_fract_x
_atom_site_fract_y
_atom_site_fract_z
Si Si1 0.266282 0.944584 0.663615
Si Si2 0.935968 0.704759 0.342284
Si Si3 0.804272 0.852979 0.665112
Si Si4 0.434519 0.941473 0.000000
Si Si5 0.865911 0.779912 0.840122
Si Si6 0.868464 0.617589 0.772658
Si Si7 0.282286 0.194230 0.149909
O O1 0.263710 0.951216 0.500000
O O2 0.212718 0.910313 0.708116
O O3 0.325410 0.919742 0.697537
O O4 0.261078 0.000000 0.735839
O O5 0.929288 0.725465 0.500000
O O6 0.912189 0.746689 0.236612
O O7 0.904894 0.650797 0.335240
O O8 0.000000 0.696296 0.301684
O O9 0.815600 0.846574 0.500000
O O10 0.857134 0.832879 0.755543
O O11 0.750825 0.819790 0.709920
O O12 0.409949 0.916067 0.862429
O O13 0.500000 0.932909 0.000000
O O14 0.418197 0.000000 0.000000
O O15 0.805457 0.751627 0.835170
O O16 0.884899 0.790231 0.000000
O O17 0.835402 0.657572 0.867479
O O18 0.249536 0.188469 0.000000
#
# Coordination Sequence:
#
# PCOD8266709 Si02
#       7
#    16  16  16   8  16  16  16
#     4   9  18  32  50  71  95 127 167 208 251 298
#     4  10  21  35  52  74  99 128 166 209 253 300
#     4  10  19  29  46  69  96 126 159 199 243 292
#     4  11  22  32  44  64  89 124 174 224 263 302
#     4  10  20  32  48  69  97 129 160 195 240 296
#     4  10  18  32  49  66  91 126 163 207 254 293
#     4   9  17  29  44  64  89 120 155 190 239 294
#
# _framework density 17.130044000000002
#
# number of rings (size 3 to 8) (size 9 to 14) (size 15 to 20)
#    0.000    2.231    0.769    2.769    1.077    6.462 
#    0.000    0.000    0.000    0.000    0.000    6.462 
#    0.000    0.615    0.000    7.077    0.000    2.000 
#
# Total GULP energy -644330.879835 kJ/mol
# GULP energy per Si atom -12390.978458 kJ/mol
# Density = 1.709106 g / cm^3
# Si number density = 17.130044 Si / 1000 Ang^3
#
#
#
# Elastic Constant Matrix: (Units=GPa)
#
#
# Indices 1 2 3 4 5 6 
#
# 1 39.3717 48.9150 32.9999 0.0000 0.0000 0.0000
# 2 48.9150 127.2775 44.6585 0.0000 0.0000 0.0000
# 3 32.9999 44.6585 86.7961 0.0000 0.0000 0.0000
# 4 0.0000 0.0000 0.0000 17.4723 0.0000 0.0000
# 5 0.0000 0.0000 0.0000 0.0000 23.0884 0.0000
# 6 0.0000 0.0000 0.0000 0.0000 0.0000 23.9973
#
#
#
# Elastic Compliance Matrix: (Units=1/GPa)
#
#
# Indices 1 2 3 4 5 6 
#
# 1 0.058663 -0.017962 -0.013062 0.000000 0.000000 0.000000
# 2 -0.017962 0.015088 -0.000934 0.000000 0.000000 0.000000
# 3 -0.013062 -0.000934 0.016968 0.000000 0.000000 0.000000
# 4 0.000000 0.000000 0.000000 0.057234 0.000000 0.000000
# 5 0.000000 0.000000 0.000000 0.000000 0.043312 0.000000
# 6 0.000000 0.000000 0.000000 0.000000 0.000000 0.041671
#
#
# Mechanical properties :
#
#
# Convention : Reuss Voigt Hill
#
# Bulk Modulus (GPa) = 37.30921 56.28803 46.79862
# Shear Modulus (GPa) = 16.35141 21.36973 18.86057
#
# Velocity S-wave (km/s) = 3.09292 3.53583 3.32177
# Velocity P-wave (km/s) = 5.88066 7.04273 6.48777
#
# Compressibility (1/GPa) = 0.02680303
#
# Stress axis : x y z
#
# Youngs Moduli (GPa) = 17.04660 66.27948 58.93543
#
# Poissons Ratio (x) = 1.19052 0.76980
# Poissons Ratio (y) = 0.30619 0.05503
# Poissons Ratio (z) = 0.22266 0.06189
#
# Static dielectric constant tensor:
#      x y z
#    x 3.030120 0.000000 0.000000 
#    y 0.000000 3.656250 0.000000 
#    z 0.000000 0.000000 3.187980 
# 
# 
# High freq. dielectric constant tensor:
#      x y z
#    x 1.633530 0.000000 0.000000 
#    y 0.000000 1.656290 0.000000 
#    z 0.000000 0.000000 1.666070 
# 
# From -- ./inp_files/16778.got.cif
#   From: 2010.03.12/outbox.cif.g09.slc.cpg/sg65_9_cif.got.tgz:16778.got - 2010.04.10 20:52:16.
