data_PCOD8266264
_publ_section_title
;
Structure prediction by ZEFSAII (Michael W. Deem and Ramdas Pophale) SiO2 
 PCOD8266264
Probable space group: C M M M
;
_chemical_formula_sum "Si O2"
_cell_formula_units_Z 72
_cell_length_a 28.714310
_cell_length_b 8.861599
_cell_length_c 15.550056
_cell_angle_alpha 90.000000
_cell_angle_beta 90.000000
_cell_angle_gamma 90.000000
_cell_volume 3956.784847
_symmetry_space_group_name_H-M "C M M M"
_symmetry_group_IT_number 65
_symmetry_cell_setting 'orthorhombic'
loop_
_space_group_symop_operation_xyz
x,y,z
-x,-y,z
x,-y,-z
-x,y,-z
-x,-y,-z
x,y,-z
-x,y,z
x,-y,z
1/2+x,1/2+y,z
1/2-x,1/2-y,z
1/2+x,1/2-y,-z
1/2-x,1/2+y,-z
1/2-x,1/2-y,-z
1/2+x,1/2+y,-z
1/2-x,1/2+y,z
1/2+x,1/2-y,z
loop_
_atom_site_type_symbol
_atom_site_label
_atom_site_fract_x
_atom_site_fract_y
_atom_site_fract_z
Si Si1 0.798921 0.675014 0.829451
Si Si2 0.947926 0.178175 0.596884
Si Si3 0.052897 0.679186 0.905757
Si Si4 0.301230 0.680119 0.000000
Si Si5 0.608414 0.174153 0.743786
O O1 0.789958 0.500000 0.850989
O O2 0.750000 0.750000 0.802509
O O3 0.835708 0.694427 0.751825
O O4 0.823457 0.754484 0.912386
O O5 0.937479 0.233854 0.500000
O O6 0.908680 0.244697 0.658373
O O7 0.000000 0.231470 0.624291
O O8 0.944975 0.000000 0.601420
O O9 0.056819 0.500000 0.906864
O O10 0.084079 0.745858 0.828618
O O11 0.000000 0.730658 0.889126
O O12 0.069465 0.740526 0.000000
O O13 0.250000 0.750000 0.000000
O O14 0.301792 0.500000 0.000000
O O15 0.594547 0.000000 0.735974
#
# Coordination Sequence:
#
# PCOD8266264 Si02
#       5
#    16  16  16   8  16
#     4  10  20  33  49  71 101 136 174 218 265 308
#     4   9  19  36  56  78 106 138 167 200 252 314
#     4   8  14  25  42  66  97 130 161 195 240 294
#     4  10  18  30  48  68  93 130 175 218 260 301
#     4  10  20  31  51  78 101 131 172 217 259 299
#
# _framework density 18.196591000000002
#
# number of rings (size 3 to 8) (size 9 to 14) (size 15 to 20)
#    0.000    2.667    0.000    5.000    1.556    3.556 
#    0.000    1.111    0.000    0.667    0.000    3.111 
#    0.000    0.000    0.000    0.000    0.000    0.000 
#
# Total GULP energy -446156.720463 kJ/mol
# GULP energy per Si atom -12393.242235 kJ/mol
# Density = 1.815517 g / cm^3
# Si number density = 18.196591 Si / 1000 Ang^3
#
#
#
# Elastic Constant Matrix: (Units=GPa)
#
#
# Indices 1 2 3 4 5 6 
#
# 1 87.3767 35.2950 64.0599 0.0000 0.0000 0.0000
# 2 35.2950 75.3467 39.2533 0.0000 0.0000 0.0000
# 3 64.0599 39.2533 115.7897 0.0000 0.0000 0.0000
# 4 0.0000 0.0000 0.0000 27.5807 0.0000 0.0000
# 5 0.0000 0.0000 0.0000 0.0000 28.2937 0.0000
# 6 0.0000 0.0000 0.0000 0.0000 0.0000 22.4150
#
#
#
# Elastic Compliance Matrix: (Units=1/GPa)
#
#
# Indices 1 2 3 4 5 6 
#
# 1 0.020423 -0.004470 -0.009784 0.000000 0.000000 0.000000
# 2 -0.004470 0.017097 -0.003323 0.000000 0.000000 0.000000
# 3 -0.009784 -0.003323 0.015176 0.000000 0.000000 0.000000
# 4 0.000000 0.000000 0.000000 0.036257 0.000000 0.000000
# 5 0.000000 0.000000 0.000000 0.000000 0.035344 0.000000
# 6 0.000000 0.000000 0.000000 0.000000 0.000000 0.044613
#
#
# Mechanical properties :
#
#
# Convention : Reuss Voigt Hill
#
# Bulk Modulus (GPa) = 57.00412 61.74774 59.37593
# Shear Modulus (GPa) = 23.81970 24.98487 24.40228
#
# Velocity S-wave (km/s) = 3.62196 3.70949 3.66599
# Velocity P-wave (km/s) = 6.99187 7.23564 7.11480
#
# Compressibility (1/GPa) = 0.01754259
#
# Stress axis : x y z
#
# Youngs Moduli (GPa) = 48.96414 58.48962 65.89524
#
# Poissons Ratio (x) = 0.26144 0.64469
# Poissons Ratio (y) = 0.21887 0.21897
# Poissons Ratio (z) = 0.47905 0.19436
#
# Static dielectric constant tensor:
#      x y z
#    x 3.288470 0.000000 0.000000 
#    y 0.000000 3.086330 0.000000 
#    z 0.000000 0.000000 3.617630 
# 
# 
# High freq. dielectric constant tensor:
#      x y z
#    x 1.700210 0.000000 0.000000 
#    y 0.000000 1.681800 0.000000 
#    z 0.000000 0.000000 1.691040 
# 
# From -- ./inp_files/36559.got.cif
#   From: 2010.03.12/outbox.cif.g09.slc.cpg/sg65_19_cif.got.tgz:36559.got - 2010.04.10 20:52:16.
