data_PCOD8266600
_publ_section_title
;
Structure prediction by ZEFSAII (Michael W. Deem and Ramdas Pophale) SiO2 
 PCOD8266600
Probable space group: C M M M
;
_chemical_formula_sum "Si O2"
_cell_formula_units_Z 104
_cell_length_a 28.783992
_cell_length_b 9.268280
_cell_length_c 22.754383
_cell_angle_alpha 90.000000
_cell_angle_beta 90.000000
_cell_angle_gamma 90.000000
_cell_volume 6070.371004
_symmetry_space_group_name_H-M "C M M M"
_symmetry_group_IT_number 65
_symmetry_cell_setting 'orthorhombic'
loop_
_space_group_symop_operation_xyz
x,y,z
-x,-y,z
x,-y,-z
-x,y,-z
-x,-y,-z
x,y,-z
-x,y,z
x,-y,z
1/2+x,1/2+y,z
1/2-x,1/2-y,z
1/2+x,1/2-y,-z
1/2-x,1/2+y,-z
1/2-x,1/2-y,-z
1/2+x,1/2+y,-z
1/2-x,1/2+y,z
1/2+x,1/2-y,z
loop_
_atom_site_type_symbol
_atom_site_label
_atom_site_fract_x
_atom_site_fract_y
_atom_site_fract_z
Si Si1 0.894296 0.329890 0.115040
Si Si2 0.204874 0.667653 0.067261
Si Si3 0.945266 0.662260 0.666097
Si Si4 0.447951 0.171146 0.000000
Si Si5 0.291489 0.342093 0.569522
Si Si6 0.605342 0.669468 0.432170
Si Si7 0.445903 0.329918 0.218168
O O1 0.902611 0.500000 0.125863
O O2 0.839807 0.294827 0.106921
O O3 0.921320 0.274343 0.057525
O O4 0.913781 0.238644 0.168630
O O5 0.216238 0.500000 0.070601
O O6 0.250000 0.750000 0.092171
O O7 0.194370 0.713743 0.000000
O O8 0.924853 0.500000 0.671695
O O9 0.929094 0.736457 0.606274
O O10 0.929163 0.758187 0.721149
O O11 0.000000 0.655723 0.663391
O O12 0.500000 0.235138 0.000000
O O13 0.448723 0.000000 0.000000
O O14 0.285098 0.352279 0.500000
O O15 0.287314 0.500000 0.597656
O O16 0.250000 0.250000 0.598311
O O17 0.342318 0.278400 0.583517
O O18 0.593844 0.700920 0.500000
O O19 0.599405 0.500000 0.418797
O O20 0.500000 0.295404 0.205073
O O21 0.437062 0.500000 0.222014
#
# Coordination Sequence:
#
# PCOD8266600 Si02
#       7
#    16  16  16   8  16  16  16
#     4  10  18  31  51  75 101 131 169 208 246 291
#     4   9  17  30  48  72 102 134 170 209 248 295
#     4  10  21  36  53  73  97 128 169 212 250 293
#     4   9  16  26  44  71 101 131 161 197 242 289
#     4   8  14  25  42  66  96 128 160 192 229 279
#     4   9  18  32  50  74 104 135 165 200 248 303
#     4  10  21  36  53  73  98 130 167 205 249 304
#
# _framework density 17.132396
#
# number of rings (size 3 to 8) (size 9 to 14) (size 15 to 20)
#    0.000    2.692    0.769    2.308    0.000    4.308 
#    0.000    3.462    0.000    2.308    0.000    6.462 
#    0.000    0.000    0.000    0.000    0.000    0.000 
#
# Total GULP energy -644659.079510 kJ/mol
# GULP energy per Si atom -12397.289991 kJ/mol
# Density = 1.709340 g / cm^3
# Si number density = 17.132396 Si / 1000 Ang^3
#
#
#
# Elastic Constant Matrix: (Units=GPa)
#
#
# Indices 1 2 3 4 5 6 
#
# 1 76.2706 47.3269 49.4514 0.0000 0.0000 0.0000
# 2 47.3269 85.9575 57.8894 0.0000 0.0000 0.0000
# 3 49.4514 57.8894 96.8365 0.0000 0.0000 0.0000
# 4 0.0000 0.0000 0.0000 26.8205 0.0000 0.0000
# 5 0.0000 0.0000 0.0000 0.0000 9.3334 0.0000
# 6 0.0000 0.0000 0.0000 0.0000 0.0000 31.5520
#
#
#
# Elastic Compliance Matrix: (Units=1/GPa)
#
#
# Indices 1 2 3 4 5 6 
#
# 1 0.022286 -0.007710 -0.006772 0.000000 0.000000 0.000000
# 2 -0.007710 0.022141 -0.009299 0.000000 0.000000 0.000000
# 3 -0.006772 -0.009299 0.019344 0.000000 0.000000 0.000000
# 4 0.000000 0.000000 0.000000 0.037285 0.000000 0.000000
# 5 0.000000 0.000000 0.000000 0.000000 0.107142 0.000000
# 6 0.000000 0.000000 0.000000 0.000000 0.000000 0.031694
#
#
# Mechanical properties :
#
#
# Convention : Reuss Voigt Hill
#
# Bulk Modulus (GPa) = 61.69101 63.15555 62.42328
# Shear Modulus (GPa) = 17.07332 20.50098 18.78715
#
# Velocity S-wave (km/s) = 3.16025 3.46297 3.31507
# Velocity P-wave (km/s) = 7.02871 7.27550 7.15317
#
# Compressibility (1/GPa) = 0.01620982
#
# Stress axis : x y z
#
# Youngs Moduli (GPa) = 44.87170 45.16525 51.69626
#
# Poissons Ratio (x) = 0.34821 0.35008
# Poissons Ratio (y) = 0.34594 0.48072
# Poissons Ratio (z) = 0.30386 0.41999
#
# Static dielectric constant tensor:
#      x y z
#    x 3.280990 0.000000 0.000000 
#    y 0.000000 3.274790 0.000000 
#    z 0.000000 0.000000 2.994430 
# 
# 
# High freq. dielectric constant tensor:
#      x y z
#    x 1.662260 0.000000 0.000000 
#    y 0.000000 1.655960 0.000000 
#    z 0.000000 0.000000 1.635530 
# 
# From -- ./inp_files/66392.got.cif
#   From: 2010.03.12/outbox.cif.g09.slc.cpg/sg65_34_cif.got.tgz:66392.got - 2010.04.10 20:52:16.
