data_PCOD8266877
_publ_section_title
;
Structure prediction by ZEFSAII (Michael W. Deem and Ramdas Pophale) SiO2 
 PCOD8266877
Probable space group: C M M M
;
_chemical_formula_sum "Si O2"
_cell_formula_units_Z 64
_cell_length_a 18.399749
_cell_length_b 8.620247
_cell_length_c 20.871336
_cell_angle_alpha 90.000000
_cell_angle_beta 90.000000
_cell_angle_gamma 90.000000
_cell_volume 3310.410557
_symmetry_space_group_name_H-M "C M M M"
_symmetry_group_IT_number 65
_symmetry_cell_setting 'orthorhombic'
loop_
_space_group_symop_operation_xyz
x,y,z
-x,-y,z
x,-y,-z
-x,y,-z
-x,-y,-z
x,y,-z
-x,y,z
x,-y,z
1/2+x,1/2+y,z
1/2-x,1/2-y,z
1/2+x,1/2-y,-z
1/2-x,1/2+y,-z
1/2-x,1/2-y,-z
1/2+x,1/2+y,-z
1/2-x,1/2+y,z
1/2+x,1/2-y,z
loop_
_atom_site_type_symbol
_atom_site_label
_atom_site_fract_x
_atom_site_fract_y
_atom_site_fract_z
Si Si1 0.169325 0.683490 0.500000
Si Si2 0.914835 0.320938 0.744424
Si Si3 0.827893 0.179452 0.000000
Si Si4 0.831065 0.816176 0.861068
Si Si5 0.329554 0.681682 0.629373
O O1 0.168119 0.500000 0.500000
O O2 0.250000 0.750000 0.500000
O O3 0.132679 0.745927 0.565406
O O4 0.895538 0.500000 0.732018
O O5 0.883757 0.268539 0.812254
O O6 0.880745 0.217330 0.688836
O O7 0.000000 0.290802 0.745139
O O8 0.750000 0.250000 0.000000
O O9 0.865359 0.224095 0.932036
O O10 0.813829 0.000000 0.000000
O O11 0.750000 0.750000 0.853501
O O12 0.829568 0.000000 0.847881
O O13 0.321469 0.500000 0.619530
O O14 0.250000 0.750000 0.642731
#
# Coordination Sequence:
#
# PCOD8266877 Si02
#       5
#     8  16   8  16  16
#     4  10  18  32  55  84 115 142 175 219 267 315
#     4  11  24  40  55  75 107 145 184 226 272 320
#     4   8  16  30  51  80 109 137 171 217 267 316
#     4  10  19  34  57  83 110 140 178 221 268 321
#     4  11  21  36  59  85 112 142 180 222 267 319
#
# _framework density 19.332951000000001
#
# number of rings (size 3 to 8) (size 9 to 14) (size 15 to 20)
#    0.000    1.750    0.000    7.125    0.000    3.000 
#    0.000    1.250    0.000    7.500    0.000    0.000 
#    0.000    0.000    0.000    0.000    0.000    0.000 
#
# Total GULP energy -396611.006550 kJ/mol
# GULP energy per Si atom -12394.093955 kJ/mol
# Density = 1.928895 g / cm^3
# Si number density = 19.332951 Si / 1000 Ang^3
#
#
#
# Elastic Constant Matrix: (Units=GPa)
#
#
# Indices 1 2 3 4 5 6 
#
# 1 63.4525 39.7114 48.6463 0.0000 0.0000 0.0000
# 2 39.7114 123.4810 51.4260 0.0000 0.0000 0.0000
# 3 48.6463 51.4260 168.1511 0.0000 0.0000 0.0000
# 4 0.0000 0.0000 0.0000 36.0363 0.0000 0.0000
# 5 0.0000 0.0000 0.0000 0.0000 -6.8552 0.0000
# 6 0.0000 0.0000 0.0000 0.0000 0.0000 24.3176
#
#
#
# Elastic Compliance Matrix: (Units=1/GPa)
#
#
# Indices 1 2 3 4 5 6 
#
# 1 0.022907 -0.005279 -0.005012 0.000000 0.000000 0.000000
# 2 -0.005279 0.010497 -0.001683 0.000000 0.000000 0.000000
# 3 -0.005012 -0.001683 0.007912 0.000000 0.000000 0.000000
# 4 0.000000 0.000000 0.000000 0.027750 0.000000 0.000000
# 5 0.000000 0.000000 0.000000 0.000000 -0.145875 0.000000
# 6 0.000000 0.000000 0.000000 0.000000 0.000000 0.041123
#
#
# Mechanical properties :
#
#
# Convention : Reuss Voigt Hill
#
# Bulk Modulus (GPa) = 57.58297 70.51689 64.04993
# Shear Modulus (GPa) = -840.49621 25.05313 -407.72154
#
# Velocity S-wave (km/s) = -20.87323 3.60373 -14.53797
# Velocity P-wave (km/s) = 23.47494 7.33962 15.76710
#
# Compressibility (1/GPa) = 0.01736624
#
# Stress axis : x y z
#
# Youngs Moduli (GPa) = 43.65563 95.26381 126.39280
#
# Poissons Ratio (x) = 0.50292 0.63352
# Poissons Ratio (y) = 0.23047 0.21273
# Poissons Ratio (z) = 0.21882 0.16034
#
# Static dielectric constant tensor:
#      x y z
#    x 3.113320 0.000000 0.000000 
#    y 0.000000 3.727870 0.000000 
#    z 0.000000 0.000000 4.449130 
# 
# 
# High freq. dielectric constant tensor:
#      x y z
#    x 1.704970 0.000000 0.000000 
#    y 0.000000 1.771200 0.000000 
#    z 0.000000 0.000000 1.785120 
# 
# From -- ./inp_files/63239.got.cif
#   From: 2010.03.12/outbox.cif.g09.slc.cpg/sg65_32_cif.got.tgz:63239.got - 2010.04.10 20:52:16.
