data_PCOD8266254
_publ_section_title
;
Structure prediction by ZEFSAII (Michael W. Deem and Ramdas Pophale) SiO2 
 PCOD8266254
Probable space group: C M M M
;
_chemical_formula_sum "Si O2"
_cell_formula_units_Z 64
_cell_length_a 8.673004
_cell_length_b 29.012451
_cell_length_c 15.624997
_cell_angle_alpha 90.000000
_cell_angle_beta 90.000000
_cell_angle_gamma 90.000000
_cell_volume 3931.641488
_symmetry_space_group_name_H-M "C M M M"
_symmetry_group_IT_number 65
_symmetry_cell_setting 'orthorhombic'
loop_
_space_group_symop_operation_xyz
x,y,z
-x,-y,z
x,-y,-z
-x,y,-z
-x,-y,-z
x,y,-z
-x,y,z
x,-y,z
1/2+x,1/2+y,z
1/2-x,1/2-y,z
1/2+x,1/2-y,-z
1/2-x,1/2+y,-z
1/2-x,1/2-y,-z
1/2+x,1/2+y,-z
1/2-x,1/2+y,z
1/2+x,1/2-y,z
loop_
_atom_site_type_symbol
_atom_site_label
_atom_site_fract_x
_atom_site_fract_y
_atom_site_fract_z
Si Si1 0.318780 0.300370 0.000000
Si Si2 0.682913 0.301074 0.500000
Si Si3 0.681728 0.146086 0.841710
Si Si4 0.682734 0.050010 0.096286
Si Si5 0.318041 0.199512 0.672634
O O1 0.250000 0.250000 0.000000
O O2 0.266834 0.326419 0.084669
O O3 0.500000 0.296087 0.000000
O O4 0.500000 0.301298 0.500000
O O5 0.750000 0.250000 0.500000
O O6 0.746779 0.324238 0.412926
O O7 0.500000 0.150653 0.858041
O O8 0.736870 0.092487 0.844133
O O9 0.729360 0.166381 0.750243
O O10 0.500000 0.048693 0.094034
O O11 0.743947 0.000000 0.130391
O O12 0.744961 0.058382 0.000000
O O13 0.500000 0.204165 0.661814
O O14 0.250000 0.250000 0.690307
#
# Coordination Sequence:
#
# PCOD8266254 Si02
#       5
#     8   8  16  16  16
#     4  12  24  34  45  62  91 129 162 193 225 268
#     4  10  18  30  48  66  89 118 149 189 228 273
#     4  10  19  32  49  69  94 123 157 193 230 274
#     4   8  13  24  46  71  92 117 152 193 232 271
#     4  10  19  30  46  67  92 121 152 190 228 271
#
# _framework density 16.278188
#
# number of rings (size 3 to 8) (size 9 to 14) (size 15 to 20)
#    0.000    2.250    1.250    6.000    0.000    4.000 
#    0.000    0.000    0.000    1.500    0.000    0.875 
#    0.000    7.000    0.000    0.000    0.000    0.000 
#
# Total GULP energy -396583.186745 kJ/mol
# GULP energy per Si atom -12393.224586 kJ/mol
# Density = 1.624114 g / cm^3
# Si number density = 16.278188 Si / 1000 Ang^3
#
#
#
# Elastic Constant Matrix: (Units=GPa)
#
#
# Indices 1 2 3 4 5 6 
#
# 1 70.4308 33.2373 54.2718 0.0000 0.0000 0.0000
# 2 33.2373 135.4994 80.0058 0.0000 0.0000 0.0000
# 3 54.2718 80.0058 147.3714 0.0000 0.0000 0.0000
# 4 0.0000 0.0000 0.0000 14.6079 0.0000 0.0000
# 5 0.0000 0.0000 0.0000 0.0000 21.3906 0.0000
# 6 0.0000 0.0000 0.0000 0.0000 0.0000 13.1333
#
#
#
# Elastic Compliance Matrix: (Units=1/GPa)
#
#
# Indices 1 2 3 4 5 6 
#
# 1 0.019885 -0.000815 -0.006880 0.000000 0.000000 0.000000
# 2 -0.000815 0.010895 -0.005615 0.000000 0.000000 0.000000
# 3 -0.006880 -0.005615 0.012368 0.000000 0.000000 0.000000
# 4 0.000000 0.000000 0.000000 0.068456 0.000000 0.000000
# 5 0.000000 0.000000 0.000000 0.000000 0.046749 0.000000
# 6 0.000000 0.000000 0.000000 0.000000 0.000000 0.076142
#
#
# Mechanical properties :
#
#
# Convention : Reuss Voigt Hill
#
# Bulk Modulus (GPa) = 60.50627 76.48125 68.49376
# Shear Modulus (GPa) = 18.75296 22.21215 20.48256
#
# Velocity S-wave (km/s) = 3.39784 3.69797 3.55108
# Velocity P-wave (km/s) = 7.25566 8.08203 7.67997
#
# Compressibility (1/GPa) = 0.01652721
#
# Stress axis : x y z
#
# Youngs Moduli (GPa) = 50.28967 91.78299 80.85689
#
# Poissons Ratio (x) = 0.07481 0.55633
# Poissons Ratio (y) = 0.04099 0.45399
# Poissons Ratio (z) = 0.34601 0.51533
#
# Static dielectric constant tensor:
#      x y z
#    x 2.955370 0.000000 0.000000 
#    y 0.000000 3.299240 0.000000 
#    z 0.000000 0.000000 3.859530 
# 
# 
# High freq. dielectric constant tensor:
#      x y z
#    x 1.615110 0.000000 0.000000 
#    y 0.000000 1.610940 0.000000 
#    z 0.000000 0.000000 1.619760 
# 
# From -- ./inp_files/36845.got.cif
#   From: 2010.03.12/outbox.cif.g09.slc.cpg/sg65_19_cif.got.tgz:36845.got - 2010.04.10 20:52:16.
