data_PCOD8266975
_publ_section_title
;
Structure prediction by ZEFSAII (Michael W. Deem and Ramdas Pophale) SiO2 
 PCOD8266975
Probable space group: C M M M
;
_chemical_formula_sum "Si O2"
_cell_formula_units_Z 104
_cell_length_a 23.397985
_cell_length_b 9.299221
_cell_length_c 28.112846
_cell_angle_alpha 90.000000
_cell_angle_beta 90.000000
_cell_angle_gamma 90.000000
_cell_volume 6116.878312
_symmetry_space_group_name_H-M "C M M M"
_symmetry_group_IT_number 65
_symmetry_cell_setting 'orthorhombic'
loop_
_space_group_symop_operation_xyz
x,y,z
-x,-y,z
x,-y,-z
-x,y,-z
-x,-y,-z
x,y,-z
-x,y,z
x,-y,z
1/2+x,1/2+y,z
1/2-x,1/2-y,z
1/2+x,1/2-y,-z
1/2-x,1/2+y,-z
1/2-x,1/2-y,-z
1/2+x,1/2+y,-z
1/2-x,1/2+y,z
1/2+x,1/2-y,z
loop_
_atom_site_type_symbol
_atom_site_label
_atom_site_fract_x
_atom_site_fract_y
_atom_site_fract_z
Si Si1 0.000000 0.328555 0.211176
Si Si2 0.885769 0.163944 0.363913
Si Si3 0.000000 0.161316 0.305608
Si Si4 0.612319 0.330906 0.188956
Si Si5 0.692733 0.664038 0.000000
Si Si6 0.309184 0.667345 0.897281
Si Si7 0.064859 0.331856 0.554083
Si Si8 0.308673 0.668697 0.278104
O O1 0.000000 0.282779 0.265979
O O2 0.944679 0.262595 0.185874
O O3 0.000000 0.500000 0.206832
O O4 0.945090 0.183760 0.337362
O O5 0.888642 0.256180 0.412054
O O6 0.835247 0.216853 0.328864
O O7 0.875257 0.000000 0.378728
O O8 0.000000 0.000000 0.282798
O O9 0.597388 0.500000 0.187798
O O10 0.647835 0.280288 0.143135
O O11 0.646836 0.291406 0.236674
O O12 0.750000 0.750000 0.000000
O O13 0.661106 0.697436 0.949575
O O14 0.711681 0.500000 0.000000
O O15 0.295448 0.500000 0.890150
O O16 0.250000 0.750000 0.891597
O O17 0.082115 0.295988 0.500000
O O18 0.068002 0.500000 0.563923
O O19 0.000000 0.277169 0.563781
O O20 0.296016 0.500000 0.277470
O O21 0.250000 0.750000 0.268858
#
# Coordination Sequence:
#
# PCOD8266975 Si02
#       8
#     8  16   8  16   8  16  16  16
#     4  12  24  34  50  76 100 128 169 213 247 290
#     4  10  19  32  52  74  98 131 164 200 240 289
#     4  10  18  34  53  71 101 134 164 200 246 300
#     4  10  20  36  53  70 100 139 167 199 250 302
#     4   8  14  26  44  73 102 127 167 210 248 296
#     4   9  17  29  50  75 103 136 168 207 254 298
#     4   9  18  31  47  72 105 133 158 197 248 294
#     4  10  21  35  51  72  99 130 166 203 243 292
#
# _framework density 17.002134999999999
#
# number of rings (size 3 to 8) (size 9 to 14) (size 15 to 20)
#    0.000    2.308    2.308    1.615    0.000    2.769 
#    0.000    0.769    0.000    0.923    0.000    3.231 
#    0.000    0.000    0.000    0.000    0.000    0.000 
#
# Total GULP energy -644520.601870 kJ/mol
# GULP energy per Si atom -12394.626959 kJ/mol
# Density = 1.696344 g / cm^3
# Si number density = 17.002135 Si / 1000 Ang^3
#
#
#
# Elastic Constant Matrix: (Units=GPa)
#
#
# Indices 1 2 3 4 5 6 
#
# 1 91.9821 46.1180 49.2606 0.0000 0.0000 0.0000
# 2 46.1180 61.3585 50.3594 0.0000 0.0000 0.0000
# 3 49.2606 50.3594 137.0204 0.0000 0.0000 0.0000
# 4 0.0000 0.0000 0.0000 22.2368 0.0000 0.0000
# 5 0.0000 0.0000 0.0000 0.0000 49.4914 0.0000
# 6 0.0000 0.0000 0.0000 0.0000 0.0000 27.4375
#
#
#
# Elastic Compliance Matrix: (Units=1/GPa)
#
#
# Indices 1 2 3 4 5 6 
#
# 1 0.017870 -0.011683 -0.002131 0.000000 0.000000 0.000000
# 2 -0.011683 0.030975 -0.007184 0.000000 0.000000 0.000000
# 3 -0.002131 -0.007184 0.010705 0.000000 0.000000 0.000000
# 4 0.000000 0.000000 0.000000 0.044971 0.000000 0.000000
# 5 0.000000 0.000000 0.000000 0.000000 0.020206 0.000000
# 6 0.000000 0.000000 0.000000 0.000000 0.000000 0.036446
#
#
# Mechanical properties :
#
#
# Convention : Reuss Voigt Hill
#
# Bulk Modulus (GPa) = 56.96578 64.64855 60.80716
# Shear Modulus (GPa) = 23.92123 29.47467 26.69795
#
# Velocity S-wave (km/s) = 3.75501 4.16815 3.96696
# Velocity P-wave (km/s) = 7.23726 7.82758 7.53820
#
# Compressibility (1/GPa) = 0.01755440
#
# Stress axis : x y z
#
# Youngs Moduli (GPa) = 55.95864 32.28423 93.41734
#
# Poissons Ratio (x) = 0.37717 0.19906
# Poissons Ratio (y) = 0.65375 0.67112
# Poissons Ratio (z) = 0.11924 0.23193
#
# Static dielectric constant tensor:
#      x y z
#    x 2.999890 0.000000 0.000000 
#    y 0.000000 3.051260 0.000000 
#    z 0.000000 0.000000 3.537330 
# 
# 
# High freq. dielectric constant tensor:
#      x y z
#    x 1.627960 0.000000 0.000000 
#    y 0.000000 1.649820 0.000000 
#    z 0.000000 0.000000 1.666600 
# 
# From -- ./inp_files/75808.got.cif
#   From: 2010.03.12/outbox.cif.g09.slc.cpg/sg65_38_cif.got.tgz:75808.got - 2010.04.10 20:52:16.
