data_PCOD8266941
_publ_section_title
;
Structure prediction by ZEFSAII (Michael W. Deem and Ramdas Pophale) SiO2 
 PCOD8266941
Probable space group: C M M M
;
_chemical_formula_sum "Si O2"
_cell_formula_units_Z 64
_cell_length_a 14.442427
_cell_length_b 8.456727
_cell_length_c 26.465222
_cell_angle_alpha 90.000000
_cell_angle_beta 90.000000
_cell_angle_gamma 90.000000
_cell_volume 3232.347418
_symmetry_space_group_name_H-M "C M M M"
_symmetry_group_IT_number 65
_symmetry_cell_setting 'orthorhombic'
loop_
_space_group_symop_operation_xyz
x,y,z
-x,-y,z
x,-y,-z
-x,y,-z
-x,-y,-z
x,y,-z
-x,y,z
x,-y,z
1/2+x,1/2+y,z
1/2-x,1/2-y,z
1/2+x,1/2-y,-z
1/2-x,1/2+y,-z
1/2-x,1/2-y,-z
1/2+x,1/2+y,-z
1/2-x,1/2+y,z
1/2+x,1/2-y,z
loop_
_atom_site_type_symbol
_atom_site_label
_atom_site_fract_x
_atom_site_fract_y
_atom_site_fract_z
Si Si1 0.853735 0.687782 0.603996
Si Si2 0.000000 0.315549 0.209634
Si Si3 0.853095 0.186426 0.136066
Si Si4 0.646308 0.688281 0.500000
Si Si5 0.500000 0.312245 0.056187
Si Si6 0.500000 0.685490 0.320285
O O1 0.857618 0.500000 0.607882
O O2 0.750000 0.750000 0.607949
O O3 0.900536 0.743839 0.550950
O O4 0.908735 0.765592 0.649590
O O5 0.906638 0.244291 0.185730
O O6 0.000000 0.279856 0.268457
O O7 0.000000 0.500000 0.199623
O O8 0.750000 0.250000 0.134429
O O9 0.908576 0.245475 0.086245
O O10 0.849848 0.000000 0.138053
O O11 0.641064 0.500000 0.500000
O O12 0.750000 0.750000 0.500000
O O13 0.500000 0.500000 0.052797
O O14 0.500000 0.237211 0.000000
O O15 0.500000 0.500000 0.309472
#
# Coordination Sequence:
#
# PCOD8266941 Si02
#       6
#    16   8  16   8   8   8
#     4  11  22  39  60  86 116 150 188 231 282 340
#     4  11  23  41  61  83 111 145 188 240 292 342
#     4  10  20  36  59  86 116 154 197 239 285 338
#     4  10  18  33  56  83 113 150 188 229 279 335
#     4   8  16  32  54  83 122 161 196 238 285 332
#     4  12  25  42  61  86 115 146 186 235 289 346
#
# _framework density 19.799852000000001
#
# number of rings (size 3 to 8) (size 9 to 14) (size 15 to 20)
#    0.000    1.625    0.000    8.625    0.000    2.000 
#    0.000    7.500    0.000   12.750    0.000    0.000 
#    0.000    0.000    0.000    0.000    0.000    0.000 
#
# Total GULP energy -396789.170348 kJ/mol
# GULP energy per Si atom -12399.661573 kJ/mol
# Density = 1.975479 g / cm^3
# Si number density = 19.799852 Si / 1000 Ang^3
#
#
#
# Elastic Constant Matrix: (Units=GPa)
#
#
# Indices 1 2 3 4 5 6 
#
# 1 144.4928 25.6442 63.5279 0.0000 0.0000 0.0000
# 2 25.6442 91.5755 2.6034 0.0000 0.0000 0.0000
# 3 63.5279 2.6034 147.1185 0.0000 0.0000 0.0000
# 4 0.0000 0.0000 0.0000 25.8062 0.0000 0.0000
# 5 0.0000 0.0000 0.0000 0.0000 23.6949 0.0000
# 6 0.0000 0.0000 0.0000 0.0000 0.0000 29.6663
#
#
#
# Elastic Compliance Matrix: (Units=1/GPa)
#
#
# Indices 1 2 3 4 5 6 
#
# 1 0.009050 -0.002425 -0.003865 0.000000 0.000000 0.000000
# 2 -0.002425 0.011575 0.000842 0.000000 0.000000 0.000000
# 3 -0.003865 0.000842 0.008451 0.000000 0.000000 0.000000
# 4 0.000000 0.000000 0.000000 0.038750 0.000000 0.000000
# 5 0.000000 0.000000 0.000000 0.000000 0.042203 0.000000
# 6 0.000000 0.000000 0.000000 0.000000 0.000000 0.033708
#
#
# Mechanical properties :
#
#
# Convention : Reuss Voigt Hill
#
# Bulk Modulus (GPa) = 55.00083 62.97086 58.98585
# Shear Modulus (GPa) = 31.11496 35.26090 33.18793
#
# Velocity S-wave (km/s) = 3.96848 4.22461 4.09855
# Velocity P-wave (km/s) = 6.98836 7.46118 7.22864
#
# Compressibility (1/GPa) = 0.01818154
#
# Stress axis : x y z
#
# Youngs Moduli (GPa) = 110.49183 86.39340 118.32364
#
# Poissons Ratio (x) = 0.20946 0.45735
# Poissons Ratio (y) = 0.26789 -0.09964
# Poissons Ratio (z) = 0.42707 -0.07275
#
# Static dielectric constant tensor:
#      x y z
#    x 3.618720 0.000000 0.000000 
#    y 0.000000 3.648880 0.000000 
#    z 0.000000 0.000000 4.089700 
# 
# 
# High freq. dielectric constant tensor:
#      x y z
#    x 1.773320 0.000000 0.000000 
#    y 0.000000 1.780890 0.000000 
#    z 0.000000 0.000000 1.778770 
# 
# From -- ./inp_files/69604.got.cif
#   From: 2010.03.12/outbox.cif.g09.slc.cpg/sg65_35_cif.got.tgz:69604.got - 2010.04.10 20:52:16.
