data_PCOD8266860
_publ_section_title
;
Structure prediction by ZEFSAII (Michael W. Deem and Ramdas Pophale) SiO2 
 PCOD8266860
Probable space group: C M M M
;
_chemical_formula_sum "Si O2"
_cell_formula_units_Z 104
_cell_length_a 26.624111
_cell_length_b 9.164483
_cell_length_c 24.490339
_cell_angle_alpha 90.000000
_cell_angle_beta 90.000000
_cell_angle_gamma 90.000000
_cell_volume 5975.549963
_symmetry_space_group_name_H-M "C M M M"
_symmetry_group_IT_number 65
_symmetry_cell_setting 'orthorhombic'
loop_
_space_group_symop_operation_xyz
x,y,z
-x,-y,z
x,-y,-z
-x,y,-z
-x,-y,-z
x,y,-z
-x,y,z
x,-y,z
1/2+x,1/2+y,z
1/2-x,1/2-y,z
1/2+x,1/2-y,-z
1/2-x,1/2+y,-z
1/2-x,1/2-y,-z
1/2+x,1/2+y,-z
1/2-x,1/2+y,z
1/2+x,1/2-y,z
loop_
_atom_site_type_symbol
_atom_site_label
_atom_site_fract_x
_atom_site_fract_y
_atom_site_fract_z
Si Si1 0.500000 0.332728 0.564541
Si Si2 0.395677 0.670942 0.937988
Si Si3 0.058029 0.659949 0.153660
Si Si4 0.300144 0.829738 0.563391
Si Si5 0.904759 0.326899 0.615591
Si Si6 0.703413 0.162268 0.935266
Si Si7 0.555769 0.172554 0.270700
O O1 0.500000 0.500000 0.585495
O O2 0.500000 0.326711 0.500000
O O3 0.550336 0.252430 0.584253
O O4 0.387396 0.500000 0.933115
O O5 0.437349 0.726231 0.896046
O O6 0.345704 0.750701 0.918114
O O7 0.410798 0.713696 0.000000
O O8 0.081233 0.500000 0.138271
O O9 0.079438 0.722180 0.211735
O O10 0.000000 0.638521 0.165395
O O11 0.308179 0.792538 0.500000
O O12 0.250000 0.750000 0.585809
O O13 0.350206 0.774121 0.594462
O O14 0.291976 0.000000 0.573501
O O15 0.911397 0.500000 0.606458
O O16 0.907854 0.282197 0.679617
O O17 0.750000 0.250000 0.909888
O O18 0.702036 0.000000 0.910206
O O19 0.708481 0.153933 0.000000
O O20 0.500000 0.240049 0.281159
O O21 0.550831 0.000000 0.268215
#
# Coordination Sequence:
#
# PCOD8266860 Si02
#       7
#     8  16  16  16  16  16  16
#     4  11  23  33  43  71 113 143 160 193 254 309
#     4  10  20  32  46  67  96 127 160 198 241 290
#     4   9  18  32  50  70  93 123 161 201 244 298
#     4   9  18  31  48  72 100 133 173 211 248 292
#     4  10  18  32  55  76  96 129 174 215 248 297
#     4   9  16  27  45  68  93 120 150 185 229 283
#     4   8  14  28  51  75  94 117 156 204 249 293
#
# _framework density 17.404257000000001
#
# number of rings (size 3 to 8) (size 9 to 14) (size 15 to 20)
#    0.000    2.692    0.769    2.538    0.000    5.231 
#    0.000    3.846    0.000    0.923    0.000    2.154 
#    0.000    0.000    0.000    0.000    0.000    0.000 
#
# Total GULP energy -644402.271862 kJ/mol
# GULP energy per Si atom -12392.351382 kJ/mol
# Density = 1.736464 g / cm^3
# Si number density = 17.404257 Si / 1000 Ang^3
#
#
#
# Elastic Constant Matrix: (Units=GPa)
#
#
# Indices 1 2 3 4 5 6 
#
# 1 103.5895 38.4488 51.6257 0.0000 0.0000 0.0000
# 2 38.4488 70.3940 38.4241 0.0000 0.0000 0.0000
# 3 51.6257 38.4241 101.7364 0.0000 0.0000 0.0000
# 4 0.0000 0.0000 0.0000 14.3814 0.0000 0.0000
# 5 0.0000 0.0000 0.0000 0.0000 19.3675 0.0000
# 6 0.0000 0.0000 0.0000 0.0000 0.0000 27.9745
#
#
#
# Elastic Compliance Matrix: (Units=1/GPa)
#
#
# Indices 1 2 3 4 5 6 
#
# 1 0.014091 -0.004779 -0.005346 0.000000 0.000000 0.000000
# 2 -0.004779 0.019515 -0.004946 0.000000 0.000000 0.000000
# 3 -0.005346 -0.004946 0.014410 0.000000 0.000000 0.000000
# 4 0.000000 0.000000 0.000000 0.069534 0.000000 0.000000
# 5 0.000000 0.000000 0.000000 0.000000 0.051633 0.000000
# 6 0.000000 0.000000 0.000000 0.000000 0.000000 0.035747
#
#
# Mechanical properties :
#
#
# Convention : Reuss Voigt Hill
#
# Bulk Modulus (GPa) = 55.93974 59.19077 57.56525
# Shear Modulus (GPa) = 20.74433 22.15944 21.45188
#
# Velocity S-wave (km/s) = 3.45615 3.57209 3.51460
# Velocity P-wave (km/s) = 6.93814 7.14817 7.04394
#
# Compressibility (1/GPa) = 0.01787638
#
# Stress axis : x y z
#
# Youngs Moduli (GPa) = 70.96579 51.24151 69.39665
#
# Poissons Ratio (x) = 0.24486 0.37098
# Poissons Ratio (y) = 0.33912 0.34322
# Poissons Ratio (z) = 0.37937 0.25343
#
# Static dielectric constant tensor:
#      x y z
#    x 3.200780 0.000000 0.000000 
#    y 0.000000 3.269370 0.000000 
#    z 0.000000 0.000000 3.338360 
# 
# 
# High freq. dielectric constant tensor:
#      x y z
#    x 1.659360 0.000000 0.000000 
#    y 0.000000 1.659620 0.000000 
#    z 0.000000 0.000000 1.659680 
# 
# From -- ./inp_files/71785.got.cif
#   From: 2010.03.12/outbox.cif.g09.slc.cpg/sg65_36_cif.got.tgz:71785.got - 2010.04.10 20:52:16.
