data_PCOD8266656
_publ_section_title
;
Structure prediction by ZEFSAII (Michael W. Deem and Ramdas Pophale) SiO2 
 PCOD8266656
Probable space group: C M M M
;
_chemical_formula_sum "Si O2"
_cell_formula_units_Z 72
_cell_length_a 28.164384
_cell_length_b 17.349545
_cell_length_c 8.017543
_cell_angle_alpha 90.000000
_cell_angle_beta 90.000000
_cell_angle_gamma 90.000000
_cell_volume 3917.686179
_symmetry_space_group_name_H-M "C M M M"
_symmetry_group_IT_number 65
_symmetry_cell_setting 'orthorhombic'
loop_
_space_group_symop_operation_xyz
x,y,z
-x,-y,z
x,-y,-z
-x,y,-z
-x,-y,-z
x,y,-z
-x,y,z
x,-y,z
1/2+x,1/2+y,z
1/2-x,1/2-y,z
1/2+x,1/2-y,-z
1/2-x,1/2+y,-z
1/2-x,1/2-y,-z
1/2+x,1/2+y,-z
1/2-x,1/2+y,z
1/2+x,1/2-y,z
loop_
_atom_site_type_symbol
_atom_site_label
_atom_site_fract_x
_atom_site_fract_y
_atom_site_fract_z
Si Si1 0.215035 0.178645 0.684969
Si Si2 0.056000 0.085407 0.000000
Si Si3 0.298378 0.914560 0.196410
Si Si4 0.863724 0.721339 0.808808
Si Si5 0.445522 0.311365 0.688179
O O1 0.197027 0.157696 0.500000
O O2 0.250000 0.250000 0.681849
O O3 0.244017 0.106554 0.759038
O O4 0.169544 0.202332 0.794952
O O5 0.071952 0.128357 0.170230
O O6 0.000000 0.077996 0.000000
O O7 0.078993 0.000000 0.000000
O O8 0.336541 0.853115 0.269888
O O9 0.309464 0.000000 0.267312
O O10 0.303291 0.912854 0.000000
O O11 0.912409 0.735625 0.707100
O O12 0.876913 0.707055 0.000000
O O13 0.439977 0.345591 0.500000
O O14 0.500000 0.286782 0.719875
#
# Coordination Sequence:
#
# PCOD8266656 Si02
#       5
#    16   8  16  16  16
#     4   9  17  29  46  69  96 127 166 210 256 309
#     4   9  18  34  54  76 102 131 167 211 260 310
#     4   9  18  32  50  74 103 134 171 216 264 312
#     4  10  18  31  53  75 100 137 177 216 260 311
#     4  10  20  34  54  80 108 139 177 219 260 307
#
# _framework density 18.378195999999999
#
# number of rings (size 3 to 8) (size 9 to 14) (size 15 to 20)
#    0.000    2.556    1.111    1.333    0.000    4.444 
#    0.000    3.333    0.000    3.333    0.000    4.667 
#    0.000    0.000    0.000    0.000    0.000    0.000 
#
# Total GULP energy -446114.489293 kJ/mol
# GULP energy per Si atom -12392.069147 kJ/mol
# Density = 1.833637 g / cm^3
# Si number density = 18.378196 Si / 1000 Ang^3
#
#
#
# Elastic Constant Matrix: (Units=GPa)
#
#
# Indices 1 2 3 4 5 6 
#
# 1 87.6086 51.2050 26.1162 0.0000 0.0000 0.0000
# 2 51.2050 110.3046 33.6230 0.0000 0.0000 0.0000
# 3 26.1162 33.6230 83.4114 0.0000 0.0000 0.0000
# 4 0.0000 0.0000 0.0000 13.2163 0.0000 0.0000
# 5 0.0000 0.0000 0.0000 0.0000 25.5543 0.0000
# 6 0.0000 0.0000 0.0000 0.0000 0.0000 19.8120
#
#
#
# Elastic Compliance Matrix: (Units=1/GPa)
#
#
# Indices 1 2 3 4 5 6 
#
# 1 0.016044 -0.006745 -0.002304 0.000000 0.000000 0.000000
# 2 -0.006745 0.013172 -0.003198 0.000000 0.000000 0.000000
# 3 -0.002304 -0.003198 0.013999 0.000000 0.000000 0.000000
# 4 0.000000 0.000000 0.000000 0.075664 0.000000 0.000000
# 5 0.000000 0.000000 0.000000 0.000000 0.039132 0.000000
# 6 0.000000 0.000000 0.000000 0.000000 0.000000 0.050474
#
#
# Mechanical properties :
#
#
# Convention : Reuss Voigt Hill
#
# Bulk Modulus (GPa) = 53.41778 55.91254 54.66516
# Shear Modulus (GPa) = 20.90124 23.07521 21.98822
#
# Velocity S-wave (km/s) = 3.37602 3.54725 3.46270
# Velocity P-wave (km/s) = 6.65775 6.87508 6.76729
#
# Compressibility (1/GPa) = 0.01872036
#
# Stress axis : x y z
#
# Youngs Moduli (GPa) = 62.32930 75.91985 71.43288
#
# Poissons Ratio (x) = 0.51211 0.16460
# Poissons Ratio (y) = 0.42044 0.22841
# Poissons Ratio (z) = 0.14362 0.24276
#
# Static dielectric constant tensor:
#      x y z
#    x 3.436890 0.000000 0.000000 
#    y 0.000000 3.530270 0.000000 
#    z 0.000000 0.000000 3.468460 
# 
# 
# High freq. dielectric constant tensor:
#      x y z
#    x 1.700120 0.000000 0.000000 
#    y 0.000000 1.680060 0.000000 
#    z 0.000000 0.000000 1.718560 
# 
# From -- ./inp_files/15985.got.cif
#   From: 2010.03.12/outbox.cif.g09.slc.cpg/sg65_8_cif.got.tgz:15985.got - 2010.04.10 20:52:16.
