data_PCOD8266934
_publ_section_title
;
Structure prediction by ZEFSAII (Michael W. Deem and Ramdas Pophale) SiO2 
 PCOD8266934
Probable space group: C M M M
;
_chemical_formula_sum "Si O2"
_cell_formula_units_Z 88
_cell_length_a 8.902225
_cell_length_b 23.602709
_cell_length_c 22.890432
_cell_angle_alpha 90.000000
_cell_angle_beta 90.000000
_cell_angle_gamma 90.000000
_cell_volume 4809.660342
_symmetry_space_group_name_H-M "C M M M"
_symmetry_group_IT_number 65
_symmetry_cell_setting 'orthorhombic'
loop_
_space_group_symop_operation_xyz
x,y,z
-x,-y,z
x,-y,-z
-x,y,-z
-x,-y,-z
x,y,-z
-x,y,z
x,-y,z
1/2+x,1/2+y,z
1/2-x,1/2-y,z
1/2+x,1/2-y,-z
1/2-x,1/2+y,-z
1/2-x,1/2-y,-z
1/2+x,1/2+y,-z
1/2-x,1/2+y,z
1/2+x,1/2-y,z
loop_
_atom_site_type_symbol
_atom_site_label
_atom_site_fract_x
_atom_site_fract_y
_atom_site_fract_z
Si Si1 0.178534 0.811134 0.284452
Si Si2 0.322610 0.065067 0.500000
Si Si3 0.677301 0.383873 0.171532
Si Si4 0.678426 0.887533 0.622500
Si Si5 0.823076 0.500000 0.317862
Si Si6 0.324687 0.690296 0.935498
Si Si7 0.177146 0.500000 0.813864
O O1 0.250000 0.750000 0.272363
O O2 0.228802 0.852983 0.231586
O O3 0.239348 0.834680 0.346601
O O4 0.000000 0.804881 0.287264
O O5 0.500000 0.057177 0.500000
O O6 0.273116 0.103514 0.555152
O O7 0.255721 0.000000 0.500000
O O8 0.500000 0.392399 0.171777
O O9 0.736036 0.349372 0.115704
O O10 0.754931 0.443622 0.159046
O O11 0.500000 0.879116 0.629543
O O12 0.741885 0.943901 0.652951
O O13 0.769077 0.500000 0.252380
O O14 0.000000 0.500000 0.326282
O O15 0.500000 0.699577 0.928093
O O16 0.250000 0.750000 0.926468
O O17 0.286345 0.665144 0.000000
O O18 0.000000 0.500000 0.821788
#
# Coordination Sequence:
#
# PCOD8266934 Si02
#       7
#    16   8  16  16   8  16   8
#     4  11  23  37  54  77 105 139 176 217 264 312
#     4   9  16  28  54  85 108 135 172 212 257 310
#     4  10  21  36  54  79 110 140 173 216 266 316
#     4  10  18  33  55  81 110 137 172 215 259 311
#     4   9  16  28  51  79 106 135 167 208 255 305
#     4   9  18  34  56  80 106 139 179 221 265 312
#     4  11  21  33  53  82 109 141 178 213 259 313
#
# _framework density 18.296510000000001
#
# number of rings (size 3 to 8) (size 9 to 14) (size 15 to 20)
#    0.000    2.091    2.727    1.364    0.000    1.455 
#    0.000    1.818    0.000    3.273    0.000    0.000 
#    0.000    0.000    0.000    0.000    0.000    0.000 
#
# Total GULP energy -545399.537670 kJ/mol
# GULP energy per Si atom -12395.444038 kJ/mol
# Density = 1.825487 g / cm^3
# Si number density = 18.296510 Si / 1000 Ang^3
#
#
#
# Elastic Constant Matrix: (Units=GPa)
#
#
# Indices 1 2 3 4 5 6 
#
# 1 38.8437 32.5106 38.4236 0.0000 0.0000 0.0000
# 2 32.5106 106.7318 67.2520 0.0000 0.0000 0.0000
# 3 38.4236 67.2520 135.2508 0.0000 0.0000 0.0000
# 4 0.0000 0.0000 0.0000 43.7925 0.0000 0.0000
# 5 0.0000 0.0000 0.0000 0.0000 21.0013 0.0000
# 6 0.0000 0.0000 0.0000 0.0000 0.0000 24.8723
#
#
#
# Elastic Compliance Matrix: (Units=1/GPa)
#
#
# Indices 1 2 3 4 5 6 
#
# 1 0.039252 -0.007179 -0.007581 0.000000 0.000000 0.000000
# 2 -0.007179 0.014957 -0.005398 0.000000 0.000000 0.000000
# 3 -0.007581 -0.005398 0.012231 0.000000 0.000000 0.000000
# 4 0.000000 0.000000 0.000000 0.022835 0.000000 0.000000
# 5 0.000000 0.000000 0.000000 0.000000 0.047616 0.000000
# 6 0.000000 0.000000 0.000000 0.000000 0.000000 0.040205
#
#
# Mechanical properties :
#
#
# Convention : Reuss Voigt Hill
#
# Bulk Modulus (GPa) = 38.27869 61.91096 50.09482
# Shear Modulus (GPa) = 22.11191 27.44257 24.77724
#
# Velocity S-wave (km/s) = 3.48017 3.87703 3.68395
# Velocity P-wave (km/s) = 6.09225 7.34526 6.74790
#
# Compressibility (1/GPa) = 0.02612420
#
# Stress axis : x y z
#
# Youngs Moduli (GPa) = 25.47615 66.85730 81.75627
#
# Poissons Ratio (x) = 0.47998 0.61983
# Poissons Ratio (y) = 0.18290 0.44130
# Poissons Ratio (z) = 0.19315 0.36088
#
# Static dielectric constant tensor:
#      x y z
#    x 3.110040 0.000000 0.000000 
#    y 0.000000 3.364570 0.000000 
#    z 0.000000 0.000000 3.685390 
# 
# 
# High freq. dielectric constant tensor:
#      x y z
#    x 1.687520 0.000000 0.000000 
#    y 0.000000 1.706330 0.000000 
#    z 0.000000 0.000000 1.716140 
# 
# From -- ./inp_files/67605.got.cif
#   From: 2010.03.12/outbox.cif.g09.slc.cpg/sg65_34_cif.got.tgz:67605.got - 2010.04.10 20:52:16.
