data_PCOD8266454
_publ_section_title
;
Structure prediction by ZEFSAII (Michael W. Deem and Ramdas Pophale) SiO2 
 PCOD8266454
Probable space group: C M M M
;
_chemical_formula_sum "Si O2"
_cell_formula_units_Z 96
_cell_length_a 22.560098
_cell_length_b 18.944713
_cell_length_c 12.915167
_cell_angle_alpha 90.000000
_cell_angle_beta 90.000000
_cell_angle_gamma 90.000000
_cell_volume 5519.872400
_symmetry_space_group_name_H-M "C M M M"
_symmetry_group_IT_number 65
_symmetry_cell_setting 'orthorhombic'
loop_
_space_group_symop_operation_xyz
x,y,z
-x,-y,z
x,-y,-z
-x,y,-z
-x,-y,-z
x,y,-z
-x,y,z
x,-y,z
1/2+x,1/2+y,z
1/2-x,1/2-y,z
1/2+x,1/2-y,-z
1/2-x,1/2+y,-z
1/2-x,1/2-y,-z
1/2+x,1/2+y,-z
1/2-x,1/2+y,z
1/2+x,1/2-y,z
loop_
_atom_site_type_symbol
_atom_site_label
_atom_site_fract_x
_atom_site_fract_y
_atom_site_fract_z
Si Si1 0.386226 0.083386 0.254817
Si Si2 0.430655 0.343774 0.205386
Si Si3 0.429633 0.419716 0.000000
Si Si4 0.068459 0.304921 0.116597
Si Si5 0.500000 0.083265 0.385526
Si Si6 0.142604 0.917901 0.379006
Si Si7 0.224036 0.583247 0.613547
O O1 0.392749 0.127060 0.148863
O O2 0.440759 0.107524 0.327184
O O3 0.325212 0.109952 0.306373
O O4 0.386783 0.000000 0.230828
O O5 0.500000 0.359779 0.216935
O O6 0.418213 0.260746 0.191979
O O7 0.399871 0.370149 0.309792
O O8 0.404608 0.383512 0.104142
O O9 0.408128 0.500000 0.000000
O O10 0.500000 0.411663 0.000000
O O11 0.000000 0.326730 0.122537
O O12 0.085710 0.283269 0.000000
O O13 0.500000 0.117497 0.500000
O O14 0.500000 0.000000 0.395335
O O15 0.130625 0.902249 0.500000
O O16 0.210002 0.896987 0.349016
O O17 0.130474 0.000000 0.355060
O O18 0.211808 0.616590 0.500000
O O19 0.218369 0.500000 0.602806
#
# Coordination Sequence:
#
# PCOD8266454 Si02
#       7
#    16  16   8  16   8  16  16
#     4  10  18  30  51  77 100 130 171 214 254 297
#     4  10  19  33  52  74 103 137 168 208 259 305
#     4   9  16  28  50  78  96 119 167 214 248 295
#     4  10  20  35  52  70 100 139 171 209 263 311
#     4   9  16  26  43  73 105 123 150 207 262 295
#     4   9  18  33  54  79 106 136 168 204 251 309
#     4   8  15  30  52  75 101 135 169 203 249 302
#
# _framework density 17.391705999999999
#
# number of rings (size 3 to 8) (size 9 to 14) (size 15 to 20)
#    0.000    2.667    1.667    2.000    0.000    3.667 
#    0.000    4.167    1.833    3.000    0.000    0.000 
#    0.000    0.000    0.000    0.000    0.000    0.000 
#
# Total GULP energy -595039.351772 kJ/mol
# GULP energy per Si atom -12396.653162 kJ/mol
# Density = 1.735212 g / cm^3
# Si number density = 17.391706 Si / 1000 Ang^3
#
#
#
# Elastic Constant Matrix: (Units=GPa)
#
#
# Indices 1 2 3 4 5 6 
#
# 1 84.4056 39.1470 56.9413 0.0000 0.0000 0.0000
# 2 39.1470 70.0121 49.4417 0.0000 0.0000 0.0000
# 3 56.9413 49.4417 103.0965 0.0000 0.0000 0.0000
# 4 0.0000 0.0000 0.0000 28.7459 0.0000 0.0000
# 5 0.0000 0.0000 0.0000 0.0000 22.5551 0.0000
# 6 0.0000 0.0000 0.0000 0.0000 0.0000 15.9642
#
#
#
# Elastic Compliance Matrix: (Units=1/GPa)
#
#
# Indices 1 2 3 4 5 6 
#
# 1 0.020029 -0.005122 -0.008606 0.000000 0.000000 0.000000
# 2 -0.005122 0.022907 -0.008157 0.000000 0.000000 0.000000
# 3 -0.008606 -0.008157 0.018365 0.000000 0.000000 0.000000
# 4 0.000000 0.000000 0.000000 0.034788 0.000000 0.000000
# 5 0.000000 0.000000 0.000000 0.000000 0.044336 0.000000
# 6 0.000000 0.000000 0.000000 0.000000 0.000000 0.062640
#
#
# Mechanical properties :
#
#
# Convention : Reuss Voigt Hill
#
# Bulk Modulus (GPa) = 57.03936 60.95271 58.99603
# Shear Modulus (GPa) = 19.78815 20.91864 20.35340
#
# Velocity S-wave (km/s) = 3.37678 3.47189 3.42467
# Velocity P-wave (km/s) = 6.93337 7.15508 7.04510
#
# Compressibility (1/GPa) = 0.01753175
#
# Stress axis : x y z
#
# Youngs Moduli (GPa) = 49.92871 43.65439 54.45282
#
# Poissons Ratio (x) = 0.22358 0.46861
# Poissons Ratio (y) = 0.25571 0.44416
# Poissons Ratio (z) = 0.42968 0.35608
#
# Static dielectric constant tensor:
#      x y z
#    x 3.197050 0.000000 0.000000 
#    y 0.000000 2.979540 0.000000 
#    z 0.000000 0.000000 3.328070 
# 
# 
# High freq. dielectric constant tensor:
#      x y z
#    x 1.652390 0.000000 0.000000 
#    y 0.000000 1.651060 0.000000 
#    z 0.000000 0.000000 1.671100 
# 
# From -- ./inp_files/30844.got.cif
#   From: 2010.03.12/outbox.cif.g09.slc.cpg/sg65_16_cif.got.tgz:30844.got - 2010.04.10 20:52:16.
