data_PCOD8266909
_publ_section_title
;
Structure prediction by ZEFSAII (Michael W. Deem and Ramdas Pophale) SiO2 
 PCOD8266909
Probable space group: C M M M
;
_chemical_formula_sum "Si O2"
_cell_formula_units_Z 96
_cell_length_a 13.186371
_cell_length_b 31.939676
_cell_length_c 12.885568
_cell_angle_alpha 90.000000
_cell_angle_beta 90.000000
_cell_angle_gamma 90.000000
_cell_volume 5426.994281
_symmetry_space_group_name_H-M "C M M M"
_symmetry_group_IT_number 65
_symmetry_cell_setting 'orthorhombic'
loop_
_space_group_symop_operation_xyz
x,y,z
-x,-y,z
x,-y,-z
-x,y,-z
-x,-y,-z
x,y,-z
-x,y,z
x,-y,z
1/2+x,1/2+y,z
1/2-x,1/2-y,z
1/2+x,1/2-y,-z
1/2-x,1/2+y,-z
1/2-x,1/2-y,-z
1/2+x,1/2+y,-z
1/2-x,1/2+y,z
1/2+x,1/2-y,z
loop_
_atom_site_type_symbol
_atom_site_label
_atom_site_fract_x
_atom_site_fract_y
_atom_site_fract_z
Si Si1 0.118940 0.500000 0.376263
Si Si2 0.307539 0.708156 0.234099
Si Si3 0.203697 0.412846 0.316756
Si Si4 0.000000 0.666944 0.162087
Si Si5 0.000000 0.364535 0.619642
Si Si6 0.500000 0.738566 0.884418
Si Si7 0.613711 0.361260 0.617410
Si Si8 0.793298 0.635278 0.115968
O O1 0.126834 0.500000 0.500000
O O2 0.180769 0.461541 0.327916
O O3 0.000000 0.500000 0.342814
O O4 0.250000 0.750000 0.272802
O O5 0.404621 0.721694 0.173571
O O6 0.336888 0.679537 0.330842
O O7 0.242589 0.680923 0.153958
O O8 0.103361 0.390575 0.363557
O O9 0.307163 0.400031 0.376424
O O10 0.232111 0.401682 0.197139
O O11 0.000000 0.670908 0.289791
O O12 0.912656 0.638622 0.115504
O O13 0.000000 0.711864 0.111734
O O14 0.000000 0.347230 0.500000
O O15 0.500000 0.720481 0.000000
O O16 0.599670 0.348190 0.500000
O O17 0.500000 0.372114 0.662864
O O18 0.751401 0.624922 0.000000
#
# Coordination Sequence:
#
# PCOD8266909 Si02
#       8
#     8  16  16   8   8   8  16  16
#     4  11  20  34  58  88 120 143 170 223 279 327
#     4  11  22  35  53  79 106 139 193 235 270 324
#     4  10  21  35  57  84 111 142 185 221 267 336
#     4  10  20  30  47  75 104 140 181 222 271 330
#     4  10  18  33  52  77 110 143 180 222 269 326
#     4  12  22  34  50  73 107 139 181 235 280 315
#     4  10  21  39  58  77 112 152 183 226 280 330
#     4  10  20  35  53  74 106 147 182 224 272 317
#
# _framework density 17.689350000000001
#
# number of rings (size 3 to 8) (size 9 to 14) (size 15 to 20)
#    0.000    1.583    3.333    2.750    0.000    1.000 
#    0.000    1.667    0.000    2.000    0.000    0.000 
#    0.000    3.000    0.000    0.000    0.000    0.000 
#
# Total GULP energy -594702.362573 kJ/mol
# GULP energy per Si atom -12389.632554 kJ/mol
# Density = 1.764909 g / cm^3
# Si number density = 17.689350 Si / 1000 Ang^3
#
#
#
# Elastic Constant Matrix: (Units=GPa)
#
#
# Indices 1 2 3 4 5 6 
#
# 1 118.8601 41.2317 20.0832 0.0000 0.0000 0.0000
# 2 41.2317 101.9995 30.4837 0.0000 0.0000 0.0000
# 3 20.0832 30.4837 100.4999 0.0000 0.0000 0.0000
# 4 0.0000 0.0000 0.0000 17.1103 0.0000 0.0000
# 5 0.0000 0.0000 0.0000 0.0000 36.4359 0.0000
# 6 0.0000 0.0000 0.0000 0.0000 0.0000 29.1060
#
#
#
# Elastic Compliance Matrix: (Units=1/GPa)
#
#
# Indices 1 2 3 4 5 6 
#
# 1 0.009849 -0.003731 -0.000836 0.000000 0.000000 0.000000
# 2 -0.003731 0.012195 -0.002953 0.000000 0.000000 0.000000
# 3 -0.000836 -0.002953 0.011013 0.000000 0.000000 0.000000
# 4 0.000000 0.000000 0.000000 0.058444 0.000000 0.000000
# 5 0.000000 0.000000 0.000000 0.000000 0.027445 0.000000
# 6 0.000000 0.000000 0.000000 0.000000 0.000000 0.034357
#
#
# Mechanical properties :
#
#
# Convention : Reuss Voigt Hill
#
# Bulk Modulus (GPa) = 55.50916 56.10629 55.80773
# Shear Modulus (GPa) = 28.67777 31.83450 30.25613
#
# Velocity S-wave (km/s) = 4.03077 4.24682 4.14020
# Velocity P-wave (km/s) = 7.28772 7.47220 7.38054
#
# Compressibility (1/GPa) = 0.01801505
#
# Stress axis : x y z
#
# Youngs Moduli (GPa) = 101.53379 82.00122 90.80012
#
# Poissons Ratio (x) = 0.30597 0.07594
# Poissons Ratio (y) = 0.37886 0.26816
# Poissons Ratio (z) = 0.08492 0.24218
#
# Static dielectric constant tensor:
#      x y z
#    x 3.592730 0.000000 0.000000 
#    y 0.000000 3.509520 0.000000 
#    z 0.000000 0.000000 3.437430 
# 
# 
# High freq. dielectric constant tensor:
#      x y z
#    x 1.699000 0.000000 0.000000 
#    y 0.000000 1.652920 0.000000 
#    z 0.000000 0.000000 1.686900 
# 
# From -- ./inp_files/25502.got.cif
#   From: 2010.03.12/outbox.cif.g09.slc.cpg/sg65_13_cif.got.tgz:25502.got - 2010.04.10 20:52:16.
