data_PCOD8266766
_publ_section_title
;
Structure prediction by ZEFSAII (Michael W. Deem and Ramdas Pophale) SiO2 
 PCOD8266766
Probable space group: C M M M
;
_chemical_formula_sum "Si O2"
_cell_formula_units_Z 64
_cell_length_a 28.849324
_cell_length_b 8.504269
_cell_length_c 15.642998
_cell_angle_alpha 90.000000
_cell_angle_beta 90.000000
_cell_angle_gamma 90.000000
_cell_volume 3837.890857
_symmetry_space_group_name_H-M "C M M M"
_symmetry_group_IT_number 65
_symmetry_cell_setting 'orthorhombic'
loop_
_space_group_symop_operation_xyz
x,y,z
-x,-y,z
x,-y,-z
-x,y,-z
-x,-y,-z
x,y,-z
-x,y,z
x,-y,z
1/2+x,1/2+y,z
1/2-x,1/2-y,z
1/2+x,1/2-y,-z
1/2-x,1/2+y,-z
1/2-x,1/2-y,-z
1/2+x,1/2+y,-z
1/2-x,1/2+y,z
1/2+x,1/2-y,z
loop_
_atom_site_type_symbol
_atom_site_label
_atom_site_fract_x
_atom_site_fract_y
_atom_site_fract_z
Si Si1 0.853767 0.686633 0.664934
Si Si2 0.801313 0.184630 0.174781
Si Si3 0.198378 0.812590 0.500000
Si Si4 0.801629 0.685607 0.000000
Si Si5 0.949484 0.686333 0.404409
O O1 0.848297 0.500000 0.672438
O O2 0.834895 0.768300 0.749117
O O3 0.826174 0.746079 0.583368
O O4 0.907529 0.741367 0.656361
O O5 0.750000 0.250000 0.191816
O O6 0.797081 0.000000 0.167523
O O7 0.824705 0.250948 0.087354
O O8 0.250000 0.750000 0.500000
O O9 0.197424 0.000000 0.500000
O O10 0.750000 0.750000 0.000000
O O11 0.802784 0.500000 0.000000
O O12 0.941862 0.754671 0.500000
O O13 0.948693 0.500000 0.410256
O O14 0.000000 0.743104 0.369097
#
# Coordination Sequence:
#
# PCOD8266766 Si02
#       5
#    16  16   8   8  16
#     4  11  20  33  51  73  98 129 166 204 243 289
#     4  11  21  34  50  72 101 133 166 203 244 291
#     4  12  24  36  47  64  95 133 170 203 241 288
#     4  10  18  32  52  74  97 126 163 204 246 289
#     4   8  14  27  49  74  96 122 160 205 247 287
#
# _framework density 16.675826000000001
#
# number of rings (size 3 to 8) (size 9 to 14) (size 15 to 20)
#    0.000    1.750    1.250    8.250    0.000    0.000 
#    0.000    0.000    0.000    3.750    0.000    0.875 
#    0.000    7.000    0.000    0.000    0.000    0.000 
#
# Total GULP energy -396638.428316 kJ/mol
# GULP energy per Si atom -12394.950885 kJ/mol
# Density = 1.663787 g / cm^3
# Si number density = 16.675826 Si / 1000 Ang^3
#
#
#
# Elastic Constant Matrix: (Units=GPa)
#
#
# Indices 1 2 3 4 5 6 
#
# 1 116.4027 29.0923 61.1250 0.0000 0.0000 0.0000
# 2 29.0923 108.4695 38.1629 0.0000 0.0000 0.0000
# 3 61.1250 38.1629 140.7465 0.0000 0.0000 0.0000
# 4 0.0000 0.0000 0.0000 30.9604 0.0000 0.0000
# 5 0.0000 0.0000 0.0000 0.0000 -16.8128 0.0000
# 6 0.0000 0.0000 0.0000 0.0000 0.0000 15.4183
#
#
#
# Elastic Compliance Matrix: (Units=1/GPa)
#
#
# Indices 1 2 3 4 5 6 
#
# 1 0.011330 -0.001446 -0.004529 0.000000 0.000000 0.000000
# 2 -0.001446 0.010376 -0.002186 0.000000 0.000000 0.000000
# 3 -0.004529 -0.002186 0.009664 0.000000 0.000000 0.000000
# 4 0.000000 0.000000 0.000000 0.032299 0.000000 0.000000
# 5 0.000000 0.000000 0.000000 0.000000 -0.059478 0.000000
# 6 0.000000 0.000000 0.000000 0.000000 0.000000 0.064858
#
#
# Mechanical properties :
#
#
# Convention : Reuss Voigt Hill
#
# Bulk Modulus (GPa) = 66.44146 69.15323 67.79735
# Shear Modulus (GPa) = 55.31848 21.72909 38.52378
#
# Velocity S-wave (km/s) = 5.76584 3.61367 4.81162
# Velocity P-wave (km/s) = 9.17911 7.67923 8.46246
#
# Compressibility (1/GPa) = 0.01505084
#
# Stress axis : x y z
#
# Youngs Moduli (GPa) = 88.25952 96.37772 103.47304
#
# Poissons Ratio (x) = 0.13932 0.46860
# Poissons Ratio (y) = 0.12758 0.22615
# Poissons Ratio (z) = 0.39970 0.21064
#
# Static dielectric constant tensor:
#      x y z
#    x 3.349900 0.000000 0.000000 
#    y 0.000000 3.154360 0.000000 
#    z 0.000000 0.000000 2.753500 
# 
# 
# High freq. dielectric constant tensor:
#      x y z
#    x 1.625640 0.000000 0.000000 
#    y 0.000000 1.644460 0.000000 
#    z 0.000000 0.000000 1.637900 
# 
# From -- ./inp_files/46386.got.cif
#   From: 2010.03.12/outbox.cif.g09.slc.cpg/sg65_24_cif.got.tgz:46386.got - 2010.04.10 20:52:16.
