data_PCOD8266700
_publ_section_title
;
Structure prediction by ZEFSAII (Michael W. Deem and Ramdas Pophale) SiO2 
 PCOD8266700
Probable space group: C M M M
;
_chemical_formula_sum "Si O2"
_cell_formula_units_Z 104
_cell_length_a 8.671647
_cell_length_b 23.475030
_cell_length_c 28.527488
_cell_angle_alpha 90.000000
_cell_angle_beta 90.000000
_cell_angle_gamma 90.000000
_cell_volume 5807.260098
_symmetry_space_group_name_H-M "C M M M"
_symmetry_group_IT_number 65
_symmetry_cell_setting 'orthorhombic'
loop_
_space_group_symop_operation_xyz
x,y,z
-x,-y,z
x,-y,-z
-x,y,-z
-x,-y,-z
x,y,-z
-x,y,z
x,-y,z
1/2+x,1/2+y,z
1/2-x,1/2-y,z
1/2+x,1/2-y,-z
1/2-x,1/2+y,-z
1/2-x,1/2-y,-z
1/2+x,1/2+y,-z
1/2-x,1/2+y,z
1/2+x,1/2-y,z
loop_
_atom_site_type_symbol
_atom_site_label
_atom_site_fract_x
_atom_site_fract_y
_atom_site_fract_z
Si Si1 0.318294 0.187721 0.450482
Si Si2 0.182878 0.381017 0.739054
Si Si3 0.181736 0.187449 0.825728
Si Si4 0.178535 0.000000 0.751591
Si Si5 0.182302 0.312232 0.650234
Si Si6 0.683942 0.065109 0.000000
Si Si7 0.176404 0.385739 0.096867
Si Si8 0.328646 0.000000 0.846061
O O1 0.267401 0.156365 0.500000
O O2 0.500000 0.193832 0.450227
O O3 0.250000 0.250000 0.451111
O O4 0.268187 0.159394 0.400550
O O5 0.253707 0.354498 0.785991
O O6 0.237539 0.445080 0.730819
O O7 0.246713 0.349033 0.693102
O O8 0.000000 0.378227 0.744058
O O9 0.250000 0.250000 0.818675
O O10 0.225139 0.162804 0.876936
O O11 0.000000 0.191168 0.820666
O O12 0.195789 0.000000 0.807566
O O13 0.000000 0.000000 0.737825
O O14 0.250000 0.250000 0.655560
O O15 0.000000 0.307902 0.653993
O O16 0.740808 0.101857 0.955275
O O17 0.500000 0.060359 0.000000
O O18 0.750401 0.000000 0.000000
O O19 0.192336 0.445247 0.122636
O O20 0.000000 0.364504 0.095675
O O21 0.500000 0.000000 0.822610
#
# Coordination Sequence:
#
# PCOD8266700 Si02
#       8
#    16  16  16   8  16   8  16   8
#     4   8  13  23  40  64  95 129 165 205 249 297
#     4  11  22  37  55  76 105 138 173 213 261 310
#     4  12  25  40  57  78 105 139 180 217 258 310
#     4  12  24  36  53  79 106 134 173 215 259 306
#     4   9  18  30  47  72 102 137 172 208 252 305
#     4   9  16  30  56  89 114 137 170 208 253 310
#     4  10  19  34  58  86 113 140 172 210 256 308
#     4  10  18  31  56  82 110 140 168 204 255 307
#
# _framework density 17.908619000000002
#
# number of rings (size 3 to 8) (size 9 to 14) (size 15 to 20)
#    0.000    1.923    2.308    3.000    0.000    2.462 
#    0.000    0.769    0.000    0.462    0.000    0.538 
#    0.000    4.308    0.000    0.000    0.000    0.000 
#
# Total GULP energy -644293.405165 kJ/mol
# GULP energy per Si atom -12390.257792 kJ/mol
# Density = 1.786786 g / cm^3
# Si number density = 17.908619 Si / 1000 Ang^3
#
#
#
# Elastic Constant Matrix: (Units=GPa)
#
#
# Indices 1 2 3 4 5 6 
#
# 1 63.2491 26.7953 28.4703 0.0000 0.0000 0.0000
# 2 26.7953 92.0771 49.0455 0.0000 0.0000 0.0000
# 3 28.4703 49.0455 157.6154 0.0000 0.0000 0.0000
# 4 0.0000 0.0000 0.0000 10.1303 0.0000 0.0000
# 5 0.0000 0.0000 0.0000 0.0000 13.4545 0.0000
# 6 0.0000 0.0000 0.0000 0.0000 0.0000 16.9346
#
#
#
# Elastic Compliance Matrix: (Units=1/GPa)
#
#
# Indices 1 2 3 4 5 6 
#
# 1 0.018547 -0.004331 -0.002003 0.000000 0.000000 0.000000
# 2 -0.004331 0.014029 -0.003583 0.000000 0.000000 0.000000
# 3 -0.002003 -0.003583 0.007821 0.000000 0.000000 0.000000
# 4 0.000000 0.000000 0.000000 0.098714 0.000000 0.000000
# 5 0.000000 0.000000 0.000000 0.000000 0.074325 0.000000
# 6 0.000000 0.000000 0.000000 0.000000 0.000000 0.059051
#
#
# Mechanical properties :
#
#
# Convention : Reuss Voigt Hill
#
# Bulk Modulus (GPa) = 48.62771 57.95153 53.28962
# Shear Modulus (GPa) = 16.71270 22.01258 19.36264
#
# Velocity S-wave (km/s) = 3.05818 3.50974 3.29171
# Velocity P-wave (km/s) = 6.29938 6.98958 6.65343
#
# Compressibility (1/GPa) = 0.02056441
#
# Stress axis : x y z
#
# Youngs Moduli (GPa) = 53.91843 71.27904 127.85580
#
# Poissons Ratio (x) = 0.30868 0.25604
# Poissons Ratio (y) = 0.23350 0.45815
# Poissons Ratio (z) = 0.10797 0.25542
#
# Static dielectric constant tensor:
#      x y z
#    x 3.167090 0.000000 0.000000 
#    y 0.000000 3.352840 0.000000 
#    z 0.000000 0.000000 4.082140 
# 
# 
# High freq. dielectric constant tensor:
#      x y z
#    x 1.683420 0.000000 0.000000 
#    y 0.000000 1.662620 0.000000 
#    z 0.000000 0.000000 1.711030 
# 
# From -- ./inp_files/76957.got.cif
#   From: 2010.03.12/outbox.cif.g09.slc.cpg/sg65_39_cif.got.tgz:76957.got - 2010.04.10 20:52:16.
