data_PCOD8266398
_publ_section_title
;
Structure prediction by ZEFSAII (Michael W. Deem and Ramdas Pophale) SiO2 
 PCOD8266398
Probable space group: C M M M
;
_chemical_formula_sum "Si O2"
_cell_formula_units_Z 80
_cell_length_a 8.778939
_cell_length_b 29.033937
_cell_length_c 18.168977
_cell_angle_alpha 90.000000
_cell_angle_beta 90.000000
_cell_angle_gamma 90.000000
_cell_volume 4631.038981
_symmetry_space_group_name_H-M "C M M M"
_symmetry_group_IT_number 65
_symmetry_cell_setting 'orthorhombic'
loop_
_space_group_symop_operation_xyz
x,y,z
-x,-y,z
x,-y,-z
-x,y,-z
-x,-y,-z
x,y,-z
-x,y,z
x,-y,z
1/2+x,1/2+y,z
1/2-x,1/2-y,z
1/2+x,1/2-y,-z
1/2-x,1/2+y,-z
1/2-x,1/2-y,-z
1/2+x,1/2+y,-z
1/2-x,1/2+y,z
1/2+x,1/2-y,z
loop_
_atom_site_type_symbol
_atom_site_label
_atom_site_fract_x
_atom_site_fract_y
_atom_site_fract_z
Si Si1 0.681581 0.551658 0.158554
Si Si2 0.179243 0.361660 0.785789
Si Si3 0.679375 0.201148 0.917521
Si Si4 0.834932 0.054187 0.000000
Si Si5 0.180905 0.300311 0.647868
Si Si6 0.681876 0.699140 0.500000
O O1 0.500000 0.553475 0.155831
O O2 0.735323 0.500000 0.180329
O O3 0.745340 0.587767 0.217899
O O4 0.749800 0.566131 0.077234
O O5 0.240308 0.335763 0.858770
O O6 0.229804 0.333097 0.714581
O O7 0.000000 0.368029 0.787974
O O8 0.500000 0.206841 0.910700
O O9 0.750000 0.250000 0.897315
O O10 0.727295 0.185294 0.000000
O O11 0.000000 0.078875 0.000000
O O12 0.862069 0.000000 0.000000
O O13 0.250000 0.250000 0.662717
O O14 0.252876 0.323980 0.574493
O O15 0.000000 0.295784 0.639501
O O16 0.500000 0.698982 0.500000
O O17 0.750000 0.750000 0.500000
#
# Coordination Sequence:
#
# PCOD8266398 Si02
#       6
#    16  16  16   8  16   8
#     4   9  18  32  49  68  91 121 160 205 248 290
#     4  10  21  32  46  70  97 127 159 197 243 287
#     4   9  18  32  46  62  89 124 162 200 234 272
#     4   7  12  26  45  63  84 111 148 197 246 285
#     4  10  19  32  49  72 102 131 161 194 234 282
#     4  10  18  30  50  74  99 128 159 190 234 283
#
# _framework density 17.274742
#
# number of rings (size 3 to 8) (size 9 to 14) (size 15 to 20)
#    0.000    2.700    0.000    4.500    1.400    2.800 
#    0.000    0.000    0.000    1.800    0.000    0.700 
#    0.000    5.600    0.000    0.000    0.000    0.000 
#
# Total GULP energy -495682.205562 kJ/mol
# GULP energy per Si atom -12392.055139 kJ/mol
# Density = 1.723542 g / cm^3
# Si number density = 17.274742 Si / 1000 Ang^3
#
#
#
# Elastic Constant Matrix: (Units=GPa)
#
#
# Indices 1 2 3 4 5 6 
#
# 1 48.3841 31.0964 40.7318 0.0000 0.0000 0.0000
# 2 31.0964 101.2859 74.4428 0.0000 0.0000 0.0000
# 3 40.7318 74.4428 129.5832 0.0000 0.0000 0.0000
# 4 0.0000 0.0000 0.0000 15.2606 0.0000 0.0000
# 5 0.0000 0.0000 0.0000 0.0000 18.4695 0.0000
# 6 0.0000 0.0000 0.0000 0.0000 0.0000 25.3964
#
#
#
# Elastic Compliance Matrix: (Units=1/GPa)
#
#
# Indices 1 2 3 4 5 6 
#
# 1 0.028928 -0.003805 -0.006907 0.000000 0.000000 0.000000
# 2 -0.003805 0.017589 -0.008908 0.000000 0.000000 0.000000
# 3 -0.006907 -0.008908 0.015006 0.000000 0.000000 0.000000
# 4 0.000000 0.000000 0.000000 0.065528 0.000000 0.000000
# 5 0.000000 0.000000 0.000000 0.000000 0.054143 0.000000
# 6 0.000000 0.000000 0.000000 0.000000 0.000000 0.039376
#
#
# Mechanical properties :
#
#
# Convention : Reuss Voigt Hill
#
# Bulk Modulus (GPa) = 44.87943 63.53281 54.20612
# Shear Modulus (GPa) = 18.70995 20.69078 19.70037
#
# Velocity S-wave (km/s) = 3.29459 3.46460 3.38067
# Velocity P-wave (km/s) = 6.36464 7.27065 6.83268
#
# Compressibility (1/GPa) = 0.02228192
#
# Stress axis : x y z
#
# Youngs Moduli (GPa) = 34.56853 56.85506 66.64080
#
# Poissons Ratio (x) = 0.21632 0.46030
# Poissons Ratio (y) = 0.13153 0.59366
# Poissons Ratio (z) = 0.23877 0.50648
#
# Static dielectric constant tensor:
#      x y z
#    x 3.043620 0.000000 0.000000 
#    y 0.000000 3.134130 0.000000 
#    z 0.000000 0.000000 3.746510 
# 
# 
# High freq. dielectric constant tensor:
#      x y z
#    x 1.657080 0.000000 0.000000 
#    y 0.000000 1.642200 0.000000 
#    z 0.000000 0.000000 1.661960 
# 
# From -- ./inp_files/50219.got.cif
#   From: 2010.03.12/outbox.cif.g09.slc.cpg/sg65_26_cif.got.tgz:50219.got - 2010.04.10 20:52:16.
