data_PCOD8266475
_publ_section_title
;
Structure prediction by ZEFSAII (Michael W. Deem and Ramdas Pophale) SiO2 
 PCOD8266475
Probable space group: C M M M
;
_chemical_formula_sum "Si O2"
_cell_formula_units_Z 88
_cell_length_a 8.837869
_cell_length_b 18.300119
_cell_length_c 27.998642
_cell_angle_alpha 90.000000
_cell_angle_beta 90.000000
_cell_angle_gamma 90.000000
_cell_volume 4528.333889
_symmetry_space_group_name_H-M "C M M M"
_symmetry_group_IT_number 65
_symmetry_cell_setting 'orthorhombic'
loop_
_space_group_symop_operation_xyz
x,y,z
-x,-y,z
x,-y,-z
-x,y,-z
-x,-y,-z
x,y,-z
-x,y,z
x,-y,z
1/2+x,1/2+y,z
1/2-x,1/2-y,z
1/2+x,1/2-y,-z
1/2-x,1/2+y,-z
1/2-x,1/2-y,-z
1/2+x,1/2+y,-z
1/2-x,1/2+y,z
1/2+x,1/2-y,z
loop_
_atom_site_type_symbol
_atom_site_label
_atom_site_fract_x
_atom_site_fract_y
_atom_site_fract_z
Si Si1 0.677410 0.171505 0.405213
Si Si2 0.178035 0.171069 0.773930
Si Si3 0.822364 0.674654 0.054558
Si Si4 0.174309 0.415242 0.689946
Si Si5 0.322828 0.583738 0.866285
Si Si6 0.180465 0.169454 0.500000
O O1 0.500000 0.182300 0.414850
O O2 0.750000 0.250000 0.393714
O O3 0.710415 0.118179 0.361499
O O4 0.755417 0.132906 0.451493
O O5 0.250000 0.250000 0.769861
O O6 0.221017 0.122864 0.728677
O O7 0.236451 0.131151 0.821727
O O8 0.000000 0.180335 0.775061
O O9 0.750000 0.750000 0.073160
O O10 0.762817 0.607886 0.085960
O O11 0.000000 0.681892 0.060269
O O12 0.774370 0.659150 0.000000
O O13 0.216196 0.500000 0.688137
O O14 0.000000 0.402381 0.703967
O O15 0.500000 0.594642 0.874605
O O16 0.282012 0.500000 0.855652
O O17 0.250000 0.250000 0.500000
O O18 0.000000 0.169124 0.500000
#
# Coordination Sequence:
#
# PCOD8266475 Si02
#       6
#    16  16  16  16  16   8
#     4  10  19  33  54  79 108 141 180 225 271 322
#     4  11  23  39  60  85 112 144 184 229 275 326
#     4  10  21  37  58  84 113 147 189 234 278 326
#     4  10  22  39  58  82 112 146 184 226 275 330
#     4  10  22  39  58  83 115 149 185 226 276 332
#     4  10  18  30  51  78 107 139 179 225 271 320
#
# _framework density 19.433197
#
# number of rings (size 3 to 8) (size 9 to 14) (size 15 to 20)
#    0.000    1.818    0.000    5.182    0.000    8.727 
#    0.000    2.273    0.000    2.727    0.000    0.000 
#    0.000    0.000    0.000    0.000    0.000    0.000 
#
# Total GULP energy -545749.010723 kJ/mol
# GULP energy per Si atom -12403.386607 kJ/mol
# Density = 1.938897 g / cm^3
# Si number density = 19.433197 Si / 1000 Ang^3
#
#
#
# Elastic Constant Matrix: (Units=GPa)
#
#
# Indices 1 2 3 4 5 6 
#
# 1 84.3918 41.1050 53.7325 0.0000 0.0000 0.0000
# 2 41.1050 116.4545 64.8834 0.0000 0.0000 0.0000
# 3 53.7325 64.8834 131.5631 0.0000 0.0000 0.0000
# 4 0.0000 0.0000 0.0000 14.7241 0.0000 0.0000
# 5 0.0000 0.0000 0.0000 0.0000 25.1213 0.0000
# 6 0.0000 0.0000 0.0000 0.0000 0.0000 24.4615
#
#
#
# Elastic Compliance Matrix: (Units=1/GPa)
#
#
# Indices 1 2 3 4 5 6 
#
# 1 0.016689 -0.002886 -0.005393 0.000000 0.000000 0.000000
# 2 -0.002886 0.012340 -0.004907 0.000000 0.000000 0.000000
# 3 -0.005393 -0.004907 0.012223 0.000000 0.000000 0.000000
# 4 0.000000 0.000000 0.000000 0.067916 0.000000 0.000000
# 5 0.000000 0.000000 0.000000 0.000000 0.039807 0.000000
# 6 0.000000 0.000000 0.000000 0.000000 0.000000 0.040881
#
#
# Mechanical properties :
#
#
# Convention : Reuss Voigt Hill
#
# Bulk Modulus (GPa) = 67.20189 72.42789 69.81489
# Shear Modulus (GPa) = 22.60537 24.37393 23.48965
#
# Velocity S-wave (km/s) = 3.41432 3.54537 3.48046
# Velocity P-wave (km/s) = 7.08516 7.35599 7.22185
#
# Compressibility (1/GPa) = 0.01488053
#
# Stress axis : x y z
#
# Youngs Moduli (GPa) = 59.92072 81.03966 81.81124
#
# Poissons Ratio (x) = 0.23389 0.44117
# Poissons Ratio (y) = 0.17294 0.40144
# Poissons Ratio (z) = 0.32313 0.39765
#
# Static dielectric constant tensor:
#      x y z
#    x 3.570840 0.000000 0.000000 
#    y 0.000000 3.454530 0.000000 
#    z 0.000000 0.000000 3.913720 
# 
# 
# High freq. dielectric constant tensor:
#      x y z
#    x 1.762530 0.000000 0.000000 
#    y 0.000000 1.746270 0.000000 
#    z 0.000000 0.000000 1.774610 
# 
# From -- ./inp_files/67512.got.cif
#   From: 2010.03.12/outbox.cif.g09.slc.cpg/sg65_34_cif.got.tgz:67512.got - 2010.04.10 20:52:16.
