data_PCOD8266218
_publ_section_title
;
Structure prediction by ZEFSAII (Michael W. Deem and Ramdas Pophale) SiO2 
 PCOD8266218
Probable space group: C M M M
;
_chemical_formula_sum "Si O2"
_cell_formula_units_Z 72
_cell_length_a 27.389796
_cell_length_b 19.383640
_cell_length_c 8.721507
_cell_angle_alpha 90.000000
_cell_angle_beta 90.000000
_cell_angle_gamma 90.000000
_cell_volume 4630.369691
_symmetry_space_group_name_H-M "C M M M"
_symmetry_group_IT_number 65
_symmetry_cell_setting 'orthorhombic'
loop_
_space_group_symop_operation_xyz
x,y,z
-x,-y,z
x,-y,-z
-x,y,-z
-x,-y,-z
x,y,-z
-x,y,z
x,-y,z
1/2+x,1/2+y,z
1/2-x,1/2-y,z
1/2+x,1/2-y,-z
1/2-x,1/2+y,-z
1/2-x,1/2-y,-z
1/2+x,1/2+y,-z
1/2-x,1/2+y,z
1/2+x,1/2-y,z
loop_
_atom_site_type_symbol
_atom_site_label
_atom_site_fract_x
_atom_site_fract_y
_atom_site_fract_z
Si Si1 0.181158 0.223794 0.321039
Si Si2 0.726546 0.150032 0.816353
Si Si3 0.000000 0.079032 0.180334
Si Si4 0.233840 0.500000 0.170274
Si Si5 0.402286 0.375757 0.677432
Si Si6 0.150872 0.000000 0.828066
O O1 0.194258 0.224835 0.500000
O O2 0.220322 0.175270 0.237058
O O3 0.184367 0.300857 0.251652
O O4 0.126103 0.196365 0.293547
O O5 0.716708 0.072024 0.751490
O O6 0.725965 0.151211 0.000000
O O7 0.953289 0.122194 0.234435
O O8 0.000000 0.000000 0.245784
O O9 0.000000 0.075976 0.000000
O O10 0.291746 0.500000 0.163806
O O11 0.212000 0.500000 0.000000
O O12 0.413420 0.387722 0.500000
O O13 0.366304 0.433949 0.736515
O O14 0.128140 0.000000 0.000000
#
# Coordination Sequence:
#
# PCOD8266218 Si02
#       6
#    16  16   8   8  16   8
#     4  10  20  32  44  65  92 119 153 190 227 272
#     4  10  18  30  47  66  89 121 155 189 228 268
#     4  11  23  35  49  69  90 117 156 199 232 266
#     4   9  18  29  44  68  93 118 156 196 226 265
#     4  11  22  34  48  65  91 123 156 193 235 275
#     4  11  19  30  46  65  91 121 159 197 228 267
#
# _framework density 15.549514
#
# number of rings (size 3 to 8) (size 9 to 14) (size 15 to 20)
#    0.000    1.667    3.333    4.000    0.000    3.111 
#    0.000    2.222    0.000    0.000    0.000    0.000 
#    0.000    0.889    0.000   10.000    0.000    4.444 
#
# Total GULP energy -446211.326696 kJ/mol
# GULP energy per Si atom -12394.759075 kJ/mol
# Density = 1.551412 g / cm^3
# Si number density = 15.549514 Si / 1000 Ang^3
#
#
#
# Elastic Constant Matrix: (Units=GPa)
#
#
# Indices 1 2 3 4 5 6 
#
# 1 72.1311 47.5205 32.5554 0.0000 0.0000 0.0000
# 2 47.5205 134.4916 33.3004 0.0000 0.0000 0.0000
# 3 32.5554 33.3004 66.8391 0.0000 0.0000 0.0000
# 4 0.0000 0.0000 0.0000 5.9875 0.0000 0.0000
# 5 0.0000 0.0000 0.0000 0.0000 22.4445 0.0000
# 6 0.0000 0.0000 0.0000 0.0000 0.0000 -70.2816
#
#
#
# Elastic Compliance Matrix: (Units=1/GPa)
#
#
# Indices 1 2 3 4 5 6 
#
# 1 0.020849 -0.005535 -0.007397 0.000000 0.000000 0.000000
# 2 -0.005535 0.009951 -0.002262 0.000000 0.000000 0.000000
# 3 -0.007397 -0.002262 0.019691 0.000000 0.000000 0.000000
# 4 0.000000 0.000000 0.000000 0.167016 0.000000 0.000000
# 5 0.000000 0.000000 0.000000 0.000000 0.044554 0.000000
# 6 0.000000 0.000000 0.000000 0.000000 0.000000 -0.014228
#
#
# Mechanical properties :
#
#
# Convention : Reuss Voigt Hill
#
# Bulk Modulus (GPa) = 49.74408 55.57939 52.66173
# Shear Modulus (GPa) = 17.54866 2.30242 9.92554
#
# Velocity S-wave (km/s) = 3.36306 1.21816 2.52924
# Velocity P-wave (km/s) = 6.86589 6.14814 6.51690
#
# Compressibility (1/GPa) = 0.02010290
#
# Stress axis : x y z
#
# Youngs Moduli (GPa) = 47.96439 100.49057 50.78422
#
# Poissons Ratio (x) = 0.55622 0.37566
# Poissons Ratio (y) = 0.26549 0.11487
# Poissons Ratio (z) = 0.35480 0.22730
#
# Static dielectric constant tensor:
#      x y z
#    x 2.784000 0.000000 0.000000 
#    y 0.000000 3.255200 0.000000 
#    z 0.000000 0.000000 3.102230 
# 
# 
# High freq. dielectric constant tensor:
#      x y z
#    x 1.561620 0.000000 0.000000 
#    y 0.000000 1.591040 0.000000 
#    z 0.000000 0.000000 1.608020 
# 
# From -- ./inp_files/16224.got.cif
#   From: 2010.03.12/outbox.cif.g09.slc.cpg/sg65_9_cif.got.tgz:16224.got - 2010.04.10 20:52:16.
