data_PCOD8266119
_publ_section_title
;
Structure prediction by ZEFSAII (Michael W. Deem and Ramdas Pophale) SiO2 
 PCOD8266119
Probable space group: C M M M
;
_chemical_formula_sum "Si O2"
_cell_formula_units_Z 88
_cell_length_a 8.745532
_cell_length_b 18.217056
_cell_length_c 28.793446
_cell_angle_alpha 90.000000
_cell_angle_beta 90.000000
_cell_angle_gamma 90.000000
_cell_volume 4587.309801
_symmetry_space_group_name_H-M "C M M M"
_symmetry_group_IT_number 65
_symmetry_cell_setting 'orthorhombic'
loop_
_space_group_symop_operation_xyz
x,y,z
-x,-y,z
x,-y,-z
-x,y,-z
-x,-y,-z
x,y,-z
-x,y,z
x,-y,z
1/2+x,1/2+y,z
1/2-x,1/2-y,z
1/2+x,1/2-y,-z
1/2-x,1/2+y,-z
1/2-x,1/2-y,-z
1/2+x,1/2+y,-z
1/2-x,1/2+y,z
1/2+x,1/2-y,z
loop_
_atom_site_type_symbol
_atom_site_label
_atom_site_fract_x
_atom_site_fract_y
_atom_site_fract_z
Si Si1 0.181878 0.582393 0.268254
Si Si2 0.821067 0.830025 0.550296
Si Si3 0.681104 0.169205 0.641979
Si Si4 0.827624 0.412785 0.000000
Si Si5 0.680465 0.169975 0.179142
Si Si6 0.175920 0.913233 0.905404
O O1 0.248623 0.500000 0.265803
O O2 0.240621 0.620200 0.315413
O O3 0.245009 0.628160 0.224493
O O4 0.000000 0.580271 0.267252
O O5 0.792356 0.869650 0.500000
O O6 0.750000 0.750000 0.547368
O O7 0.740063 0.869820 0.594102
O O8 0.000000 0.823676 0.560587
O O9 0.500000 0.174599 0.641182
O O10 0.750000 0.250000 0.647484
O O11 0.738339 0.384246 0.954718
O O12 0.830200 0.500000 0.000000
O O13 0.000000 0.381366 0.000000
O O14 0.500000 0.177031 0.181433
O O15 0.750000 0.250000 0.177016
O O16 0.725254 0.124246 0.134167
O O17 0.000000 0.889792 0.900725
O O18 0.197114 0.000000 0.900863
#
# Coordination Sequence:
#
# PCOD8266119 Si02
#       6
#    16  16  16   8  16  16
#     4   9  19  35  54  76 101 132 171 213 257 307
#     4   9  16  26  42  66  97 130 164 203 246 295
#     4  10  18  29  49  74 101 131 164 207 254 301
#     4   9  17  31  54  83 112 145 184 219 257 309
#     4  11  22  37  57  79 107 141 177 218 265 317
#     4  10  20  35  56  83 114 145 180 222 264 307
#
# _framework density 19.183356
#
# number of rings (size 3 to 8) (size 9 to 14) (size 15 to 20)
#    0.000    2.273    0.000    4.636    0.000    4.000 
#    0.000    3.182    0.000    7.091    0.000    3.818 
#    0.000    0.000    0.000    0.000    0.000    0.000 
#
# Total GULP energy -545453.419301 kJ/mol
# GULP energy per Si atom -12396.668620 kJ/mol
# Density = 1.913969 g / cm^3
# Si number density = 19.183356 Si / 1000 Ang^3
#
#
#
# Elastic Constant Matrix: (Units=GPa)
#
#
# Indices 1 2 3 4 5 6 
#
# 1 79.7973 24.2689 41.4787 0.0000 0.0000 0.0000
# 2 24.2689 46.2699 41.4574 0.0000 0.0000 0.0000
# 3 41.4787 41.4574 184.4719 0.0000 0.0000 0.0000
# 4 0.0000 0.0000 0.0000 13.0500 0.0000 0.0000
# 5 0.0000 0.0000 0.0000 0.0000 28.7504 0.0000
# 6 0.0000 0.0000 0.0000 0.0000 0.0000 16.9541
#
#
#
# Elastic Compliance Matrix: (Units=1/GPa)
#
#
# Indices 1 2 3 4 5 6 
#
# 1 0.015522 -0.006279 -0.002079 0.000000 0.000000 0.000000
# 2 -0.006279 0.029601 -0.005241 0.000000 0.000000 0.000000
# 3 -0.002079 -0.005241 0.007066 0.000000 0.000000 0.000000
# 4 0.000000 0.000000 0.000000 0.076629 0.000000 0.000000
# 5 0.000000 0.000000 0.000000 0.000000 0.034782 0.000000
# 6 0.000000 0.000000 0.000000 0.000000 0.000000 0.058983
#
#
# Mechanical properties :
#
#
# Convention : Reuss Voigt Hill
#
# Bulk Modulus (GPa) = 40.01194 58.32766 49.16980
# Shear Modulus (GPa) = 19.37157 25.30649 22.33903
#
# Velocity S-wave (km/s) = 3.18120 3.63601 3.41618
# Velocity P-wave (km/s) = 5.86484 6.93533 6.42242
#
# Compressibility (1/GPa) = 0.02499254
#
# Stress axis : x y z
#
# Youngs Moduli (GPa) = 64.42473 33.78256 141.52001
#
# Poissons Ratio (x) = 0.21210 0.29424
# Poissons Ratio (y) = 0.40449 0.74166
# Poissons Ratio (z) = 0.13395 0.17704
#
# Static dielectric constant tensor:
#      x y z
#    x 3.486400 0.000000 0.000000 
#    y 0.000000 3.224870 0.000000 
#    z 0.000000 0.000000 4.224120 
# 
# 
# High freq. dielectric constant tensor:
#      x y z
#    x 1.743350 0.000000 0.000000 
#    y 0.000000 1.705660 0.000000 
#    z 0.000000 0.000000 1.774900 
# 
# From -- ./inp_files/76451.got.cif
#   From: 2010.03.12/outbox.cif.g09.slc.cpg/sg65_39_cif.got.tgz:76451.got - 2010.04.10 20:52:16.
