data_PCOD8266035
_publ_section_title
;
Structure prediction by ZEFSAII (Michael W. Deem and Ramdas Pophale) SiO2 
 PCOD8266035
Probable space group: C M M M
;
_chemical_formula_sum "Si O2"
_cell_formula_units_Z 96
_cell_length_a 19.080410
_cell_length_b 14.226841
_cell_length_c 20.118575
_cell_angle_alpha 90.000000
_cell_angle_beta 90.000000
_cell_angle_gamma 90.000000
_cell_volume 5461.266839
_symmetry_space_group_name_H-M "C M M M"
_symmetry_group_IT_number 65
_symmetry_cell_setting 'orthorhombic'
loop_
_space_group_symop_operation_xyz
x,y,z
-x,-y,z
x,-y,-z
-x,y,-z
-x,-y,-z
x,y,-z
-x,y,z
x,-y,z
1/2+x,1/2+y,z
1/2-x,1/2-y,z
1/2+x,1/2-y,-z
1/2-x,1/2+y,-z
1/2-x,1/2-y,-z
1/2+x,1/2+y,-z
1/2-x,1/2+y,z
1/2+x,1/2-y,z
loop_
_atom_site_type_symbol
_atom_site_label
_atom_site_fract_x
_atom_site_fract_y
_atom_site_fract_z
Si Si1 0.853608 0.604210 0.346272
Si Si2 0.303628 0.608776 0.305306
Si Si3 0.420523 0.894661 0.788853
Si Si4 0.671406 0.275164 0.175037
Si Si5 0.669241 0.274927 0.572906
Si Si6 0.921121 0.110359 0.924060
O O1 0.850966 0.500000 0.378711
O O2 0.779594 0.626469 0.309796
O O3 0.913298 0.611066 0.290861
O O4 0.870418 0.680341 0.403030
O O5 0.321802 0.500000 0.292528
O O6 0.333408 0.672033 0.245841
O O7 0.341191 0.641117 0.374008
O O8 0.500000 0.870419 0.807642
O O9 0.370490 0.822089 0.825270
O O10 0.400378 0.000000 0.812733
O O11 0.750000 0.250000 0.154293
O O12 0.637806 0.340741 0.119693
O O13 0.640080 0.304832 0.500000
O O14 0.750000 0.250000 0.566520
O O15 0.000000 0.137241 0.900375
O O16 0.909875 0.000000 0.917076
O O17 0.910729 0.142370 0.000000
#
# Coordination Sequence:
#
# PCOD8266035 Si02
#       6
#    16  16  16  16  16  16
#     4   9  16  29  45  66  97 131 169 214 263 307
#     4  10  18  29  46  73 104 133 168 215 266 310
#     4  10  20  33  50  74 105 139 173 210 257 313
#     4  12  20  32  55  82 110 135 172 219 264 310
#     4   9  16  27  42  66  99 133 170 214 265 315
#     4   9  20  39  59  80 108 141 176 213 256 307
#
# _framework density 17.578340000000001
#
# number of rings (size 3 to 8) (size 9 to 14) (size 15 to 20)
#    0.000    2.167    3.333    2.000    0.000    1.667 
#    0.000    3.333    0.000    1.000    0.000    4.667 
#    0.000    1.333    0.000    0.000    0.000    0.000 
#
# Total GULP energy -595081.582339 kJ/mol
# GULP energy per Si atom -12397.532965 kJ/mol
# Density = 1.753833 g / cm^3
# Si number density = 17.578340 Si / 1000 Ang^3
#
#
#
# Elastic Constant Matrix: (Units=GPa)
#
#
# Indices 1 2 3 4 5 6 
#
# 1 75.1105 47.3357 40.8318 0.0000 0.0000 0.0000
# 2 47.3357 94.8258 39.6221 0.0000 0.0000 0.0000
# 3 40.8318 39.6221 90.1229 0.0000 0.0000 0.0000
# 4 0.0000 0.0000 0.0000 28.1578 0.0000 0.0000
# 5 0.0000 0.0000 0.0000 0.0000 5.5049 0.0000
# 6 0.0000 0.0000 0.0000 0.0000 0.0000 24.3681
#
#
#
# Elastic Compliance Matrix: (Units=1/GPa)
#
#
# Indices 1 2 3 4 5 6 
#
# 1 0.021999 -0.008351 -0.006296 0.000000 0.000000 0.000000
# 2 -0.008351 0.016089 -0.003290 0.000000 0.000000 0.000000
# 3 -0.006296 -0.003290 0.015395 0.000000 0.000000 0.000000
# 4 0.000000 0.000000 0.000000 0.035514 0.000000 0.000000
# 5 0.000000 0.000000 0.000000 0.000000 0.181657 0.000000
# 6 0.000000 0.000000 0.000000 0.000000 0.000000 0.041037
#
#
# Mechanical properties :
#
#
# Convention : Reuss Voigt Hill
#
# Bulk Modulus (GPa) = 56.78670 57.29314 57.03992
# Shear Modulus (GPa) = 14.14693 20.42414 17.28553
#
# Velocity S-wave (km/s) = 2.83997 3.41235 3.13923
# Velocity P-wave (km/s) = 6.56726 6.94185 6.75715
#
# Compressibility (1/GPa) = 0.01760976
#
# Stress axis : x y z
#
# Youngs Moduli (GPa) = 45.45644 62.15415 64.95764
#
# Poissons Ratio (x) = 0.51905 0.40894
# Poissons Ratio (y) = 0.37961 0.21370
# Poissons Ratio (z) = 0.28617 0.20448
#
# Static dielectric constant tensor:
#      x y z
#    x 3.035050 0.000000 0.000000 
#    y 0.000000 3.417440 0.000000 
#    z 0.000000 0.000000 3.201820 
# 
# 
# High freq. dielectric constant tensor:
#      x y z
#    x 1.648410 0.000000 0.000000 
#    y 0.000000 1.691950 0.000000 
#    z 0.000000 0.000000 1.660270 
# 
# From -- ./inp_files/62597.got.cif
#   From: 2010.03.12/outbox.cif.g09.slc.cpg/sg65_32_cif.got.tgz:62597.got - 2010.04.10 20:52:16.
