data_PCOD8266281
_publ_section_title
;
Structure prediction by ZEFSAII (Michael W. Deem and Ramdas Pophale) SiO2 
 PCOD8266281
Probable space group: C M M M
;
_chemical_formula_sum "Si O2"
_cell_formula_units_Z 80
_cell_length_a 8.954893
_cell_length_b 24.780675
_cell_length_c 20.134765
_cell_angle_alpha 90.000000
_cell_angle_beta 90.000000
_cell_angle_gamma 90.000000
_cell_volume 4468.071333
_symmetry_space_group_name_H-M "C M M M"
_symmetry_group_IT_number 65
_symmetry_cell_setting 'orthorhombic'
loop_
_space_group_symop_operation_xyz
x,y,z
-x,-y,z
x,-y,-z
-x,y,-z
-x,-y,-z
x,y,-z
-x,y,z
x,-y,z
1/2+x,1/2+y,z
1/2-x,1/2-y,z
1/2+x,1/2-y,-z
1/2-x,1/2+y,-z
1/2-x,1/2-y,-z
1/2+x,1/2+y,-z
1/2-x,1/2+y,z
1/2+x,1/2-y,z
loop_
_atom_site_type_symbol
_atom_site_label
_atom_site_fract_x
_atom_site_fract_y
_atom_site_fract_z
Si Si1 0.326808 0.893958 0.240192
Si Si2 0.320692 0.309398 0.000000
Si Si3 0.675580 0.807951 0.500000
Si Si4 0.832790 0.000000 0.764363
Si Si5 0.824259 0.607935 0.390853
Si Si6 0.323662 0.807583 0.869315
Si Si7 0.668363 0.500000 0.393430
O O1 0.500000 0.907959 0.239951
O O2 0.272879 0.880750 0.315091
O O3 0.288738 0.842815 0.195221
O O4 0.246052 0.946060 0.209054
O O5 0.250000 0.250000 0.000000
O O6 0.255489 0.336662 0.932937
O O7 0.500000 0.309142 0.000000
O O8 0.500000 0.798948 0.500000
O O9 0.750000 0.750000 0.500000
O O10 0.726767 0.841062 0.434739
O O11 0.823804 0.000000 0.685491
O O12 0.000000 0.000000 0.791680
O O13 0.748941 0.553799 0.419955
O O14 0.000000 0.598930 0.396276
O O15 0.500000 0.801138 0.882599
O O16 0.250000 0.750000 0.855280
O O17 0.500000 0.500000 0.420181
#
# Coordination Sequence:
#
# PCOD8266281 Si02
#       7
#    16   8   8   8  16  16   8
#     4   9  18  32  51  72  97 129 164 198 238 288
#     4  10  18  30  48  69  96 129 160 196 240 286
#     4  10  22  37  52  69  95 132 170 202 241 290
#     4   9  17  29  48  73 100 126 157 198 244 287
#     4   9  18  34  52  71  96 129 164 199 241 292
#     4  10  19  31  48  72  99 128 161 199 240 285
#     4   9  17  30  50  77  99 119 153 202 251 288
#
# _framework density 17.904817000000001
#
# number of rings (size 3 to 8) (size 9 to 14) (size 15 to 20)
#    0.000    2.600    0.000    3.300    0.000    6.000 
#    0.000    2.000    0.000    0.600    0.000    4.200 
#    0.000    0.000    0.000    0.000    0.000    0.000 
#
# Total GULP energy -495884.477608 kJ/mol
# GULP energy per Si atom -12397.111940 kJ/mol
# Density = 1.786406 g / cm^3
# Si number density = 17.904817 Si / 1000 Ang^3
#
#
#
# Elastic Constant Matrix: (Units=GPa)
#
#
# Indices 1 2 3 4 5 6 
#
# 1 87.7771 61.4957 47.9751 0.0000 0.0000 0.0000
# 2 61.4957 138.4653 65.9730 0.0000 0.0000 0.0000
# 3 47.9751 65.9730 101.9389 0.0000 0.0000 0.0000
# 4 0.0000 0.0000 0.0000 3.3432 0.0000 0.0000
# 5 0.0000 0.0000 0.0000 0.0000 18.7827 0.0000
# 6 0.0000 0.0000 0.0000 0.0000 0.0000 33.4846
#
#
#
# Elastic Compliance Matrix: (Units=1/GPa)
#
#
# Indices 1 2 3 4 5 6 
#
# 1 0.018012 -0.005726 -0.004771 0.000000 0.000000 0.000000
# 2 -0.005726 0.012262 -0.005241 0.000000 0.000000 0.000000
# 3 -0.004771 -0.005241 0.015447 0.000000 0.000000 0.000000
# 4 0.000000 0.000000 0.000000 0.299116 0.000000 0.000000
# 5 0.000000 0.000000 0.000000 0.000000 0.053240 0.000000
# 6 0.000000 0.000000 0.000000 0.000000 0.000000 0.029864
#
#
# Mechanical properties :
#
#
# Convention : Reuss Voigt Hill
#
# Bulk Modulus (GPa) = 70.20130 75.45210 72.82670
# Shear Modulus (GPa) = 10.77200 21.30461 16.03830
#
# Velocity S-wave (km/s) = 2.45547 3.45321 2.99616
# Velocity P-wave (km/s) = 6.87984 7.62441 7.26168
#
# Compressibility (1/GPa) = 0.01424475
#
# Stress axis : x y z
#
# Youngs Moduli (GPa) = 55.51895 81.55039 64.73768
#
# Poissons Ratio (x) = 0.46699 0.30885
# Poissons Ratio (y) = 0.31792 0.33929
# Poissons Ratio (z) = 0.26487 0.42740
#
# Static dielectric constant tensor:
#      x y z
#    x 3.361410 0.000000 0.000000 
#    y 0.000000 3.225190 0.000000 
#    z 0.000000 0.000000 3.693340 
# 
# 
# High freq. dielectric constant tensor:
#      x y z
#    x 1.697230 0.000000 0.000000 
#    y 0.000000 1.677670 0.000000 
#    z 0.000000 0.000000 1.686330 
# 
# From -- ./inp_files/59720.got.cif
#   From: 2010.03.12/outbox.cif.g09.slc.cpg/sg65_30_cif.got.tgz:59720.got - 2010.04.10 20:52:16.
