data_PCOD8266559
_publ_section_title
;
Structure prediction by ZEFSAII (Michael W. Deem and Ramdas Pophale) SiO2 
 PCOD8266559
Probable space group: C M M M
;
_chemical_formula_sum "Si O2"
_cell_formula_units_Z 80
_cell_length_a 21.048561
_cell_length_b 25.131860
_cell_length_c 8.695183
_cell_angle_alpha 90.000000
_cell_angle_beta 90.000000
_cell_angle_gamma 90.000000
_cell_volume 4599.660405
_symmetry_space_group_name_H-M "C M M M"
_symmetry_group_IT_number 65
_symmetry_cell_setting 'orthorhombic'
loop_
_space_group_symop_operation_xyz
x,y,z
-x,-y,z
x,-y,-z
-x,y,-z
-x,-y,-z
x,y,-z
-x,y,z
x,-y,z
1/2+x,1/2+y,z
1/2-x,1/2-y,z
1/2+x,1/2-y,-z
1/2-x,1/2+y,-z
1/2-x,1/2-y,-z
1/2+x,1/2+y,-z
1/2-x,1/2+y,z
1/2+x,1/2-y,z
loop_
_atom_site_type_symbol
_atom_site_label
_atom_site_fract_x
_atom_site_fract_y
_atom_site_fract_z
Si Si1 0.383777 0.500000 0.330754
Si Si2 0.069640 0.221620 0.317506
Si Si3 0.690320 0.786525 0.317557
Si Si4 0.125155 0.887321 0.684046
Si Si5 0.262730 0.890751 0.181428
Si Si6 0.732411 0.000000 0.328670
O O1 0.414168 0.500000 0.500000
O O2 0.403550 0.443896 0.250442
O O3 0.307942 0.500000 0.337093
O O4 0.071723 0.222722 0.500000
O O5 0.125519 0.259249 0.255315
O O6 0.080327 0.160724 0.262674
O O7 0.000000 0.240007 0.257147
O O8 0.689857 0.794862 0.500000
O O9 0.750000 0.750000 0.268531
O O10 0.691106 0.843405 0.234612
O O11 0.131749 0.891159 0.500000
O O12 0.194612 0.876668 0.748838
O O13 0.290762 0.946893 0.241222
O O14 0.257896 0.893453 0.000000
O O15 0.703202 0.000000 0.500000
#
# Coordination Sequence:
#
# PCOD8266559 Si02
#       6
#     8  16  16  16  16   8
#     4   7  12  21  40  63  85 117 155 193 228 275
#     4   9  17  29  47  69  93 124 169 217 249 282
#     4  10  18  31  50  70  94 130 170 205 247 294
#     4   9  15  28  45  64  92 129 168 202 244 288
#     4  11  20  29  46  74 103 127 160 203 247 290
#     4   9  17  31  49  70  99 130 160 194 244 296
#
# _framework density 17.392588
#
# number of rings (size 3 to 8) (size 9 to 14) (size 15 to 20)
#    0.000    2.600    2.000    3.300    0.000    0.400 
#    0.000    0.500    0.000    5.400    0.000    0.700 
#    0.000   10.400    0.000    0.000    0.000    0.000 
#
# Total GULP energy -495618.789181 kJ/mol
# GULP energy per Si atom -12390.469730 kJ/mol
# Density = 1.735300 g / cm^3
# Si number density = 17.392588 Si / 1000 Ang^3
#
#
#
# Elastic Constant Matrix: (Units=GPa)
#
#
# Indices 1 2 3 4 5 6 
#
# 1 93.4350 55.3439 9.6909 0.0000 0.0000 0.0000
# 2 55.3439 138.0503 24.2566 0.0000 0.0000 0.0000
# 3 9.6909 24.2566 42.6983 0.0000 0.0000 0.0000
# 4 0.0000 0.0000 0.0000 13.8474 0.0000 0.0000
# 5 0.0000 0.0000 0.0000 0.0000 3.8344 0.0000
# 6 0.0000 0.0000 0.0000 0.0000 0.0000 15.8612
#
#
#
# Elastic Compliance Matrix: (Units=1/GPa)
#
#
# Indices 1 2 3 4 5 6 
#
# 1 0.014036 -0.005629 0.000012 0.000000 0.000000 0.000000
# 2 -0.005629 0.010304 -0.004576 0.000000 0.000000 0.000000
# 3 0.000012 -0.004576 0.026017 0.000000 0.000000 0.000000
# 4 0.000000 0.000000 0.000000 0.072216 0.000000 0.000000
# 5 0.000000 0.000000 0.000000 0.000000 0.260800 0.000000
# 6 0.000000 0.000000 0.000000 0.000000 0.000000 0.063047
#
#
# Mechanical properties :
#
#
# Convention : Reuss Voigt Hill
#
# Bulk Modulus (GPa) = 33.36555 50.30739 41.83647
# Shear Modulus (GPa) = 10.48667 19.03475 14.76071
#
# Velocity S-wave (km/s) = 2.45815 3.31179 2.91637
# Velocity P-wave (km/s) = 5.22322 6.60389 5.95371
#
# Compressibility (1/GPa) = 0.02997103
#
# Stress axis : x y z
#
# Youngs Moduli (GPa) = 71.24777 97.04532 38.43622
#
# Poissons Ratio (x) = 0.54626 -0.00047
# Poissons Ratio (y) = 0.40105 0.17590
# Poissons Ratio (z) = -0.00087 0.44411
#
# Static dielectric constant tensor:
#      x y z
#    x 3.048810 0.000000 0.000000 
#    y 0.000000 3.693650 0.000000 
#    z 0.000000 0.000000 2.898880 
# 
# 
# High freq. dielectric constant tensor:
#      x y z
#    x 1.624140 0.000000 0.000000 
#    y 0.000000 1.691070 0.000000 
#    z 0.000000 0.000000 1.636590 
# 
# From -- ./inp_files/11576.got.cif
#   From: 2010.03.12/outbox.cif.g09.slc.cpg/sg65_6_cif.got.tgz:11576.got - 2010.04.10 20:52:16.
