data_PCOD8266452
_publ_section_title
;
Structure prediction by ZEFSAII (Michael W. Deem and Ramdas Pophale) SiO2 
 PCOD8266452
Probable space group: C M M M
;
_chemical_formula_sum "Si O2"
_cell_formula_units_Z 72
_cell_length_a 23.661103
_cell_length_b 17.941389
_cell_length_c 8.975449
_cell_angle_alpha 90.000000
_cell_angle_beta 90.000000
_cell_angle_gamma 90.000000
_cell_volume 3810.195258
_symmetry_space_group_name_H-M "C M M M"
_symmetry_group_IT_number 65
_symmetry_cell_setting 'orthorhombic'
loop_
_space_group_symop_operation_xyz
x,y,z
-x,-y,z
x,-y,-z
-x,y,-z
-x,-y,-z
x,y,-z
-x,y,z
x,-y,z
1/2+x,1/2+y,z
1/2-x,1/2-y,z
1/2+x,1/2-y,-z
1/2-x,1/2+y,-z
1/2-x,1/2-y,-z
1/2+x,1/2+y,-z
1/2-x,1/2+y,z
1/2+x,1/2-y,z
loop_
_atom_site_type_symbol
_atom_site_label
_atom_site_fract_x
_atom_site_fract_y
_atom_site_fract_z
Si Si1 0.563042 0.000000 0.677011
Si Si2 0.738232 0.085677 0.824773
Si Si3 0.436808 0.713018 0.676450
Si Si4 0.130838 0.643385 0.677053
Si Si5 0.145768 0.084970 0.326475
O O1 0.594938 0.926900 0.735062
O O2 0.500000 0.000000 0.743917
O O3 0.560531 0.000000 0.500000
O O4 0.692680 0.139711 0.749101
O O5 0.799435 0.109570 0.765503
O O6 0.725754 0.000000 0.779469
O O7 0.736596 0.097295 0.000000
O O8 0.441258 0.718748 0.500000
O O9 0.500000 0.714186 0.745485
O O10 0.400764 0.782966 0.736059
O O11 0.406251 0.636610 0.724770
O O12 0.137640 0.643304 0.500000
O O13 0.159809 0.096245 0.500000
O O14 0.128357 0.000000 0.291400
#
# Coordination Sequence:
#
# PCOD8266452 Si02
#       5
#     8  16  16  16  16
#     4   9  16  26  45  73  99 129 168 203 238 287
#     4  10  20  34  52  74 103 135 170 212 254 298
#     4   9  18  32  51  78 107 131 163 211 257 296
#     4  10  18  30  51  76 103 134 168 207 248 297
#     4   9  18  33  54  77 101 132 169 208 253 305
#
# _framework density 18.896668999999999
#
# number of rings (size 3 to 8) (size 9 to 14) (size 15 to 20)
#    0.000    2.556    1.111    1.333    0.000    4.889 
#    0.000    7.778    0.000    5.333    0.000    3.111 
#    0.000    0.000    0.000    0.000    0.000    0.000 
#
# Total GULP energy -446441.168412 kJ/mol
# GULP energy per Si atom -12401.143567 kJ/mol
# Density = 1.885366 g / cm^3
# Si number density = 18.896669 Si / 1000 Ang^3
#
#
#
# Elastic Constant Matrix: (Units=GPa)
#
#
# Indices 1 2 3 4 5 6 
#
# 1 158.0796 87.1084 35.1924 0.0000 0.0000 0.0000
# 2 87.1084 132.8460 23.6173 0.0000 0.0000 0.0000
# 3 35.1924 23.6173 33.4452 0.0000 0.0000 0.0000
# 4 0.0000 0.0000 0.0000 11.1630 0.0000 0.0000
# 5 0.0000 0.0000 0.0000 0.0000 0.7946 0.0000
# 6 0.0000 0.0000 0.0000 0.0000 0.0000 36.5466
#
#
#
# Elastic Compliance Matrix: (Units=1/GPa)
#
#
# Indices 1 2 3 4 5 6 
#
# 1 0.011405 -0.006112 -0.007684 0.000000 0.000000 0.000000
# 2 -0.006112 0.011884 -0.001960 0.000000 0.000000 0.000000
# 3 -0.007684 -0.001960 0.039370 0.000000 0.000000 0.000000
# 4 0.000000 0.000000 0.000000 0.089582 0.000000 0.000000
# 5 0.000000 0.000000 0.000000 0.000000 1.258475 0.000000
# 6 0.000000 0.000000 0.000000 0.000000 0.000000 0.027362
#
#
# Mechanical properties :
#
#
# Convention : Reuss Voigt Hill
#
# Bulk Modulus (GPa) = 32.10830 68.46744 50.28787
# Shear Modulus (GPa) = 3.37844 21.59767 12.48806
#
# Velocity S-wave (km/s) = 1.33856 3.38440 2.57351
# Velocity P-wave (km/s) = 4.40651 7.18216 5.95822
#
# Compressibility (1/GPa) = 0.03114460
#
# Stress axis : x y z
#
# Youngs Moduli (GPa) = 87.68363 84.14877 25.40011
#
# Poissons Ratio (x) = 0.51432 0.19519
# Poissons Ratio (y) = 0.53592 0.04979
# Poissons Ratio (z) = 0.67380 0.16496
#
# Static dielectric constant tensor:
#      x y z
#    x 3.610580 0.000000 0.000000 
#    y 0.000000 3.549510 0.000000 
#    z 0.000000 0.000000 2.991090 
# 
# 
# High freq. dielectric constant tensor:
#      x y z
#    x 1.743770 0.000000 0.000000 
#    y 0.000000 1.735110 0.000000 
#    z 0.000000 0.000000 1.687720 
# 
# From -- ./inp_files/7222.got.cif
#   From: 2010.03.12/outbox.cif.g09.slc.cpg/sg65_4_cif.got.tgz:7222.got - 2010.04.10 20:52:16.
