data_PCOD8266138
_publ_section_title
;
Structure prediction by ZEFSAII (Michael W. Deem and Ramdas Pophale) SiO2 
 PCOD8266138
Probable space group: C M M M
;
_chemical_formula_sum "Si O2"
_cell_formula_units_Z 96
_cell_length_a 13.659302
_cell_length_b 21.716698
_cell_length_c 15.765190
_cell_angle_alpha 90.000000
_cell_angle_beta 90.000000
_cell_angle_gamma 90.000000
_cell_volume 4676.506133
_symmetry_space_group_name_H-M "C M M M"
_symmetry_group_IT_number 65
_symmetry_cell_setting 'orthorhombic'
loop_
_space_group_symop_operation_xyz
x,y,z
-x,-y,z
x,-y,-z
-x,y,-z
-x,-y,-z
x,y,-z
-x,y,z
x,-y,z
1/2+x,1/2+y,z
1/2-x,1/2-y,z
1/2+x,1/2-y,-z
1/2-x,1/2+y,-z
1/2-x,1/2-y,-z
1/2+x,1/2+y,-z
1/2-x,1/2+y,z
1/2+x,1/2-y,z
loop_
_atom_site_type_symbol
_atom_site_label
_atom_site_fract_x
_atom_site_fract_y
_atom_site_fract_z
Si Si1 0.884859 0.758641 0.594291
Si Si2 0.886986 0.370632 0.653186
Si Si3 0.799307 0.620756 0.826786
Si Si4 0.611028 0.000000 0.099951
Si Si5 0.609288 0.000000 0.400880
Si Si6 0.388351 0.330291 0.760819
Si Si7 0.609294 0.229918 0.906364
O O1 0.854082 0.782436 0.500000
O O2 0.839403 0.689785 0.607522
O O3 0.851561 0.804715 0.669229
O O4 0.000000 0.752182 0.602866
O O5 0.876328 0.362188 0.753291
O O6 0.836400 0.436495 0.627991
O O7 0.000000 0.374050 0.625869
O O8 0.826251 0.557121 0.869040
O O9 0.688553 0.616863 0.788607
O O10 0.811519 0.675505 0.894896
O O11 0.500000 0.000000 0.137186
O O12 0.605573 0.000000 0.000000
O O13 0.500000 0.000000 0.360646
O O14 0.604218 0.000000 0.500000
O O15 0.500000 0.355934 0.756203
O O16 0.378751 0.278782 0.832152
O O17 0.500000 0.201570 0.902837
O O18 0.627568 0.259359 0.000000
#
# Coordination Sequence:
#
# PCOD8266138 Si02
#       7
#    16  16  16   8   8  16  16
#     4   9  17  32  54  80 116 160 202 253 313 362
#     4  10  18  29  49  78 113 153 197 246 300 361
#     4  12  22  36  59  83 115 155 195 235 295 353
#     4  11  25  43  64  93 124 153 191 239 294 363
#     4   9  17  29  45  70 108 152 192 229 283 353
#     4  10  22  39  57  83 118 155 202 251 295 348
#     4  10  20  35  58  87 118 151 189 236 290 350
#
# _framework density 20.528146
#
# number of rings (size 3 to 8) (size 9 to 14) (size 15 to 20)
#    0.000    1.833    1.667    3.500    0.000    6.000 
#    0.000    2.917    0.000    0.500    0.000    0.000 
#    0.000    3.333    0.000    0.000    0.000    0.000 
#
# Total GULP energy -594763.693574 kJ/mol
# GULP energy per Si atom -12390.910283 kJ/mol
# Density = 2.048142 g / cm^3
# Si number density = 20.528146 Si / 1000 Ang^3
#
#
#
# Elastic Constant Matrix: (Units=GPa)
#
#
# Indices 1 2 3 4 5 6 
#
# 1 96.4992 30.5346 23.8061 0.0000 0.0000 0.0000
# 2 30.5346 56.6962 29.3890 0.0000 0.0000 0.0000
# 3 23.8061 29.3890 135.1691 0.0000 0.0000 0.0000
# 4 0.0000 0.0000 0.0000 7.2152 0.0000 0.0000
# 5 0.0000 0.0000 0.0000 0.0000 13.5387 0.0000
# 6 0.0000 0.0000 0.0000 0.0000 0.0000 32.9042
#
#
#
# Elastic Compliance Matrix: (Units=1/GPa)
#
#
# Indices 1 2 3 4 5 6 
#
# 1 0.012575 -0.006339 -0.000836 0.000000 0.000000 0.000000
# 2 -0.006339 0.023073 -0.003900 0.000000 0.000000 0.000000
# 3 -0.000836 -0.003900 0.008393 0.000000 0.000000 0.000000
# 4 0.000000 0.000000 0.000000 0.138596 0.000000 0.000000
# 5 0.000000 0.000000 0.000000 0.000000 0.073863 0.000000
# 6 0.000000 0.000000 0.000000 0.000000 0.000000 0.030391
#
#
# Mechanical properties :
#
#
# Convention : Reuss Voigt Hill
#
# Bulk Modulus (GPa) = 45.68169 50.64712 48.16441
# Shear Modulus (GPa) = 15.80580 24.37393 20.08987
#
# Velocity S-wave (km/s) = 2.77782 3.44952 3.13173
# Velocity P-wave (km/s) = 5.70876 6.37112 6.04901
#
# Compressibility (1/GPa) = 0.02189061
#
# Stress axis : x y z
#
# Youngs Moduli (GPa) = 79.52360 43.33978 119.13991
#
# Poissons Ratio (x) = 0.27472 0.09966
# Poissons Ratio (y) = 0.50408 0.46469
# Poissons Ratio (z) = 0.06652 0.16904
#
# Static dielectric constant tensor:
#      x y z
#    x 3.769410 0.000000 0.000000 
#    y 0.000000 3.658430 0.000000 
#    z 0.000000 0.000000 3.930930 
# 
# 
# High freq. dielectric constant tensor:
#      x y z
#    x 1.784820 0.000000 0.000000 
#    y 0.000000 1.768270 0.000000 
#    z 0.000000 0.000000 1.821410 
# 
# From -- ./inp_files/40443.got.cif
#   From: 2010.03.12/outbox.cif.g09.slc.cpg/sg65_21_cif.got.tgz:40443.got - 2010.04.10 20:52:16.
