data_PCOD8266463
_publ_section_title
;
Structure prediction by ZEFSAII (Michael W. Deem and Ramdas Pophale) SiO2 
 PCOD8266463
Probable space group: C M M M
;
_chemical_formula_sum "Si O2"
_cell_formula_units_Z 80
_cell_length_a 20.504602
_cell_length_b 25.112464
_cell_length_c 8.694959
_cell_angle_alpha 90.000000
_cell_angle_beta 90.000000
_cell_angle_gamma 90.000000
_cell_volume 4477.217675
_symmetry_space_group_name_H-M "C M M M"
_symmetry_group_IT_number 65
_symmetry_cell_setting 'orthorhombic'
loop_
_space_group_symop_operation_xyz
x,y,z
-x,-y,z
x,-y,-z
-x,y,-z
-x,-y,-z
x,y,-z
-x,y,z
x,-y,z
1/2+x,1/2+y,z
1/2-x,1/2-y,z
1/2+x,1/2-y,-z
1/2-x,1/2+y,-z
1/2-x,1/2-y,-z
1/2+x,1/2+y,-z
1/2-x,1/2+y,z
1/2+x,1/2-y,z
loop_
_atom_site_type_symbol
_atom_site_label
_atom_site_fract_x
_atom_site_fract_y
_atom_site_fract_z
Si Si1 0.240543 0.115732 0.677139
Si Si2 0.117724 0.614945 0.183250
Si Si3 0.688046 0.284310 0.180417
Si Si4 0.750436 0.000000 0.673780
Si Si5 0.883236 0.500000 0.822818
Si Si6 0.426422 0.780278 0.323757
O O1 0.255994 0.127825 0.500000
O O2 0.306921 0.122749 0.772347
O O3 0.188172 0.157923 0.739235
O O4 0.210168 0.055598 0.697129
O O5 0.090633 0.556725 0.242781
O O6 0.074234 0.659041 0.265200
O O7 0.111814 0.620506 0.000000
O O8 0.750000 0.250000 0.238766
O O9 0.620973 0.255596 0.222112
O O10 0.691454 0.292783 0.000000
O O11 0.694035 0.000000 0.799371
O O12 0.720638 0.000000 0.500000
O O13 0.899875 0.500000 0.000000
O O14 0.403444 0.778070 0.500000
O O15 0.500000 0.758658 0.305538
#
# Coordination Sequence:
#
# PCOD8266463 Si02
#       6
#    16  16  16   8   8  16
#     4  10  18  30  51  77 107 138 170 211 256 302
#     4  10  18  31  50  73 101 135 174 215 259 304
#     4  11  22  35  54  80 106 135 175 216 258 311
#     4   8  16  28  44  73 106 135 166 204 254 304
#     4   8  16  28  45  69  98 132 171 213 254 299
#     4  11  24  39  54  74 101 136 176 217 264 314
#
# _framework density 17.868238999999999
#
# number of rings (size 3 to 8) (size 9 to 14) (size 15 to 20)
#    0.000    2.000    2.000    2.400    0.000    4.000 
#    0.000    0.500    0.000    3.000    0.000    0.700 
#    0.000    5.600    0.000    0.000    0.000    0.000 
#
# Total GULP energy -495661.117064 kJ/mol
# GULP energy per Si atom -12391.527927 kJ/mol
# Density = 1.782757 g / cm^3
# Si number density = 17.868239 Si / 1000 Ang^3
#
#
#
# Elastic Constant Matrix: (Units=GPa)
#
#
# Indices 1 2 3 4 5 6 
#
# 1 53.6930 34.9849 11.7308 0.0000 0.0000 0.0000
# 2 34.9849 126.1513 27.3902 0.0000 0.0000 0.0000
# 3 11.7308 27.3902 49.1659 0.0000 0.0000 0.0000
# 4 0.0000 0.0000 0.0000 29.0697 0.0000 0.0000
# 5 0.0000 0.0000 0.0000 0.0000 17.8449 0.0000
# 6 0.0000 0.0000 0.0000 0.0000 0.0000 16.7941
#
#
#
# Elastic Compliance Matrix: (Units=1/GPa)
#
#
# Indices 1 2 3 4 5 6 
#
# 1 0.022938 -0.005885 -0.002195 0.000000 0.000000 0.000000
# 2 -0.005885 0.010528 -0.004461 0.000000 0.000000 0.000000
# 3 -0.002195 -0.004461 0.023348 0.000000 0.000000 0.000000
# 4 0.000000 0.000000 0.000000 0.034400 0.000000 0.000000
# 5 0.000000 0.000000 0.000000 0.000000 0.056038 0.000000
# 6 0.000000 0.000000 0.000000 0.000000 0.000000 0.059545
#
#
# Mechanical properties :
#
#
# Convention : Reuss Voigt Hill
#
# Bulk Modulus (GPa) = 31.51246 41.91358 36.71302
# Shear Modulus (GPa) = 20.62237 23.06870 21.84553
#
# Velocity S-wave (km/s) = 3.40094 3.59701 3.50035
# Velocity P-wave (km/s) = 5.75293 6.38430 6.07682
#
# Compressibility (1/GPa) = 0.03173348
#
# Stress axis : x y z
#
# Youngs Moduli (GPa) = 43.59521 94.98890 42.83023
#
# Poissons Ratio (x) = 0.55900 0.09399
# Poissons Ratio (y) = 0.25655 0.19106
# Poissons Ratio (z) = 0.09567 0.42372
#
# Static dielectric constant tensor:
#      x y z
#    x 2.801690 0.000000 0.000000 
#    y 0.000000 3.829090 0.000000 
#    z 0.000000 0.000000 3.359880 
# 
# 
# High freq. dielectric constant tensor:
#      x y z
#    x 1.630450 0.000000 0.000000 
#    y 0.000000 1.710080 0.000000 
#    z 0.000000 0.000000 1.702270 
# 
# From -- ./inp_files/11542.got.cif
#   From: 2010.03.12/outbox.cif.g09.slc.cpg/sg65_6_cif.got.tgz:11542.got - 2010.04.10 20:52:16.
