data_PCOD8266258
_publ_section_title
;
Structure prediction by ZEFSAII (Michael W. Deem and Ramdas Pophale) SiO2 
 PCOD8266258
Probable space group: C M M M
;
_chemical_formula_sum "Si O2"
_cell_formula_units_Z 104
_cell_length_a 26.311884
_cell_length_b 16.741137
_cell_length_c 14.400406
_cell_angle_alpha 90.000000
_cell_angle_beta 90.000000
_cell_angle_gamma 90.000000
_cell_volume 6343.247148
_symmetry_space_group_name_H-M "C M M M"
_symmetry_group_IT_number 65
_symmetry_cell_setting 'orthorhombic'
loop_
_space_group_symop_operation_xyz
x,y,z
-x,-y,z
x,-y,-z
-x,y,-z
-x,-y,-z
x,y,-z
-x,y,z
x,-y,z
1/2+x,1/2+y,z
1/2-x,1/2-y,z
1/2+x,1/2-y,-z
1/2-x,1/2+y,-z
1/2-x,1/2-y,-z
1/2+x,1/2+y,-z
1/2-x,1/2+y,z
1/2+x,1/2-y,z
loop_
_atom_site_type_symbol
_atom_site_label
_atom_site_fract_x
_atom_site_fract_y
_atom_site_fract_z
Si Si1 0.783142 0.672240 0.898731
Si Si2 0.060154 0.500000 0.896227
Si Si3 0.140457 0.232790 0.214814
Si Si4 0.184614 0.910536 0.109511
Si Si5 0.439884 0.854573 0.231945
Si Si6 0.691552 0.237995 0.604898
Si Si7 0.373265 0.089269 0.604440
O O1 0.750000 0.750000 0.914143
O O2 0.826167 0.692068 0.823558
O O3 0.743661 0.604736 0.861949
O O4 0.806558 0.648019 0.000000
O O5 0.078268 0.420082 0.843528
O O6 0.000000 0.500000 0.900774
O O7 0.083589 0.500000 0.000000
O O8 0.145720 0.151610 0.156882
O O9 0.083131 0.266772 0.208485
O O10 0.157459 0.213432 0.320789
O O11 0.169669 0.000000 0.140305
O O12 0.178624 0.898481 0.000000
O O13 0.500000 0.845986 0.235744
O O14 0.419560 0.881793 0.331873
O O15 0.681067 0.269720 0.500000
O O16 0.750000 0.250000 0.632063
O O17 0.676598 0.144760 0.614056
O O18 0.394784 0.092953 0.500000
O O19 0.355982 0.000000 0.631359
#
# Coordination Sequence:
#
# PCOD8266258 Si02
#       7
#    16   8  16  16  16  16  16
#     4   8  14  26  44  66  91 116 144 181 227 279
#     4   9  18  32  45  59  87 123 154 188 227 269
#     4  10  18  30  48  67  90 124 160 190 229 280
#     4   9  17  30  49  72  95 116 145 192 243 284
#     4  10  20  33  47  66  93 123 160 199 234 277
#     4   9  17  29  44  65  95 127 155 184 223 272
#     4   9  17  30  50  73  95 121 155 197 240 277
#
# _framework density 16.395389000000002
#
# number of rings (size 3 to 8) (size 9 to 14) (size 15 to 20)
#    0.000    2.846    0.769    2.769    0.000    1.538 
#    1.385    4.615    0.000    1.846    0.000    1.077 
#    0.000    0.000    0.000    7.692    0.000    0.000 
#
# Total GULP energy -644371.169076 kJ/mol
# GULP energy per Si atom -12391.753251 kJ/mol
# Density = 1.635807 g / cm^3
# Si number density = 16.395389 Si / 1000 Ang^3
#
#
#
# Elastic Constant Matrix: (Units=GPa)
#
#
# Indices 1 2 3 4 5 6 
#
# 1 78.0803 45.4364 35.8295 0.0000 0.0000 0.0000
# 2 45.4364 108.8863 41.2868 0.0000 0.0000 0.0000
# 3 35.8295 41.2868 78.7183 0.0000 0.0000 0.0000
# 4 0.0000 0.0000 0.0000 21.9949 0.0000 0.0000
# 5 0.0000 0.0000 0.0000 0.0000 -68.1862 0.0000
# 6 0.0000 0.0000 0.0000 0.0000 0.0000 22.9791
#
#
#
# Elastic Compliance Matrix: (Units=1/GPa)
#
#
# Indices 1 2 3 4 5 6 
#
# 1 0.018645 -0.005695 -0.005500 0.000000 0.000000 0.000000
# 2 -0.005695 0.013203 -0.004333 0.000000 0.000000 0.000000
# 3 -0.005500 -0.004333 0.017479 0.000000 0.000000 0.000000
# 4 0.000000 0.000000 0.000000 0.045465 0.000000 0.000000
# 5 0.000000 0.000000 0.000000 0.000000 -0.014666 0.000000
# 6 0.000000 0.000000 0.000000 0.000000 0.000000 0.043518
#
#
# Mechanical properties :
#
#
# Convention : Reuss Voigt Hill
#
# Bulk Modulus (GPa) = 54.72615 56.75447 55.74031
# Shear Modulus (GPa) = 31.09645 4.89968 17.99807
#
# Velocity S-wave (km/s) = 4.35979 1.73059 3.31683
# Velocity P-wave (km/s) = 7.66780 6.21969 6.98139
#
# Compressibility (1/GPa) = 0.01827280
#
# Stress axis : x y z
#
# Youngs Moduli (GPa) = 53.63381 75.73925 57.21093
#
# Poissons Ratio (x) = 0.43133 0.31463
# Poissons Ratio (y) = 0.30544 0.24788
# Poissons Ratio (z) = 0.29496 0.32816
#
# Static dielectric constant tensor:
#      x y z
#    x 2.888550 0.000000 0.000000 
#    y 0.000000 3.167190 0.000000 
#    z 0.000000 0.000000 3.344910 
# 
# 
# High freq. dielectric constant tensor:
#      x y z
#    x 1.598120 0.000000 0.000000 
#    y 0.000000 1.610800 0.000000 
#    z 0.000000 0.000000 1.645090 
# 
# From -- ./inp_files/47185.got.cif
#   From: 2010.03.12/outbox.cif.g09.slc.cpg/sg65_24_cif.got.tgz:47185.got - 2010.04.10 20:52:16.
