data_PCOD8266044
_publ_section_title
;
Structure prediction by ZEFSAII (Michael W. Deem and Ramdas Pophale) SiO2 
 PCOD8266044
Probable space group: C M M M
;
_chemical_formula_sum "Si O2"
_cell_formula_units_Z 112
_cell_length_a 29.549806
_cell_length_b 23.280434
_cell_length_c 9.392495
_cell_angle_alpha 90.000000
_cell_angle_beta 90.000000
_cell_angle_gamma 90.000000
_cell_volume 6461.400766
_symmetry_space_group_name_H-M "C M M M"
_symmetry_group_IT_number 65
_symmetry_cell_setting 'orthorhombic'
loop_
_space_group_symop_operation_xyz
x,y,z
-x,-y,z
x,-y,-z
-x,y,-z
-x,-y,-z
x,y,-z
-x,y,z
x,-y,z
1/2+x,1/2+y,z
1/2-x,1/2-y,z
1/2+x,1/2-y,-z
1/2-x,1/2+y,-z
1/2-x,1/2-y,-z
1/2+x,1/2+y,-z
1/2-x,1/2+y,z
1/2+x,1/2-y,z
loop_
_atom_site_type_symbol
_atom_site_label
_atom_site_fract_x
_atom_site_fract_y
_atom_site_fract_z
Si Si1 0.550841 0.776553 0.166583
Si Si2 0.201244 0.766070 0.830944
Si Si3 0.948307 0.837336 0.334234
Si Si4 0.700507 0.604742 0.831831
Si Si5 0.360919 0.165064 0.168060
Si Si6 0.618780 0.563826 0.337075
Si Si7 0.799410 0.435817 0.169373
O O1 0.500000 0.796231 0.209020
O O2 0.565678 0.719240 0.247960
O O3 0.585823 0.827935 0.207296
O O4 0.554208 0.762300 0.000000
O O5 0.250000 0.750000 0.767049
O O6 0.189041 0.830382 0.783419
O O7 0.164851 0.720967 0.769573
O O8 0.203106 0.762620 0.000000
O O9 0.941002 0.824175 0.500000
O O10 0.917935 0.890437 0.280743
O O11 0.000000 0.854095 0.301618
O O12 0.664345 0.564690 0.755061
O O13 0.750754 0.587653 0.780222
O O14 0.696119 0.595974 0.000000
O O15 0.338969 0.106372 0.230148
O O16 0.353933 0.163723 0.000000
O O17 0.631460 0.577335 0.500000
O O18 0.597727 0.500000 0.322446
O O19 0.807630 0.500000 0.230242
O O20 0.800857 0.437040 0.000000
#
# Coordination Sequence:
#
# PCOD8266044 Si02
#       7
#    16  16  16  16  16  16  16
#     4   9  17  29  47  71  94 114 140 178 228 279
#     4   9  14  22  38  63  88 109 138 180 223 260
#     4   9  18  33  51  68  87 114 149 187 223 262
#     4  10  18  29  47  68  90 115 150 193 228 260
#     4   9  15  24  39  61  89 119 146 177 220 266
#     4  10  21  34  46  63  90 123 154 184 222 266
#     4   9  16  25  39  62  90 118 151 189 220 251
#
# _framework density 17.333703
#
# number of rings (size 3 to 8) (size 9 to 14) (size 15 to 20)
#    0.000    2.714    1.429    1.286    0.000    2.857 
#    0.000    1.429    0.000    1.714    0.000    6.000 
#    0.000    0.000    0.000    3.571    0.000    3.714 
#
# Total GULP energy -694124.336565 kJ/mol
# GULP energy per Si atom -12395.077439 kJ/mol
# Density = 1.729425 g / cm^3
# Si number density = 17.333703 Si / 1000 Ang^3
#
#
#
# Elastic Constant Matrix: (Units=GPa)
#
#
# Indices 1 2 3 4 5 6 
#
# 1 121.3374 72.2303 21.8908 0.0000 0.0000 0.0000
# 2 72.2303 131.0500 17.9626 0.0000 0.0000 0.0000
# 3 21.8908 17.9626 19.2699 0.0000 0.0000 0.0000
# 4 0.0000 0.0000 0.0000 13.0928 0.0000 0.0000
# 5 0.0000 0.0000 0.0000 0.0000 12.4893 0.0000
# 6 0.0000 0.0000 0.0000 0.0000 0.0000 27.0881
#
#
#
# Elastic Compliance Matrix: (Units=1/GPa)
#
#
# Indices 1 2 3 4 5 6 
#
# 1 0.013704 -0.006213 -0.009776 0.000000 0.000000 0.000000
# 2 -0.006213 0.011565 -0.003723 0.000000 0.000000 0.000000
# 3 -0.009776 -0.003723 0.066470 0.000000 0.000000 0.000000
# 4 0.000000 0.000000 0.000000 0.076378 0.000000 0.000000
# 5 0.000000 0.000000 0.000000 0.000000 0.080069 0.000000
# 6 0.000000 0.000000 0.000000 0.000000 0.000000 0.036917
#
#
# Mechanical properties :
#
#
# Convention : Reuss Voigt Hill
#
# Bulk Modulus (GPa) = 19.11464 55.09163 37.10313
# Shear Modulus (GPa) = 14.62140 21.17228 17.89684
#
# Velocity S-wave (km/s) = 2.90750 3.49872 3.21672
# Velocity P-wave (km/s) = 4.72470 6.94070 5.93701
#
# Compressibility (1/GPa) = 0.05231592
#
# Stress axis : x y z
#
# Youngs Moduli (GPa) = 72.97266 86.46513 15.04430
#
# Poissons Ratio (x) = 0.53721 0.14707
# Poissons Ratio (y) = 0.45338 0.05600
# Poissons Ratio (z) = 0.71339 0.32188
#
# Static dielectric constant tensor:
#      x y z
#    x 3.366650 0.000000 0.000000 
#    y 0.000000 3.421180 0.000000 
#    z 0.000000 0.000000 2.750960 
# 
# 
# High freq. dielectric constant tensor:
#      x y z
#    x 1.672880 0.000000 0.000000 
#    y 0.000000 1.666890 0.000000 
#    z 0.000000 0.000000 1.615350 
# 
# From -- ./inp_files/32932.got.cif
#   From: 2010.03.12/outbox.cif.g09.slc.cpg/sg65_17_cif.got.tgz:32932.got - 2010.04.10 20:52:16.
