data_PCOD8266655
_publ_section_title
;
Structure prediction by ZEFSAII (Michael W. Deem and Ramdas Pophale) SiO2 
 PCOD8266655
Probable space group: C M M M
;
_chemical_formula_sum "Si O2"
_cell_formula_units_Z 104
_cell_length_a 28.094737
_cell_length_b 22.684371
_cell_length_c 9.217157
_cell_angle_alpha 90.000000
_cell_angle_beta 90.000000
_cell_angle_gamma 90.000000
_cell_volume 5874.199575
_symmetry_space_group_name_H-M "C M M M"
_symmetry_group_IT_number 65
_symmetry_cell_setting 'orthorhombic'
loop_
_space_group_symop_operation_xyz
x,y,z
-x,-y,z
x,-y,-z
-x,y,-z
-x,-y,-z
x,y,-z
-x,y,z
x,-y,z
1/2+x,1/2+y,z
1/2-x,1/2-y,z
1/2+x,1/2-y,-z
1/2-x,1/2+y,-z
1/2-x,1/2-y,-z
1/2+x,1/2+y,-z
1/2-x,1/2+y,z
1/2+x,1/2-y,z
loop_
_atom_site_type_symbol
_atom_site_label
_atom_site_fract_x
_atom_site_fract_y
_atom_site_fract_z
Si Si1 0.500000 0.429564 0.338203
Si Si2 0.269111 0.067511 0.668390
Si Si3 0.089025 0.930313 0.162752
Si Si4 0.552623 0.933540 0.172064
Si Si5 0.351904 0.125570 0.826908
Si Si6 0.697589 0.242995 0.833148
Si Si7 0.184396 0.873731 0.832209
O O1 0.500000 0.500000 0.335985
O O2 0.500000 0.404605 0.500000
O O3 0.546545 0.404200 0.258942
O O4 0.275361 0.083670 0.500000
O O5 0.318421 0.077080 0.752322
O O6 0.229728 0.110114 0.736989
O O7 0.253123 0.000000 0.688750
O O8 0.139277 0.909706 0.227484
O O9 0.087340 0.000000 0.163936
O O10 0.082778 0.905631 0.000000
O O11 0.500000 0.913024 0.228045
O O12 0.593942 0.888415 0.225215
O O13 0.563250 0.000000 0.228810
O O14 0.552193 0.934469 0.000000
O O15 0.335071 0.190284 0.768621
O O16 0.347736 0.119776 0.000000
O O17 0.750000 0.250000 0.759415
O O18 0.670828 0.305024 0.814132
O O19 0.706100 0.226198 0.000000
O O20 0.195652 0.889242 0.000000
#
# Coordination Sequence:
#
# PCOD8266655 Si02
#       7
#     8  16  16  16  16  16  16
#     4   9  17  29  47  69  93 123 155 191 240 293
#     4  11  23  34  45  69 104 131 157 202 248 287
#     4   9  17  29  47  70  94 122 158 199 240 287
#     4   8  14  25  44  73 102 123 153 202 250 290
#     4  10  18  31  53  73  95 131 168 199 241 298
#     4   9  16  29  49  73  97 123 160 206 241 274
#     4  10  19  33  52  71  96 130 165 200 242 294
#
# _framework density 17.704540000000001
#
# number of rings (size 3 to 8) (size 9 to 14) (size 15 to 20)
#    0.000    2.538    1.538    2.077    0.000    4.000 
#    0.000    3.077    1.692    0.462    0.000    2.154 
#    0.000    0.000    0.000    0.000    0.000    0.000 
#
# Total GULP energy -644518.058804 kJ/mol
# GULP energy per Si atom -12394.578054 kJ/mol
# Density = 1.766424 g / cm^3
# Si number density = 17.704540 Si / 1000 Ang^3
#
#
#
# Elastic Constant Matrix: (Units=GPa)
#
#
# Indices 1 2 3 4 5 6 
#
# 1 154.2487 45.4995 39.7710 0.0000 0.0000 0.0000
# 2 45.4995 69.4530 20.2635 0.0000 0.0000 0.0000
# 3 39.7710 20.2635 49.1923 0.0000 0.0000 0.0000
# 4 0.0000 0.0000 0.0000 11.8500 0.0000 0.0000
# 5 0.0000 0.0000 0.0000 0.0000 5.5976 0.0000
# 6 0.0000 0.0000 0.0000 0.0000 0.0000 24.5286
#
#
#
# Elastic Compliance Matrix: (Units=1/GPa)
#
#
# Indices 1 2 3 4 5 6 
#
# 1 0.009240 -0.004403 -0.005657 0.000000 0.000000 0.000000
# 2 -0.004403 0.018463 -0.004046 0.000000 0.000000 0.000000
# 3 -0.005657 -0.004046 0.026568 0.000000 0.000000 0.000000
# 4 0.000000 0.000000 0.000000 0.084388 0.000000 0.000000
# 5 0.000000 0.000000 0.000000 0.000000 0.178649 0.000000
# 6 0.000000 0.000000 0.000000 0.000000 0.000000 0.040769
#
#
# Mechanical properties :
#
#
# Convention : Reuss Voigt Hill
#
# Bulk Modulus (GPa) = 38.37205 53.77358 46.07281
# Shear Modulus (GPa) = 12.65899 19.55256 16.10577
#
# Velocity S-wave (km/s) = 2.67687 3.32683 3.01939
# Velocity P-wave (km/s) = 5.59239 6.72278 6.18347
#
# Compressibility (1/GPa) = 0.02606064
#
# Stress axis : x y z
#
# Youngs Moduli (GPa) = 108.22050 54.16225 37.63868
#
# Poissons Ratio (x) = 0.23848 0.21292
# Poissons Ratio (y) = 0.47650 0.15227
# Poissons Ratio (z) = 0.61220 0.21912
#
# Static dielectric constant tensor:
#      x y z
#    x 3.559740 0.000000 0.000000 
#    y 0.000000 3.210090 0.000000 
#    z 0.000000 0.000000 3.008620 
# 
# 
# High freq. dielectric constant tensor:
#      x y z
#    x 1.690270 0.000000 0.000000 
#    y 0.000000 1.667930 0.000000 
#    z 0.000000 0.000000 1.645750 
# 
# From -- ./inp_files/18853.got.cif
#   From: 2010.03.12/outbox.cif.g09.slc.cpg/sg65_10_cif.got.tgz:18853.got - 2010.04.10 20:52:16.
