data_PCOD8266835
_publ_section_title
;
Structure prediction by ZEFSAII (Michael W. Deem and Ramdas Pophale) SiO2 
 PCOD8266835
Probable space group: C M M M
;
_chemical_formula_sum "Si O2"
_cell_formula_units_Z 56
_cell_length_a 39.193368
_cell_length_b 9.020114
_cell_length_c 9.521336
_cell_angle_alpha 90.000000
_cell_angle_beta 90.000000
_cell_angle_gamma 90.000000
_cell_volume 3366.065038
_symmetry_space_group_name_H-M "C M M M"
_symmetry_group_IT_number 65
_symmetry_cell_setting 'orthorhombic'
loop_
_space_group_symop_operation_xyz
x,y,z
-x,-y,z
x,-y,-z
-x,y,-z
-x,-y,-z
x,y,-z
-x,y,z
x,-y,z
1/2+x,1/2+y,z
1/2-x,1/2-y,z
1/2+x,1/2-y,-z
1/2-x,1/2+y,-z
1/2-x,1/2-y,-z
1/2+x,1/2+y,-z
1/2-x,1/2+y,z
1/2+x,1/2-y,z
loop_
_atom_site_type_symbol
_atom_site_label
_atom_site_fract_x
_atom_site_fract_y
_atom_site_fract_z
Si Si1 0.962532 0.666568 0.833132
Si Si2 0.603568 0.331783 0.833351
Si Si3 0.713338 0.676653 0.500000
Si Si4 0.158231 0.667851 0.346072
O O1 0.955464 0.500000 0.778760
O O2 0.932839 0.773135 0.775541
O O3 0.000000 0.720618 0.780150
O O4 0.962214 0.668071 0.000000
O O5 0.607473 0.500000 0.782663
O O6 0.633995 0.236207 0.770603
O O7 0.605680 0.317086 0.000000
O O8 0.716040 0.500000 0.500000
O O9 0.750000 0.750000 0.500000
O O10 0.693018 0.734771 0.639173
O O11 0.139901 0.668132 0.500000
O O12 0.167600 0.500000 0.301151
#
# Coordination Sequence:
#
# PCOD8266835 Si02
#       4
#    16  16   8  16
#     4   8  14  25  41  61  87 122 162 201 240 282
#     4  10  19  29  45  71 100 129 160 198 245 289
#     4  10  18  32  54  78 101 124 155 194 230 274
#     4   9  19  33  50  73  96 126 163 197 234 279
#
# _framework density 16.636635999999999
#
# number of rings (size 3 to 8) (size 9 to 14) (size 15 to 20)
#    0.857    2.000    0.000    3.429    0.000    2.286 
#    0.000    2.857    0.000    1.714    0.000    6.000 
#    0.000    0.000    0.000    0.000    0.000    0.000 
#
# Total GULP energy -346909.314752 kJ/mol
# GULP energy per Si atom -12389.618384 kJ/mol
# Density = 1.659877 g / cm^3
# Si number density = 16.636636 Si / 1000 Ang^3
#
#
#
# Elastic Constant Matrix: (Units=GPa)
#
#
# Indices 1 2 3 4 5 6 
#
# 1 133.4469 74.2815 24.2756 0.0000 0.0000 0.0000
# 2 74.2815 150.3893 23.6321 0.0000 0.0000 0.0000
# 3 24.2756 23.6321 17.8760 0.0000 0.0000 0.0000
# 4 0.0000 0.0000 0.0000 21.9806 0.0000 0.0000
# 5 0.0000 0.0000 0.0000 0.0000 12.1457 0.0000
# 6 0.0000 0.0000 0.0000 0.0000 0.0000 35.4079
#
#
#
# Elastic Compliance Matrix: (Units=1/GPa)
#
#
# Indices 1 2 3 4 5 6 
#
# 1 0.011690 -0.004139 -0.010403 0.000000 0.000000 0.000000
# 2 -0.004139 0.009859 -0.007412 0.000000 0.000000 0.000000
# 3 -0.010403 -0.007412 0.079867 0.000000 0.000000 0.000000
# 4 0.000000 0.000000 0.000000 0.045495 0.000000 0.000000
# 5 0.000000 0.000000 0.000000 0.000000 0.082334 0.000000
# 6 0.000000 0.000000 0.000000 0.000000 0.000000 0.028242
#
#
# Mechanical properties :
#
#
# Convention : Reuss Voigt Hill
#
# Bulk Modulus (GPa) = 17.38913 60.67671 39.03292
# Shear Modulus (GPa) = 15.59751 25.87506 20.73628
#
# Velocity S-wave (km/s) = 3.06525 3.94802 3.53430
# Velocity P-wave (km/s) = 4.79611 7.57188 6.33782
#
# Compressibility (1/GPa) = 0.05750718
#
# Stress axis : x y z
#
# Youngs Moduli (GPa) = 85.54190 101.43362 12.52083
#
# Poissons Ratio (x) = 0.41987 0.13025
# Poissons Ratio (y) = 0.35409 0.09280
# Poissons Ratio (z) = 0.88989 0.75181
#
# Static dielectric constant tensor:
#      x y z
#    x 3.186720 0.000000 0.000000 
#    y 0.000000 3.331960 0.000000 
#    z 0.000000 0.000000 2.646530 
# 
# 
# High freq. dielectric constant tensor:
#      x y z
#    x 1.639720 0.000000 0.000000 
#    y 0.000000 1.655310 0.000000 
#    z 0.000000 0.000000 1.587320 
# 
# From -- ./inp_files/31756.got.cif
#   From: 2010.03.12/outbox.cif.g09.slc.cpg/sg65_16_cif.got.tgz:31756.got - 2010.04.10 20:52:16.
