data_PCOD8266033
_publ_section_title
;
Structure prediction by ZEFSAII (Michael W. Deem and Ramdas Pophale) SiO2 
 PCOD8266033
Probable space group: C M M M
;
_chemical_formula_sum "Si O2"
_cell_formula_units_Z 120
_cell_length_a 26.839533
_cell_length_b 19.845703
_cell_length_c 13.716017
_cell_angle_alpha 90.000000
_cell_angle_beta 90.000000
_cell_angle_gamma 90.000000
_cell_volume 7305.828233
_symmetry_space_group_name_H-M "C M M M"
_symmetry_group_IT_number 65
_symmetry_cell_setting 'orthorhombic'
loop_
_space_group_symop_operation_xyz
x,y,z
-x,-y,z
x,-y,-z
-x,y,-z
-x,-y,-z
x,y,-z
-x,y,z
x,-y,z
1/2+x,1/2+y,z
1/2-x,1/2-y,z
1/2+x,1/2-y,-z
1/2-x,1/2+y,-z
1/2-x,1/2-y,-z
1/2+x,1/2+y,-z
1/2-x,1/2+y,z
1/2+x,1/2-y,z
loop_
_atom_site_type_symbol
_atom_site_label
_atom_site_fract_x
_atom_site_fract_y
_atom_site_fract_z
Si Si1 0.785320 0.693725 0.390162
Si Si2 0.000000 0.579554 0.891778
Si Si3 0.554942 0.678831 0.615753
Si Si4 0.139430 0.922070 0.386829
Si Si5 0.102094 0.685072 0.611225
Si Si6 0.695533 0.078378 0.107460
Si Si7 0.401656 0.919912 0.777078
Si Si8 0.759305 0.077149 0.717101
O O1 0.766539 0.685108 0.500000
O O2 0.750000 0.750000 0.338671
O O3 0.842361 0.715823 0.383571
O O4 0.780305 0.621084 0.341329
O O5 0.049715 0.602951 0.836652
O O6 0.000000 0.500000 0.900268
O O7 0.000000 0.611626 0.000000
O O8 0.556010 0.678884 0.500000
O O9 0.500000 0.660147 0.655366
O O10 0.593513 0.622239 0.652399
O O11 0.568270 0.754013 0.652312
O O12 0.153467 0.905952 0.500000
O O13 0.184908 0.903435 0.314621
O O14 0.124411 0.000000 0.376069
O O15 0.088325 0.665802 0.500000
O O16 0.095303 0.617762 0.673744
O O17 0.646984 0.106407 0.164226
O O18 0.746884 0.090628 0.168384
O O19 0.686051 0.000000 0.093151
O O20 0.700679 0.112330 0.000000
O O21 0.400059 0.000000 0.757297
O O22 0.748077 0.000000 0.689497
#
# Coordination Sequence:
#
# PCOD8266033 Si02
#       8
#    16   8  16  16  16  16  16  16
#     4  10  19  30  45  66  94 129 164 192 222 268
#     4   9  18  32  51  71  89 113 153 208 254 282
#     4   9  18  32  48  66  92 127 163 195 234 285
#     4   9  17  29  47  73 101 124 151 193 239 285
#     4  10  20  31  44  66  96 129 164 196 226 274
#     4   9  17  30  48  69  95 124 156 198 243 285
#     4  10  19  32  48  70  95 122 161 203 241 279
#     4  10  18  29  46  71  98 126 159 194 237 282
#
# _framework density 16.425242999999998
#
# number of rings (size 3 to 8) (size 9 to 14) (size 15 to 20)
#    0.000    2.467    1.333    1.600    0.933    5.067 
#    0.000    2.667    0.000    1.600    0.000    0.000 
#    0.000    0.000    0.000    5.200    0.000    0.133 
#
# Total GULP energy -743674.397813 kJ/mol
# GULP energy per Si atom -12394.573297 kJ/mol
# Density = 1.638786 g / cm^3
# Si number density = 16.425243 Si / 1000 Ang^3
#
#
#
# Elastic Constant Matrix: (Units=GPa)
#
#
# Indices 1 2 3 4 5 6 
#
# 1 113.7150 38.2261 51.0182 0.0000 0.0000 0.0000
# 2 38.2261 54.6250 37.2297 0.0000 0.0000 0.0000
# 3 51.0182 37.2297 89.2489 0.0000 0.0000 0.0000
# 4 0.0000 0.0000 0.0000 8.3619 0.0000 0.0000
# 5 0.0000 0.0000 0.0000 0.0000 13.3925 0.0000
# 6 0.0000 0.0000 0.0000 0.0000 0.0000 24.3409
#
#
#
# Elastic Compliance Matrix: (Units=1/GPa)
#
#
# Indices 1 2 3 4 5 6 
#
# 1 0.012952 -0.005614 -0.005062 0.000000 0.000000 0.000000
# 2 -0.005614 0.028012 -0.008476 0.000000 0.000000 0.000000
# 3 -0.005062 -0.008476 0.017634 0.000000 0.000000 0.000000
# 4 0.000000 0.000000 0.000000 0.119590 0.000000 0.000000
# 5 0.000000 0.000000 0.000000 0.000000 0.074669 0.000000
# 6 0.000000 0.000000 0.000000 0.000000 0.000000 0.041083
#
#
# Mechanical properties :
#
#
# Convention : Reuss Voigt Hill
#
# Bulk Modulus (GPa) = 49.27491 56.72633 53.00062
# Shear Modulus (GPa) = 14.74891 17.96006 16.35448
#
# Velocity S-wave (km/s) = 2.99982 3.31031 3.15888
# Velocity P-wave (km/s) = 6.48561 7.01583 6.75593
#
# Compressibility (1/GPa) = 0.02029431
#
# Stress axis : x y z
#
# Youngs Moduli (GPa) = 77.20715 35.69921 56.70814
#
# Poissons Ratio (x) = 0.20040 0.28707
# Poissons Ratio (y) = 0.43341 0.48066
# Poissons Ratio (z) = 0.39084 0.30259
#
# Static dielectric constant tensor:
#      x y z
#    x 3.270310 0.000000 0.000000 
#    y 0.000000 2.955440 0.000000 
#    z 0.000000 0.000000 3.057360 
# 
# 
# High freq. dielectric constant tensor:
#      x y z
#    x 1.637770 0.000000 0.000000 
#    y 0.000000 1.615000 0.000000 
#    z 0.000000 0.000000 1.600720 
# 
# From -- ./inp_files/34286.got.cif
#   From: 2010.03.12/outbox.cif.g09.slc.cpg/sg65_18_cif.got.tgz:34286.got - 2010.04.10 20:52:16.
