data_PCOD8266714
_publ_section_title
;
Structure prediction by ZEFSAII (Michael W. Deem and Ramdas Pophale) SiO2 
 PCOD8266714
Probable space group: C M M M
;
_chemical_formula_sum "Si O2"
_cell_formula_units_Z 128
_cell_length_a 22.677177
_cell_length_b 18.596881
_cell_length_c 18.020582
_cell_angle_alpha 90.000000
_cell_angle_beta 90.000000
_cell_angle_gamma 90.000000
_cell_volume 7599.725657
_symmetry_space_group_name_H-M "C M M M"
_symmetry_group_IT_number 65
_symmetry_cell_setting 'orthorhombic'
loop_
_space_group_symop_operation_xyz
x,y,z
-x,-y,z
x,-y,-z
-x,y,-z
-x,-y,-z
x,y,-z
-x,y,z
x,-y,z
1/2+x,1/2+y,z
1/2-x,1/2-y,z
1/2+x,1/2-y,-z
1/2-x,1/2+y,-z
1/2-x,1/2-y,-z
1/2+x,1/2+y,-z
1/2-x,1/2+y,z
1/2+x,1/2-y,z
loop_
_atom_site_type_symbol
_atom_site_label
_atom_site_fract_x
_atom_site_fract_y
_atom_site_fract_z
Si Si1 0.328683 0.685898 0.862656
Si Si2 0.153174 0.580200 0.789094
Si Si3 0.187617 0.211178 0.696446
Si Si4 0.744366 0.917959 0.661929
Si Si5 0.067872 0.416730 0.335300
Si Si6 0.296724 0.836785 0.915442
Si Si7 0.066805 0.918517 0.087717
Si Si8 0.150101 0.675036 0.584127
O O1 0.339903 0.712181 0.778484
O O2 0.319474 0.754687 0.915960
O O3 0.266255 0.645689 0.875710
O O4 0.384653 0.636775 0.881850
O O5 0.136457 0.500000 0.810692
O O6 0.213535 0.584577 0.742325
O O7 0.101378 0.612625 0.737682
O O8 0.155497 0.621001 0.866881
O O9 0.250000 0.250000 0.701890
O O10 0.195512 0.128594 0.668815
O O11 0.148508 0.255030 0.637499
O O12 0.703337 0.880184 0.600549
O O13 0.758838 0.000000 0.638271
O O14 0.084372 0.500000 0.350292
O O15 0.089480 0.369410 0.404976
O O16 0.000000 0.404729 0.322024
O O17 0.295022 0.864739 0.000000
O O18 0.000000 0.897150 0.113469
O O19 0.080982 0.000000 0.115238
O O20 0.069941 0.916088 0.000000
O O21 0.155108 0.702434 0.500000
#
# Coordination Sequence:
#
# PCOD8266714 Si02
#       8
#    16  16  16  16  16  16  16  16
#     4  11  18  32  50  70  97 136 172 210 250 297
#     4   9  17  32  49  68  98 129 164 207 246 296
#     4  10  18  32  50  68  99 136 166 197 244 300
#     4   9  17  30  48  69  95 131 166 197 240 295
#     4   9  18  33  54  75  95 128 168 203 246 299
#     4  11  20  29  46  74 103 132 166 209 259 302
#     4   9  19  35  52  72 101 134 168 212 263 306
#     4  10  20  32  48  73 102 129 159 202 252 298
#
# _framework density 16.842713
#
# number of rings (size 3 to 8) (size 9 to 14) (size 15 to 20)
#    0.000    2.250    2.500    4.500    0.000    4.750 
#    0.000    3.125    0.000    1.125    0.000    1.750 
#    0.000    0.000    0.000    2.500    0.000    0.000 
#
# Total GULP energy -793100.997042 kJ/mol
# GULP energy per Si atom -12392.203079 kJ/mol
# Density = 1.680438 g / cm^3
# Si number density = 16.842713 Si / 1000 Ang^3
#
#
#
# Elastic Constant Matrix: (Units=GPa)
#
#
# Indices 1 2 3 4 5 6 
#
# 1 68.1095 41.0331 29.1545 0.0000 0.0000 0.0000
# 2 41.0331 79.2528 34.5129 0.0000 0.0000 0.0000
# 3 29.1545 34.5129 111.6717 0.0000 0.0000 0.0000
# 4 0.0000 0.0000 0.0000 14.9801 0.0000 0.0000
# 5 0.0000 0.0000 0.0000 0.0000 10.6698 0.0000
# 6 0.0000 0.0000 0.0000 0.0000 0.0000 26.3669
#
#
#
# Elastic Compliance Matrix: (Units=1/GPa)
#
#
# Indices 1 2 3 4 5 6 
#
# 1 0.021955 -0.010251 -0.002564 0.000000 0.000000 0.000000
# 2 -0.010251 0.019366 -0.003309 0.000000 0.000000 0.000000
# 3 -0.002564 -0.003309 0.010647 0.000000 0.000000 0.000000
# 4 0.000000 0.000000 0.000000 0.066755 0.000000 0.000000
# 5 0.000000 0.000000 0.000000 0.000000 0.093722 0.000000
# 6 0.000000 0.000000 0.000000 0.000000 0.000000 0.037926
#
#
# Mechanical properties :
#
#
# Convention : Reuss Voigt Hill
#
# Bulk Modulus (GPa) = 50.70751 52.04833 51.37792
# Shear Modulus (GPa) = 17.28945 20.69226 18.99085
#
# Velocity S-wave (km/s) = 3.20742 3.50888 3.36153
# Velocity P-wave (km/s) = 6.62484 6.88375 6.75554
#
# Compressibility (1/GPa) = 0.01972095
#
# Stress axis : x y z
#
# Youngs Moduli (GPa) = 45.54681 51.63622 93.92444
#
# Poissons Ratio (x) = 0.52932 0.24081
# Poissons Ratio (y) = 0.46690 0.31080
# Poissons Ratio (z) = 0.11678 0.17087
#
# Static dielectric constant tensor:
#      x y z
#    x 2.980570 0.000000 0.000000 
#    y 0.000000 3.368850 0.000000 
#    z 0.000000 0.000000 3.050430 
# 
# 
# High freq. dielectric constant tensor:
#      x y z
#    x 1.612090 0.000000 0.000000 
#    y 0.000000 1.649670 0.000000 
#    z 0.000000 0.000000 1.638310 
# 
# From -- ./inp_files/57020.got.cif
#   From: 2010.03.12/outbox.cif.g09.slc.cpg/sg65_29_cif.got.tgz:57020.got - 2010.04.10 20:52:16.
