data_PCOD8266369
_publ_section_title
;
Structure prediction by ZEFSAII (Michael W. Deem and Ramdas Pophale) SiO2 
 PCOD8266369
Probable space group: C M M M
;
_chemical_formula_sum "Si O2"
_cell_formula_units_Z 56
_cell_length_a 16.532632
_cell_length_b 25.149244
_cell_length_c 7.501483
_cell_angle_alpha 90.000000
_cell_angle_beta 90.000000
_cell_angle_gamma 90.000000
_cell_volume 3118.990577
_symmetry_space_group_name_H-M "C M M M"
_symmetry_group_IT_number 65
_symmetry_cell_setting 'orthorhombic'
loop_
_space_group_symop_operation_xyz
x,y,z
-x,-y,z
x,-y,-z
-x,y,-z
-x,-y,-z
x,y,-z
-x,y,z
x,-y,z
1/2+x,1/2+y,z
1/2-x,1/2-y,z
1/2+x,1/2-y,-z
1/2-x,1/2+y,-z
1/2-x,1/2-y,-z
1/2+x,1/2+y,-z
1/2-x,1/2+y,z
1/2+x,1/2-y,z
loop_
_atom_site_type_symbol
_atom_site_label
_atom_site_fract_x
_atom_site_fract_y
_atom_site_fract_z
Si Si1 0.910047 0.832845 0.500000
Si Si2 0.286641 0.305889 0.795507
Si Si3 0.410191 0.000000 0.790804
Si Si4 0.777827 0.582561 0.206123
Si Si5 0.848476 0.943175 0.500000
O O1 0.865806 0.813890 0.677896
O O2 0.914569 0.896913 0.500000
O O3 0.000000 0.809257 0.500000
O O4 0.250000 0.250000 0.735729
O O5 0.220442 0.353182 0.764285
O O6 0.315072 0.304572 0.000000
O O7 0.361418 0.053694 0.733739
O O8 0.500000 0.000000 0.701334
O O9 0.421641 0.000000 0.000000
O O10 0.706062 0.559336 0.323317
O O11 0.759588 0.568877 0.000000
O O12 0.893587 0.000000 0.500000
#
# Coordination Sequence:
#
# PCOD8266369 Si02
#       5
#     8  16   8  16   8
#     4  10  21  34  50  75 106 132 158 208 264 299
#     4   9  18  34  56  76  95 130 176 211 244 300
#     4   9  16  27  45  69  98 128 156 196 252 301
#     4   9  17  30  48  70  97 127 163 205 246 291
#     4  10  18  30  50  71  92 129 171 200 237 300
#
# _framework density 17.954528
#
# number of rings (size 3 to 8) (size 9 to 14) (size 15 to 20)
#    0.000    2.714    1.429    0.429    0.000    0.857 
#    0.000    2.857    0.000    5.143    0.000    8.000 
#    0.000    0.000    0.000    0.000    0.000    0.000 
#
# Total GULP energy -346948.607987 kJ/mol
# GULP energy per Si atom -12391.021714 kJ/mol
# Density = 1.791366 g / cm^3
# Si number density = 17.954528 Si / 1000 Ang^3
#
#
#
# Elastic Constant Matrix: (Units=GPa)
#
#
# Indices 1 2 3 4 5 6 
#
# 1 113.2147 54.3781 33.6938 0.0000 0.0000 0.0000
# 2 54.3781 153.4617 31.4374 0.0000 0.0000 0.0000
# 3 33.6938 31.4374 71.4097 0.0000 0.0000 0.0000
# 4 0.0000 0.0000 0.0000 -2.6861 0.0000 0.0000
# 5 0.0000 0.0000 0.0000 0.0000 16.4957 0.0000
# 6 0.0000 0.0000 0.0000 0.0000 0.0000 15.8680
#
#
#
# Elastic Compliance Matrix: (Units=1/GPa)
#
#
# Indices 1 2 3 4 5 6 
#
# 1 0.011612 -0.003289 -0.004031 0.000000 0.000000 0.000000
# 2 -0.003289 0.008094 -0.002011 0.000000 0.000000 0.000000
# 3 -0.004031 -0.002011 0.016791 0.000000 0.000000 0.000000
# 4 0.000000 0.000000 0.000000 -0.372293 0.000000 0.000000
# 5 0.000000 0.000000 0.000000 0.000000 0.060622 0.000000
# 6 0.000000 0.000000 0.000000 0.000000 0.000000 0.063020
#
#
# Mechanical properties :
#
#
# Convention : Reuss Voigt Hill
#
# Bulk Modulus (GPa) = 56.07170 64.12275 60.09723
# Shear Modulus (GPa) = -26.66011 20.50729 -3.07641
#
# Velocity S-wave (km/s) = -3.85758 3.38328 -1.31041
# Velocity P-wave (km/s) = 3.38473 7.14518 5.59062
#
# Compressibility (1/GPa) = 0.01783431
#
# Stress axis : x y z
#
# Youngs Moduli (GPa) = 86.11646 123.55262 59.55486
#
# Poissons Ratio (x) = 0.40635 0.24008
# Poissons Ratio (y) = 0.28323 0.11979
# Poissons Ratio (z) = 0.34715 0.24851
#
# Static dielectric constant tensor:
#      x y z
#    x 3.054360 0.000000 0.000000 
#    y 0.000000 3.695070 0.000000 
#    z 0.000000 0.000000 3.380730 
# 
# 
# High freq. dielectric constant tensor:
#      x y z
#    x 1.651090 0.000000 0.000000 
#    y 0.000000 1.707780 0.000000 
#    z 0.000000 0.000000 1.706850 
# 
# From -- ./inp_files/6615.got.cif
#   From: 2010.03.12/outbox.cif.g09.slc.cpg/sg65_4_cif.got.tgz:6615.got - 2010.04.10 20:52:16.
