data_PCOD8266999
_publ_section_title
;
Structure prediction by ZEFSAII (Michael W. Deem and Ramdas Pophale) SiO2 
 PCOD8266999
Probable space group: C M M M
;
_chemical_formula_sum "Si O2"
_cell_formula_units_Z 120
_cell_length_a 13.937685
_cell_length_b 21.499837
_cell_length_c 21.853127
_cell_angle_alpha 90.000000
_cell_angle_beta 90.000000
_cell_angle_gamma 90.000000
_cell_volume 6548.463362
_symmetry_space_group_name_H-M "C M M M"
_symmetry_group_IT_number 65
_symmetry_cell_setting 'orthorhombic'
loop_
_space_group_symop_operation_xyz
x,y,z
-x,-y,z
x,-y,-z
-x,y,-z
-x,-y,-z
x,y,-z
-x,y,z
x,-y,z
1/2+x,1/2+y,z
1/2-x,1/2-y,z
1/2+x,1/2-y,-z
1/2-x,1/2+y,-z
1/2-x,1/2-y,-z
1/2+x,1/2+y,-z
1/2-x,1/2+y,z
1/2+x,1/2-y,z
loop_
_atom_site_type_symbol
_atom_site_label
_atom_site_fract_x
_atom_site_fract_y
_atom_site_fract_z
Si Si1 0.892541 0.500000 0.927670
Si Si2 0.110785 0.071168 0.428955
Si Si3 0.893604 0.716559 0.697424
Si Si4 0.691121 0.129551 0.068962
Si Si5 0.109039 0.071402 0.768512
Si Si6 0.856201 0.268830 0.166359
Si Si7 0.797147 0.846337 0.670665
Si Si8 0.603086 0.358259 0.109897
O O1 0.835349 0.561184 0.906017
O O2 0.000000 0.500000 0.899718
O O3 0.898231 0.500000 0.000000
O O4 0.130326 0.083475 0.500000
O O5 0.177555 0.118287 0.391796
O O6 0.000000 0.083914 0.412656
O O7 0.136438 0.000000 0.411774
O O8 0.903839 0.708834 0.770849
O O9 0.861659 0.785320 0.677933
O O10 0.816543 0.668236 0.669954
O O11 0.000000 0.703199 0.670162
O O12 0.641459 0.177997 0.114601
O O13 0.806439 0.138766 0.064700
O O14 0.651588 0.140500 0.000000
O O15 0.182987 0.109987 0.728314
O O16 0.122107 0.090376 0.838586
O O17 0.000000 0.083848 0.746268
O O18 0.136780 0.000000 0.761549
O O19 0.750000 0.250000 0.185525
O O20 0.910055 0.209378 0.139863
O O21 0.500000 0.372424 0.076980
#
# Coordination Sequence:
#
# PCOD8266999 Si02
#       8
#     8  16  16  16  16  16  16  16
#     4   9  20  40  59  73  91 123 174 226 266 311
#     4   9  18  33  56  88 121 150 185 230 272 308
#     4  11  21  34  53  79 110 145 183 225 275 325
#     4  10  22  38  56  78 103 134 176 224 271 330
#     4  10  19  31  52  80 106 137 178 221 267 325
#     4  10  18  35  56  78 105 141 176 222 277 324
#     4  11  19  33  55  82 109 150 184 222 270 318
#     4  10  20  33  52  79 110 139 167 211 270 334
#
# _framework density 18.324909999999999
#
# number of rings (size 3 to 8) (size 9 to 14) (size 15 to 20)
#    0.000    1.933    2.667    3.200    0.933    4.800 
#    0.000    1.333    0.000    4.000    0.000    0.933 
#    0.000    0.000    0.000    0.000    0.000    0.000 
#
# Total GULP energy -743835.265633 kJ/mol
# GULP energy per Si atom -12397.254427 kJ/mol
# Density = 1.828320 g / cm^3
# Si number density = 18.324910 Si / 1000 Ang^3
#
#
#
# Elastic Constant Matrix: (Units=GPa)
#
#
# Indices 1 2 3 4 5 6 
#
# 1 117.1154 51.1201 29.0896 0.0000 0.0000 0.0000
# 2 51.1201 104.7146 35.1864 0.0000 0.0000 0.0000
# 3 29.0896 35.1864 65.0952 0.0000 0.0000 0.0000
# 4 0.0000 0.0000 0.0000 23.9038 0.0000 0.0000
# 5 0.0000 0.0000 0.0000 0.0000 -71.2531 0.0000
# 6 0.0000 0.0000 0.0000 0.0000 0.0000 21.6236
#
#
#
# Elastic Compliance Matrix: (Units=1/GPa)
#
#
# Indices 1 2 3 4 5 6 
#
# 1 0.011174 -0.004615 -0.002499 0.000000 0.000000 0.000000
# 2 -0.004615 0.013576 -0.005276 0.000000 0.000000 0.000000
# 3 -0.002499 -0.005276 0.019330 0.000000 0.000000 0.000000
# 4 0.000000 0.000000 0.000000 0.041834 0.000000 0.000000
# 5 0.000000 0.000000 0.000000 0.000000 -0.014034 0.000000
# 6 0.000000 0.000000 0.000000 0.000000 0.000000 0.046246
#
#
# Mechanical properties :
#
#
# Convention : Reuss Voigt Hill
#
# Bulk Modulus (GPa) = 51.81159 57.52416 54.66787
# Shear Modulus (GPa) = 33.48113 6.29014 19.88563
#
# Velocity S-wave (km/s) = 4.27908 1.85473 3.29776
# Velocity P-wave (km/s) = 7.26287 6.00384 6.66316
#
# Compressibility (1/GPa) = 0.01930070
#
# Stress axis : x y z
#
# Youngs Moduli (GPa) = 89.49568 73.66145 51.73203
#
# Poissons Ratio (x) = 0.33997 0.12926
# Poissons Ratio (y) = 0.41305 0.27292
# Poissons Ratio (z) = 0.22361 0.38861
#
# Static dielectric constant tensor:
#      x y z
#    x 3.419830 0.000000 0.000000 
#    y 0.000000 3.469660 0.000000 
#    z 0.000000 0.000000 3.090070 
# 
# 
# High freq. dielectric constant tensor:
#      x y z
#    x 1.707540 0.000000 0.000000 
#    y 0.000000 1.711370 0.000000 
#    z 0.000000 0.000000 1.683390 
# 
# From -- ./inp_files/63056.got.cif
#   From: 2010.03.12/outbox.cif.g09.slc.cpg/sg65_32_cif.got.tgz:63056.got - 2010.04.10 20:52:16.
