data_PCOD8266416
_publ_section_title
;
Structure prediction by ZEFSAII (Michael W. Deem and Ramdas Pophale) SiO2 
 PCOD8266416
Probable space group: C M M M
;
_chemical_formula_sum "Si O2"
_cell_formula_units_Z 88
_cell_length_a 28.819424
_cell_length_b 8.858275
_cell_length_c 18.156421
_cell_angle_alpha 90.000000
_cell_angle_beta 90.000000
_cell_angle_gamma 90.000000
_cell_volume 4635.159673
_symmetry_space_group_name_H-M "C M M M"
_symmetry_group_IT_number 65
_symmetry_cell_setting 'orthorhombic'
loop_
_space_group_symop_operation_xyz
x,y,z
-x,-y,z
x,-y,-z
-x,y,-z
-x,-y,-z
x,y,-z
-x,y,z
x,-y,z
1/2+x,1/2+y,z
1/2-x,1/2-y,z
1/2+x,1/2-y,-z
1/2-x,1/2+y,-z
1/2-x,1/2-y,-z
1/2+x,1/2+y,-z
1/2-x,1/2+y,z
1/2+x,1/2-y,z
loop_
_atom_site_type_symbol
_atom_site_label
_atom_site_fract_x
_atom_site_fract_y
_atom_site_fract_z
Si Si1 0.947144 0.180270 0.500000
Si Si2 0.447593 0.678844 0.787280
Si Si3 0.203464 0.178086 0.309221
Si Si4 0.392830 0.174962 0.083494
Si Si5 0.296014 0.176830 0.151030
Si Si6 0.895835 0.821716 0.356216
O O1 0.921044 0.246012 0.571886
O O2 0.000000 0.238452 0.500000
O O3 0.945633 0.000000 0.500000
O O4 0.500000 0.739667 0.782076
O O5 0.446338 0.500000 0.785568
O O6 0.425601 0.730429 0.863659
O O7 0.419175 0.746113 0.717734
O O8 0.250000 0.250000 0.344890
O O9 0.194282 0.245289 0.228968
O O10 0.158843 0.219283 0.359150
O O11 0.210156 0.000000 0.302305
O O12 0.338847 0.210940 0.097641
O O13 0.402987 0.000000 0.097853
O O14 0.404505 0.221323 0.000000
O O15 0.250000 0.250000 0.114754
O O16 0.288098 0.000000 0.163595
O O17 0.902857 0.000000 0.355175
#
# Coordination Sequence:
#
# PCOD8266416 Si02
#       6
#     8  16  16  16  16  16
#     4   9  16  28  49  78 109 139 171 211 262 311
#     4  10  20  35  55  78 103 133 174 221 266 310
#     4  10  18  30  50  76 106 137 172 211 254 305
#     4  10  22  38  53  73 104 139 175 215 260 315
#     4  10  19  32  52  76 102 134 172 213 259 309
#     4   9  17  30  50  77 108 138 169 212 261 308
#
# _framework density 18.985322
#
# number of rings (size 3 to 8) (size 9 to 14) (size 15 to 20)
#    0.000    2.273    1.818    2.727    0.000    4.364 
#    0.000    2.273    0.000    0.000    0.000    5.091 
#    0.000    8.000    0.000    0.000    0.000    0.000 
#
# Total GULP energy -545535.719170 kJ/mol
# GULP energy per Si atom -12398.539072 kJ/mol
# Density = 1.894211 g / cm^3
# Si number density = 18.985322 Si / 1000 Ang^3
#
#
#
# Elastic Constant Matrix: (Units=GPa)
#
#
# Indices 1 2 3 4 5 6 
#
# 1 160.6104 37.9327 76.4238 0.0000 0.0000 0.0000
# 2 37.9327 46.3994 17.9616 0.0000 0.0000 0.0000
# 3 76.4238 17.9616 117.7956 0.0000 0.0000 0.0000
# 4 0.0000 0.0000 0.0000 13.1643 0.0000 0.0000
# 5 0.0000 0.0000 0.0000 0.0000 30.7595 0.0000
# 6 0.0000 0.0000 0.0000 0.0000 0.0000 25.0414
#
#
#
# Elastic Compliance Matrix: (Units=1/GPa)
#
#
# Indices 1 2 3 4 5 6 
#
# 1 0.010503 -0.006322 -0.005850 0.000000 0.000000 0.000000
# 2 -0.006322 0.026709 0.000029 0.000000 0.000000 0.000000
# 3 -0.005850 0.000029 0.012280 0.000000 0.000000 0.000000
# 4 0.000000 0.000000 0.000000 0.075963 0.000000 0.000000
# 5 0.000000 0.000000 0.000000 0.000000 0.032510 0.000000
# 6 0.000000 0.000000 0.000000 0.000000 0.000000 0.039934
#
#
# Mechanical properties :
#
#
# Convention : Reuss Voigt Hill
#
# Bulk Modulus (GPa) = 39.67284 65.49352 52.58318
# Shear Modulus (GPa) = 21.68367 26.62553 24.15460
#
# Velocity S-wave (km/s) = 3.38321 3.74896 3.57077
# Velocity P-wave (km/s) = 6.01692 7.30147 6.69010
#
# Compressibility (1/GPa) = 0.02520616
#
# Stress axis : x y z
#
# Youngs Moduli (GPa) = 95.21012 37.44037 81.43034
#
# Poissons Ratio (x) = 0.23669 0.47639
# Poissons Ratio (y) = 0.60191 -0.00235
# Poissons Ratio (z) = 0.55700 -0.00108
#
# Static dielectric constant tensor:
#      x y z
#    x 3.788500 0.000000 0.000000 
#    y 0.000000 3.196000 0.000000 
#    z 0.000000 0.000000 3.435890 
# 
# 
# High freq. dielectric constant tensor:
#      x y z
#    x 1.756450 0.000000 0.000000 
#    y 0.000000 1.708000 0.000000 
#    z 0.000000 0.000000 1.723390 
# 
# From -- ./inp_files/57959.got.cif
#   From: 2010.03.12/outbox.cif.g09.slc.cpg/sg65_29_cif.got.tgz:57959.got - 2010.04.10 20:52:16.
