data_PCOD8266678
_publ_section_title
;
Structure prediction by ZEFSAII (Michael W. Deem and Ramdas Pophale) SiO2 
 PCOD8266678
Probable space group: C M M M
;
_chemical_formula_sum "Si O2"
_cell_formula_units_Z 104
_cell_length_a 25.607609
_cell_length_b 8.851506
_cell_length_c 25.982999
_cell_angle_alpha 90.000000
_cell_angle_beta 90.000000
_cell_angle_gamma 90.000000
_cell_volume 5889.459975
_symmetry_space_group_name_H-M "C M M M"
_symmetry_group_IT_number 65
_symmetry_cell_setting 'orthorhombic'
loop_
_space_group_symop_operation_xyz
x,y,z
-x,-y,z
x,-y,-z
-x,y,-z
-x,-y,-z
x,y,-z
-x,y,z
x,-y,z
1/2+x,1/2+y,z
1/2-x,1/2-y,z
1/2+x,1/2-y,-z
1/2-x,1/2+y,-z
1/2-x,1/2-y,-z
1/2+x,1/2+y,-z
1/2-x,1/2+y,z
1/2+x,1/2-y,z
loop_
_atom_site_type_symbol
_atom_site_label
_atom_site_fract_x
_atom_site_fract_y
_atom_site_fract_z
Si Si1 0.195314 0.177679 0.666147
Si Si2 0.441470 0.178818 0.500000
Si Si3 0.602357 0.178272 0.845355
Si Si4 0.804705 0.822174 0.216375
Si Si5 0.000000 0.320454 0.671354
Si Si6 0.600089 0.179171 0.391150
Si Si7 0.939928 0.175354 0.058457
Si Si8 0.000000 0.320495 0.213345
O O1 0.250000 0.250000 0.649722
O O2 0.181151 0.222091 0.724882
O O3 0.151978 0.241211 0.628142
O O4 0.199820 0.000000 0.659301
O O5 0.500000 0.248688 0.500000
O O6 0.409758 0.231342 0.550240
O O7 0.447340 0.000000 0.500000
O O8 0.652243 0.257507 0.821516
O O9 0.596816 0.224650 0.904960
O O10 0.551322 0.239316 0.815501
O O11 0.608967 0.000000 0.840312
O O12 0.750000 0.750000 0.200097
O O13 0.800619 0.000000 0.209296
O O14 0.948540 0.261599 0.642537
O O15 0.000000 0.500000 0.671300
O O16 0.000000 0.254483 0.728984
O O17 0.606736 0.000000 0.386270
O O18 0.000000 0.224628 0.065806
O O19 0.933050 0.000000 0.072262
O O20 0.922241 0.206650 0.000000
O O21 0.000000 0.500000 0.214117
#
# Coordination Sequence:
#
# PCOD8266678 Si02
#       8
#    16   8  16  16   8  16  16   8
#     4  10  21  37  56  78 105 136 176 219 265 317
#     4   9  16  30  52  81 108 135 178 218 255 310
#     4  11  20  32  51  78 112 143 176 220 264 315
#     4  10  21  37  56  78 104 139 179 220 265 318
#     4   9  16  27  47  73 103 138 173 206 249 310
#     4  10  18  31  54  79 105 138 175 217 261 310
#     4   9  18  33  52  74 104 144 186 225 267 314
#     4   9  18  28  41  72 110 139 167 206 259 310
#
# _framework density 17.658664000000002
#
# number of rings (size 3 to 8) (size 9 to 14) (size 15 to 20)
#    0.000    2.231    1.538    2.769    0.000    3.385 
#    0.000    1.923    0.000    3.692    0.000    0.000 
#    0.000    0.000    0.000    0.000    0.000    0.000 
#
# Total GULP energy -644902.660661 kJ/mol
# GULP energy per Si atom -12401.974243 kJ/mol
# Density = 1.761847 g / cm^3
# Si number density = 17.658664 Si / 1000 Ang^3
#
#
#
# Elastic Constant Matrix: (Units=GPa)
#
#
# Indices 1 2 3 4 5 6 
#
# 1 139.9113 45.3881 77.9898 0.0000 0.0000 0.0000
# 2 45.3881 53.9162 37.0114 0.0000 0.0000 0.0000
# 3 77.9898 37.0114 131.7444 0.0000 0.0000 0.0000
# 4 0.0000 0.0000 0.0000 23.4462 0.0000 0.0000
# 5 0.0000 0.0000 0.0000 0.0000 13.4750 0.0000
# 6 0.0000 0.0000 0.0000 0.0000 0.0000 26.1623
#
#
#
# Elastic Compliance Matrix: (Units=1/GPa)
#
#
# Indices 1 2 3 4 5 6 
#
# 1 0.012334 -0.006654 -0.005432 0.000000 0.000000 0.000000
# 2 -0.006654 0.026569 -0.003525 0.000000 0.000000 0.000000
# 3 -0.005432 -0.003525 0.011796 0.000000 0.000000 0.000000
# 4 0.000000 0.000000 0.000000 0.042651 0.000000 0.000000
# 5 0.000000 0.000000 0.000000 0.000000 0.074211 0.000000
# 6 0.000000 0.000000 0.000000 0.000000 0.000000 0.038223
#
#
# Mechanical properties :
#
#
# Convention : Reuss Voigt Hill
#
# Bulk Modulus (GPa) = 51.34325 71.81672 61.57999
# Shear Modulus (GPa) = 20.53398 23.62888 22.08143
#
# Velocity S-wave (km/s) = 3.41373 3.66196 3.54002
# Velocity P-wave (km/s) = 6.68405 7.65752 7.18729
#
# Compressibility (1/GPa) = 0.01947676
#
# Stress axis : x y z
#
# Youngs Moduli (GPa) = 81.07659 37.63826 84.77165
#
# Poissons Ratio (x) = 0.25045 0.46049
# Poissons Ratio (y) = 0.53950 0.29881
# Poissons Ratio (z) = 0.44041 0.13267
#
# Static dielectric constant tensor:
#      x y z
#    x 3.234720 0.000000 0.000000 
#    y 0.000000 3.049310 0.000000 
#    z 0.000000 0.000000 3.398740 
# 
# 
# High freq. dielectric constant tensor:
#      x y z
#    x 1.677400 0.000000 0.000000 
#    y 0.000000 1.665980 0.000000 
#    z 0.000000 0.000000 1.686110 
# 
# From -- ./inp_files/71935.got.cif
#   From: 2010.03.12/outbox.cif.g09.slc.cpg/sg65_36_cif.got.tgz:71935.got - 2010.04.10 20:52:16.
