data_PCOD8266777
_publ_section_title
;
Structure prediction by ZEFSAII (Michael W. Deem and Ramdas Pophale) SiO2 
 PCOD8266777
Probable space group: C M M M
;
_chemical_formula_sum "Si O2"
_cell_formula_units_Z 128
_cell_length_a 17.850066
_cell_length_b 18.083090
_cell_length_c 23.071281
_cell_angle_alpha 90.000000
_cell_angle_beta 90.000000
_cell_angle_gamma 90.000000
_cell_volume 7447.048441
_symmetry_space_group_name_H-M "C M M M"
_symmetry_group_IT_number 65
_symmetry_cell_setting 'orthorhombic'
loop_
_space_group_symop_operation_xyz
x,y,z
-x,-y,z
x,-y,-z
-x,y,-z
-x,-y,-z
x,y,-z
-x,y,z
x,-y,z
1/2+x,1/2+y,z
1/2-x,1/2-y,z
1/2+x,1/2-y,-z
1/2-x,1/2+y,-z
1/2-x,1/2-y,-z
1/2+x,1/2+y,-z
1/2-x,1/2+y,z
1/2+x,1/2-y,z
loop_
_atom_site_type_symbol
_atom_site_label
_atom_site_fract_x
_atom_site_fract_y
_atom_site_fract_z
Si Si1 0.838578 0.416409 0.239375
Si Si2 0.163279 0.229989 0.563908
Si Si3 0.665365 0.221053 0.316625
Si Si4 0.914547 0.197837 0.784083
Si Si5 0.192722 0.915369 0.835585
Si Si6 0.273342 0.165846 0.066589
Si Si7 0.916207 0.918553 0.567989
Si Si8 0.084369 0.659848 0.859454
O O1 0.847778 0.500000 0.261798
O O2 0.843816 0.362612 0.294418
O O3 0.759573 0.402008 0.209124
O O4 0.902365 0.399885 0.191574
O O5 0.126272 0.246542 0.500000
O O6 0.250000 0.250000 0.558181
O O7 0.131363 0.278352 0.617690
O O8 0.145779 0.144488 0.582581
O O9 0.750000 0.250000 0.318196
O O10 0.621159 0.277750 0.276304
O O11 0.879268 0.123445 0.808811
O O12 0.902328 0.259738 0.832614
O O13 0.000000 0.180708 0.771427
O O14 0.214720 0.883607 0.898196
O O15 0.171934 0.000000 0.844055
O O16 0.250000 0.250000 0.076317
O O17 0.358200 0.150272 0.087625
O O18 0.268348 0.142073 0.000000
O O19 0.921216 0.926656 0.500000
O O20 0.000000 0.897293 0.591431
O O21 0.892366 0.000000 0.593489
O O22 0.000000 0.650082 0.883263
#
# Coordination Sequence:
#
# PCOD8266777 Si02
#       8
#    16  16  16  16  16  16  16  16
#     4   9  18  31  52  76  97 131 176 213 257 315
#     4   9  18  31  47  73 105 139 177 212 254 310
#     4  10  18  32  53  71  99 137 168 215 260 304
#     4  10  19  32  51  76 101 129 170 213 260 309
#     4  10  19  33  53  75 102 136 170 209 260 307
#     4  10  19  32  53  77 103 139 181 216 244 292
#     4   8  14  27  48  70  94 129 169 207 249 299
#     4   9  18  31  51  76 104 135 167 214 266 302
#
# _framework density 17.188018
#
# number of rings (size 3 to 8) (size 9 to 14) (size 15 to 20)
#    0.000    2.625    2.500    0.375    0.000    1.500 
#    0.000    3.125    0.000    1.500    0.000    4.375 
#    0.000    1.500    0.000   23.375    0.000    0.000 
#
# Total GULP energy -793083.491018 kJ/mol
# GULP energy per Si atom -12391.929547 kJ/mol
# Density = 1.714890 g / cm^3
# Si number density = 17.188018 Si / 1000 Ang^3
#
#
#
# Elastic Constant Matrix: (Units=GPa)
#
#
# Indices 1 2 3 4 5 6 
#
# 1 78.9291 41.9744 36.7472 0.0000 0.0000 0.0000
# 2 41.9744 115.7113 63.1782 0.0000 0.0000 0.0000
# 3 36.7472 63.1782 124.3718 0.0000 0.0000 0.0000
# 4 0.0000 0.0000 0.0000 17.4481 0.0000 0.0000
# 5 0.0000 0.0000 0.0000 0.0000 0.2971 0.0000
# 6 0.0000 0.0000 0.0000 0.0000 0.0000 22.6654
#
#
#
# Elastic Compliance Matrix: (Units=1/GPa)
#
#
# Indices 1 2 3 4 5 6 
#
# 1 0.016240 -0.004527 -0.002499 0.000000 0.000000 0.000000
# 2 -0.004527 0.013221 -0.005378 0.000000 0.000000 0.000000
# 3 -0.002499 -0.005378 0.011511 0.000000 0.000000 0.000000
# 4 0.000000 0.000000 0.000000 0.057313 0.000000 0.000000
# 5 0.000000 0.000000 0.000000 0.000000 3.365382 0.000000
# 6 0.000000 0.000000 0.000000 0.000000 0.000000 0.044120
#
#
# Mechanical properties :
#
#
# Convention : Reuss Voigt Hill
#
# Bulk Modulus (GPa) = 61.86641 66.97908 64.42274
# Shear Modulus (GPa) = 1.41323 19.88962 10.65143
#
# Velocity S-wave (km/s) = 0.90775 3.40542 2.49208
# Velocity P-wave (km/s) = 6.09678 7.38347 6.77076
#
# Compressibility (1/GPa) = 0.01616386
#
# Stress axis : x y z
#
# Youngs Moduli (GPa) = 61.57494 75.63758 86.87436
#
# Poissons Ratio (x) = 0.34240 0.21709
# Poissons Ratio (y) = 0.27874 0.46725
# Poissons Ratio (z) = 0.15387 0.40681
#
# Static dielectric constant tensor:
#      x y z
#    x 3.171720 0.000000 0.000000 
#    y 0.000000 3.277410 0.000000 
#    z 0.000000 0.000000 3.303280 
# 
# 
# High freq. dielectric constant tensor:
#      x y z
#    x 1.650780 0.000000 0.000000 
#    y 0.000000 1.657140 0.000000 
#    z 0.000000 0.000000 1.653770 
# 
# From -- ./inp_files/70661.got.cif
#   From: 2010.03.12/outbox.cif.g09.slc.cpg/sg65_36_cif.got.tgz:70661.got - 2010.04.10 20:52:16.
