data_PCOD8266006
_publ_section_title
;
Structure prediction by ZEFSAII (Michael W. Deem and Ramdas Pophale) SiO2 
 PCOD8266006
Probable space group: C M M M
;
_chemical_formula_sum "Si O2"
_cell_formula_units_Z 72
_cell_length_a 9.276387
_cell_length_b 25.662059
_cell_length_c 19.465881
_cell_angle_alpha 90.000000
_cell_angle_beta 90.000000
_cell_angle_gamma 90.000000
_cell_volume 4633.876146
_symmetry_space_group_name_H-M "C M M M"
_symmetry_group_IT_number 65
_symmetry_cell_setting 'orthorhombic'
loop_
_space_group_symop_operation_xyz
x,y,z
-x,-y,z
x,-y,-z
-x,y,-z
-x,-y,-z
x,y,-z
-x,y,z
x,-y,z
1/2+x,1/2+y,z
1/2-x,1/2-y,z
1/2+x,1/2-y,-z
1/2-x,1/2+y,-z
1/2-x,1/2-y,-z
1/2+x,1/2+y,-z
1/2-x,1/2+y,z
1/2+x,1/2-y,z
loop_
_atom_site_type_symbol
_atom_site_label
_atom_site_fract_x
_atom_site_fract_y
_atom_site_fract_z
Si Si1 0.671064 0.500000 0.576449
Si Si2 0.168177 0.198702 0.421522
Si Si3 0.331346 0.061007 0.206680
Si Si4 0.161552 0.061817 0.075628
Si Si5 0.329558 0.597923 0.663779
O O1 0.500000 0.500000 0.571721
O O2 0.737770 0.500000 0.500000
O O3 0.725825 0.448981 0.615881
O O4 0.210078 0.184857 0.500000
O O5 0.250000 0.250000 0.395745
O O6 0.215206 0.151216 0.373263
O O7 0.000000 0.209899 0.415136
O O8 0.500000 0.072065 0.209793
O O9 0.272646 0.081565 0.133334
O O10 0.251981 0.094896 0.264182
O O11 0.295596 0.000000 0.217504
O O12 0.000000 0.081483 0.093293
O O13 0.162867 0.000000 0.074011
O O14 0.208321 0.082826 0.000000
O O15 0.500000 0.594135 0.676783
#
# Coordination Sequence:
#
# PCOD8266006 Si02
#       5
#     8  16  16  16  16
#     4   9  16  26  43  65  84 107 144 187 221 252
#     4   9  18  32  49  68  87 110 145 188 232 274
#     4  10  19  28  39  59  90 122 149 179 219 266
#     4   8  14  25  41  59  80 111 151 187 215 250
#     4  10  18  29  46  65  86 115 150 185 220 264
#
# _framework density 15.537748000000001
#
# number of rings (size 3 to 8) (size 9 to 14) (size 15 to 20)
#    0.000    2.778    1.111    2.000    0.000    4.889 
#    0.000    2.222    0.000    2.667    0.000    0.000 
#    0.000    0.889    0.000    2.889    0.000    3.556 
#
# Total GULP energy -446324.089589 kJ/mol
# GULP energy per Si atom -12397.891377 kJ/mol
# Density = 1.550238 g / cm^3
# Si number density = 15.537748 Si / 1000 Ang^3
#
#
#
# Elastic Constant Matrix: (Units=GPa)
#
#
# Indices 1 2 3 4 5 6 
#
# 1 58.6986 39.3873 56.1964 0.0000 0.0000 0.0000
# 2 39.3873 87.0766 57.0784 0.0000 0.0000 0.0000
# 3 56.1964 57.0784 137.0073 0.0000 0.0000 0.0000
# 4 0.0000 0.0000 0.0000 14.6854 0.0000 0.0000
# 5 0.0000 0.0000 0.0000 0.0000 18.8430 0.0000
# 6 0.0000 0.0000 0.0000 0.0000 0.0000 19.4543
#
#
#
# Elastic Compliance Matrix: (Units=1/GPa)
#
#
# Indices 1 2 3 4 5 6 
#
# 1 0.031629 -0.007983 -0.009648 0.000000 0.000000 0.000000
# 2 -0.007983 0.017813 -0.004147 0.000000 0.000000 0.000000
# 3 -0.009648 -0.004147 0.012984 0.000000 0.000000 0.000000
# 4 0.000000 0.000000 0.000000 0.068095 0.000000 0.000000
# 5 0.000000 0.000000 0.000000 0.000000 0.053070 0.000000
# 6 0.000000 0.000000 0.000000 0.000000 0.000000 0.051402
#
#
# Mechanical properties :
#
#
# Convention : Reuss Voigt Hill
#
# Bulk Modulus (GPa) = 52.98999 65.34518 59.16759
# Shear Modulus (GPa) = 17.55380 19.27123 18.41252
#
# Velocity S-wave (km/s) = 3.36483 3.52559 3.44614
# Velocity P-wave (km/s) = 7.01955 7.66290 7.34827
#
# Compressibility (1/GPa) = 0.01887149
#
# Stress axis : x y z
#
# Youngs Moduli (GPa) = 31.61647 56.13811 77.01973
#
# Poissons Ratio (x) = 0.44814 0.74306
# Poissons Ratio (y) = 0.25239 0.31939
# Poissons Ratio (z) = 0.30502 0.23280
#
# Static dielectric constant tensor:
#      x y z
#    x 2.854560 0.000000 0.000000 
#    y 0.000000 2.668990 0.000000 
#    z 0.000000 0.000000 3.223950 
# 
# 
# High freq. dielectric constant tensor:
#      x y z
#    x 1.586060 0.000000 0.000000 
#    y 0.000000 1.549830 0.000000 
#    z 0.000000 0.000000 1.604470 
# 
# From -- ./inp_files/49502.got.cif
#   From: 2010.03.12/outbox.cif.g09.slc.cpg/sg65_25_cif.got.tgz:49502.got - 2010.04.10 20:52:16.
