data_PCOD8266510
_publ_section_title
;
Structure prediction by ZEFSAII (Michael W. Deem and Ramdas Pophale) SiO2 
 PCOD8266510
Probable space group: C M M M
;
_chemical_formula_sum "Si O2"
_cell_formula_units_Z 88
_cell_length_a 22.313984
_cell_length_b 22.585370
_cell_length_c 9.117454
_cell_angle_alpha 90.000000
_cell_angle_beta 90.000000
_cell_angle_gamma 90.000000
_cell_volume 4594.919507
_symmetry_space_group_name_H-M "C M M M"
_symmetry_group_IT_number 65
_symmetry_cell_setting 'orthorhombic'
loop_
_space_group_symop_operation_xyz
x,y,z
-x,-y,z
x,-y,-z
-x,y,-z
-x,-y,-z
x,y,-z
-x,y,z
x,-y,z
1/2+x,1/2+y,z
1/2-x,1/2-y,z
1/2+x,1/2-y,-z
1/2-x,1/2+y,-z
1/2-x,1/2-y,-z
1/2+x,1/2+y,-z
1/2-x,1/2+y,z
1/2+x,1/2-y,z
loop_
_atom_site_type_symbol
_atom_site_label
_atom_site_fract_x
_atom_site_fract_y
_atom_site_fract_z
Si Si1 0.847581 0.118219 0.672939
Si Si2 0.000000 0.567315 0.826089
Si Si3 0.790809 0.627468 0.335470
Si Si4 0.933388 0.221735 0.666221
Si Si5 0.727045 0.000000 0.661934
Si Si6 0.903322 0.338213 0.172968
Si Si7 0.155088 0.000000 0.172554
O O1 0.854560 0.107691 0.500000
O O2 0.778390 0.132206 0.714551
O O3 0.887115 0.173190 0.728081
O O4 0.872020 0.059693 0.755659
O O5 0.940975 0.603987 0.774267
O O6 0.000000 0.500000 0.760230
O O7 0.000000 0.563007 0.000000
O O8 0.798150 0.652836 0.500000
O O9 0.812675 0.558890 0.327282
O O10 0.834611 0.662259 0.227919
O O11 0.915695 0.239239 0.500000
O O12 0.933968 0.279796 0.765165
O O13 0.000000 0.194095 0.671398
O O14 0.760078 0.000000 0.500000
O O15 0.774334 0.000000 0.793425
O O16 0.903287 0.334156 0.000000
O O17 0.142877 0.000000 0.000000
#
# Coordination Sequence:
#
# PCOD8266510 Si02
#       7
#    16   8  16  16   8  16   8
#     4   9  19  37  59  81 111 149 181 222 279 332
#     4   9  20  38  55  75 109 152 189 220 269 329
#     4   9  18  33  53  79 109 142 182 224 271 327
#     4  10  21  39  62  82 103 140 191 235 274 329
#     4   8  16  32  52  74 110 152 183 219 273 329
#     4  11  22  36  56  80 111 147 184 229 280 330
#     4  10  18  30  53  85 115 142 176 221 267 322
#
# _framework density 19.151586000000002
#
# number of rings (size 3 to 8) (size 9 to 14) (size 15 to 20)
#    0.000    2.455    0.909    2.455    1.273    4.364 
#    0.000    4.091    0.000    4.909    0.000    0.000 
#    0.000    0.000    0.000    0.000    0.000    0.000 
#
# Total GULP energy -545327.399067 kJ/mol
# GULP energy per Si atom -12393.804524 kJ/mol
# Density = 1.910800 g / cm^3
# Si number density = 19.151586 Si / 1000 Ang^3
#
#
#
# Elastic Constant Matrix: (Units=GPa)
#
#
# Indices 1 2 3 4 5 6 
#
# 1 99.2918 59.1438 33.6681 0.0000 0.0000 0.0000
# 2 59.1438 122.3194 45.3937 0.0000 0.0000 0.0000
# 3 33.6681 45.3937 70.4793 0.0000 0.0000 0.0000
# 4 0.0000 0.0000 0.0000 28.2062 0.0000 0.0000
# 5 0.0000 0.0000 0.0000 0.0000 15.4042 0.0000
# 6 0.0000 0.0000 0.0000 0.0000 0.0000 29.5230
#
#
#
# Elastic Compliance Matrix: (Units=1/GPa)
#
#
# Indices 1 2 3 4 5 6 
#
# 1 0.014677 -0.005906 -0.003207 0.000000 0.000000 0.000000
# 2 -0.005906 0.013120 -0.005629 0.000000 0.000000 0.000000
# 3 -0.003207 -0.005629 0.019346 0.000000 0.000000 0.000000
# 4 0.000000 0.000000 0.000000 0.035453 0.000000 0.000000
# 5 0.000000 0.000000 0.000000 0.000000 0.064917 0.000000
# 6 0.000000 0.000000 0.000000 0.000000 0.000000 0.033872
#
#
# Mechanical properties :
#
#
# Convention : Reuss Voigt Hill
#
# Bulk Modulus (GPa) = 56.63006 63.16684 59.89845
# Shear Modulus (GPa) = 23.06742 24.88567 23.97654
#
# Velocity S-wave (km/s) = 3.47431 3.60864 3.54211
# Velocity P-wave (km/s) = 6.76225 7.10051 6.93344
#
# Compressibility (1/GPa) = 0.01765847
#
# Stress axis : x y z
#
# Youngs Moduli (GPa) = 68.13384 76.21913 51.69060
#
# Poissons Ratio (x) = 0.45018 0.16577
# Poissons Ratio (y) = 0.40243 0.29095
# Poissons Ratio (z) = 0.21851 0.42902
#
# Static dielectric constant tensor:
#      x y z
#    x 3.357410 0.000000 0.000000 
#    y 0.000000 3.683060 0.000000 
#    z 0.000000 0.000000 3.268690 
# 
# 
# High freq. dielectric constant tensor:
#      x y z
#    x 1.728430 0.000000 0.000000 
#    y 0.000000 1.747740 0.000000 
#    z 0.000000 0.000000 1.725330 
# 
# From -- ./inp_files/14020.got.cif
#   From: 2010.03.12/outbox.cif.g09.slc.cpg/sg65_8_cif.got.tgz:14020.got - 2010.04.10 20:52:16.
