data_PCOD8266808
_publ_section_title
;
Structure prediction by ZEFSAII (Michael W. Deem and Ramdas Pophale) SiO2 
 PCOD8266808
Probable space group: C M M M
;
_chemical_formula_sum "Si O2"
_cell_formula_units_Z 64
_cell_length_a 15.919698
_cell_length_b 8.732292
_cell_length_c 22.201278
_cell_angle_alpha 90.000000
_cell_angle_beta 90.000000
_cell_angle_gamma 90.000000
_cell_volume 3086.320685
_symmetry_space_group_name_H-M "C M M M"
_symmetry_group_IT_number 65
_symmetry_cell_setting 'orthorhombic'
loop_
_space_group_symop_operation_xyz
x,y,z
-x,-y,z
x,-y,-z
-x,y,-z
-x,-y,-z
x,y,-z
-x,y,z
x,-y,z
1/2+x,1/2+y,z
1/2-x,1/2-y,z
1/2+x,1/2-y,-z
1/2-x,1/2+y,-z
1/2-x,1/2-y,-z
1/2+x,1/2+y,-z
1/2-x,1/2+y,z
1/2+x,1/2-y,z
loop_
_atom_site_type_symbol
_atom_site_label
_atom_site_fract_x
_atom_site_fract_y
_atom_site_fract_z
Si Si1 0.404471 0.327914 0.765069
Si Si2 0.343221 0.318116 0.000000
Si Si3 0.000000 0.817638 0.431565
Si Si4 0.162628 0.180963 0.361150
Si Si5 0.658824 0.820589 0.119868
O O1 0.500000 0.326382 0.742430
O O2 0.378249 0.500000 0.784933
O O3 0.348706 0.271875 0.708874
O O4 0.395449 0.213754 0.821117
O O5 0.250000 0.250000 0.000000
O O6 0.386495 0.255449 0.061185
O O7 0.343697 0.500000 0.000000
O O8 0.084330 0.753281 0.399619
O O9 0.000000 0.758977 0.500000
O O10 0.000000 0.000000 0.427716
O O11 0.250000 0.250000 0.385399
O O12 0.166353 0.000000 0.368071
O O13 0.750000 0.750000 0.130554
O O14 0.666106 0.000000 0.108895
#
# Coordination Sequence:
#
# PCOD8266808 Si02
#       5
#    16   8   8  16  16
#     4  10  20  36  56  78 109 147 189 237 293 352
#     4  10  18  32  53  76 105 142 185 233 287 346
#     4   9  18  36  61  87 119 160 201 238 285 349
#     4  10  20  36  59  87 117 155 198 244 292 348
#     4  11  21  34  53  79 109 142 185 235 289 348
#
# _framework density 20.736664999999999
#
# number of rings (size 3 to 8) (size 9 to 14) (size 15 to 20)
#    0.000    1.875    1.250    5.625    0.000    4.000 
#    0.000    1.250    0.000    4.500    0.000    0.000 
#    0.000    0.000    0.000    0.000    0.000    0.000 
#
# Total GULP energy -396776.619396 kJ/mol
# GULP energy per Si atom -12399.269356 kJ/mol
# Density = 2.068947 g / cm^3
# Si number density = 20.736665 Si / 1000 Ang^3
#
#
#
# Elastic Constant Matrix: (Units=GPa)
#
#
# Indices 1 2 3 4 5 6 
#
# 1 114.9847 24.6344 59.4519 0.0000 0.0000 0.0000
# 2 24.6344 106.4001 46.2950 0.0000 0.0000 0.0000
# 3 59.4519 46.2950 142.3313 0.0000 0.0000 0.0000
# 4 0.0000 0.0000 0.0000 16.3047 0.0000 0.0000
# 5 0.0000 0.0000 0.0000 0.0000 26.6827 0.0000
# 6 0.0000 0.0000 0.0000 0.0000 0.0000 26.7143
#
#
#
# Elastic Compliance Matrix: (Units=1/GPa)
#
#
# Indices 1 2 3 4 5 6 
#
# 1 0.011130 -0.000645 -0.004439 0.000000 0.000000 0.000000
# 2 -0.000645 0.010985 -0.003303 0.000000 0.000000 0.000000
# 3 -0.004439 -0.003303 0.009955 0.000000 0.000000 0.000000
# 4 0.000000 0.000000 0.000000 0.061332 0.000000 0.000000
# 5 0.000000 0.000000 0.000000 0.000000 0.037477 0.000000
# 6 0.000000 0.000000 0.000000 0.000000 0.000000 0.037433
#
#
# Mechanical properties :
#
#
# Convention : Reuss Voigt Hill
#
# Bulk Modulus (GPa) = 65.38535 69.38651 67.38593
# Shear Modulus (GPa) = 26.28986 29.49598 27.89292
#
# Velocity S-wave (km/s) = 3.56448 3.77557 3.67154
# Velocity P-wave (km/s) = 6.96709 7.24845 7.10916
#
# Compressibility (1/GPa) = 0.01529395
#
# Stress axis : x y z
#
# Youngs Moduli (GPa) = 89.84444 91.03087 100.45581
#
# Poissons Ratio (x) = 0.05876 0.44594
# Poissons Ratio (y) = 0.05799 0.33185
# Poissons Ratio (z) = 0.39884 0.30072
#
# Static dielectric constant tensor:
#      x y z
#    x 3.665690 0.000000 0.000000 
#    y 0.000000 3.514040 0.000000 
#    z 0.000000 0.000000 4.079200 
# 
# 
# High freq. dielectric constant tensor:
#      x y z
#    x 1.797410 0.000000 0.000000 
#    y 0.000000 1.789540 0.000000 
#    z 0.000000 0.000000 1.820830 
# 
# From -- ./inp_files/58862.got.cif
#   From: 2010.03.12/outbox.cif.g09.slc.cpg/sg65_30_cif.got.tgz:58862.got - 2010.04.10 20:52:16.
