data_PCOD8266746
_publ_section_title
;
Structure prediction by ZEFSAII (Michael W. Deem and Ramdas Pophale) SiO2 
 PCOD8266746
Probable space group: C M M M
;
_chemical_formula_sum "Si O2"
_cell_formula_units_Z 128
_cell_length_a 18.914243
_cell_length_b 16.694516
_cell_length_c 23.243885
_cell_angle_alpha 90.000000
_cell_angle_beta 90.000000
_cell_angle_gamma 90.000000
_cell_volume 7339.585180
_symmetry_space_group_name_H-M "C M M M"
_symmetry_group_IT_number 65
_symmetry_cell_setting 'orthorhombic'
loop_
_space_group_symop_operation_xyz
x,y,z
-x,-y,z
x,-y,-z
-x,y,-z
-x,-y,-z
x,y,-z
-x,y,z
x,-y,z
1/2+x,1/2+y,z
1/2-x,1/2-y,z
1/2+x,1/2-y,-z
1/2-x,1/2+y,-z
1/2-x,1/2-y,-z
1/2+x,1/2+y,-z
1/2-x,1/2+y,z
1/2+x,1/2-y,z
loop_
_atom_site_type_symbol
_atom_site_label
_atom_site_fract_x
_atom_site_fract_y
_atom_site_fract_z
Si Si1 0.821724 0.407841 0.219780
Si Si2 0.333469 0.256851 0.563119
Si Si3 0.670287 0.218859 0.315863
Si Si4 0.921087 0.180343 0.763683
Si Si5 0.178416 0.907929 0.838860
Si Si6 0.329026 0.280733 0.065083
Si Si7 0.921091 0.911413 0.567536
Si Si8 0.078932 0.680149 0.856914
O O1 0.815442 0.500000 0.236682
O O2 0.838024 0.361251 0.278716
O O3 0.749975 0.374958 0.190704
O O4 0.883320 0.395812 0.172663
O O5 0.366678 0.232593 0.500000
O O6 0.250000 0.250000 0.555897
O O7 0.353955 0.200528 0.617763
O O8 0.360740 0.345609 0.582053
O O9 0.750000 0.250000 0.314854
O O10 0.620582 0.289658 0.292138
O O11 0.883617 0.103271 0.792027
O O12 0.920598 0.249350 0.810918
O O13 0.000000 0.156034 0.745263
O O14 0.161755 0.860208 0.897033
O O15 0.185640 0.000000 0.856250
O O16 0.250000 0.250000 0.069348
O O17 0.380040 0.209402 0.086407
O O18 0.350072 0.302706 0.000000
O O19 0.925831 0.919577 0.500000
O O20 0.000000 0.886725 0.590594
O O21 0.900190 0.000000 0.592806
O O22 0.000000 0.654863 0.874729
#
# Coordination Sequence:
#
# PCOD8266746 Si02
#       8
#    16  16  16  16  16  16  16  16
#     4  10  19  32  53  77  99 131 176 219 264 315
#     4   9  18  31  47  72 104 139 178 216 257 312
#     4  10  18  32  52  71  98 136 170 214 261 309
#     4   9  18  31  50  75  99 129 167 208 254 302
#     4  10  19  32  52  76 104 138 171 209 259 308
#     4  10  19  32  52  77 105 139 177 214 250 300
#     4   8  14  27  48  71  96 130 170 208 248 299
#     4   9  18  32  52  75 100 133 171 213 256 296
#
# _framework density 17.439678000000001
#
# number of rings (size 3 to 8) (size 9 to 14) (size 15 to 20)
#    0.000    2.625    2.500    0.375    0.000    1.500 
#    0.000    3.125    0.000    1.500    0.000    4.375 
#    0.000    1.500    0.000   23.375    0.000    0.000 
#
# Total GULP energy -793015.010121 kJ/mol
# GULP energy per Si atom -12390.859533 kJ/mol
# Density = 1.739998 g / cm^3
# Si number density = 17.439678 Si / 1000 Ang^3
#
#
#
# Elastic Constant Matrix: (Units=GPa)
#
#
# Indices 1 2 3 4 5 6 
#
# 1 113.2183 26.3305 37.3726 0.0000 0.0000 0.0000
# 2 26.3305 63.2227 38.2488 0.0000 0.0000 0.0000
# 3 37.3726 38.2488 137.5569 0.0000 0.0000 0.0000
# 4 0.0000 0.0000 0.0000 16.8525 0.0000 0.0000
# 5 0.0000 0.0000 0.0000 0.0000 -81.4729 0.0000
# 6 0.0000 0.0000 0.0000 0.0000 0.0000 21.5541
#
#
#
# Elastic Compliance Matrix: (Units=1/GPa)
#
#
# Indices 1 2 3 4 5 6 
#
# 1 0.010180 -0.003085 -0.001908 0.000000 0.000000 0.000000
# 2 -0.003085 0.019951 -0.004709 0.000000 0.000000 0.000000
# 3 -0.001908 -0.004709 0.009098 0.000000 0.000000 0.000000
# 4 0.000000 0.000000 0.000000 0.059339 0.000000 0.000000
# 5 0.000000 0.000000 0.000000 0.000000 -0.012274 0.000000
# 6 0.000000 0.000000 0.000000 0.000000 0.000000 0.046395
#
#
# Mechanical properties :
#
#
# Convention : Reuss Voigt Hill
#
# Bulk Modulus (GPa) = 50.44540 57.54464 53.99502
# Shear Modulus (GPa) = 31.50583 5.52312 18.51448
#
# Velocity S-wave (km/s) = 4.25498 1.78153 3.26180
# Velocity P-wave (km/s) = 7.28891 6.10736 6.72414
#
# Compressibility (1/GPa) = 0.01982341
#
# Stress axis : x y z
#
# Youngs Moduli (GPa) = 98.23369 50.12244 109.92024
#
# Poissons Ratio (x) = 0.15465 0.20971
# Poissons Ratio (y) = 0.30309 0.51765
# Poissons Ratio (z) = 0.18741 0.23604
#
# Static dielectric constant tensor:
#      x y z
#    x 3.328790 0.000000 0.000000 
#    y 0.000000 3.025380 0.000000 
#    z 0.000000 0.000000 3.420950 
# 
# 
# High freq. dielectric constant tensor:
#      x y z
#    x 1.673410 0.000000 0.000000 
#    y 0.000000 1.644210 0.000000 
#    z 0.000000 0.000000 1.671640 
# 
# From -- ./inp_files/70665.got.cif
#   From: 2010.03.12/outbox.cif.g09.slc.cpg/sg65_36_cif.got.tgz:70665.got - 2010.04.10 20:52:16.
