data_PCOD8266372
_publ_section_title
;
Structure prediction by ZEFSAII (Michael W. Deem and Ramdas Pophale) SiO2 
 PCOD8266372
Probable space group: C M M M
;
_chemical_formula_sum "Si O2"
_cell_formula_units_Z 112
_cell_length_a 14.674568
_cell_length_b 17.750479
_cell_length_c 23.442695
_cell_angle_alpha 90.000000
_cell_angle_beta 90.000000
_cell_angle_gamma 90.000000
_cell_volume 6106.367520
_symmetry_space_group_name_H-M "C M M M"
_symmetry_group_IT_number 65
_symmetry_cell_setting 'orthorhombic'
loop_
_space_group_symop_operation_xyz
x,y,z
-x,-y,z
x,-y,-z
-x,y,-z
-x,-y,-z
x,y,-z
-x,y,z
x,-y,z
1/2+x,1/2+y,z
1/2-x,1/2-y,z
1/2+x,1/2-y,-z
1/2-x,1/2+y,-z
1/2-x,1/2-y,-z
1/2+x,1/2+y,-z
1/2-x,1/2+y,z
1/2+x,1/2-y,z
loop_
_atom_site_type_symbol
_atom_site_label
_atom_site_fract_x
_atom_site_fract_y
_atom_site_fract_z
Si Si1 0.284014 0.084571 0.434061
Si Si2 0.103952 0.813551 0.852330
Si Si3 0.152979 0.714339 0.357464
Si Si4 0.602061 0.817047 0.768150
Si Si5 0.394389 0.179195 0.065315
Si Si6 0.721677 0.089367 0.847961
Si Si7 0.598454 0.344089 0.564043
O O1 0.306233 0.100458 0.500000
O O2 0.343012 0.139896 0.395826
O O3 0.176630 0.096104 0.421123
O O4 0.309947 0.000000 0.416864
O O5 0.123561 0.763859 0.796136
O O6 0.122569 0.761311 0.907444
O O7 0.173822 0.882856 0.852330
O O8 0.000000 0.844658 0.852750
O O9 0.250000 0.750000 0.343029
O O10 0.104364 0.691243 0.299465
O O11 0.095339 0.774791 0.392395
O O12 0.500000 0.842221 0.786462
O O13 0.673778 0.878807 0.790678
O O14 0.500000 0.156262 0.071417
O O15 0.334674 0.116196 0.096921
O O16 0.363178 0.182776 0.000000
O O17 0.722777 0.000000 0.845050
O O18 0.615101 0.312179 0.500000
O O19 0.500000 0.384907 0.568123
#
# Coordination Sequence:
#
# PCOD8266372 Si02
#       7
#    16  16  16  16  16  16  16
#     4   9  18  31  46  67  96 128 159 191 235 294
#     4   9  19  36  56  77 101 132 172 212 248 293
#     4  10  18  30  50  72  94 123 161 203 246 292
#     4  10  20  35  55  75  96 127 168 211 252 296
#     4   9  18  34  57  81 104 136 177 215 249 288
#     4  11  22  34  51  77 109 139 165 203 254 301
#     4   9  17  29  47  71  95 119 153 200 247 288
#
# _framework density 18.34151
#
# number of rings (size 3 to 8) (size 9 to 14) (size 15 to 20)
#    0.000    2.429    0.000    4.714    0.000    5.429 
#    0.000    2.143    0.000    1.286    0.000   12.000 
#    0.000    0.000    0.000    0.000    0.000    0.000 
#
# Total GULP energy -694297.731429 kJ/mol
# GULP energy per Si atom -12398.173776 kJ/mol
# Density = 1.829976 g / cm^3
# Si number density = 18.341510 Si / 1000 Ang^3
#
#
#
# Elastic Constant Matrix: (Units=GPa)
#
#
# Indices 1 2 3 4 5 6 
#
# 1 78.8571 33.3163 15.9666 0.0000 0.0000 0.0000
# 2 33.3163 91.0299 34.1603 0.0000 0.0000 0.0000
# 3 15.9666 34.1603 108.0122 0.0000 0.0000 0.0000
# 4 0.0000 0.0000 0.0000 3.5753 0.0000 0.0000
# 5 0.0000 0.0000 0.0000 0.0000 25.5546 0.0000
# 6 0.0000 0.0000 0.0000 0.0000 0.0000 16.9392
#
#
#
# Elastic Compliance Matrix: (Units=1/GPa)
#
#
# Indices 1 2 3 4 5 6 
#
# 1 0.015029 -0.005295 -0.000547 0.000000 0.000000 0.000000
# 2 -0.005295 0.014330 -0.003749 0.000000 0.000000 0.000000
# 3 -0.000547 -0.003749 0.010525 0.000000 0.000000 0.000000
# 4 0.000000 0.000000 0.000000 0.279699 0.000000 0.000000
# 5 0.000000 0.000000 0.000000 0.000000 0.039132 0.000000
# 6 0.000000 0.000000 0.000000 0.000000 0.000000 0.059035
#
#
# Mechanical properties :
#
#
# Convention : Reuss Voigt Hill
#
# Bulk Modulus (GPa) = 48.30657 49.42062 48.86360
# Shear Modulus (GPa) = 11.26548 22.17755 16.72152
#
# Velocity S-wave (km/s) = 2.48101 3.48105 3.02267
# Velocity P-wave (km/s) = 5.88232 6.56964 6.23545
#
# Compressibility (1/GPa) = 0.02070112
#
# Stress axis : x y z
#
# Youngs Moduli (GPa) = 66.53746 69.78132 95.01303
#
# Poissons Ratio (x) = 0.36951 0.05197
# Poissons Ratio (y) = 0.35234 0.35625
# Poissons Ratio (z) = 0.03639 0.26164
#
# Static dielectric constant tensor:
#      x y z
#    x 3.422010 0.000000 0.000000 
#    y 0.000000 3.056930 0.000000 
#    z 0.000000 0.000000 3.418360 
# 
# 
# High freq. dielectric constant tensor:
#      x y z
#    x 1.719770 0.000000 0.000000 
#    y 0.000000 1.679890 0.000000 
#    z 0.000000 0.000000 1.713190 
# 
# From -- ./inp_files/69993.got.cif
#   From: 2010.03.12/outbox.cif.g09.slc.cpg/sg65_35_cif.got.tgz:69993.got - 2010.04.10 20:52:16.
