data_PCOD8266390
_publ_section_title
;
Structure prediction by ZEFSAII (Michael W. Deem and Ramdas Pophale) SiO2 
 PCOD8266390
Probable space group: C M M M
;
_chemical_formula_sum "Si O2"
_cell_formula_units_Z 80
_cell_length_a 28.716641
_cell_length_b 8.840744
_cell_length_c 18.121355
_cell_angle_alpha 90.000000
_cell_angle_beta 90.000000
_cell_angle_gamma 90.000000
_cell_volume 4600.585668
_symmetry_space_group_name_H-M "C M M M"
_symmetry_group_IT_number 65
_symmetry_cell_setting 'orthorhombic'
loop_
_space_group_symop_operation_xyz
x,y,z
-x,-y,z
x,-y,-z
-x,y,-z
-x,-y,-z
x,y,-z
-x,y,z
x,-y,z
1/2+x,1/2+y,z
1/2-x,1/2-y,z
1/2+x,1/2-y,-z
1/2-x,1/2+y,-z
1/2-x,1/2-y,-z
1/2+x,1/2+y,-z
1/2-x,1/2+y,z
1/2+x,1/2-y,z
loop_
_atom_site_type_symbol
_atom_site_label
_atom_site_fract_x
_atom_site_fract_y
_atom_site_fract_z
Si Si1 0.698723 0.680995 0.000000
Si Si2 0.800596 0.320553 0.852396
Si Si3 0.947121 0.821862 0.349958
Si Si4 0.136438 0.322505 0.286010
Si Si5 0.555122 0.831707 0.500000
Si Si6 0.299128 0.822745 0.417303
O O1 0.750000 0.750000 0.000000
O O2 0.675473 0.746409 0.925353
O O3 0.698602 0.500000 0.000000
O O4 0.795092 0.500000 0.862385
O O5 0.750000 0.250000 0.836185
O O6 0.834738 0.276931 0.786087
O O7 0.913674 0.760621 0.284974
O O8 0.928161 0.754140 0.426957
O O9 0.000000 0.769059 0.333173
O O10 0.944316 0.000000 0.355477
O O11 0.127327 0.500000 0.289115
O O12 0.163841 0.262986 0.358068
O O13 0.500000 0.840689 0.500000
O O14 0.577418 0.000000 0.500000
O O15 0.316069 0.779256 0.500000
O O16 0.250000 0.750000 0.398504
O O17 0.292179 0.000000 0.408568
#
# Coordination Sequence:
#
# PCOD8266390 Si02
#       6
#     8  16  16  16   8  16
#     4  10  18  30  50  74 101 134 167 198 246 299
#     4  10  19  32  50  75 106 135 168 205 244 292
#     4  10  21  35  50  71  98 126 163 212 259 301
#     4  10  21  33  49  73  98 131 169 205 247 296
#     4   9  17  31  51  69  88 119 158 203 255 305
#     4   9  18  32  47  65  92 126 165 204 238 280
#
# _framework density 17.389089999999999
#
# number of rings (size 3 to 8) (size 9 to 14) (size 15 to 20)
#    0.000    2.300    0.000    4.200    1.400    4.800 
#    0.000    0.000    0.000    0.000    0.000    0.700 
#    0.000    5.600    0.000    0.000    0.000    0.000 
#
# Total GULP energy -495930.942195 kJ/mol
# GULP energy per Si atom -12398.273555 kJ/mol
# Density = 1.734951 g / cm^3
# Si number density = 17.389090 Si / 1000 Ang^3
#
#
#
# Elastic Constant Matrix: (Units=GPa)
#
#
# Indices 1 2 3 4 5 6 
#
# 1 87.6700 42.2536 71.2262 0.0000 0.0000 0.0000
# 2 42.2536 77.3664 51.4266 0.0000 0.0000 0.0000
# 3 71.2262 51.4266 127.6896 0.0000 0.0000 0.0000
# 4 0.0000 0.0000 0.0000 26.6135 0.0000 0.0000
# 5 0.0000 0.0000 0.0000 0.0000 16.6726 0.0000
# 6 0.0000 0.0000 0.0000 0.0000 0.0000 26.8163
#
#
#
# Elastic Compliance Matrix: (Units=1/GPa)
#
#
# Indices 1 2 3 4 5 6 
#
# 1 0.022376 -0.005359 -0.010323 0.000000 0.000000 0.000000
# 2 -0.005359 0.018934 -0.004637 0.000000 0.000000 0.000000
# 3 -0.010323 -0.004637 0.015457 0.000000 0.000000 0.000000
# 4 0.000000 0.000000 0.000000 0.037575 0.000000 0.000000
# 5 0.000000 0.000000 0.000000 0.000000 0.059979 0.000000
# 6 0.000000 0.000000 0.000000 0.000000 0.000000 0.037291
#
#
# Mechanical properties :
#
#
# Convention : Reuss Voigt Hill
#
# Bulk Modulus (GPa) = 61.99473 69.17096 65.58284
# Shear Modulus (GPa) = 21.04147 22.54179 21.79163
#
# Velocity S-wave (km/s) = 3.48233 3.60435 3.54387
# Velocity P-wave (km/s) = 7.20401 7.56217 7.38526
#
# Compressibility (1/GPa) = 0.01613040
#
# Stress axis : x y z
#
# Youngs Moduli (GPa) = 44.69040 52.81474 64.69408
#
# Poissons Ratio (x) = 0.28301 0.66787
# Poissons Ratio (y) = 0.23948 0.29996
# Poissons Ratio (z) = 0.46136 0.24488
#
# Static dielectric constant tensor:
#      x y z
#    x 3.306690 0.000000 0.000000 
#    y 0.000000 3.255390 0.000000 
#    z 0.000000 0.000000 3.623240 
# 
# 
# High freq. dielectric constant tensor:
#      x y z
#    x 1.650690 0.000000 0.000000 
#    y 0.000000 1.678870 0.000000 
#    z 0.000000 0.000000 1.662330 
# 
# From -- ./inp_files/57875.got.cif
#   From: 2010.03.12/outbox.cif.g09.slc.cpg/sg65_29_cif.got.tgz:57875.got - 2010.04.10 20:52:16.
