data_PCOD8266906
_publ_section_title
;
Structure prediction by ZEFSAII (Michael W. Deem and Ramdas Pophale) SiO2 
 PCOD8266906
Probable space group: C M M M
;
_chemical_formula_sum "Si O2"
_cell_formula_units_Z 104
_cell_length_a 9.183983
_cell_length_b 33.536579
_cell_length_c 20.367429
_cell_angle_alpha 90.000000
_cell_angle_beta 90.000000
_cell_angle_gamma 90.000000
_cell_volume 6273.155329
_symmetry_space_group_name_H-M "C M M M"
_symmetry_group_IT_number 65
_symmetry_cell_setting 'orthorhombic'
loop_
_space_group_symop_operation_xyz
x,y,z
-x,-y,z
x,-y,-z
-x,y,-z
-x,-y,-z
x,y,-z
-x,y,z
x,-y,z
1/2+x,1/2+y,z
1/2-x,1/2-y,z
1/2+x,1/2-y,-z
1/2-x,1/2+y,-z
1/2-x,1/2-y,-z
1/2+x,1/2+y,-z
1/2-x,1/2+y,z
1/2+x,1/2-y,z
loop_
_atom_site_type_symbol
_atom_site_label
_atom_site_fract_x
_atom_site_fract_y
_atom_site_fract_z
Si Si1 0.167367 0.421076 0.572580
Si Si2 0.828850 0.207543 0.357374
Si Si3 0.664929 0.919663 0.188203
Si Si4 0.664774 0.710058 0.500000
Si Si5 0.161509 0.500000 0.266244
Si Si6 0.670755 0.545142 0.074431
Si Si7 0.172086 0.000000 0.604279
Si Si8 0.327600 0.134526 0.692516
O O1 0.182237 0.400884 0.500000
O O2 0.262767 0.460864 0.570666
O O3 0.223099 0.391807 0.629971
O O4 0.000000 0.432677 0.587102
O O5 0.750000 0.250000 0.349657
O O6 0.801887 0.188196 0.430742
O O7 0.756216 0.176539 0.307398
O O8 0.000000 0.212584 0.342038
O O9 0.500000 0.910328 0.168133
O O10 0.681457 0.961917 0.221956
O O11 0.757854 0.921606 0.121574
O O12 0.720602 0.886467 0.239617
O O13 0.500000 0.724111 0.500000
O O14 0.750000 0.750000 0.500000
O O15 0.287870 0.500000 0.319406
O O16 0.000000 0.500000 0.299149
O O17 0.500000 0.546688 0.085865
O O18 0.726951 0.500000 0.088874
O O19 0.710952 0.556903 0.000000
O O20 0.000000 0.000000 0.594818
O O21 0.500000 0.141810 0.689594
#
# Coordination Sequence:
#
# PCOD8266906 Si02
#       8
#    16  16  16   8   8  16   8  16
#     4  10  21  37  53  66  88 127 167 206 254 304
#     4  10  20  35  53  73  98 127 159 199 251 308
#     4  10  19  32  51  71  96 129 168 211 244 282
#     4   8  16  30  48  70  92 117 148 187 238 296
#     4  10  18  33  50  65  92 129 166 203 244 290
#     4   9  18  31  47  71 104 137 167 202 244 291
#     4  12  23  33  48  68  91 121 164 216 261 296
#     4  10  21  35  51  73  97 124 163 208 252 298
#
# _framework density 16.578579000000001
#
# number of rings (size 3 to 8) (size 9 to 14) (size 15 to 20)
#    0.000    2.154    2.308    1.846    1.077    4.000 
#    0.000    0.769    0.000    0.000    0.000    0.000 
#    0.000    0.615    0.000    2.000    0.000    2.923 
#
# Total GULP energy -644454.964870 kJ/mol
# GULP energy per Si atom -12393.364709 kJ/mol
# Density = 1.654085 g / cm^3
# Si number density = 16.578579 Si / 1000 Ang^3
#
#
#
# Elastic Constant Matrix: (Units=GPa)
#
#
# Indices 1 2 3 4 5 6 
#
# 1 64.4724 40.6718 43.5951 0.0000 0.0000 0.0000
# 2 40.6718 87.9499 48.2471 0.0000 0.0000 0.0000
# 3 43.5951 48.2471 113.9296 0.0000 0.0000 0.0000
# 4 0.0000 0.0000 0.0000 23.4323 0.0000 0.0000
# 5 0.0000 0.0000 0.0000 0.0000 26.1480 0.0000
# 6 0.0000 0.0000 0.0000 0.0000 0.0000 21.5338
#
#
#
# Elastic Compliance Matrix: (Units=1/GPa)
#
#
# Indices 1 2 3 4 5 6 
#
# 1 0.024701 -0.008125 -0.006011 0.000000 0.000000 0.000000
# 2 -0.008125 0.017484 -0.004295 0.000000 0.000000 0.000000
# 3 -0.006011 -0.004295 0.012896 0.000000 0.000000 0.000000
# 4 0.000000 0.000000 0.000000 0.042676 0.000000 0.000000
# 5 0.000000 0.000000 0.000000 0.000000 0.038244 0.000000
# 6 0.000000 0.000000 0.000000 0.000000 0.000000 0.046439
#
#
# Mechanical properties :
#
#
# Convention : Reuss Voigt Hill
#
# Bulk Modulus (GPa) = 54.88895 59.04219 56.96557
# Shear Modulus (GPa) = 22.18538 23.14536 22.66537
#
# Velocity S-wave (km/s) = 3.66210 3.74050 3.70151
# Velocity P-wave (km/s) = 7.14574 7.37197 7.25973
#
# Compressibility (1/GPa) = 0.01821860
#
# Stress axis : x y z
#
# Youngs Moduli (GPa) = 40.48482 57.19633 77.54240
#
# Poissons Ratio (x) = 0.46474 0.46609
# Poissons Ratio (y) = 0.32895 0.33303
# Poissons Ratio (z) = 0.24335 0.24565
#
# Static dielectric constant tensor:
#      x y z
#    x 3.057680 0.000000 0.000000 
#    y 0.000000 2.901180 0.000000 
#    z 0.000000 0.000000 2.944950 
# 
# 
# High freq. dielectric constant tensor:
#      x y z
#    x 1.637820 0.000000 0.000000 
#    y 0.000000 1.608470 0.000000 
#    z 0.000000 0.000000 1.626470 
# 
# From -- ./inp_files/60950.got.cif
#   From: 2010.03.12/outbox.cif.g09.slc.cpg/sg65_31_cif.got.tgz:60950.got - 2010.04.10 20:52:16.
