data_PCOD8266243
_publ_section_title
;
Structure prediction by ZEFSAII (Michael W. Deem and Ramdas Pophale) SiO2 
 PCOD8266243
Probable space group: C M M M
;
_chemical_formula_sum "Si O2"
_cell_formula_units_Z 76
_cell_length_a 28.699395
_cell_length_b 14.334807
_cell_length_c 12.044708
_cell_angle_alpha 90.000000
_cell_angle_beta 90.000000
_cell_angle_gamma 90.000000
_cell_volume 4955.196344
_symmetry_space_group_name_H-M "C M M M"
_symmetry_group_IT_number 65
_symmetry_cell_setting 'orthorhombic'
loop_
_space_group_symop_operation_xyz
x,y,z
-x,-y,z
x,-y,-z
-x,y,-z
-x,-y,-z
x,y,-z
-x,y,z
x,-y,z
1/2+x,1/2+y,z
1/2-x,1/2-y,z
1/2+x,1/2-y,-z
1/2-x,1/2+y,-z
1/2-x,1/2-y,-z
1/2+x,1/2+y,-z
1/2-x,1/2+y,z
1/2+x,1/2-y,z
loop_
_atom_site_type_symbol
_atom_site_label
_atom_site_fract_x
_atom_site_fract_y
_atom_site_fract_z
Si Si1 0.798834 0.699711 0.793662
Si Si2 0.448714 0.107105 0.222540
Si Si3 0.349979 0.701855 0.000000
Si Si4 0.813312 0.000000 0.000000
Si Si5 0.275648 0.000000 0.120714
Si Si6 0.137776 0.391562 0.370244
Si Si7 0.553291 0.782302 0.000000
O O1 0.750000 0.750000 0.769958
O O2 0.826266 0.752300 0.891592
O O3 0.791702 0.592042 0.819484
O O4 0.828368 0.688435 0.680768
O O5 0.500000 0.135713 0.266282
O O6 0.412885 0.130478 0.319931
O O7 0.446707 0.000000 0.189535
O O8 0.436586 0.158362 0.109015
O O9 0.344150 0.591586 0.000000
O O10 0.406032 0.705631 0.000000
O O11 0.780637 0.000000 0.109733
O O12 0.299785 0.000000 0.000000
O O13 0.135679 0.372511 0.500000
O O14 0.152274 0.500000 0.346128
O O15 0.500000 0.741842 0.000000
#
# Coordination Sequence:
#
# PCOD8266243 Si02
#       7
#    16  16   8   4   8  16   8
#     4  12  20  32  52  73  99 130 167 200 244 292
#     4   9  17  30  48  71 101 132 161 196 238 291
#     4  12  20  33  53  78  96 130 154 199 251 299
#     4  10  20  34  49  76 104 118 157 206 242 302
#     4  10  18  30  47  76 104 120 160 205 237 292
#     4  10  21  33  46  69 100 135 171 205 242 280
#     4  10  19  30  48  75 100 123 159 200 246 299
#
# _framework density 15.337434999999999
#
# number of rings (size 3 to 8) (size 9 to 14) (size 15 to 20)
#    0.316    1.263    6.316    0.632    0.000    2.105 
#    1.895    2.368    0.000    0.000    0.000    0.000 
#    0.000    0.000    0.000    4.632    0.000    0.000 
#
# Total GULP energy -470790.937846 kJ/mol
# GULP energy per Si atom -12389.235206 kJ/mol
# Density = 1.530253 g / cm^3
# Si number density = 15.337435 Si / 1000 Ang^3
#
#
#
# Elastic Constant Matrix: (Units=GPa)
#
#
# Indices 1 2 3 4 5 6 
#
# 1 111.4338 47.0304 53.1582 0.0000 0.0000 0.0000
# 2 47.0304 88.6314 40.1072 0.0000 0.0000 0.0000
# 3 53.1582 40.1072 106.7044 0.0000 0.0000 0.0000
# 4 0.0000 0.0000 0.0000 -12.6341 0.0000 0.0000
# 5 0.0000 0.0000 0.0000 0.0000 16.5265 0.0000
# 6 0.0000 0.0000 0.0000 0.0000 0.0000 26.9417
#
#
#
# Elastic Compliance Matrix: (Units=1/GPa)
#
#
# Indices 1 2 3 4 5 6 
#
# 1 0.013333 -0.004903 -0.004799 0.000000 0.000000 0.000000
# 2 -0.004903 0.015398 -0.003345 0.000000 0.000000 0.000000
# 3 -0.004799 -0.003345 0.013020 0.000000 0.000000 0.000000
# 4 0.000000 0.000000 0.000000 -0.079151 0.000000 0.000000
# 5 0.000000 0.000000 0.000000 0.000000 0.060509 0.000000
# 6 0.000000 0.000000 0.000000 0.000000 0.000000 0.037117
#
#
# Mechanical properties :
#
#
# Convention : Reuss Voigt Hill
#
# Bulk Modulus (GPa) = 63.87322 65.26236 64.56779
# Shear Modulus (GPa) = 54.62171 17.26509 35.94340
#
# Velocity S-wave (km/s) = 5.97416 3.35876 4.84623
# Velocity P-wave (km/s) = 9.45110 7.59507 8.57346
#
# Compressibility (1/GPa) = 0.01565601
#
# Stress axis : x y z
#
# Youngs Moduli (GPa) = 75.00401 64.94322 76.80562
#
# Poissons Ratio (x) = 0.31841 0.36860
# Poissons Ratio (y) = 0.36774 0.25692
# Poissons Ratio (z) = 0.35996 0.21724
#
# Static dielectric constant tensor:
#      x y z
#    x 3.168630 0.000000 0.000000 
#    y 0.000000 2.788550 0.000000 
#    z 0.000000 0.000000 2.880560 
# 
# 
# High freq. dielectric constant tensor:
#      x y z
#    x 1.598070 0.000000 0.000000 
#    y 0.000000 1.562240 0.000000 
#    z 0.000000 0.000000 1.579070 
# 
# From -- ./inp_files/33606.got.cif
#   From: 2010.03.12/outbox.cif.g09.slc.cpg/sg65_17_cif.got.tgz:33606.got - 2010.04.10 20:52:16.
