data_PCOD8266315
_publ_section_title
;
Structure prediction by ZEFSAII (Michael W. Deem and Ramdas Pophale) SiO2 
 PCOD8266315
Probable space group: C M M M
;
_chemical_formula_sum "Si O2"
_cell_formula_units_Z 104
_cell_length_a 23.998782
_cell_length_b 27.742714
_cell_length_c 9.299734
_cell_angle_alpha 90.000000
_cell_angle_beta 90.000000
_cell_angle_gamma 90.000000
_cell_volume 6191.682411
_symmetry_space_group_name_H-M "C M M M"
_symmetry_group_IT_number 65
_symmetry_cell_setting 'orthorhombic'
loop_
_space_group_symop_operation_xyz
x,y,z
-x,-y,z
x,-y,-z
-x,y,-z
-x,-y,-z
x,y,-z
-x,y,z
x,-y,z
1/2+x,1/2+y,z
1/2-x,1/2-y,z
1/2+x,1/2-y,-z
1/2-x,1/2+y,-z
1/2-x,1/2-y,-z
1/2+x,1/2+y,-z
1/2-x,1/2+y,z
1/2+x,1/2-y,z
loop_
_atom_site_type_symbol
_atom_site_label
_atom_site_fract_x
_atom_site_fract_y
_atom_site_fract_z
Si Si1 0.562745 0.500000 0.670913
Si Si2 0.649209 0.056343 0.166751
Si Si3 0.435598 0.121189 0.667876
Si Si4 0.064890 0.179932 0.168443
Si Si5 0.434017 0.771699 0.341341
Si Si6 0.123838 0.094971 0.667994
Si Si7 0.742555 0.555350 0.335690
O O1 0.500000 0.500000 0.729553
O O2 0.565518 0.500000 0.500000
O O3 0.592961 0.547665 0.729110
O O4 0.598011 0.083336 0.238547
O O5 0.707451 0.073443 0.235520
O O6 0.640203 0.000000 0.194906
O O7 0.651117 0.069298 0.000000
O O8 0.426862 0.110210 0.500000
O O9 0.500000 0.115527 0.710890
O O10 0.413226 0.175096 0.704668
O O11 0.085280 0.231853 0.226687
O O12 0.102308 0.140171 0.243916
O O13 0.000000 0.170914 0.205647
O O14 0.075936 0.178609 0.000000
O O15 0.410542 0.758199 0.500000
O O16 0.500000 0.774231 0.350399
O O17 0.110436 0.102714 0.500000
O O18 0.189544 0.089031 0.695140
O O19 0.762178 0.560636 0.500000
O O20 0.725841 0.500000 0.303092
#
# Coordination Sequence:
#
# PCOD8266315 Si02
#       7
#     8  16  16  16  16  16  16
#     4   9  16  26  43  69  97 123 156 201 250 295
#     4  10  21  34  49  73 104 136 166 194 233 288
#     4   9  18  33  54  79 103 128 160 198 242 287
#     4  10  20  31  44  68 101 133 164 198 242 296
#     4   8  15  30  51  72  94 123 161 201 239 285
#     4  10  18  30  49  71  93 124 166 210 252 291
#     4   9  17  32  52  71  92 122 168 215 248 284
#
# _framework density 16.796727000000001
#
# number of rings (size 3 to 8) (size 9 to 14) (size 15 to 20)
#    0.000    2.692    0.769    2.308    0.000    4.308 
#    0.000    3.462    0.000    2.308    0.000    6.462 
#    0.000    0.000    0.000    0.000    0.000    0.000 
#
# Total GULP energy -644753.387745 kJ/mol
# GULP energy per Si atom -12399.103610 kJ/mol
# Density = 1.675850 g / cm^3
# Si number density = 16.796727 Si / 1000 Ang^3
#
#
#
# Elastic Constant Matrix: (Units=GPa)
#
#
# Indices 1 2 3 4 5 6 
#
# 1 88.2391 55.6490 59.8310 0.0000 0.0000 0.0000
# 2 55.6490 90.4774 59.4965 0.0000 0.0000 0.0000
# 3 59.8310 59.4965 92.5924 0.0000 0.0000 0.0000
# 4 0.0000 0.0000 0.0000 21.7865 0.0000 0.0000
# 5 0.0000 0.0000 0.0000 0.0000 22.8595 0.0000
# 6 0.0000 0.0000 0.0000 0.0000 0.0000 9.9266
#
#
#
# Elastic Compliance Matrix: (Units=1/GPa)
#
#
# Indices 1 2 3 4 5 6 
#
# 1 0.022772 -0.007498 -0.009897 0.000000 0.000000 0.000000
# 2 -0.007498 0.021609 -0.009040 0.000000 0.000000 0.000000
# 3 -0.009897 -0.009040 0.023004 0.000000 0.000000 0.000000
# 4 0.000000 0.000000 0.000000 0.045900 0.000000 0.000000
# 5 0.000000 0.000000 0.000000 0.000000 0.043746 0.000000
# 6 0.000000 0.000000 0.000000 0.000000 0.000000 0.100739
#
#
# Mechanical properties :
#
#
# Convention : Reuss Voigt Hill
#
# Bulk Modulus (GPa) = 68.89402 69.02910 68.96156
# Shear Modulus (GPa) = 15.84897 17.33668 16.59282
#
# Velocity S-wave (km/s) = 3.07510 3.21619 3.14643
# Velocity P-wave (km/s) = 7.32896 7.41470 7.37196
#
# Compressibility (1/GPa) = 0.01451505
#
# Stress axis : x y z
#
# Youngs Moduli (GPa) = 43.91296 46.27729 43.47125
#
# Poissons Ratio (x) = 0.34701 0.43022
# Poissons Ratio (y) = 0.32928 0.39297
# Poissons Ratio (z) = 0.43460 0.41834
#
# Static dielectric constant tensor:
#      x y z
#    x 2.981380 0.000000 0.000000 
#    y 0.000000 3.218140 0.000000 
#    z 0.000000 0.000000 3.094200 
# 
# 
# High freq. dielectric constant tensor:
#      x y z
#    x 1.627790 0.000000 0.000000 
#    y 0.000000 1.644810 0.000000 
#    z 0.000000 0.000000 1.639860 
# 
# From -- ./inp_files/14704.got.cif
#   From: 2010.03.12/outbox.cif.g09.slc.cpg/sg65_8_cif.got.tgz:14704.got - 2010.04.10 20:52:16.
