data_PCOD8266474
_publ_section_title
;
Structure prediction by ZEFSAII (Michael W. Deem and Ramdas Pophale) SiO2 
 PCOD8266474
Probable space group: C M M M
;
_chemical_formula_sum "Si O2"
_cell_formula_units_Z 104
_cell_length_a 8.845114
_cell_length_b 18.580364
_cell_length_c 33.577537
_cell_angle_alpha 90.000000
_cell_angle_beta 90.000000
_cell_angle_gamma 90.000000
_cell_volume 5518.315017
_symmetry_space_group_name_H-M "C M M M"
_symmetry_group_IT_number 65
_symmetry_cell_setting 'orthorhombic'
loop_
_space_group_symop_operation_xyz
x,y,z
-x,-y,z
x,-y,-z
-x,y,-z
-x,-y,-z
x,y,-z
-x,y,z
x,-y,z
1/2+x,1/2+y,z
1/2-x,1/2-y,z
1/2+x,1/2-y,-z
1/2-x,1/2+y,-z
1/2-x,1/2-y,-z
1/2+x,1/2+y,-z
1/2-x,1/2+y,z
1/2+x,1/2-y,z
loop_
_atom_site_type_symbol
_atom_site_label
_atom_site_fract_x
_atom_site_fract_y
_atom_site_fract_z
Si Si1 0.323058 0.827236 0.420900
Si Si2 0.325523 0.083533 0.657474
Si Si3 0.321653 0.671856 0.726555
Si Si4 0.822287 0.417891 0.882530
Si Si5 0.819649 0.170805 0.500000
Si Si6 0.821236 0.918063 0.801936
Si Si7 0.178355 0.326024 0.044185
O O1 0.500000 0.815338 0.429122
O O2 0.250000 0.750000 0.410579
O O3 0.292963 0.882012 0.385267
O O4 0.244603 0.864849 0.459517
O O5 0.500000 0.093660 0.669637
O O6 0.221618 0.123205 0.689230
O O7 0.280046 0.000000 0.655828
O O8 0.500000 0.681085 0.727465
O O9 0.250000 0.750000 0.722984
O O10 0.261806 0.631965 0.766222
O O11 0.773931 0.500000 0.887269
O O12 0.745346 0.385749 0.842916
O O13 0.759802 0.379847 0.922244
O O14 0.000000 0.407645 0.878032
O O15 0.750000 0.250000 0.500000
O O16 0.000000 0.170224 0.500000
O O17 0.000000 0.916467 0.804554
O O18 0.763375 0.000000 0.794881
O O19 0.250000 0.250000 0.053593
O O20 0.000000 0.318205 0.046951
O O21 0.225687 0.353660 0.000000
#
# Coordination Sequence:
#
# PCOD8266474 Si02
#       7
#    16  16  16  16   8  16  16
#     4  10  19  33  54  79 108 140 176 218 263 312
#     4  10  22  39  58  81 109 142 179 219 266 318
#     4  11  23  38  57  81 108 139 176 218 263 312
#     4   9  18  32  51  75 100 129 167 208 251 300
#     4  10  18  30  51  78 107 139 177 219 263 310
#     4   9  19  36  55  75 102 136 171 208 255 309
#     4   9  18  32  49  70  98 131 166 206 252 301
#
# _framework density 18.846332
#
# number of rings (size 3 to 8) (size 9 to 14) (size 15 to 20)
#    0.000    2.308    0.000    3.462    0.000    6.154 
#    0.000    6.538    0.000    2.308    0.000    4.308 
#    0.000    0.000    0.000    0.000    0.000    0.000 
#
# Total GULP energy -644765.237997 kJ/mol
# GULP energy per Si atom -12399.331500 kJ/mol
# Density = 1.880344 g / cm^3
# Si number density = 18.846332 Si / 1000 Ang^3
#
#
#
# Elastic Constant Matrix: (Units=GPa)
#
#
# Indices 1 2 3 4 5 6 
#
# 1 61.6887 35.5656 52.5316 0.0000 0.0000 0.0000
# 2 35.5656 103.4623 77.5477 0.0000 0.0000 0.0000
# 3 52.5316 77.5477 167.6385 0.0000 0.0000 0.0000
# 4 0.0000 0.0000 0.0000 33.8216 0.0000 0.0000
# 5 0.0000 0.0000 0.0000 0.0000 33.2993 0.0000
# 6 0.0000 0.0000 0.0000 0.0000 0.0000 21.3290
#
#
#
# Elastic Compliance Matrix: (Units=1/GPa)
#
#
# Indices 1 2 3 4 5 6 
#
# 1 0.023068 -0.003845 -0.005450 0.000000 0.000000 0.000000
# 2 -0.003845 0.015436 -0.005936 0.000000 0.000000 0.000000
# 3 -0.005450 -0.005936 0.010419 0.000000 0.000000 0.000000
# 4 0.000000 0.000000 0.000000 0.029567 0.000000 0.000000
# 5 0.000000 0.000000 0.000000 0.000000 0.030031 0.000000
# 6 0.000000 0.000000 0.000000 0.000000 0.000000 0.046885
#
#
# Mechanical properties :
#
#
# Convention : Reuss Voigt Hill
#
# Bulk Modulus (GPa) = 54.16588 73.78661 63.97624
# Shear Modulus (GPa) = 26.03890 28.83295 27.43592
#
# Velocity S-wave (km/s) = 3.72108 3.91563 3.81959
# Velocity P-wave (km/s) = 6.87496 7.72526 7.31248
#
# Compressibility (1/GPa) = 0.01846181
#
# Stress axis : x y z
#
# Youngs Moduli (GPa) = 43.34971 64.78372 95.97953
#
# Poissons Ratio (x) = 0.24908 0.52310
# Poissons Ratio (y) = 0.16667 0.56971
# Poissons Ratio (z) = 0.23626 0.38454
#
# Static dielectric constant tensor:
#      x y z
#    x 3.413540 0.000000 0.000000 
#    y 0.000000 3.387800 0.000000 
#    z 0.000000 0.000000 3.965730 
# 
# 
# High freq. dielectric constant tensor:
#      x y z
#    x 1.729470 0.000000 0.000000 
#    y 0.000000 1.716310 0.000000 
#    z 0.000000 0.000000 1.752670 
# 
# From -- ./inp_files/76904.got.cif
#   From: 2010.03.12/outbox.cif.g09.slc.cpg/sg65_39_cif.got.tgz:76904.got - 2010.04.10 20:52:16.
