data_PCOD8266276
_publ_section_title
;
Structure prediction by ZEFSAII (Michael W. Deem and Ramdas Pophale) SiO2 
 PCOD8266276
Probable space group: C M M M
;
_chemical_formula_sum "Si O2"
_cell_formula_units_Z 104
_cell_length_a 20.444729
_cell_length_b 32.189930
_cell_length_c 9.194059
_cell_angle_alpha 90.000000
_cell_angle_beta 90.000000
_cell_angle_gamma 90.000000
_cell_volume 6050.742580
_symmetry_space_group_name_H-M "C M M M"
_symmetry_group_IT_number 65
_symmetry_cell_setting 'orthorhombic'
loop_
_space_group_symop_operation_xyz
x,y,z
-x,-y,z
x,-y,-z
-x,y,-z
-x,-y,-z
x,y,-z
-x,y,z
x,-y,z
1/2+x,1/2+y,z
1/2-x,1/2-y,z
1/2+x,1/2-y,-z
1/2-x,1/2+y,-z
1/2-x,1/2-y,-z
1/2+x,1/2+y,-z
1/2-x,1/2+y,z
1/2+x,1/2-y,z
loop_
_atom_site_type_symbol
_atom_site_label
_atom_site_fract_x
_atom_site_fract_y
_atom_site_fract_z
Si Si1 0.570288 0.500000 0.827684
Si Si2 0.839724 0.927518 0.828517
Si Si3 0.924879 0.784336 0.170270
Si Si4 0.072470 0.688620 0.829745
Si Si5 0.171908 0.845375 0.328022
Si Si6 0.284199 0.046154 0.334726
Si Si7 0.178974 0.363593 0.334089
O O1 0.500000 0.500000 0.753460
O O2 0.604820 0.541486 0.775799
O O3 0.567070 0.500000 0.000000
O O4 0.858442 0.886212 0.742809
O O5 0.772590 0.949169 0.782072
O O6 0.837869 0.918702 0.000000
O O7 0.913078 0.736327 0.208257
O O8 0.868664 0.807273 0.261706
O O9 0.000000 0.797005 0.212423
O O10 0.913964 0.793195 0.000000
O O11 0.125116 0.658722 0.760206
O O12 0.000000 0.676733 0.772664
O O13 0.076166 0.681688 0.000000
O O14 0.162096 0.845557 0.500000
O O15 0.249277 0.846323 0.287523
O O16 0.256443 0.049313 0.500000
O O17 0.330565 0.086399 0.310332
O O18 0.317380 0.000000 0.312374
O O19 0.166256 0.351674 0.500000
#
# Coordination Sequence:
#
# PCOD8266276 Si02
#       7
#     8  16  16  16  16  16  16
#     4   9  18  30  43  63  91 123 162 207 250 291
#     4  10  18  30  48  69  93 126 169 211 252 297
#     4   9  19  36  55  74  98 133 175 213 255 307
#     4   9  19  36  56  77 102 132 167 209 256 308
#     4  10  21  35  50  74 106 135 168 212 259 303
#     4   9  17  31  51  72 100 133 163 203 252 298
#     4   9  19  33  50  77 106 134 169 208 253 303
#
# _framework density 17.187973
#
# number of rings (size 3 to 8) (size 9 to 14) (size 15 to 20)
#    0.000    2.692    0.769    2.769    0.000    5.538 
#    0.000    6.154    0.000    3.692    0.000    3.231 
#    0.000    0.000    0.000    0.000    0.000    0.000 
#
# Total GULP energy -644303.288213 kJ/mol
# GULP energy per Si atom -12390.447850 kJ/mol
# Density = 1.714885 g / cm^3
# Si number density = 17.187973 Si / 1000 Ang^3
#
#
#
# Elastic Constant Matrix: (Units=GPa)
#
#
# Indices 1 2 3 4 5 6 
#
# 1 101.6406 81.0809 48.7056 0.0000 0.0000 0.0000
# 2 81.0809 133.6771 57.0058 0.0000 0.0000 0.0000
# 3 48.7056 57.0058 61.5025 0.0000 0.0000 0.0000
# 4 0.0000 0.0000 0.0000 29.7075 0.0000 0.0000
# 5 0.0000 0.0000 0.0000 0.0000 13.4050 0.0000
# 6 0.0000 0.0000 0.0000 0.0000 0.0000 22.2527
#
#
#
# Elastic Compliance Matrix: (Units=1/GPa)
#
#
# Indices 1 2 3 4 5 6 
#
# 1 0.021234 -0.009439 -0.008067 0.000000 0.000000 0.000000
# 2 -0.009439 0.016566 -0.007880 0.000000 0.000000 0.000000
# 3 -0.008067 -0.007880 0.029951 0.000000 0.000000 0.000000
# 4 0.000000 0.000000 0.000000 0.033661 0.000000 0.000000
# 5 0.000000 0.000000 0.000000 0.000000 0.074599 0.000000
# 6 0.000000 0.000000 0.000000 0.000000 0.000000 0.044938
#
#
# Mechanical properties :
#
#
# Convention : Reuss Voigt Hill
#
# Bulk Modulus (GPa) = 58.89226 74.48941 66.69083
# Shear Modulus (GPa) = 18.02564 20.40824 19.21694
#
# Velocity S-wave (km/s) = 3.24193 3.44954 3.34735
# Velocity P-wave (km/s) = 6.95353 7.70052 7.33654
#
# Compressibility (1/GPa) = 0.01698016
#
# Stress axis : x y z
#
# Youngs Moduli (GPa) = 47.09395 60.36298 33.38741
#
# Poissons Ratio (x) = 0.56979 0.26932
# Poissons Ratio (y) = 0.44454 0.26309
# Poissons Ratio (z) = 0.37989 0.47565
#
# Static dielectric constant tensor:
#      x y z
#    x 3.167590 0.000000 0.000000 
#    y 0.000000 3.341310 0.000000 
#    z 0.000000 0.000000 3.138480 
# 
# 
# High freq. dielectric constant tensor:
#      x y z
#    x 1.640480 0.000000 0.000000 
#    y 0.000000 1.673750 0.000000 
#    z 0.000000 0.000000 1.661590 
# 
# From -- ./inp_files/12736.got.cif
#   From: 2010.03.12/outbox.cif.g09.slc.cpg/sg65_7_cif.got.tgz:12736.got - 2010.04.10 20:52:16.
