data_PCOD8266064
_publ_section_title
;
Structure prediction by ZEFSAII (Michael W. Deem and Ramdas Pophale) SiO2 
 PCOD8266064
Probable space group: C M M M
;
_chemical_formula_sum "Si O2"
_cell_formula_units_Z 112
_cell_length_a 17.884091
_cell_length_b 23.909040
_cell_length_c 14.768114
_cell_angle_alpha 90.000000
_cell_angle_beta 90.000000
_cell_angle_gamma 90.000000
_cell_volume 6314.719236
_symmetry_space_group_name_H-M "C M M M"
_symmetry_group_IT_number 65
_symmetry_cell_setting 'orthorhombic'
loop_
_space_group_symop_operation_xyz
x,y,z
-x,-y,z
x,-y,-z
-x,y,-z
-x,-y,-z
x,y,-z
-x,y,z
x,-y,z
1/2+x,1/2+y,z
1/2-x,1/2-y,z
1/2+x,1/2-y,-z
1/2-x,1/2+y,-z
1/2-x,1/2-y,-z
1/2+x,1/2+y,-z
1/2-x,1/2+y,z
1/2+x,1/2-y,z
loop_
_atom_site_type_symbol
_atom_site_label
_atom_site_fract_x
_atom_site_fract_y
_atom_site_fract_z
Si Si1 0.085619 0.438570 0.339578
Si Si2 0.415909 0.838477 0.099561
Si Si3 0.666396 0.061915 0.153256
Si Si4 0.162599 0.260329 0.769540
Si Si5 0.672006 0.438090 0.894446
Si Si6 0.587565 0.670120 0.103631
Si Si7 0.413357 0.183676 0.398703
O O1 0.096541 0.500000 0.389199
O O2 0.140862 0.436670 0.256037
O O3 0.105489 0.383246 0.397617
O O4 0.000000 0.434235 0.306005
O O5 0.500000 0.832666 0.139057
O O6 0.390701 0.902600 0.091874
O O7 0.354975 0.812383 0.165888
O O8 0.413288 0.810642 0.000000
O O9 0.751750 0.083893 0.151765
O O10 0.664691 0.000000 0.111670
O O11 0.250000 0.250000 0.761068
O O12 0.124688 0.207496 0.818355
O O13 0.131982 0.276529 0.670241
O O14 0.648386 0.500000 0.858566
O O15 0.606292 0.394216 0.872595
O O16 0.688339 0.440843 0.000000
O O17 0.500000 0.679846 0.110429
O O18 0.614717 0.684346 0.000000
O O19 0.394139 0.204483 0.500000
O O20 0.500000 0.192626 0.375760
#
# Coordination Sequence:
#
# PCOD8266064 Si02
#       7
#    16  16  16  16  16  16  16
#     4   9  17  30  51  78 106 137 172 209 251 302
#     4  11  22  34  50  73 104 142 182 220 255 301
#     4  10  18  29  47  72 106 143 176 212 251 302
#     4  12  24  37  55  75 102 137 176 218 269 313
#     4   9  18  32  50  74 104 137 175 216 259 310
#     4  10  21  36  54  77 105 137 176 221 266 314
#     4  10  21  38  59  80 105 137 172 213 261 313
#
# _framework density 17.736338
#
# number of rings (size 3 to 8) (size 9 to 14) (size 15 to 20)
#    0.000    1.857    1.429    3.429    0.000    6.000 
#    0.000    3.571    0.000    0.000    0.000    0.000 
#    0.000    0.571    0.000    3.000    0.000    0.143 
#
# Total GULP energy -693838.938220 kJ/mol
# GULP energy per Si atom -12389.981040 kJ/mol
# Density = 1.769597 g / cm^3
# Si number density = 17.736338 Si / 1000 Ang^3
#
#
#
# Elastic Constant Matrix: (Units=GPa)
#
#
# Indices 1 2 3 4 5 6 
#
# 1 93.2703 49.0719 45.9969 0.0000 0.0000 0.0000
# 2 49.0719 101.4368 43.3652 0.0000 0.0000 0.0000
# 3 45.9969 43.3652 92.2387 0.0000 0.0000 0.0000
# 4 0.0000 0.0000 0.0000 19.4833 0.0000 0.0000
# 5 0.0000 0.0000 0.0000 0.0000 225.9009 0.0000
# 6 0.0000 0.0000 0.0000 0.0000 0.0000 28.3331
#
#
#
# Elastic Compliance Matrix: (Units=1/GPa)
#
#
# Indices 1 2 3 4 5 6 
#
# 1 0.016383 -0.005548 -0.005561 0.000000 0.000000 0.000000
# 2 -0.005548 0.014217 -0.003917 0.000000 0.000000 0.000000
# 3 -0.005561 -0.003917 0.015456 0.000000 0.000000 0.000000
# 4 0.000000 0.000000 0.000000 0.051326 0.000000 0.000000
# 5 0.000000 0.000000 0.000000 0.000000 0.004427 0.000000
# 6 0.000000 0.000000 0.000000 0.000000 0.000000 0.035294
#
#
# Mechanical properties :
#
#
# Convention : Reuss Voigt Hill
#
# Bulk Modulus (GPa) = 62.48852 62.64600 62.56726
# Shear Modulus (GPa) = 28.98684 64.64424 46.81554
#
# Velocity S-wave (km/s) = 4.04706 6.04371 5.14321
# Velocity P-wave (km/s) = 7.55954 9.17057 8.40375
#
# Compressibility (1/GPa) = 0.01600294
#
# Stress axis : x y z
#
# Youngs Moduli (GPa) = 61.03813 70.33810 64.69774
#
# Poissons Ratio (x) = 0.39024 0.35981
# Poissons Ratio (y) = 0.33865 0.25344
# Poissons Ratio (z) = 0.33946 0.27554
#
# Static dielectric constant tensor:
#      x y z
#    x 3.194220 0.000000 0.000000 
#    y 0.000000 3.691890 0.000000 
#    z 0.000000 0.000000 3.098830 
# 
# 
# High freq. dielectric constant tensor:
#      x y z
#    x 1.674710 0.000000 0.000000 
#    y 0.000000 1.697310 0.000000 
#    z 0.000000 0.000000 1.658760 
# 
# From -- ./inp_files/40829.got.cif
#   From: 2010.03.12/outbox.cif.g09.slc.cpg/sg65_21_cif.got.tgz:40829.got - 2010.04.10 20:52:16.
