data_PCOD8266986
_publ_section_title
;
Structure prediction by ZEFSAII (Michael W. Deem and Ramdas Pophale) SiO2 
 PCOD8266986
Probable space group: C M M M
;
_chemical_formula_sum "Si O2"
_cell_formula_units_Z 104
_cell_length_a 8.629111
_cell_length_b 21.805844
_cell_length_c 27.417841
_cell_angle_alpha 90.000000
_cell_angle_beta 90.000000
_cell_angle_gamma 90.000000
_cell_volume 5159.079377
_symmetry_space_group_name_H-M "C M M M"
_symmetry_group_IT_number 65
_symmetry_cell_setting 'orthorhombic'
loop_
_space_group_symop_operation_xyz
x,y,z
-x,-y,z
x,-y,-z
-x,y,-z
-x,-y,-z
x,y,-z
-x,y,z
x,-y,z
1/2+x,1/2+y,z
1/2-x,1/2-y,z
1/2+x,1/2-y,-z
1/2-x,1/2+y,-z
1/2-x,1/2-y,-z
1/2+x,1/2+y,-z
1/2-x,1/2+y,z
1/2+x,1/2-y,z
loop_
_atom_site_type_symbol
_atom_site_label
_atom_site_fract_x
_atom_site_fract_y
_atom_site_fract_z
Si Si1 0.317989 0.500000 0.246891
Si Si2 0.683830 0.568409 0.055348
Si Si3 0.316899 0.687359 0.315091
Si Si4 0.182093 0.375881 0.595263
Si Si5 0.818330 0.818184 0.500000
Si Si6 0.316778 0.000000 0.645052
Si Si7 0.181597 0.872328 0.216987
Si Si8 0.315038 0.316235 0.881018
O O1 0.500000 0.500000 0.258078
O O2 0.241136 0.500000 0.299866
O O3 0.269264 0.556741 0.212466
O O4 0.500000 0.569200 0.058354
O O5 0.740406 0.500000 0.073402
O O6 0.747632 0.626514 0.086395
O O7 0.740427 0.578351 0.000000
O O8 0.500000 0.687521 0.325184
O O9 0.250000 0.750000 0.294910
O O10 0.224074 0.673782 0.364174
O O11 0.265637 0.642606 0.271766
O O12 0.268146 0.357977 0.546144
O O13 0.243790 0.441193 0.614988
O O14 0.000000 0.376064 0.585069
O O15 0.750000 0.750000 0.500000
O O16 0.000000 0.809800 0.500000
O O17 0.500000 0.000000 0.647089
O O18 0.251720 0.830918 0.173524
O O19 0.000000 0.863172 0.212276
O O20 0.500000 0.312856 0.883458
O O21 0.250000 0.250000 0.898291
#
# Coordination Sequence:
#
# PCOD8266986 Si02
#       8
#     8  16  16  16   8   8  16  16
#     4  10  18  34  57  81 109 142 187 236 275 326
#     4   8  15  29  51  79 108 141 188 244 293 339
#     4  11  21  35  54  79 108 144 185 226 273 328
#     4  11  23  41  62  86 115 147 181 222 271 327
#     4  12  26  45  66  89 115 146 184 226 271 320
#     4  10  22  39  61  88 117 145 179 221 273 326
#     4   9  19  32  52  80 109 143 183 229 280 330
#     4  10  20  34  52  79 113 149 188 234 289 345
#
# _framework density 20.158636000000001
#
# number of rings (size 3 to 8) (size 9 to 14) (size 15 to 20)
#    0.000    2.000    1.538    3.000    1.077    1.231 
#    0.000    3.077    0.000    0.462    0.000    1.077 
#    0.000    0.000    0.000    0.000    0.000    0.000 
#
# Total GULP energy -644379.006438 kJ/mol
# GULP energy per Si atom -12391.903970 kJ/mol
# Density = 2.011275 g / cm^3
# Si number density = 20.158636 Si / 1000 Ang^3
#
#
#
# Elastic Constant Matrix: (Units=GPa)
#
#
# Indices 1 2 3 4 5 6 
#
# 1 34.3724 11.0708 20.4635 0.0000 0.0000 0.0000
# 2 11.0708 139.0369 57.7617 0.0000 0.0000 0.0000
# 3 20.4635 57.7617 111.5822 0.0000 0.0000 0.0000
# 4 0.0000 0.0000 0.0000 34.5423 0.0000 0.0000
# 5 0.0000 0.0000 0.0000 0.0000 9.9532 0.0000
# 6 0.0000 0.0000 0.0000 0.0000 0.0000 25.6503
#
#
#
# Elastic Compliance Matrix: (Units=1/GPa)
#
#
# Indices 1 2 3 4 5 6 
#
# 1 0.032661 -0.000143 -0.005916 0.000000 0.000000 0.000000
# 2 -0.000143 0.009164 -0.004717 0.000000 0.000000 0.000000
# 3 -0.005916 -0.004717 0.012489 0.000000 0.000000 0.000000
# 4 0.000000 0.000000 0.000000 0.028950 0.000000 0.000000
# 5 0.000000 0.000000 0.000000 0.000000 0.100470 0.000000
# 6 0.000000 0.000000 0.000000 0.000000 0.000000 0.038986
#
#
# Mechanical properties :
#
#
# Convention : Reuss Voigt Hill
#
# Bulk Modulus (GPa) = 30.52389 51.50927 41.01658
# Shear Modulus (GPa) = 19.59307 27.07553 23.33430
#
# Velocity S-wave (km/s) = 3.12098 3.66884 3.40595
# Velocity P-wave (km/s) = 5.30680 6.59959 5.98819
#
# Compressibility (1/GPa) = 0.03276123
#
# Stress axis : x y z
#
# Youngs Moduli (GPa) = 30.61744 109.12846 80.07097
#
# Poissons Ratio (x) = 0.01560 0.47369
# Poissons Ratio (y) = 0.00438 0.37772
# Poissons Ratio (z) = 0.18113 0.51480
#
# Static dielectric constant tensor:
#      x y z
#    x 3.299870 0.000000 0.000000 
#    y 0.000000 4.089660 0.000000 
#    z 0.000000 0.000000 3.812030 
# 
# 
# High freq. dielectric constant tensor:
#      x y z
#    x 1.748640 0.000000 0.000000 
#    y 0.000000 1.808180 0.000000 
#    z 0.000000 0.000000 1.789530 
# 
# From -- ./inp_files/73399.got.cif
#   From: 2010.03.12/outbox.cif.g09.slc.cpg/sg65_37_cif.got.tgz:73399.got - 2010.04.10 20:52:16.
