data_PCOD8266642
_publ_section_title
;
Structure prediction by ZEFSAII (Michael W. Deem and Ramdas Pophale) SiO2 
 PCOD8266642
Probable space group: C M M M
;
_chemical_formula_sum "Si O2"
_cell_formula_units_Z 80
_cell_length_a 18.741929
_cell_length_b 19.331276
_cell_length_c 13.238644
_cell_angle_alpha 90.000000
_cell_angle_beta 90.000000
_cell_angle_gamma 90.000000
_cell_volume 4796.432240
_symmetry_space_group_name_H-M "C M M M"
_symmetry_group_IT_number 65
_symmetry_cell_setting 'orthorhombic'
loop_
_space_group_symop_operation_xyz
x,y,z
-x,-y,z
x,-y,-z
-x,y,-z
-x,-y,-z
x,y,-z
-x,y,z
x,-y,z
1/2+x,1/2+y,z
1/2-x,1/2-y,z
1/2+x,1/2-y,-z
1/2-x,1/2+y,-z
1/2-x,1/2-y,-z
1/2+x,1/2+y,-z
1/2-x,1/2+y,z
1/2+x,1/2-y,z
loop_
_atom_site_type_symbol
_atom_site_label
_atom_site_fract_x
_atom_site_fract_y
_atom_site_fract_z
Si Si1 0.579892 0.389770 0.615379
Si Si2 0.298117 0.816875 0.617863
Si Si3 0.289640 0.576957 0.263564
Si Si4 0.419267 0.750926 0.274861
Si Si5 0.186055 0.803598 0.883539
O O1 0.605070 0.399005 0.500000
O O2 0.500000 0.418781 0.630541
O O3 0.631412 0.431600 0.689541
O O4 0.582858 0.308760 0.641060
O O5 0.313642 0.821040 0.500000
O O6 0.250000 0.750000 0.646444
O O7 0.259054 0.886541 0.652094
O O8 0.372785 0.813174 0.678356
O O9 0.260769 0.500000 0.238284
O O10 0.290444 0.622446 0.161896
O O11 0.500000 0.776072 0.253519
O O12 0.385211 0.724555 0.170080
O O13 0.250000 0.750000 0.867402
O O14 0.167410 0.814663 0.000000
#
# Coordination Sequence:
#
# PCOD8266642 Si02
#       5
#    16  16  16  16  16
#     4   9  17  29  46  71 102 135 170 205 244 297
#     4  11  19  32  52  75 104 136 174 217 255 298
#     4  11  21  33  49  74 106 140 173 207 256 309
#     4  10  18  31  52  78 103 130 168 214 264 307
#     4  10  19  36  58  77  99 127 167 217 261 302
#
# _framework density 16.679064
#
# number of rings (size 3 to 8) (size 9 to 14) (size 15 to 20)
#    0.000    1.800    6.000    1.200    0.000    4.000 
#    0.000    1.000    0.000    0.600    0.000    7.000 
#    0.000    3.200    0.000    0.000    0.000    0.000 
#
# Total GULP energy -495988.923627 kJ/mol
# GULP energy per Si atom -12399.723091 kJ/mol
# Density = 1.664110 g / cm^3
# Si number density = 16.679064 Si / 1000 Ang^3
#
#
#
# Elastic Constant Matrix: (Units=GPa)
#
#
# Indices 1 2 3 4 5 6 
#
# 1 94.3283 40.9332 40.1741 0.0000 0.0000 0.0000
# 2 40.9332 96.3913 43.0595 0.0000 0.0000 0.0000
# 3 40.1741 43.0595 117.3154 0.0000 0.0000 0.0000
# 4 0.0000 0.0000 0.0000 11.6888 0.0000 0.0000
# 5 0.0000 0.0000 0.0000 0.0000 22.1282 0.0000
# 6 0.0000 0.0000 0.0000 0.0000 0.0000 11.3982
#
#
#
# Elastic Compliance Matrix: (Units=1/GPa)
#
#
# Indices 1 2 3 4 5 6 
#
# 1 0.013877 -0.004510 -0.003097 0.000000 0.000000 0.000000
# 2 -0.004510 0.013874 -0.003548 0.000000 0.000000 0.000000
# 3 -0.003097 -0.003548 0.010887 0.000000 0.000000 0.000000
# 4 0.000000 0.000000 0.000000 0.085552 0.000000 0.000000
# 5 0.000000 0.000000 0.000000 0.000000 0.045191 0.000000
# 6 0.000000 0.000000 0.000000 0.000000 0.000000 0.087733
#
#
# Mechanical properties :
#
#
# Convention : Reuss Voigt Hill
#
# Bulk Modulus (GPa) = 61.24063 61.81873 61.52968
# Shear Modulus (GPa) = 17.55203 21.30093 19.42648
#
# Velocity S-wave (km/s) = 3.24750 3.57754 3.41651
# Velocity P-wave (km/s) = 7.13151 7.36269 7.24802
#
# Compressibility (1/GPa) = 0.01632903
#
# Stress axis : x y z
#
# Youngs Moduli (GPa) = 72.06085 72.07507 91.85350
#
# Poissons Ratio (x) = 0.32503 0.28447
# Poissons Ratio (y) = 0.32496 0.32591
# Poissons Ratio (z) = 0.22317 0.25574
#
# Static dielectric constant tensor:
#      x y z
#    x 3.287990 0.000000 0.000000 
#    y 0.000000 2.896520 0.000000 
#    z 0.000000 0.000000 3.093120 
# 
# 
# High freq. dielectric constant tensor:
#      x y z
#    x 1.638660 0.000000 0.000000 
#    y 0.000000 1.613300 0.000000 
#    z 0.000000 0.000000 1.642270 
# 
# From -- ./inp_files/42327.got.cif
#   From: 2010.03.12/outbox.cif.g09.slc.cpg/sg65_22_cif.got.tgz:42327.got - 2010.04.10 20:52:16.
