data_PCOD8266598
_publ_section_title
;
Structure prediction by ZEFSAII (Michael W. Deem and Ramdas Pophale) SiO2 
 PCOD8266598
Probable space group: C M M M
;
_chemical_formula_sum "Si O2"
_cell_formula_units_Z 104
_cell_length_a 9.212105
_cell_length_b 25.693198
_cell_length_c 25.962240
_cell_angle_alpha 90.000000
_cell_angle_beta 90.000000
_cell_angle_gamma 90.000000
_cell_volume 6144.962026
_symmetry_space_group_name_H-M "C M M M"
_symmetry_group_IT_number 65
_symmetry_cell_setting 'orthorhombic'
loop_
_space_group_symop_operation_xyz
x,y,z
-x,-y,z
x,-y,-z
-x,y,-z
-x,-y,-z
x,y,-z
-x,y,z
x,-y,z
1/2+x,1/2+y,z
1/2-x,1/2-y,z
1/2+x,1/2-y,-z
1/2-x,1/2+y,-z
1/2-x,1/2-y,-z
1/2+x,1/2+y,-z
1/2-x,1/2+y,z
1/2+x,1/2-y,z
loop_
_atom_site_type_symbol
_atom_site_label
_atom_site_fract_x
_atom_site_fract_y
_atom_site_fract_z
Si Si1 0.332272 0.561133 0.400531
Si Si2 0.327470 0.596590 0.290699
Si Si3 0.833582 0.605741 0.060310
Si Si4 0.669402 0.698590 0.234077
Si Si5 0.836242 0.561951 0.500000
Si Si6 0.168027 0.500000 0.882125
Si Si7 0.670242 0.697591 0.885023
Si Si8 0.326978 0.500000 0.224896
O O1 0.500000 0.573498 0.411153
O O2 0.308123 0.500000 0.392152
O O3 0.273745 0.590051 0.349439
O O4 0.242904 0.583169 0.448981
O O5 0.500000 0.593865 0.289479
O O6 0.270214 0.651024 0.268178
O O7 0.266867 0.550357 0.255040
O O8 0.792248 0.550462 0.084598
O O9 0.728573 0.649466 0.082634
O O10 0.000000 0.620677 0.072684
O O11 0.806183 0.601233 0.000000
O O12 0.500000 0.707265 0.242828
O O13 0.750000 0.750000 0.253431
O O14 0.704585 0.686467 0.174701
O O15 0.828842 0.500000 0.500000
O O16 0.000000 0.582773 0.500000
O O17 0.266039 0.500000 0.832031
O O18 0.000000 0.500000 0.865999
O O19 0.500000 0.704310 0.895245
O O20 0.750000 0.750000 0.903531
O O21 0.500000 0.500000 0.221717
#
# Coordination Sequence:
#
# PCOD8266598 Si02
#       8
#    16  16  16  16   8   8  16   8
#     4   9  15  26  44  66  90 122 162 196 228 274
#     4   9  16  28  48  72  97 124 157 198 238 277
#     4  10  21  37  55  73  96 128 164 201 241 288
#     4   9  18  32  49  70  96 126 158 191 232 282
#     4   9  17  27  39  59  92 131 160 191 234 276
#     4  10  21  36  52  72  99 131 164 197 239 291
#     4  10  20  35  55  78 101 127 158 198 246 296
#     4  10  18  31  51  74  99 126 157 195 242 289
#
# _framework density 16.924433000000001
#
# number of rings (size 3 to 8) (size 9 to 14) (size 15 to 20)
#    0.000    2.538    0.769    1.846    0.000    4.923 
#    0.000    2.308    0.000    1.385    0.000    0.538 
#    0.000    0.000    0.000    0.000    0.000    0.000 
#
# Total GULP energy -644857.655281 kJ/mol
# GULP energy per Si atom -12401.108755 kJ/mol
# Density = 1.688591 g / cm^3
# Si number density = 16.924433 Si / 1000 Ang^3
#
#
#
# Elastic Constant Matrix: (Units=GPa)
#
#
# Indices 1 2 3 4 5 6 
#
# 1 62.5877 46.9252 52.7354 0.0000 0.0000 0.0000
# 2 46.9252 123.6027 72.9203 0.0000 0.0000 0.0000
# 3 52.7354 72.9203 130.6178 0.0000 0.0000 0.0000
# 4 0.0000 0.0000 0.0000 -24.1306 0.0000 0.0000
# 5 0.0000 0.0000 0.0000 0.0000 19.9663 0.0000
# 6 0.0000 0.0000 0.0000 0.0000 0.0000 24.6256
#
#
#
# Elastic Compliance Matrix: (Units=1/GPa)
#
#
# Indices 1 2 3 4 5 6 
#
# 1 0.026590 -0.005609 -0.007604 0.000000 0.000000 0.000000
# 2 -0.005609 0.013247 -0.005131 0.000000 0.000000 0.000000
# 3 -0.007604 -0.005131 0.013590 0.000000 0.000000 0.000000
# 4 0.000000 0.000000 0.000000 -0.041441 0.000000 0.000000
# 5 0.000000 0.000000 0.000000 0.000000 0.050084 0.000000
# 6 0.000000 0.000000 0.000000 0.000000 0.000000 0.040608
#
#
# Mechanical properties :
#
#
# Convention : Reuss Voigt Hill
#
# Bulk Modulus (GPa) = 59.73835 73.55225 66.64530
# Shear Modulus (GPa) = 34.49572 13.70741 24.10156
#
# Velocity S-wave (km/s) = 4.51956 2.84899 3.77778
# Velocity P-wave (km/s) = 7.91258 7.37400 7.64804
#
# Compressibility (1/GPa) = 0.01673967
#
# Stress axis : x y z
#
# Youngs Moduli (GPa) = 37.60845 75.49048 73.58099
#
# Poissons Ratio (x) = 0.42339 0.55953
# Poissons Ratio (y) = 0.21093 0.37754
# Poissons Ratio (z) = 0.28598 0.38733
#
# Static dielectric constant tensor:
#      x y z
#    x 3.037130 0.000000 0.000000 
#    y 0.000000 3.127470 0.000000 
#    z 0.000000 0.000000 3.256660 
# 
# 
# High freq. dielectric constant tensor:
#      x y z
#    x 1.638120 0.000000 0.000000 
#    y 0.000000 1.638650 0.000000 
#    z 0.000000 0.000000 1.655920 
# 
# From -- ./inp_files/73647.got.cif
#   From: 2010.03.12/outbox.cif.g09.slc.cpg/sg65_37_cif.got.tgz:73647.got - 2010.04.10 20:52:16.
