data_PCOD8266769
_publ_section_title
;
Structure prediction by ZEFSAII (Michael W. Deem and Ramdas Pophale) SiO2 
 PCOD8266769
Probable space group: C M M M
;
_chemical_formula_sum "Si O2"
_cell_formula_units_Z 72
_cell_length_a 19.093305
_cell_length_b 16.907108
_cell_length_c 12.350544
_cell_angle_alpha 90.000000
_cell_angle_beta 90.000000
_cell_angle_gamma 90.000000
_cell_volume 3986.910846
_symmetry_space_group_name_H-M "C M M M"
_symmetry_group_IT_number 65
_symmetry_cell_setting 'orthorhombic'
loop_
_space_group_symop_operation_xyz
x,y,z
-x,-y,z
x,-y,-z
-x,y,-z
-x,-y,-z
x,y,-z
-x,y,z
x,-y,z
1/2+x,1/2+y,z
1/2-x,1/2-y,z
1/2+x,1/2-y,-z
1/2-x,1/2+y,-z
1/2-x,1/2-y,-z
1/2+x,1/2+y,-z
1/2-x,1/2+y,z
1/2+x,1/2-y,z
loop_
_atom_site_type_symbol
_atom_site_label
_atom_site_fract_x
_atom_site_fract_y
_atom_site_fract_z
Si Si1 0.659714 0.319670 0.181447
Si Si2 0.809235 0.647756 0.121985
Si Si3 0.581322 0.250571 0.622830
Si Si4 0.421421 0.593242 0.000000
Si Si5 0.079327 0.587173 0.726986
O O1 0.737946 0.355455 0.192807
O O2 0.661158 0.236575 0.118823
O O3 0.626987 0.307607 0.300655
O O4 0.614011 0.378554 0.110555
O O5 0.867571 0.590510 0.172164
O O6 0.792733 0.619803 0.000000
O O7 0.602657 0.269811 0.500000
O O8 0.500000 0.268845 0.643990
O O9 0.597369 0.157425 0.643227
O O10 0.418899 0.500000 0.000000
O O11 0.500000 0.626249 0.000000
O O12 0.087272 0.500000 0.672109
O O13 0.000000 0.598068 0.770631
#
# Coordination Sequence:
#
# PCOD8266769 Si02
#       5
#    16  16  16   8  16
#     4  10  18  35  52  74 105 132 168 219 258 304
#     4  10  18  32  52  75 103 137 178 207 257 313
#     4   9  18  33  56  81 102 136 179 213 255 303
#     4  11  22  33  50  76 102 131 164 203 262 322
#     4   9  19  33  48  74 110 142 175 213 251 299
#
# _framework density 18.059094000000002
#
# number of rings (size 3 to 8) (size 9 to 14) (size 15 to 20)
#    0.000    2.333    2.222    1.333    0.000    3.111 
#    0.000   12.222    0.000    0.667    0.000    3.111 
#    0.000    0.000    0.000    0.000    0.000    0.000 
#
# Total GULP energy -446300.637277 kJ/mol
# GULP energy per Si atom -12397.239924 kJ/mol
# Density = 1.801799 g / cm^3
# Si number density = 18.059094 Si / 1000 Ang^3
#
#
#
# Elastic Constant Matrix: (Units=GPa)
#
#
# Indices 1 2 3 4 5 6 
#
# 1 107.8383 33.7697 59.2828 0.0000 0.0000 0.0000
# 2 33.7697 46.7124 26.2799 0.0000 0.0000 0.0000
# 3 59.2828 26.2799 131.2488 0.0000 0.0000 0.0000
# 4 0.0000 0.0000 0.0000 16.7924 0.0000 0.0000
# 5 0.0000 0.0000 0.0000 0.0000 29.6108 0.0000
# 6 0.0000 0.0000 0.0000 0.0000 0.0000 22.6380
#
#
#
# Elastic Compliance Matrix: (Units=1/GPa)
#
#
# Indices 1 2 3 4 5 6 
#
# 1 0.014390 -0.007603 -0.004978 0.000000 0.000000 0.000000
# 2 -0.007603 0.028142 -0.002201 0.000000 0.000000 0.000000
# 3 -0.004978 -0.002201 0.010308 0.000000 0.000000 0.000000
# 4 0.000000 0.000000 0.000000 0.059551 0.000000 0.000000
# 5 0.000000 0.000000 0.000000 0.000000 0.033771 0.000000
# 6 0.000000 0.000000 0.000000 0.000000 0.000000 0.044173
#
#
# Mechanical properties :
#
#
# Convention : Reuss Voigt Hill
#
# Bulk Modulus (GPa) = 42.95893 58.27382 50.61637
# Shear Modulus (GPa) = 21.96278 24.90605 23.43441
#
# Velocity S-wave (km/s) = 3.49113 3.71771 3.60620
# Velocity P-wave (km/s) = 6.33169 7.12509 6.74008
#
# Compressibility (1/GPa) = 0.02327805
#
# Stress axis : x y z
#
# Youngs Moduli (GPa) = 69.49116 35.53398 97.01156
#
# Poissons Ratio (x) = 0.27016 0.48288
# Poissons Ratio (y) = 0.52833 0.21350
# Poissons Ratio (z) = 0.34589 0.07820
#
# Static dielectric constant tensor:
#      x y z
#    x 3.520090 0.000000 0.000000 
#    y 0.000000 3.175400 0.000000 
#    z 0.000000 0.000000 3.154080 
# 
# 
# High freq. dielectric constant tensor:
#      x y z
#    x 1.710570 0.000000 0.000000 
#    y 0.000000 1.681550 0.000000 
#    z 0.000000 0.000000 1.676060 
# 
# From -- ./inp_files/26345.got.cif
#   From: 2010.03.12/outbox.cif.g09.slc.cpg/sg65_14_cif.got.tgz:26345.got - 2010.04.10 20:52:16.
