data_PCOD8266977
_publ_section_title
;
Structure prediction by ZEFSAII (Michael W. Deem and Ramdas Pophale) SiO2 
 PCOD8266977
Probable space group: C M M M
;
_chemical_formula_sum "Si O2"
_cell_formula_units_Z 96
_cell_length_a 14.261612
_cell_length_b 33.412426
_cell_length_c 11.515315
_cell_angle_alpha 90.000000
_cell_angle_beta 90.000000
_cell_angle_gamma 90.000000
_cell_volume 5487.220967
_symmetry_space_group_name_H-M "C M M M"
_symmetry_group_IT_number 65
_symmetry_cell_setting 'orthorhombic'
loop_
_space_group_symop_operation_xyz
x,y,z
-x,-y,z
x,-y,-z
-x,y,-z
-x,-y,-z
x,y,-z
-x,y,z
x,-y,z
1/2+x,1/2+y,z
1/2-x,1/2-y,z
1/2+x,1/2-y,-z
1/2-x,1/2+y,-z
1/2-x,1/2-y,-z
1/2+x,1/2+y,-z
1/2-x,1/2+y,z
1/2+x,1/2-y,z
loop_
_atom_site_type_symbol
_atom_site_label
_atom_site_fract_x
_atom_site_fract_y
_atom_site_fract_z
Si Si1 0.779872 0.620040 0.139224
Si Si2 0.890054 0.691157 0.259518
Si Si3 0.895715 0.455885 0.137378
Si Si4 0.852986 0.267248 0.500000
Si Si5 0.603241 0.677342 0.500000
Si Si6 0.389155 0.267286 0.126995
Si Si7 0.889009 0.152478 0.745918
O O1 0.836044 0.652204 0.215526
O O2 0.820975 0.577141 0.177135
O O3 0.671263 0.619727 0.182770
O O4 0.787476 0.627643 0.000000
O O5 0.873347 0.703417 0.392763
O O6 0.847802 0.727407 0.183801
O O7 0.000000 0.683817 0.238083
O O8 0.865010 0.500000 0.183334
O O9 0.000000 0.445322 0.185041
O O10 0.900099 0.456649 0.000000
O O11 0.750000 0.250000 0.500000
O O12 0.911095 0.225788 0.500000
O O13 0.500000 0.659583 0.500000
O O14 0.649893 0.658010 0.385502
O O15 0.500000 0.263291 0.121658
O O16 0.360785 0.305231 0.200876
O O17 0.345076 0.272360 0.000000
O O18 0.000000 0.142562 0.756501
#
# Coordination Sequence:
#
# PCOD8266977 Si02
#       7
#    16  16  16   8   8  16  16
#     4  11  22  33  50  78 108 134 163 207 260 315
#     4  11  22  34  49  71  99 133 173 220 266 299
#     4   8  15  31  55  79 103 132 164 198 242 304
#     4  12  22  34  50  68  94 133 183 229 261 296
#     4  10  18  34  54  66  86 130 186 230 253 281
#     4   9  17  29  45  65  94 132 168 202 248 305
#     4  10  20  34  51  72  99 136 179 218 256 295
#
# _framework density 17.495194000000001
#
# number of rings (size 3 to 8) (size 9 to 14) (size 15 to 20)
#    0.000    2.000    1.667    3.750    0.000    2.667 
#    0.000    1.667    0.000    0.500    0.000    4.667 
#    0.000    8.667    0.000    0.000    0.000    0.000 
#
# Total GULP energy -594727.050942 kJ/mol
# GULP energy per Si atom -12390.146895 kJ/mol
# Density = 1.745537 g / cm^3
# Si number density = 17.495194 Si / 1000 Ang^3
#
#
#
# Elastic Constant Matrix: (Units=GPa)
#
#
# Indices 1 2 3 4 5 6 
#
# 1 84.8632 53.9639 27.1781 0.0000 0.0000 0.0000
# 2 53.9639 108.0573 33.6223 0.0000 0.0000 0.0000
# 3 27.1781 33.6223 103.8228 0.0000 0.0000 0.0000
# 4 0.0000 0.0000 0.0000 1.7531 0.0000 0.0000
# 5 0.0000 0.0000 0.0000 0.0000 18.1009 0.0000
# 6 0.0000 0.0000 0.0000 0.0000 0.0000 25.8235
#
#
#
# Elastic Compliance Matrix: (Units=1/GPa)
#
#
# Indices 1 2 3 4 5 6 
#
# 1 0.017619 -0.008189 -0.001960 0.000000 0.000000 0.000000
# 2 -0.008189 0.014097 -0.002422 0.000000 0.000000 0.000000
# 3 -0.001960 -0.002422 0.010929 0.000000 0.000000 0.000000
# 4 0.000000 0.000000 0.000000 0.570408 0.000000 0.000000
# 5 0.000000 0.000000 0.000000 0.000000 0.055246 0.000000
# 6 0.000000 0.000000 0.000000 0.000000 0.000000 0.038724
#
#
# Mechanical properties :
#
#
# Convention : Reuss Voigt Hill
#
# Bulk Modulus (GPa) = 57.13081 58.47467 57.80274
# Shear Modulus (GPa) = 6.77507 21.26745 14.02126
#
# Velocity S-wave (km/s) = 1.97001 3.49035 2.83403
# Velocity P-wave (km/s) = 6.15635 7.05261 6.61966
#
# Compressibility (1/GPa) = 0.01750369
#
# Stress axis : x y z
#
# Youngs Moduli (GPa) = 56.75795 70.93507 91.49811
#
# Poissons Ratio (x) = 0.58088 0.17936
# Poissons Ratio (y) = 0.46478 0.22158
# Poissons Ratio (z) = 0.11126 0.17178
#
# Static dielectric constant tensor:
#      x y z
#    x 3.442060 0.000000 0.000000 
#    y 0.000000 3.078190 0.000000 
#    z 0.000000 0.000000 3.446640 
# 
# 
# High freq. dielectric constant tensor:
#      x y z
#    x 1.683840 0.000000 0.000000 
#    y 0.000000 1.635590 0.000000 
#    z 0.000000 0.000000 1.673210 
# 
# From -- ./inp_files/25474.got.cif
#   From: 2010.03.12/outbox.cif.g09.slc.cpg/sg65_13_cif.got.tgz:25474.got - 2010.04.10 20:52:16.
