data_PCOD8266845
_publ_section_title
;
Structure prediction by ZEFSAII (Michael W. Deem and Ramdas Pophale) SiO2 
 PCOD8266845
Probable space group: C M M M
;
_chemical_formula_sum "Si O2"
_cell_formula_units_Z 72
_cell_length_a 8.657017
_cell_length_b 15.828923
_cell_length_c 25.337198
_cell_angle_alpha 90.000000
_cell_angle_beta 90.000000
_cell_angle_gamma 90.000000
_cell_volume 3471.988053
_symmetry_space_group_name_H-M "C M M M"
_symmetry_group_IT_number 65
_symmetry_cell_setting 'orthorhombic'
loop_
_space_group_symop_operation_xyz
x,y,z
-x,-y,z
x,-y,-z
-x,y,-z
-x,-y,-z
x,y,-z
-x,y,z
x,-y,z
1/2+x,1/2+y,z
1/2-x,1/2-y,z
1/2+x,1/2-y,-z
1/2-x,1/2+y,-z
1/2-x,1/2-y,-z
1/2+x,1/2+y,-z
1/2-x,1/2+y,z
1/2+x,1/2-y,z
loop_
_atom_site_type_symbol
_atom_site_label
_atom_site_fract_x
_atom_site_fract_y
_atom_site_fract_z
Si Si1 0.683340 0.156395 0.370483
Si Si2 0.816665 0.500000 0.559255
Si Si3 0.330417 0.598136 0.057388
Si Si4 0.182984 0.843305 0.738396
Si Si5 0.678920 0.841038 0.842049
O O1 0.500000 0.164770 0.368941
O O2 0.750000 0.250000 0.383323
O O3 0.743693 0.118638 0.314774
O O4 0.740238 0.086792 0.412941
O O5 0.749638 0.500000 0.500000
O O6 0.000000 0.500000 0.559329
O O7 0.500000 0.636307 0.072748
O O8 0.349327 0.500000 0.050355
O O9 0.204659 0.612626 0.102672
O O10 0.277625 0.635750 0.000000
O O11 0.250000 0.750000 0.744142
O O12 0.237788 0.889711 0.792465
O O13 0.000000 0.844748 0.733133
O O14 0.500000 0.835967 0.828511
O O15 0.750000 0.750000 0.850150
#
# Coordination Sequence:
#
# PCOD8266845 Si02
#       5
#    16   8  16  16  16
#     4  10  19  35  59  85 115 153 194 238 287 343
#     4   9  20  38  59  85 119 157 196 237 282 337
#     4   9  19  37  57  75 101 138 178 222 274 330
#     4  10  18  32  54  79 109 143 179 223 276 333
#     4  11  21  34  54  80 109 140 178 225 275 329
#
# _framework density 20.737397999999999
#
# number of rings (size 3 to 8) (size 9 to 14) (size 15 to 20)
#    0.000    2.111    0.000    8.000    0.000    1.778 
#    2.000    3.333    0.000    4.667    0.000    0.000 
#    0.000    0.000    0.000    0.000    0.000    0.000 
#
# Total GULP energy -446022.792876 kJ/mol
# GULP energy per Si atom -12389.522024 kJ/mol
# Density = 2.069020 g / cm^3
# Si number density = 20.737398 Si / 1000 Ang^3
#
#
#
# Elastic Constant Matrix: (Units=GPa)
#
#
# Indices 1 2 3 4 5 6 
#
# 1 117.7599 29.7393 48.5319 0.0000 0.0000 0.0000
# 2 29.7393 69.7705 57.6380 0.0000 0.0000 0.0000
# 3 48.5319 57.6380 195.3149 0.0000 0.0000 0.0000
# 4 0.0000 0.0000 0.0000 36.9572 0.0000 0.0000
# 5 0.0000 0.0000 0.0000 0.0000 28.8602 0.0000
# 6 0.0000 0.0000 0.0000 0.0000 0.0000 17.5206
#
#
#
# Elastic Compliance Matrix: (Units=1/GPa)
#
#
# Indices 1 2 3 4 5 6 
#
# 1 0.009882 -0.002888 -0.001603 0.000000 0.000000 0.000000
# 2 -0.002888 0.019797 -0.005125 0.000000 0.000000 0.000000
# 3 -0.001603 -0.005125 0.007031 0.000000 0.000000 0.000000
# 4 0.000000 0.000000 0.000000 0.027058 0.000000 0.000000
# 5 0.000000 0.000000 0.000000 0.000000 0.034650 0.000000
# 6 0.000000 0.000000 0.000000 0.000000 0.000000 0.057076
#
#
# Mechanical properties :
#
#
# Convention : Reuss Voigt Hill
#
# Bulk Modulus (GPa) = 57.21341 72.74042 64.97691
# Shear Modulus (GPa) = 27.69307 33.13000 30.41154
#
# Velocity S-wave (km/s) = 3.65830 4.00133 3.83365
# Velocity P-wave (km/s) = 6.74489 7.51669 7.14123
#
# Compressibility (1/GPa) = 0.01747842
#
# Stress axis : x y z
#
# Youngs Moduli (GPa) = 101.19555 50.51265 142.23484
#
# Poissons Ratio (x) = 0.14586 0.22805
# Poissons Ratio (y) = 0.29221 0.72890
# Poissons Ratio (z) = 0.16225 0.25886
#
# Static dielectric constant tensor:
#      x y z
#    x 3.943070 0.000000 0.000000 
#    y 0.000000 3.473960 0.000000 
#    z 0.000000 0.000000 4.825240 
# 
# 
# High freq. dielectric constant tensor:
#      x y z
#    x 1.806220 0.000000 0.000000 
#    y 0.000000 1.777830 0.000000 
#    z 0.000000 0.000000 1.832040 
# 
# From -- ./inp_files/70744.got.cif
#   From: 2010.03.12/outbox.cif.g09.slc.cpg/sg65_36_cif.got.tgz:70744.got - 2010.04.10 20:52:16.
