data_PCOD8266429
_publ_section_title
;
Structure prediction by ZEFSAII (Michael W. Deem and Ramdas Pophale) SiO2 
 PCOD8266429
Probable space group: C M M M
;
_chemical_formula_sum "Si O2"
_cell_formula_units_Z 88
_cell_length_a 8.768804
_cell_length_b 23.630999
_cell_length_c 23.065826
_cell_angle_alpha 90.000000
_cell_angle_beta 90.000000
_cell_angle_gamma 90.000000
_cell_volume 4779.598941
_symmetry_space_group_name_H-M "C M M M"
_symmetry_group_IT_number 65
_symmetry_cell_setting 'orthorhombic'
loop_
_space_group_symop_operation_xyz
x,y,z
-x,-y,z
x,-y,-z
-x,y,-z
-x,-y,-z
x,y,-z
-x,y,z
x,-y,z
1/2+x,1/2+y,z
1/2-x,1/2-y,z
1/2+x,1/2-y,-z
1/2-x,1/2+y,-z
1/2-x,1/2-y,-z
1/2+x,1/2+y,-z
1/2-x,1/2+y,z
1/2+x,1/2-y,z
loop_
_atom_site_type_symbol
_atom_site_label
_atom_site_fract_x
_atom_site_fract_y
_atom_site_fract_z
Si Si1 0.180137 0.811489 0.384123
Si Si2 0.179913 0.500000 0.245933
Si Si3 0.820993 0.618368 0.933397
Si Si4 0.678766 0.614830 0.273539
Si Si5 0.681684 0.812611 0.500000
Si Si6 0.680084 0.310832 0.165314
Si Si7 0.318987 0.000000 0.115138
O O1 0.250000 0.750000 0.372998
O O2 0.224672 0.849509 0.329650
O O3 0.253988 0.841363 0.441243
O O4 0.000000 0.805666 0.392612
O O5 0.237967 0.444930 0.279320
O O6 0.245281 0.500000 0.180425
O O7 0.000000 0.500000 0.245471
O O8 0.735478 0.665594 0.896207
O O9 0.758397 0.555873 0.917503
O O10 0.000000 0.622548 0.920343
O O11 0.783464 0.630970 0.000000
O O12 0.500000 0.603931 0.270336
O O13 0.736460 0.647430 0.216227
O O14 0.500000 0.812651 0.500000
O O15 0.750000 0.750000 0.500000
O O16 0.500000 0.304726 0.165094
O O17 0.750000 0.250000 0.177618
O O18 0.500000 0.000000 0.114184
#
# Coordination Sequence:
#
# PCOD8266429 Si02
#       7
#    16   8  16  16   8  16   8
#     4  10  19  33  54  81 113 149 185 223 267 317
#     4  11  21  34  59  84 107 140 179 221 269 322
#     4  10  20  36  58  81 107 139 176 220 269 323
#     4  10  22  38  56  80 111 144 179 222 272 321
#     4  10  18  30  50  79 114 149 184 224 266 312
#     4  11  23  38  56  78 107 141 178 222 269 323
#     4   9  17  33  56  83 106 132 172 219 268 317
#
# _framework density 18.411587000000001
#
# number of rings (size 3 to 8) (size 9 to 14) (size 15 to 20)
#    0.000    1.818    1.818    4.091    0.000    4.000 
#    0.000    0.455    0.000    1.636    0.000    3.818 
#    0.000    0.000    0.000    0.000    0.000    0.000 
#
# Total GULP energy -545701.883065 kJ/mol
# GULP energy per Si atom -12402.315524 kJ/mol
# Density = 1.836968 g / cm^3
# Si number density = 18.411587 Si / 1000 Ang^3
#
#
#
# Elastic Constant Matrix: (Units=GPa)
#
#
# Indices 1 2 3 4 5 6 
#
# 1 72.8844 44.6152 53.9533 0.0000 0.0000 0.0000
# 2 44.6152 121.4202 60.0795 0.0000 0.0000 0.0000
# 3 53.9533 60.0795 142.7907 0.0000 0.0000 0.0000
# 4 0.0000 0.0000 0.0000 16.8937 0.0000 0.0000
# 5 0.0000 0.0000 0.0000 0.0000 29.3868 0.0000
# 6 0.0000 0.0000 0.0000 0.0000 0.0000 22.8391
#
#
#
# Elastic Compliance Matrix: (Units=1/GPa)
#
#
# Indices 1 2 3 4 5 6 
#
# 1 0.021051 -0.004798 -0.005935 0.000000 0.000000 0.000000
# 2 -0.004798 0.011495 -0.003024 0.000000 0.000000 0.000000
# 3 -0.005935 -0.003024 0.010518 0.000000 0.000000 0.000000
# 4 0.000000 0.000000 0.000000 0.059194 0.000000 0.000000
# 5 0.000000 0.000000 0.000000 0.000000 0.034029 0.000000
# 6 0.000000 0.000000 0.000000 0.000000 0.000000 0.043785
#
#
# Mechanical properties :
#
#
# Convention : Reuss Voigt Hill
#
# Bulk Modulus (GPa) = 64.30846 72.71015 68.50930
# Shear Modulus (GPa) = 23.49965 25.72039 24.61002
#
# Velocity S-wave (km/s) = 3.57648 3.74166 3.66000
# Velocity P-wave (km/s) = 7.21520 7.63177 7.42640
#
# Compressibility (1/GPa) = 0.01555005
#
# Stress axis : x y z
#
# Youngs Moduli (GPa) = 47.50314 86.99396 95.07473
#
# Poissons Ratio (x) = 0.41743 0.56429
# Poissons Ratio (y) = 0.22794 0.28746
# Poissons Ratio (z) = 0.28194 0.26303
#
# Static dielectric constant tensor:
#      x y z
#    x 3.291720 0.000000 0.000000 
#    y 0.000000 3.294580 0.000000 
#    z 0.000000 0.000000 3.793050 
# 
# 
# High freq. dielectric constant tensor:
#      x y z
#    x 1.710840 0.000000 0.000000 
#    y 0.000000 1.700470 0.000000 
#    z 0.000000 0.000000 1.724170 
# 
# From -- ./inp_files/67647.got.cif
#   From: 2010.03.12/outbox.cif.g09.slc.cpg/sg65_34_cif.got.tgz:67647.got - 2010.04.10 20:52:16.
