data_PCOD8266593
_publ_section_title
;
Structure prediction by ZEFSAII (Michael W. Deem and Ramdas Pophale) SiO2 
 PCOD8266593
Probable space group: C M M M
;
_chemical_formula_sum "Si O2"
_cell_formula_units_Z 104
_cell_length_a 28.733698
_cell_length_b 9.269347
_cell_length_c 23.365573
_cell_angle_alpha 90.000000
_cell_angle_beta 90.000000
_cell_angle_gamma 90.000000
_cell_volume 6223.247869
_symmetry_space_group_name_H-M "C M M M"
_symmetry_group_IT_number 65
_symmetry_cell_setting 'orthorhombic'
loop_
_space_group_symop_operation_xyz
x,y,z
-x,-y,z
x,-y,-z
-x,y,-z
-x,-y,-z
x,y,-z
-x,y,z
x,-y,z
1/2+x,1/2+y,z
1/2-x,1/2-y,z
1/2+x,1/2-y,-z
1/2-x,1/2+y,-z
1/2-x,1/2-y,-z
1/2+x,1/2+y,-z
1/2-x,1/2+y,z
1/2+x,1/2-y,z
loop_
_atom_site_type_symbol
_atom_site_label
_atom_site_fract_x
_atom_site_fract_y
_atom_site_fract_z
Si Si1 0.555357 0.341637 0.500000
Si Si2 0.794545 0.167449 0.101596
Si Si3 0.395248 0.329964 0.266215
Si Si4 0.054579 0.668629 0.836564
Si Si5 0.104575 0.166234 0.934896
Si Si6 0.793805 0.833892 0.233367
Si Si7 0.947889 0.172260 0.377615
O O1 0.578429 0.500000 0.500000
O O2 0.500000 0.356883 0.500000
O O3 0.569594 0.264102 0.439710
O O4 0.750000 0.250000 0.075480
O O5 0.841462 0.214254 0.069169
O O6 0.801783 0.210552 0.167652
O O7 0.784356 0.000000 0.093305
O O8 0.404195 0.500000 0.256506
O O9 0.420315 0.245477 0.215870
O O10 0.340557 0.294146 0.267400
O O11 0.414611 0.274060 0.326950
O O12 0.066595 0.500000 0.835470
O O13 0.072151 0.734351 0.896173
O O14 0.000000 0.697387 0.831267
O O15 0.099977 0.000000 0.914448
O O16 0.087689 0.184877 0.000000
O O17 0.750000 0.750000 0.260274
O O18 0.781480 0.000000 0.239076
O O19 0.000000 0.227432 0.363875
O O20 0.947766 0.000000 0.381877
#
# Coordination Sequence:
#
# PCOD8266593 Si02
#       7
#     8  16  16  16  16  16  16
#     4   7  10  18  32  58  98 131 153 185 233 279
#     4   9  17  31  49  72  97 120 147 185 232 281
#     4  10  18  31  51  74  96 123 161 199 234 277
#     4  11  24  38  51  70  97 126 155 193 239 282
#     4  10  21  38  57  74  93 120 157 196 233 280
#     4   9  17  29  46  68  94 120 150 190 234 281
#     4   8  13  21  38  66  98 129 157 190 233 277
#
# _framework density 16.711531999999998
#
# number of rings (size 3 to 8) (size 9 to 14) (size 15 to 20)
#    0.000    2.692    1.538    1.846    0.000    4.000 
#    0.000    1.538    0.000    0.000    0.000    1.077 
#    0.000    3.077    0.000    0.000    0.000    0.000 
#
# Total GULP energy -644535.003628 kJ/mol
# GULP energy per Si atom -12394.903916 kJ/mol
# Density = 1.667350 g / cm^3
# Si number density = 16.711532 Si / 1000 Ang^3
#
#
#
# Elastic Constant Matrix: (Units=GPa)
#
#
# Indices 1 2 3 4 5 6 
#
# 1 99.6840 46.2953 57.3317 0.0000 0.0000 0.0000
# 2 46.2953 50.4216 37.1585 0.0000 0.0000 0.0000
# 3 57.3317 37.1585 116.7801 0.0000 0.0000 0.0000
# 4 0.0000 0.0000 0.0000 6.6152 0.0000 0.0000
# 5 0.0000 0.0000 0.0000 0.0000 17.2103 0.0000
# 6 0.0000 0.0000 0.0000 0.0000 0.0000 26.5756
#
#
#
# Elastic Compliance Matrix: (Units=1/GPa)
#
#
# Indices 1 2 3 4 5 6 
#
# 1 0.019551 -0.014209 -0.005077 0.000000 0.000000 0.000000
# 2 -0.014209 0.036235 -0.004554 0.000000 0.000000 0.000000
# 3 -0.005077 -0.004554 0.012505 0.000000 0.000000 0.000000
# 4 0.000000 0.000000 0.000000 0.151168 0.000000 0.000000
# 5 0.000000 0.000000 0.000000 0.000000 0.058105 0.000000
# 6 0.000000 0.000000 0.000000 0.000000 0.000000 0.037628
#
#
# Mechanical properties :
#
#
# Convention : Reuss Voigt Hill
#
# Bulk Modulus (GPa) = 48.51935 60.93963 54.72949
# Shear Modulus (GPa) = 13.52297 18.48692 16.00494
#
# Velocity S-wave (km/s) = 2.84773 3.32962 3.09806
# Velocity P-wave (km/s) = 6.31738 7.16426 6.75410
#
# Compressibility (1/GPa) = 0.02061033
#
# Stress axis : x y z
#
# Youngs Moduli (GPa) = 51.14928 27.59752 79.97102
#
# Poissons Ratio (x) = 0.39214 0.40600
# Poissons Ratio (y) = 0.72679 0.36418
# Poissons Ratio (z) = 0.25968 0.12568
#
# Static dielectric constant tensor:
#      x y z
#    x 3.195340 0.000000 0.000000 
#    y 0.000000 2.919310 0.000000 
#    z 0.000000 0.000000 3.346490 
# 
# 
# High freq. dielectric constant tensor:
#      x y z
#    x 1.636120 0.000000 0.000000 
#    y 0.000000 1.615390 0.000000 
#    z 0.000000 0.000000 1.637260 
# 
# From -- ./inp_files/72103.got.cif
#   From: 2010.03.12/outbox.cif.g09.slc.cpg/sg65_37_cif.got.tgz:72103.got - 2010.04.10 20:52:16.
