data_PCOD8266158
_publ_section_title
;
Structure prediction by ZEFSAII (Michael W. Deem and Ramdas Pophale) SiO2 
 PCOD8266158
Probable space group: C M M M
;
_chemical_formula_sum "Si O2"
_cell_formula_units_Z 80
_cell_length_a 10.200817
_cell_length_b 27.376465
_cell_length_c 19.078785
_cell_angle_alpha 90.000000
_cell_angle_beta 90.000000
_cell_angle_gamma 90.000000
_cell_volume 5327.985563
_symmetry_space_group_name_H-M "C M M M"
_symmetry_group_IT_number 65
_symmetry_cell_setting 'orthorhombic'
loop_
_space_group_symop_operation_xyz
x,y,z
-x,-y,z
x,-y,-z
-x,y,-z
-x,-y,-z
x,y,-z
-x,y,z
x,-y,z
1/2+x,1/2+y,z
1/2-x,1/2-y,z
1/2+x,1/2-y,-z
1/2-x,1/2+y,-z
1/2-x,1/2-y,-z
1/2+x,1/2+y,-z
1/2-x,1/2+y,z
1/2+x,1/2-y,z
loop_
_atom_site_type_symbol
_atom_site_label
_atom_site_fract_x
_atom_site_fract_y
_atom_site_fract_z
Si Si1 0.347836 0.704757 0.923994
Si Si2 0.000000 0.118294 0.417164
Si Si3 0.240071 0.054337 0.582735
Si Si4 0.500000 0.110729 0.417657
Si Si5 0.000000 0.313566 0.297183
Si Si6 0.000000 0.801639 0.311471
Si Si7 0.741149 0.307959 0.219174
O O1 0.500000 0.721009 0.909013
O O2 0.250000 0.750000 0.929287
O O3 0.295657 0.671431 0.858864
O O4 0.342086 0.677231 0.000000
O O5 0.875100 0.088595 0.388472
O O6 0.000000 0.124057 0.500000
O O7 0.000000 0.173449 0.387751
O O8 0.226943 0.049944 0.500000
O O9 0.376843 0.078189 0.603778
O O10 0.230130 0.000000 0.615822
O O11 0.500000 0.125376 0.500000
O O12 0.500000 0.159707 0.371832
O O13 0.000000 0.256682 0.317893
O O14 0.123872 0.329129 0.249742
O O15 0.873026 0.822080 0.272253
O O16 0.750000 0.250000 0.211718
#
# Coordination Sequence:
#
# PCOD8266158 Si02
#       7
#    16   8  16   8   8   8  16
#     4   9  16  25  39  59  80 103 138 183 219 247
#     4  10  19  29  44  64  84 108 142 179 216 258
#     4   9  17  30  47  65  83 101 128 173 226 275
#     4  10  19  31  46  64  82 108 146 185 220 256
#     4  10  20  30  42  58  84 116 153 184 210 242
#     4  10  18  30  42  56  82 116 151 178 208 242
#     4   9  17  28  40  55  76 111 146 179 209 248
#
# _framework density 15.015056
#
# number of rings (size 3 to 8) (size 9 to 14) (size 15 to 20)
#    0.000    2.600    1.000    1.800    4.200    2.800 
#    0.000    0.000    0.000    7.200    0.000    0.000 
#    0.000    0.000    0.000    0.000    0.000   70.000 
#
# Total GULP energy -495579.769306 kJ/mol
# GULP energy per Si atom -12389.494233 kJ/mol
# Density = 1.498088 g / cm^3
# Si number density = 15.015056 Si / 1000 Ang^3
#
#
#
# Elastic Constant Matrix: (Units=GPa)
#
#
# Indices 1 2 3 4 5 6 
#
# 1 132.0050 29.7766 43.3094 0.0000 0.0000 0.0000
# 2 29.7766 52.1837 37.9673 0.0000 0.0000 0.0000
# 3 43.3094 37.9673 89.1853 0.0000 0.0000 0.0000
# 4 0.0000 0.0000 0.0000 2.9672 0.0000 0.0000
# 5 0.0000 0.0000 0.0000 0.0000 6.0699 0.0000
# 6 0.0000 0.0000 0.0000 0.0000 0.0000 18.9173
#
#
#
# Elastic Compliance Matrix: (Units=1/GPa)
#
#
# Indices 1 2 3 4 5 6 
#
# 1 0.009311 -0.002931 -0.003274 0.000000 0.000000 0.000000
# 2 -0.002931 0.028685 -0.010788 0.000000 0.000000 0.000000
# 3 -0.003274 -0.010788 0.017395 0.000000 0.000000 0.000000
# 4 0.000000 0.000000 0.000000 0.337019 0.000000 0.000000
# 5 0.000000 0.000000 0.000000 0.000000 0.164746 0.000000
# 6 0.000000 0.000000 0.000000 0.000000 0.000000 0.052862
#
#
# Mechanical properties :
#
#
# Convention : Reuss Voigt Hill
#
# Bulk Modulus (GPa) = 46.71839 55.05342 50.88590
# Shear Modulus (GPa) = 7.67887 16.41227 12.04557
#
# Velocity S-wave (km/s) = 2.26389 3.30972 2.83544
# Velocity P-wave (km/s) = 6.16567 7.16595 6.68455
#
# Compressibility (1/GPa) = 0.02140485
#
# Stress axis : x y z
#
# Youngs Moduli (GPa) = 107.40391 34.86193 57.48795
#
# Poissons Ratio (x) = 0.10218 0.18819
# Poissons Ratio (y) = 0.31480 0.62019
# Poissons Ratio (z) = 0.35160 0.37609
#
# Static dielectric constant tensor:
#      x y z
#    x 3.328590 0.000000 0.000000 
#    y 0.000000 2.520980 0.000000 
#    z 0.000000 0.000000 3.140120 
# 
# 
# High freq. dielectric constant tensor:
#      x y z
#    x 1.603140 0.000000 0.000000 
#    y 0.000000 1.515320 0.000000 
#    z 0.000000 0.000000 1.565120 
# 
# From -- ./inp_files/59735.got.cif
#   From: 2010.03.12/outbox.cif.g09.slc.cpg/sg65_30_cif.got.tgz:59735.got - 2010.04.10 20:52:16.
