data_PCOD8266602
_publ_section_title
;
Structure prediction by ZEFSAII (Michael W. Deem and Ramdas Pophale) SiO2 
 PCOD8266602
Probable space group: C M M M
;
_chemical_formula_sum "Si O2"
_cell_formula_units_Z 104
_cell_length_a 8.543488
_cell_length_b 28.925299
_cell_length_c 23.078126
_cell_angle_alpha 90.000000
_cell_angle_beta 90.000000
_cell_angle_gamma 90.000000
_cell_volume 5703.134460
_symmetry_space_group_name_H-M "C M M M"
_symmetry_group_IT_number 65
_symmetry_cell_setting 'orthorhombic'
loop_
_space_group_symop_operation_xyz
x,y,z
-x,-y,z
x,-y,-z
-x,y,-z
-x,-y,-z
x,y,-z
-x,y,z
x,-y,z
1/2+x,1/2+y,z
1/2-x,1/2-y,z
1/2+x,1/2-y,-z
1/2-x,1/2+y,-z
1/2-x,1/2-y,-z
1/2+x,1/2+y,-z
1/2-x,1/2+y,z
1/2+x,1/2-y,z
loop_
_atom_site_type_symbol
_atom_site_label
_atom_site_fract_x
_atom_site_fract_y
_atom_site_fract_z
Si Si1 0.814338 0.949715 0.149538
Si Si2 0.815633 0.146756 0.891200
Si Si3 0.814433 0.854131 0.674159
Si Si4 0.184265 0.798892 0.435705
Si Si5 0.685605 0.449826 0.720477
Si Si6 0.684771 0.198746 0.781743
Si Si7 0.182124 0.300832 0.000000
O O1 0.759245 0.907116 0.109314
O O2 0.747935 0.942709 0.214553
O O3 0.000000 0.948948 0.152982
O O4 0.757697 0.000000 0.125068
O O5 0.770816 0.168872 0.830279
O O6 0.730531 0.171791 0.943199
O O7 0.000000 0.151088 0.900843
O O8 0.765064 0.838370 0.609682
O O9 0.757378 0.907393 0.680462
O O10 0.723726 0.822203 0.719355
O O11 0.000000 0.848822 0.684949
O O12 0.249304 0.811479 0.500000
O O13 0.250000 0.750000 0.414141
O O14 0.000000 0.794296 0.437594
O O15 0.500000 0.449819 0.722708
O O16 0.744016 0.500000 0.696313
O O17 0.500000 0.198765 0.792694
O O18 0.750000 0.250000 0.785381
O O19 0.250000 0.250000 0.000000
O O20 0.000000 0.294671 0.000000
#
# Coordination Sequence:
#
# PCOD8266602 Si02
#       7
#    16  16  16  16  16  16   8
#     4   8  14  27  52  83 109 133 168 212 253 302
#     4  11  21  38  61  83 107 138 178 217 258 305
#     4  10  18  31  51  75 102 134 173 216 261 309
#     4   9  18  31  47  68  97 134 175 217 262 311
#     4   8  13  24  46  76 104 132 168 208 252 306
#     4  12  24  36  51  75 107 137 169 213 266 315
#     4  12  26  44  61  80 107 141 182 219 261 310
#
# _framework density 18.235586000000001
#
# number of rings (size 3 to 8) (size 9 to 14) (size 15 to 20)
#    0.000    2.154    1.538    4.385    0.000    1.846 
#    0.000    0.385    0.000    6.000    0.000    3.231 
#    0.000    0.000    0.000    5.231    0.000    5.538 
#
# Total GULP energy -644506.206326 kJ/mol
# GULP energy per Si atom -12394.350122 kJ/mol
# Density = 1.819408 g / cm^3
# Si number density = 18.235586 Si / 1000 Ang^3
#
#
#
# Elastic Constant Matrix: (Units=GPa)
#
#
# Indices 1 2 3 4 5 6 
#
# 1 48.0436 33.0140 22.1587 0.0000 0.0000 0.0000
# 2 33.0140 181.1841 68.3565 0.0000 0.0000 0.0000
# 3 22.1587 68.3565 97.3297 0.0000 0.0000 0.0000
# 4 0.0000 0.0000 0.0000 29.1909 0.0000 0.0000
# 5 0.0000 0.0000 0.0000 0.0000 30.6155 0.0000
# 6 0.0000 0.0000 0.0000 0.0000 0.0000 15.6261
#
#
#
# Elastic Compliance Matrix: (Units=1/GPa)
#
#
# Indices 1 2 3 4 5 6 
#
# 1 0.024563 -0.003219 -0.003332 0.000000 0.000000 0.000000
# 2 -0.003219 0.007931 -0.004837 0.000000 0.000000 0.000000
# 3 -0.003332 -0.004837 0.014430 0.000000 0.000000 0.000000
# 4 0.000000 0.000000 0.000000 0.034257 0.000000 0.000000
# 5 0.000000 0.000000 0.000000 0.000000 0.032663 0.000000
# 6 0.000000 0.000000 0.000000 0.000000 0.000000 0.063995
#
#
# Mechanical properties :
#
#
# Convention : Reuss Voigt Hill
#
# Bulk Modulus (GPa) = 41.40992 63.73508 52.57250
# Shear Modulus (GPa) = 23.96201 28.62171 26.29186
#
# Velocity S-wave (km/s) = 3.62888 3.96606 3.80121
# Velocity P-wave (km/s) = 6.34949 7.48329 6.93958
#
# Compressibility (1/GPa) = 0.02414880
#
# Stress axis : x y z
#
# Youngs Moduli (GPa) = 40.71195 126.09312 69.30011
#
# Poissons Ratio (x) = 0.40586 0.23088
# Poissons Ratio (y) = 0.13104 0.33521
# Poissons Ratio (z) = 0.13563 0.60992
#
# Static dielectric constant tensor:
#      x y z
#    x 3.128010 0.000000 0.000000 
#    y 0.000000 4.069630 0.000000 
#    z 0.000000 0.000000 2.824890 
# 
# 
# High freq. dielectric constant tensor:
#      x y z
#    x 1.680520 0.000000 0.000000 
#    y 0.000000 1.723820 0.000000 
#    z 0.000000 0.000000 1.688620 
# 
# From -- ./inp_files/60820.got.cif
#   From: 2010.03.12/outbox.cif.g09.slc.cpg/sg65_31_cif.got.tgz:60820.got - 2010.04.10 20:52:16.
