data_PCOD8266959
_publ_section_title
;
Structure prediction by ZEFSAII (Michael W. Deem and Ramdas Pophale) SiO2 
 PCOD8266959
Probable space group: C M M M
;
_chemical_formula_sum "Si O2"
_cell_formula_units_Z 88
_cell_length_a 9.545222
_cell_length_b 26.512938
_cell_length_c 18.908355
_cell_angle_alpha 90.000000
_cell_angle_beta 90.000000
_cell_angle_gamma 90.000000
_cell_volume 4785.172930
_symmetry_space_group_name_H-M "C M M M"
_symmetry_group_IT_number 65
_symmetry_cell_setting 'orthorhombic'
loop_
_space_group_symop_operation_xyz
x,y,z
-x,-y,z
x,-y,-z
-x,y,-z
-x,-y,-z
x,y,-z
-x,y,z
x,-y,z
1/2+x,1/2+y,z
1/2-x,1/2-y,z
1/2+x,1/2-y,-z
1/2-x,1/2+y,-z
1/2-x,1/2-y,-z
1/2+x,1/2+y,-z
1/2-x,1/2+y,z
1/2+x,1/2-y,z
loop_
_atom_site_type_symbol
_atom_site_label
_atom_site_fract_x
_atom_site_fract_y
_atom_site_fract_z
Si Si1 0.338185 0.400442 0.417700
Si Si2 0.159046 0.442429 0.301359
Si Si3 0.834119 0.000000 0.921230
Si Si4 0.660386 0.295955 0.347197
Si Si5 0.163838 0.906952 0.826103
Si Si6 0.340701 0.703940 0.183129
O O1 0.306846 0.406294 0.500000
O O2 0.500000 0.413058 0.400157
O O3 0.236136 0.438664 0.376911
O O4 0.299412 0.344431 0.392763
O O5 0.158198 0.500000 0.276757
O O6 0.246388 0.410725 0.244801
O O7 0.000000 0.421626 0.306398
O O8 0.783812 0.051039 0.881960
O O9 0.000000 0.000000 0.925738
O O10 0.768828 0.000000 0.000000
O O11 0.500000 0.281243 0.357513
O O12 0.750000 0.250000 0.377866
O O13 0.695992 0.305509 0.265112
O O14 0.187214 0.849927 0.856195
O O15 0.000000 0.914884 0.806773
O O16 0.500000 0.720819 0.172777
O O17 0.250000 0.750000 0.150962
#
# Coordination Sequence:
#
# PCOD8266959 Si02
#       6
#    16  16   8  16  16  16
#     4  10  21  37  54  71  96 134 179 223 268 322
#     4  11  23  36  52  76 104 133 173 220 269 322
#     4   9  18  32  57  93 120 139 172 221 267 306
#     4   9  17  30  47  70  99 128 168 216 265 316
#     4  10  18  33  58  82 109 144 180 217 262 316
#     4   9  17  29  48  76 105 138 177 221 266 310
#
# _framework density 18.390139000000001
#
# number of rings (size 3 to 8) (size 9 to 14) (size 15 to 20)
#    0.000    2.273    2.727    0.545    0.000    3.636 
#    0.000    1.818    0.000    1.636    0.000    0.000 
#    0.000    0.000    0.000    0.000    0.000    0.000 
#
# Total GULP energy -545510.055007 kJ/mol
# GULP energy per Si atom -12397.955796 kJ/mol
# Density = 1.834828 g / cm^3
# Si number density = 18.390139 Si / 1000 Ang^3
#
#
#
# Elastic Constant Matrix: (Units=GPa)
#
#
# Indices 1 2 3 4 5 6 
#
# 1 73.2528 52.5014 31.2296 0.0000 0.0000 0.0000
# 2 52.5014 119.0459 37.1469 0.0000 0.0000 0.0000
# 3 31.2296 37.1469 66.0138 0.0000 0.0000 0.0000
# 4 0.0000 0.0000 0.0000 18.1576 0.0000 0.0000
# 5 0.0000 0.0000 0.0000 0.0000 8.5664 0.0000
# 6 0.0000 0.0000 0.0000 0.0000 0.0000 32.3374
#
#
#
# Elastic Compliance Matrix: (Units=1/GPa)
#
#
# Indices 1 2 3 4 5 6 
#
# 1 0.021716 -0.007729 -0.005924 0.000000 0.000000 0.000000
# 2 -0.007729 0.012940 -0.003625 0.000000 0.000000 0.000000
# 3 -0.005924 -0.003625 0.019991 0.000000 0.000000 0.000000
# 4 0.000000 0.000000 0.000000 0.055073 0.000000 0.000000
# 5 0.000000 0.000000 0.000000 0.000000 0.116736 0.000000
# 6 0.000000 0.000000 0.000000 0.000000 0.000000 0.030924
#
#
# Mechanical properties :
#
#
# Convention : Reuss Voigt Hill
#
# Bulk Modulus (GPa) = 49.77457 55.56315 52.66886
# Shear Modulus (GPa) = 16.74291 20.97456 18.85874
#
# Velocity S-wave (km/s) = 3.02060 3.38084 3.20579
# Velocity P-wave (km/s) = 6.26818 6.74680 6.51189
#
# Compressibility (1/GPa) = 0.02009058
#
# Stress axis : x y z
#
# Youngs Moduli (GPa) = 46.04825 77.28106 50.02246
#
# Poissons Ratio (x) = 0.59728 0.29636
# Poissons Ratio (y) = 0.35589 0.18134
# Poissons Ratio (z) = 0.27281 0.28016
#
# Static dielectric constant tensor:
#      x y z
#    x 3.345200 0.000000 0.000000 
#    y 0.000000 3.589860 0.000000 
#    z 0.000000 0.000000 3.159270 
# 
# 
# High freq. dielectric constant tensor:
#      x y z
#    x 1.700620 0.000000 0.000000 
#    y 0.000000 1.724700 0.000000 
#    z 0.000000 0.000000 1.673430 
# 
# From -- ./inp_files/50383.got.cif
#   From: 2010.03.12/outbox.cif.g09.slc.cpg/sg65_26_cif.got.tgz:50383.got - 2010.04.10 20:52:16.
