data_PCOD8266647
_publ_section_title
;
Structure prediction by ZEFSAII (Michael W. Deem and Ramdas Pophale) SiO2 
 PCOD8266647
Probable space group: C M M M
;
_chemical_formula_sum "Si O2"
_cell_formula_units_Z 88
_cell_length_a 8.650976
_cell_length_b 26.971361
_cell_length_c 19.864509
_cell_angle_alpha 90.000000
_cell_angle_beta 90.000000
_cell_angle_gamma 90.000000
_cell_volume 4634.958009
_symmetry_space_group_name_H-M "C M M M"
_symmetry_group_IT_number 65
_symmetry_cell_setting 'orthorhombic'
loop_
_space_group_symop_operation_xyz
x,y,z
-x,-y,z
x,-y,-z
-x,y,-z
-x,-y,-z
x,y,-z
-x,y,z
x,-y,z
1/2+x,1/2+y,z
1/2-x,1/2-y,z
1/2+x,1/2-y,-z
1/2-x,1/2+y,-z
1/2-x,1/2-y,-z
1/2+x,1/2+y,-z
1/2-x,1/2+y,z
1/2+x,1/2-y,z
loop_
_atom_site_type_symbol
_atom_site_label
_atom_site_fract_x
_atom_site_fract_y
_atom_site_fract_z
Si Si1 0.183745 0.943692 0.228885
Si Si2 0.317786 0.194923 0.000000
Si Si3 0.684105 0.554797 0.500000
Si Si4 0.818895 0.119035 0.104179
Si Si5 0.683534 0.605230 0.634498
Si Si6 0.670428 0.943319 0.000000
Si Si7 0.317853 0.802431 0.576268
O O1 0.236860 0.898970 0.178366
O O2 0.244103 0.926131 0.301849
O O3 0.000000 0.946698 0.226591
O O4 0.248215 0.000000 0.214038
O O5 0.250000 0.250000 0.000000
O O6 0.265706 0.165959 0.931438
O O7 0.500000 0.199967 0.000000
O O8 0.750920 0.500000 0.500000
O O9 0.500000 0.555501 0.500000
O O10 0.748899 0.580096 0.567023
O O11 0.000000 0.130797 0.102071
O O12 0.774692 0.070103 0.063405
O O13 0.500000 0.607998 0.635917
O O14 0.752129 0.660359 0.632607
O O15 0.500000 0.916194 0.000000
O O16 0.635854 0.000000 0.000000
O O17 0.263531 0.816549 0.500000
O O18 0.500000 0.800366 0.580701
O O19 0.250000 0.750000 0.597299
#
# Coordination Sequence:
#
# PCOD8266647 Si02
#       7
#    16   8   8  16  16   8  16
#     4   9  18  32  52  80 114 149 185 225 266 314
#     4  11  22  39  62  87 113 141 178 224 271 321
#     4   9  16  26  46  75 102 133 178 227 270 317
#     4  10  19  33  54  80 109 143 181 219 265 318
#     4  10  18  31  52  78 107 140 182 228 274 323
#     4  10  19  30  47  74 106 138 175 220 263 307
#     4  10  20  34  53  75 100 129 168 219 276 332
#
# _framework density 18.986148
#
# number of rings (size 3 to 8) (size 9 to 14) (size 15 to 20)
#    0.000    2.182    0.909    4.364    0.000    4.364 
#    0.000    2.727    0.000    4.909    0.000    0.000 
#    0.000    0.000    0.000    0.000    0.000    0.000 
#
# Total GULP energy -545101.386667 kJ/mol
# GULP energy per Si atom -12388.667879 kJ/mol
# Density = 1.894294 g / cm^3
# Si number density = 18.986148 Si / 1000 Ang^3
#
#
#
# Elastic Constant Matrix: (Units=GPa)
#
#
# Indices 1 2 3 4 5 6 
#
# 1 50.6088 32.3164 28.3251 0.0000 0.0000 0.0000
# 2 32.3164 149.0403 68.1295 0.0000 0.0000 0.0000
# 3 28.3251 68.1295 132.5832 0.0000 0.0000 0.0000
# 4 0.0000 0.0000 0.0000 14.6726 0.0000 0.0000
# 5 0.0000 0.0000 0.0000 0.0000 13.4839 0.0000
# 6 0.0000 0.0000 0.0000 0.0000 0.0000 25.9557
#
#
#
# Elastic Compliance Matrix: (Units=1/GPa)
#
#
# Indices 1 2 3 4 5 6 
#
# 1 0.023929 -0.003727 -0.003197 0.000000 0.000000 0.000000
# 2 -0.003727 0.009350 -0.004008 0.000000 0.000000 0.000000
# 3 -0.003197 -0.004008 0.010285 0.000000 0.000000 0.000000
# 4 0.000000 0.000000 0.000000 0.068154 0.000000 0.000000
# 5 0.000000 0.000000 0.000000 0.000000 0.074162 0.000000
# 6 0.000000 0.000000 0.000000 0.000000 0.000000 0.038527
#
#
# Mechanical properties :
#
#
# Convention : Reuss Voigt Hill
#
# Bulk Modulus (GPa) = 46.08481 65.53047 55.80764
# Shear Modulus (GPa) = 19.72347 24.38655 22.05501
#
# Velocity S-wave (km/s) = 3.22659 3.58780 3.41198
# Velocity P-wave (km/s) = 6.18116 7.19394 6.70670
#
# Compressibility (1/GPa) = 0.02169912
#
# Stress axis : x y z
#
# Youngs Moduli (GPa) = 41.79097 106.95125 97.22724
#
# Poissons Ratio (x) = 0.39861 0.31083
# Poissons Ratio (y) = 0.15576 0.38972
# Poissons Ratio (z) = 0.13360 0.42870
#
# Static dielectric constant tensor:
#      x y z
#    x 3.217870 0.000000 0.000000 
#    y 0.000000 3.563710 0.000000 
#    z 0.000000 0.000000 3.639890 
# 
# 
# High freq. dielectric constant tensor:
#      x y z
#    x 1.715730 0.000000 0.000000 
#    y 0.000000 1.742530 0.000000 
#    z 0.000000 0.000000 1.729110 
# 
# From -- ./inp_files/60737.got.cif
#   From: 2010.03.12/outbox.cif.g09.slc.cpg/sg65_31_cif.got.tgz:60737.got - 2010.04.10 20:52:16.
