data_PCOD8266923
_publ_section_title
;
Structure prediction by ZEFSAII (Michael W. Deem and Ramdas Pophale) SiO2 
 PCOD8266923
Probable space group: C M M M
;
_chemical_formula_sum "Si O2"
_cell_formula_units_Z 104
_cell_length_a 9.073439
_cell_length_b 23.708596
_cell_length_c 28.087589
_cell_angle_alpha 90.000000
_cell_angle_beta 90.000000
_cell_angle_gamma 90.000000
_cell_volume 6042.160003
_symmetry_space_group_name_H-M "C M M M"
_symmetry_group_IT_number 65
_symmetry_cell_setting 'orthorhombic'
loop_
_space_group_symop_operation_xyz
x,y,z
-x,-y,z
x,-y,-z
-x,y,-z
-x,-y,-z
x,y,-z
-x,y,z
x,-y,z
1/2+x,1/2+y,z
1/2-x,1/2-y,z
1/2+x,1/2-y,-z
1/2-x,1/2+y,-z
1/2-x,1/2-y,-z
1/2+x,1/2+y,-z
1/2-x,1/2+y,z
1/2+x,1/2-y,z
loop_
_atom_site_type_symbol
_atom_site_label
_atom_site_fract_x
_atom_site_fract_y
_atom_site_fract_z
Si Si1 0.830933 0.387227 0.947553
Si Si2 0.174477 0.690156 0.860988
Si Si3 0.166628 0.067344 0.500000
Si Si4 0.661694 0.000000 0.832889
Si Si5 0.665768 0.066924 0.407417
Si Si6 0.832857 0.387259 0.225268
Si Si7 0.826681 0.934777 0.688237
Si Si8 0.827403 0.000000 0.073805
O O1 0.769360 0.346103 0.906371
O O2 0.739596 0.444584 0.949886
O O3 0.000000 0.402266 0.935709
O O4 0.817192 0.358436 0.000000
O O5 0.250000 0.750000 0.863783
O O6 0.222232 0.660685 0.811420
O O7 0.000000 0.697537 0.863424
O O8 0.249705 0.091154 0.546546
O O9 0.000000 0.090401 0.500000
O O10 0.166755 0.000000 0.500000
O O11 0.678068 0.053865 0.800743
O O12 0.500000 0.000000 0.858024
O O13 0.792653 0.000000 0.870381
O O14 0.500000 0.091367 0.406313
O O15 0.751260 0.086061 0.360243
O O16 0.661862 0.000000 0.410481
O O17 0.728028 0.391737 0.271041
O O18 0.000000 0.375064 0.241967
O O19 0.000000 0.928462 0.682286
O O20 0.783745 0.000000 0.699701
O O21 0.000000 0.000000 0.064932
#
# Coordination Sequence:
#
# PCOD8266923 Si02
#       8
#    16  16   8   8  16  16  16   8
#     4  10  21  39  60  78 101 136 169 195 235 296
#     4  10  22  39  57  77  98 127 166 205 244 292
#     4   9  15  23  35  51  77 115 160 209 252 283
#     4  10  18  33  55  74  98 130 165 196 237 300
#     4   9  16  25  37  54  80 119 165 203 239 288
#     4  10  19  33  53  72  94 125 161 199 241 294
#     4  10  19  28  41  66  97 123 154 199 251 296
#     4  12  23  33  52  83 114 132 155 199 247 286
#
# _framework density 17.212385999999999
#
# number of rings (size 3 to 8) (size 9 to 14) (size 15 to 20)
#    0.000    2.077    2.308    2.077    0.000    6.769 
#    0.000    0.000    0.000    0.000    0.000    0.000 
#    0.000    0.000    0.000    0.692    0.000    9.462 
#
# Total GULP energy -644697.690090 kJ/mol
# GULP energy per Si atom -12398.032502 kJ/mol
# Density = 1.717321 g / cm^3
# Si number density = 17.212386 Si / 1000 Ang^3
#
#
#
# Elastic Constant Matrix: (Units=GPa)
#
#
# Indices 1 2 3 4 5 6 
#
# 1 97.8665 33.0692 65.0771 0.0000 0.0000 0.0000
# 2 33.0692 77.5830 43.1963 0.0000 0.0000 0.0000
# 3 65.0771 43.1963 151.0296 0.0000 0.0000 0.0000
# 4 0.0000 0.0000 0.0000 7.5107 0.0000 0.0000
# 5 0.0000 0.0000 0.0000 0.0000 24.3069 0.0000
# 6 0.0000 0.0000 0.0000 0.0000 0.0000 22.7502
#
#
#
# Elastic Compliance Matrix: (Units=1/GPa)
#
#
# Indices 1 2 3 4 5 6 
#
# 1 0.015010 -0.003327 -0.005516 0.000000 0.000000 0.000000
# 2 -0.003327 0.016068 -0.003162 0.000000 0.000000 0.000000
# 3 -0.005516 -0.003162 0.009903 0.000000 0.000000 0.000000
# 4 0.000000 0.000000 0.000000 0.133144 0.000000 0.000000
# 5 0.000000 0.000000 0.000000 0.000000 0.041141 0.000000
# 6 0.000000 0.000000 0.000000 0.000000 0.000000 0.043956
#
#
# Mechanical properties :
#
#
# Convention : Reuss Voigt Hill
#
# Bulk Modulus (GPa) = 58.92592 67.68491 63.30542
# Shear Modulus (GPa) = 17.30776 23.25599 20.28188
#
# Velocity S-wave (km/s) = 3.17447 3.67975 3.43641
# Velocity P-wave (km/s) = 6.90979 7.58042 7.25286
#
# Compressibility (1/GPa) = 0.01697046
#
# Stress axis : x y z
#
# Youngs Moduli (GPa) = 66.62151 62.23537 100.98399
#
# Poissons Ratio (x) = 0.20704 0.55705
# Poissons Ratio (y) = 0.22163 0.31934
# Poissons Ratio (z) = 0.36750 0.19680
#
# Static dielectric constant tensor:
#      x y z
#    x 3.248370 0.000000 0.000000 
#    y 0.000000 2.747580 0.000000 
#    z 0.000000 0.000000 3.412180 
# 
# 
# High freq. dielectric constant tensor:
#      x y z
#    x 1.667030 0.000000 0.000000 
#    y 0.000000 1.604770 0.000000 
#    z 0.000000 0.000000 1.678740 
# 
# From -- ./inp_files/73661.got.cif
#   From: 2010.03.12/outbox.cif.g09.slc.cpg/sg65_37_cif.got.tgz:73661.got - 2010.04.10 20:52:16.
