data_PCOD8266013
_publ_section_title
;
Structure prediction by ZEFSAII (Michael W. Deem and Ramdas Pophale) SiO2 
 PCOD8266013
Probable space group: C M M M
;
_chemical_formula_sum "Si O2"
_cell_formula_units_Z 104
_cell_length_a 28.590218
_cell_length_b 8.791455
_cell_length_c 23.439416
_cell_angle_alpha 90.000000
_cell_angle_beta 90.000000
_cell_angle_gamma 90.000000
_cell_volume 5891.488187
_symmetry_space_group_name_H-M "C M M M"
_symmetry_group_IT_number 65
_symmetry_cell_setting 'orthorhombic'
loop_
_space_group_symop_operation_xyz
x,y,z
-x,-y,z
x,-y,-z
-x,y,-z
-x,-y,-z
x,y,-z
-x,y,z
x,-y,z
1/2+x,1/2+y,z
1/2-x,1/2-y,z
1/2+x,1/2-y,-z
1/2-x,1/2+y,-z
1/2-x,1/2-y,-z
1/2+x,1/2+y,-z
1/2-x,1/2+y,z
1/2+x,1/2-y,z
loop_
_atom_site_type_symbol
_atom_site_label
_atom_site_fract_x
_atom_site_fract_y
_atom_site_fract_z
Si Si1 0.103401 0.823085 0.113564
Si Si2 0.947246 0.318998 0.562928
Si Si3 0.702382 0.820055 0.278010
Si Si4 0.053214 0.180782 0.000000
Si Si5 0.893333 0.319651 0.670879
Si Si6 0.447466 0.180463 0.780535
Si Si7 0.296991 0.677116 0.844664
O O1 0.081337 0.733064 0.165315
O O2 0.159450 0.796005 0.112712
O O3 0.091615 0.000000 0.121451
O O4 0.080971 0.758796 0.055322
O O5 0.931636 0.260763 0.500000
O O6 0.945808 0.500000 0.563933
O O7 0.912560 0.251324 0.611171
O O8 0.000000 0.263851 0.576165
O O9 0.750000 0.750000 0.303404
O O10 0.660653 0.772121 0.320633
O O11 0.691608 0.754953 0.215570
O O12 0.707018 0.000000 0.272837
O O13 0.000000 0.244018 0.000000
O O14 0.052843 0.000000 0.000000
O O15 0.898384 0.500000 0.670270
O O16 0.923839 0.253840 0.723178
O O17 0.500000 0.244777 0.784168
O O18 0.447179 0.000000 0.779398
O O19 0.288052 0.500000 0.833658
O O20 0.250000 0.750000 0.871912
#
# Coordination Sequence:
#
# PCOD8266013 Si02
#       7
#    16  16  16   8  16  16  16
#     4  10  20  34  52  72  94 123 160 198 233 276
#     4   8  13  22  38  61  90 124 160 194 227 271
#     4  10  18  29  46  67  94 125 155 191 234 284
#     4   9  18  34  54  71  91 125 163 195 228 273
#     4   9  16  26  41  64  93 124 155 189 237 285
#     4  10  19  30  46  69  98 127 153 190 240 287
#     4  10  19  31  49  72  96 122 153 193 238 284
#
# _framework density 17.652585999999999
#
# number of rings (size 3 to 8) (size 9 to 14) (size 15 to 20)
#    0.000    2.538    1.538    3.231    0.000    3.385 
#    0.000    0.769    0.000    1.846    0.000    0.000 
#    0.000    4.923    0.000   17.077    0.000   16.000 
#
# Total GULP energy -644592.043140 kJ/mol
# GULP energy per Si atom -12396.000830 kJ/mol
# Density = 1.761241 g / cm^3
# Si number density = 17.652586 Si / 1000 Ang^3
#
#
#
# Elastic Constant Matrix: (Units=GPa)
#
#
# Indices 1 2 3 4 5 6 
#
# 1 155.8960 29.2004 79.0532 0.0000 0.0000 0.0000
# 2 29.2004 37.0883 14.0732 0.0000 0.0000 0.0000
# 3 79.0532 14.0732 128.3305 0.0000 0.0000 0.0000
# 4 0.0000 0.0000 0.0000 6.6498 0.0000 0.0000
# 5 0.0000 0.0000 0.0000 0.0000 34.3660 0.0000
# 6 0.0000 0.0000 0.0000 0.0000 0.0000 13.9964
#
#
#
# Elastic Compliance Matrix: (Units=1/GPa)
#
#
# Indices 1 2 3 4 5 6 
#
# 1 0.010489 -0.006058 -0.005797 0.000000 0.000000 0.000000
# 2 -0.006058 0.031633 0.000263 0.000000 0.000000 0.000000
# 3 -0.005797 0.000263 0.011334 0.000000 0.000000 0.000000
# 4 0.000000 0.000000 0.000000 0.150380 0.000000 0.000000
# 5 0.000000 0.000000 0.000000 0.000000 0.029099 0.000000
# 6 0.000000 0.000000 0.000000 0.000000 0.000000 0.071447
#
#
# Mechanical properties :
#
#
# Convention : Reuss Voigt Hill
#
# Bulk Modulus (GPa) = 33.03415 62.88535 47.95975
# Shear Modulus (GPa) = 14.80791 24.26829 19.53810
#
# Velocity S-wave (km/s) = 2.89944 3.71182 3.33049
# Velocity P-wave (km/s) = 5.47386 7.35332 6.48207
#
# Compressibility (1/GPa) = 0.03027171
#
# Stress axis : x y z
#
# Youngs Moduli (GPa) = 95.33926 31.61276 88.22644
#
# Poissons Ratio (x) = 0.19152 0.51144
# Poissons Ratio (y) = 0.57761 -0.02322
# Poissons Ratio (z) = 0.55267 -0.00832
#
# Static dielectric constant tensor:
#      x y z
#    x 3.533150 0.000000 0.000000 
#    y 0.000000 2.938360 0.000000 
#    z 0.000000 0.000000 3.396290 
# 
# 
# High freq. dielectric constant tensor:
#      x y z
#    x 1.695720 0.000000 0.000000 
#    y 0.000000 1.647240 0.000000 
#    z 0.000000 0.000000 1.666510 
# 
# From -- ./inp_files/72177.got.cif
#   From: 2010.03.12/outbox.cif.g09.slc.cpg/sg65_37_cif.got.tgz:72177.got - 2010.04.10 20:52:16.
