data_PCOD8266920
_publ_section_title
;
Structure prediction by ZEFSAII (Michael W. Deem and Ramdas Pophale) SiO2 
 PCOD8266920
Probable space group: C M M M
;
_chemical_formula_sum "Si O2"
_cell_formula_units_Z 104
_cell_length_a 29.019219
_cell_length_b 8.183480
_cell_length_c 24.529199
_cell_angle_alpha 90.000000
_cell_angle_beta 90.000000
_cell_angle_gamma 90.000000
_cell_volume 5825.149984
_symmetry_space_group_name_H-M "C M M M"
_symmetry_group_IT_number 65
_symmetry_cell_setting 'orthorhombic'
loop_
_space_group_symop_operation_xyz
x,y,z
-x,-y,z
x,-y,-z
-x,y,-z
-x,-y,-z
x,y,-z
-x,y,z
x,-y,z
1/2+x,1/2+y,z
1/2-x,1/2-y,z
1/2+x,1/2-y,-z
1/2-x,1/2+y,-z
1/2-x,1/2-y,-z
1/2+x,1/2+y,-z
1/2-x,1/2+y,z
1/2+x,1/2-y,z
loop_
_atom_site_type_symbol
_atom_site_label
_atom_site_fract_x
_atom_site_fract_y
_atom_site_fract_z
Si Si1 0.554670 0.500000 0.938910
Si Si2 0.888167 0.687632 0.439341
Si Si3 0.895906 0.807071 0.766977
Si Si4 0.053911 0.314525 0.129515
Si Si5 0.298186 0.692389 0.269600
Si Si6 0.447657 0.691635 0.657225
Si Si7 0.797143 0.188139 0.609521
O O1 0.500000 0.500000 0.940464
O O2 0.571835 0.330974 0.910361
O O3 0.575046 0.500000 0.000000
O O4 0.905408 0.735808 0.500000
O O5 0.874995 0.500000 0.435781
O O6 0.928546 0.725622 0.397146
O O7 0.841191 0.782975 0.427675
O O8 0.920158 0.702710 0.813484
O O9 0.842194 0.753361 0.766282
O O10 0.918091 0.755481 0.709429
O O11 0.903084 0.000000 0.777904
O O12 0.063143 0.500000 0.106443
O O13 0.000000 0.289720 0.140451
O O14 0.299399 0.500000 0.273162
O O15 0.250000 0.750000 0.242164
O O16 0.302750 0.770464 0.330362
O O17 0.500000 0.749357 0.666181
O O18 0.444074 0.500000 0.648220
O O19 0.750000 0.250000 0.580969
O O20 0.791474 0.000000 0.619590
#
# Coordination Sequence:
#
# PCOD8266920 Si02
#       7
#     8  16  16  16  16  16  16
#     4   9  18  34  54  76 112 158 193 231 275 307
#     4  11  24  39  53  71  97 129 167 213 265 318
#     4  10  18  33  54  76 107 143 173 215 269 321
#     4  10  20  32  50  80 113 150 193 230 269 316
#     4   9  18  31  50  75 103 134 166 203 258 321
#     4  10  21  37  57  77  97 129 171 213 265 323
#     4  10  19  35  56  77  99 124 160 204 256 318
#
# _framework density 17.853617
#
# number of rings (size 3 to 8) (size 9 to 14) (size 15 to 20)
#    0.000    2.077    2.308    1.385    0.000    4.923 
#    0.000    3.077    0.000    0.000    0.000    0.000 
#    0.000    0.615    0.308    0.000    0.000    0.000 
#
# Total GULP energy -644605.760970 kJ/mol
# GULP energy per Si atom -12396.264634 kJ/mol
# Density = 1.781298 g / cm^3
# Si number density = 17.853617 Si / 1000 Ang^3
#
#
#
# Elastic Constant Matrix: (Units=GPa)
#
#
# Indices 1 2 3 4 5 6 
#
# 1 98.5707 29.5054 32.7554 0.0000 0.0000 0.0000
# 2 29.5054 71.9128 40.1765 0.0000 0.0000 0.0000
# 3 32.7554 40.1765 91.6468 0.0000 0.0000 0.0000
# 4 0.0000 0.0000 0.0000 19.9284 0.0000 0.0000
# 5 0.0000 0.0000 0.0000 0.0000 15.7706 0.0000
# 6 0.0000 0.0000 0.0000 0.0000 0.0000 26.8423
#
#
#
# Elastic Compliance Matrix: (Units=1/GPa)
#
#
# Indices 1 2 3 4 5 6 
#
# 1 0.012101 -0.003375 -0.002845 0.000000 0.000000 0.000000
# 2 -0.003375 0.019358 -0.007280 0.000000 0.000000 0.000000
# 3 -0.002845 -0.007280 0.015120 0.000000 0.000000 0.000000
# 4 0.000000 0.000000 0.000000 0.050180 0.000000 0.000000
# 5 0.000000 0.000000 0.000000 0.000000 0.063409 0.000000
# 6 0.000000 0.000000 0.000000 0.000000 0.000000 0.037255
#
#
# Mechanical properties :
#
#
# Convention : Reuss Voigt Hill
#
# Bulk Modulus (GPa) = 51.07879 51.88944 51.48411
# Shear Modulus (GPa) = 21.64990 23.15446 22.40218
#
# Velocity S-wave (km/s) = 3.48607 3.60516 3.54612
# Velocity P-wave (km/s) = 6.69891 6.81590 6.75766
#
# Compressibility (1/GPa) = 0.01957760
#
# Stress axis : x y z
#
# Youngs Moduli (GPa) = 82.63896 51.65919 66.13893
#
# Poissons Ratio (x) = 0.17437 0.18818
# Poissons Ratio (y) = 0.27893 0.48147
# Poissons Ratio (z) = 0.23513 0.37606
#
# Static dielectric constant tensor:
#      x y z
#    x 3.217240 0.000000 0.000000 
#    y 0.000000 3.397080 0.000000 
#    z 0.000000 0.000000 3.170220 
# 
# 
# High freq. dielectric constant tensor:
#      x y z
#    x 1.682980 0.000000 0.000000 
#    y 0.000000 1.694370 0.000000 
#    z 0.000000 0.000000 1.657440 
# 
# From -- ./inp_files/60923.got.cif
#   From: 2010.03.12/outbox.cif.g09.slc.cpg/sg65_31_cif.got.tgz:60923.got - 2010.04.10 20:52:16.
