data_PCOD8266762
_publ_section_title
;
Structure prediction by ZEFSAII (Michael W. Deem and Ramdas Pophale) SiO2 
 PCOD8266762
Probable space group: C M M M
;
_chemical_formula_sum "Si O2"
_cell_formula_units_Z 104
_cell_length_a 8.762509
_cell_length_b 28.884946
_cell_length_c 23.183716
_cell_angle_alpha 90.000000
_cell_angle_beta 90.000000
_cell_angle_gamma 90.000000
_cell_volume 5867.905148
_symmetry_space_group_name_H-M "C M M M"
_symmetry_group_IT_number 65
_symmetry_cell_setting 'orthorhombic'
loop_
_space_group_symop_operation_xyz
x,y,z
-x,-y,z
x,-y,-z
-x,y,-z
-x,-y,-z
x,y,-z
-x,y,z
x,-y,z
1/2+x,1/2+y,z
1/2-x,1/2-y,z
1/2+x,1/2-y,-z
1/2-x,1/2+y,-z
1/2-x,1/2-y,-z
1/2+x,1/2+y,-z
1/2-x,1/2+y,z
1/2+x,1/2-y,z
loop_
_atom_site_type_symbol
_atom_site_label
_atom_site_fract_x
_atom_site_fract_y
_atom_site_fract_z
Si Si1 0.321854 0.199991 0.335490
Si Si2 0.322059 0.052225 0.606413
Si Si3 0.320676 0.146307 0.219380
Si Si4 0.818059 0.698815 0.000000
Si Si5 0.825012 0.141259 0.565190
Si Si6 0.180194 0.800444 0.884361
Si Si7 0.319324 0.949976 0.263646
O O1 0.500000 0.206875 0.340139
O O2 0.250000 0.250000 0.329406
O O3 0.277581 0.170195 0.279560
O O4 0.268935 0.174266 0.392882
O O5 0.500000 0.064993 0.603497
O O6 0.230885 0.088197 0.567275
O O7 0.258351 0.057257 0.671552
O O8 0.294028 0.000000 0.583658
O O9 0.500000 0.152089 0.205272
O O10 0.218499 0.167603 0.169480
O O11 0.269458 0.092404 0.222918
O O12 0.750000 0.750000 0.000000
O O13 0.753802 0.675444 0.941501
O O14 0.000000 0.698546 0.000000
O O15 0.802503 0.159320 0.500000
O O16 0.000000 0.143487 0.584087
O O17 0.250000 0.750000 0.873048
O O18 0.000000 0.795687 0.892335
O O19 0.500000 0.950754 0.268246
O O20 0.261020 0.000000 0.239269
#
# Coordination Sequence:
#
# PCOD8266762 Si02
#       7
#    16  16  16   8  16  16  16
#     4  11  23  39  58  78 101 133 171 218 266 315
#     4   9  17  33  57  81 103 131 168 210 259 315
#     4  10  19  33  54  81 108 136 172 212 258 306
#     4  10  18  32  52  74 105 144 183 222 260 301
#     4  11  24  39  54  74 102 135 172 214 263 320
#     4  11  21  33  50  76 110 147 183 218 257 303
#     4   8  14  28  52  79 105 132 165 207 254 305
#
# _framework density 17.72353
#
# number of rings (size 3 to 8) (size 9 to 14) (size 15 to 20)
#    0.000    2.000    1.538    5.308    0.000    4.615 
#    0.000    1.538    0.000    0.462    0.000    0.538 
#    0.000    4.308    0.000    0.000    0.000    0.000 
#
# Total GULP energy -644665.724317 kJ/mol
# GULP energy per Si atom -12397.417775 kJ/mol
# Density = 1.768319 g / cm^3
# Si number density = 17.723530 Si / 1000 Ang^3
#
#
#
# Elastic Constant Matrix: (Units=GPa)
#
#
# Indices 1 2 3 4 5 6 
#
# 1 87.1802 42.8031 56.3066 0.0000 0.0000 0.0000
# 2 42.8031 112.3163 47.5109 0.0000 0.0000 0.0000
# 3 56.3066 47.5109 97.0127 0.0000 0.0000 0.0000
# 4 0.0000 0.0000 0.0000 12.1162 0.0000 0.0000
# 5 0.0000 0.0000 0.0000 0.0000 28.2354 0.0000
# 6 0.0000 0.0000 0.0000 0.0000 0.0000 23.5690
#
#
#
# Elastic Compliance Matrix: (Units=1/GPa)
#
#
# Indices 1 2 3 4 5 6 
#
# 1 0.019269 -0.003295 -0.009570 0.000000 0.000000 0.000000
# 2 -0.003295 0.011793 -0.003863 0.000000 0.000000 0.000000
# 3 -0.009570 -0.003863 0.017755 0.000000 0.000000 0.000000
# 4 0.000000 0.000000 0.000000 0.082534 0.000000 0.000000
# 5 0.000000 0.000000 0.000000 0.000000 0.035417 0.000000
# 6 0.000000 0.000000 0.000000 0.000000 0.000000 0.042429
#
#
# Mechanical properties :
#
#
# Convention : Reuss Voigt Hill
#
# Bulk Modulus (GPa) = 65.10373 65.52782 65.31577
# Shear Modulus (GPa) = 20.17969 22.77668 21.47819
#
# Velocity S-wave (km/s) = 3.37795 3.58873 3.48493
# Velocity P-wave (km/s) = 7.21296 7.36373 7.28873
#
# Compressibility (1/GPa) = 0.01536010
#
# Stress axis : x y z
#
# Youngs Moduli (GPa) = 51.89565 84.79368 56.32373
#
# Poissons Ratio (x) = 0.27941 0.53904
# Poissons Ratio (y) = 0.17100 0.21759
# Poissons Ratio (z) = 0.49666 0.32757
#
# Static dielectric constant tensor:
#      x y z
#    x 3.179140 0.000000 0.000000 
#    y 0.000000 3.541200 0.000000 
#    z 0.000000 0.000000 3.481780 
# 
# 
# High freq. dielectric constant tensor:
#      x y z
#    x 1.678960 0.000000 0.000000 
#    y 0.000000 1.677770 0.000000 
#    z 0.000000 0.000000 1.675960 
# 
# From -- ./inp_files/60885.got.cif
#   From: 2010.03.12/outbox.cif.g09.slc.cpg/sg65_31_cif.got.tgz:60885.got - 2010.04.10 20:52:16.
