data_PCOD8266772
_publ_section_title
;
Structure prediction by ZEFSAII (Michael W. Deem and Ramdas Pophale) SiO2 
 PCOD8266772
Probable space group: C M M M
;
_chemical_formula_sum "Si O2"
_cell_formula_units_Z 72
_cell_length_a 8.686424
_cell_length_b 28.393597
_cell_length_c 15.267631
_cell_angle_alpha 90.000000
_cell_angle_beta 90.000000
_cell_angle_gamma 90.000000
_cell_volume 3765.590531
_symmetry_space_group_name_H-M "C M M M"
_symmetry_group_IT_number 65
_symmetry_cell_setting 'orthorhombic'
loop_
_space_group_symop_operation_xyz
x,y,z
-x,-y,z
x,-y,-z
-x,y,-z
-x,-y,-z
x,y,-z
-x,y,z
x,-y,z
1/2+x,1/2+y,z
1/2-x,1/2-y,z
1/2+x,1/2-y,-z
1/2-x,1/2+y,-z
1/2-x,1/2-y,-z
1/2+x,1/2+y,-z
1/2-x,1/2+y,z
1/2+x,1/2-y,z
loop_
_atom_site_type_symbol
_atom_site_label
_atom_site_fract_x
_atom_site_fract_y
_atom_site_fract_z
Si Si1 0.323296 0.554131 0.399602
Si Si2 0.816795 0.697818 0.000000
Si Si3 0.819416 0.801057 0.177278
Si Si4 0.676315 0.444571 0.099017
Si Si5 0.822184 0.386931 0.251451
O O1 0.300192 0.569370 0.500000
O O2 0.500000 0.561110 0.370743
O O3 0.275126 0.500000 0.386711
O O4 0.214543 0.586012 0.340642
O O5 0.750000 0.750000 0.000000
O O6 0.750947 0.674831 0.911253
O O7 0.000000 0.697126 0.000000
O O8 0.750000 0.750000 0.198526
O O9 0.774764 0.838139 0.252579
O O10 0.000000 0.795019 0.167337
O O11 0.500000 0.429269 0.115829
O O12 0.694400 0.500000 0.113195
O O13 0.784828 0.418879 0.167690
O O14 0.725917 0.430888 0.000000
O O15 0.000000 0.373559 0.249578
#
# Coordination Sequence:
#
# PCOD8266772 Si02
#       5
#    16   8  16  16  16
#     4   9  19  38  63  88 114 146 186 232 282 337
#     4  10  18  32  52  76 105 138 181 230 280 328
#     4  11  22  38  57  78 108 147 190 237 284 332
#     4   9  19  36  55  75 105 147 192 233 275 328
#     4  12  24  35  53  83 116 149 186 231 281 338
#
# _framework density 19.120505000000001
#
# number of rings (size 3 to 8) (size 9 to 14) (size 15 to 20)
#    0.000    1.778    0.000    8.333    1.556    4.444 
#    0.000    2.222    0.000    0.667    0.000    0.000 
#    0.000    0.000    0.000    0.000    0.000    0.000 
#
# Total GULP energy -446444.033556 kJ/mol
# GULP energy per Si atom -12401.223154 kJ/mol
# Density = 1.907699 g / cm^3
# Si number density = 19.120505 Si / 1000 Ang^3
#
#
#
# Elastic Constant Matrix: (Units=GPa)
#
#
# Indices 1 2 3 4 5 6 
#
# 1 133.9059 36.3114 35.9906 0.0000 0.0000 0.0000
# 2 36.3114 72.3948 45.8640 0.0000 0.0000 0.0000
# 3 35.9906 45.8640 84.5982 0.0000 0.0000 0.0000
# 4 0.0000 0.0000 0.0000 25.3656 0.0000 0.0000
# 5 0.0000 0.0000 0.0000 0.0000 27.5759 0.0000
# 6 0.0000 0.0000 0.0000 0.0000 0.0000 30.9792
#
#
#
# Elastic Compliance Matrix: (Units=1/GPa)
#
#
# Indices 1 2 3 4 5 6 
#
# 1 0.008877 -0.003137 -0.002075 0.000000 0.000000 0.000000
# 2 -0.003137 0.022148 -0.010673 0.000000 0.000000 0.000000
# 3 -0.002075 -0.010673 0.018490 0.000000 0.000000 0.000000
# 4 0.000000 0.000000 0.000000 0.039424 0.000000 0.000000
# 5 0.000000 0.000000 0.000000 0.000000 0.036264 0.000000
# 6 0.000000 0.000000 0.000000 0.000000 0.000000 0.032280
#
#
# Mechanical properties :
#
#
# Convention : Reuss Voigt Hill
#
# Bulk Modulus (GPa) = 56.35918 58.58121 57.47020
# Shear Modulus (GPa) = 25.61913 28.29965 26.95939
#
# Velocity S-wave (km/s) = 3.66440 3.85134 3.75903
# Velocity P-wave (km/s) = 6.88793 7.10503 6.99732
#
# Compressibility (1/GPa) = 0.01774334
#
# Stress axis : x y z
#
# Youngs Moduli (GPa) = 112.65667 45.15036 54.08443
#
# Poissons Ratio (x) = 0.14165 0.11225
# Poissons Ratio (y) = 0.35345 0.57723
# Poissons Ratio (z) = 0.23381 0.48187
#
# Static dielectric constant tensor:
#      x y z
#    x 3.417360 0.000000 0.000000 
#    y 0.000000 3.467480 0.000000 
#    z 0.000000 0.000000 3.585010 
# 
# 
# High freq. dielectric constant tensor:
#      x y z
#    x 1.744910 0.000000 0.000000 
#    y 0.000000 1.744650 0.000000 
#    z 0.000000 0.000000 1.726380 
# 
# From -- ./inp_files/36554.got.cif
#   From: 2010.03.12/outbox.cif.g09.slc.cpg/sg65_19_cif.got.tgz:36554.got - 2010.04.10 20:52:16.
