data_PCOD8266252
_publ_section_title
;
Structure prediction by ZEFSAII (Michael W. Deem and Ramdas Pophale) SiO2 
 PCOD8266252
Probable space group: C M M M
;
_chemical_formula_sum "Si O2"
_cell_formula_units_Z 104
_cell_length_a 23.889245
_cell_length_b 8.958154
_cell_length_c 28.451129
_cell_angle_alpha 90.000000
_cell_angle_beta 90.000000
_cell_angle_gamma 90.000000
_cell_volume 6088.642199
_symmetry_space_group_name_H-M "C M M M"
_symmetry_group_IT_number 65
_symmetry_cell_setting 'orthorhombic'
loop_
_space_group_symop_operation_xyz
x,y,z
-x,-y,z
x,-y,-z
-x,y,-z
-x,-y,-z
x,y,-z
-x,y,z
x,-y,z
1/2+x,1/2+y,z
1/2-x,1/2-y,z
1/2+x,1/2-y,-z
1/2-x,1/2+y,-z
1/2-x,1/2-y,-z
1/2+x,1/2+y,-z
1/2-x,1/2+y,z
1/2+x,1/2-y,z
loop_
_atom_site_type_symbol
_atom_site_label
_atom_site_fract_x
_atom_site_fract_y
_atom_site_fract_z
Si Si1 0.621216 0.676482 0.550985
Si Si2 0.000000 0.177881 0.572403
Si Si3 0.500000 0.676951 0.676243
Si Si4 0.933145 0.668576 0.000000
Si Si5 0.933703 0.832617 0.092241
Si Si6 0.110961 0.176345 0.274661
Si Si7 0.435451 0.176449 0.812152
Si Si8 0.810114 0.822773 0.640742
O O1 0.648621 0.718642 0.500000
O O2 0.619394 0.500000 0.557824
O O3 0.557267 0.737739 0.549017
O O4 0.655695 0.741397 0.595436
O O5 0.000000 0.243253 0.624547
O O6 0.000000 0.000000 0.570844
O O7 0.500000 0.500000 0.673939
O O8 0.445424 0.736253 0.701782
O O9 0.909299 0.752051 0.046013
O O10 0.910308 0.500000 0.000000
O O11 0.000000 0.669088 0.000000
O O12 0.915718 0.739610 0.137858
O O13 0.000000 0.838621 0.088357
O O14 0.909099 0.000000 0.095535
O O15 0.110469 0.259723 0.224673
O O16 0.161017 0.222948 0.309805
O O17 0.110899 0.000000 0.265840
O O18 0.500000 0.226743 0.800992
O O19 0.431125 0.000000 0.813446
O O20 0.750000 0.750000 0.639793
O O21 0.804968 0.000000 0.637269
#
# Coordination Sequence:
#
# PCOD8266252 Si02
#       8
#    16   8   8   8  16  16  16  16
#     4   9  16  26  43  69  97 120 145 183 230 276
#     4   9  13  22  41  69  97 117 140 182 232 273
#     4   9  14  23  43  66  87 109 141 182 227 274
#     4   9  15  23  35  51  77 115 158 203 242 271
#     4   9  16  25  37  54  79 116 160 197 229 272
#     4  10  18  30  48  66  86 115 150 188 231 280
#     4  10  19  28  40  63  92 117 145 186 236 284
#     4  10  21  35  50  68  90 119 155 191 228 275
#
# _framework density 17.080984000000001
#
# number of rings (size 3 to 8) (size 9 to 14) (size 15 to 20)
#    0.000    2.538    2.308    1.385    0.000    5.231 
#    0.000    0.000    0.000    0.000    0.000    0.000 
#    0.000    1.231    0.000    0.692    0.000    9.462 
#
# Total GULP energy -644347.402620 kJ/mol
# GULP energy per Si atom -12391.296204 kJ/mol
# Density = 1.704211 g / cm^3
# Si number density = 17.080984 Si / 1000 Ang^3
#
#
#
# Elastic Constant Matrix: (Units=GPa)
#
#
# Indices 1 2 3 4 5 6 
#
# 1 80.6812 23.1707 49.2951 0.0000 0.0000 0.0000
# 2 23.1707 56.8399 48.3824 0.0000 0.0000 0.0000
# 3 49.2951 48.3824 166.3117 0.0000 0.0000 0.0000
# 4 0.0000 0.0000 0.0000 14.4529 0.0000 0.0000
# 5 0.0000 0.0000 0.0000 0.0000 14.8306 0.0000
# 6 0.0000 0.0000 0.0000 0.0000 0.0000 17.1801
#
#
#
# Elastic Compliance Matrix: (Units=1/GPa)
#
#
# Indices 1 2 3 4 5 6 
#
# 1 0.015565 -0.003214 -0.003679 0.000000 0.000000 0.000000
# 2 -0.003214 0.024047 -0.006043 0.000000 0.000000 0.000000
# 3 -0.003679 -0.006043 0.008861 0.000000 0.000000 0.000000
# 4 0.000000 0.000000 0.000000 0.069190 0.000000 0.000000
# 5 0.000000 0.000000 0.000000 0.000000 0.067428 0.000000
# 6 0.000000 0.000000 0.000000 0.000000 0.000000 0.058207
#
#
# Mechanical properties :
#
#
# Convention : Reuss Voigt Hill
#
# Bulk Modulus (GPa) = 44.24296 60.61434 52.42865
# Shear Modulus (GPa) = 18.06985 21.49169 19.78077
#
# Velocity S-wave (km/s) = 3.25606 3.55099 3.40672
# Velocity P-wave (km/s) = 6.33198 7.23714 6.79964
#
# Compressibility (1/GPa) = 0.02260246
#
# Stress axis : x y z
#
# Youngs Moduli (GPa) = 64.24681 41.58469 112.85223
#
# Poissons Ratio (x) = 0.13365 0.41513
# Poissons Ratio (y) = 0.20648 0.68198
# Poissons Ratio (z) = 0.23633 0.25130
#
# Static dielectric constant tensor:
#      x y z
#    x 2.862940 0.000000 0.000000 
#    y 0.000000 2.907730 0.000000 
#    z 0.000000 0.000000 3.473380 
# 
# 
# High freq. dielectric constant tensor:
#      x y z
#    x 1.601470 0.000000 0.000000 
#    y 0.000000 1.630500 0.000000 
#    z 0.000000 0.000000 1.678630 
# 
# From -- ./inp_files/75824.got.cif
#   From: 2010.03.12/outbox.cif.g09.slc.cpg/sg65_38_cif.got.tgz:75824.got - 2010.04.10 20:52:16.
