data_PCOD8266515
_publ_section_title
;
Structure prediction by ZEFSAII (Michael W. Deem and Ramdas Pophale) SiO2 
 PCOD8266515
Probable space group: C M M M
;
_chemical_formula_sum "Si O2"
_cell_formula_units_Z 72
_cell_length_a 30.489602
_cell_length_b 19.295355
_cell_length_c 7.510675
_cell_angle_alpha 90.000000
_cell_angle_beta 90.000000
_cell_angle_gamma 90.000000
_cell_volume 4418.587893
_symmetry_space_group_name_H-M "C M M M"
_symmetry_group_IT_number 65
_symmetry_cell_setting 'orthorhombic'
loop_
_space_group_symop_operation_xyz
x,y,z
-x,-y,z
x,-y,-z
-x,y,-z
-x,-y,-z
x,y,-z
-x,y,z
x,-y,z
1/2+x,1/2+y,z
1/2-x,1/2-y,z
1/2+x,1/2-y,-z
1/2-x,1/2+y,-z
1/2-x,1/2-y,-z
1/2+x,1/2+y,-z
1/2-x,1/2+y,z
1/2+x,1/2-y,z
loop_
_atom_site_type_symbol
_atom_site_label
_atom_site_fract_x
_atom_site_fract_y
_atom_site_fract_z
Si Si1 0.161240 0.118358 0.500000
Si Si2 0.933663 0.923306 0.500000
Si Si3 0.743446 0.078129 0.500000
Si Si4 0.719568 0.815002 0.204354
Si Si5 0.358977 0.276022 0.797609
Si Si6 0.952338 0.816509 0.203214
O O1 0.118846 0.069906 0.500000
O O2 0.204108 0.071334 0.500000
O O3 0.161974 0.165338 0.675754
O O4 0.950154 0.884323 0.324509
O O5 0.953955 0.000000 0.500000
O O6 0.727741 0.118170 0.675797
O O7 0.724093 0.000000 0.500000
O O8 0.750000 0.750000 0.262967
O O9 0.668244 0.794618 0.231509
O O10 0.729533 0.834866 0.000000
O O11 0.411127 0.265433 0.752057
O O12 0.352940 0.301624 0.000000
O O13 0.000000 0.779561 0.235540
O O14 0.948807 0.841871 0.000000
#
# Coordination Sequence:
#
# PCOD8266515 Si02
#       6
#     8   8   8  16  16  16
#     4  10  18  31  46  63  89 121 157 196 232 267
#     4  10  20  31  42  58  84 121 159 188 222 273
#     4  12  23  32  46  71 102 129 156 196 240 280
#     4  10  19  33  53  72  92 123 162 198 233 280
#     4   9  17  30  50  70  88 115 154 194 231 271
#     4   9  18  31  46  65  88 112 143 190 239 272
#
# _framework density 16.294799000000001
#
# number of rings (size 3 to 8) (size 9 to 14) (size 15 to 20)
#    0.000    2.222    2.222    1.667    0.000    1.778 
#    0.000    1.111    0.000    4.000    0.000    0.000 
#    0.000    1.778    0.000    8.667    0.000    0.000 
#
# Total GULP energy -446103.113891 kJ/mol
# GULP energy per Si atom -12391.753164 kJ/mol
# Density = 1.625771 g / cm^3
# Si number density = 16.294799 Si / 1000 Ang^3
#
#
#
# Elastic Constant Matrix: (Units=GPa)
#
#
# Indices 1 2 3 4 5 6 
#
# 1 126.4328 44.0526 33.1237 0.0000 0.0000 0.0000
# 2 44.0526 81.5654 40.9209 0.0000 0.0000 0.0000
# 3 33.1237 40.9209 83.3387 0.0000 0.0000 0.0000
# 4 0.0000 0.0000 0.0000 7.2672 0.0000 0.0000
# 5 0.0000 0.0000 0.0000 0.0000 17.2491 0.0000
# 6 0.0000 0.0000 0.0000 0.0000 0.0000 8.9602
#
#
#
# Elastic Compliance Matrix: (Units=1/GPa)
#
#
# Indices 1 2 3 4 5 6 
#
# 1 0.009930 -0.004489 -0.001743 0.000000 0.000000 0.000000
# 2 -0.004489 0.018297 -0.007200 0.000000 0.000000 0.000000
# 3 -0.001743 -0.007200 0.016227 0.000000 0.000000 0.000000
# 4 0.000000 0.000000 0.000000 0.137605 0.000000 0.000000
# 5 0.000000 0.000000 0.000000 0.000000 0.057974 0.000000
# 6 0.000000 0.000000 0.000000 0.000000 0.000000 0.111604
#
#
# Mechanical properties :
#
#
# Convention : Reuss Voigt Hill
#
# Bulk Modulus (GPa) = 56.84715 58.61460 57.73088
# Shear Modulus (GPa) = 13.00853 18.24461 15.62657
#
# Velocity S-wave (km/s) = 2.82853 3.34976 3.10012
# Velocity P-wave (km/s) = 6.75499 7.14217 6.95128
#
# Compressibility (1/GPa) = 0.01759103
#
# Stress axis : x y z
#
# Youngs Moduli (GPa) = 100.70596 54.65511 61.62514
#
# Poissons Ratio (x) = 0.24533 0.10739
# Poissons Ratio (y) = 0.45204 0.44369
# Poissons Ratio (z) = 0.17550 0.39351
#
# Static dielectric constant tensor:
#      x y z
#    x 3.581460 0.000000 0.000000 
#    y 0.000000 2.573770 0.000000 
#    z 0.000000 0.000000 3.254930 
# 
# 
# High freq. dielectric constant tensor:
#      x y z
#    x 1.645350 0.000000 0.000000 
#    y 0.000000 1.558390 0.000000 
#    z 0.000000 0.000000 1.647910 
# 
# From -- ./inp_files/9532.got.cif
#   From: 2010.03.12/outbox.cif.g09.slc.cpg/sg65_5_cif.got.tgz:9532.got - 2010.04.10 20:52:16.
