data_PCOD8266615
_publ_section_title
;
Structure prediction by ZEFSAII (Michael W. Deem and Ramdas Pophale) SiO2 
 PCOD8266615
Probable space group: C M M M
;
_chemical_formula_sum "Si O2"
_cell_formula_units_Z 104
_cell_length_a 22.755152
_cell_length_b 26.165002
_cell_length_c 9.398950
_cell_angle_alpha 90.000000
_cell_angle_beta 90.000000
_cell_angle_gamma 90.000000
_cell_volume 5596.027659
_symmetry_space_group_name_H-M "C M M M"
_symmetry_group_IT_number 65
_symmetry_cell_setting 'orthorhombic'
loop_
_space_group_symop_operation_xyz
x,y,z
-x,-y,z
x,-y,-z
-x,y,-z
-x,-y,-z
x,y,-z
-x,y,z
x,-y,z
1/2+x,1/2+y,z
1/2-x,1/2-y,z
1/2+x,1/2-y,-z
1/2-x,1/2+y,-z
1/2-x,1/2-y,-z
1/2+x,1/2+y,-z
1/2-x,1/2+y,z
1/2+x,1/2-y,z
loop_
_atom_site_type_symbol
_atom_site_label
_atom_site_fract_x
_atom_site_fract_y
_atom_site_fract_z
Si Si1 0.870628 0.587808 0.663280
Si Si2 0.834156 0.871644 0.165489
Si Si3 0.566948 0.705629 0.164156
Si Si4 0.115271 0.702266 0.336687
Si Si5 0.741100 0.440777 0.335782
Si Si6 0.069150 0.500000 0.164000
Si Si7 0.224997 0.303791 0.848210
O O1 0.874058 0.568707 0.500000
O O2 0.902920 0.642772 0.680155
O O3 0.801433 0.589229 0.709202
O O4 0.905718 0.550319 0.763817
O O5 0.891968 0.840904 0.220384
O O6 0.818026 0.923225 0.251317
O O7 0.778538 0.837649 0.203983
O O8 0.841294 0.885107 0.000000
O O9 0.500000 0.687328 0.181762
O O10 0.574794 0.758728 0.248755
O O11 0.583057 0.717157 0.000000
O O12 0.113271 0.719695 0.500000
O O13 0.181117 0.703853 0.280944
O O14 0.727263 0.431301 0.500000
O O15 0.752398 0.500000 0.301538
O O16 0.000000 0.500000 0.183718
O O17 0.088028 0.500000 0.000000
O O18 0.250000 0.250000 0.889247
O O19 0.197805 0.325003 0.000000
#
# Coordination Sequence:
#
# PCOD8266615 Si02
#       7
#    16  16  16  16  16   8  16
#     4  10  21  38  57  80 112 150 186 226 278 333
#     4  10  20  34  56  85 111 142 185 230 280 336
#     4  10  22  41  60  78 110 155 194 229 275 331
#     4  11  22  34  54  84 116 146 184 227 273 327
#     4  10  20  36  57  83 115 145 179 225 285 345
#     4  11  25  41  57  79 105 141 194 243 278 319
#     4  10  18  31  51  78 113 144 177 219 268 326
#
# _framework density 18.584612
#
# number of rings (size 3 to 8) (size 9 to 14) (size 15 to 20)
#    0.000    1.769    3.846    0.692    0.000    4.615 
#    0.000    3.077    0.000    0.462    0.000    3.231 
#    0.000    0.000    0.000    0.000    0.000    0.000 
#
# Total GULP energy -644419.435970 kJ/mol
# GULP energy per Si atom -12392.681461 kJ/mol
# Density = 1.854231 g / cm^3
# Si number density = 18.584612 Si / 1000 Ang^3
#
#
#
# Elastic Constant Matrix: (Units=GPa)
#
#
# Indices 1 2 3 4 5 6 
#
# 1 82.8560 32.0703 45.9906 0.0000 0.0000 0.0000
# 2 32.0703 64.9133 37.9702 0.0000 0.0000 0.0000
# 3 45.9906 37.9702 86.3950 0.0000 0.0000 0.0000
# 4 0.0000 0.0000 0.0000 30.5516 0.0000 0.0000
# 5 0.0000 0.0000 0.0000 0.0000 16.0359 0.0000
# 6 0.0000 0.0000 0.0000 0.0000 0.0000 19.7530
#
#
#
# Elastic Compliance Matrix: (Units=1/GPa)
#
#
# Indices 1 2 3 4 5 6 
#
# 1 0.018032 -0.004434 -0.007650 0.000000 0.000000 0.000000
# 2 -0.004434 0.021826 -0.007232 0.000000 0.000000 0.000000
# 3 -0.007650 -0.007232 0.018826 0.000000 0.000000 0.000000
# 4 0.000000 0.000000 0.000000 0.032732 0.000000 0.000000
# 5 0.000000 0.000000 0.000000 0.000000 0.062360 0.000000
# 6 0.000000 0.000000 0.000000 0.000000 0.000000 0.050625
#
#
# Mechanical properties :
#
#
# Convention : Reuss Voigt Hill
#
# Bulk Modulus (GPa) = 49.87247 51.80297 50.83772
# Shear Modulus (GPa) = 20.02272 21.14362 20.58317
#
# Velocity S-wave (km/s) = 3.28591 3.37663 3.33158
# Velocity P-wave (km/s) = 6.42572 6.56786 6.49718
#
# Compressibility (1/GPa) = 0.02005114
#
# Stress axis : x y z
#
# Youngs Moduli (GPa) = 55.45830 45.81682 53.11875
#
# Poissons Ratio (x) = 0.20313 0.40637
# Poissons Ratio (y) = 0.24588 0.38417
# Poissons Ratio (z) = 0.42427 0.33136
#
# Static dielectric constant tensor:
#      x y z
#    x 3.250110 0.000000 0.000000 
#    y 0.000000 3.506170 0.000000 
#    z 0.000000 0.000000 3.505510 
# 
# 
# High freq. dielectric constant tensor:
#      x y z
#    x 1.698870 0.000000 0.000000 
#    y 0.000000 1.717970 0.000000 
#    z 0.000000 0.000000 1.724460 
# 
# From -- ./inp_files/12395.got.cif
#   From: 2010.03.12/outbox.cif.g09.slc.cpg/sg65_7_cif.got.tgz:12395.got - 2010.04.10 20:52:16.
