data_PCOD8266638
_publ_section_title
;
Structure prediction by ZEFSAII (Michael W. Deem and Ramdas Pophale) SiO2 
 PCOD8266638
Probable space group: C M M M
;
_chemical_formula_sum "Si O2"
_cell_formula_units_Z 120
_cell_length_a 26.754043
_cell_length_b 9.409030
_cell_length_c 26.222526
_cell_angle_alpha 90.000000
_cell_angle_beta 90.000000
_cell_angle_gamma 90.000000
_cell_volume 6600.985803
_symmetry_space_group_name_H-M "C M M M"
_symmetry_group_IT_number 65
_symmetry_cell_setting 'orthorhombic'
loop_
_space_group_symop_operation_xyz
x,y,z
-x,-y,z
x,-y,-z
-x,y,-z
-x,-y,-z
x,y,-z
-x,y,z
x,-y,z
1/2+x,1/2+y,z
1/2-x,1/2-y,z
1/2+x,1/2-y,-z
1/2-x,1/2+y,-z
1/2-x,1/2-y,-z
1/2+x,1/2+y,-z
1/2-x,1/2+y,z
1/2+x,1/2-y,z
loop_
_atom_site_type_symbol
_atom_site_label
_atom_site_fract_x
_atom_site_fract_y
_atom_site_fract_z
Si Si1 0.555890 0.842249 0.716347
Si Si2 0.702202 0.661857 0.243539
Si Si3 0.500000 0.165372 0.559606
Si Si4 0.445501 0.339772 0.807434
Si Si5 0.352099 0.658667 0.139458
Si Si6 0.302778 0.670430 0.359839
Si Si7 0.896931 0.337059 0.609926
Si Si8 0.199825 0.336311 0.942848
O O1 0.500000 0.792673 0.699920
O O2 0.578468 0.744617 0.760365
O O3 0.592670 0.834768 0.669375
O O4 0.553985 0.000000 0.738796
O O5 0.719378 0.500000 0.243898
O O6 0.750000 0.750000 0.227825
O O7 0.663628 0.691650 0.197762
O O8 0.682805 0.700890 0.300460
O O9 0.500000 0.196200 0.500000
O O10 0.552995 0.226364 0.581695
O O11 0.500000 0.000000 0.574316
O O12 0.500000 0.278305 0.821521
O O13 0.448647 0.500000 0.787725
O O14 0.412084 0.330163 0.858236
O O15 0.334416 0.500000 0.122634
O O16 0.337875 0.776227 0.098586
O O17 0.298421 0.500000 0.370690
O O18 0.250000 0.750000 0.372418
O O19 0.346986 0.738324 0.395886
O O20 0.885998 0.500000 0.591243
O O21 0.210808 0.500000 0.930854
O O22 0.250000 0.250000 0.936122
O O23 0.178049 0.316817 0.000000
#
# Coordination Sequence:
#
# PCOD8266638 Si02
#       8
#    16  16   8  16  16  16  16  16
#     4   9  16  27  44  69 101 135 170 206 245 293
#     4   9  18  30  44  66  99 132 165 200 237 287
#     4   9  18  34  57  83 109 139 175 217 268 319
#     4   9  18  31  46  67  98 133 167 203 240 284
#     4  10  19  31  48  70  96 127 162 200 242 289
#     4  10  20  34  51  74 106 143 179 213 253 305
#     4  10  18  31  52  77 105 137 175 218 260 307
#     4  10  21  36  53  73  95 118 149 192 242 295
#
# _framework density 18.179102
#
# number of rings (size 3 to 8) (size 9 to 14) (size 15 to 20)
#    0.000    2.467    0.667    2.000    0.000    5.067 
#    0.000    0.333    0.000    1.600    0.000    2.800 
#    0.000    0.000    0.000    0.000    0.000    0.000 
#
# Total GULP energy -743306.442100 kJ/mol
# GULP energy per Si atom -12388.440702 kJ/mol
# Density = 1.813773 g / cm^3
# Si number density = 18.179102 Si / 1000 Ang^3
#
#
#
# Elastic Constant Matrix: (Units=GPa)
#
#
# Indices 1 2 3 4 5 6 
#
# 1 98.2949 51.5252 44.9241 0.0000 0.0000 0.0000
# 2 51.5252 83.0105 37.6264 0.0000 0.0000 0.0000
# 3 44.9241 37.6264 59.6256 0.0000 0.0000 0.0000
# 4 0.0000 0.0000 0.0000 3.6840 0.0000 0.0000
# 5 0.0000 0.0000 0.0000 0.0000 18.2084 0.0000
# 6 0.0000 0.0000 0.0000 0.0000 0.0000 25.8241
#
#
#
# Elastic Compliance Matrix: (Units=1/GPa)
#
#
# Indices 1 2 3 4 5 6 
#
# 1 0.018056 -0.007061 -0.009148 0.000000 0.000000 0.000000
# 2 -0.007061 0.019634 -0.007070 0.000000 0.000000 0.000000
# 3 -0.009148 -0.007070 0.028125 0.000000 0.000000 0.000000
# 4 0.000000 0.000000 0.000000 0.271443 0.000000 0.000000
# 5 0.000000 0.000000 0.000000 0.000000 0.054920 0.000000
# 6 0.000000 0.000000 0.000000 0.000000 0.000000 0.038724
#
#
# Mechanical properties :
#
#
# Convention : Reuss Voigt Hill
#
# Bulk Modulus (GPa) = 51.92887 56.56470 54.24678
# Shear Modulus (GPa) = 10.33317 16.66698 13.50007
#
# Velocity S-wave (km/s) = 2.38672 3.03119 2.72805
# Velocity P-wave (km/s) = 6.01850 6.59042 6.31094
#
# Compressibility (1/GPa) = 0.01925711
#
# Stress axis : x y z
#
# Youngs Moduli (GPa) = 55.38448 50.93212 35.55493
#
# Poissons Ratio (x) = 0.35961 0.32526
# Poissons Ratio (y) = 0.39105 0.25138
# Poissons Ratio (z) = 0.50667 0.36010
#
# Static dielectric constant tensor:
#      x y z
#    x 3.527270 0.000000 0.000000 
#    y 0.000000 3.334650 0.000000 
#    z 0.000000 0.000000 3.121630 
# 
# 
# High freq. dielectric constant tensor:
#      x y z
#    x 1.707560 0.000000 0.000000 
#    y 0.000000 1.698830 0.000000 
#    z 0.000000 0.000000 1.668840 
# 
# From -- ./inp_files/76123.got.cif
#   From: 2010.03.12/outbox.cif.g09.slc.cpg/sg65_39_cif.got.tgz:76123.got - 2010.04.10 20:52:16.
