data_PCOD8266855
_publ_section_title
;
Structure prediction by ZEFSAII (Michael W. Deem and Ramdas Pophale) SiO2 
 PCOD8266855
Probable space group: C M M M
;
_chemical_formula_sum "Si O2"
_cell_formula_units_Z 104
_cell_length_a 28.928489
_cell_length_b 8.728612
_cell_length_c 20.529868
_cell_angle_alpha 90.000000
_cell_angle_beta 90.000000
_cell_angle_gamma 90.000000
_cell_volume 5183.905739
_symmetry_space_group_name_H-M "C M M M"
_symmetry_group_IT_number 65
_symmetry_cell_setting 'orthorhombic'
loop_
_space_group_symop_operation_xyz
x,y,z
-x,-y,z
x,-y,-z
-x,y,-z
-x,-y,-z
x,y,-z
-x,y,z
x,-y,z
1/2+x,1/2+y,z
1/2-x,1/2-y,z
1/2+x,1/2-y,-z
1/2-x,1/2+y,-z
1/2-x,1/2-y,-z
1/2+x,1/2+y,-z
1/2-x,1/2+y,z
1/2+x,1/2-y,z
loop_
_atom_site_type_symbol
_atom_site_label
_atom_site_fract_x
_atom_site_fract_y
_atom_site_fract_z
Si Si1 0.105406 0.816697 0.427875
Si Si2 0.300492 0.181373 0.867532
Si Si3 0.446286 0.823323 0.925281
Si Si4 0.793947 0.833405 0.423234
Si Si5 0.198968 0.816873 0.000000
Si Si6 0.448524 0.682379 0.695953
Si Si7 0.613119 0.679970 0.184651
O O1 0.089845 0.759771 0.500000
O O2 0.156647 0.751188 0.410246
O O3 0.069711 0.756468 0.373845
O O4 0.108574 0.000000 0.428334
O O5 0.250000 0.250000 0.852090
O O6 0.337557 0.232028 0.813120
O O7 0.295812 0.000000 0.872593
O O8 0.323359 0.250195 0.934097
O O9 0.500000 0.792354 0.910737
O O10 0.416011 0.714432 0.880050
O O11 0.433852 0.000000 0.911050
O O12 0.434867 0.782085 0.000000
O O13 0.786313 0.847939 0.500000
O O14 0.750000 0.750000 0.390762
O O15 0.794848 0.000000 0.390355
O O16 0.250000 0.750000 0.000000
O O17 0.198151 0.000000 0.000000
O O18 0.500000 0.748573 0.706611
O O19 0.449607 0.500000 0.696060
O O20 0.415563 0.741795 0.753402
O O21 0.622702 0.500000 0.189044
#
# Coordination Sequence:
#
# PCOD8266855 Si02
#       7
#    16  16  16  16   8  16  16
#     4   8  14  26  46  73 104 137 176 224 277 330
#     4  11  22  38  58  81 111 147 187 231 275 325
#     4   9  19  36  56  78 105 137 178 230 282 328
#     4   8  13  22  39  65  97 131 164 201 248 303
#     4  10  18  32  54  82 113 144 179 220 270 320
#     4   9  18  32  50  74 105 141 181 226 278 335
#     4  11  22  35  53  78 110 147 185 226 275 335
#
# _framework density 20.062093000000001
#
# number of rings (size 3 to 8) (size 9 to 14) (size 15 to 20)
#    0.000    2.615    0.000    5.308    1.077    1.538 
#    0.000    3.077    0.000    3.692    0.000    0.000 
#    0.000    0.000    0.000   13.538    0.000   14.154 
#
# Total GULP energy -644479.067203 kJ/mol
# GULP energy per Si atom -12393.828215 kJ/mol
# Density = 2.001643 g / cm^3
# Si number density = 20.062093 Si / 1000 Ang^3
#
#
#
# Elastic Constant Matrix: (Units=GPa)
#
#
# Indices 1 2 3 4 5 6 
#
# 1 141.1019 37.4531 77.1361 0.0000 0.0000 0.0000
# 2 37.4531 81.2773 26.9209 0.0000 0.0000 0.0000
# 3 77.1361 26.9209 106.5602 0.0000 0.0000 0.0000
# 4 0.0000 0.0000 0.0000 10.4811 0.0000 0.0000
# 5 0.0000 0.0000 0.0000 0.0000 32.9001 0.0000
# 6 0.0000 0.0000 0.0000 0.0000 0.0000 29.1336
#
#
#
# Elastic Compliance Matrix: (Units=1/GPa)
#
#
# Indices 1 2 3 4 5 6 
#
# 1 0.012356 -0.002981 -0.008191 0.000000 0.000000 0.000000
# 2 -0.002981 0.014146 -0.001416 0.000000 0.000000 0.000000
# 3 -0.008191 -0.001416 0.015672 0.000000 0.000000 0.000000
# 4 0.000000 0.000000 0.000000 0.095410 0.000000 0.000000
# 5 0.000000 0.000000 0.000000 0.000000 0.030395 0.000000
# 6 0.000000 0.000000 0.000000 0.000000 0.000000 0.034325
#
#
# Mechanical properties :
#
#
# Convention : Reuss Voigt Hill
#
# Bulk Modulus (GPa) = 58.83173 67.99552 63.41363
# Shear Modulus (GPa) = 21.44582 26.99824 24.22203
#
# Velocity S-wave (km/s) = 3.27306 3.67240 3.47847
# Velocity P-wave (km/s) = 6.60851 7.20751 6.91450
#
# Compressibility (1/GPa) = 0.01699763
#
# Stress axis : x y z
#
# Youngs Moduli (GPa) = 80.93126 70.69063 63.80965
#
# Poissons Ratio (x) = 0.21070 0.52268
# Poissons Ratio (y) = 0.24123 0.09037
# Poissons Ratio (z) = 0.66293 0.10011
#
# Static dielectric constant tensor:
#      x y z
#    x 3.838170 0.000000 0.000000 
#    y 0.000000 3.368600 0.000000 
#    z 0.000000 0.000000 3.767580 
# 
# 
# High freq. dielectric constant tensor:
#      x y z
#    x 1.795760 0.000000 0.000000 
#    y 0.000000 1.745500 0.000000 
#    z 0.000000 0.000000 1.761670 
# 
# From -- ./inp_files/66419.got.cif
#   From: 2010.03.12/outbox.cif.g09.slc.cpg/sg65_34_cif.got.tgz:66419.got - 2010.04.10 20:52:16.
