data_PCOD8266241
_publ_section_title
;
Structure prediction by ZEFSAII (Michael W. Deem and Ramdas Pophale) SiO2 
 PCOD8266241
Probable space group: C M M M
;
_chemical_formula_sum "Si O2"
_cell_formula_units_Z 96
_cell_length_a 18.610034
_cell_length_b 26.999309
_cell_length_c 10.610849
_cell_angle_alpha 90.000000
_cell_angle_beta 90.000000
_cell_angle_gamma 90.000000
_cell_volume 5331.506587
_symmetry_space_group_name_H-M "C M M M"
_symmetry_group_IT_number 65
_symmetry_cell_setting 'orthorhombic'
loop_
_space_group_symop_operation_xyz
x,y,z
-x,-y,z
x,-y,-z
-x,y,-z
-x,-y,-z
x,y,-z
-x,y,z
x,-y,z
1/2+x,1/2+y,z
1/2-x,1/2-y,z
1/2+x,1/2-y,-z
1/2-x,1/2+y,-z
1/2-x,1/2-y,-z
1/2+x,1/2+y,-z
1/2-x,1/2+y,z
1/2+x,1/2-y,z
loop_
_atom_site_type_symbol
_atom_site_label
_atom_site_fract_x
_atom_site_fract_y
_atom_site_fract_z
Si Si1 0.084207 0.191351 0.644384
Si Si2 0.085037 0.267556 0.142299
Si Si3 0.919798 0.558548 0.500000
Si Si4 0.922142 0.624251 0.143889
Si Si5 0.420706 0.500000 0.349941
Si Si6 0.829605 0.908497 0.646213
Si Si7 0.179459 0.441143 0.271092
O O1 0.097197 0.210204 0.500000
O O2 0.112670 0.230107 0.748896
O O3 0.131313 0.142917 0.670654
O O4 0.000000 0.178571 0.662233
O O5 0.107101 0.322371 0.193064
O O6 0.000000 0.263931 0.135634
O O7 0.115845 0.255592 0.000000
O O8 0.926166 0.500000 0.500000
O O9 0.874291 0.576328 0.381045
O O10 0.000000 0.582092 0.500000
O O11 0.863208 0.580436 0.151908
O O12 0.000000 0.609811 0.206420
O O13 0.937784 0.634148 0.000000
O O14 0.500000 0.500000 0.290854
O O15 0.424977 0.500000 0.500000
O O16 0.380561 0.548562 0.300012
O O17 0.812873 0.917968 0.500000
O O18 0.754427 0.912511 0.719091
O O19 0.191508 0.500000 0.264440
#
# Coordination Sequence:
#
# PCOD8266241 Si02
#       7
#    16  16   8  16   8  16  16
#     4   9  17  30  51  80 109 134 172 223 266 308
#     4   8  15  32  56  77 100 134 173 216 267 319
#     4   9  18  30  46  68  93 126 168 206 243 301
#     4   9  19  36  56  76  98 128 173 222 261 306
#     4   9  16  26  46  72  99 136 181 215 243 298
#     4  10  18  30  47  71 107 143 171 206 261 311
#     4  11  20  32  50  71 103 139 168 207 259 312
#
# _framework density 18.006166
#
# number of rings (size 3 to 8) (size 9 to 14) (size 15 to 20)
#    0.000    2.667    1.667    2.000    0.000    3.333 
#    1.500    2.500    0.000    4.000    0.000    0.000 
#    0.000    4.000    0.000    0.000    0.000    0.000 
#
# Total GULP energy -594691.046307 kJ/mol
# GULP energy per Si atom -12389.396798 kJ/mol
# Density = 1.796518 g / cm^3
# Si number density = 18.006166 Si / 1000 Ang^3
#
#
#
# Elastic Constant Matrix: (Units=GPa)
#
#
# Indices 1 2 3 4 5 6 
#
# 1 109.8898 42.1191 25.3837 0.0000 0.0000 0.0000
# 2 42.1191 74.0312 35.5740 0.0000 0.0000 0.0000
# 3 25.3837 35.5740 53.4794 0.0000 0.0000 0.0000
# 4 0.0000 0.0000 0.0000 22.5545 0.0000 0.0000
# 5 0.0000 0.0000 0.0000 0.0000 5.5377 0.0000
# 6 0.0000 0.0000 0.0000 0.0000 0.0000 9.2040
#
#
#
# Elastic Compliance Matrix: (Units=1/GPa)
#
#
# Indices 1 2 3 4 5 6 
#
# 1 0.011737 -0.005880 -0.001659 0.000000 0.000000 0.000000
# 2 -0.005880 0.022800 -0.012375 0.000000 0.000000 0.000000
# 3 -0.001659 -0.012375 0.027718 0.000000 0.000000 0.000000
# 4 0.000000 0.000000 0.000000 0.044337 0.000000 0.000000
# 5 0.000000 0.000000 0.000000 0.000000 0.180580 0.000000
# 6 0.000000 0.000000 0.000000 0.000000 0.000000 0.108649
#
#
# Mechanical properties :
#
#
# Convention : Reuss Voigt Hill
#
# Bulk Modulus (GPa) = 44.59223 49.28377 46.93800
# Shear Modulus (GPa) = 11.28346 16.41416 13.84881
#
# Velocity S-wave (km/s) = 2.50600 3.02252 2.77630
# Velocity P-wave (km/s) = 5.76126 6.29371 6.03336
#
# Compressibility (1/GPa) = 0.02242543
#
# Stress axis : x y z
#
# Youngs Moduli (GPa) = 85.19941 43.85963 36.07716
#
# Poissons Ratio (x) = 0.25791 0.05987
# Poissons Ratio (y) = 0.50100 0.44647
# Poissons Ratio (z) = 0.14138 0.54278
#
# Static dielectric constant tensor:
#      x y z
#    x 3.237610 0.000000 0.000000 
#    y 0.000000 3.310440 0.000000 
#    z 0.000000 0.000000 3.242050 
# 
# 
# High freq. dielectric constant tensor:
#      x y z
#    x 1.688750 0.000000 0.000000 
#    y 0.000000 1.693250 0.000000 
#    z 0.000000 0.000000 1.669990 
# 
# From -- ./inp_files/27166.got.cif
#   From: 2010.03.12/outbox.cif.g09.slc.cpg/sg65_14_cif.got.tgz:27166.got - 2010.04.10 20:52:16.
