data_PCOD8266009
_publ_section_title
;
Structure prediction by ZEFSAII (Michael W. Deem and Ramdas Pophale) SiO2 
 PCOD8266009
Probable space group: C M M M
;
_chemical_formula_sum "Si O2"
_cell_formula_units_Z 88
_cell_length_a 27.358864
_cell_length_b 8.810843
_cell_length_c 19.252379
_cell_angle_alpha 90.000000
_cell_angle_beta 90.000000
_cell_angle_gamma 90.000000
_cell_volume 4640.875585
_symmetry_space_group_name_H-M "C M M M"
_symmetry_group_IT_number 65
_symmetry_cell_setting 'orthorhombic'
loop_
_space_group_symop_operation_xyz
x,y,z
-x,-y,z
x,-y,-z
-x,y,-z
-x,-y,-z
x,y,-z
-x,y,z
x,-y,z
1/2+x,1/2+y,z
1/2-x,1/2-y,z
1/2+x,1/2-y,-z
1/2-x,1/2+y,-z
1/2-x,1/2-y,-z
1/2+x,1/2+y,-z
1/2-x,1/2+y,z
1/2+x,1/2-y,z
loop_
_atom_site_type_symbol
_atom_site_label
_atom_site_fract_x
_atom_site_fract_y
_atom_site_fract_z
Si Si1 0.000000 0.680987 0.921646
Si Si2 0.200627 0.321346 0.819303
Si Si3 0.593776 0.822440 0.162943
Si Si4 0.554317 0.679001 0.294473
Si Si5 0.798812 0.180442 0.331758
Si Si6 0.111175 0.820852 0.576518
O O1 0.949875 0.744336 0.885706
O O2 0.000000 0.500000 0.920997
O O3 0.000000 0.743418 0.000000
O O4 0.209224 0.500000 0.813031
O O5 0.250000 0.250000 0.854417
O O6 0.149914 0.287644 0.862681
O O7 0.192800 0.251977 0.743593
O O8 0.590480 0.755097 0.239983
O O9 0.585506 0.000000 0.168242
O O10 0.500000 0.734071 0.277347
O O11 0.560857 0.500000 0.286852
O O12 0.566650 0.728942 0.373354
O O13 0.750000 0.250000 0.364763
O O14 0.839953 0.233758 0.385381
O O15 0.796365 0.000000 0.323712
O O16 0.105921 0.745094 0.500000
O O17 0.111899 0.000000 0.567478
#
# Coordination Sequence:
#
# PCOD8266009 Si02
#       6
#     8  16  16  16  16  16
#     4   9  18  34  57  85 112 137 166 202 245 295
#     4  10  19  30  48  75 103 132 169 210 254 299
#     4  10  19  32  54  80 105 135 169 208 251 296
#     4  10  19  31  50  74  97 128 169 209 254 305
#     4  10  18  29  46  66  92 125 162 208 258 302
#     4   9  18  31  45  64  93 128 167 211 256 301
#
# _framework density 18.961939999999998
#
# number of rings (size 3 to 8) (size 9 to 14) (size 15 to 20)
#    0.000    2.273    2.727    2.182    0.000    1.455 
#    0.000    1.818    0.000    6.000    0.000    1.273 
#    0.000    0.000    0.000    0.000    0.000    0.727 
#
# Total GULP energy -545101.202728 kJ/mol
# GULP energy per Si atom -12388.663698 kJ/mol
# Density = 1.891878 g / cm^3
# Si number density = 18.961940 Si / 1000 Ang^3
#
#
#
# Elastic Constant Matrix: (Units=GPa)
#
#
# Indices 1 2 3 4 5 6 
#
# 1 160.1966 35.7866 46.3495 0.0000 0.0000 0.0000
# 2 35.7866 41.2951 10.0465 0.0000 0.0000 0.0000
# 3 46.3495 10.0465 71.1734 0.0000 0.0000 0.0000
# 4 0.0000 0.0000 0.0000 12.5382 0.0000 0.0000
# 5 0.0000 0.0000 0.0000 0.0000 19.2692 0.0000
# 6 0.0000 0.0000 0.0000 0.0000 0.0000 19.4054
#
#
#
# Elastic Compliance Matrix: (Units=1/GPa)
#
#
# Indices 1 2 3 4 5 6 
#
# 1 0.009211 -0.006755 -0.005045 0.000000 0.000000 0.000000
# 2 -0.006755 0.030031 0.000160 0.000000 0.000000 0.000000
# 3 -0.005045 0.000160 0.017313 0.000000 0.000000 0.000000
# 4 0.000000 0.000000 0.000000 0.079756 0.000000 0.000000
# 5 0.000000 0.000000 0.000000 0.000000 0.051896 0.000000
# 6 0.000000 0.000000 0.000000 0.000000 0.000000 0.051532
#
#
# Mechanical properties :
#
#
# Convention : Reuss Voigt Hill
#
# Bulk Modulus (GPa) = 30.05255 50.78115 40.41685
# Shear Modulus (GPa) = 18.24079 22.27472 20.25775
#
# Velocity S-wave (km/s) = 3.10493 3.43112 3.27209
# Velocity P-wave (km/s) = 5.36073 6.52192 5.96962
#
# Compressibility (1/GPa) = 0.03327505
#
# Stress axis : x y z
#
# Youngs Moduli (GPa) = 108.56646 33.29906 57.76031
#
# Poissons Ratio (x) = 0.22493 0.29139
# Poissons Ratio (y) = 0.73336 -0.00924
# Poissons Ratio (z) = 0.54770 -0.00533
#
# Static dielectric constant tensor:
#      x y z
#    x 4.086200 0.000000 0.000000 
#    y 0.000000 3.187060 0.000000 
#    z 0.000000 0.000000 3.369750 
# 
# 
# High freq. dielectric constant tensor:
#      x y z
#    x 1.762880 0.000000 0.000000 
#    y 0.000000 1.707920 0.000000 
#    z 0.000000 0.000000 1.700160 
# 
# From -- ./inp_files/57973.got.cif
#   From: 2010.03.12/outbox.cif.g09.slc.cpg/sg65_29_cif.got.tgz:57973.got - 2010.04.10 20:52:16.
