data_PCOD8266807
_publ_section_title
;
Structure prediction by ZEFSAII (Michael W. Deem and Ramdas Pophale) SiO2 
 PCOD8266807
Probable space group: C M M M
;
_chemical_formula_sum "Si O2"
_cell_formula_units_Z 64
_cell_length_a 8.748883
_cell_length_b 19.038793
_cell_length_c 20.264780
_cell_angle_alpha 90.000000
_cell_angle_beta 90.000000
_cell_angle_gamma 90.000000
_cell_volume 3375.467369
_symmetry_space_group_name_H-M "C M M M"
_symmetry_group_IT_number 65
_symmetry_cell_setting 'orthorhombic'
loop_
_space_group_symop_operation_xyz
x,y,z
-x,-y,z
x,-y,-z
-x,y,-z
-x,-y,-z
x,y,-z
-x,y,z
x,-y,z
1/2+x,1/2+y,z
1/2-x,1/2-y,z
1/2+x,1/2-y,-z
1/2-x,1/2+y,-z
1/2-x,1/2-y,-z
1/2+x,1/2+y,-z
1/2-x,1/2+y,z
1/2+x,1/2-y,z
loop_
_atom_site_type_symbol
_atom_site_label
_atom_site_fract_x
_atom_site_fract_y
_atom_site_fract_z
Si Si1 0.322634 0.919855 0.390474
Si Si2 0.681725 0.172299 0.000000
Si Si3 0.179042 0.826063 0.131792
Si Si4 0.678363 0.326283 0.500000
Si Si5 0.325691 0.081593 0.238812
O O1 0.500000 0.910125 0.407831
O O2 0.224651 0.868083 0.434691
O O3 0.290749 0.900452 0.314673
O O4 0.273228 0.000000 0.404777
O O5 0.750000 0.250000 0.000000
O O6 0.744969 0.136721 0.067099
O O7 0.500000 0.171649 0.000000
O O8 0.250000 0.750000 0.145320
O O9 0.209513 0.874517 0.194619
O O10 0.000000 0.817690 0.119926
O O11 0.500000 0.315891 0.500000
O O12 0.750000 0.250000 0.500000
O O13 0.500000 0.101973 0.221448
O O14 0.297461 0.000000 0.225092
#
# Coordination Sequence:
#
# PCOD8266807 Si02
#       5
#    16   8  16   8  16
#     4   9  19  38  62  83 107 142 180 218 265 324
#     4  10  18  32  53  76 105 140 181 225 269 321
#     4  11  21  34  54  80 110 143 181 224 270 320
#     4  12  25  38  55  81 113 145 179 224 271 316
#     4   9  19  37  59  82 109 142 179 219 267 322
#
# _framework density 18.960336999999999
#
# number of rings (size 3 to 8) (size 9 to 14) (size 15 to 20)
#    0.000    2.000    0.000    7.875    0.000    4.500 
#    0.000    3.125    0.000    3.750    0.000    0.000 
#    0.000    0.000    0.000    0.000    0.000    0.000 
#
# Total GULP energy -396823.173833 kJ/mol
# GULP energy per Si atom -12400.724182 kJ/mol
# Density = 1.891718 g / cm^3
# Si number density = 18.960337 Si / 1000 Ang^3
#
#
#
# Elastic Constant Matrix: (Units=GPa)
#
#
# Indices 1 2 3 4 5 6 
#
# 1 151.0771 54.4667 66.6127 0.0000 0.0000 0.0000
# 2 54.4667 83.6974 65.1889 0.0000 0.0000 0.0000
# 3 66.6127 65.1889 127.1452 0.0000 0.0000 0.0000
# 4 0.0000 0.0000 0.0000 39.0424 0.0000 0.0000
# 5 0.0000 0.0000 0.0000 0.0000 38.2103 0.0000
# 6 0.0000 0.0000 0.0000 0.0000 0.0000 30.3351
#
#
#
# Elastic Compliance Matrix: (Units=1/GPa)
#
#
# Indices 1 2 3 4 5 6 
#
# 1 0.009262 -0.003742 -0.002934 0.000000 0.000000 0.000000
# 2 -0.003742 0.021403 -0.009013 0.000000 0.000000 0.000000
# 3 -0.002934 -0.009013 0.014023 0.000000 0.000000 0.000000
# 4 0.000000 0.000000 0.000000 0.025613 0.000000 0.000000
# 5 0.000000 0.000000 0.000000 0.000000 0.026171 0.000000
# 6 0.000000 0.000000 0.000000 0.000000 0.000000 0.032965
#
#
# Mechanical properties :
#
#
# Convention : Reuss Voigt Hill
#
# Bulk Modulus (GPa) = 75.13103 81.60627 78.36865
# Shear Modulus (GPa) = 30.25692 33.22766 31.74229
#
# Velocity S-wave (km/s) = 3.99908 4.19081 4.09607
# Velocity P-wave (km/s) = 7.81249 8.15789 7.98705
#
# Compressibility (1/GPa) = 0.01331008
#
# Stress axis : x y z
#
# Youngs Moduli (GPa) = 107.97022 46.72250 71.31130
#
# Poissons Ratio (x) = 0.17485 0.20920
# Poissons Ratio (y) = 0.40406 0.64272
# Poissons Ratio (z) = 0.31675 0.42111
#
# Static dielectric constant tensor:
#      x y z
#    x 3.407470 0.000000 0.000000 
#    y 0.000000 3.243520 0.000000 
#    z 0.000000 0.000000 3.872250 
# 
# 
# High freq. dielectric constant tensor:
#      x y z
#    x 1.739190 0.000000 0.000000 
#    y 0.000000 1.715490 0.000000 
#    z 0.000000 0.000000 1.755200 
# 
# From -- ./inp_files/58897.got.cif
#   From: 2010.03.12/outbox.cif.g09.slc.cpg/sg65_30_cif.got.tgz:58897.got - 2010.04.10 20:52:16.
