data_PCOD8266565
_publ_section_title
;
Structure prediction by ZEFSAII (Michael W. Deem and Ramdas Pophale) SiO2 
 PCOD8266565
Probable space group: C M M M
;
_chemical_formula_sum "Si O2"
_cell_formula_units_Z 104
_cell_length_a 18.474586
_cell_length_b 19.141957
_cell_length_c 17.904619
_cell_angle_alpha 90.000000
_cell_angle_beta 90.000000
_cell_angle_gamma 90.000000
_cell_volume 6331.784643
_symmetry_space_group_name_H-M "C M M M"
_symmetry_group_IT_number 65
_symmetry_cell_setting 'orthorhombic'
loop_
_space_group_symop_operation_xyz
x,y,z
-x,-y,z
x,-y,-z
-x,y,-z
-x,-y,-z
x,y,-z
-x,y,z
x,-y,z
1/2+x,1/2+y,z
1/2-x,1/2-y,z
1/2+x,1/2-y,-z
1/2-x,1/2+y,-z
1/2-x,1/2-y,-z
1/2+x,1/2+y,-z
1/2-x,1/2+y,z
1/2+x,1/2-y,z
loop_
_atom_site_type_symbol
_atom_site_label
_atom_site_fract_x
_atom_site_fract_y
_atom_site_fract_z
Si Si1 0.078029 0.500000 0.587566
Si Si2 0.294563 0.922377 0.811964
Si Si3 0.290549 0.678614 0.086478
Si Si4 0.081969 0.244654 0.151018
Si Si5 0.677159 0.794028 0.714041
Si Si6 0.418937 0.894328 0.915666
Si Si7 0.585960 0.151746 0.413577
O O1 0.064371 0.500000 0.500000
O O2 0.115991 0.426507 0.608107
O O3 0.000000 0.500000 0.627967
O O4 0.238376 0.887886 0.869203
O O5 0.303421 0.872627 0.740283
O O6 0.369974 0.933404 0.855571
O O7 0.268356 0.000000 0.786891
O O8 0.250000 0.750000 0.113899
O O9 0.375718 0.684887 0.104915
O O10 0.276078 0.665239 0.000000
O O11 0.123327 0.256925 0.228384
O O12 0.084151 0.311854 0.098253
O O13 0.000000 0.220340 0.167275
O O14 0.750000 0.750000 0.702484
O O15 0.633153 0.795746 0.636214
O O16 0.500000 0.922858 0.905285
O O17 0.391632 0.908672 0.000000
O O18 0.600866 0.169436 0.500000
O O19 0.500000 0.157896 0.396400
#
# Coordination Sequence:
#
# PCOD8266565 Si02
#       7
#     8  16  16  16  16  16  16
#     4   7  12  26  46  70 104 138 160 180 215 270
#     4  11  22  34  47  68  98 134 168 204 248 297
#     4  11  19  33  52  70  95 128 165 208 253 298
#     4  10  18  31  50  72  94 123 163 205 250 298
#     4  11  20  35  52  73 101 131 164 205 251 293
#     4   9  17  29  45  67  95 125 159 197 237 287
#     4   9  18  32  51  77 107 137 167 196 231 284
#
# _framework density 16.425069000000001
#
# number of rings (size 3 to 8) (size 9 to 14) (size 15 to 20)
#    0.000    2.077    4.615    2.308    1.077    3.385 
#    0.000    0.769    0.000    0.462    0.000    1.077 
#    0.000    0.000    0.000    1.692    0.000    0.000 
#
# Total GULP energy -644409.060183 kJ/mol
# GULP energy per Si atom -12392.481927 kJ/mol
# Density = 1.638768 g / cm^3
# Si number density = 16.425069 Si / 1000 Ang^3
#
#
#
# Elastic Constant Matrix: (Units=GPa)
#
#
# Indices 1 2 3 4 5 6 
#
# 1 96.7566 38.8974 35.0545 0.0000 0.0000 0.0000
# 2 38.8974 64.1686 27.7143 0.0000 0.0000 0.0000
# 3 35.0545 27.7143 73.0897 0.0000 0.0000 0.0000
# 4 0.0000 0.0000 0.0000 12.4516 0.0000 0.0000
# 5 0.0000 0.0000 0.0000 0.0000 28.0227 0.0000
# 6 0.0000 0.0000 0.0000 0.0000 0.0000 10.7725
#
#
#
# Elastic Compliance Matrix: (Units=1/GPa)
#
#
# Indices 1 2 3 4 5 6 
#
# 1 0.014765 -0.007046 -0.004410 0.000000 0.000000 0.000000
# 2 -0.007046 0.021998 -0.004962 0.000000 0.000000 0.000000
# 3 -0.004410 -0.004962 0.017678 0.000000 0.000000 0.000000
# 4 0.000000 0.000000 0.000000 0.080311 0.000000 0.000000
# 5 0.000000 0.000000 0.000000 0.000000 0.035685 0.000000
# 6 0.000000 0.000000 0.000000 0.000000 0.000000 0.092829
#
#
# Mechanical properties :
#
#
# Convention : Reuss Voigt Hill
#
# Bulk Modulus (GPa) = 46.28295 48.59416 47.43855
# Shear Modulus (GPa) = 16.48506 19.07259 17.77883
#
# Velocity S-wave (km/s) = 3.17148 3.41132 3.29358
# Velocity P-wave (km/s) = 6.45372 6.72054 6.58848
#
# Compressibility (1/GPa) = 0.02160623
#
# Stress axis : x y z
#
# Youngs Moduli (GPa) = 67.72570 45.45863 56.56616
#
# Poissons Ratio (x) = 0.32029 0.24946
# Poissons Ratio (y) = 0.47718 0.28068
# Poissons Ratio (z) = 0.29867 0.22557
#
# Static dielectric constant tensor:
#      x y z
#    x 3.190010 0.000000 0.000000 
#    y 0.000000 2.938800 0.000000 
#    z 0.000000 0.000000 2.970950 
# 
# 
# High freq. dielectric constant tensor:
#      x y z
#    x 1.619440 0.000000 0.000000 
#    y 0.000000 1.603030 0.000000 
#    z 0.000000 0.000000 1.625980 
# 
# From -- ./inp_files/54846.got.cif
#   From: 2010.03.12/outbox.cif.g09.slc.cpg/sg65_28_cif.got.tgz:54846.got - 2010.04.10 20:52:16.
