data_PCOD8266789
_publ_section_title
;
Structure prediction by ZEFSAII (Michael W. Deem and Ramdas Pophale) SiO2 
 PCOD8266789
Probable space group: C M M M
;
_chemical_formula_sum "Si O2"
_cell_formula_units_Z 72
_cell_length_a 8.788545
_cell_length_b 18.524006
_cell_length_c 23.497802
_cell_angle_alpha 90.000000
_cell_angle_beta 90.000000
_cell_angle_gamma 90.000000
_cell_volume 3825.420085
_symmetry_space_group_name_H-M "C M M M"
_symmetry_group_IT_number 65
_symmetry_cell_setting 'orthorhombic'
loop_
_space_group_symop_operation_xyz
x,y,z
-x,-y,z
x,-y,-z
-x,y,-z
-x,-y,-z
x,y,-z
-x,y,z
x,-y,z
1/2+x,1/2+y,z
1/2-x,1/2-y,z
1/2+x,1/2-y,-z
1/2-x,1/2+y,-z
1/2-x,1/2-y,-z
1/2+x,1/2+y,-z
1/2-x,1/2+y,z
1/2+x,1/2-y,z
loop_
_atom_site_type_symbol
_atom_site_label
_atom_site_fract_x
_atom_site_fract_y
_atom_site_fract_z
Si Si1 0.326582 0.414693 0.212461
Si Si2 0.179603 0.328501 0.886163
Si Si3 0.669394 0.914114 0.673508
Si Si4 0.318427 0.670265 0.000000
Si Si5 0.671332 0.585854 0.437786
O O1 0.500000 0.390289 0.201985
O O2 0.307880 0.500000 0.206903
O O3 0.215468 0.378975 0.166957
O O4 0.276972 0.388069 0.275109
O O5 0.250000 0.250000 0.875102
O O6 0.254454 0.366285 0.942308
O O7 0.000000 0.321226 0.894778
O O8 0.500000 0.884486 0.684222
O O9 0.728504 0.881553 0.613532
O O10 0.669735 0.000000 0.670370
O O11 0.250000 0.750000 0.000000
O O12 0.500000 0.669648 0.000000
O O13 0.735218 0.610177 0.500000
O O14 0.500000 0.614474 0.430313
O O15 0.672160 0.500000 0.434314
#
# Coordination Sequence:
#
# PCOD8266789 Si02
#       5
#    16  16  16   8  16
#     4  10  20  34  51  71  98 132 167 202 244 293
#     4  11  21  35  55  78 103 129 162 201 242 287
#     4   9  16  25  38  58  85 118 155 194 238 287
#     4  10  18  32  53  76 101 128 161 197 239 287
#     4   8  13  21  33  50  75 110 151 192 234 281
#
# _framework density 18.821463000000001
#
# number of rings (size 3 to 8) (size 9 to 14) (size 15 to 20)
#    0.000    2.444    0.000    6.333    0.000    4.444 
#    0.000    2.778    0.000    3.333    0.000    0.000 
#    0.000    0.889    0.000    3.333    0.000    7.778 
#
# Total GULP energy -446225.077106 kJ/mol
# GULP energy per Si atom -12395.141031 kJ/mol
# Density = 1.877862 g / cm^3
# Si number density = 18.821463 Si / 1000 Ang^3
#
#
#
# Elastic Constant Matrix: (Units=GPa)
#
#
# Indices 1 2 3 4 5 6 
#
# 1 144.3809 19.8355 62.2873 0.0000 0.0000 0.0000
# 2 19.8355 15.2401 24.3509 0.0000 0.0000 0.0000
# 3 62.2873 24.3509 163.8171 0.0000 0.0000 0.0000
# 4 0.0000 0.0000 0.0000 -10.0996 0.0000 0.0000
# 5 0.0000 0.0000 0.0000 0.0000 39.2449 0.0000
# 6 0.0000 0.0000 0.0000 0.0000 0.0000 16.8683
#
#
#
# Elastic Compliance Matrix: (Units=1/GPa)
#
#
# Indices 1 2 3 4 5 6 
#
# 1 0.009003 -0.008195 -0.002205 0.000000 0.000000 0.000000
# 2 -0.008195 0.093514 -0.010785 0.000000 0.000000 0.000000
# 3 -0.002205 -0.010785 0.008546 0.000000 0.000000 0.000000
# 4 0.000000 0.000000 0.000000 -0.099014 0.000000 0.000000
# 5 0.000000 0.000000 0.000000 0.000000 0.025481 0.000000
# 6 0.000000 0.000000 0.000000 0.000000 0.000000 0.059283
#
#
# Mechanical properties :
#
#
# Convention : Reuss Voigt Hill
#
# Bulk Modulus (GPa) = 14.55730 59.59839 37.07785
# Shear Modulus (GPa) = 30.84895 23.66700 27.25798
#
# Velocity S-wave (km/s) = 4.05289 3.54990 3.80970
# Velocity P-wave (km/s) = 5.44540 6.96679 6.25254
#
# Compressibility (1/GPa) = 0.06869406
#
# Stress axis : x y z
#
# Youngs Moduli (GPa) = 111.07100 10.69360 117.01455
#
# Poissons Ratio (x) = 0.08763 0.25804
# Poissons Ratio (y) = 0.91018 1.26197
# Poissons Ratio (z) = 0.24493 0.11533
#
# Static dielectric constant tensor:
#      x y z
#    x 3.604360 0.000000 0.000000 
#    y 0.000000 2.730740 0.000000 
#    z 0.000000 0.000000 4.100620 
# 
# 
# High freq. dielectric constant tensor:
#      x y z
#    x 1.743610 0.000000 0.000000 
#    y 0.000000 1.649110 0.000000 
#    z 0.000000 0.000000 1.758130 
# 
# From -- ./inp_files/59304.got.cif
#   From: 2010.03.12/outbox.cif.g09.slc.cpg/sg65_30_cif.got.tgz:59304.got - 2010.04.10 20:52:16.
