data_PCOD8266458
_publ_section_title
;
Structure prediction by ZEFSAII (Michael W. Deem and Ramdas Pophale) SiO2 
 PCOD8266458
Probable space group: C M M M
;
_chemical_formula_sum "Si O2"
_cell_formula_units_Z 104
_cell_length_a 28.814132
_cell_length_b 9.028682
_cell_length_c 22.808896
_cell_angle_alpha 90.000000
_cell_angle_beta 90.000000
_cell_angle_gamma 90.000000
_cell_volume 5933.817203
_symmetry_space_group_name_H-M "C M M M"
_symmetry_group_IT_number 65
_symmetry_cell_setting 'orthorhombic'
loop_
_space_group_symop_operation_xyz
x,y,z
-x,-y,z
x,-y,-z
-x,y,-z
-x,-y,-z
x,y,-z
-x,y,z
x,-y,z
1/2+x,1/2+y,z
1/2-x,1/2-y,z
1/2+x,1/2-y,-z
1/2-x,1/2+y,-z
1/2-x,1/2-y,-z
1/2+x,1/2+y,-z
1/2-x,1/2+y,z
1/2+x,1/2-y,z
loop_
_atom_site_type_symbol
_atom_site_label
_atom_site_fract_x
_atom_site_fract_y
_atom_site_fract_z
Si Si1 0.448047 0.675832 0.500000
Si Si2 0.387212 0.673935 0.932485
Si Si3 0.054812 0.666598 0.160555
Si Si4 0.202190 0.674008 0.568004
Si Si5 0.887996 0.174709 0.609328
Si Si6 0.794683 0.333775 0.930240
Si Si7 0.553336 0.327558 0.277276
O O1 0.451331 0.500000 0.500000
O O2 0.500000 0.743401 0.500000
O O3 0.420844 0.732183 0.557074
O O4 0.382985 0.500000 0.923735
O O5 0.429052 0.737510 0.894631
O O6 0.339972 0.746882 0.908984
O O7 0.396745 0.715620 0.000000
O O8 0.074454 0.500000 0.155947
O O9 0.071996 0.737812 0.221315
O O10 0.000000 0.668220 0.158676
O O11 0.192132 0.710376 0.500000
O O12 0.206126 0.500000 0.579465
O O13 0.250000 0.750000 0.588137
O O14 0.160919 0.741150 0.607004
O O15 0.913900 0.217373 0.669055
O O16 0.878790 0.000000 0.604125
O O17 0.795898 0.500000 0.905035
O O18 0.750000 0.250000 0.904148
O O19 0.792118 0.335832 0.000000
O O20 0.500000 0.287130 0.292892
O O21 0.557561 0.500000 0.262397
#
# Coordination Sequence:
#
# PCOD8266458 Si02
#       7
#     8  16  16  16  16  16  16
#     4   9  16  26  44  73 106 135 164 201 244 291
#     4  10  20  33  51  76 104 133 167 210 260 310
#     4  10  21  36  53  73  99 134 174 214 257 306
#     4  10  20  33  50  72 101 135 173 214 257 305
#     4  10  18  30  51  77 104 134 169 209 253 298
#     4   9  16  27  45  70 101 134 166 200 240 291
#     4   9  18  33  53  76 101 133 173 211 248 299
#
# _framework density 17.526661000000001
#
# number of rings (size 3 to 8) (size 9 to 14) (size 15 to 20)
#    0.000    2.385    0.769    2.308    0.000    7.077 
#    0.000    1.538    0.000    2.769    0.000    2.154 
#    0.000    0.000    0.000    0.000    0.000    0.000 
#
# Total GULP energy -644900.168472 kJ/mol
# GULP energy per Si atom -12401.926317 kJ/mol
# Density = 1.748677 g / cm^3
# Si number density = 17.526661 Si / 1000 Ang^3
#
#
#
# Elastic Constant Matrix: (Units=GPa)
#
#
# Indices 1 2 3 4 5 6 
#
# 1 97.5362 46.7170 53.2180 0.0000 0.0000 0.0000
# 2 46.7170 93.9702 51.3933 0.0000 0.0000 0.0000
# 3 53.2180 51.3933 92.1766 0.0000 0.0000 0.0000
# 4 0.0000 0.0000 0.0000 22.1313 0.0000 0.0000
# 5 0.0000 0.0000 0.0000 0.0000 14.7972 0.0000
# 6 0.0000 0.0000 0.0000 0.0000 0.0000 32.9205
#
#
#
# Elastic Compliance Matrix: (Units=1/GPa)
#
#
# Indices 1 2 3 4 5 6 
#
# 1 0.016035 -0.004185 -0.006925 0.000000 0.000000 0.000000
# 2 -0.004185 0.016402 -0.006729 0.000000 0.000000 0.000000
# 3 -0.006925 -0.006729 0.018599 0.000000 0.000000 0.000000
# 4 0.000000 0.000000 0.000000 0.045185 0.000000 0.000000
# 5 0.000000 0.000000 0.000000 0.000000 0.067580 0.000000
# 6 0.000000 0.000000 0.000000 0.000000 0.000000 0.030376
#
#
# Mechanical properties :
#
#
# Convention : Reuss Voigt Hill
#
# Bulk Modulus (GPa) = 65.10831 65.14886 65.12859
# Shear Modulus (GPa) = 21.27894 22.79346 22.03620
#
# Velocity S-wave (km/s) = 3.48816 3.61016 3.54968
# Velocity P-wave (km/s) = 7.31107 7.39119 7.35124
#
# Compressibility (1/GPa) = 0.01535902
#
# Stress axis : x y z
#
# Youngs Moduli (GPa) = 62.36266 60.96703 53.76753
#
# Poissons Ratio (x) = 0.25513 0.37233
# Poissons Ratio (y) = 0.26097 0.36181
# Poissons Ratio (z) = 0.43185 0.41026
#
# Static dielectric constant tensor:
#      x y z
#    x 3.273620 0.000000 0.000000 
#    y 0.000000 3.303300 0.000000 
#    z 0.000000 0.000000 3.043790 
# 
# 
# High freq. dielectric constant tensor:
#      x y z
#    x 1.679850 0.000000 0.000000 
#    y 0.000000 1.679550 0.000000 
#    z 0.000000 0.000000 1.649160 
# 
# From -- ./inp_files/71786.got.cif
#   From: 2010.03.12/outbox.cif.g09.slc.cpg/sg65_36_cif.got.tgz:71786.got - 2010.04.10 20:52:16.
