data_PCOD8266493
_publ_section_title
;
Structure prediction by ZEFSAII (Michael W. Deem and Ramdas Pophale) SiO2 
 PCOD8266493
Probable space group: C M M M
;
_chemical_formula_sum "Si O2"
_cell_formula_units_Z 96
_cell_length_a 9.188954
_cell_length_b 28.854309
_cell_length_c 20.514161
_cell_angle_alpha 90.000000
_cell_angle_beta 90.000000
_cell_angle_gamma 90.000000
_cell_volume 5439.143482
_symmetry_space_group_name_H-M "C M M M"
_symmetry_group_IT_number 65
_symmetry_cell_setting 'orthorhombic'
loop_
_space_group_symop_operation_xyz
x,y,z
-x,-y,z
x,-y,-z
-x,y,-z
-x,-y,-z
x,y,-z
-x,y,z
x,-y,z
1/2+x,1/2+y,z
1/2-x,1/2-y,z
1/2+x,1/2-y,-z
1/2-x,1/2+y,-z
1/2-x,1/2-y,-z
1/2+x,1/2+y,-z
1/2-x,1/2+y,z
1/2+x,1/2-y,z
loop_
_atom_site_type_symbol
_atom_site_label
_atom_site_fract_x
_atom_site_fract_y
_atom_site_fract_z
Si Si1 0.170039 0.053127 0.684133
Si Si2 0.672849 0.387164 0.808896
Si Si3 0.169635 0.704046 0.225344
Si Si4 0.669671 0.106681 0.574381
Si Si5 0.172548 0.051657 0.072163
Si Si6 0.167363 0.295090 0.621796
O O1 0.220039 0.083328 0.745849
O O2 0.249970 0.069762 0.619225
O O3 0.000000 0.058801 0.671672
O O4 0.211917 0.000000 0.698270
O O5 0.500000 0.378719 0.809950
O O6 0.756195 0.338816 0.810618
O O7 0.731210 0.413844 0.872756
O O8 0.250000 0.750000 0.199844
O O9 0.195142 0.698074 0.301951
O O10 0.000000 0.706800 0.207433
O O11 0.699684 0.092531 0.500000
O O12 0.500000 0.105075 0.592079
O O13 0.727985 0.158904 0.586535
O O14 0.000000 0.049531 0.076927
O O15 0.234755 0.000000 0.084798
O O16 0.220440 0.068955 0.000000
O O17 0.250000 0.250000 0.594778
O O18 0.000000 0.287026 0.604949
#
# Coordination Sequence:
#
# PCOD8266493 Si02
#       6
#    16  16  16  16  16  16
#     4  10  21  35  51  73 100 129 165 209 251 293
#     4  10  18  30  52  79 105 133 167 206 249 294
#     4  10  19  32  51  75 103 132 165 206 252 299
#     4  10  21  37  53  70  96 130 167 207 252 302
#     4   8  14  26  47  77 110 140 170 205 246 294
#     4   9  18  32  50  72  97 124 157 199 247 298
#
# _framework density 17.649837000000002
#
# number of rings (size 3 to 8) (size 9 to 14) (size 15 to 20)
#    0.000    2.500    1.667    1.500    0.000    4.667 
#    0.000    1.667    0.000    2.500    0.000    1.167 
#    0.000    0.000    0.000    0.000    0.000    0.000 
#
# Total GULP energy -595208.146095 kJ/mol
# GULP energy per Si atom -12400.169710 kJ/mol
# Density = 1.760967 g / cm^3
# Si number density = 17.649837 Si / 1000 Ang^3
#
#
#
# Elastic Constant Matrix: (Units=GPa)
#
#
# Indices 1 2 3 4 5 6 
#
# 1 47.6739 49.3432 36.4280 0.0000 0.0000 0.0000
# 2 49.3432 139.3196 66.9717 0.0000 0.0000 0.0000
# 3 36.4280 66.9717 101.5218 0.0000 0.0000 0.0000
# 4 0.0000 0.0000 0.0000 31.2206 0.0000 0.0000
# 5 0.0000 0.0000 0.0000 0.0000 13.9570 0.0000
# 6 0.0000 0.0000 0.0000 0.0000 0.0000 31.8011
#
#
#
# Elastic Compliance Matrix: (Units=1/GPa)
#
#
# Indices 1 2 3 4 5 6 
#
# 1 0.035883 -0.009547 -0.006578 0.000000 0.000000 0.000000
# 2 -0.009547 0.013051 -0.005184 0.000000 0.000000 0.000000
# 3 -0.006578 -0.005184 0.015630 0.000000 0.000000 0.000000
# 4 0.000000 0.000000 0.000000 0.032030 0.000000 0.000000
# 5 0.000000 0.000000 0.000000 0.000000 0.071649 0.000000
# 6 0.000000 0.000000 0.000000 0.000000 0.000000 0.031445
#
#
# Mechanical properties :
#
#
# Convention : Reuss Voigt Hill
#
# Bulk Modulus (GPa) = 45.56387 66.00012 55.78200
# Shear Modulus (GPa) = 20.03040 24.44723 22.23882
#
# Velocity S-wave (km/s) = 3.37245 3.72576 3.55350
# Velocity P-wave (km/s) = 6.40594 7.48223 6.96491
#
# Compressibility (1/GPa) = 0.02194721
#
# Stress axis : x y z
#
# Youngs Moduli (GPa) = 27.86826 76.62346 63.97995
#
# Poissons Ratio (x) = 0.73152 0.42084
# Poissons Ratio (y) = 0.26606 0.33165
# Poissons Ratio (z) = 0.18331 0.39720
#
# Static dielectric constant tensor:
#      x y z
#    x 3.058140 0.000000 0.000000 
#    y 0.000000 3.392160 0.000000 
#    z 0.000000 0.000000 3.271110 
# 
# 
# High freq. dielectric constant tensor:
#      x y z
#    x 1.659520 0.000000 0.000000 
#    y 0.000000 1.690050 0.000000 
#    z 0.000000 0.000000 1.669130 
# 
# From -- ./inp_files/60167.got.cif
#   From: 2010.03.12/outbox.cif.g09.slc.cpg/sg65_31_cif.got.tgz:60167.got - 2010.04.10 20:52:16.
