data_PCOD8266304
_publ_section_title
;
Structure prediction by ZEFSAII (Michael W. Deem and Ramdas Pophale) SiO2 
 PCOD8266304
Probable space group: C M M M
;
_chemical_formula_sum "Si O2"
_cell_formula_units_Z 80
_cell_length_a 16.555198
_cell_length_b 23.706662
_cell_length_c 12.625597
_cell_angle_alpha 90.000000
_cell_angle_beta 90.000000
_cell_angle_gamma 90.000000
_cell_volume 4955.148906
_symmetry_space_group_name_H-M "C M M M"
_symmetry_group_IT_number 65
_symmetry_cell_setting 'orthorhombic'
loop_
_space_group_symop_operation_xyz
x,y,z
-x,-y,z
x,-y,-z
-x,y,-z
-x,-y,-z
x,y,-z
-x,y,z
x,-y,z
1/2+x,1/2+y,z
1/2-x,1/2-y,z
1/2+x,1/2-y,-z
1/2-x,1/2+y,-z
1/2-x,1/2-y,-z
1/2+x,1/2+y,-z
1/2-x,1/2+y,z
1/2+x,1/2-y,z
loop_
_atom_site_type_symbol
_atom_site_label
_atom_site_fract_x
_atom_site_fract_y
_atom_site_fract_z
Si Si1 0.148066 0.361129 0.374881
Si Si2 0.592975 0.736324 0.623822
Si Si3 0.592957 0.433422 0.500000
Si Si4 0.325190 0.372505 0.305120
Si Si5 0.407303 0.434984 0.878037
Si Si6 0.500000 0.936477 0.625883
O O1 0.162970 0.366281 0.500000
O O2 0.120336 0.298583 0.344264
O O3 0.229123 0.376827 0.313672
O O4 0.079825 0.404330 0.334260
O O5 0.606755 0.725228 0.500000
O O6 0.500000 0.727926 0.654992
O O7 0.647563 0.692398 0.687662
O O8 0.603227 0.500000 0.500000
O O9 0.500000 0.414564 0.500000
O O10 0.633505 0.409557 0.604647
O O11 0.349230 0.395959 0.190889
O O12 0.500000 0.423731 0.845803
O O13 0.385578 0.500000 0.857212
O O14 0.392989 0.419175 0.000000
O O15 0.500000 0.936257 0.500000
O O16 0.500000 0.000000 0.671240
#
# Coordination Sequence:
#
# PCOD8266304 Si02
#       6
#    16  16   8  16  16   8
#     4  10  19  33  46  71 104 138 171 211 249 300
#     4  10  18  30  49  69 102 140 176 202 246 305
#     4  11  22  32  41  67 111 137 150 189 254 317
#     4  12  20  30  50  77 100 131 170 209 254 304
#     4   9  19  36  54  71  97 134 174 212 249 298
#     4   9  18  32  48  64  95 143 181 210 246 289
#
# _framework density 16.144824
#
# number of rings (size 3 to 8) (size 9 to 14) (size 15 to 20)
#    0.000    1.800    3.000    3.600    0.000    4.800 
#    0.000    0.000    0.000    2.400    0.000    0.700 
#    0.000    2.400    0.000    0.000    0.000    0.000 
#
# Total GULP energy -496135.000494 kJ/mol
# GULP energy per Si atom -12403.375012 kJ/mol
# Density = 1.610808 g / cm^3
# Si number density = 16.144824 Si / 1000 Ang^3
#
#
#
# Elastic Constant Matrix: (Units=GPa)
#
#
# Indices 1 2 3 4 5 6 
#
# 1 140.9125 73.0296 38.8138 0.0000 0.0000 0.0000
# 2 73.0296 114.6033 40.6442 0.0000 0.0000 0.0000
# 3 38.8138 40.6442 54.9301 0.0000 0.0000 0.0000
# 4 0.0000 0.0000 0.0000 22.8158 0.0000 0.0000
# 5 0.0000 0.0000 0.0000 0.0000 21.7589 0.0000
# 6 0.0000 0.0000 0.0000 0.0000 0.0000 16.9687
#
#
#
# Elastic Compliance Matrix: (Units=1/GPa)
#
#
# Indices 1 2 3 4 5 6 
#
# 1 0.011079 -0.005808 -0.003531 0.000000 0.000000 0.000000
# 2 -0.005808 0.014875 -0.006902 0.000000 0.000000 0.000000
# 3 -0.003531 -0.006902 0.025807 0.000000 0.000000 0.000000
# 4 0.000000 0.000000 0.000000 0.043829 0.000000 0.000000
# 5 0.000000 0.000000 0.000000 0.000000 0.045958 0.000000
# 6 0.000000 0.000000 0.000000 0.000000 0.000000 0.058932
#
#
# Mechanical properties :
#
#
# Convention : Reuss Voigt Hill
#
# Bulk Modulus (GPa) = 51.87136 68.38011 60.12573
# Shear Modulus (GPa) = 20.88646 22.83924 21.86285
#
# Velocity S-wave (km/s) = 3.60070 3.76526 3.68390
# Velocity P-wave (km/s) = 7.03457 7.83256 7.44427
#
# Compressibility (1/GPa) = 0.01927846
#
# Stress axis : x y z
#
# Youngs Moduli (GPa) = 90.25919 67.22889 38.74855
#
# Poissons Ratio (x) = 0.39045 0.13683
# Poissons Ratio (y) = 0.52420 0.26745
# Poissons Ratio (z) = 0.31874 0.46404
#
# Static dielectric constant tensor:
#      x y z
#    x 3.134730 0.000000 0.000000 
#    y 0.000000 3.204340 0.000000 
#    z 0.000000 0.000000 2.679410 
# 
# 
# High freq. dielectric constant tensor:
#      x y z
#    x 1.628640 0.000000 0.000000 
#    y 0.000000 1.634470 0.000000 
#    z 0.000000 0.000000 1.568800 
# 
# From -- ./inp_files/24645.got.cif
#   From: 2010.03.12/outbox.cif.g09.slc.cpg/sg65_13_cif.got.tgz:24645.got - 2010.04.10 20:52:16.
