data_PCOD8266859
_publ_section_title
;
Structure prediction by ZEFSAII (Michael W. Deem and Ramdas Pophale) SiO2 
 PCOD8266859
Probable space group: C M M M
;
_chemical_formula_sum "Si O2"
_cell_formula_units_Z 96
_cell_length_a 23.231596
_cell_length_b 8.318026
_cell_length_c 25.499615
_cell_angle_alpha 90.000000
_cell_angle_beta 90.000000
_cell_angle_gamma 90.000000
_cell_volume 4927.571601
_symmetry_space_group_name_H-M "C M M M"
_symmetry_group_IT_number 65
_symmetry_cell_setting 'orthorhombic'
loop_
_space_group_symop_operation_xyz
x,y,z
-x,-y,z
x,-y,-z
-x,y,-z
-x,-y,-z
x,y,-z
-x,y,z
x,-y,z
1/2+x,1/2+y,z
1/2-x,1/2-y,z
1/2+x,1/2-y,-z
1/2-x,1/2+y,-z
1/2-x,1/2-y,-z
1/2+x,1/2+y,-z
1/2-x,1/2+y,z
1/2+x,1/2-y,z
loop_
_atom_site_type_symbol
_atom_site_label
_atom_site_fract_x
_atom_site_fract_y
_atom_site_fract_z
Si Si1 0.882533 0.686032 0.899105
Si Si2 0.185213 0.308736 0.500000
Si Si3 0.500000 0.686321 0.859786
Si Si4 0.684691 0.310390 0.609518
Si Si5 0.620044 0.813231 0.291777
Si Si6 0.000000 0.192183 0.258986
Si Si7 0.313290 0.314651 0.196100
Si Si8 0.815050 0.690800 0.000000
O O1 0.894320 0.500000 0.907756
O O2 0.844148 0.711050 0.848084
O O3 0.848564 0.758087 0.949057
O O4 0.944268 0.768026 0.893215
O O5 0.181183 0.500000 0.500000
O O6 0.250000 0.250000 0.500000
O O7 0.157340 0.236510 0.447085
O O8 0.500000 0.500000 0.850365
O O9 0.500000 0.761252 0.801020
O O10 0.682732 0.500000 0.618347
O O11 0.750000 0.250000 0.615256
O O12 0.644832 0.220864 0.651061
O O13 0.553857 0.762507 0.290271
O O14 0.653715 0.703584 0.250444
O O15 0.627734 0.000000 0.277548
O O16 0.000000 0.000000 0.260606
O O17 0.313144 0.500000 0.178944
O O18 0.250000 0.250000 0.204462
O O19 0.750000 0.750000 0.000000
O O20 0.813704 0.500000 0.000000
#
# Coordination Sequence:
#
# PCOD8266859 Si02
#       8
#    16   8   8  16  16   8  16   8
#     4  11  23  41  64  89 119 156 197 243 295 350
#     4  10  18  32  54  83 118 159 204 248 297 356
#     4  11  23  40  64  91 120 154 198 245 294 351
#     4  11  21  36  57  86 123 161 201 249 301 355
#     4  12  24  39  60  87 117 155 198 245 299 354
#     4  11  23  41  62  87 119 155 198 244 295 354
#     4  12  24  39  58  86 119 154 194 240 295 357
#     4  10  24  43  64  91 121 156 196 242 295 356
#
# _framework density 19.482213000000002
#
# number of rings (size 3 to 8) (size 9 to 14) (size 15 to 20)
#    0.000    0.833    1.667    8.250    0.000    3.667 
#    0.000    1.667    0.000    0.500    0.000    3.500 
#    0.000    0.000    0.000    0.000    0.000    0.000 
#
# Total GULP energy -595397.232068 kJ/mol
# GULP energy per Si atom -12404.109001 kJ/mol
# Density = 1.943787 g / cm^3
# Si number density = 19.482213 Si / 1000 Ang^3
#
#
#
# Elastic Constant Matrix: (Units=GPa)
#
#
# Indices 1 2 3 4 5 6 
#
# 1 132.9894 14.4899 65.5836 0.0000 0.0000 0.0000
# 2 14.4899 82.9802 7.2957 0.0000 0.0000 0.0000
# 3 65.5836 7.2957 141.8303 0.0000 0.0000 0.0000
# 4 0.0000 0.0000 0.0000 22.6764 0.0000 0.0000
# 5 0.0000 0.0000 0.0000 0.0000 8.1007 0.0000
# 6 0.0000 0.0000 0.0000 0.0000 0.0000 35.4639
#
#
#
# Elastic Compliance Matrix: (Units=1/GPa)
#
#
# Indices 1 2 3 4 5 6 
#
# 1 0.009885 -0.001330 -0.004502 0.000000 0.000000 0.000000
# 2 -0.001330 0.012285 -0.000017 0.000000 0.000000 0.000000
# 3 -0.004502 -0.000017 0.009133 0.000000 0.000000 0.000000
# 4 0.000000 0.000000 0.000000 0.044099 0.000000 0.000000
# 5 0.000000 0.000000 0.000000 0.000000 0.123446 0.000000
# 6 0.000000 0.000000 0.000000 0.000000 0.000000 0.028198
#
#
# Mechanical properties :
#
#
# Convention : Reuss Voigt Hill
#
# Bulk Modulus (GPa) = 51.00942 59.17092 55.09017
# Shear Modulus (GPa) = 20.38494 31.27692 25.83093
#
# Velocity S-wave (km/s) = 3.23822 4.01110 3.64520
# Velocity P-wave (km/s) = 6.34199 7.20345 6.78640
#
# Compressibility (1/GPa) = 0.01960422
#
# Stress axis : x y z
#
# Youngs Moduli (GPa) = 101.16702 81.40125 109.48758
#
# Poissons Ratio (x) = 0.10828 0.49295
# Poissons Ratio (y) = 0.13457 0.00184
# Poissons Ratio (z) = 0.45549 0.00137
#
# Static dielectric constant tensor:
#      x y z
#    x 3.915530 0.000000 0.000000 
#    y 0.000000 3.651450 0.000000 
#    z 0.000000 0.000000 4.055440 
# 
# 
# High freq. dielectric constant tensor:
#      x y z
#    x 1.751240 0.000000 0.000000 
#    y 0.000000 1.772770 0.000000 
#    z 0.000000 0.000000 1.766660 
# 
# From -- ./inp_files/71510.got.cif
#   From: 2010.03.12/outbox.cif.g09.slc.cpg/sg65_36_cif.got.tgz:71510.got - 2010.04.10 20:52:16.
