data_PCOD8266846
_publ_section_title
;
Structure prediction by ZEFSAII (Michael W. Deem and Ramdas Pophale) SiO2 
 PCOD8266846
Probable space group: C M M M
;
_chemical_formula_sum "Si O2"
_cell_formula_units_Z 56
_cell_length_a 29.350684
_cell_length_b 8.661121
_cell_length_c 10.559946
_cell_angle_alpha 90.000000
_cell_angle_beta 90.000000
_cell_angle_gamma 90.000000
_cell_volume 2684.442031
_symmetry_space_group_name_H-M "C M M M"
_symmetry_group_IT_number 65
_symmetry_cell_setting 'orthorhombic'
loop_
_space_group_symop_operation_xyz
x,y,z
-x,-y,z
x,-y,-z
-x,y,-z
-x,-y,-z
x,y,-z
-x,y,z
x,-y,z
1/2+x,1/2+y,z
1/2-x,1/2-y,z
1/2+x,1/2-y,-z
1/2-x,1/2+y,-z
1/2-x,1/2-y,-z
1/2+x,1/2+y,-z
1/2-x,1/2+y,z
1/2+x,1/2-y,z
loop_
_atom_site_type_symbol
_atom_site_label
_atom_site_fract_x
_atom_site_fract_y
_atom_site_fract_z
Si Si1 0.699595 0.183259 0.000000
Si Si2 0.948871 0.316795 0.140896
Si Si3 0.616510 0.178832 0.640259
Si Si4 0.799552 0.181247 0.744278
O O1 0.750000 0.250000 0.000000
O O2 0.677221 0.247996 0.127955
O O3 0.698271 0.000000 0.000000
O O4 0.950043 0.500000 0.151920
O O5 0.917321 0.249794 0.253458
O O6 0.000000 0.251419 0.159174
O O7 0.930604 0.269716 0.000000
O O8 0.594712 0.198444 0.500000
O O9 0.664310 0.271803 0.637369
O O10 0.626872 0.000000 0.669115
O O11 0.750000 0.250000 0.712934
O O12 0.793623 0.000000 0.757276
#
# Coordination Sequence:
#
# PCOD8266846 Si02
#       4
#     8  16  16  16
#     4  10  18  32  54  80 109 140 181 232 284 331
#     4   8  15  30  54  84 114 145 185 234 287 340
#     4  10  21  35  53  82 116 152 194 238 287 340
#     4  11  22  37  56  80 112 151 195 238 287 340
#
# _framework density 20.860945000000001
#
# number of rings (size 3 to 8) (size 9 to 14) (size 15 to 20)
#    0.000    2.286    0.000    6.429    2.000    1.714 
#    0.000    2.857    0.000    0.857    0.000    4.000 
#    0.000    0.000    0.000    0.000    0.000    0.000 
#
# Total GULP energy -347029.307994 kJ/mol
# GULP energy per Si atom -12393.903857 kJ/mol
# Density = 2.081346 g / cm^3
# Si number density = 20.860945 Si / 1000 Ang^3
#
#
#
# Elastic Constant Matrix: (Units=GPa)
#
#
# Indices 1 2 3 4 5 6 
#
# 1 103.3140 26.0147 73.9854 0.0000 0.0000 0.0000
# 2 26.0147 106.3769 31.1688 0.0000 0.0000 0.0000
# 3 73.9854 31.1688 144.8848 0.0000 0.0000 0.0000
# 4 0.0000 0.0000 0.0000 18.6944 0.0000 0.0000
# 5 0.0000 0.0000 0.0000 0.0000 29.0597 0.0000
# 6 0.0000 0.0000 0.0000 0.0000 0.0000 17.6705
#
#
#
# Elastic Compliance Matrix: (Units=1/GPa)
#
#
# Indices 1 2 3 4 5 6 
#
# 1 0.015501 -0.001571 -0.007578 0.000000 0.000000 0.000000
# 2 -0.001571 0.010192 -0.001391 0.000000 0.000000 0.000000
# 3 -0.007578 -0.001391 0.011071 0.000000 0.000000 0.000000
# 4 0.000000 0.000000 0.000000 0.053492 0.000000 0.000000
# 5 0.000000 0.000000 0.000000 0.000000 0.034412 0.000000
# 6 0.000000 0.000000 0.000000 0.000000 0.000000 0.056591
#
#
# Mechanical properties :
#
#
# Convention : Reuss Voigt Hill
#
# Bulk Modulus (GPa) = 63.75032 68.54594 66.14813
# Shear Modulus (GPa) = 24.08866 27.97870 26.03368
#
# Velocity S-wave (km/s) = 3.40181 3.66621 3.53648
# Velocity P-wave (km/s) = 6.78644 7.13101 6.96086
#
# Compressibility (1/GPa) = 0.01568619
#
# Stress axis : x y z
#
# Youngs Moduli (GPa) = 64.51017 98.11554 90.32714
#
# Poissons Ratio (x) = 0.15409 0.68449
# Poissons Ratio (y) = 0.10132 0.12561
# Poissons Ratio (z) = 0.48885 0.13644
#
# Static dielectric constant tensor:
#      x y z
#    x 3.765300 0.000000 0.000000 
#    y 0.000000 3.327220 0.000000 
#    z 0.000000 0.000000 4.506570 
# 
# 
# High freq. dielectric constant tensor:
#      x y z
#    x 1.806050 0.000000 0.000000 
#    y 0.000000 1.777830 0.000000 
#    z 0.000000 0.000000 1.826370 
# 
# From -- ./inp_files/31750.got.cif
#   From: 2010.03.12/outbox.cif.g09.slc.cpg/sg65_16_cif.got.tgz:31750.got - 2010.04.10 20:52:16.
