data_PCOD8266457
_publ_section_title
;
Structure prediction by ZEFSAII (Michael W. Deem and Ramdas Pophale) SiO2 
 PCOD8266457
Probable space group: C M M M
;
_chemical_formula_sum "Si O2"
_cell_formula_units_Z 104
_cell_length_a 21.383545
_cell_length_b 30.147636
_cell_length_c 7.872473
_cell_angle_alpha 90.000000
_cell_angle_beta 90.000000
_cell_angle_gamma 90.000000
_cell_volume 5075.094668
_symmetry_space_group_name_H-M "C M M M"
_symmetry_group_IT_number 65
_symmetry_cell_setting 'orthorhombic'
loop_
_space_group_symop_operation_xyz
x,y,z
-x,-y,z
x,-y,-z
-x,y,-z
-x,-y,-z
x,y,-z
-x,y,z
x,-y,z
1/2+x,1/2+y,z
1/2-x,1/2-y,z
1/2+x,1/2-y,-z
1/2-x,1/2+y,-z
1/2-x,1/2-y,-z
1/2+x,1/2+y,-z
1/2-x,1/2+y,z
1/2+x,1/2-y,z
loop_
_atom_site_type_symbol
_atom_site_label
_atom_site_fract_x
_atom_site_fract_y
_atom_site_fract_z
Si Si1 0.241628 0.867298 0.192893
Si Si2 0.690130 0.278377 0.298566
Si Si3 0.929864 0.725743 0.297326
Si Si4 0.343186 0.448792 0.195055
Si Si5 0.571458 0.952461 0.298661
Si Si6 0.375545 0.135806 0.307698
Si Si7 0.568473 0.447937 0.500000
O O1 0.191597 0.828684 0.230166
O O2 0.214427 0.916076 0.233586
O O3 0.301301 0.856994 0.308614
O O4 0.264038 0.865321 0.000000
O O5 0.690977 0.278195 0.500000
O O6 0.750000 0.250000 0.230446
O O7 0.623986 0.259000 0.229764
O O8 0.927827 0.725017 0.500000
O O9 0.912032 0.677092 0.223321
O O10 0.000000 0.739004 0.233937
O O11 0.322470 0.500000 0.226941
O O12 0.396787 0.433871 0.326573
O O13 0.366852 0.442694 0.000000
O O14 0.579413 0.952991 0.500000
O O15 0.500000 0.946536 0.246091
O O16 0.608624 0.911025 0.215877
O O17 0.596485 0.000000 0.227160
O O18 0.399381 0.133029 0.500000
O O19 0.560475 0.500000 0.500000
O O20 0.500000 0.425107 0.500000
#
# Coordination Sequence:
#
# PCOD8266457 Si02
#       7
#    16  16  16  16  16  16   8
#     4  11  23  36  54  79 108 148 187 224 277 336
#     4  10  19  35  57  81 107 140 182 231 280 330
#     4   9  17  31  53  80 106 135 176 224 278 333
#     4   9  20  38  57  83 120 155 188 234 288 342
#     4   8  14  25  43  72 108 139 171 218 273 320
#     4  10  18  30  51  77 103 137 183 229 267 316
#     4   9  18  34  60  90 113 146 195 237 284 347
#
# _framework density 20.492228000000001
#
# number of rings (size 3 to 8) (size 9 to 14) (size 15 to 20)
#    0.000    2.538    1.538    1.385    2.154    3.077 
#    0.000    2.308    0.000    4.154    0.000    1.077 
#    0.000    0.000    0.000    0.000    0.000    0.000 
#
# Total GULP energy -644367.426953 kJ/mol
# GULP energy per Si atom -12391.681288 kJ/mol
# Density = 2.044559 g / cm^3
# Si number density = 20.492228 Si / 1000 Ang^3
#
#
#
# Elastic Constant Matrix: (Units=GPa)
#
#
# Indices 1 2 3 4 5 6 
#
# 1 134.2364 63.9384 14.3073 0.0000 0.0000 0.0000
# 2 63.9384 145.9689 6.6376 0.0000 0.0000 0.0000
# 3 14.3073 6.6376 38.2040 0.0000 0.0000 0.0000
# 4 0.0000 0.0000 0.0000 15.3567 0.0000 0.0000
# 5 0.0000 0.0000 0.0000 0.0000 -0.3281 0.0000
# 6 0.0000 0.0000 0.0000 0.0000 0.0000 34.8184
#
#
#
# Elastic Compliance Matrix: (Units=1/GPa)
#
#
# Indices 1 2 3 4 5 6 
#
# 1 0.009728 -0.004128 -0.002926 0.000000 0.000000 0.000000
# 2 -0.004128 0.008657 0.000042 0.000000 0.000000 0.000000
# 3 -0.002926 0.000042 0.027264 0.000000 0.000000 0.000000
# 4 0.000000 0.000000 0.000000 0.065118 0.000000 0.000000
# 5 0.000000 0.000000 0.000000 0.000000 -3.048171 0.000000
# 6 0.000000 0.000000 0.000000 0.000000 0.000000 0.028720
#
#
# Mechanical properties :
#
#
# Convention : Reuss Voigt Hill
#
# Bulk Modulus (GPa) = 31.62101 54.24178 42.93140
# Shear Modulus (GPa) = -1.73363 25.53783 11.90210
#
# Velocity S-wave (km/s) = -0.92078 3.53401 2.41262
# Velocity P-wave (km/s) = 3.78600 6.57109 5.36251
#
# Compressibility (1/GPa) = 0.03162454
#
# Stress axis : x y z
#
# Youngs Moduli (GPa) = 102.80090 115.51341 36.67885
#
# Poissons Ratio (x) = 0.47683 0.10731
# Poissons Ratio (y) = 0.42435 -0.00153
# Poissons Ratio (z) = 0.30077 -0.00483
#
# Static dielectric constant tensor:
#      x y z
#    x 3.737910 0.000000 0.000000 
#    y 0.000000 4.198020 0.000000 
#    z 0.000000 0.000000 3.340170 
# 
# 
# High freq. dielectric constant tensor:
#      x y z
#    x 1.785200 0.000000 0.000000 
#    y 0.000000 1.807300 0.000000 
#    z 0.000000 0.000000 1.769430 
# 
# From -- ./inp_files/12828.got.cif
#   From: 2010.03.12/outbox.cif.g09.slc.cpg/sg65_7_cif.got.tgz:12828.got - 2010.04.10 20:52:16.
