data_PCOD8266170
_publ_section_title
;
Structure prediction by ZEFSAII (Michael W. Deem and Ramdas Pophale) SiO2 
 PCOD8266170
Probable space group: C M M M
;
_chemical_formula_sum "Si O2"
_cell_formula_units_Z 64
_cell_length_a 19.714053
_cell_length_b 8.023717
_cell_length_c 22.486225
_cell_angle_alpha 90.000000
_cell_angle_beta 90.000000
_cell_angle_gamma 90.000000
_cell_volume 3556.870670
_symmetry_space_group_name_H-M "C M M M"
_symmetry_group_IT_number 65
_symmetry_cell_setting 'orthorhombic'
loop_
_space_group_symop_operation_xyz
x,y,z
-x,-y,z
x,-y,-z
-x,y,-z
-x,-y,-z
x,y,-z
-x,y,z
x,-y,z
1/2+x,1/2+y,z
1/2-x,1/2-y,z
1/2+x,1/2-y,-z
1/2-x,1/2+y,-z
1/2-x,1/2-y,-z
1/2+x,1/2+y,-z
1/2-x,1/2+y,z
1/2+x,1/2-y,z
loop_
_atom_site_type_symbol
_atom_site_label
_atom_site_fract_x
_atom_site_fract_y
_atom_site_fract_z
Si Si1 0.172807 0.306419 0.874675
Si Si2 0.827111 0.804922 0.000000
Si Si3 0.919287 0.313614 0.358020
Si Si4 0.919104 0.000000 0.567419
Si Si5 0.424817 0.803329 0.774875
O O1 0.171557 0.500000 0.864749
O O2 0.250000 0.250000 0.869019
O O3 0.139872 0.264014 0.939195
O O4 0.126418 0.222738 0.823332
O O5 0.750000 0.750000 0.000000
O O6 0.833642 0.000000 0.000000
O O7 0.891910 0.500000 0.375613
O O8 0.890874 0.169112 0.401522
O O9 0.896580 0.264788 0.291180
O O10 0.000000 0.319336 0.360460
O O11 0.892613 0.000000 0.500000
O O12 0.000000 0.000000 0.570349
O O13 0.500000 0.724855 0.783594
O O14 0.430289 0.000000 0.783610
#
# Coordination Sequence:
#
# PCOD8266170 Si02
#       5
#    16   8  16   8  16
#     4  10  18  30  48  68  90 115 146 190 231 273
#     4  10  18  30  45  62  87 117 151 181 225 278
#     4   8  14  26  41  58  84 118 152 185 225 271
#     4   9  16  24  36  60  90 119 153 185 220 273
#     4   8  15  29  48  66  86 119 157 186 221 273
#
# _framework density 17.993345999999999
#
# number of rings (size 3 to 8) (size 9 to 14) (size 15 to 20)
#    0.000    3.125    0.000    4.875    0.000    0.500 
#    4.500    3.125    0.000    3.750    0.000    0.000 
#    0.000    1.000    0.500    0.000    0.000    0.000 
#
# Total GULP energy -396455.366538 kJ/mol
# GULP energy per Si atom -12389.230204 kJ/mol
# Density = 1.795239 g / cm^3
# Si number density = 17.993346 Si / 1000 Ang^3
#
#
#
# Elastic Constant Matrix: (Units=GPa)
#
#
# Indices 1 2 3 4 5 6 
#
# 1 37.6075 18.0129 44.6341 0.0000 0.0000 0.0000
# 2 18.0129 86.1721 62.3063 0.0000 0.0000 0.0000
# 3 44.6341 62.3063 175.4032 0.0000 0.0000 0.0000
# 4 0.0000 0.0000 0.0000 28.1879 0.0000 0.0000
# 5 0.0000 0.0000 0.0000 0.0000 10.7366 0.0000
# 6 0.0000 0.0000 0.0000 0.0000 0.0000 9.4101
#
#
#
# Elastic Compliance Matrix: (Units=1/GPa)
#
#
# Indices 1 2 3 4 5 6 
#
# 1 0.038202 -0.001287 -0.009264 0.000000 0.000000 0.000000
# 2 -0.001287 0.015659 -0.005235 0.000000 0.000000 0.000000
# 3 -0.009264 -0.005235 0.009918 0.000000 0.000000 0.000000
# 4 0.000000 0.000000 0.000000 0.035476 0.000000 0.000000
# 5 0.000000 0.000000 0.000000 0.000000 0.093139 0.000000
# 6 0.000000 0.000000 0.000000 0.000000 0.000000 0.106269
#
#
# Mechanical properties :
#
#
# Convention : Reuss Voigt Hill
#
# Bulk Modulus (GPa) = 31.04941 61.00994 46.02967
# Shear Modulus (GPa) = 14.66406 21.28221 17.97313
#
# Velocity S-wave (km/s) = 2.85787 3.44289 3.16393
# Velocity P-wave (km/s) = 5.30880 7.05586 6.24374
#
# Compressibility (1/GPa) = 0.03220673
#
# Stress axis : x y z
#
# Youngs Moduli (GPa) = 26.17689 63.86234 100.82796
#
# Poissons Ratio (x) = 0.08222 0.93404
# Poissons Ratio (y) = 0.03370 0.52780
# Poissons Ratio (z) = 0.24250 0.33430
#
# Static dielectric constant tensor:
#      x y z
#    x -4.830110 0.000000 0.000000 
#    y 0.000000 3.410290 0.000000 
#    z 0.000000 0.000000 3.789420 
# 
# 
# High freq. dielectric constant tensor:
#      x y z
#    x 1.625980 0.000000 0.000000 
#    y 0.000000 1.695500 0.000000 
#    z 0.000000 0.000000 1.707720 
# 
# From -- ./inp_files/64236.got.cif
#   From: 2010.03.12/outbox.cif.g09.slc.cpg/sg65_33_cif.got.tgz:64236.got - 2010.04.10 20:52:16.
