data_PCOD8266750
_publ_section_title
;
Structure prediction by ZEFSAII (Michael W. Deem and Ramdas Pophale) SiO2 
 PCOD8266750
Probable space group: C M M M
;
_chemical_formula_sum "Si O2"
_cell_formula_units_Z 80
_cell_length_a 28.713252
_cell_length_b 8.626025
_cell_length_c 18.337439
_cell_angle_alpha 90.000000
_cell_angle_beta 90.000000
_cell_angle_gamma 90.000000
_cell_volume 4541.839439
_symmetry_space_group_name_H-M "C M M M"
_symmetry_group_IT_number 65
_symmetry_cell_setting 'orthorhombic'
loop_
_space_group_symop_operation_xyz
x,y,z
-x,-y,z
x,-y,-z
-x,y,-z
-x,-y,-z
x,y,-z
-x,y,z
x,-y,z
1/2+x,1/2+y,z
1/2-x,1/2-y,z
1/2+x,1/2-y,-z
1/2-x,1/2+y,-z
1/2-x,1/2-y,-z
1/2+x,1/2+y,-z
1/2-x,1/2+y,z
1/2+x,1/2-y,z
loop_
_atom_site_type_symbol
_atom_site_label
_atom_site_fract_x
_atom_site_fract_y
_atom_site_fract_z
Si Si1 0.552195 0.685664 0.343645
Si Si2 0.112931 0.818291 0.790266
Si Si3 0.445581 0.178902 0.083016
Si Si4 0.801657 0.184077 0.000000
Si Si5 0.800764 0.318044 0.148207
Si Si6 0.444696 0.669807 0.500000
O O1 0.500000 0.745270 0.326184
O O2 0.552145 0.500000 0.346731
O O3 0.585973 0.747088 0.280440
O O4 0.569388 0.752620 0.423178
O O5 0.083007 0.786270 0.862419
O O6 0.162678 0.730572 0.789652
O O7 0.122237 0.000000 0.784327
O O8 0.500000 0.207997 0.096359
O O9 0.432761 0.000000 0.097632
O O10 0.432433 0.224468 0.000000
O O11 0.750000 0.250000 0.000000
O O12 0.824333 0.249714 0.926072
O O13 0.802557 0.000000 0.000000
O O14 0.795451 0.500000 0.141248
O O15 0.750000 0.250000 0.165620
O O16 0.421356 0.500000 0.500000
O O17 0.500000 0.652032 0.500000
#
# Coordination Sequence:
#
# PCOD8266750 Si02
#       6
#    16  16  16   8  16   8
#     4   8  14  25  43  70 103 134 163 197 236 283
#     4  11  21  31  47  73 101 128 162 204 249 294
#     4   9  19  35  50  64  89 128 171 209 243 282
#     4  10  18  32  52  72  91 114 149 196 248 294
#     4  11  22  37  53  70  94 125 161 204 252 299
#     4   7  10  20  40  66  98 133 162 191 234 283
#
# _framework density 17.614008999999999
#
# number of rings (size 3 to 8) (size 9 to 14) (size 15 to 20)
#    0.000    2.500    0.000    6.900    1.400    1.600 
#    0.000    1.000    0.000    0.000    0.000    3.500 
#    0.000   11.200    0.000    0.000    0.000    0.000 
#
# Total GULP energy -495705.984286 kJ/mol
# GULP energy per Si atom -12392.649607 kJ/mol
# Density = 1.757392 g / cm^3
# Si number density = 17.614009 Si / 1000 Ang^3
#
#
#
# Elastic Constant Matrix: (Units=GPa)
#
#
# Indices 1 2 3 4 5 6 
#
# 1 85.1230 28.9205 68.9654 0.0000 0.0000 0.0000
# 2 28.9205 82.3765 30.2097 0.0000 0.0000 0.0000
# 3 68.9654 30.2097 131.1025 0.0000 0.0000 0.0000
# 4 0.0000 0.0000 0.0000 8.3173 0.0000 0.0000
# 5 0.0000 0.0000 0.0000 0.0000 16.9674 0.0000
# 6 0.0000 0.0000 0.0000 0.0000 0.0000 25.0027
#
#
#
# Elastic Compliance Matrix: (Units=1/GPa)
#
#
# Indices 1 2 3 4 5 6 
#
# 1 0.021462 -0.003708 -0.010436 0.000000 0.000000 0.000000
# 2 -0.003708 0.013900 -0.001253 0.000000 0.000000 0.000000
# 3 -0.010436 -0.001253 0.013406 0.000000 0.000000 0.000000
# 4 0.000000 0.000000 0.000000 0.120232 0.000000 0.000000
# 5 0.000000 0.000000 0.000000 0.000000 0.058937 0.000000
# 6 0.000000 0.000000 0.000000 0.000000 0.000000 0.039996
#
#
# Mechanical properties :
#
#
# Convention : Reuss Voigt Hill
#
# Bulk Modulus (GPa) = 55.62847 61.64368 58.63607
# Shear Modulus (GPa) = 16.40868 21.42457 18.91663
#
# Velocity S-wave (km/s) = 3.05547 3.49139 3.28068
# Velocity P-wave (km/s) = 6.64066 7.16421 6.90740
#
# Compressibility (1/GPa) = 0.01797641
#
# Stress axis : x y z
#
# Youngs Moduli (GPa) = 46.59346 71.94001 74.59440
#
# Poissons Ratio (x) = 0.26674 0.77844
# Poissons Ratio (y) = 0.17276 0.09343
# Poissons Ratio (z) = 0.48623 0.09011
#
# Static dielectric constant tensor:
#      x y z
#    x 3.186790 0.000000 0.000000 
#    y 0.000000 2.989740 0.000000 
#    z 0.000000 0.000000 3.804180 
# 
# 
# High freq. dielectric constant tensor:
#      x y z
#    x 1.664430 0.000000 0.000000 
#    y 0.000000 1.659300 0.000000 
#    z 0.000000 0.000000 1.672940 
# 
# From -- ./inp_files/57909.got.cif
#   From: 2010.03.12/outbox.cif.g09.slc.cpg/sg65_29_cif.got.tgz:57909.got - 2010.04.10 20:52:16.
