data_PCOD8266856
_publ_section_title
;
Structure prediction by ZEFSAII (Michael W. Deem and Ramdas Pophale) SiO2 
 PCOD8266856
Probable space group: C M M M
;
_chemical_formula_sum "Si O2"
_cell_formula_units_Z 64
_cell_length_a 28.044209
_cell_length_b 8.537658
_cell_length_c 13.072491
_cell_angle_alpha 90.000000
_cell_angle_beta 90.000000
_cell_angle_gamma 90.000000
_cell_volume 3129.970905
_symmetry_space_group_name_H-M "C M M M"
_symmetry_group_IT_number 65
_symmetry_cell_setting 'orthorhombic'
loop_
_space_group_symop_operation_xyz
x,y,z
-x,-y,z
x,-y,-z
-x,y,-z
-x,-y,-z
x,y,-z
-x,y,z
x,-y,z
1/2+x,1/2+y,z
1/2-x,1/2-y,z
1/2+x,1/2-y,-z
1/2-x,1/2+y,-z
1/2-x,1/2-y,-z
1/2+x,1/2+y,-z
1/2-x,1/2+y,z
1/2+x,1/2-y,z
loop_
_atom_site_type_symbol
_atom_site_label
_atom_site_fract_x
_atom_site_fract_y
_atom_site_fract_z
Si Si1 0.444743 0.314927 0.000000
Si Si2 0.110130 0.686097 0.194130
Si Si3 0.697354 0.684764 0.710878
Si Si4 0.053522 0.314285 0.388096
Si Si5 0.696862 0.814093 0.500000
O O1 0.419080 0.244866 0.902006
O O2 0.439539 0.500000 0.000000
O O3 0.500000 0.262847 0.000000
O O4 0.113371 0.500000 0.191218
O O5 0.163468 0.758266 0.196278
O O6 0.084357 0.754164 0.295495
O O7 0.700429 0.500000 0.705362
O O8 0.750000 0.750000 0.730897
O O9 0.673735 0.751090 0.605150
O O10 0.074931 0.266936 0.500000
O O11 0.052259 0.500000 0.378921
O O12 0.000000 0.247355 0.378388
O O13 0.750000 0.750000 0.500000
O O14 0.694556 0.000000 0.500000
#
# Coordination Sequence:
#
# PCOD8266856 Si02
#       5
#     8  16  16  16   8
#     4  11  25  45  66  89 122 163 207 259 313 363
#     4  11  22  37  62  92 120 158 207 256 309 370
#     4  11  22  38  58  86 124 165 207 254 308 367
#     4   8  15  29  51  83 120 153 188 237 297 360
#     4  10  18  32  54  82 117 160 207 252 300 354
#
# _framework density 20.447475000000001
#
# number of rings (size 3 to 8) (size 9 to 14) (size 15 to 20)
#    0.000    1.875    0.000    7.500    1.750    2.000 
#    0.000    0.625    0.000    0.000    0.000    5.250 
#    0.000    0.000    0.000    0.000    0.000    0.000 
#
# Total GULP energy -396709.930859 kJ/mol
# GULP energy per Si atom -12397.185339 kJ/mol
# Density = 2.040094 g / cm^3
# Si number density = 20.447475 Si / 1000 Ang^3
#
#
#
# Elastic Constant Matrix: (Units=GPa)
#
#
# Indices 1 2 3 4 5 6 
#
# 1 119.6548 54.2372 86.1087 0.0000 0.0000 0.0000
# 2 54.2372 135.5663 51.8943 0.0000 0.0000 0.0000
# 3 86.1087 51.8943 146.1884 0.0000 0.0000 0.0000
# 4 0.0000 0.0000 0.0000 28.9578 0.0000 0.0000
# 5 0.0000 0.0000 0.0000 0.0000 41.3780 0.0000
# 6 0.0000 0.0000 0.0000 0.0000 0.0000 25.1547
#
#
#
# Elastic Compliance Matrix: (Units=1/GPa)
#
#
# Indices 1 2 3 4 5 6 
#
# 1 0.015588 -0.003150 -0.008064 0.000000 0.000000 0.000000
# 2 -0.003150 0.009173 -0.001401 0.000000 0.000000 0.000000
# 3 -0.008064 -0.001401 0.012088 0.000000 0.000000 0.000000
# 4 0.000000 0.000000 0.000000 0.034533 0.000000 0.000000
# 5 0.000000 0.000000 0.000000 0.000000 0.024167 0.000000
# 6 0.000000 0.000000 0.000000 0.000000 0.000000 0.039754
#
#
# Mechanical properties :
#
#
# Convention : Reuss Voigt Hill
#
# Bulk Modulus (GPa) = 86.06014 87.32108 86.69061
# Shear Modulus (GPa) = 30.41275 33.04271 31.72773
#
# Velocity S-wave (km/s) = 3.86081 4.02429 3.94340
# Velocity P-wave (km/s) = 7.87745 8.02440 7.95127
#
# Compressibility (1/GPa) = 0.01161978
#
# Stress axis : x y z
#
# Youngs Moduli (GPa) = 64.15179 109.01709 82.73006
#
# Poissons Ratio (x) = 0.34337 0.66711
# Poissons Ratio (y) = 0.20206 0.11590
# Poissons Ratio (z) = 0.51730 0.15273
#
# Static dielectric constant tensor:
#      x y z
#    x 3.941050 0.000000 0.000000 
#    y 0.000000 3.490270 0.000000 
#    z 0.000000 0.000000 4.041940 
# 
# 
# High freq. dielectric constant tensor:
#      x y z
#    x 1.810090 0.000000 0.000000 
#    y 0.000000 1.785680 0.000000 
#    z 0.000000 0.000000 1.791520 
# 
# From -- ./inp_files/33234.got.cif
#   From: 2010.03.12/outbox.cif.g09.slc.cpg/sg65_17_cif.got.tgz:33234.got - 2010.04.10 20:52:16.
