data_PCOD8266764
_publ_section_title
;
Structure prediction by ZEFSAII (Michael W. Deem and Ramdas Pophale) SiO2 
 PCOD8266764
Probable space group: C M M M
;
_chemical_formula_sum "Si O2"
_cell_formula_units_Z 72
_cell_length_a 8.540097
_cell_length_b 33.625069
_cell_length_c 15.554224
_cell_angle_alpha 90.000000
_cell_angle_beta 90.000000
_cell_angle_gamma 90.000000
_cell_volume 4466.571976
_symmetry_space_group_name_H-M "C M M M"
_symmetry_group_IT_number 65
_symmetry_cell_setting 'orthorhombic'
loop_
_space_group_symop_operation_xyz
x,y,z
-x,-y,z
x,-y,-z
-x,y,-z
-x,-y,-z
x,y,-z
-x,y,z
x,-y,z
1/2+x,1/2+y,z
1/2-x,1/2-y,z
1/2+x,1/2-y,-z
1/2-x,1/2+y,-z
1/2-x,1/2-y,-z
1/2+x,1/2+y,-z
1/2-x,1/2+y,z
1/2+x,1/2-y,z
loop_
_atom_site_type_symbol
_atom_site_label
_atom_site_fract_x
_atom_site_fract_y
_atom_site_fract_z
Si Si1 0.316398 0.339041 0.836564
Si Si2 0.314612 0.793947 0.000000
Si Si3 0.823684 0.000000 0.102074
Si Si4 0.315247 0.205874 0.676040
Si Si5 0.317567 0.917712 0.899460
Si Si6 0.814534 0.794232 0.500000
O O1 0.500000 0.331086 0.831999
O O2 0.235629 0.323498 0.750881
O O3 0.281464 0.385742 0.846000
O O4 0.244429 0.316181 0.916472
O O5 0.250000 0.750000 0.000000
O O6 0.500000 0.793500 0.000000
O O7 0.732521 0.961046 0.135020
O O8 0.000000 0.000000 0.138672
O O9 0.824998 0.000000 0.000000
O O10 0.500000 0.209035 0.671106
O O11 0.250000 0.250000 0.693073
O O12 0.250187 0.186094 0.587592
O O13 0.500000 0.911089 0.882136
O O14 0.277545 0.912924 0.000000
O O15 0.750000 0.750000 0.500000
O O16 0.000000 0.795246 0.500000
#
# Coordination Sequence:
#
# PCOD8266764 Si02
#       6
#    16   8   8  16  16   8
#     4  12  23  35  50  70  96 128 165 205 244 287
#     4  12  24  38  50  65  90 127 168 206 242 284
#     4   9  17  29  47  69  93 122 159 198 240 288
#     4  11  21  35  52  72  97 127 163 203 248 294
#     4  10  19  32  49  69  95 126 162 201 243 288
#     4  10  18  32  52  74  96 121 156 199 248 296
#
# _framework density 16.119745000000002
#
# number of rings (size 3 to 8) (size 9 to 14) (size 15 to 20)
#    0.000    1.222    1.111    9.000    0.000    2.222 
#    0.000    0.000    0.000    0.000    0.000    0.000 
#    0.000    0.889    0.000    8.889    0.000    5.333 
#
# Total GULP energy -446470.940587 kJ/mol
# GULP energy per Si atom -12401.970572 kJ/mol
# Density = 1.608306 g / cm^3
# Si number density = 16.119745 Si / 1000 Ang^3
#
#
#
# Elastic Constant Matrix: (Units=GPa)
#
#
# Indices 1 2 3 4 5 6 
#
# 1 136.7186 29.4328 41.3352 0.0000 0.0000 0.0000
# 2 29.4328 96.4717 41.4132 0.0000 0.0000 0.0000
# 3 41.3352 41.4132 110.4610 0.0000 0.0000 0.0000
# 4 0.0000 0.0000 0.0000 25.6364 0.0000 0.0000
# 5 0.0000 0.0000 0.0000 0.0000 27.6507 0.0000
# 6 0.0000 0.0000 0.0000 0.0000 0.0000 29.8564
#
#
#
# Elastic Compliance Matrix: (Units=1/GPa)
#
#
# Indices 1 2 3 4 5 6 
#
# 1 0.008414 -0.001449 -0.002605 0.000000 0.000000 0.000000
# 2 -0.001449 0.012603 -0.004183 0.000000 0.000000 0.000000
# 3 -0.002605 -0.004183 0.011596 0.000000 0.000000 0.000000
# 4 0.000000 0.000000 0.000000 0.039007 0.000000 0.000000
# 5 0.000000 0.000000 0.000000 0.000000 0.036165 0.000000
# 6 0.000000 0.000000 0.000000 0.000000 0.000000 0.033494
#
#
# Mechanical properties :
#
#
# Convention : Reuss Voigt Hill
#
# Bulk Modulus (GPa) = 61.96059 63.11264 62.53662
# Shear Modulus (GPa) = 30.64973 32.06004 31.35489
#
# Velocity S-wave (km/s) = 4.36521 4.46451 4.41514
# Velocity P-wave (km/s) = 7.99549 8.11253 8.05422
#
# Compressibility (1/GPa) = 0.01613929
#
# Stress axis : x y z
#
# Youngs Moduli (GPa) = 118.85153 79.34374 86.23477
#
# Poissons Ratio (x) = 0.11493 0.22468
# Poissons Ratio (y) = 0.17216 0.36073
# Poissons Ratio (z) = 0.30966 0.33190
#
# Static dielectric constant tensor:
#      x y z
#    x 3.304910 0.000000 0.000000 
#    y 0.000000 3.088010 0.000000 
#    z 0.000000 0.000000 3.215600 
# 
# 
# High freq. dielectric constant tensor:
#      x y z
#    x 1.647540 0.000000 0.000000 
#    y 0.000000 1.604850 0.000000 
#    z 0.000000 0.000000 1.595810 
# 
# From -- ./inp_files/37054.got.cif
#   From: 2010.03.12/outbox.cif.g09.slc.cpg/sg65_19_cif.got.tgz:37054.got - 2010.04.10 20:52:16.
