data_PCOD8266983
_publ_section_title
;
Structure prediction by ZEFSAII (Michael W. Deem and Ramdas Pophale) SiO2 
 PCOD8266983
Probable space group: C M M M
;
_chemical_formula_sum "Si O2"
_cell_formula_units_Z 128
_cell_length_a 18.254547
_cell_length_b 20.325224
_cell_length_c 19.756763
_cell_angle_alpha 90.000000
_cell_angle_beta 90.000000
_cell_angle_gamma 90.000000
_cell_volume 7330.307457
_symmetry_space_group_name_H-M "C M M M"
_symmetry_group_IT_number 65
_symmetry_cell_setting 'orthorhombic'
loop_
_space_group_symop_operation_xyz
x,y,z
-x,-y,z
x,-y,-z
-x,y,-z
-x,-y,-z
x,y,-z
-x,y,z
x,-y,z
1/2+x,1/2+y,z
1/2-x,1/2-y,z
1/2+x,1/2-y,-z
1/2-x,1/2+y,-z
1/2-x,1/2-y,-z
1/2+x,1/2+y,-z
1/2-x,1/2+y,z
1/2+x,1/2-y,z
loop_
_atom_site_type_symbol
_atom_site_label
_atom_site_fract_x
_atom_site_fract_y
_atom_site_fract_z
Si Si1 0.413850 0.682686 0.924517
Si Si2 0.915353 0.071943 0.173544
Si Si3 0.838049 0.123891 0.705983
Si Si4 0.184344 0.700231 0.073580
Si Si5 0.728592 0.425205 0.575894
Si Si6 0.586808 0.762199 0.304920
Si Si7 0.707806 0.818353 0.783090
Si Si8 0.683908 0.796993 0.576838
O O1 0.500000 0.683303 0.917243
O O2 0.379562 0.627914 0.874369
O O3 0.386217 0.755504 0.906810
O O4 0.389035 0.662630 0.000000
O O5 0.876086 0.070815 0.245989
O O6 0.000000 0.087526 0.185061
O O7 0.904707 0.000000 0.139974
O O8 0.833429 0.094105 0.630422
O O9 0.889703 0.187407 0.707352
O O10 0.755804 0.135049 0.734847
O O11 0.250000 0.750000 0.062949
O O12 0.197251 0.653254 0.139454
O O13 0.172794 0.663358 0.000000
O O14 0.694851 0.418933 0.500000
O O15 0.756772 0.500000 0.588401
O O16 0.795506 0.373886 0.582906
O O17 0.500000 0.770640 0.296346
O O18 0.628371 0.808840 0.251148
O O19 0.611163 0.783706 0.380212
O O20 0.750000 0.750000 0.790571
O O21 0.666761 0.776468 0.500000
O O22 0.750000 0.750000 0.605195
#
# Coordination Sequence:
#
# PCOD8266983 Si02
#       8
#    16  16  16  16  16  16  16  16
#     4   9  17  29  44  62  89 128 168 202 241 294
#     4  10  20  31  44  66  95 128 167 210 252 295
#     4  11  19  33  50  71  99 133 166 205 247 305
#     4   9  16  26  42  64  89 118 156 201 248 293
#     4  10  20  34  56  79  98 127 168 209 248 294
#     4  11  20  30  48  76 103 131 165 207 257 300
#     4   9  17  29  45  67  95 127 162 204 244 299
#     4  10  18  34  55  76 102 130 164 206 249 301
#
# _framework density 17.461749999999999
#
# number of rings (size 3 to 8) (size 9 to 14) (size 15 to 20)
#    0.000    2.125    2.500    3.375    0.000    2.000 
#    0.000    1.250    0.000    1.500    0.000    6.125 
#    0.000    0.000    0.000    0.000    0.000    1.250 
#
# Total GULP energy -793063.311629 kJ/mol
# GULP energy per Si atom -12391.614244 kJ/mol
# Density = 1.742201 g / cm^3
# Si number density = 17.461750 Si / 1000 Ang^3
#
#
#
# Elastic Constant Matrix: (Units=GPa)
#
#
# Indices 1 2 3 4 5 6 
#
# 1 78.6402 18.5585 36.2438 0.0000 0.0000 0.0000
# 2 18.5585 50.8310 13.3775 0.0000 0.0000 0.0000
# 3 36.2438 13.3775 116.8516 0.0000 0.0000 0.0000
# 4 0.0000 0.0000 0.0000 18.6296 0.0000 0.0000
# 5 0.0000 0.0000 0.0000 0.0000 23.6751 0.0000
# 6 0.0000 0.0000 0.0000 0.0000 0.0000 12.4609
#
#
#
# Elastic Compliance Matrix: (Units=1/GPa)
#
#
# Indices 1 2 3 4 5 6 
#
# 1 0.015826 -0.004626 -0.004379 0.000000 0.000000 0.000000
# 2 -0.004626 0.021636 -0.001042 0.000000 0.000000 0.000000
# 3 -0.004379 -0.001042 0.010035 0.000000 0.000000 0.000000
# 4 0.000000 0.000000 0.000000 0.053678 0.000000 0.000000
# 5 0.000000 0.000000 0.000000 0.000000 0.042238 0.000000
# 6 0.000000 0.000000 0.000000 0.000000 0.000000 0.080251
#
#
# Mechanical properties :
#
#
# Convention : Reuss Voigt Hill
#
# Bulk Modulus (GPa) = 36.49161 42.52027 39.50594
# Shear Modulus (GPa) = 19.77117 22.82934 21.30026
#
# Velocity S-wave (km/s) = 3.36855 3.61971 3.49639
# Velocity P-wave (km/s) = 6.00607 6.47094 6.24284
#
# Compressibility (1/GPa) = 0.02740356
#
# Stress axis : x y z
#
# Youngs Moduli (GPa) = 63.18700 46.21893 99.64645
#
# Poissons Ratio (x) = 0.21379 0.43637
# Poissons Ratio (y) = 0.29228 0.10386
# Poissons Ratio (z) = 0.27671 0.04817
#
# Static dielectric constant tensor:
#      x y z
#    x 3.220210 0.000000 0.000000 
#    y 0.000000 3.106740 0.000000 
#    z 0.000000 0.000000 3.748420 
# 
# 
# High freq. dielectric constant tensor:
#      x y z
#    x 1.647700 0.000000 0.000000 
#    y 0.000000 1.630530 0.000000 
#    z 0.000000 0.000000 1.702920 
# 
# From -- ./inp_files/64134.got.cif
#   From: 2010.03.12/outbox.cif.g09.slc.cpg/sg65_33_cif.got.tgz:64134.got - 2010.04.10 20:52:16.
