data_PCOD8266247
_publ_section_title
;
Structure prediction by ZEFSAII (Michael W. Deem and Ramdas Pophale) SiO2 
 PCOD8266247
Probable space group: C M M M
;
_chemical_formula_sum "Si O2"
_cell_formula_units_Z 56
_cell_length_a 30.808605
_cell_length_b 8.833974
_cell_length_c 12.672019
_cell_angle_alpha 90.000000
_cell_angle_beta 90.000000
_cell_angle_gamma 90.000000
_cell_volume 3448.847301
_symmetry_space_group_name_H-M "C M M M"
_symmetry_group_IT_number 65
_symmetry_cell_setting 'orthorhombic'
loop_
_space_group_symop_operation_xyz
x,y,z
-x,-y,z
x,-y,-z
-x,y,-z
-x,-y,-z
x,y,-z
-x,y,z
x,-y,z
1/2+x,1/2+y,z
1/2-x,1/2-y,z
1/2+x,1/2-y,-z
1/2-x,1/2+y,-z
1/2-x,1/2-y,-z
1/2+x,1/2+y,-z
1/2-x,1/2+y,z
1/2+x,1/2-y,z
loop_
_atom_site_type_symbol
_atom_site_label
_atom_site_fract_x
_atom_site_fract_y
_atom_site_fract_z
Si Si1 0.047122 0.671142 0.874679
Si Si2 0.702142 0.818686 0.500000
Si Si3 0.702793 0.680449 0.288459
Si Si4 0.633184 0.322038 0.881656
O O1 0.053005 0.500000 0.835381
O O2 0.087646 0.766710 0.830807
O O3 0.000000 0.733273 0.834319
O O4 0.047459 0.679431 0.000000
O O5 0.750000 0.750000 0.500000
O O6 0.680440 0.753024 0.393345
O O7 0.702150 0.000000 0.500000
O O8 0.706285 0.500000 0.300986
O O9 0.750000 0.750000 0.267234
O O10 0.672957 0.731046 0.190767
O O11 0.630863 0.500000 0.885964
O O12 0.640424 0.255937 0.000000
#
# Coordination Sequence:
#
# PCOD8266247 Si02
#       4
#    16   8  16  16
#     4   8  14  25  41  61  85 113 145 180 215 251
#     4  10  18  30  48  66  83 106 143 186 224 259
#     4  10  19  31  46  64  88 116 147 182 218 255
#     4   9  18  30  43  63  91 120 148 177 211 256
#
# _framework density 16.237309
#
# number of rings (size 3 to 8) (size 9 to 14) (size 15 to 20)
#    0.000    2.857    0.000    4.714    0.000    3.429 
#    0.000    2.857    0.000    0.000    0.000    1.000 
#    0.000    8.000    0.000    0.000    0.000    0.000 
#
# Total GULP energy -346922.495430 kJ/mol
# GULP energy per Si atom -12390.089123 kJ/mol
# Density = 1.620035 g / cm^3
# Si number density = 16.237309 Si / 1000 Ang^3
#
#
#
# Elastic Constant Matrix: (Units=GPa)
#
#
# Indices 1 2 3 4 5 6 
#
# 1 118.5213 37.2969 63.5558 0.0000 0.0000 0.0000
# 2 37.2969 56.6802 37.7320 0.0000 0.0000 0.0000
# 3 63.5558 37.7320 88.3352 0.0000 0.0000 0.0000
# 4 0.0000 0.0000 0.0000 19.1181 0.0000 0.0000
# 5 0.0000 0.0000 0.0000 0.0000 2.2323 0.0000
# 6 0.0000 0.0000 0.0000 0.0000 0.0000 28.7688
#
#
#
# Elastic Compliance Matrix: (Units=1/GPa)
#
#
# Indices 1 2 3 4 5 6 
#
# 1 0.014234 -0.003561 -0.008720 0.000000 0.000000 0.000000
# 2 -0.003561 0.025544 -0.008349 0.000000 0.000000 0.000000
# 3 -0.008720 -0.008349 0.021160 0.000000 0.000000 0.000000
# 4 0.000000 0.000000 0.000000 0.052306 0.000000 0.000000
# 5 0.000000 0.000000 0.000000 0.000000 0.447978 0.000000
# 6 0.000000 0.000000 0.000000 0.000000 0.000000 0.034760
#
#
# Mechanical properties :
#
#
# Convention : Reuss Voigt Hill
#
# Bulk Modulus (GPa) = 50.81677 60.07843 55.44760
# Shear Modulus (GPa) = 7.76637 18.35397 13.06017
#
# Velocity S-wave (km/s) = 2.18939 3.36573 2.83915
# Velocity P-wave (km/s) = 6.14455 7.22390 6.70597
#
# Compressibility (1/GPa) = 0.01967854
#
# Stress axis : x y z
#
# Youngs Moduli (GPa) = 70.25443 39.14808 47.25816
#
# Poissons Ratio (x) = 0.13943 0.41208
# Poissons Ratio (y) = 0.25021 0.39454
# Poissons Ratio (z) = 0.61261 0.32683
#
# Static dielectric constant tensor:
#      x y z
#    x 3.399190 0.000000 0.000000 
#    y 0.000000 3.091310 0.000000 
#    z 0.000000 0.000000 3.556110 
# 
# 
# High freq. dielectric constant tensor:
#      x y z
#    x 1.615200 0.000000 0.000000 
#    y 0.000000 1.627520 0.000000 
#    z 0.000000 0.000000 1.593520 
# 
# From -- ./inp_files/20776.got.cif
#   From: 2010.03.12/outbox.cif.g09.slc.cpg/sg65_11_cif.got.tgz:20776.got - 2010.04.10 20:52:16.
