data_PCOD8266376
_publ_section_title
;
Structure prediction by ZEFSAII (Michael W. Deem and Ramdas Pophale) SiO2 
 PCOD8266376
Probable space group: C M M M
;
_chemical_formula_sum "Si O2"
_cell_formula_units_Z 72
_cell_length_a 28.145296
_cell_length_b 8.969955
_cell_length_c 15.496197
_cell_angle_alpha 90.000000
_cell_angle_beta 90.000000
_cell_angle_gamma 90.000000
_cell_volume 3912.201485
_symmetry_space_group_name_H-M "C M M M"
_symmetry_group_IT_number 65
_symmetry_cell_setting 'orthorhombic'
loop_
_space_group_symop_operation_xyz
x,y,z
-x,-y,z
x,-y,-z
-x,y,-z
-x,-y,-z
x,y,-z
-x,y,z
x,-y,z
1/2+x,1/2+y,z
1/2-x,1/2-y,z
1/2+x,1/2-y,-z
1/2-x,1/2+y,-z
1/2-x,1/2-y,-z
1/2+x,1/2+y,-z
1/2-x,1/2+y,z
1/2+x,1/2-y,z
loop_
_atom_site_type_symbol
_atom_site_label
_atom_site_fract_x
_atom_site_fract_y
_atom_site_fract_z
Si Si1 0.894311 0.830790 0.752730
Si Si2 0.946643 0.676040 0.903279
Si Si3 0.055950 0.329292 0.402659
Si Si4 0.697952 0.821884 0.500000
Si Si5 0.299204 0.328091 0.331827
O O1 0.909043 0.741207 0.837028
O O2 0.918917 0.775639 0.665688
O O3 0.837101 0.817027 0.745455
O O4 0.910138 0.000000 0.765848
O O5 0.943412 0.500000 0.898596
O O6 0.000000 0.727669 0.878356
O O7 0.934253 0.731159 0.000000
O O8 0.074052 0.292856 0.500000
O O9 0.068239 0.500000 0.380107
O O10 0.000000 0.302203 0.397071
O O11 0.750000 0.750000 0.500000
O O12 0.675130 0.757658 0.412260
O O13 0.697119 0.000000 0.500000
O O14 0.288565 0.500000 0.356575
O O15 0.250000 0.250000 0.303555
#
# Coordination Sequence:
#
# PCOD8266376 Si02
#       5
#    16  16  16   8  16
#     4  11  23  34  51  80 110 138 172 219 270 318
#     4   9  19  37  60  84 109 138 174 215 258 312
#     4   9  19  35  52  72 102 141 183 219 251 303
#     4  10  18  30  50  72  95 130 175 220 266 309
#     4  10  21  36  51  72 104 139 178 223 267 312
#
# _framework density 18.403960999999999
#
# number of rings (size 3 to 8) (size 9 to 14) (size 15 to 20)
#    0.000    2.222    0.000    5.667    1.556    8.000 
#    0.000    2.222    0.000    0.667    0.000    0.000 
#    0.000    0.000    0.000    0.000    0.000    0.000 
#
# Total GULP energy -446288.636764 kJ/mol
# GULP energy per Si atom -12396.906577 kJ/mol
# Density = 1.836207 g / cm^3
# Si number density = 18.403961 Si / 1000 Ang^3
#
#
#
# Elastic Constant Matrix: (Units=GPa)
#
#
# Indices 1 2 3 4 5 6 
#
# 1 61.1597 37.8453 52.6817 0.0000 0.0000 0.0000
# 2 37.8453 94.2526 42.8485 0.0000 0.0000 0.0000
# 3 52.6817 42.8485 104.4747 0.0000 0.0000 0.0000
# 4 0.0000 0.0000 0.0000 20.6676 0.0000 0.0000
# 5 0.0000 0.0000 0.0000 0.0000 26.7591 0.0000
# 6 0.0000 0.0000 0.0000 0.0000 0.0000 27.6327
#
#
#
# Elastic Compliance Matrix: (Units=1/GPa)
#
#
# Indices 1 2 3 4 5 6 
#
# 1 0.032097 -0.006797 -0.013397 0.000000 0.000000 0.000000
# 2 -0.006797 0.014481 -0.002512 0.000000 0.000000 0.000000
# 3 -0.013397 -0.002512 0.017357 0.000000 0.000000 0.000000
# 4 0.000000 0.000000 0.000000 0.048385 0.000000 0.000000
# 5 0.000000 0.000000 0.000000 0.000000 0.037370 0.000000
# 6 0.000000 0.000000 0.000000 0.000000 0.000000 0.036189
#
#
# Mechanical properties :
#
#
# Convention : Reuss Voigt Hill
#
# Bulk Modulus (GPa) = 53.98676 58.51535 56.25105
# Shear Modulus (GPa) = 21.05568 23.44597 22.25083
#
# Velocity S-wave (km/s) = 3.38610 3.57313 3.48087
# Velocity P-wave (km/s) = 6.68473 6.99193 6.84005
#
# Compressibility (1/GPa) = 0.01852306
#
# Stress axis : x y z
#
# Youngs Moduli (GPa) = 31.15577 69.05654 57.61268
#
# Poissons Ratio (x) = 0.46940 0.77184
# Poissons Ratio (y) = 0.21178 0.14470
# Poissons Ratio (z) = 0.41740 0.17344
#
# Static dielectric constant tensor:
#      x y z
#    x 3.351310 0.000000 0.000000 
#    y 0.000000 3.409100 0.000000 
#    z 0.000000 0.000000 3.529970 
# 
# 
# High freq. dielectric constant tensor:
#      x y z
#    x 1.710690 0.000000 0.000000 
#    y 0.000000 1.719400 0.000000 
#    z 0.000000 0.000000 1.697650 
# 
# From -- ./inp_files/46500.got.cif
#   From: 2010.03.12/outbox.cif.g09.slc.cpg/sg65_24_cif.got.tgz:46500.got - 2010.04.10 20:52:16.
