data_PCOD8266126
_publ_section_title
;
Structure prediction by ZEFSAII (Michael W. Deem and Ramdas Pophale) SiO2 
 PCOD8266126
Probable space group: C M M M
;
_chemical_formula_sum "Si O2"
_cell_formula_units_Z 96
_cell_length_a 18.471663
_cell_length_b 16.109953
_cell_length_c 18.457758
_cell_angle_alpha 90.000000
_cell_angle_beta 90.000000
_cell_angle_gamma 90.000000
_cell_volume 5492.615747
_symmetry_space_group_name_H-M "C M M M"
_symmetry_group_IT_number 65
_symmetry_cell_setting 'orthorhombic'
loop_
_space_group_symop_operation_xyz
x,y,z
-x,-y,z
x,-y,-z
-x,y,-z
-x,-y,-z
x,y,-z
-x,y,z
x,-y,z
1/2+x,1/2+y,z
1/2-x,1/2-y,z
1/2+x,1/2-y,-z
1/2-x,1/2+y,-z
1/2-x,1/2-y,-z
1/2+x,1/2+y,-z
1/2-x,1/2+y,z
1/2+x,1/2-y,z
loop_
_atom_site_type_symbol
_atom_site_label
_atom_site_fract_x
_atom_site_fract_y
_atom_site_fract_z
Si Si1 0.162905 0.903771 0.916212
Si Si2 0.918803 0.766898 0.834329
Si Si3 0.082859 0.251210 0.334285
Si Si4 0.796286 0.166955 0.581363
Si Si5 0.179984 0.592705 0.323020
Si Si6 0.788278 0.665056 0.827599
O O1 0.103023 0.853142 0.871754
O O2 0.243687 0.880499 0.890307
O O3 0.147279 0.000000 0.902765
O O4 0.156832 0.879933 0.000000
O O5 0.911503 0.778675 0.748297
O O6 0.866882 0.691151 0.859669
O O7 0.000000 0.743276 0.857207
O O8 0.125760 0.184147 0.382387
O O9 0.117000 0.342835 0.344303
O O10 0.000000 0.254685 0.360908
O O11 0.808916 0.133789 0.500000
O O12 0.750000 0.250000 0.581342
O O13 0.750949 0.099685 0.626519
O O14 0.148390 0.500000 0.331653
O O15 0.205186 0.604795 0.240470
O O16 0.750000 0.750000 0.800633
#
# Coordination Sequence:
#
# PCOD8266126 Si02
#       6
#    16  16  16  16  16  16
#     4  10  20  32  48  71  96 122 155 197 241 281
#     4   9  18  32  49  69  95 125 156 193 235 280
#     4   9  18  33  50  70  96 125 160 196 230 276
#     4   9  17  30  48  69  93 124 161 194 225 269
#     4  10  18  29  49  74  98 124 153 192 241 283
#     4   9  17  31  50  69  93 125 161 194 226 275
#
# _framework density 17.478012
#
# number of rings (size 3 to 8) (size 9 to 14) (size 15 to 20)
#    0.000    2.667    0.000    4.000    0.000    4.667 
#    0.000    0.833    0.000    3.000    0.000    7.000 
#    0.000    0.000    0.000    0.000    0.000    0.000 
#
# Total GULP energy -595138.142461 kJ/mol
# GULP energy per Si atom -12398.711301 kJ/mol
# Density = 1.743823 g / cm^3
# Si number density = 17.478012 Si / 1000 Ang^3
#
#
#
# Elastic Constant Matrix: (Units=GPa)
#
#
# Indices 1 2 3 4 5 6 
#
# 1 141.1747 34.8597 48.7761 0.0000 0.0000 0.0000
# 2 34.8597 70.0438 45.1115 0.0000 0.0000 0.0000
# 3 48.7761 45.1115 77.5744 0.0000 0.0000 0.0000
# 4 0.0000 0.0000 0.0000 10.5229 0.0000 0.0000
# 5 0.0000 0.0000 0.0000 0.0000 14.8250 0.0000
# 6 0.0000 0.0000 0.0000 0.0000 0.0000 16.1993
#
#
#
# Elastic Compliance Matrix: (Units=1/GPa)
#
#
# Indices 1 2 3 4 5 6 
#
# 1 0.009129 -0.001353 -0.004953 0.000000 0.000000 0.000000
# 2 -0.001353 0.023026 -0.012539 0.000000 0.000000 0.000000
# 3 -0.004953 -0.012539 0.023297 0.000000 0.000000 0.000000
# 4 0.000000 0.000000 0.000000 0.095031 0.000000 0.000000
# 5 0.000000 0.000000 0.000000 0.000000 0.067453 0.000000
# 6 0.000000 0.000000 0.000000 0.000000 0.000000 0.061731
#
#
# Mechanical properties :
#
#
# Convention : Reuss Voigt Hill
#
# Bulk Modulus (GPa) = 56.30370 60.69862 58.50116
# Shear Modulus (GPa) = 15.46650 18.97915 17.22282
#
# Velocity S-wave (km/s) = 2.97797 3.29886 3.14251
# Velocity P-wave (km/s) = 6.64141 7.02238 6.83455
#
# Compressibility (1/GPa) = 0.01776082
#
# Stress axis : x y z
#
# Youngs Moduli (GPa) = 109.54303 43.42863 42.92398
#
# Poissons Ratio (x) = 0.05878 0.21260
# Poissons Ratio (y) = 0.14826 0.53824
# Poissons Ratio (z) = 0.54255 0.54457
#
# Static dielectric constant tensor:
#      x y z
#    x 3.467990 0.000000 0.000000 
#    y 0.000000 3.030290 0.000000 
#    z 0.000000 0.000000 3.244920 
# 
# 
# High freq. dielectric constant tensor:
#      x y z
#    x 1.673860 0.000000 0.000000 
#    y 0.000000 1.654920 0.000000 
#    z 0.000000 0.000000 1.670830 
# 
# From -- ./inp_files/54490.got.cif
#   From: 2010.03.12/outbox.cif.g09.slc.cpg/sg65_28_cif.got.tgz:54490.got - 2010.04.10 20:52:16.
