data_PCOD8266447
_publ_section_title
;
Structure prediction by ZEFSAII (Michael W. Deem and Ramdas Pophale) SiO2 
 PCOD8266447
Probable space group: C M M M
;
_chemical_formula_sum "Si O2"
_cell_formula_units_Z 104
_cell_length_a 9.338057
_cell_length_b 26.406053
_cell_length_c 24.467248
_cell_angle_alpha 90.000000
_cell_angle_beta 90.000000
_cell_angle_gamma 90.000000
_cell_volume 6033.164059
_symmetry_space_group_name_H-M "C M M M"
_symmetry_group_IT_number 65
_symmetry_cell_setting 'orthorhombic'
loop_
_space_group_symop_operation_xyz
x,y,z
-x,-y,z
x,-y,-z
-x,y,-z
-x,-y,-z
x,y,-z
-x,y,z
x,-y,z
1/2+x,1/2+y,z
1/2-x,1/2-y,z
1/2+x,1/2-y,-z
1/2-x,1/2+y,-z
1/2-x,1/2-y,-z
1/2+x,1/2+y,-z
1/2-x,1/2+y,z
1/2+x,1/2-y,z
loop_
_atom_site_type_symbol
_atom_site_label
_atom_site_fract_x
_atom_site_fract_y
_atom_site_fract_z
Si Si1 0.832946 0.300062 0.936858
Si Si2 0.830208 0.500000 0.939358
Si Si3 0.165626 0.393667 0.439186
Si Si4 0.343608 0.058423 0.670754
Si Si5 0.667010 0.440351 0.772187
Si Si6 0.169742 0.598190 0.873450
Si Si7 0.158518 0.795261 0.435708
O O1 0.750000 0.250000 0.916064
O O2 0.785435 0.349223 0.902264
O O3 0.000000 0.289306 0.929069
O O4 0.795724 0.311395 0.000000
O O5 0.776644 0.449131 0.909742
O O6 0.000000 0.500000 0.942169
O O7 0.764121 0.500000 0.000000
O O8 0.206271 0.414353 0.500000
O O9 0.201351 0.434746 0.392733
O O10 0.260731 0.346492 0.422145
O O11 0.000000 0.377163 0.438853
O O12 0.500000 0.084158 0.681192
O O13 0.225596 0.078839 0.713249
O O14 0.359260 0.000000 0.682009
O O15 0.500000 0.428056 0.774629
O O16 0.696677 0.500000 0.782269
O O17 0.749286 0.406208 0.816155
O O18 0.000000 0.595621 0.863546
O O19 0.145695 0.786583 0.500000
O O20 0.250000 0.750000 0.408866
O O21 0.000000 0.796475 0.409460
#
# Coordination Sequence:
#
# PCOD8266447 Si02
#       7
#    16   8  16  16  16  16  16
#     4   9  18  32  50  74 103 136 174 210 245 291
#     4   9  16  26  45  75 105 129 156 197 246 291
#     4   9  17  29  46  70  98 124 153 194 243 293
#     4   9  18  32  50  70  94 127 165 200 236 285
#     4  10  20  33  49  70  97 127 162 203 247 296
#     4  10  18  30  51  75  99 130 168 208 247 293
#     4   9  16  26  42  64  90 120 152 185 224 276
#
# _framework density 17.238054000000002
#
# number of rings (size 3 to 8) (size 9 to 14) (size 15 to 20)
#    0.000    2.692    0.769    1.385    0.000    5.846 
#    0.000    1.538    0.000    2.769    0.000    8.615 
#    0.000    0.000    0.000    0.000    0.000    0.000 
#
# Total GULP energy -644493.541768 kJ/mol
# GULP energy per Si atom -12394.106572 kJ/mol
# Density = 1.719882 g / cm^3
# Si number density = 17.238054 Si / 1000 Ang^3
#
#
#
# Elastic Constant Matrix: (Units=GPa)
#
#
# Indices 1 2 3 4 5 6 
#
# 1 70.0993 39.3906 45.7320 0.0000 0.0000 0.0000
# 2 39.3906 83.0694 48.6680 0.0000 0.0000 0.0000
# 3 45.7320 48.6680 114.6634 0.0000 0.0000 0.0000
# 4 0.0000 0.0000 0.0000 20.9308 0.0000 0.0000
# 5 0.0000 0.0000 0.0000 0.0000 16.9210 0.0000
# 6 0.0000 0.0000 0.0000 0.0000 0.0000 25.0415
#
#
#
# Elastic Compliance Matrix: (Units=1/GPa)
#
#
# Indices 1 2 3 4 5 6 
#
# 1 0.021996 -0.007041 -0.005784 0.000000 0.000000 0.000000
# 2 -0.007041 0.018277 -0.004949 0.000000 0.000000 0.000000
# 3 -0.005784 -0.004949 0.013129 0.000000 0.000000 0.000000
# 4 0.000000 0.000000 0.000000 0.047777 0.000000 0.000000
# 5 0.000000 0.000000 0.000000 0.000000 0.059098 0.000000
# 6 0.000000 0.000000 0.000000 0.000000 0.000000 0.039934
#
#
# Mechanical properties :
#
#
# Convention : Reuss Voigt Hill
#
# Bulk Modulus (GPa) = 56.01600 59.49035 57.75317
# Shear Modulus (GPa) = 20.68606 21.51475 21.10041
#
# Velocity S-wave (km/s) = 3.46789 3.53667 3.50245
# Velocity P-wave (km/s) = 6.97145 7.15985 7.06628
#
# Compressibility (1/GPa) = 0.01785204
#
# Stress axis : x y z
#
# Youngs Moduli (GPa) = 45.46359 54.71494 76.16959
#
# Poissons Ratio (x) = 0.38527 0.44056
# Poissons Ratio (y) = 0.32013 0.37696
# Poissons Ratio (z) = 0.26296 0.27078
#
# Static dielectric constant tensor:
#      x y z
#    x 3.258150 0.000000 0.000000 
#    y 0.000000 3.091710 0.000000 
#    z 0.000000 0.000000 3.167620 
# 
# 
# High freq. dielectric constant tensor:
#      x y z
#    x 1.660510 0.000000 0.000000 
#    y 0.000000 1.646190 0.000000 
#    z 0.000000 0.000000 1.650740 
# 
# From -- ./inp_files/68475.got.cif
#   From: 2010.03.12/outbox.cif.g09.slc.cpg/sg65_35_cif.got.tgz:68475.got - 2010.04.10 20:52:16.
