data_PCOD8266736
_publ_section_title
;
Structure prediction by ZEFSAII (Michael W. Deem and Ramdas Pophale) SiO2 
 PCOD8266736
Probable space group: C M M M
;
_chemical_formula_sum "Si O2"
_cell_formula_units_Z 96
_cell_length_a 19.178745
_cell_length_b 18.233421
_cell_length_c 17.206972
_cell_angle_alpha 90.000000
_cell_angle_beta 90.000000
_cell_angle_gamma 90.000000
_cell_volume 6017.177135
_symmetry_space_group_name_H-M "C M M M"
_symmetry_group_IT_number 65
_symmetry_cell_setting 'orthorhombic'
loop_
_space_group_symop_operation_xyz
x,y,z
-x,-y,z
x,-y,-z
-x,y,-z
-x,-y,-z
x,y,-z
-x,y,z
x,-y,z
1/2+x,1/2+y,z
1/2-x,1/2-y,z
1/2+x,1/2-y,-z
1/2-x,1/2+y,-z
1/2-x,1/2-y,-z
1/2+x,1/2+y,-z
1/2-x,1/2+y,z
1/2+x,1/2-y,z
loop_
_atom_site_type_symbol
_atom_site_label
_atom_site_fract_x
_atom_site_fract_y
_atom_site_fract_z
Si Si1 0.874535 0.579381 0.799901
Si Si2 0.807036 0.185389 0.213199
Si Si3 0.745928 0.919785 0.325392
Si Si4 0.421490 0.221266 0.272628
Si Si5 0.242895 0.414980 0.089568
Si Si6 0.183119 0.700410 0.412367
O O1 0.913577 0.500000 0.803880
O O2 0.810408 0.573020 0.741735
O O3 0.926296 0.642443 0.770736
O O4 0.837196 0.598079 0.882200
O O5 0.750000 0.250000 0.220894
O O6 0.805184 0.132732 0.289268
O O7 0.883471 0.222257 0.213988
O O8 0.796536 0.138242 0.135015
O O9 0.709579 0.883158 0.400507
O O10 0.775634 0.000000 0.348488
O O11 0.500000 0.247611 0.289459
O O12 0.379731 0.218518 0.353825
O O13 0.264359 0.500000 0.103111
O O14 0.246980 0.392809 0.000000
O O15 0.155317 0.710410 0.500000
O O16 0.250000 0.750000 0.394702
#
# Coordination Sequence:
#
# PCOD8266736 Si02
#       6
#    16  16  16  16  16  16
#     4   8  15  29  46  68  96 125 157 193 234 283
#     4  11  16  31  49  71  97 125 163 203 238 275
#     4   9  15  27  49  70  91 121 156 197 239 280
#     4  11  20  31  47  70  99 132 167 197 231 282
#     4   9  17  29  51  79  99 119 155 205 251 287
#     4  10  18  32  51  71  96 122 154 201 251 291
#
# _framework density 15.954325000000001
#
# number of rings (size 3 to 8) (size 9 to 14) (size 15 to 20)
#    0.000    2.333    6.667    1.500    0.000    1.333 
#    0.000    0.000    0.000    4.000    0.000    8.167 
#    0.000    2.667    0.000    0.000    0.000    0.000 
#
# Total GULP energy -594682.894131 kJ/mol
# GULP energy per Si atom -12389.226961 kJ/mol
# Density = 1.591801 g / cm^3
# Si number density = 15.954325 Si / 1000 Ang^3
#
#
#
# Elastic Constant Matrix: (Units=GPa)
#
#
# Indices 1 2 3 4 5 6 
#
# 1 85.1196 38.4216 37.4899 0.0000 0.0000 0.0000
# 2 38.4216 90.3260 36.0918 0.0000 0.0000 0.0000
# 3 37.4899 36.0918 95.5946 0.0000 0.0000 0.0000
# 4 0.0000 0.0000 0.0000 18.3918 0.0000 0.0000
# 5 0.0000 0.0000 0.0000 0.0000 11.3169 0.0000
# 6 0.0000 0.0000 0.0000 0.0000 0.0000 13.6161
#
#
#
# Elastic Compliance Matrix: (Units=1/GPa)
#
#
# Indices 1 2 3 4 5 6 
#
# 1 0.015939 -0.005043 -0.004347 0.000000 0.000000 0.000000
# 2 -0.005043 0.014633 -0.003547 0.000000 0.000000 0.000000
# 3 -0.004347 -0.003547 0.013505 0.000000 0.000000 0.000000
# 4 0.000000 0.000000 0.000000 0.054372 0.000000 0.000000
# 5 0.000000 0.000000 0.000000 0.000000 0.088363 0.000000
# 6 0.000000 0.000000 0.000000 0.000000 0.000000 0.073442
#
#
# Mechanical properties :
#
#
# Convention : Reuss Voigt Hill
#
# Bulk Modulus (GPa) = 54.93535 55.00521 54.97028
# Shear Modulus (GPa) = 17.11175 19.26743 18.18959
#
# Velocity S-wave (km/s) = 3.27853 3.47891 3.38021
# Velocity P-wave (km/s) = 6.98851 7.11960 7.05436
#
# Compressibility (1/GPa) = 0.01820321
#
# Stress axis : x y z
#
# Youngs Moduli (GPa) = 62.73894 68.33652 74.04765
#
# Poissons Ratio (x) = 0.34462 0.32188
# Poissons Ratio (y) = 0.31639 0.26266
# Poissons Ratio (z) = 0.27272 0.24240
#
# Static dielectric constant tensor:
#      x y z
#    x 2.607090 0.000000 0.000000 
#    y 0.000000 3.614520 0.000000 
#    z 0.000000 0.000000 3.026690 
# 
# 
# High freq. dielectric constant tensor:
#      x y z
#    x 1.559450 0.000000 0.000000 
#    y 0.000000 1.627300 0.000000 
#    z 0.000000 0.000000 1.604760 
# 
# From -- ./inp_files/54733.got.cif
#   From: 2010.03.12/outbox.cif.g09.slc.cpg/sg65_28_cif.got.tgz:54733.got - 2010.04.10 20:52:16.
