data_PCOD8266032
_publ_section_title
;
Structure prediction by ZEFSAII (Michael W. Deem and Ramdas Pophale) SiO2 
 PCOD8266032
Probable space group: C M M M
;
_chemical_formula_sum "Si O2"
_cell_formula_units_Z 112
_cell_length_a 13.599518
_cell_length_b 28.537987
_cell_length_c 13.853389
_cell_angle_alpha 90.000000
_cell_angle_beta 90.000000
_cell_angle_gamma 90.000000
_cell_volume 5376.540001
_symmetry_space_group_name_H-M "C M M M"
_symmetry_group_IT_number 65
_symmetry_cell_setting 'orthorhombic'
loop_
_space_group_symop_operation_xyz
x,y,z
-x,-y,z
x,-y,-z
-x,y,-z
-x,-y,-z
x,y,-z
-x,y,z
x,-y,z
1/2+x,1/2+y,z
1/2-x,1/2-y,z
1/2+x,1/2-y,-z
1/2-x,1/2+y,-z
1/2-x,1/2-y,-z
1/2+x,1/2+y,-z
1/2-x,1/2+y,z
1/2+x,1/2-y,z
loop_
_atom_site_type_symbol
_atom_site_label
_atom_site_fract_x
_atom_site_fract_y
_atom_site_fract_z
Si Si1 0.882825 0.680498 0.392266
Si Si2 0.616430 0.371694 0.252353
Si Si3 0.292814 0.552532 0.388804
Si Si4 0.385670 0.913553 0.713861
Si Si5 0.146641 0.274689 0.104188
Si Si6 0.212794 0.379600 0.110884
Si Si7 0.893958 0.770199 0.705029
O O1 0.843607 0.670827 0.500000
O O2 0.852367 0.637751 0.323951
O O3 0.835226 0.729692 0.353933
O O4 0.000000 0.685062 0.390277
O O5 0.500000 0.369699 0.228752
O O6 0.637644 0.411963 0.330286
O O7 0.676223 0.380882 0.153588
O O8 0.656691 0.321383 0.293512
O O9 0.291393 0.568339 0.500000
O O10 0.335838 0.500000 0.378500
O O11 0.181062 0.550930 0.347568
O O12 0.500000 0.925667 0.698031
O O13 0.355878 0.915235 0.827033
O O14 0.250000 0.250000 0.105074
O O15 0.160593 0.329689 0.120727
O O16 0.084504 0.250558 0.188005
O O17 0.094880 0.266637 0.000000
O O18 0.217841 0.396505 0.000000
O O19 0.000000 0.778060 0.655884
#
# Coordination Sequence:
#
# PCOD8266032 Si02
#       7
#    16  16  16  16  16  16  16
#     4   9  17  29  46  72 110 153 189 221 264 328
#     4  10  22  38  58  84 116 154 198 247 295 345
#     4  10  23  43  65  90 116 143 186 244 303 357
#     4  10  20  36  59  88 122 155 189 230 282 350
#     4  10  18  29  46  71 110 156 196 234 278 325
#     4  10  20  34  55  83 120 162 201 241 283 335
#     4  10  19  31  48  75 112 153 195 234 276 335
#
# _framework density 20.831240999999999
#
# number of rings (size 3 to 8) (size 9 to 14) (size 15 to 20)
#    0.000    2.143    2.857    0.429    0.000    3.143 
#    0.000    5.714    0.000    9.857    0.000    8.000 
#    0.000    0.000    0.000    0.000    0.000    0.000 
#
# Total GULP energy -693888.875265 kJ/mol
# GULP energy per Si atom -12390.872773 kJ/mol
# Density = 2.078383 g / cm^3
# Si number density = 20.831241 Si / 1000 Ang^3
#
#
#
# Elastic Constant Matrix: (Units=GPa)
#
#
# Indices 1 2 3 4 5 6 
#
# 1 56.1140 10.9862 2.1574 0.0000 0.0000 0.0000
# 2 10.9862 70.5381 45.1563 0.0000 0.0000 0.0000
# 3 2.1574 45.1563 132.3316 0.0000 0.0000 0.0000
# 4 0.0000 0.0000 0.0000 25.9331 0.0000 0.0000
# 5 0.0000 0.0000 0.0000 0.0000 18.1686 0.0000
# 6 0.0000 0.0000 0.0000 0.0000 0.0000 33.3160
#
#
#
# Elastic Compliance Matrix: (Units=1/GPa)
#
#
# Indices 1 2 3 4 5 6 
#
# 1 0.018459 -0.003432 0.000870 0.000000 0.000000 0.000000
# 2 -0.003432 0.018777 -0.006352 0.000000 0.000000 0.000000
# 3 0.000870 -0.006352 0.009710 0.000000 0.000000 0.000000
# 4 0.000000 0.000000 0.000000 0.038561 0.000000 0.000000
# 5 0.000000 0.000000 0.000000 0.000000 0.055040 0.000000
# 6 0.000000 0.000000 0.000000 0.000000 0.000000 0.030016
#
#
# Mechanical properties :
#
#
# Convention : Reuss Voigt Hill
#
# Bulk Modulus (GPa) = 34.34090 41.73148 38.03619
# Shear Modulus (GPa) = 25.24020 28.86245 27.05133
#
# Velocity S-wave (km/s) = 3.48465 3.72632 3.60751
# Velocity P-wave (km/s) = 5.71940 6.21213 5.97085
#
# Compressibility (1/GPa) = 0.02911980
#
# Stress axis : x y z
#
# Youngs Moduli (GPa) = 54.17313 53.25570 102.98704
#
# Poissons Ratio (x) = 0.18278 -0.08962
# Poissons Ratio (y) = 0.18593 0.65413
# Poissons Ratio (z) = -0.04714 0.33826
#
# Static dielectric constant tensor:
#      x y z
#    x 3.496900 0.000000 0.000000 
#    y 0.000000 3.534720 0.000000 
#    z 0.000000 0.000000 4.075500 
# 
# 
# High freq. dielectric constant tensor:
#      x y z
#    x 1.809330 0.000000 0.000000 
#    y 0.000000 1.792310 0.000000 
#    z 0.000000 0.000000 1.814820 
# 
# From -- ./inp_files/40840.got.cif
#   From: 2010.03.12/outbox.cif.g09.slc.cpg/sg65_21_cif.got.tgz:40840.got - 2010.04.10 20:52:16.
