data_PCOD8266382
_publ_section_title
;
Structure prediction by ZEFSAII (Michael W. Deem and Ramdas Pophale) SiO2 
 PCOD8266382
Probable space group: C M M M
;
_chemical_formula_sum "Si O2"
_cell_formula_units_Z 120
_cell_length_a 10.186145
_cell_length_b 26.635759
_cell_length_c 25.629050
_cell_angle_alpha 90.000000
_cell_angle_beta 90.000000
_cell_angle_gamma 90.000000
_cell_volume 6953.563727
_symmetry_space_group_name_H-M "C M M M"
_symmetry_group_IT_number 65
_symmetry_cell_setting 'orthorhombic'
loop_
_space_group_symop_operation_xyz
x,y,z
-x,-y,z
x,-y,-z
-x,y,-z
-x,-y,-z
x,y,-z
-x,y,z
x,-y,z
1/2+x,1/2+y,z
1/2-x,1/2-y,z
1/2+x,1/2-y,-z
1/2-x,1/2+y,-z
1/2-x,1/2-y,-z
1/2+x,1/2+y,-z
1/2-x,1/2+y,z
1/2+x,1/2-y,z
loop_
_atom_site_type_symbol
_atom_site_label
_atom_site_fract_x
_atom_site_fract_y
_atom_site_fract_z
Si Si1 0.345015 0.500000 0.942016
Si Si2 0.652437 0.404848 0.873346
Si Si3 0.649177 0.293727 0.138331
Si Si4 0.852796 0.443102 0.795418
Si Si5 0.850630 0.792672 0.740307
Si Si6 0.646711 0.631257 0.649931
Si Si7 0.144503 0.556604 0.326091
Si Si8 0.146868 0.791430 0.558997
O O1 0.500000 0.500000 0.945691
O O2 0.300980 0.552318 0.914405
O O3 0.282779 0.500000 0.000000
O O4 0.500000 0.413389 0.857814
O O5 0.671361 0.346729 0.892922
O O6 0.743545 0.409439 0.822868
O O7 0.500000 0.274421 0.128582
O O8 0.750000 0.250000 0.119535
O O9 0.670853 0.306764 0.199226
O O10 0.840743 0.500000 0.815906
O O11 0.822488 0.440985 0.734720
O O12 0.000000 0.422802 0.807524
O O13 0.750000 0.750000 0.722993
O O14 0.818839 0.839465 0.703248
O O15 0.000000 0.773983 0.730660
O O16 0.500000 0.609528 0.654069
O O17 0.747262 0.586290 0.641844
O O18 0.663442 0.663071 0.598021
O O19 0.148816 0.500000 0.346323
O O20 0.000000 0.579525 0.336477
O O21 0.175385 0.809998 0.500000
O O22 0.250000 0.750000 0.576726
O O23 0.000000 0.768742 0.563329
#
# Coordination Sequence:
#
# PCOD8266382 Si02
#       8
#     8  16  16  16  16  16  16  16
#     4   9  18  32  51  77 103 125 157 205 256 295
#     4  10  18  30  50  73  96 126 164 203 241 285
#     4   9  18  30  44  65  94 126 160 194 229 275
#     4   9  17  29  45  68  98 128 157 190 234 286
#     4   9  17  28  41  62  93 122 152 188 223 268
#     4  10  19  30  46  68  92 120 155 196 238 278
#     4   9  19  33  46  64  93 126 157 190 228 277
#     4   9  18  32  49  70  95 120 150 192 240 288
#
# _framework density 17.257338000000001
#
# number of rings (size 3 to 8) (size 9 to 14) (size 15 to 20)
#    0.000    2.733    0.667    2.000    0.000    3.467 
#    0.000    4.000    0.000    1.600    0.000    2.800 
#    0.000    0.000    0.000    0.000    0.000    0.000 
#
# Total GULP energy -743614.326970 kJ/mol
# GULP energy per Si atom -12393.572116 kJ/mol
# Density = 1.721806 g / cm^3
# Si number density = 17.257338 Si / 1000 Ang^3
#
#
#
# Elastic Constant Matrix: (Units=GPa)
#
#
# Indices 1 2 3 4 5 6 
#
# 1 100.5147 64.0267 27.6585 0.0000 0.0000 0.0000
# 2 64.0267 97.9250 29.0727 0.0000 0.0000 0.0000
# 3 27.6585 29.0727 36.4098 0.0000 0.0000 0.0000
# 4 0.0000 0.0000 0.0000 12.1697 0.0000 0.0000
# 5 0.0000 0.0000 0.0000 0.0000 12.2141 0.0000
# 6 0.0000 0.0000 0.0000 0.0000 0.0000 35.1127
#
#
#
# Elastic Compliance Matrix: (Units=1/GPa)
#
#
# Indices 1 2 3 4 5 6 
#
# 1 0.017870 -0.010032 -0.005565 0.000000 0.000000 0.000000
# 2 -0.010032 0.019017 -0.007564 0.000000 0.000000 0.000000
# 3 -0.005565 -0.007564 0.037732 0.000000 0.000000 0.000000
# 4 0.000000 0.000000 0.000000 0.082171 0.000000 0.000000
# 5 0.000000 0.000000 0.000000 0.000000 0.081873 0.000000
# 6 0.000000 0.000000 0.000000 0.000000 0.000000 0.028480
#
#
# Mechanical properties :
#
#
# Convention : Reuss Voigt Hill
#
# Bulk Modulus (GPa) = 35.33830 52.92949 44.13390
# Shear Modulus (GPa) = 15.48485 19.50542 17.49514
#
# Velocity S-wave (km/s) = 2.99873 3.36559 3.18744
# Velocity P-wave (km/s) = 5.70189 6.77054 6.25907
#
# Compressibility (1/GPa) = 0.02829791
#
# Stress axis : x y z
#
# Youngs Moduli (GPa) = 55.95841 52.58486 26.50289
#
# Poissons Ratio (x) = 0.52754 0.14748
# Poissons Ratio (y) = 0.56139 0.20046
# Poissons Ratio (z) = 0.31139 0.39774
#
# Static dielectric constant tensor:
#      x y z
#    x 3.329830 0.000000 0.000000 
#    y 0.000000 3.185850 0.000000 
#    z 0.000000 0.000000 3.006950 
# 
# 
# High freq. dielectric constant tensor:
#      x y z
#    x 1.672510 0.000000 0.000000 
#    y 0.000000 1.656250 0.000000 
#    z 0.000000 0.000000 1.631340 
# 
# From -- ./inp_files/73994.got.cif
#   From: 2010.03.12/outbox.cif.g09.slc.cpg/sg65_37_cif.got.tgz:73994.got - 2010.04.10 20:52:16.
