data_PCOD8266415
_publ_section_title
;
Structure prediction by ZEFSAII (Michael W. Deem and Ramdas Pophale) SiO2 
 PCOD8266415
Probable space group: C M M M
;
_chemical_formula_sum "Si O2"
_cell_formula_units_Z 80
_cell_length_a 8.675085
_cell_length_b 18.339246
_cell_length_c 26.035211
_cell_angle_alpha 90.000000
_cell_angle_beta 90.000000
_cell_angle_gamma 90.000000
_cell_volume 4142.059342
_symmetry_space_group_name_H-M "C M M M"
_symmetry_group_IT_number 65
_symmetry_cell_setting 'orthorhombic'
loop_
_space_group_symop_operation_xyz
x,y,z
-x,-y,z
x,-y,-z
-x,y,-z
-x,-y,-z
x,y,-z
-x,y,z
x,-y,z
1/2+x,1/2+y,z
1/2-x,1/2-y,z
1/2+x,1/2-y,-z
1/2-x,1/2+y,-z
1/2-x,1/2-y,-z
1/2+x,1/2+y,-z
1/2-x,1/2+y,z
1/2+x,1/2-y,z
loop_
_atom_site_type_symbol
_atom_site_label
_atom_site_fract_x
_atom_site_fract_y
_atom_site_fract_z
Si Si1 0.683181 0.830341 0.598482
Si Si2 0.817043 0.169130 0.297960
Si Si3 0.820534 0.416053 0.092871
Si Si4 0.319177 0.829295 0.805361
Si Si5 0.179730 0.829660 0.000000
Si Si6 0.683135 0.918572 0.500000
O O1 0.500000 0.826352 0.601415
O O2 0.750000 0.750000 0.591402
O O3 0.748606 0.868321 0.650590
O O4 0.743017 0.877738 0.550718
O O5 0.750000 0.250000 0.296675
O O6 0.757251 0.132743 0.245105
O O7 0.000000 0.168652 0.300293
O O8 0.769256 0.500000 0.092836
O O9 0.780545 0.382722 0.148046
O O10 0.726231 0.373593 0.050296
O O11 0.000000 0.407734 0.079939
O O12 0.500000 0.820288 0.795963
O O13 0.250000 0.750000 0.817583
O O14 0.250000 0.750000 0.000000
O O15 0.000000 0.818757 0.000000
O O16 0.500000 0.920265 0.500000
O O17 0.751439 0.000000 0.500000
#
# Coordination Sequence:
#
# PCOD8266415 Si02
#       6
#    16  16  16  16   8   8
#     4  10  18  31  53  77 102 131 169 216 260 309
#     4  10  18  30  50  76 106 136 171 216 263 310
#     4  10  22  40  60  83 114 149 183 223 271 322
#     4  10  19  33  55  81 108 140 179 220 264 313
#     4  12  25  40  61  87 113 145 185 228 273 322
#     4   9  19  34  51  73 100 133 172 212 256 307
#
# _framework density 19.314064999999999
#
# number of rings (size 3 to 8) (size 9 to 14) (size 15 to 20)
#    0.000    1.900    0.000    7.500    0.000    4.800 
#    0.000    2.500    0.000   10.800    0.000    0.000 
#    0.000    0.000    0.000    0.000    0.000    0.000 
#
# Total GULP energy -495961.930049 kJ/mol
# GULP energy per Si atom -12399.048251 kJ/mol
# Density = 1.927011 g / cm^3
# Si number density = 19.314065 Si / 1000 Ang^3
#
#
#
# Elastic Constant Matrix: (Units=GPa)
#
#
# Indices 1 2 3 4 5 6 
#
# 1 122.9340 47.8116 81.0784 0.0000 0.0000 0.0000
# 2 47.8116 113.0438 79.7814 0.0000 0.0000 0.0000
# 3 81.0784 79.7814 190.7437 0.0000 0.0000 0.0000
# 4 0.0000 0.0000 0.0000 66.7885 0.0000 0.0000
# 5 0.0000 0.0000 0.0000 0.0000 25.4101 0.0000
# 6 0.0000 0.0000 0.0000 0.0000 0.0000 20.6693
#
#
#
# Elastic Compliance Matrix: (Units=1/GPa)
#
#
# Indices 1 2 3 4 5 6 
#
# 1 0.011622 -0.002027 -0.004092 0.000000 0.000000 0.000000
# 2 -0.002027 0.012905 -0.004536 0.000000 0.000000 0.000000
# 3 -0.004092 -0.004536 0.008879 0.000000 0.000000 0.000000
# 4 0.000000 0.000000 0.000000 0.014973 0.000000 0.000000
# 5 0.000000 0.000000 0.000000 0.000000 0.039354 0.000000
# 6 0.000000 0.000000 0.000000 0.000000 0.000000 0.048381
#
#
# Mechanical properties :
#
#
# Convention : Reuss Voigt Hill
#
# Bulk Modulus (GPa) = 82.67733 93.78490 88.23111
# Shear Modulus (GPa) = 30.96822 37.11028 34.03925
#
# Velocity S-wave (km/s) = 4.00859 4.38815 4.20266
# Velocity P-wave (km/s) = 8.02028 8.62193 8.32654
#
# Compressibility (1/GPa) = 0.01209521
#
# Stress axis : x y z
#
# Youngs Moduli (GPa) = 86.04566 77.49032 112.62308
#
# Poissons Ratio (x) = 0.15711 0.46085
# Poissons Ratio (y) = 0.17445 0.51084
# Poissons Ratio (z) = 0.35210 0.35148
#
# Static dielectric constant tensor:
#      x y z
#    x 3.515710 0.000000 0.000000 
#    y 0.000000 3.381240 0.000000 
#    z 0.000000 0.000000 4.289900 
# 
# 
# High freq. dielectric constant tensor:
#      x y z
#    x 1.753370 0.000000 0.000000 
#    y 0.000000 1.720550 0.000000 
#    z 0.000000 0.000000 1.780880 
# 
# From -- ./inp_files/72961.got.cif
#   From: 2010.03.12/outbox.cif.g09.slc.cpg/sg65_37_cif.got.tgz:72961.got - 2010.04.10 20:52:16.
