data_PCOD8266394
_publ_section_title
;
Structure prediction by ZEFSAII (Michael W. Deem and Ramdas Pophale) SiO2 
 PCOD8266394
Probable space group: C M M M
;
_chemical_formula_sum "Si O2"
_cell_formula_units_Z 104
_cell_length_a 8.746930
_cell_length_b 28.538731
_cell_length_c 23.381429
_cell_angle_alpha 90.000000
_cell_angle_beta 90.000000
_cell_angle_gamma 90.000000
_cell_volume 5836.619197
_symmetry_space_group_name_H-M "C M M M"
_symmetry_group_IT_number 65
_symmetry_cell_setting 'orthorhombic'
loop_
_space_group_symop_operation_xyz
x,y,z
-x,-y,z
x,-y,-z
-x,y,-z
-x,-y,-z
x,y,-z
-x,y,z
x,-y,z
1/2+x,1/2+y,z
1/2-x,1/2-y,z
1/2+x,1/2-y,-z
1/2-x,1/2+y,-z
1/2-x,1/2-y,-z
1/2+x,1/2+y,-z
1/2-x,1/2+y,z
1/2+x,1/2-y,z
loop_
_atom_site_type_symbol
_atom_site_label
_atom_site_fract_x
_atom_site_fract_y
_atom_site_fract_z
Si Si1 0.320150 0.300889 0.330846
Si Si2 0.675792 0.052657 0.617408
Si Si3 0.321902 0.143199 0.227292
Si Si4 0.681744 0.698151 0.000000
Si Si5 0.822872 0.137327 0.563865
Si Si6 0.320059 0.800847 0.885657
Si Si7 0.178493 0.947170 0.261643
O O1 0.500000 0.295341 0.329331
O O2 0.250000 0.250000 0.324818
O O3 0.270097 0.332877 0.278295
O O4 0.264881 0.324330 0.390358
O O5 0.500000 0.061235 0.634481
O O6 0.727951 0.089219 0.569360
O O7 0.779600 0.061619 0.672589
O O8 0.699383 0.000000 0.593595
O O9 0.500000 0.148004 0.240573
O O10 0.277892 0.166815 0.167638
O O11 0.272983 0.088833 0.222382
O O12 0.750000 0.750000 0.000000
O O13 0.745406 0.674457 0.941871
O O14 0.500000 0.698102 0.000000
O O15 0.794838 0.157278 0.500000
O O16 0.000000 0.125637 0.574285
O O17 0.500000 0.795579 0.895024
O O18 0.250000 0.750000 0.873788
O O19 0.000000 0.937726 0.253711
O O20 0.222916 0.000000 0.243176
#
# Coordination Sequence:
#
# PCOD8266394 Si02
#       7
#    16  16  16   8  16  16  16
#     4  11  23  38  56  76 102 136 173 219 266 314
#     4  10  20  34  54  79 105 132 166 210 260 316
#     4  11  22  35  55  82 110 140 176 218 263 312
#     4  10  18  30  50  74 105 146 185 222 260 301
#     4  10  22  39  56  75 100 134 175 215 262 320
#     4  10  20  33  50  76 110 147 183 219 259 305
#     4  10  20  34  54  79 107 139 172 210 261 317
#
# _framework density 17.818535000000001
#
# number of rings (size 3 to 8) (size 9 to 14) (size 15 to 20)
#    0.000    1.692    1.538    4.385    0.000    7.077 
#    0.000    1.538    0.000    0.000    0.000    0.538 
#    0.000    4.308    0.000    0.000    0.000    0.000 
#
# Total GULP energy -644869.797813 kJ/mol
# GULP energy per Si atom -12401.342266 kJ/mol
# Density = 1.777798 g / cm^3
# Si number density = 17.818535 Si / 1000 Ang^3
#
#
#
# Elastic Constant Matrix: (Units=GPa)
#
#
# Indices 1 2 3 4 5 6 
#
# 1 67.1983 30.6741 41.7771 0.0000 0.0000 0.0000
# 2 30.6741 98.3065 50.9904 0.0000 0.0000 0.0000
# 3 41.7771 50.9904 122.2238 0.0000 0.0000 0.0000
# 4 0.0000 0.0000 0.0000 19.9674 0.0000 0.0000
# 5 0.0000 0.0000 0.0000 0.0000 27.1495 0.0000
# 6 0.0000 0.0000 0.0000 0.0000 0.0000 29.2578
#
#
#
# Elastic Compliance Matrix: (Units=1/GPa)
#
#
# Indices 1 2 3 4 5 6 
#
# 1 0.019747 -0.003395 -0.005333 0.000000 0.000000 0.000000
# 2 -0.003395 0.013565 -0.004499 0.000000 0.000000 0.000000
# 3 -0.005333 -0.004499 0.011881 0.000000 0.000000 0.000000
# 4 0.000000 0.000000 0.000000 0.050082 0.000000 0.000000
# 5 0.000000 0.000000 0.000000 0.000000 0.036833 0.000000
# 6 0.000000 0.000000 0.000000 0.000000 0.000000 0.034179
#
#
# Mechanical properties :
#
#
# Convention : Reuss Voigt Hill
#
# Bulk Modulus (GPa) = 53.36425 59.40129 56.38277
# Shear Modulus (GPa) = 25.12722 26.22741 25.67731
#
# Velocity S-wave (km/s) = 3.75930 3.84072 3.80023
# Velocity P-wave (km/s) = 6.98977 7.28542 7.13912
#
# Compressibility (1/GPa) = 0.01873914
#
# Stress axis : x y z
#
# Youngs Moduli (GPa) = 50.64123 73.71870 84.16505
#
# Poissons Ratio (x) = 0.25029 0.44886
# Poissons Ratio (y) = 0.17194 0.37863
# Poissons Ratio (z) = 0.27008 0.33164
#
# Static dielectric constant tensor:
#      x y z
#    x 3.375850 0.000000 0.000000 
#    y 0.000000 3.357950 0.000000 
#    z 0.000000 0.000000 3.481060 
# 
# 
# High freq. dielectric constant tensor:
#      x y z
#    x 1.704480 0.000000 0.000000 
#    y 0.000000 1.677770 0.000000 
#    z 0.000000 0.000000 1.677810 
# 
# From -- ./inp_files/60888.got.cif
#   From: 2010.03.12/outbox.cif.g09.slc.cpg/sg65_31_cif.got.tgz:60888.got - 2010.04.10 20:52:16.
