data_PCOD8266212
_publ_section_title
;
Structure prediction by ZEFSAII (Michael W. Deem and Ramdas Pophale) SiO2 
 PCOD8266212
Probable space group: C M M M
;
_chemical_formula_sum "Si O2"
_cell_formula_units_Z 64
_cell_length_a 8.052471
_cell_length_b 19.330152
_cell_length_c 22.478028
_cell_angle_alpha 90.000000
_cell_angle_beta 90.000000
_cell_angle_gamma 90.000000
_cell_volume 3498.828427
_symmetry_space_group_name_H-M "C M M M"
_symmetry_group_IT_number 65
_symmetry_cell_setting 'orthorhombic'
loop_
_space_group_symop_operation_xyz
x,y,z
-x,-y,z
x,-y,-z
-x,y,-z
-x,-y,-z
x,y,-z
-x,y,z
x,-y,z
1/2+x,1/2+y,z
1/2-x,1/2-y,z
1/2+x,1/2-y,-z
1/2-x,1/2+y,-z
1/2-x,1/2-y,-z
1/2+x,1/2+y,-z
1/2-x,1/2+y,z
1/2+x,1/2-y,z
loop_
_atom_site_type_symbol
_atom_site_label
_atom_site_fract_x
_atom_site_fract_y
_atom_site_fract_z
Si Si1 0.814912 0.582164 0.140878
Si Si2 0.500000 0.417454 0.067539
Si Si3 0.803346 0.920865 0.731596
Si Si4 0.693993 0.171449 0.500000
Si Si5 0.306701 0.328692 0.375040
O O1 0.807047 0.500000 0.138179
O O2 0.668216 0.611927 0.098656
O O3 0.782565 0.606575 0.208322
O O4 0.000000 0.607767 0.120880
O O5 0.500000 0.500000 0.070930
O O6 0.500000 0.390871 0.000000
O O7 0.729434 0.875005 0.677605
O O8 0.000000 0.913357 0.739588
O O9 0.754510 0.000000 0.718405
O O10 0.500000 0.165924 0.500000
O O11 0.750000 0.250000 0.500000
O O12 0.760561 0.137272 0.560943
O O13 0.500000 0.331248 0.367480
O O14 0.250000 0.250000 0.369469
#
# Coordination Sequence:
#
# PCOD8266212 Si02
#       5
#    16   8  16   8  16
#     4   9  16  26  42  63  89 124 160 194 237 286
#     4   9  16  26  40  60  92 127 159 197 234 281
#     4   9  17  31  49  67  91 126 162 195 237 288
#     4  10  18  30  47  64  89 121 155 191 239 290
#     4  10  19  31  49  70  93 121 154 198 241 287
#
# _framework density 18.291837999999998
#
# number of rings (size 3 to 8) (size 9 to 14) (size 15 to 20)
#    0.000    2.625    1.250    3.375    0.000    2.500 
#    0.000    3.125    0.000    3.750    0.000    0.000 
#    0.000    1.000    0.500    0.000    0.000    0.000 
#
# Total GULP energy -396560.564987 kJ/mol
# GULP energy per Si atom -12392.517656 kJ/mol
# Density = 1.825020 g / cm^3
# Si number density = 18.291838 Si / 1000 Ang^3
#
#
#
# Elastic Constant Matrix: (Units=GPa)
#
#
# Indices 1 2 3 4 5 6 
#
# 1 101.0133 16.5839 71.9739 0.0000 0.0000 0.0000
# 2 16.5839 30.5662 37.3533 0.0000 0.0000 0.0000
# 3 71.9739 37.3533 174.1937 0.0000 0.0000 0.0000
# 4 0.0000 0.0000 0.0000 8.2923 0.0000 0.0000
# 5 0.0000 0.0000 0.0000 0.0000 23.8430 0.0000
# 6 0.0000 0.0000 0.0000 0.0000 0.0000 11.9332
#
#
#
# Elastic Compliance Matrix: (Units=1/GPa)
#
#
# Indices 1 2 3 4 5 6 
#
# 1 0.014042 -0.000716 -0.005648 0.000000 0.000000 0.000000
# 2 -0.000716 0.044370 -0.009219 0.000000 0.000000 0.000000
# 3 -0.005648 -0.009219 0.010051 0.000000 0.000000 0.000000
# 4 0.000000 0.000000 0.000000 0.120593 0.000000 0.000000
# 5 0.000000 0.000000 0.000000 0.000000 0.041941 0.000000
# 6 0.000000 0.000000 0.000000 0.000000 0.000000 0.083800
#
#
# Mechanical properties :
#
#
# Convention : Reuss Voigt Hill
#
# Bulk Modulus (GPa) = 26.81172 61.95507 44.38339
# Shear Modulus (GPa) = 13.95107 20.80451 17.37779
#
# Velocity S-wave (km/s) = 2.76469 3.37614 3.08560
# Velocity P-wave (km/s) = 4.98808 7.01011 6.08369
#
# Compressibility (1/GPa) = 0.03729712
#
# Stress axis : x y z
#
# Youngs Moduli (GPa) = 71.21627 22.53781 99.48956
#
# Poissons Ratio (x) = 0.01614 0.56194
# Poissons Ratio (y) = 0.05099 0.91716
# Poissons Ratio (z) = 0.40225 0.20777
#
# Static dielectric constant tensor:
#      x y z
#    x 3.558800 0.000000 0.000000 
#    y 0.000000 2.588870 0.000000 
#    z 0.000000 0.000000 3.764340 
# 
# 
# High freq. dielectric constant tensor:
#      x y z
#    x 1.722120 0.000000 0.000000 
#    y 0.000000 1.634540 0.000000 
#    z 0.000000 0.000000 1.721530 
# 
# From -- ./inp_files/59479.got.cif
#   From: 2010.03.12/outbox.cif.g09.slc.cpg/sg65_30_cif.got.tgz:59479.got - 2010.04.10 20:52:16.
