data_PCOD8266099
_publ_section_title
;
Structure prediction by ZEFSAII (Michael W. Deem and Ramdas Pophale) SiO2 
 PCOD8266099
Probable space group: C M M M
;
_chemical_formula_sum "Si O2"
_cell_formula_units_Z 72
_cell_length_a 19.083179
_cell_length_b 8.545341
_cell_length_c 23.614317
_cell_angle_alpha 90.000000
_cell_angle_beta 90.000000
_cell_angle_gamma 90.000000
_cell_volume 3850.840323
_symmetry_space_group_name_H-M "C M M M"
_symmetry_group_IT_number 65
_symmetry_cell_setting 'orthorhombic'
loop_
_space_group_symop_operation_xyz
x,y,z
-x,-y,z
x,-y,-z
-x,y,-z
-x,-y,-z
x,y,-z
-x,y,z
x,-y,z
1/2+x,1/2+y,z
1/2-x,1/2-y,z
1/2+x,1/2-y,-z
1/2-x,1/2+y,-z
1/2-x,1/2-y,-z
1/2+x,1/2+y,-z
1/2-x,1/2+y,z
1/2+x,1/2-y,z
loop_
_atom_site_type_symbol
_atom_site_label
_atom_site_fract_x
_atom_site_fract_y
_atom_site_fract_z
Si Si1 0.672058 0.314420 0.895404
Si Si2 0.420823 0.314163 0.000000
Si Si3 0.078397 0.814079 0.562482
Si Si4 0.327696 0.685867 0.664138
Si Si5 0.671896 0.814560 0.779298
O O1 0.676629 0.500000 0.892904
O O2 0.750000 0.250000 0.906130
O O3 0.620983 0.254305 0.944941
O O4 0.637349 0.250248 0.837034
O O5 0.423683 0.500000 0.000000
O O6 0.500000 0.245656 0.000000
O O7 0.104458 0.759561 0.500000
O O8 0.128826 0.746495 0.611004
O O9 0.000000 0.750546 0.573213
O O10 0.078099 0.000000 0.565328
O O11 0.326474 0.500000 0.665790
O O12 0.250000 0.750000 0.657505
O O13 0.364330 0.749068 0.722054
O O14 0.750000 0.750000 0.778887
O O15 0.670673 0.000000 0.779128
#
# Coordination Sequence:
#
# PCOD8266099 Si02
#       5
#    16   8  16  16  16
#     4  10  18  31  53  76  98 124 159 199 235 279
#     4   9  19  34  51  73 100 129 160 196 236 277
#     4   8  15  29  48  69  93 123 161 201 236 275
#     4  10  18  29  48  73  99 125 155 194 240 285
#     4  10  18  30  48  70  98 127 158 196 236 280
#
# _framework density 18.697216999999998
#
# number of rings (size 3 to 8) (size 9 to 14) (size 15 to 20)
#    0.000    2.556    0.000    7.000    0.000    0.444 
#    0.000    2.778    0.000   16.667    0.000    6.222 
#    0.000    0.000    0.000    0.000    0.000    0.000 
#
# Total GULP energy -446169.910207 kJ/mol
# GULP energy per Si atom -12393.608617 kJ/mol
# Density = 1.865466 g / cm^3
# Si number density = 18.697217 Si / 1000 Ang^3
#
#
#
# Elastic Constant Matrix: (Units=GPa)
#
#
# Indices 1 2 3 4 5 6 
#
# 1 83.2517 21.4391 86.9485 0.0000 0.0000 0.0000
# 2 21.4391 82.5163 44.6655 0.0000 0.0000 0.0000
# 3 86.9485 44.6655 228.8587 0.0000 0.0000 0.0000
# 4 0.0000 0.0000 0.0000 22.9060 0.0000 0.0000
# 5 0.0000 0.0000 0.0000 0.0000 -4.9547 0.0000
# 6 0.0000 0.0000 0.0000 0.0000 0.0000 15.0113
#
#
#
# Elastic Compliance Matrix: (Units=1/GPa)
#
#
# Indices 1 2 3 4 5 6 
#
# 1 0.020021 -0.001213 -0.007370 0.000000 0.000000 0.000000
# 2 -0.001213 0.013624 -0.002198 0.000000 0.000000 0.000000
# 3 -0.007370 -0.002198 0.007598 0.000000 0.000000 0.000000
# 4 0.000000 0.000000 0.000000 0.043657 0.000000 0.000000
# 5 0.000000 0.000000 0.000000 0.000000 -0.201831 0.000000
# 6 0.000000 0.000000 0.000000 0.000000 0.000000 0.066616
#
#
# Mechanical properties :
#
#
# Convention : Reuss Voigt Hill
#
# Bulk Modulus (GPa) = 50.80757 77.85922 64.33339
# Shear Modulus (GPa) = -225.30235 22.69745 -101.30245
#
# Velocity S-wave (km/s) = -10.98918 3.48796 -7.36873
# Velocity P-wave (km/s) = 11.56647 7.61273 6.15750
#
# Compressibility (1/GPa) = 0.01968211
#
# Stress axis : x y z
#
# Youngs Moduli (GPa) = 49.94735 73.40124 131.60542
#
# Poissons Ratio (x) = 0.08901 0.96991
# Poissons Ratio (y) = 0.06057 0.28929
# Poissons Ratio (z) = 0.36810 0.16135
#
# Static dielectric constant tensor:
#      x y z
#    x 3.511200 0.000000 0.000000 
#    y 0.000000 3.198510 0.000000 
#    z 0.000000 0.000000 4.464740 
# 
# 
# High freq. dielectric constant tensor:
#      x y z
#    x 1.685990 0.000000 0.000000 
#    y 0.000000 1.708610 0.000000 
#    z 0.000000 0.000000 1.755040 
# 
# From -- ./inp_files/70343.got.cif
#   From: 2010.03.12/outbox.cif.g09.slc.cpg/sg65_36_cif.got.tgz:70343.got - 2010.04.10 20:52:16.
