data_PCOD8266268
_publ_section_title
;
Structure prediction by ZEFSAII (Michael W. Deem and Ramdas Pophale) SiO2 
 PCOD8266268
Probable space group: C M M M
;
_chemical_formula_sum "Si O2"
_cell_formula_units_Z 104
_cell_length_a 25.357408
_cell_length_b 9.243425
_cell_length_c 29.880669
_cell_angle_alpha 90.000000
_cell_angle_beta 90.000000
_cell_angle_gamma 90.000000
_cell_volume 7003.709062
_symmetry_space_group_name_H-M "C M M M"
_symmetry_group_IT_number 65
_symmetry_cell_setting 'orthorhombic'
loop_
_space_group_symop_operation_xyz
x,y,z
-x,-y,z
x,-y,-z
-x,y,-z
-x,-y,-z
x,y,-z
-x,y,z
x,-y,z
1/2+x,1/2+y,z
1/2-x,1/2-y,z
1/2+x,1/2-y,-z
1/2-x,1/2+y,-z
1/2-x,1/2-y,-z
1/2+x,1/2+y,-z
1/2-x,1/2+y,z
1/2+x,1/2-y,z
loop_
_atom_site_type_symbol
_atom_site_label
_atom_site_fract_x
_atom_site_fract_y
_atom_site_fract_z
Si Si1 0.937301 0.162532 0.549369
Si Si2 0.060452 0.334416 0.195549
Si Si3 0.000000 0.671847 0.050276
Si Si4 0.103993 0.668745 0.900191
Si Si5 0.937202 0.163010 0.718613
Si Si6 0.196009 0.169147 0.948551
Si Si7 0.437024 0.837277 0.366617
O O1 0.918774 0.215836 0.500000
O O2 0.914359 0.266947 0.587727
O O3 0.000000 0.163069 0.551475
O O4 0.916696 0.000000 0.558210
O O5 0.063612 0.500000 0.211398
O O6 0.096924 0.307124 0.152650
O O7 0.082858 0.237025 0.235774
O O8 0.000000 0.294983 0.183324
O O9 0.947965 0.728626 0.075026
O O10 0.000000 0.500000 0.051607
O O11 0.000000 0.732684 0.000000
O O12 0.113927 0.500000 0.911484
O O13 0.152413 0.764431 0.916210
O O14 0.914851 0.248684 0.675767
O O15 0.000000 0.166308 0.717657
O O16 0.915501 0.000000 0.716818
O O17 0.250000 0.250000 0.937537
O O18 0.203047 0.000000 0.938239
O O19 0.179331 0.195549 0.000000
O O20 0.500000 0.834868 0.366734
O O21 0.415468 0.000000 0.363562
#
# Coordination Sequence:
#
# PCOD8266268 Si02
#       7
#    16  16   8  16  16  16  16
#     4   8  13  20  28  37  51  72  98 132 177 227
#     4   9  16  27  41  58  81 105 131 159 191 233
#     4   9  16  26  43  67  91 115 141 163 190 237
#     4  10  18  30  48  69  90 114 140 168 201 241
#     4   9  16  24  34  47  64  89 120 151 186 227
#     4  10  21  36  52  69  88 111 140 173 207 242
#     4   9  15  21  29  41  56  76 105 142 183 225
#
# _framework density 14.849275
#
# number of rings (size 3 to 8) (size 9 to 14) (size 15 to 20)
#    0.000    2.846    0.769    2.308    0.000    6.154 
#    0.000    1.923    0.000    1.385    0.000    0.000 
#    0.000    0.000    0.000    0.000    0.000    0.000 
#
# Total GULP energy -644660.940133 kJ/mol
# GULP energy per Si atom -12397.325772 kJ/mol
# Density = 1.481548 g / cm^3
# Si number density = 14.849275 Si / 1000 Ang^3
#
#
#
# Elastic Constant Matrix: (Units=GPa)
#
#
# Indices 1 2 3 4 5 6 
#
# 1 43.6822 31.9918 32.6105 0.0000 0.0000 0.0000
# 2 31.9918 109.0641 72.2351 0.0000 0.0000 0.0000
# 3 32.6105 72.2351 123.2153 0.0000 0.0000 0.0000
# 4 0.0000 0.0000 0.0000 30.0270 0.0000 0.0000
# 5 0.0000 0.0000 0.0000 0.0000 5.1491 0.0000
# 6 0.0000 0.0000 0.0000 0.0000 0.0000 14.6340
#
#
#
# Elastic Compliance Matrix: (Units=1/GPa)
#
#
# Indices 1 2 3 4 5 6 
#
# 1 0.030706 -0.005925 -0.004653 0.000000 0.000000 0.000000
# 2 -0.005925 0.016132 -0.007889 0.000000 0.000000 0.000000
# 3 -0.004653 -0.007889 0.013973 0.000000 0.000000 0.000000
# 4 0.000000 0.000000 0.000000 0.033303 0.000000 0.000000
# 5 0.000000 0.000000 0.000000 0.000000 0.194210 0.000000
# 6 0.000000 0.000000 0.000000 0.000000 0.000000 0.068334
#
#
# Mechanical properties :
#
#
# Convention : Reuss Voigt Hill
#
# Bulk Modulus (GPa) = 41.88416 61.07071 51.47743
# Shear Modulus (GPa) = 12.45169 19.23696 15.84432
#
# Velocity S-wave (km/s) = 2.89889 3.60318 3.27006
# Velocity P-wave (km/s) = 6.28269 7.65029 6.99997
#
# Compressibility (1/GPa) = 0.02387538
#
# Stress axis : x y z
#
# Youngs Moduli (GPa) = 32.56717 61.98787 71.56910
#
# Poissons Ratio (x) = 0.36729 0.33302
# Poissons Ratio (y) = 0.19296 0.56463
# Poissons Ratio (z) = 0.15154 0.48904
#
# Static dielectric constant tensor:
#      x y z
#    x 2.304520 0.000000 0.000000 
#    y 0.000000 2.944250 0.000000 
#    z 0.000000 0.000000 3.067920 
# 
# 
# High freq. dielectric constant tensor:
#      x y z
#    x 1.488540 0.000000 0.000000 
#    y 0.000000 1.572070 0.000000 
#    z 0.000000 0.000000 1.580970 
# 
# From -- ./inp_files/78472.got.cif
#   From: 2010.03.12/outbox.cif.g09.slc.cpg/sg65_40_cif.got.tgz:78472.got - 2010.04.10 20:52:16.
