data_PCOD8266936
_publ_section_title
;
Structure prediction by ZEFSAII (Michael W. Deem and Ramdas Pophale) SiO2 
 PCOD8266936
Probable space group: C M M M
;
_chemical_formula_sum "Si O2"
_cell_formula_units_Z 88
_cell_length_a 21.656425
_cell_length_b 24.075964
_cell_length_c 9.261049
_cell_angle_alpha 90.000000
_cell_angle_beta 90.000000
_cell_angle_gamma 90.000000
_cell_volume 4828.704546
_symmetry_space_group_name_H-M "C M M M"
_symmetry_group_IT_number 65
_symmetry_cell_setting 'orthorhombic'
loop_
_space_group_symop_operation_xyz
x,y,z
-x,-y,z
x,-y,-z
-x,y,-z
-x,-y,-z
x,y,-z
-x,y,z
x,-y,z
1/2+x,1/2+y,z
1/2-x,1/2-y,z
1/2+x,1/2-y,-z
1/2-x,1/2+y,-z
1/2-x,1/2-y,-z
1/2+x,1/2+y,-z
1/2-x,1/2+y,z
1/2+x,1/2-y,z
loop_
_atom_site_type_symbol
_atom_site_label
_atom_site_fract_x
_atom_site_fract_y
_atom_site_fract_z
Si Si1 0.729143 0.690950 0.664955
Si Si2 0.067662 0.740356 0.163968
Si Si3 0.096392 0.846066 0.328389
Si Si4 0.929669 0.564016 0.838344
Si Si5 0.500000 0.562610 0.329667
Si Si6 0.859167 0.650514 0.665162
O O1 0.713471 0.705418 0.500000
O O2 0.750000 0.750000 0.738812
O O3 0.667887 0.660242 0.727257
O O4 0.785202 0.647616 0.680005
O O5 0.059713 0.798016 0.247085
O O6 0.116595 0.702598 0.245535
O O7 0.000000 0.711402 0.164788
O O8 0.090295 0.749998 0.000000
O O9 0.090480 0.838256 0.500000
O O10 0.062758 0.904036 0.282910
O O11 0.911781 0.500000 0.836890
O O12 0.885061 0.593365 0.726006
O O13 0.000000 0.572874 0.789022
O O14 0.920227 0.588280 0.000000
O O15 0.500000 0.500000 0.261295
O O16 0.500000 0.556649 0.500000
O O17 0.879917 0.657845 0.500000
#
# Coordination Sequence:
#
# PCOD8266936 Si02
#       6
#    16  16  16  16   8  16
#     4   9  17  31  50  75 109 141 170 211 265 319
#     4  11  22  33  48  75 110 139 171 217 268 317
#     4  10  18  33  56  77 101 136 176 218 267 318
#     4   9  19  37  57  75 102 141 179 218 266 311
#     4   9  18  32  55  85 107 129 174 227 268 313
#     4  11  21  33  52  78 108 140 178 216 260 316
#
# _framework density 18.224349
#
# number of rings (size 3 to 8) (size 9 to 14) (size 15 to 20)
#    0.000    2.091    2.727    2.182    0.000    4.000 
#    0.000    4.545    0.000    4.364    0.000    0.000 
#    0.000    0.000    0.000    0.000    0.000    0.000 
#
# Total GULP energy -545262.275365 kJ/mol
# GULP energy per Si atom -12392.324440 kJ/mol
# Density = 1.818287 g / cm^3
# Si number density = 18.224349 Si / 1000 Ang^3
#
#
#
# Elastic Constant Matrix: (Units=GPa)
#
#
# Indices 1 2 3 4 5 6 
#
# 1 128.1195 57.4417 35.4187 0.0000 0.0000 0.0000
# 2 57.4417 102.6424 30.1090 0.0000 0.0000 0.0000
# 3 35.4187 30.1090 69.5944 0.0000 0.0000 0.0000
# 4 0.0000 0.0000 0.0000 19.6750 0.0000 0.0000
# 5 0.0000 0.0000 0.0000 0.0000 3.2393 0.0000
# 6 0.0000 0.0000 0.0000 0.0000 0.0000 18.6386
#
#
#
# Elastic Compliance Matrix: (Units=1/GPa)
#
#
# Indices 1 2 3 4 5 6 
#
# 1 0.011074 -0.005205 -0.003384 0.000000 0.000000 0.000000
# 2 -0.005205 0.013605 -0.003237 0.000000 0.000000 0.000000
# 3 -0.003384 -0.003237 0.017492 0.000000 0.000000 0.000000
# 4 0.000000 0.000000 0.000000 0.050826 0.000000 0.000000
# 5 0.000000 0.000000 0.000000 0.000000 0.308709 0.000000
# 6 0.000000 0.000000 0.000000 0.000000 0.000000 0.053652
#
#
# Mechanical properties :
#
#
# Convention : Reuss Voigt Hill
#
# Bulk Modulus (GPa) = 53.99942 60.69945 57.34944
# Shear Modulus (GPa) = 10.30539 20.13638 15.22089
#
# Velocity S-wave (km/s) = 2.38055 3.32763 2.89311
# Velocity P-wave (km/s) = 6.10334 6.93854 6.53429
#
# Compressibility (1/GPa) = 0.01851872
#
# Stress axis : x y z
#
# Youngs Moduli (GPa) = 90.29894 73.50313 57.16962
#
# Poissons Ratio (x) = 0.38257 0.19348
# Poissons Ratio (y) = 0.46999 0.18506
# Poissons Ratio (z) = 0.30560 0.23794
#
# Static dielectric constant tensor:
#      x y z
#    x 3.543960 0.000000 0.000000 
#    y 0.000000 3.357670 0.000000 
#    z 0.000000 0.000000 3.235880 
# 
# 
# High freq. dielectric constant tensor:
#      x y z
#    x 1.713880 0.000000 0.000000 
#    y 0.000000 1.689800 0.000000 
#    z 0.000000 0.000000 1.681000 
# 
# From -- ./inp_files/11828.got.cif
#   From: 2010.03.12/outbox.cif.g09.slc.cpg/sg65_6_cif.got.tgz:11828.got - 2010.04.10 20:52:16.
