data_PCOD8266347
_publ_section_title
;
Structure prediction by ZEFSAII (Michael W. Deem and Ramdas Pophale) SiO2 
 PCOD8266347
Probable space group: C M M M
;
_chemical_formula_sum "Si O2"
_cell_formula_units_Z 96
_cell_length_a 19.384284
_cell_length_b 22.899301
_cell_length_c 12.806415
_cell_angle_alpha 90.000000
_cell_angle_beta 90.000000
_cell_angle_gamma 90.000000
_cell_volume 5684.595423
_symmetry_space_group_name_H-M "C M M M"
_symmetry_group_IT_number 65
_symmetry_cell_setting 'orthorhombic'
loop_
_space_group_symop_operation_xyz
x,y,z
-x,-y,z
x,-y,-z
-x,y,-z
-x,-y,-z
x,y,-z
-x,y,z
x,-y,z
1/2+x,1/2+y,z
1/2-x,1/2-y,z
1/2+x,1/2-y,-z
1/2-x,1/2+y,-z
1/2-x,1/2-y,-z
1/2+x,1/2+y,-z
1/2-x,1/2+y,z
1/2+x,1/2-y,z
loop_
_atom_site_type_symbol
_atom_site_label
_atom_site_fract_x
_atom_site_fract_y
_atom_site_fract_z
Si Si1 0.702764 0.431397 0.000000
Si Si2 0.764776 0.346770 0.383608
Si Si3 0.421908 0.745207 0.170937
Si Si4 0.139415 0.760049 0.384076
Si Si5 0.082388 0.843958 0.000000
Si Si6 0.921481 0.372016 0.121527
Si Si7 0.292219 0.068049 0.800212
O O1 0.626761 0.402971 0.000000
O O2 0.746455 0.411882 0.898878
O O3 0.689920 0.500000 0.000000
O O4 0.764550 0.373922 0.500000
O O5 0.830699 0.304938 0.370588
O O6 0.697421 0.308095 0.366289
O O7 0.765200 0.399016 0.301918
O O8 0.500000 0.751736 0.135706
O O9 0.416714 0.730299 0.293751
O O10 0.388330 0.807755 0.142641
O O11 0.392232 0.692637 0.101289
O O12 0.106358 0.766741 0.500000
O O13 0.000000 0.858670 0.000000
O O14 0.872782 0.418373 0.179592
O O15 0.000000 0.377445 0.165620
O O16 0.920988 0.386468 0.000000
O O17 0.283955 0.000000 0.778001
#
# Coordination Sequence:
#
# PCOD8266347 Si02
#       7
#     8  16  16  16   8  16  16
#     4  10  22  36  50  75 103 127 161 205 247 290
#     4   9  18  32  49  70  95 126 163 201 247 295
#     4  10  18  30  49  74 101 127 159 200 242 292
#     4   9  17  30  49  71  96 125 159 200 246 298
#     4  10  20  34  53  76 101 131 161 191 244 309
#     4  10  19  33  50  70 101 135 165 201 247 292
#     4  11  21  34  51  72 100 130 168 212 244 283
#
# _framework density 16.887746
#
# number of rings (size 3 to 8) (size 9 to 14) (size 15 to 20)
#    0.000    2.167    3.333    2.000    0.000    1.167 
#    0.000    1.667    0.000    0.500    0.000    1.167 
#    0.000    0.000    0.000   31.000    0.000    0.000 
#
# Total GULP energy -595012.751871 kJ/mol
# GULP energy per Si atom -12396.098997 kJ/mol
# Density = 1.684931 g / cm^3
# Si number density = 16.887746 Si / 1000 Ang^3
#
#
#
# Elastic Constant Matrix: (Units=GPa)
#
#
# Indices 1 2 3 4 5 6 
#
# 1 51.1235 31.7789 24.7122 0.0000 0.0000 0.0000
# 2 31.7789 77.8942 50.2674 0.0000 0.0000 0.0000
# 3 24.7122 50.2674 125.2181 0.0000 0.0000 0.0000
# 4 0.0000 0.0000 0.0000 29.2302 0.0000 0.0000
# 5 0.0000 0.0000 0.0000 0.0000 25.9146 0.0000
# 6 0.0000 0.0000 0.0000 0.0000 0.0000 20.6986
#
#
#
# Elastic Compliance Matrix: (Units=1/GPa)
#
#
# Indices 1 2 3 4 5 6 
#
# 1 0.026338 -0.009975 -0.001194 0.000000 0.000000 0.000000
# 2 -0.009975 0.021104 -0.006504 0.000000 0.000000 0.000000
# 3 -0.001194 -0.006504 0.010832 0.000000 0.000000 0.000000
# 4 0.000000 0.000000 0.000000 0.034211 0.000000 0.000000
# 5 0.000000 0.000000 0.000000 0.000000 0.038588 0.000000
# 6 0.000000 0.000000 0.000000 0.000000 0.000000 0.048312
#
#
# Mechanical properties :
#
#
# Convention : Reuss Voigt Hill
#
# Bulk Modulus (GPa) = 43.60982 51.97255 47.79119
# Shear Modulus (GPa) = 22.48459 25.00049 23.74254
#
# Velocity S-wave (km/s) = 3.65281 3.85176 3.75361
# Velocity P-wave (km/s) = 6.60834 7.11502 6.86636
#
# Compressibility (1/GPa) = 0.02293062
#
# Stress axis : x y z
#
# Youngs Moduli (GPa) = 37.96792 47.38341 92.31581
#
# Poissons Ratio (x) = 0.47265 0.11018
# Poissons Ratio (y) = 0.37873 0.60038
# Poissons Ratio (z) = 0.04532 0.30816
#
# Static dielectric constant tensor:
#      x y z
#    x 2.961880 0.000000 0.000000 
#    y 0.000000 3.008490 0.000000 
#    z 0.000000 0.000000 3.258020 
# 
# 
# High freq. dielectric constant tensor:
#      x y z
#    x 1.632490 0.000000 0.000000 
#    y 0.000000 1.635990 0.000000 
#    z 0.000000 0.000000 1.660240 
# 
# From -- ./inp_files/29100.got.cif
#   From: 2010.03.12/outbox.cif.g09.slc.cpg/sg65_15_cif.got.tgz:29100.got - 2010.04.10 20:52:16.
