data_PCOD8266813
_publ_section_title
;
Structure prediction by ZEFSAII (Michael W. Deem and Ramdas Pophale) SiO2 
 PCOD8266813
Probable space group: C M M M
;
_chemical_formula_sum "Si O2"
_cell_formula_units_Z 80
_cell_length_a 8.640380
_cell_length_b 19.194672
_cell_length_c 25.876267
_cell_angle_alpha 90.000000
_cell_angle_beta 90.000000
_cell_angle_gamma 90.000000
_cell_volume 4291.559735
_symmetry_space_group_name_H-M "C M M M"
_symmetry_group_IT_number 65
_symmetry_cell_setting 'orthorhombic'
loop_
_space_group_symop_operation_xyz
x,y,z
-x,-y,z
x,-y,-z
-x,y,-z
-x,-y,-z
x,y,-z
-x,y,z
x,-y,z
1/2+x,1/2+y,z
1/2-x,1/2-y,z
1/2+x,1/2-y,-z
1/2-x,1/2+y,-z
1/2-x,1/2-y,-z
1/2+x,1/2+y,-z
1/2-x,1/2+y,z
1/2+x,1/2-y,z
loop_
_atom_site_type_symbol
_atom_site_label
_atom_site_fract_x
_atom_site_fract_y
_atom_site_fract_z
Si Si1 0.820606 0.419817 0.201035
Si Si2 0.316884 0.672588 0.888090
Si Si3 0.818667 0.326201 0.604318
Si Si4 0.320966 0.675385 0.000000
Si Si5 0.683263 0.327232 0.500000
Si Si6 0.321035 0.581180 0.691247
O O1 0.786833 0.500000 0.188051
O O2 0.767183 0.375832 0.152496
O O3 0.723964 0.395902 0.250993
O O4 0.000000 0.406396 0.212635
O O5 0.500000 0.673864 0.877677
O O6 0.250000 0.750000 0.883035
O O7 0.276752 0.639135 0.945213
O O8 0.750000 0.250000 0.615164
O O9 0.745911 0.362278 0.552728
O O10 0.783671 0.375939 0.652023
O O11 0.000000 0.318267 0.596326
O O12 0.250000 0.750000 0.000000
O O13 0.500000 0.689300 0.000000
O O14 0.500000 0.328459 0.500000
O O15 0.750000 0.250000 0.500000
O O16 0.500000 0.598669 0.681607
O O17 0.284624 0.500000 0.682977
#
# Coordination Sequence:
#
# PCOD8266813 Si02
#       6
#    16  16  16   8   8  16
#     4  10  21  37  55  76 104 138 175 215 261 312
#     4  10  19  33  54  79 106 136 173 215 260 309
#     4  11  21  35  56  82 111 141 177 218 261 309
#     4   8  16  30  49  74 103 135 169 209 257 308
#     4  10  18  32  53  78 109 142 177 215 261 311
#     4  10  21  38  58  79 105 138 175 216 265 317
#
# _framework density 18.641241000000001
#
# number of rings (size 3 to 8) (size 9 to 14) (size 15 to 20)
#    0.000    2.000    0.000    5.700    0.000    4.000 
#    0.000    5.000    0.000    6.000    0.000    0.000 
#    0.000    0.000    0.000    0.000    0.000    0.000 
#
# Total GULP energy -495825.406658 kJ/mol
# GULP energy per Si atom -12395.635166 kJ/mol
# Density = 1.859881 g / cm^3
# Si number density = 18.641241 Si / 1000 Ang^3
#
#
#
# Elastic Constant Matrix: (Units=GPa)
#
#
# Indices 1 2 3 4 5 6 
#
# 1 104.1296 31.5202 42.9608 0.0000 0.0000 0.0000
# 2 31.5202 53.1858 56.8822 0.0000 0.0000 0.0000
# 3 42.9608 56.8822 145.8420 0.0000 0.0000 0.0000
# 4 0.0000 0.0000 0.0000 -55.4117 0.0000 0.0000
# 5 0.0000 0.0000 0.0000 0.0000 34.3212 0.0000
# 6 0.0000 0.0000 0.0000 0.0000 0.0000 26.7467
#
#
#
# Elastic Compliance Matrix: (Units=1/GPa)
#
#
# Indices 1 2 3 4 5 6 
#
# 1 0.011842 -0.005640 -0.001289 0.000000 0.000000 0.000000
# 2 -0.005640 0.034944 -0.011968 0.000000 0.000000 0.000000
# 3 -0.001289 -0.011968 0.011904 0.000000 0.000000 0.000000
# 4 0.000000 0.000000 0.000000 -0.018047 0.000000 0.000000
# 5 0.000000 0.000000 0.000000 0.000000 0.029137 0.000000
# 6 0.000000 0.000000 0.000000 0.000000 0.000000 0.037388
#
#
# Mechanical properties :
#
#
# Convention : Reuss Voigt Hill
#
# Bulk Modulus (GPa) = 47.85242 62.87597 55.36420
# Shear Modulus (GPa) = 32.91067 12.58420 22.74743
#
# Velocity S-wave (km/s) = 4.20632 2.60104 3.49703
# Velocity P-wave (km/s) = 7.02259 6.54395 6.78749
#
# Compressibility (1/GPa) = 0.02089758
#
# Stress axis : x y z
#
# Youngs Moduli (GPa) = 84.44286 28.61725 84.00520
#
# Poissons Ratio (x) = 0.16140 0.10825
# Poissons Ratio (y) = 0.47626 1.00535
# Poissons Ratio (z) = 0.10881 0.34248
#
# Static dielectric constant tensor:
#      x y z
#    x 3.545270 0.000000 0.000000 
#    y 0.000000 3.114960 0.000000 
#    z 0.000000 0.000000 4.210320 
# 
# 
# High freq. dielectric constant tensor:
#      x y z
#    x 1.742510 0.000000 0.000000 
#    y 0.000000 1.687370 0.000000 
#    z 0.000000 0.000000 1.747410 
# 
# From -- ./inp_files/67321.got.cif
#   From: 2010.03.12/outbox.cif.g09.slc.cpg/sg65_34_cif.got.tgz:67321.got - 2010.04.10 20:52:16.
