data_PCOD8266509
_publ_section_title
;
Structure prediction by ZEFSAII (Michael W. Deem and Ramdas Pophale) SiO2 
 PCOD8266509
Probable space group: C M M M
;
_chemical_formula_sum "Si O2"
_cell_formula_units_Z 96
_cell_length_a 14.505201
_cell_length_b 21.551221
_cell_length_c 15.951747
_cell_angle_alpha 90.000000
_cell_angle_beta 90.000000
_cell_angle_gamma 90.000000
_cell_volume 4986.592559
_symmetry_space_group_name_H-M "C M M M"
_symmetry_group_IT_number 65
_symmetry_cell_setting 'orthorhombic'
loop_
_space_group_symop_operation_xyz
x,y,z
-x,-y,z
x,-y,-z
-x,y,-z
-x,-y,-z
x,y,-z
-x,y,z
x,-y,z
1/2+x,1/2+y,z
1/2-x,1/2-y,z
1/2+x,1/2-y,-z
1/2-x,1/2+y,-z
1/2-x,1/2-y,-z
1/2+x,1/2+y,-z
1/2-x,1/2+y,z
1/2+x,1/2-y,z
loop_
_atom_site_type_symbol
_atom_site_label
_atom_site_fract_x
_atom_site_fract_y
_atom_site_fract_z
Si Si1 0.850786 0.750764 0.903228
Si Si2 0.893253 0.222816 0.375516
Si Si3 0.286376 0.152582 0.408277
Si Si4 0.901351 0.151046 0.786304
Si Si5 0.103119 0.613415 0.095516
Si Si6 0.228284 0.571679 0.753397
O O1 0.750000 0.750000 0.859446
O O2 0.903638 0.812202 0.873539
O O3 0.901875 0.686495 0.883525
O O4 0.839158 0.761563 0.000000
O O5 0.820504 0.174646 0.416419
O O6 0.858012 0.291731 0.392871
O O7 0.886753 0.208221 0.277514
O O8 0.000000 0.214689 0.408134
O O9 0.309455 0.122959 0.500000
O O10 0.304521 0.104703 0.332462
O O11 0.826654 0.097488 0.781585
O O12 0.000000 0.118007 0.771711
O O13 0.161207 0.579251 0.167019
O O14 0.000000 0.586535 0.100015
O O15 0.142556 0.602697 0.000000
O O16 0.238006 0.500000 0.731462
#
# Coordination Sequence:
#
# PCOD8266509 Si02
#       6
#    16  16  16  16  16  16
#     4  10  18  30  53  84 115 141 167 212 278 342
#     4   9  18  33  56  85 114 140 169 219 284 341
#     4  10  21  35  55  84 112 142 183 223 271 336
#     4  10  20  34  55  81 110 145 183 224 275 334
#     4  10  21  38  61  87 112 141 180 226 278 334
#     4  11  24  40  56  75 108 151 193 237 273 309
#
# _framework density 19.251622999999999
#
# number of rings (size 3 to 8) (size 9 to 14) (size 15 to 20)
#    0.000    2.000    1.667    2.500    2.333    5.667 
#    0.000    0.833    0.000    0.000    0.000    9.333 
#    0.000    0.000    0.000    0.000    0.000    0.000 
#
# Total GULP energy -594668.398644 kJ/mol
# GULP energy per Si atom -12388.924972 kJ/mol
# Density = 1.920781 g / cm^3
# Si number density = 19.251623 Si / 1000 Ang^3
#
#
#
# Elastic Constant Matrix: (Units=GPa)
#
#
# Indices 1 2 3 4 5 6 
#
# 1 111.2809 23.0030 38.8909 0.0000 0.0000 0.0000
# 2 23.0030 89.7820 54.4156 0.0000 0.0000 0.0000
# 3 38.8909 54.4156 78.0859 0.0000 0.0000 0.0000
# 4 0.0000 0.0000 0.0000 4.3031 0.0000 0.0000
# 5 0.0000 0.0000 0.0000 0.0000 10.8223 0.0000
# 6 0.0000 0.0000 0.0000 0.0000 0.0000 -9.8928
#
#
#
# Elastic Compliance Matrix: (Units=1/GPa)
#
#
# Indices 1 2 3 4 5 6 
#
# 1 0.010919 0.000863 -0.006039 0.000000 0.000000 0.000000
# 2 0.000863 0.019350 -0.013914 0.000000 0.000000 0.000000
# 3 -0.006039 -0.013914 0.025511 0.000000 0.000000 0.000000
# 4 0.000000 0.000000 0.000000 0.232392 0.000000 0.000000
# 5 0.000000 0.000000 0.000000 0.000000 0.092402 0.000000
# 6 0.000000 0.000000 0.000000 0.000000 0.000000 -0.101084
#
#
# Mechanical properties :
#
#
# Convention : Reuss Voigt Hill
#
# Bulk Modulus (GPa) = 56.82453 56.86308 56.84381
# Shear Modulus (GPa) = 15.45418 11.90248 13.67833
#
# Velocity S-wave (km/s) = 2.83635 2.48918 2.66842
# Velocity P-wave (km/s) = 6.34881 6.15323 6.25178
#
# Compressibility (1/GPa) = 0.01759803
#
# Stress axis : x y z
#
# Youngs Moduli (GPa) = 91.58724 51.67881 39.19906
#
# Poissons Ratio (x) = -0.04460 0.23674
# Poissons Ratio (y) = -0.07903 0.54543
# Poissons Ratio (z) = 0.55313 0.71908
#
# Static dielectric constant tensor:
#      x y z
#    x 3.777410 0.000000 0.000000 
#    y 0.000000 3.111300 0.000000 
#    z 0.000000 0.000000 3.687990 
# 
# 
# High freq. dielectric constant tensor:
#      x y z
#    x 1.756040 0.000000 0.000000 
#    y 0.000000 1.705960 0.000000 
#    z 0.000000 0.000000 1.760890 
# 
# From -- ./inp_files/40374.got.cif
#   From: 2010.03.12/outbox.cif.g09.slc.cpg/sg65_21_cif.got.tgz:40374.got - 2010.04.10 20:52:16.
