data_PCOD8266517
_publ_section_title
;
Structure prediction by ZEFSAII (Michael W. Deem and Ramdas Pophale) SiO2 
 PCOD8266517
Probable space group: C M M M
;
_chemical_formula_sum "Si O2"
_cell_formula_units_Z 88
_cell_length_a 30.691275
_cell_length_b 23.581474
_cell_length_c 8.838460
_cell_angle_alpha 90.000000
_cell_angle_beta 90.000000
_cell_angle_gamma 90.000000
_cell_volume 6396.795682
_symmetry_space_group_name_H-M "C M M M"
_symmetry_group_IT_number 65
_symmetry_cell_setting 'orthorhombic'
loop_
_space_group_symop_operation_xyz
x,y,z
-x,-y,z
x,-y,-z
-x,y,-z
-x,-y,-z
x,y,-z
-x,y,z
x,-y,z
1/2+x,1/2+y,z
1/2-x,1/2-y,z
1/2+x,1/2-y,-z
1/2-x,1/2+y,-z
1/2-x,1/2-y,-z
1/2+x,1/2+y,-z
1/2-x,1/2+y,z
1/2+x,1/2-y,z
loop_
_atom_site_type_symbol
_atom_site_label
_atom_site_fract_x
_atom_site_fract_y
_atom_site_fract_z
Si Si1 0.261462 0.000000 0.680120
Si Si2 0.500000 0.934723 0.178311
Si Si3 0.754282 0.616231 0.177888
Si Si4 0.640966 0.000000 0.321251
Si Si5 0.414225 0.894800 0.676978
Si Si6 0.207463 0.211927 0.333153
Si Si7 0.835458 0.678183 0.677761
O O1 0.239818 0.056911 0.746312
O O2 0.310667 0.000000 0.744248
O O3 0.257533 0.000000 0.500000
O O4 0.540914 0.897653 0.232811
O O5 0.500000 0.000000 0.243151
O O6 0.500000 0.937484 0.000000
O O7 0.715532 0.660513 0.217953
O O8 0.801084 0.637625 0.237742
O O9 0.756946 0.608879 0.000000
O O10 0.615451 0.054318 0.262235
O O11 0.644235 0.000000 0.500000
O O12 0.425078 0.900139 0.500000
O O13 0.385644 0.838625 0.713551
O O14 0.196061 0.187516 0.500000
O O15 0.250000 0.250000 0.344863
O O16 0.169734 0.255437 0.275635
O O17 0.825483 0.669489 0.500000
#
# Coordination Sequence:
#
# PCOD8266517 Si02
#       7
#     8   8  16   8  16  16  16
#     4  11  19  31  44  56  77 106 137 167 201 240
#     4  11  23  33  39  55  81 105 127 162 211 254
#     4  11  20  27  38  60  84 103 127 161 202 241
#     4   9  16  26  44  59  70  92 131 171 202 236
#     4  10  18  31  47  60  71  96 135 171 203 243
#     4   8  15  28  43  57  75 101 130 160 194 234
#     4   9  17  30  46  60  74  98 134 168 199 238
#
# _framework density 13.756887000000001
#
# number of rings (size 3 to 8) (size 9 to 14) (size 15 to 20)
#    0.000    2.273    2.727    3.273    0.000    4.364 
#    0.000    0.000    0.000    0.000    0.000    0.000 
#    0.000    0.000    0.000    0.000    0.000    0.909 
#
# Total GULP energy -545305.853333 kJ/mol
# GULP energy per Si atom -12393.314848 kJ/mol
# Density = 1.372558 g / cm^3
# Si number density = 13.756887 Si / 1000 Ang^3
#
#
#
# Elastic Constant Matrix: (Units=GPa)
#
#
# Indices 1 2 3 4 5 6 
#
# 1 64.5117 45.6540 22.8855 0.0000 0.0000 0.0000
# 2 45.6540 92.9405 40.9227 0.0000 0.0000 0.0000
# 3 22.8855 40.9227 69.2503 0.0000 0.0000 0.0000
# 4 0.0000 0.0000 0.0000 14.2085 0.0000 0.0000
# 5 0.0000 0.0000 0.0000 0.0000 10.9522 0.0000
# 6 0.0000 0.0000 0.0000 0.0000 0.0000 37.8673
#
#
#
# Elastic Compliance Matrix: (Units=1/GPa)
#
#
# Indices 1 2 3 4 5 6 
#
# 1 0.023847 -0.011143 -0.001296 0.000000 0.000000 0.000000
# 2 -0.011143 0.019751 -0.007989 0.000000 0.000000 0.000000
# 3 -0.001296 -0.007989 0.019590 0.000000 0.000000 0.000000
# 4 0.000000 0.000000 0.000000 0.070380 0.000000 0.000000
# 5 0.000000 0.000000 0.000000 0.000000 0.091305 0.000000
# 6 0.000000 0.000000 0.000000 0.000000 0.000000 0.026408
#
#
# Mechanical properties :
#
#
# Convention : Reuss Voigt Hill
#
# Bulk Modulus (GPa) = 44.78058 49.51411 47.14734
# Shear Modulus (GPa) = 16.68995 20.42162 18.55579
#
# Velocity S-wave (km/s) = 3.48689 3.85706 3.67663
# Velocity P-wave (km/s) = 6.98808 7.47705 7.23669
#
# Compressibility (1/GPa) = 0.02233111
#
# Stress axis : x y z
#
# Youngs Moduli (GPa) = 41.93435 50.63003 51.04747
#
# Poissons Ratio (x) = 0.56419 0.06614
# Poissons Ratio (y) = 0.46729 0.40782
# Poissons Ratio (z) = 0.05433 0.40449
#
# Static dielectric constant tensor:
#      x y z
#    x 2.655460 0.000000 0.000000 
#    y 0.000000 2.972040 0.000000 
#    z 0.000000 0.000000 2.610410 
# 
# 
# High freq. dielectric constant tensor:
#      x y z
#    x 1.481070 0.000000 0.000000 
#    y 0.000000 1.513670 0.000000 
#    z 0.000000 0.000000 1.520880 
# 
# From -- ./inp_files/12684.got.cif
#   From: 2010.03.12/outbox.cif.g09.slc.cpg/sg65_7_cif.got.tgz:12684.got - 2010.04.10 20:52:16.
