data_PCOD8266706
_publ_section_title
;
Structure prediction by ZEFSAII (Michael W. Deem and Ramdas Pophale) SiO2 
 PCOD8266706
Probable space group: C M M M
;
_chemical_formula_sum "Si O2"
_cell_formula_units_Z 104
_cell_length_a 32.597953
_cell_length_b 8.969082
_cell_length_c 20.609353
_cell_angle_alpha 90.000000
_cell_angle_beta 90.000000
_cell_angle_gamma 90.000000
_cell_volume 6025.633069
_symmetry_space_group_name_H-M "C M M M"
_symmetry_group_IT_number 65
_symmetry_cell_setting 'orthorhombic'
loop_
_space_group_symop_operation_xyz
x,y,z
-x,-y,z
x,-y,-z
-x,y,-z
-x,-y,-z
x,y,-z
-x,y,z
x,-y,z
1/2+x,1/2+y,z
1/2-x,1/2-y,z
1/2+x,1/2-y,-z
1/2-x,1/2+y,-z
1/2-x,1/2-y,-z
1/2+x,1/2+y,-z
1/2-x,1/2+y,z
1/2+x,1/2-y,z
loop_
_atom_site_type_symbol
_atom_site_label
_atom_site_fract_x
_atom_site_fract_y
_atom_site_fract_z
Si Si1 0.410626 0.331218 0.867144
Si Si2 0.927362 0.174533 0.629928
Si Si3 0.500000 0.670975 0.836611
Si Si4 0.338511 0.824231 0.071408
Si Si5 0.364888 0.669945 0.737521
Si Si6 0.000000 0.324794 0.295026
Si Si7 0.548256 0.823029 0.500000
Si Si8 0.707141 0.823942 0.802053
O O1 0.398992 0.500000 0.884479
O O2 0.459039 0.302437 0.879011
O O3 0.384873 0.228284 0.915463
O O4 0.399502 0.296517 0.792002
O O5 0.883827 0.199001 0.666190
O O6 0.960636 0.250396 0.674561
O O7 0.927704 0.255052 0.560860
O O8 0.937068 0.000000 0.621292
O O9 0.500000 0.500000 0.809012
O O10 0.500000 0.793669 0.780850
O O11 0.307855 0.763666 0.127148
O O12 0.339006 0.000000 0.073960
O O13 0.324204 0.768034 0.000000
O O14 0.349643 0.500000 0.743501
O O15 0.325898 0.776940 0.747719
O O16 0.000000 0.500000 0.309762
O O17 0.500000 0.777214 0.500000
O O18 0.552729 0.000000 0.500000
O O19 0.750000 0.750000 0.784505
O O20 0.712210 0.000000 0.801329
#
# Coordination Sequence:
#
# PCOD8266706 Si02
#       8
#    16  16   8  16  16   8   8  16
#     4   9  17  30  49  71  94 124 166 213 254 295
#     4  11  21  35  53  72 100 143 182 214 256 303
#     4  10  18  32  48  68  96 129 169 216 260 300
#     4   9  19  35  51  69  98 133 165 201 249 304
#     4   9  18  33  53  75  99 128 167 210 253 302
#     4  12  22  29  45  73 103 134 172 217 259 302
#     4  11  23  35  47  73 109 144 183 226 258 292
#     4  10  20  34  54  79 105 130 159 200 252 306
#
# _framework density 17.259596999999999
#
# number of rings (size 3 to 8) (size 9 to 14) (size 15 to 20)
#    0.000    2.077    2.308    1.846    0.000    3.385 
#    0.000    0.385    0.000    2.308    0.000    0.538 
#    0.000    0.000    0.000    0.000    0.000    0.000 
#
# Total GULP energy -644703.441989 kJ/mol
# GULP energy per Si atom -12398.143115 kJ/mol
# Density = 1.722031 g / cm^3
# Si number density = 17.259597 Si / 1000 Ang^3
#
#
#
# Elastic Constant Matrix: (Units=GPa)
#
#
# Indices 1 2 3 4 5 6 
#
# 1 103.6111 37.5772 28.1021 0.0000 0.0000 0.0000
# 2 37.5772 67.4051 34.7869 0.0000 0.0000 0.0000
# 3 28.1021 34.7869 76.3223 0.0000 0.0000 0.0000
# 4 0.0000 0.0000 0.0000 24.0029 0.0000 0.0000
# 5 0.0000 0.0000 0.0000 0.0000 17.4368 0.0000
# 6 0.0000 0.0000 0.0000 0.0000 0.0000 26.7827
#
#
#
# Elastic Compliance Matrix: (Units=1/GPa)
#
#
# Indices 1 2 3 4 5 6 
#
# 1 0.012291 -0.005905 -0.001834 0.000000 0.000000 0.000000
# 2 -0.005905 0.022236 -0.007961 0.000000 0.000000 0.000000
# 3 -0.001834 -0.007961 0.017406 0.000000 0.000000 0.000000
# 4 0.000000 0.000000 0.000000 0.041662 0.000000 0.000000
# 5 0.000000 0.000000 0.000000 0.000000 0.057350 0.000000
# 6 0.000000 0.000000 0.000000 0.000000 0.000000 0.037337
#
#
# Mechanical properties :
#
#
# Convention : Reuss Voigt Hill
#
# Bulk Modulus (GPa) = 48.70204 49.80788 49.25496
# Shear Modulus (GPa) = 22.07254 23.43598 22.75426
#
# Velocity S-wave (km/s) = 3.57999 3.68890 3.63485
# Velocity P-wave (km/s) = 6.73551 6.86037 6.79823
#
# Compressibility (1/GPa) = 0.02053302
#
# Stress axis : x y z
#
# Youngs Moduli (GPa) = 81.36304 44.97169 57.45173
#
# Poissons Ratio (x) = 0.26558 0.10536
# Poissons Ratio (y) = 0.48048 0.45735
# Poissons Ratio (z) = 0.14920 0.35800
#
# Static dielectric constant tensor:
#      x y z
#    x 3.170650 0.000000 0.000000 
#    y 0.000000 3.241590 0.000000 
#    z 0.000000 0.000000 3.266410 
# 
# 
# High freq. dielectric constant tensor:
#      x y z
#    x 1.651530 0.000000 0.000000 
#    y 0.000000 1.671090 0.000000 
#    z 0.000000 0.000000 1.645840 
# 
# From -- ./inp_files/66460.got.cif
#   From: 2010.03.12/outbox.cif.g09.slc.cpg/sg65_34_cif.got.tgz:66460.got - 2010.04.10 20:52:16.
