data_PCOD8266180
_publ_section_title
;
Structure prediction by ZEFSAII (Michael W. Deem and Ramdas Pophale) SiO2 
 PCOD8266180
Probable space group: C M M M
;
_chemical_formula_sum "Si O2"
_cell_formula_units_Z 72
_cell_length_a 8.662657
_cell_length_b 29.072512
_cell_length_c 15.769647
_cell_angle_alpha 90.000000
_cell_angle_beta 90.000000
_cell_angle_gamma 90.000000
_cell_volume 3971.509896
_symmetry_space_group_name_H-M "C M M M"
_symmetry_group_IT_number 65
_symmetry_cell_setting 'orthorhombic'
loop_
_space_group_symop_operation_xyz
x,y,z
-x,-y,z
x,-y,-z
-x,y,-z
-x,-y,-z
x,y,-z
-x,y,z
x,-y,z
1/2+x,1/2+y,z
1/2-x,1/2-y,z
1/2+x,1/2-y,-z
1/2-x,1/2+y,-z
1/2-x,1/2-y,-z
1/2+x,1/2+y,-z
1/2-x,1/2+y,z
1/2+x,1/2-y,z
loop_
_atom_site_type_symbol
_atom_site_label
_atom_site_fract_x
_atom_site_fract_y
_atom_site_fract_z
Si Si1 0.819812 0.700659 0.828262
Si Si2 0.818364 0.391229 0.250428
Si Si3 0.683533 0.947836 0.093232
Si Si4 0.183574 0.448128 0.406230
Si Si5 0.316993 0.300851 0.000000
O O1 0.750000 0.750000 0.802911
O O2 0.785039 0.663659 0.753879
O O3 0.000000 0.707769 0.843770
O O4 0.747927 0.677339 0.913251
O O5 0.745777 0.416198 0.167740
O O6 0.746846 0.412731 0.336616
O O7 0.000000 0.400602 0.250288
O O8 0.500000 0.944837 0.093484
O O9 0.736988 0.000000 0.110364
O O10 0.744328 0.931604 0.000000
O O11 0.246062 0.434656 0.500000
O O12 0.235990 0.500000 0.383043
O O13 0.000000 0.445600 0.406881
O O14 0.250000 0.250000 0.000000
O O15 0.500000 0.301646 0.000000
#
# Coordination Sequence:
#
# PCOD8266180 Si02
#       5
#    16  16  16  16   8
#     4  10  19  30  44  62  87 118 152 190 225 258
#     4   9  16  23  36  57  82 113 147 180 217 264
#     4   8  13  20  30  47  75 107 133 163 208 258
#     4   8  13  22  37  58  86 117 144 175 222 276
#     4  10  18  30  46  62  83 112 149 189 228 265
#
# _framework density 18.129125999999999
#
# number of rings (size 3 to 8) (size 9 to 14) (size 15 to 20)
#    0.000    3.111    0.000    5.000    1.556    2.667 
#    0.000    0.000    0.000    0.667    0.000    0.000 
#    0.000   20.444    0.000    9.778    0.000    9.778 
#
# Total GULP energy -445986.101144 kJ/mol
# GULP energy per Si atom -12388.502810 kJ/mol
# Density = 1.808786 g / cm^3
# Si number density = 18.129126 Si / 1000 Ang^3
#
#
#
# Elastic Constant Matrix: (Units=GPa)
#
#
# Indices 1 2 3 4 5 6 
#
# 1 47.7501 22.0711 19.0243 0.0000 0.0000 0.0000
# 2 22.0711 112.4436 89.4346 0.0000 0.0000 0.0000
# 3 19.0243 89.4346 148.9584 0.0000 0.0000 0.0000
# 4 0.0000 0.0000 0.0000 29.6391 0.0000 0.0000
# 5 0.0000 0.0000 0.0000 0.0000 6.7118 0.0000
# 6 0.0000 0.0000 0.0000 0.0000 0.0000 11.0960
#
#
#
# Elastic Compliance Matrix: (Units=1/GPa)
#
#
# Indices 1 2 3 4 5 6 
#
# 1 0.023047 -0.004178 -0.000435 0.000000 0.000000 0.000000
# 2 -0.004178 0.017779 -0.010141 0.000000 0.000000 0.000000
# 3 -0.000435 -0.010141 0.012858 0.000000 0.000000 0.000000
# 4 0.000000 0.000000 0.000000 0.033739 0.000000 0.000000
# 5 0.000000 0.000000 0.000000 0.000000 0.148992 0.000000
# 6 0.000000 0.000000 0.000000 0.000000 0.000000 0.090122
#
#
# Mechanical properties :
#
#
# Convention : Reuss Voigt Hill
#
# Bulk Modulus (GPa) = 41.36376 63.35689 52.36032
# Shear Modulus (GPa) = 13.73234 21.39751 17.56492
#
# Velocity S-wave (km/s) = 2.75521 3.43925 3.11606
# Velocity P-wave (km/s) = 5.74346 7.12704 6.47233
#
# Compressibility (1/GPa) = 0.02417575
#
# Stress axis : x y z
#
# Youngs Moduli (GPa) = 43.39014 56.24488 77.77476
#
# Poissons Ratio (x) = 0.23497 0.03385
# Poissons Ratio (y) = 0.18127 0.78873
# Poissons Ratio (z) = 0.01888 0.57039
#
# Static dielectric constant tensor:
#      x y z
#    x 2.746220 0.000000 0.000000 
#    y 0.000000 3.348640 0.000000 
#    z 0.000000 0.000000 4.019910 
# 
# 
# High freq. dielectric constant tensor:
#      x y z
#    x 1.638750 0.000000 0.000000 
#    y 0.000000 1.698740 0.000000 
#    z 0.000000 0.000000 1.693330 
# 
# From -- ./inp_files/49767.got.cif
#   From: 2010.03.12/outbox.cif.g09.slc.cpg/sg65_25_cif.got.tgz:49767.got - 2010.04.10 20:52:16.
