data_PCOD8266778
_publ_section_title
;
Structure prediction by ZEFSAII (Michael W. Deem and Ramdas Pophale) SiO2 
 PCOD8266778
Probable space group: C M M M
;
_chemical_formula_sum "Si O2"
_cell_formula_units_Z 88
_cell_length_a 18.186025
_cell_length_b 29.052655
_cell_length_c 9.147288
_cell_angle_alpha 90.000000
_cell_angle_beta 90.000000
_cell_angle_gamma 90.000000
_cell_volume 4832.990746
_symmetry_space_group_name_H-M "C M M M"
_symmetry_group_IT_number 65
_symmetry_cell_setting 'orthorhombic'
loop_
_space_group_symop_operation_xyz
x,y,z
-x,-y,z
x,-y,-z
-x,y,-z
-x,-y,-z
x,y,-z
-x,y,z
x,-y,z
1/2+x,1/2+y,z
1/2-x,1/2-y,z
1/2+x,1/2-y,-z
1/2-x,1/2+y,-z
1/2-x,1/2-y,-z
1/2+x,1/2+y,-z
1/2-x,1/2+y,z
1/2+x,1/2-y,z
loop_
_atom_site_type_symbol
_atom_site_label
_atom_site_fract_x
_atom_site_fract_y
_atom_site_fract_z
Si Si1 0.131311 0.383529 0.327452
Si Si2 0.918296 0.051492 0.673910
Si Si3 0.323579 0.278730 0.668467
Si Si4 0.000000 0.448120 0.326248
Si Si5 0.204576 0.118967 0.672954
Si Si6 0.086661 0.707864 0.834138
O O1 0.122510 0.376233 0.500000
O O2 0.213908 0.399438 0.285442
O O3 0.118537 0.334610 0.255060
O O4 0.072935 0.421471 0.270212
O O5 0.913146 0.051629 0.500000
O O6 0.856571 0.085064 0.742218
O O7 0.000000 0.067881 0.722426
O O8 0.903387 0.000000 0.732562
O O9 0.348653 0.280121 0.500000
O O10 0.250000 0.250000 0.688323
O O11 0.309432 0.329677 0.732460
O O12 0.387702 0.255591 0.762517
O O13 0.000000 0.500000 0.261578
O O14 0.000000 0.450331 0.500000
O O15 0.196889 0.120072 0.500000
O O16 0.000000 0.706275 0.826966
O O17 0.115372 0.705008 0.000000
#
# Coordination Sequence:
#
# PCOD8266778 Si02
#       6
#    16  16  16   8  16  16
#     4  10  18  32  53  73 101 137 173 216 261 310
#     4   8  14  25  41  64  98 134 162 195 247 305
#     4  10  19  33  52  75 103 133 172 213 256 308
#     4   9  18  30  49  79 107 133 171 221 274 319
#     4   9  17  28  46  72  98 129 171 212 249 305
#     4  11  23  36  51  73 102 136 179 217 253 310
#
# _framework density 18.208188
#
# number of rings (size 3 to 8) (size 9 to 14) (size 15 to 20)
#    0.000    2.455    2.727    1.091    0.000    2.909 
#    0.000    5.455    0.000    1.091    0.000    0.000 
#    0.000    0.727    0.000   10.000    0.000    8.727 
#
# Total GULP energy -545475.782938 kJ/mol
# GULP energy per Si atom -12397.176885 kJ/mol
# Density = 1.816675 g / cm^3
# Si number density = 18.208188 Si / 1000 Ang^3
#
#
#
# Elastic Constant Matrix: (Units=GPa)
#
#
# Indices 1 2 3 4 5 6 
#
# 1 142.5466 88.1130 26.4810 0.0000 0.0000 0.0000
# 2 88.1130 137.6414 16.9246 0.0000 0.0000 0.0000
# 3 26.4810 16.9246 32.2047 0.0000 0.0000 0.0000
# 4 0.0000 0.0000 0.0000 -4.2566 0.0000 0.0000
# 5 0.0000 0.0000 0.0000 0.0000 13.9402 0.0000
# 6 0.0000 0.0000 0.0000 0.0000 0.0000 39.3019
#
#
#
# Elastic Compliance Matrix: (Units=1/GPa)
#
#
# Indices 1 2 3 4 5 6 
#
# 1 0.012818 -0.007387 -0.006658 0.000000 0.000000 0.000000
# 2 -0.007387 0.012024 -0.000245 0.000000 0.000000 0.000000
# 3 -0.006658 -0.000245 0.036655 0.000000 0.000000 0.000000
# 4 0.000000 0.000000 0.000000 -0.234927 0.000000 0.000000
# 5 0.000000 0.000000 0.000000 0.000000 0.071735 0.000000
# 6 0.000000 0.000000 0.000000 0.000000 0.000000 0.025444
#
#
# Mechanical properties :
#
#
# Convention : Reuss Voigt Hill
#
# Bulk Modulus (GPa) = 30.37916 63.93666 47.15791
# Shear Modulus (GPa) = -136.24716 21.85535 -57.19590
#
# Velocity S-wave (km/s) = -8.65967 3.46830 -5.61074
# Velocity P-wave (km/s) = 9.12502 7.15746 4.00229
#
# Compressibility (1/GPa) = 0.03291730
#
# Stress axis : x y z
#
# Youngs Moduli (GPa) = 78.01300 83.16432 27.28161
#
# Poissons Ratio (x) = 0.61435 0.18164
# Poissons Ratio (y) = 0.57630 0.00668
# Poissons Ratio (z) = 0.51941 0.02037
#
# Static dielectric constant tensor:
#      x y z
#    x 3.661470 0.000000 0.000000 
#    y 0.000000 3.684830 0.000000 
#    z 0.000000 0.000000 2.935180 
# 
# 
# High freq. dielectric constant tensor:
#      x y z
#    x 1.718570 0.000000 0.000000 
#    y 0.000000 1.707630 0.000000 
#    z 0.000000 0.000000 1.648050 
# 
# From -- ./inp_files/10089.got.cif
#   From: 2010.03.12/outbox.cif.g09.slc.cpg/sg65_6_cif.got.tgz:10089.got - 2010.04.10 20:52:16.
