data_PCOD8266320
_publ_section_title
;
Structure prediction by ZEFSAII (Michael W. Deem and Ramdas Pophale) SiO2 
 PCOD8266320
Probable space group: C M M M
;
_chemical_formula_sum "Si O2"
_cell_formula_units_Z 80
_cell_length_a 8.824447
_cell_length_b 19.277050
_cell_length_c 25.995516
_cell_angle_alpha 90.000000
_cell_angle_beta 90.000000
_cell_angle_gamma 90.000000
_cell_volume 4422.079187
_symmetry_space_group_name_H-M "C M M M"
_symmetry_group_IT_number 65
_symmetry_cell_setting 'orthorhombic'
loop_
_space_group_symop_operation_xyz
x,y,z
-x,-y,z
x,-y,-z
-x,y,-z
-x,-y,-z
x,y,-z
-x,y,z
x,-y,z
1/2+x,1/2+y,z
1/2-x,1/2-y,z
1/2+x,1/2-y,-z
1/2-x,1/2+y,-z
1/2-x,1/2-y,-z
1/2+x,1/2+y,-z
1/2-x,1/2+y,z
1/2+x,1/2-y,z
loop_
_atom_site_type_symbol
_atom_site_label
_atom_site_fract_x
_atom_site_fract_y
_atom_site_fract_z
Si Si1 0.176194 0.919518 0.303216
Si Si2 0.821733 0.325565 0.388727
Si Si3 0.675968 0.920598 0.198027
Si Si4 0.675764 0.823382 0.500000
Si Si5 0.181109 0.826513 0.000000
Si Si6 0.820316 0.674696 0.102780
O O1 0.262269 0.878237 0.346865
O O2 0.230829 0.894249 0.247289
O O3 0.000000 0.904164 0.308283
O O4 0.216155 0.000000 0.310495
O O5 0.750000 0.250000 0.381142
O O6 0.779863 0.359156 0.445385
O O7 0.000000 0.317129 0.381845
O O8 0.500000 0.911791 0.211042
O O9 0.724624 0.874065 0.150012
O O10 0.716042 0.000000 0.184525
O O11 0.500000 0.809277 0.500000
O O12 0.750000 0.750000 0.500000
O O13 0.250000 0.750000 0.000000
O O14 0.245976 0.861431 0.052063
O O15 0.000000 0.826524 0.000000
O O16 0.750000 0.750000 0.113301
O O17 0.000000 0.681313 0.095239
#
# Coordination Sequence:
#
# PCOD8266320 Si02
#       6
#    16  16  16   8   8  16
#     4  10  21  36  53  74 102 136 172 210 254 303
#     4  10  19  33  54  78 104 133 168 210 253 301
#     4   9  19  36  55  73  96 131 171 208 250 298
#     4   8  16  30  49  74 101 131 165 203 251 300
#     4  10  18  30  49  72 101 133 163 197 241 292
#     4  10  19  32  52  76 101 128 162 204 246 292
#
# _framework density 18.091037
#
# number of rings (size 3 to 8) (size 9 to 14) (size 15 to 20)
#    0.000    2.400    0.000    3.900    0.000    4.400 
#    0.000    3.000    0.000    6.000    0.000    0.000 
#    0.000    0.000    0.000    0.000    0.000    0.000 
#
# Total GULP energy -495751.084389 kJ/mol
# GULP energy per Si atom -12393.777110 kJ/mol
# Density = 1.804986 g / cm^3
# Si number density = 18.091037 Si / 1000 Ang^3
#
#
#
# Elastic Constant Matrix: (Units=GPa)
#
#
# Indices 1 2 3 4 5 6 
#
# 1 92.7930 39.9215 76.7918 0.0000 0.0000 0.0000
# 2 39.9215 58.2614 73.7605 0.0000 0.0000 0.0000
# 3 76.7918 73.7605 192.0931 0.0000 0.0000 0.0000
# 4 0.0000 0.0000 0.0000 -60.0357 0.0000 0.0000
# 5 0.0000 0.0000 0.0000 0.0000 28.1005 0.0000
# 6 0.0000 0.0000 0.0000 0.0000 0.0000 25.6928
#
#
#
# Elastic Compliance Matrix: (Units=1/GPa)
#
#
# Indices 1 2 3 4 5 6 
#
# 1 0.017106 -0.005962 -0.004549 0.000000 0.000000 0.000000
# 2 -0.005962 0.035480 -0.011240 0.000000 0.000000 0.000000
# 3 -0.004549 -0.011240 0.011340 0.000000 0.000000 0.000000
# 4 0.000000 0.000000 0.000000 -0.016657 0.000000 0.000000
# 5 0.000000 0.000000 0.000000 0.000000 0.035587 0.000000
# 6 0.000000 0.000000 0.000000 0.000000 0.000000 0.038921
#
#
# Mechanical properties :
#
#
# Convention : Reuss Voigt Hill
#
# Bulk Modulus (GPa) = 48.96304 80.45503 64.70903
# Shear Modulus (GPa) = 29.05480 8.92978 18.99229
#
# Velocity S-wave (km/s) = 4.01188 2.22413 3.24360
# Velocity P-wave (km/s) = 6.97021 7.15294 7.06216
#
# Compressibility (1/GPa) = 0.02042357
#
# Stress axis : x y z
#
# Youngs Moduli (GPa) = 58.45758 28.18511 88.18027
#
# Poissons Ratio (x) = 0.16805 0.40114
# Poissons Ratio (y) = 0.34854 0.99116
# Poissons Ratio (z) = 0.26593 0.31680
#
# Static dielectric constant tensor:
#      x y z
#    x 3.448760 0.000000 0.000000 
#    y 0.000000 3.060440 0.000000 
#    z 0.000000 0.000000 4.105290 
# 
# 
# High freq. dielectric constant tensor:
#      x y z
#    x 1.713400 0.000000 0.000000 
#    y 0.000000 1.665340 0.000000 
#    z 0.000000 0.000000 1.725350 
# 
# From -- ./inp_files/72970.got.cif
#   From: 2010.03.12/outbox.cif.g09.slc.cpg/sg65_37_cif.got.tgz:72970.got - 2010.04.10 20:52:16.
