data_PCOD8266167
_publ_section_title
;
Structure prediction by ZEFSAII (Michael W. Deem and Ramdas Pophale) SiO2 
 PCOD8266167
Probable space group: C M M M
;
_chemical_formula_sum "Si O2"
_cell_formula_units_Z 80
_cell_length_a 8.945924
_cell_length_b 27.136945
_cell_length_c 20.305404
_cell_angle_alpha 90.000000
_cell_angle_beta 90.000000
_cell_angle_gamma 90.000000
_cell_volume 4929.442368
_symmetry_space_group_name_H-M "C M M M"
_symmetry_group_IT_number 65
_symmetry_cell_setting 'orthorhombic'
loop_
_space_group_symop_operation_xyz
x,y,z
-x,-y,z
x,-y,-z
-x,y,-z
-x,-y,-z
x,y,-z
-x,y,z
x,-y,z
1/2+x,1/2+y,z
1/2-x,1/2-y,z
1/2+x,1/2-y,-z
1/2-x,1/2+y,-z
1/2-x,1/2-y,-z
1/2+x,1/2+y,-z
1/2-x,1/2+y,z
1/2+x,1/2-y,z
loop_
_atom_site_type_symbol
_atom_site_label
_atom_site_fract_x
_atom_site_fract_y
_atom_site_fract_z
Si Si1 0.174775 0.445126 0.297681
Si Si2 0.179103 0.696951 0.500000
Si Si3 0.500000 0.441404 0.924456
Si Si4 0.834542 0.893697 0.184042
Si Si5 0.824238 0.349446 0.366667
Si Si6 0.177182 0.698484 0.768785
O O1 0.212857 0.500000 0.323001
O O2 0.259029 0.434833 0.229792
O O3 0.225723 0.405970 0.353446
O O4 0.000000 0.438525 0.282793
O O5 0.250000 0.750000 0.500000
O O6 0.243797 0.668882 0.435648
O O7 0.000000 0.700496 0.500000
O O8 0.500000 0.500000 0.916743
O O9 0.647347 0.418137 0.888720
O O10 0.500000 0.424904 0.000000
O O11 0.736468 0.843835 0.181695
O O12 0.000000 0.880914 0.212404
O O13 0.771533 0.315564 0.305509
O O14 0.000000 0.345891 0.372650
O O15 0.250000 0.750000 0.789176
O O16 0.000000 0.701994 0.775610
#
# Coordination Sequence:
#
# PCOD8266167 Si02
#       6
#    16   8   8  16  16  16
#     4   9  16  28  46  67  94 123 153 195 242 283
#     4  10  18  30  45  59  83 119 154 192 235 288
#     4   9  18  32  52  76 102 127 155 193 234 281
#     4   9  18  29  48  73  97 124 157 191 234 282
#     4   8  16  28  42  64  91 120 155 194 237 282
#     4  10  18  30  48  72 100 126 159 203 245 282
#
# _framework density 16.229016000000001
#
# number of rings (size 3 to 8) (size 9 to 14) (size 15 to 20)
#    0.600    2.300    0.000    3.600    0.000    0.000 
#    0.000    4.500    0.000    6.000    0.000    7.000 
#    0.000    7.200    0.000    0.000    0.000    0.000 
#
# Total GULP energy -495668.024345 kJ/mol
# GULP energy per Si atom -12391.700609 kJ/mol
# Density = 1.619208 g / cm^3
# Si number density = 16.229016 Si / 1000 Ang^3
#
#
#
# Elastic Constant Matrix: (Units=GPa)
#
#
# Indices 1 2 3 4 5 6 
#
# 1 55.5093 39.3922 26.3281 0.0000 0.0000 0.0000
# 2 39.3922 138.9423 64.1533 0.0000 0.0000 0.0000
# 3 26.3281 64.1533 119.2563 0.0000 0.0000 0.0000
# 4 0.0000 0.0000 0.0000 21.8722 0.0000 0.0000
# 5 0.0000 0.0000 0.0000 0.0000 18.9600 0.0000
# 6 0.0000 0.0000 0.0000 0.0000 0.0000 27.9284
#
#
#
# Elastic Compliance Matrix: (Units=1/GPa)
#
#
# Indices 1 2 3 4 5 6 
#
# 1 0.022935 -0.005541 -0.002083 0.000000 0.000000 0.000000
# 2 -0.005541 0.010914 -0.004648 0.000000 0.000000 0.000000
# 3 -0.002083 -0.004648 0.011345 0.000000 0.000000 0.000000
# 4 0.000000 0.000000 0.000000 0.045720 0.000000 0.000000
# 5 0.000000 0.000000 0.000000 0.000000 0.052742 0.000000
# 6 0.000000 0.000000 0.000000 0.000000 0.000000 0.035806
#
#
# Mechanical properties :
#
#
# Convention : Reuss Voigt Hill
#
# Bulk Modulus (GPa) = 48.42235 63.71725 56.06980
# Shear Modulus (GPa) = 23.70905 26.00773 24.85839
#
# Velocity S-wave (km/s) = 3.82633 4.00752 3.91797
# Velocity P-wave (km/s) = 7.03013 7.79488 7.42236
#
# Compressibility (1/GPa) = 0.02065162
#
# Stress axis : x y z
#
# Youngs Moduli (GPa) = 43.60184 91.62356 88.14085
#
# Poissons Ratio (x) = 0.50766 0.18357
# Poissons Ratio (y) = 0.24159 0.40968
# Poissons Ratio (z) = 0.09081 0.42587
#
# Static dielectric constant tensor:
#      x y z
#    x 2.915120 0.000000 0.000000 
#    y 0.000000 3.232150 0.000000 
#    z 0.000000 0.000000 2.997500 
# 
# 
# High freq. dielectric constant tensor:
#      x y z
#    x 1.608440 0.000000 0.000000 
#    y 0.000000 1.636780 0.000000 
#    z 0.000000 0.000000 1.592350 
# 
# From -- ./inp_files/60078.got.cif
#   From: 2010.03.12/outbox.cif.g09.slc.cpg/sg65_31_cif.got.tgz:60078.got - 2010.04.10 20:52:16.
