data_PCOD8266597
_publ_section_title
;
Structure prediction by ZEFSAII (Michael W. Deem and Ramdas Pophale) SiO2 
 PCOD8266597
Probable space group: C M M M
;
_chemical_formula_sum "Si O2"
_cell_formula_units_Z 104
_cell_length_a 29.868772
_cell_length_b 9.191510
_cell_length_c 19.612207
_cell_angle_alpha 90.000000
_cell_angle_beta 90.000000
_cell_angle_gamma 90.000000
_cell_volume 5384.317983
_symmetry_space_group_name_H-M "C M M M"
_symmetry_group_IT_number 65
_symmetry_cell_setting 'orthorhombic'
loop_
_space_group_symop_operation_xyz
x,y,z
-x,-y,z
x,-y,-z
-x,y,-z
-x,-y,-z
x,y,-z
-x,y,z
x,-y,z
1/2+x,1/2+y,z
1/2-x,1/2-y,z
1/2+x,1/2-y,-z
1/2-x,1/2+y,-z
1/2-x,1/2-y,-z
1/2+x,1/2+y,-z
1/2-x,1/2+y,z
1/2+x,1/2-y,z
loop_
_atom_site_type_symbol
_atom_site_label
_atom_site_fract_x
_atom_site_fract_y
_atom_site_fract_z
Si Si1 0.792404 0.833064 0.717197
Si Si2 0.635793 0.327655 0.827824
Si Si3 0.587242 0.833167 0.635661
Si Si4 0.000000 0.659113 0.578019
Si Si5 0.705106 0.832316 0.080519
Si Si6 0.447678 0.166766 0.214060
Si Si7 0.170632 0.169485 0.576443
O O1 0.750000 0.750000 0.749093
O O2 0.838450 0.789657 0.756224
O O3 0.793422 0.797044 0.635804
O O4 0.782418 0.000000 0.730106
O O5 0.634203 0.500000 0.840140
O O6 0.662607 0.249396 0.887978
O O7 0.584488 0.267658 0.832312
O O8 0.544383 0.757704 0.600102
O O9 0.578130 0.818118 0.715014
O O10 0.626948 0.744369 0.604301
O O11 0.594736 0.000000 0.613737
O O12 0.000000 0.500000 0.616783
O O13 0.000000 0.629095 0.500000
O O14 0.750000 0.750000 0.104486
O O15 0.707261 0.000000 0.105206
O O16 0.699414 0.823302 0.000000
O O17 0.500000 0.220188 0.215915
O O18 0.446628 0.000000 0.188520
O O19 0.184873 0.225650 0.500000
O O20 0.160572 0.000000 0.572615
#
# Coordination Sequence:
#
# PCOD8266597 Si02
#       7
#    16  16  16   8  16  16  16
#     4  10  22  37  53  77 105 139 184 231 281 335
#     4  11  22  37  59  86 118 155 193 234 282 336
#     4  10  18  31  51  74  98 131 177 228 282 341
#     4   9  16  26  43  69  99 127 164 221 282 337
#     4  10  21  38  62  94 130 163 194 229 273 329
#     4  10  20  35  56  82 112 147 189 237 289 342
#     4  10  21  37  52  68  99 139 178 228 288 343
#
# _framework density 19.315352000000001
#
# number of rings (size 3 to 8) (size 9 to 14) (size 15 to 20)
#    0.000    1.923    2.308    1.846    0.000    5.538 
#    0.000    0.385    0.000    1.846    0.000    3.231 
#    0.000    0.000    0.000    0.000    0.000    0.000 
#
# Total GULP energy -644215.616435 kJ/mol
# GULP energy per Si atom -12388.761855 kJ/mol
# Density = 1.927139 g / cm^3
# Si number density = 19.315352 Si / 1000 Ang^3
#
#
#
# Elastic Constant Matrix: (Units=GPa)
#
#
# Indices 1 2 3 4 5 6 
#
# 1 113.9620 51.5185 21.4716 0.0000 0.0000 0.0000
# 2 51.5185 43.5157 30.0259 0.0000 0.0000 0.0000
# 3 21.4716 30.0259 50.9415 0.0000 0.0000 0.0000
# 4 0.0000 0.0000 0.0000 23.7927 0.0000 0.0000
# 5 0.0000 0.0000 0.0000 0.0000 27.8624 0.0000
# 6 0.0000 0.0000 0.0000 0.0000 0.0000 35.2234
#
#
#
# Elastic Compliance Matrix: (Units=1/GPa)
#
#
# Indices 1 2 3 4 5 6 
#
# 1 0.021546 -0.032432 0.010035 0.000000 0.000000 0.000000
# 2 -0.032432 0.087552 -0.037935 0.000000 0.000000 0.000000
# 3 0.010035 -0.037935 0.037760 0.000000 0.000000 0.000000
# 4 0.000000 0.000000 0.000000 0.042030 0.000000 0.000000
# 5 0.000000 0.000000 0.000000 0.000000 0.035891 0.000000
# 6 0.000000 0.000000 0.000000 0.000000 0.000000 0.028390
#
#
# Mechanical properties :
#
#
# Convention : Reuss Voigt Hill
#
# Bulk Modulus (GPa) = 38.17741 46.05011 42.11376
# Shear Modulus (GPa) = 13.06974 24.40259 18.73617
#
# Velocity S-wave (km/s) = 2.60407 3.55826 3.11788
# Velocity P-wave (km/s) = 5.37120 6.38550 5.90019
#
# Compressibility (1/GPa) = 0.02619350
#
# Stress axis : x y z
#
# Youngs Moduli (GPa) = 46.41312 11.42184 26.48286
#
# Poissons Ratio (x) = 0.37043 -0.26575
# Poissons Ratio (y) = 1.50527 1.00462
# Poissons Ratio (z) = -0.46574 0.43328
#
# Static dielectric constant tensor:
#      x y z
#    x 3.607590 0.000000 0.000000 
#    y 0.000000 3.586650 0.000000 
#    z 0.000000 0.000000 3.522470 
# 
# 
# High freq. dielectric constant tensor:
#      x y z
#    x 1.755050 0.000000 0.000000 
#    y 0.000000 1.740340 0.000000 
#    z 0.000000 0.000000 1.739230 
# 
# From -- ./inp_files/66397.got.cif
#   From: 2010.03.12/outbox.cif.g09.slc.cpg/sg65_34_cif.got.tgz:66397.got - 2010.04.10 20:52:16.
