data_PCOD8266558
_publ_section_title
;
Structure prediction by ZEFSAII (Michael W. Deem and Ramdas Pophale) SiO2 
 PCOD8266558
Probable space group: C M M M
;
_chemical_formula_sum "Si O2"
_cell_formula_units_Z 56
_cell_length_a 9.158179
_cell_length_b 28.733803
_cell_length_c 12.963761
_cell_angle_alpha 90.000000
_cell_angle_beta 90.000000
_cell_angle_gamma 90.000000
_cell_volume 3411.404778
_symmetry_space_group_name_H-M "C M M M"
_symmetry_group_IT_number 65
_symmetry_cell_setting 'orthorhombic'
loop_
_space_group_symop_operation_xyz
x,y,z
-x,-y,z
x,-y,-z
-x,y,-z
-x,-y,-z
x,y,-z
-x,y,z
x,-y,z
1/2+x,1/2+y,z
1/2-x,1/2-y,z
1/2+x,1/2-y,-z
1/2-x,1/2+y,-z
1/2-x,1/2-y,-z
1/2+x,1/2+y,-z
1/2-x,1/2+y,z
1/2+x,1/2-y,z
loop_
_atom_site_type_symbol
_atom_site_label
_atom_site_fract_x
_atom_site_fract_y
_atom_site_fract_z
Si Si1 0.172916 0.895305 0.686946
Si Si2 0.170188 0.445179 0.500000
Si Si3 0.669751 0.705006 0.618168
Si Si4 0.826727 0.947897 0.886593
O O1 0.255583 0.924288 0.600811
O O2 0.214333 0.840904 0.681402
O O3 0.229195 0.913004 0.798278
O O4 0.000000 0.902555 0.670296
O O5 0.196331 0.500000 0.500000
O O6 0.000000 0.432264 0.500000
O O7 0.718047 0.696820 0.500000
O O8 0.500000 0.715184 0.626526
O O9 0.750000 0.750000 0.665615
O O10 0.000000 0.948518 0.886404
O O11 0.768482 0.000000 0.863359
O O12 0.770705 0.931525 0.000000
#
# Coordination Sequence:
#
# PCOD8266558 Si02
#       4
#    16   8  16  16
#     4  10  18  31  50  70  92 121 157 194 229 272
#     4  11  23  33  42  65 100 129 152 183 228 281
#     4   9  17  29  44  65  90 117 153 190 227 276
#     4   8  14  25  44  71  96 117 148 191 233 269
#
# _framework density 16.415524000000001
#
# number of rings (size 3 to 8) (size 9 to 14) (size 15 to 20)
#    0.000    2.714    1.429    2.143    0.000    3.429 
#    0.000    0.000    0.000    1.714    0.000    4.000 
#    0.000    0.000    0.000    0.000    0.000    0.000 
#
# Total GULP energy -347089.509228 kJ/mol
# GULP energy per Si atom -12396.053901 kJ/mol
# Density = 1.637816 g / cm^3
# Si number density = 16.415524 Si / 1000 Ang^3
#
#
#
# Elastic Constant Matrix: (Units=GPa)
#
#
# Indices 1 2 3 4 5 6 
#
# 1 37.0756 43.6183 33.6184 0.0000 0.0000 0.0000
# 2 43.6183 146.2397 90.2384 0.0000 0.0000 0.0000
# 3 33.6184 90.2384 139.0112 0.0000 0.0000 0.0000
# 4 0.0000 0.0000 0.0000 15.7779 0.0000 0.0000
# 5 0.0000 0.0000 0.0000 0.0000 4.5414 0.0000
# 6 0.0000 0.0000 0.0000 0.0000 0.0000 25.3019
#
#
#
# Elastic Compliance Matrix: (Units=1/GPa)
#
#
# Indices 1 2 3 4 5 6 
#
# 1 0.042505 -0.010568 -0.003419 0.000000 0.000000 0.000000
# 2 -0.010568 0.014035 -0.006555 0.000000 0.000000 0.000000
# 3 -0.003419 -0.006555 0.012276 0.000000 0.000000 0.000000
# 4 0.000000 0.000000 0.000000 0.063380 0.000000 0.000000
# 5 0.000000 0.000000 0.000000 0.000000 0.220195 0.000000
# 6 0.000000 0.000000 0.000000 0.000000 0.000000 0.039523
#
#
# Mechanical properties :
#
#
# Convention : Reuss Voigt Hill
#
# Bulk Modulus (GPa) = 36.06015 73.03076 54.54546
# Shear Modulus (GPa) = 11.30604 19.44768 15.37686
#
# Velocity S-wave (km/s) = 2.62723 3.44570 3.06392
# Velocity P-wave (km/s) = 5.58730 7.77277 6.76882
#
# Compressibility (1/GPa) = 0.02773144
#
# Stress axis : x y z
#
# Youngs Moduli (GPa) = 23.52652 71.25082 81.46169
#
# Poissons Ratio (x) = 0.75297 0.27854
# Poissons Ratio (y) = 0.24863 0.53398
# Poissons Ratio (z) = 0.08044 0.46705
#
# Static dielectric constant tensor:
#      x y z
#    x 2.838360 0.000000 0.000000 
#    y 0.000000 3.261850 0.000000 
#    z 0.000000 0.000000 3.372190 
# 
# 
# High freq. dielectric constant tensor:
#      x y z
#    x 1.601870 0.000000 0.000000 
#    y 0.000000 1.635810 0.000000 
#    z 0.000000 0.000000 1.619490 
# 
# From -- ./inp_files/20758.got.cif
#   From: 2010.03.12/outbox.cif.g09.slc.cpg/sg65_11_cif.got.tgz:20758.got - 2010.04.10 20:52:16.
