data_PCOD8266992
_publ_section_title
;
Structure prediction by ZEFSAII (Michael W. Deem and Ramdas Pophale) SiO2 
 PCOD8266992
Probable space group: C M M M
;
_chemical_formula_sum "Si O2"
_cell_formula_units_Z 72
_cell_length_a 24.122038
_cell_length_b 14.015893
_cell_length_c 11.261208
_cell_angle_alpha 90.000000
_cell_angle_beta 90.000000
_cell_angle_gamma 90.000000
_cell_volume 3807.323249
_symmetry_space_group_name_H-M "C M M M"
_symmetry_group_IT_number 65
_symmetry_cell_setting 'orthorhombic'
loop_
_space_group_symop_operation_xyz
x,y,z
-x,-y,z
x,-y,-z
-x,y,-z
-x,-y,-z
x,y,-z
-x,y,z
x,-y,z
1/2+x,1/2+y,z
1/2-x,1/2-y,z
1/2+x,1/2-y,-z
1/2-x,1/2+y,-z
1/2-x,1/2-y,-z
1/2+x,1/2+y,-z
1/2-x,1/2+y,z
1/2+x,1/2-y,z
loop_
_atom_site_type_symbol
_atom_site_label
_atom_site_fract_x
_atom_site_fract_y
_atom_site_fract_z
Si Si1 0.563025 0.752053 0.196364
Si Si2 0.403872 0.113062 0.000000
Si Si3 0.663756 0.760098 0.640208
Si Si4 0.745393 0.387610 0.743680
Si Si5 0.779126 0.388310 0.000000
Si Si6 0.565733 0.606022 0.000000
O O1 0.500000 0.737172 0.240076
O O2 0.565795 0.847536 0.117070
O O3 0.601380 0.761458 0.311411
O O4 0.584535 0.662265 0.117912
O O5 0.341049 0.154421 0.000000
O O6 0.408390 0.000000 0.000000
O O7 0.660860 0.763272 0.500000
O O8 0.694097 0.663263 0.680650
O O9 0.696856 0.852545 0.686770
O O10 0.740139 0.500000 0.724283
O O11 0.745142 0.357509 0.882988
O O12 0.788140 0.500000 0.000000
O O13 0.592552 0.500000 0.000000
O O14 0.500000 0.600059 0.000000
#
# Coordination Sequence:
#
# PCOD8266992 Si02
#       6
#    16   8  16  16   8   8
#     4  10  21  36  56  84 115 147 184 229 278 330
#     4  10  18  34  58  87 118 145 177 222 283 346
#     4  11  24  38  55  80 110 153 197 228 268 324
#     4  10  21  39  60  84 112 141 181 234 288 335
#     4   9  17  31  58  88 110 138 169 216 289 344
#     4   8  16  33  56  80 105 136 176 225 282 330
#
# _framework density 18.910924000000001
#
# number of rings (size 3 to 8) (size 9 to 14) (size 15 to 20)
#    0.000    2.111    2.222    2.333    0.000    7.556 
#    0.000    1.111    0.000    0.000    0.000    7.778 
#    0.000    0.000    0.000    0.000    0.000    0.000 
#
# Total GULP energy -446391.837271 kJ/mol
# GULP energy per Si atom -12399.773258 kJ/mol
# Density = 1.886788 g / cm^3
# Si number density = 18.910924 Si / 1000 Ang^3
#
#
#
# Elastic Constant Matrix: (Units=GPa)
#
#
# Indices 1 2 3 4 5 6 
#
# 1 81.0153 16.3886 48.2043 0.0000 0.0000 0.0000
# 2 16.3886 119.2523 36.0678 0.0000 0.0000 0.0000
# 3 48.2043 36.0678 159.8559 0.0000 0.0000 0.0000
# 4 0.0000 0.0000 0.0000 17.2720 0.0000 0.0000
# 5 0.0000 0.0000 0.0000 0.0000 26.0162 0.0000
# 6 0.0000 0.0000 0.0000 0.0000 0.0000 12.2114
#
#
#
# Elastic Compliance Matrix: (Units=1/GPa)
#
#
# Indices 1 2 3 4 5 6 
#
# 1 0.015104 -0.000749 -0.004386 0.000000 0.000000 0.000000
# 2 -0.000749 0.009037 -0.001813 0.000000 0.000000 0.000000
# 3 -0.004386 -0.001813 0.007987 0.000000 0.000000 0.000000
# 4 0.000000 0.000000 0.000000 0.057897 0.000000 0.000000
# 5 0.000000 0.000000 0.000000 0.000000 0.038438 0.000000
# 6 0.000000 0.000000 0.000000 0.000000 0.000000 0.081891
#
#
# Mechanical properties :
#
#
# Convention : Reuss Voigt Hill
#
# Bulk Modulus (GPa) = 54.84703 62.38276 58.61490
# Shear Modulus (GPa) = 21.70821 28.39744 25.05283
#
# Velocity S-wave (km/s) = 3.39177 3.87931 3.64370
# Velocity P-wave (km/s) = 6.66368 7.28867 6.98317
#
# Compressibility (1/GPa) = 0.01823253
#
# Stress axis : x y z
#
# Youngs Moduli (GPa) = 66.20590 110.65732 125.20061
#
# Poissons Ratio (x) = 0.08292 0.54908
# Poissons Ratio (y) = 0.04961 0.22699
# Poissons Ratio (z) = 0.29036 0.20062
#
# Static dielectric constant tensor:
#      x y z
#    x 3.377800 0.000000 0.000000 
#    y 0.000000 3.564340 0.000000 
#    z 0.000000 0.000000 3.430050 
# 
# 
# High freq. dielectric constant tensor:
#      x y z
#    x 1.728780 0.000000 0.000000 
#    y 0.000000 1.737000 0.000000 
#    z 0.000000 0.000000 1.722160 
# 
# From -- ./inp_files/30330.got.cif
#   From: 2010.03.12/outbox.cif.g09.slc.cpg/sg65_16_cif.got.tgz:30330.got - 2010.04.10 20:52:16.
