data_PCOD8266957
_publ_section_title
;
Structure prediction by ZEFSAII (Michael W. Deem and Ramdas Pophale) SiO2 
 PCOD8266957
Probable space group: C M M M
;
_chemical_formula_sum "Si O2"
_cell_formula_units_Z 88
_cell_length_a 19.159423
_cell_length_b 29.026379
_cell_length_c 7.757204
_cell_angle_alpha 90.000000
_cell_angle_beta 90.000000
_cell_angle_gamma 90.000000
_cell_volume 4314.003570
_symmetry_space_group_name_H-M "C M M M"
_symmetry_group_IT_number 65
_symmetry_cell_setting 'orthorhombic'
loop_
_space_group_symop_operation_xyz
x,y,z
-x,-y,z
x,-y,-z
-x,y,-z
-x,-y,-z
x,y,-z
-x,y,z
x,-y,z
1/2+x,1/2+y,z
1/2-x,1/2-y,z
1/2+x,1/2-y,-z
1/2-x,1/2+y,-z
1/2-x,1/2-y,-z
1/2+x,1/2+y,-z
1/2-x,1/2+y,z
1/2+x,1/2-y,z
loop_
_atom_site_type_symbol
_atom_site_label
_atom_site_fract_x
_atom_site_fract_y
_atom_site_fract_z
Si Si1 0.681801 0.774994 0.296351
Si Si2 0.079267 0.197109 0.296597
Si Si3 0.577811 0.051498 0.295147
Si Si4 0.192668 0.377946 0.294377
Si Si5 0.079439 0.054398 0.500000
Si Si6 0.848050 0.105696 0.192180
O O1 0.690348 0.777625 0.500000
O O2 0.750000 0.750000 0.217351
O O3 0.613024 0.746122 0.245262
O O4 0.675326 0.826768 0.223814
O O5 0.083309 0.188499 0.500000
O O6 0.123168 0.157312 0.206794
O O7 0.000000 0.196950 0.229671
O O8 0.579014 0.053023 0.500000
O O9 0.500000 0.064351 0.229256
O O10 0.633110 0.088050 0.220690
O O11 0.597765 0.000000 0.231750
O O12 0.196131 0.378936 0.500000
O O13 0.265669 0.394942 0.220570
O O14 0.115774 0.072259 0.672100
O O15 0.000000 0.072332 0.500000
O O16 0.084006 0.000000 0.500000
O O17 0.864320 0.087317 0.000000
#
# Coordination Sequence:
#
# PCOD8266957 Si02
#       6
#    16  16  16  16   8  16
#     4   9  16  28  50  78 114 155 199 248 296 351
#     4  10  19  34  57  84 117 159 207 258 310 366
#     4   8  15  28  49  81 117 152 196 249 303 363
#     4  10  18  33  57  84 121 167 207 252 310 366
#     4  11  26  48  70  91 121 159 199 252 317 376
#     4  12  24  40  64  94 125 159 204 254 307 373
#
# _framework density 20.398685
#
# number of rings (size 3 to 8) (size 9 to 14) (size 15 to 20)
#    0.000    2.091    3.636    1.091    0.000    3.273 
#    0.000    6.364    0.000    0.545    0.000    1.273 
#    0.000    0.000    0.000    0.000    0.000    0.000 
#
# Total GULP energy -545560.900176 kJ/mol
# GULP energy per Si atom -12399.111368 kJ/mol
# Density = 2.035226 g / cm^3
# Si number density = 20.398685 Si / 1000 Ang^3
#
#
#
# Elastic Constant Matrix: (Units=GPa)
#
#
# Indices 1 2 3 4 5 6 
#
# 1 182.6741 93.8001 31.6249 0.0000 0.0000 0.0000
# 2 93.8001 142.0438 30.3246 0.0000 0.0000 0.0000
# 3 31.6249 30.3246 75.2293 0.0000 0.0000 0.0000
# 4 0.0000 0.0000 0.0000 -6.6430 0.0000 0.0000
# 5 0.0000 0.0000 0.0000 0.0000 -3.9920 0.0000
# 6 0.0000 0.0000 0.0000 0.0000 0.0000 41.5414
#
#
#
# Elastic Compliance Matrix: (Units=1/GPa)
#
#
# Indices 1 2 3 4 5 6 
#
# 1 0.008419 -0.005257 -0.001420 0.000000 0.000000 0.000000
# 2 -0.005257 0.010985 -0.002218 0.000000 0.000000 0.000000
# 3 -0.001420 -0.002218 0.014784 0.000000 0.000000 0.000000
# 4 0.000000 0.000000 0.000000 -0.150535 0.000000 0.000000
# 5 0.000000 0.000000 0.000000 0.000000 -0.250502 0.000000
# 6 0.000000 0.000000 0.000000 0.000000 0.000000 0.024072
#
#
# Mechanical properties :
#
#
# Convention : Reuss Voigt Hill
#
# Bulk Modulus (GPa) = 60.98378 79.04958 70.01668
# Shear Modulus (GPa) = -15.64845 22.46115 3.40635
#
# Velocity S-wave (km/s) = -2.77272 3.32189 1.29364
# Velocity P-wave (km/s) = 4.43962 7.31777 6.05227
#
# Compressibility (1/GPa) = 0.01639780
#
# Stress axis : x y z
#
# Youngs Moduli (GPa) = 118.77530 91.03468 67.64087
#
# Poissons Ratio (x) = 0.47852 0.09608
# Poissons Ratio (y) = 0.62434 0.15004
# Poissons Ratio (z) = 0.16871 0.20193
#
# Static dielectric constant tensor:
#      x y z
#    x 3.912400 0.000000 0.000000 
#    y 0.000000 3.888160 0.000000 
#    z 0.000000 0.000000 5.164450 
# 
# 
# High freq. dielectric constant tensor:
#      x y z
#    x 1.805360 0.000000 0.000000 
#    y 0.000000 1.796960 0.000000 
#    z 0.000000 0.000000 1.766340 
# 
# From -- ./inp_files/12610.got.cif
#   From: 2010.03.12/outbox.cif.g09.slc.cpg/sg65_7_cif.got.tgz:12610.got - 2010.04.10 20:52:16.
