data_PCOD8266707
_publ_section_title
;
Structure prediction by ZEFSAII (Michael W. Deem and Ramdas Pophale) SiO2 
 PCOD8266707
Probable space group: C M M M
;
_chemical_formula_sum "Si O2"
_cell_formula_units_Z 96
_cell_length_a 26.213672
_cell_length_b 21.929073
_cell_length_c 9.516668
_cell_angle_alpha 90.000000
_cell_angle_beta 90.000000
_cell_angle_gamma 90.000000
_cell_volume 5470.575964
_symmetry_space_group_name_H-M "C M M M"
_symmetry_group_IT_number 65
_symmetry_cell_setting 'orthorhombic'
loop_
_space_group_symop_operation_xyz
x,y,z
-x,-y,z
x,-y,-z
-x,y,-z
-x,-y,-z
x,y,-z
-x,y,z
x,-y,z
1/2+x,1/2+y,z
1/2-x,1/2-y,z
1/2+x,1/2-y,-z
1/2-x,1/2+y,-z
1/2-x,1/2-y,-z
1/2+x,1/2+y,-z
1/2-x,1/2+y,z
1/2+x,1/2-y,z
loop_
_atom_site_type_symbol
_atom_site_label
_atom_site_fract_x
_atom_site_fract_y
_atom_site_fract_z
Si Si1 0.208197 0.568553 0.835931
Si Si2 0.555911 0.746516 0.164334
Si Si3 0.847137 0.686100 0.161025
Si Si4 0.890833 0.123125 0.836509
Si Si5 0.443576 0.500000 0.833563
Si Si6 0.250000 0.750000 0.733244
Si Si7 0.208166 0.873444 0.343172
O O1 0.187322 0.500000 0.811929
O O2 0.166150 0.617866 0.783194
O O3 0.259212 0.577666 0.745238
O O4 0.221688 0.579731 0.000000
O O5 0.500000 0.761430 0.231130
O O6 0.601419 0.787292 0.235357
O O7 0.567170 0.675181 0.188039
O O8 0.553591 0.760314 0.000000
O O9 0.799208 0.731974 0.173690
O O10 0.861169 0.681191 0.000000
O O11 0.913692 0.059546 0.782499
O O12 0.843359 0.138704 0.739606
O O13 0.873993 0.120374 0.000000
O O14 0.500000 0.500000 0.766550
O O15 0.448186 0.500000 0.000000
O O16 0.236797 0.808652 0.639581
O O17 0.198469 0.899125 0.500000
#
# Coordination Sequence:
#
# PCOD8266707 Si02
#       7
#    16  16  16  16   8   8  16
#     4   9  19  34  51  70  96 131 168 202 240 292
#     4   9  16  27  47  75 101 125 160 206 249 288
#     4   9  16  27  48  75 100 126 161 206 248 288
#     4  10  19  32  50  72  97 130 168 206 244 286
#     4   9  18  32  51  73  95 125 169 213 244 279
#     4  10  18  32  48  68  97 134 163 198 241 302
#     4  11  22  33  48  72 102 132 162 201 248 296
#
# _framework density 17.548425999999999
#
# number of rings (size 3 to 8) (size 9 to 14) (size 15 to 20)
#    0.000    2.417    1.667    1.500    1.167    3.667 
#    0.000    0.000    0.000    3.000    0.000    3.500 
#    0.000    0.000    0.000    4.333    0.000    4.167 
#
# Total GULP energy -594804.809768 kJ/mol
# GULP energy per Si atom -12391.766870 kJ/mol
# Density = 1.750848 g / cm^3
# Si number density = 17.548426 Si / 1000 Ang^3
#
#
#
# Elastic Constant Matrix: (Units=GPa)
#
#
# Indices 1 2 3 4 5 6 
#
# 1 136.9874 54.7072 24.8475 0.0000 0.0000 0.0000
# 2 54.7072 112.6428 20.8521 0.0000 0.0000 0.0000
# 3 24.8475 20.8521 47.5650 0.0000 0.0000 0.0000
# 4 0.0000 0.0000 0.0000 10.0685 0.0000 0.0000
# 5 0.0000 0.0000 0.0000 0.0000 0.6883 0.0000
# 6 0.0000 0.0000 0.0000 0.0000 0.0000 20.4142
#
#
#
# Elastic Compliance Matrix: (Units=1/GPa)
#
#
# Indices 1 2 3 4 5 6 
#
# 1 0.009482 -0.004014 -0.003194 0.000000 0.000000 0.000000
# 2 -0.004014 0.011361 -0.002884 0.000000 0.000000 0.000000
# 3 -0.003194 -0.002884 0.023956 0.000000 0.000000 0.000000
# 4 0.000000 0.000000 0.000000 0.099320 0.000000 0.000000
# 5 0.000000 0.000000 0.000000 0.000000 1.452795 0.000000
# 6 0.000000 0.000000 0.000000 0.000000 0.000000 0.048986
#
#
# Mechanical properties :
#
#
# Convention : Reuss Voigt Hill
#
# Bulk Modulus (GPa) = 40.62266 55.33430 47.97848
# Shear Modulus (GPa) = 2.98634 19.35343 11.16989
#
# Velocity S-wave (km/s) = 1.30594 3.32453 2.52567
# Velocity P-wave (km/s) = 5.04709 6.80717 5.99210
#
# Compressibility (1/GPa) = 0.02461680
#
# Stress axis : x y z
#
# Youngs Moduli (GPa) = 105.45981 88.02104 41.74245
#
# Poissons Ratio (x) = 0.35332 0.13331
# Poissons Ratio (y) = 0.42332 0.12037
# Poissons Ratio (z) = 0.33681 0.25382
#
# Static dielectric constant tensor:
#      x y z
#    x 3.591860 0.000000 0.000000 
#    y 0.000000 3.451600 0.000000 
#    z 0.000000 0.000000 2.807770 
# 
# 
# High freq. dielectric constant tensor:
#      x y z
#    x 1.672090 0.000000 0.000000 
#    y 0.000000 1.682050 0.000000 
#    z 0.000000 0.000000 1.629020 
# 
# From -- ./inp_files/16702.got.cif
#   From: 2010.03.12/outbox.cif.g09.slc.cpg/sg65_9_cif.got.tgz:16702.got - 2010.04.10 20:52:16.
