data_PCOD8266057
_publ_section_title
;
Structure prediction by ZEFSAII (Michael W. Deem and Ramdas Pophale) SiO2 
 PCOD8266057
Probable space group: C M M M
;
_chemical_formula_sum "Si O2"
_cell_formula_units_Z 104
_cell_length_a 28.228651
_cell_length_b 9.353968
_cell_length_c 21.479899
_cell_angle_alpha 90.000000
_cell_angle_beta 90.000000
_cell_angle_gamma 90.000000
_cell_volume 5671.765143
_symmetry_space_group_name_H-M "C M M M"
_symmetry_group_IT_number 65
_symmetry_cell_setting 'orthorhombic'
loop_
_space_group_symop_operation_xyz
x,y,z
-x,-y,z
x,-y,-z
-x,y,-z
-x,-y,-z
x,y,-z
-x,y,z
x,-y,z
1/2+x,1/2+y,z
1/2-x,1/2-y,z
1/2+x,1/2-y,-z
1/2-x,1/2+y,-z
1/2-x,1/2-y,-z
1/2+x,1/2+y,-z
1/2-x,1/2+y,z
1/2+x,1/2-y,z
loop_
_atom_site_type_symbol
_atom_site_label
_atom_site_fract_x
_atom_site_fract_y
_atom_site_fract_z
Si Si1 0.797129 0.166578 0.429622
Si Si2 0.610164 0.329968 0.120331
Si Si3 0.863548 0.164678 0.680846
Si Si4 0.792940 0.340528 0.884723
Si Si5 0.052221 0.168657 0.000000
Si Si6 0.709295 0.155592 0.741606
Si Si7 0.947640 0.833403 0.240676
O O1 0.811261 0.209031 0.500000
O O2 0.750000 0.250000 0.408380
O O3 0.842942 0.208168 0.387014
O O4 0.785501 0.000000 0.424119
O O5 0.620085 0.500000 0.122736
O O6 0.659080 0.248068 0.110190
O O7 0.582741 0.275030 0.182199
O O8 0.578818 0.281846 0.061951
O O9 0.839577 0.260871 0.733681
O O10 0.919641 0.192680 0.693288
O O11 0.851390 0.000000 0.695008
O O12 0.797606 0.500000 0.915214
O O13 0.750000 0.250000 0.916608
O O14 0.779084 0.364040 0.813337
O O15 0.000000 0.238332 0.000000
O O16 0.047839 0.000000 0.000000
O O17 0.750000 0.250000 0.708171
O O18 0.707363 0.000000 0.708919
O O19 0.000000 0.760962 0.244628
O O20 0.954743 0.000000 0.229217
#
# Coordination Sequence:
#
# PCOD8266057 Si02
#       7
#    16  16  16  16   8  16  16
#     4   9  18  31  46  67  97 131 163 197 239 288
#     4  10  18  32  54  77 103 132 165 205 248 294
#     4  10  18  29  47  70  96 127 164 202 242 289
#     4  10  20  33  50  73 102 133 164 199 243 298
#     4   9  18  32  54  83 106 129 168 213 252 295
#     4  10  19  29  44  68  99 128 157 194 238 288
#     4   9  17  29  48  73  98 126 162 204 247 291
#
# _framework density 18.336444
#
# number of rings (size 3 to 8) (size 9 to 14) (size 15 to 20)
#    0.000    2.385    1.538    1.846    0.000    4.923 
#    0.000    0.769    0.000    4.154    0.000    3.231 
#    0.000    0.000    0.000    5.231    0.000    5.538 
#
# Total GULP energy -644278.345350 kJ/mol
# GULP energy per Si atom -12389.968180 kJ/mol
# Density = 1.829471 g / cm^3
# Si number density = 18.336444 Si / 1000 Ang^3
#
#
#
# Elastic Constant Matrix: (Units=GPa)
#
#
# Indices 1 2 3 4 5 6 
#
# 1 171.2355 51.6572 55.8657 0.0000 0.0000 0.0000
# 2 51.6572 73.8717 18.2361 0.0000 0.0000 0.0000
# 3 55.8657 18.2361 86.6285 0.0000 0.0000 0.0000
# 4 0.0000 0.0000 0.0000 11.9653 0.0000 0.0000
# 5 0.0000 0.0000 0.0000 0.0000 21.0670 0.0000
# 6 0.0000 0.0000 0.0000 0.0000 0.0000 20.9205
#
#
#
# Elastic Compliance Matrix: (Units=1/GPa)
#
#
# Indices 1 2 3 4 5 6 
#
# 1 0.008891 -0.005065 -0.004667 0.000000 0.000000 0.000000
# 2 -0.005065 0.017164 -0.000347 0.000000 0.000000 0.000000
# 3 -0.004667 -0.000347 0.014626 0.000000 0.000000 0.000000
# 4 0.000000 0.000000 0.000000 0.083575 0.000000 0.000000
# 5 0.000000 0.000000 0.000000 0.000000 0.047468 0.000000
# 6 0.000000 0.000000 0.000000 0.000000 0.000000 0.047800
#
#
# Mechanical properties :
#
#
# Convention : Reuss Voigt Hill
#
# Bulk Modulus (GPa) = 48.72523 64.80597 56.76560
# Shear Modulus (GPa) = 20.28207 24.52234 22.40221
#
# Velocity S-wave (km/s) = 3.32943 3.66095 3.49912
# Velocity P-wave (km/s) = 6.43511 7.29997 6.88114
#
# Compressibility (1/GPa) = 0.02052325
#
# Stress axis : x y z
#
# Youngs Moduli (GPa) = 112.47953 58.26020 68.36944
#
# Poissons Ratio (x) = 0.29508 0.31909
# Poissons Ratio (y) = 0.56969 0.02372
# Poissons Ratio (z) = 0.52496 0.02022
#
# Static dielectric constant tensor:
#      x y z
#    x 3.537990 0.000000 0.000000 
#    y 0.000000 3.369760 0.000000 
#    z 0.000000 0.000000 3.352920 
# 
# 
# High freq. dielectric constant tensor:
#      x y z
#    x 1.706380 0.000000 0.000000 
#    y 0.000000 1.689580 0.000000 
#    z 0.000000 0.000000 1.692790 
# 
# From -- ./inp_files/71827.got.cif
#   From: 2010.03.12/outbox.cif.g09.slc.cpg/sg65_36_cif.got.tgz:71827.got - 2010.04.10 20:52:16.
