data_PCOD8266307
_publ_section_title
;
Structure prediction by ZEFSAII (Michael W. Deem and Ramdas Pophale) SiO2 
 PCOD8266307
Probable space group: C M M M
;
_chemical_formula_sum "Si O2"
_cell_formula_units_Z 72
_cell_length_a 9.005742
_cell_length_b 19.033083
_cell_length_c 23.608031
_cell_angle_alpha 90.000000
_cell_angle_beta 90.000000
_cell_angle_gamma 90.000000
_cell_volume 4046.582595
_symmetry_space_group_name_H-M "C M M M"
_symmetry_group_IT_number 65
_symmetry_cell_setting 'orthorhombic'
loop_
_space_group_symop_operation_xyz
x,y,z
-x,-y,z
x,-y,-z
-x,y,-z
-x,-y,-z
x,y,-z
-x,y,z
x,-y,z
1/2+x,1/2+y,z
1/2-x,1/2-y,z
1/2+x,1/2-y,-z
1/2-x,1/2+y,-z
1/2-x,1/2-y,-z
1/2+x,1/2+y,-z
1/2-x,1/2+y,z
1/2+x,1/2-y,z
loop_
_atom_site_type_symbol
_atom_site_label
_atom_site_fract_x
_atom_site_fract_y
_atom_site_fract_z
Si Si1 0.679132 0.827141 0.000000
Si Si2 0.832888 0.083550 0.561963
Si Si3 0.322980 0.325449 0.111714
Si Si4 0.333743 0.916244 0.670604
Si Si5 0.173406 0.920385 0.217881
O O1 0.750000 0.750000 0.000000
O O2 0.745374 0.862637 0.056932
O O3 0.500000 0.826763 0.000000
O O4 0.770786 0.107191 0.500000
O O5 0.736100 0.115674 0.613027
O O6 0.000000 0.111281 0.569395
O O7 0.830800 0.000000 0.565418
O O8 0.500000 0.318160 0.102534
O O9 0.250000 0.250000 0.123081
O O10 0.281334 0.374131 0.164328
O O11 0.500000 0.888035 0.674162
O O12 0.249321 0.888349 0.726136
O O13 0.325472 0.000000 0.668891
O O14 0.000000 0.918110 0.229375
O O15 0.227204 0.000000 0.206214
#
# Coordination Sequence:
#
# PCOD8266307 Si02
#       5
#     8  16  16  16  16
#     4  10  18  30  49  70  93 119 147 181 221 266
#     4   8  13  21  33  49  72 106 146 183 218 260
#     4  10  19  32  51  72  93 117 148 186 224 263
#     4   9  16  24  36  56  82 112 144 181 225 267
#     4   9  18  32  48  65  88 121 156 185 217 263
#
# _framework density 17.792791000000001
#
# number of rings (size 3 to 8) (size 9 to 14) (size 15 to 20)
#    0.000    2.889    0.000    4.333    0.000    4.889 
#    0.000    2.778    0.000    3.333    0.000    0.000 
#    0.000    0.889    0.000    2.889    0.000    5.778 
#
# Total GULP energy -446134.267925 kJ/mol
# GULP energy per Si atom -12392.618553 kJ/mol
# Density = 1.775229 g / cm^3
# Si number density = 17.792791 Si / 1000 Ang^3
#
#
#
# Elastic Constant Matrix: (Units=GPa)
#
#
# Indices 1 2 3 4 5 6 
#
# 1 100.4320 22.9772 89.3707 0.0000 0.0000 0.0000
# 2 22.9772 28.4558 41.6026 0.0000 0.0000 0.0000
# 3 89.3707 41.6026 213.2993 0.0000 0.0000 0.0000
# 4 0.0000 0.0000 0.0000 -1.5405 0.0000 0.0000
# 5 0.0000 0.0000 0.0000 0.0000 32.5818 0.0000
# 6 0.0000 0.0000 0.0000 0.0000 0.0000 13.3949
#
#
#
# Elastic Compliance Matrix: (Units=1/GPa)
#
#
# Indices 1 2 3 4 5 6 
#
# 1 0.016267 -0.004435 -0.005951 0.000000 0.000000 0.000000
# 2 -0.004435 0.050370 -0.007966 0.000000 0.000000 0.000000
# 3 -0.005951 -0.007966 0.008735 0.000000 0.000000 0.000000
# 4 0.000000 0.000000 0.000000 -0.649130 0.000000 0.000000
# 5 0.000000 0.000000 0.000000 0.000000 0.030692 0.000000
# 6 0.000000 0.000000 0.000000 0.000000 0.000000 0.074655
#
#
# Mechanical properties :
#
#
# Convention : Reuss Voigt Hill
#
# Bulk Modulus (GPa) = 25.86090 72.23199 49.04645
# Shear Modulus (GPa) = -11.93837 21.43635 4.74899
#
# Velocity S-wave (km/s) = -2.59311 3.47476 1.63550
# Velocity P-wave (km/s) = 2.36652 7.53544 5.58495
#
# Compressibility (1/GPa) = 0.03866841
#
# Stress axis : x y z
#
# Youngs Moduli (GPa) = 61.47426 19.85313 114.47865
#
# Poissons Ratio (x) = 0.08805 0.68123
# Poissons Ratio (y) = 0.27265 0.91194
# Poissons Ratio (z) = 0.36581 0.15815
#
# Static dielectric constant tensor:
#      x y z
#    x 3.389830 0.000000 0.000000 
#    y 0.000000 2.684810 0.000000 
#    z 0.000000 0.000000 3.946380 
# 
# 
# High freq. dielectric constant tensor:
#      x y z
#    x 1.694280 0.000000 0.000000 
#    y 0.000000 1.609790 0.000000 
#    z 0.000000 0.000000 1.715870 
# 
# From -- ./inp_files/64996.got.cif
#   From: 2010.03.12/outbox.cif.g09.slc.cpg/sg65_33_cif.got.tgz:64996.got - 2010.04.10 20:52:16.
