data_PCOD8266071
_publ_section_title
;
Structure prediction by ZEFSAII (Michael W. Deem and Ramdas Pophale) SiO2 
 PCOD8266071
Probable space group: C M M M
;
_chemical_formula_sum "Si O2"
_cell_formula_units_Z 88
_cell_length_a 8.813078
_cell_length_b 24.921522
_cell_length_c 21.968846
_cell_angle_alpha 90.000000
_cell_angle_beta 90.000000
_cell_angle_gamma 90.000000
_cell_volume 4825.134461
_symmetry_space_group_name_H-M "C M M M"
_symmetry_group_IT_number 65
_symmetry_cell_setting 'orthorhombic'
loop_
_space_group_symop_operation_xyz
x,y,z
-x,-y,z
x,-y,-z
-x,y,-z
-x,-y,-z
x,y,-z
-x,y,z
x,-y,z
1/2+x,1/2+y,z
1/2-x,1/2-y,z
1/2+x,1/2-y,-z
1/2-x,1/2+y,-z
1/2-x,1/2-y,-z
1/2+x,1/2+y,-z
1/2-x,1/2+y,z
1/2+x,1/2-y,z
loop_
_atom_site_type_symbol
_atom_site_label
_atom_site_fract_x
_atom_site_fract_y
_atom_site_fract_z
Si Si1 0.674912 0.500000 0.071713
Si Si2 0.679063 0.500000 0.619176
Si Si3 0.320332 0.693262 0.197198
Si Si4 0.180897 0.890082 0.432331
Si Si5 0.822268 0.586718 0.847161
Si Si6 0.821100 0.194869 0.336059
Si Si7 0.673470 0.000000 0.252831
O O1 0.500000 0.500000 0.091948
O O2 0.753069 0.445991 0.096510
O O3 0.694662 0.500000 0.000000
O O4 0.500000 0.500000 0.613511
O O5 0.746755 0.551743 0.585201
O O6 0.717241 0.500000 0.690027
O O7 0.500000 0.696136 0.189032
O O8 0.250000 0.750000 0.175633
O O9 0.254601 0.645135 0.156503
O O10 0.272227 0.681508 0.267022
O O11 0.237834 0.874362 0.500000
O O12 0.245610 0.849353 0.382023
O O13 0.000000 0.890496 0.430149
O O14 0.790179 0.553180 0.785920
O O15 0.000000 0.594041 0.858621
O O16 0.750000 0.250000 0.358329
O O17 0.000000 0.199337 0.341095
O O18 0.500000 0.000000 0.274673
#
# Coordination Sequence:
#
# PCOD8266071 Si02
#       7
#     8   8  16  16  16  16   8
#     4  10  21  37  58  84 113 146 181 214 248 288
#     4  10  18  29  48  69  87 115 157 201 249 306
#     4  10  19  32  51  76 106 137 171 212 259 311
#     4   9  17  29  45  65  88 115 153 202 251 301
#     4  10  20  34  53  79 109 140 175 212 254 301
#     4   9  18  31  47  68  93 123 159 201 250 302
#     4   9  19  32  47  71 102 131 158 201 259 309
#
# _framework density 18.237832999999998
#
# number of rings (size 3 to 8) (size 9 to 14) (size 15 to 20)
#    0.000    2.455    0.000    3.273    0.000    6.545 
#    0.000    0.909    0.000    2.727    0.000    0.000 
#    0.000    0.000    0.000    0.000    0.000    0.000 
#
# Total GULP energy -545602.970464 kJ/mol
# GULP energy per Si atom -12400.067511 kJ/mol
# Density = 1.819632 g / cm^3
# Si number density = 18.237833 Si / 1000 Ang^3
#
#
#
# Elastic Constant Matrix: (Units=GPa)
#
#
# Indices 1 2 3 4 5 6 
#
# 1 58.0354 46.5116 29.0838 0.0000 0.0000 0.0000
# 2 46.5116 161.6549 53.4247 0.0000 0.0000 0.0000
# 3 29.0838 53.4247 77.1510 0.0000 0.0000 0.0000
# 4 0.0000 0.0000 0.0000 12.9431 0.0000 0.0000
# 5 0.0000 0.0000 0.0000 0.0000 18.0145 0.0000
# 6 0.0000 0.0000 0.0000 0.0000 0.0000 31.7341
#
#
#
# Elastic Compliance Matrix: (Units=1/GPa)
#
#
# Indices 1 2 3 4 5 6 
#
# 1 0.024101 -0.005099 -0.005555 0.000000 0.000000 0.000000
# 2 -0.005099 0.009100 -0.004380 0.000000 0.000000 0.000000
# 3 -0.005555 -0.004380 0.018088 0.000000 0.000000 0.000000
# 4 0.000000 0.000000 0.000000 0.077261 0.000000 0.000000
# 5 0.000000 0.000000 0.000000 0.000000 0.055511 0.000000
# 6 0.000000 0.000000 0.000000 0.000000 0.000000 0.031512
#
#
# Mechanical properties :
#
#
# Convention : Reuss Voigt Hill
#
# Bulk Modulus (GPa) = 47.11751 61.65348 54.38549
# Shear Modulus (GPa) = 19.78520 23.72642 21.75581
#
# Velocity S-wave (km/s) = 3.29727 3.61077 3.45758
# Velocity P-wave (km/s) = 6.35509 7.15977 6.76939
#
# Compressibility (1/GPa) = 0.02122353
#
# Stress axis : x y z
#
# Youngs Moduli (GPa) = 41.49257 109.88492 55.28395
#
# Poissons Ratio (x) = 0.56025 0.30709
# Poissons Ratio (y) = 0.21155 0.24213
# Poissons Ratio (z) = 0.23048 0.48127
#
# Static dielectric constant tensor:
#      x y z
#    x 3.176480 0.000000 0.000000 
#    y 0.000000 3.564420 0.000000 
#    z 0.000000 0.000000 3.214480 
# 
# 
# High freq. dielectric constant tensor:
#      x y z
#    x 1.692500 0.000000 0.000000 
#    y 0.000000 1.716630 0.000000 
#    z 0.000000 0.000000 1.687740 
# 
# From -- ./inp_files/59924.got.cif
#   From: 2010.03.12/outbox.cif.g09.slc.cpg/sg65_30_cif.got.tgz:59924.got - 2010.04.10 20:52:16.
