data_PCOD8266738
_publ_section_title
;
Structure prediction by ZEFSAII (Michael W. Deem and Ramdas Pophale) SiO2 
 PCOD8266738
Probable space group: C M M M
;
_chemical_formula_sum "Si O2"
_cell_formula_units_Z 104
_cell_length_a 9.190269
_cell_length_b 23.441318
_cell_length_c 27.838394
_cell_angle_alpha 90.000000
_cell_angle_beta 90.000000
_cell_angle_gamma 90.000000
_cell_volume 5997.281401
_symmetry_space_group_name_H-M "C M M M"
_symmetry_group_IT_number 65
_symmetry_cell_setting 'orthorhombic'
loop_
_space_group_symop_operation_xyz
x,y,z
-x,-y,z
x,-y,-z
-x,y,-z
-x,-y,-z
x,y,-z
-x,y,z
x,-y,z
1/2+x,1/2+y,z
1/2-x,1/2-y,z
1/2+x,1/2-y,-z
1/2-x,1/2+y,-z
1/2-x,1/2-y,-z
1/2+x,1/2+y,-z
1/2-x,1/2+y,z
1/2+x,1/2-y,z
loop_
_atom_site_type_symbol
_atom_site_label
_atom_site_fract_x
_atom_site_fract_y
_atom_site_fract_z
Si Si1 0.336814 0.432360 0.447328
Si Si2 0.827085 0.189576 0.819991
Si Si3 0.169731 0.500000 0.887815
Si Si4 0.162377 0.000000 0.207734
Si Si5 0.827876 0.375653 0.094972
Si Si6 0.671299 0.065893 0.354565
Si Si7 0.834345 0.112334 0.732102
Si Si8 0.670671 0.809322 0.000000
O O1 0.286766 0.409309 0.500000
O O2 0.500000 0.410690 0.435952
O O3 0.334912 0.500000 0.448688
O O4 0.228963 0.410899 0.405750
O O5 0.750000 0.250000 0.825329
O O6 0.762493 0.147582 0.860028
O O7 0.792349 0.164819 0.767021
O O8 0.000000 0.195283 0.828209
O O9 0.223054 0.500000 0.833946
O O10 0.218290 0.441754 0.914291
O O11 0.000000 0.500000 0.883756
O O12 0.190539 0.054725 0.239394
O O13 0.000000 0.000000 0.185926
O O14 0.779976 0.343201 0.047119
O O15 0.000000 0.368943 0.105340
O O16 0.500000 0.070696 0.354578
O O17 0.732402 0.109120 0.314453
O O18 0.721068 0.000000 0.345487
O O19 0.000000 0.118258 0.714471
O O20 0.750000 0.750000 0.000000
O O21 0.500000 0.798508 0.000000
#
# Coordination Sequence:
#
# PCOD8266738 Si02
#       8
#    16  16   8   8  16  16  16   8
#     4   8  14  25  40  57  83 125 171 208 244 292
#     4  11  23  38  56  77 101 132 169 209 253 301
#     4  10  20  33  54  82 108 133 163 204 253 300
#     4  10  18  32  51  73 100 131 166 204 245 297
#     4  10  21  37  57  81 107 135 167 206 251 302
#     4  10  19  27  40  66  97 128 163 206 252 295
#     4  10  20  33  50  70  96 131 166 202 245 297
#     4  10  22  39  57  77 103 136 175 214 253 298
#
# _framework density 17.341190000000001
#
# number of rings (size 3 to 8) (size 9 to 14) (size 15 to 20)
#    0.000    2.154    2.308    1.846    0.000    4.923 
#    0.000    3.077    0.000    0.000    0.000    2.154 
#    0.000    0.615    0.000    2.000    0.000    2.462 
#
# Total GULP energy -644603.808890 kJ/mol
# GULP energy per Si atom -12396.227094 kJ/mol
# Density = 1.730172 g / cm^3
# Si number density = 17.341190 Si / 1000 Ang^3
#
#
#
# Elastic Constant Matrix: (Units=GPa)
#
#
# Indices 1 2 3 4 5 6 
#
# 1 57.1225 46.1703 55.3054 0.0000 0.0000 0.0000
# 2 46.1703 93.3367 47.7837 0.0000 0.0000 0.0000
# 3 55.3054 47.7837 128.9028 0.0000 0.0000 0.0000
# 4 0.0000 0.0000 0.0000 15.6748 0.0000 0.0000
# 5 0.0000 0.0000 0.0000 0.0000 30.7176 0.0000
# 6 0.0000 0.0000 0.0000 0.0000 0.0000 19.7093
#
#
#
# Elastic Compliance Matrix: (Units=1/GPa)
#
#
# Indices 1 2 3 4 5 6 
#
# 1 0.040517 -0.013753 -0.012286 0.000000 0.000000 0.000000
# 2 -0.013753 0.017891 -0.000732 0.000000 0.000000 0.000000
# 3 -0.012286 -0.000732 0.013300 0.000000 0.000000 0.000000
# 4 0.000000 0.000000 0.000000 0.063797 0.000000 0.000000
# 5 0.000000 0.000000 0.000000 0.000000 0.032555 0.000000
# 6 0.000000 0.000000 0.000000 0.000000 0.000000 0.050738
#
#
# Mechanical properties :
#
#
# Convention : Reuss Voigt Hill
#
# Bulk Modulus (GPa) = 55.04036 64.20898 59.62467
# Shear Modulus (GPa) = 17.96019 21.89383 19.92701
#
# Velocity S-wave (km/s) = 3.22171 3.55707 3.39354
# Velocity P-wave (km/s) = 6.75632 7.34694 7.05781
#
# Compressibility (1/GPa) = 0.01816849
#
# Stress axis : x y z
#
# Youngs Moduli (GPa) = 24.68112 55.89276 75.18705
#
# Poissons Ratio (x) = 0.76867 0.92372
# Poissons Ratio (y) = 0.33943 0.05502
# Poissons Ratio (z) = 0.30322 0.04090
#
# Static dielectric constant tensor:
#      x y z
#    x 3.235870 0.000000 0.000000 
#    y 0.000000 3.005120 0.000000 
#    z 0.000000 0.000000 3.443420 
# 
# 
# High freq. dielectric constant tensor:
#      x y z
#    x 1.670210 0.000000 0.000000 
#    y 0.000000 1.639630 0.000000 
#    z 0.000000 0.000000 1.673800 
# 
# From -- ./inp_files/73656.got.cif
#   From: 2010.03.12/outbox.cif.g09.slc.cpg/sg65_37_cif.got.tgz:73656.got - 2010.04.10 20:52:16.
