data_PCOD8266087
_publ_section_title
;
Structure prediction by ZEFSAII (Michael W. Deem and Ramdas Pophale) SiO2 
 PCOD8266087
Probable space group: C M M M
;
_chemical_formula_sum "Si O2"
_cell_formula_units_Z 80
_cell_length_a 8.849333
_cell_length_b 29.524167
_cell_length_c 16.807657
_cell_angle_alpha 90.000000
_cell_angle_beta 90.000000
_cell_angle_gamma 90.000000
_cell_volume 4391.322852
_symmetry_space_group_name_H-M "C M M M"
_symmetry_group_IT_number 65
_symmetry_cell_setting 'orthorhombic'
loop_
_space_group_symop_operation_xyz
x,y,z
-x,-y,z
x,-y,-z
-x,y,-z
-x,-y,-z
x,y,-z
-x,y,z
x,-y,z
1/2+x,1/2+y,z
1/2-x,1/2-y,z
1/2+x,1/2-y,-z
1/2-x,1/2+y,-z
1/2-x,1/2-y,-z
1/2+x,1/2+y,-z
1/2-x,1/2+y,z
1/2+x,1/2-y,z
loop_
_atom_site_type_symbol
_atom_site_label
_atom_site_fract_x
_atom_site_fract_y
_atom_site_fract_z
Si Si1 0.179687 0.050079 0.588374
Si Si2 0.680174 0.628666 0.699162
Si Si3 0.178480 0.200457 0.000000
Si Si4 0.324459 0.798457 0.589073
Si Si5 0.320137 0.448636 0.000000
Si Si6 0.679417 0.625574 0.878035
O O1 0.236955 0.063565 0.500000
O O2 0.244322 0.084784 0.653086
O O3 0.000000 0.050805 0.589352
O O4 0.238727 0.000000 0.610669
O O5 0.500000 0.630488 0.698343
O O6 0.742651 0.672224 0.655277
O O7 0.744485 0.626620 0.788778
O O8 0.250000 0.250000 0.000000
O O9 0.232007 0.171407 0.923104
O O10 0.000000 0.206888 0.000000
O O11 0.300278 0.818622 0.500000
O O12 0.500000 0.794609 0.609856
O O13 0.250000 0.750000 0.594157
O O14 0.263880 0.420194 0.922671
O O15 0.252500 0.500000 0.000000
O O16 0.500000 0.451628 0.000000
O O17 0.500000 0.624415 0.877296
#
# Coordination Sequence:
#
# PCOD8266087 Si02
#       6
#    16  16   8  16   8  16
#     4   8  14  24  39  63  94 124 154 189 228 269
#     4  10  18  29  48  72  98 127 159 199 244 283
#     4   9  17  32  49  63  87 120 150 184 228 276
#     4  10  21  36  52  70  94 125 161 198 238 288
#     4   8  13  24  43  66  97 134 163 191 235 287
#     4   8  16  28  42  66  96 122 153 194 235 277
#
# _framework density 18.217745000000001
#
# number of rings (size 3 to 8) (size 9 to 14) (size 15 to 20)
#    0.000    3.100    0.000    3.000    0.000    3.600 
#    0.000    7.000    0.000    0.600    0.000    2.800 
#    0.000   13.600    0.000    0.000    0.000    0.000 
#
# Total GULP energy -495719.596337 kJ/mol
# GULP energy per Si atom -12392.989908 kJ/mol
# Density = 1.817628 g / cm^3
# Si number density = 18.217745 Si / 1000 Ang^3
#
#
#
# Elastic Constant Matrix: (Units=GPa)
#
#
# Indices 1 2 3 4 5 6 
#
# 1 17.9765 17.4355 20.2742 0.0000 0.0000 0.0000
# 2 17.4355 142.5372 87.8019 0.0000 0.0000 0.0000
# 3 20.2742 87.8019 172.5758 0.0000 0.0000 0.0000
# 4 0.0000 0.0000 0.0000 9.0164 0.0000 0.0000
# 5 0.0000 0.0000 0.0000 0.0000 13.1453 0.0000
# 6 0.0000 0.0000 0.0000 0.0000 0.0000 16.8050
#
#
#
# Elastic Compliance Matrix: (Units=1/GPa)
#
#
# Indices 1 2 3 4 5 6 
#
# 1 0.066328 -0.004826 -0.005337 0.000000 0.000000 0.000000
# 2 -0.004826 0.010569 -0.004810 0.000000 0.000000 0.000000
# 3 -0.005337 -0.004810 0.008869 0.000000 0.000000 0.000000
# 4 0.000000 0.000000 0.000000 0.110910 0.000000 0.000000
# 5 0.000000 0.000000 0.000000 0.000000 0.076073 0.000000
# 6 0.000000 0.000000 0.000000 0.000000 0.000000 0.059506
#
#
# Mechanical properties :
#
#
# Convention : Reuss Voigt Hill
#
# Bulk Modulus (GPa) = 17.91485 64.90141 41.40813
# Shear Modulus (GPa) = 13.12999 21.63184 17.38092
#
# Velocity S-wave (km/s) = 2.68755 3.44961 3.09215
# Velocity P-wave (km/s) = 4.41425 7.18117 5.96049
#
# Compressibility (1/GPa) = 0.05581960
#
# Stress axis : x y z
#
# Youngs Moduli (GPa) = 15.07663 94.61478 112.75323
#
# Poissons Ratio (x) = 0.45660 0.60176
# Poissons Ratio (y) = 0.07276 0.54238
# Poissons Ratio (z) = 0.08046 0.45513
#
# Static dielectric constant tensor:
#      x y z
#    x 2.817980 0.000000 0.000000 
#    y 0.000000 3.543300 0.000000 
#    z 0.000000 0.000000 3.766340 
# 
# 
# High freq. dielectric constant tensor:
#      x y z
#    x 1.649730 0.000000 0.000000 
#    y 0.000000 1.715030 0.000000 
#    z 0.000000 0.000000 1.711520 
# 
# From -- ./inp_files/49969.got.cif
#   From: 2010.03.12/outbox.cif.g09.slc.cpg/sg65_25_cif.got.tgz:49969.got - 2010.04.10 20:52:16.
