data_PCOD8266239
_publ_section_title
;
Structure prediction by ZEFSAII (Michael W. Deem and Ramdas Pophale) SiO2 
 PCOD8266239
Probable space group: C M M M
;
_chemical_formula_sum "Si O2"
_cell_formula_units_Z 96
_cell_length_a 28.784184
_cell_length_b 13.372620
_cell_length_c 14.572760
_cell_angle_alpha 90.000000
_cell_angle_beta 90.000000
_cell_angle_gamma 90.000000
_cell_volume 5609.346118
_symmetry_space_group_name_H-M "C M M M"
_symmetry_group_IT_number 65
_symmetry_cell_setting 'orthorhombic'
loop_
_space_group_symop_operation_xyz
x,y,z
-x,-y,z
x,-y,-z
-x,y,-z
-x,-y,-z
x,y,-z
-x,y,z
x,-y,z
1/2+x,1/2+y,z
1/2-x,1/2-y,z
1/2+x,1/2-y,-z
1/2-x,1/2+y,-z
1/2-x,1/2-y,-z
1/2+x,1/2+y,-z
1/2-x,1/2+y,z
1/2+x,1/2-y,z
loop_
_atom_site_type_symbol
_atom_site_label
_atom_site_fract_x
_atom_site_fract_y
_atom_site_fract_z
Si Si1 0.221498 0.117878 0.304952
Si Si2 0.447165 0.616688 0.305176
Si Si3 0.808385 0.382937 0.189843
Si Si4 0.190758 0.119351 0.500000
Si Si5 0.413614 0.381643 0.500000
Si Si6 0.364563 0.698821 0.193181
Si Si7 0.761760 0.384350 0.000000
Si Si8 0.658201 0.619973 0.000000
O O1 0.269753 0.158174 0.261918
O O2 0.216352 0.159735 0.408602
O O3 0.176903 0.140577 0.243287
O O4 0.226076 0.000000 0.306065
O O5 0.500000 0.636356 0.275016
O O6 0.434104 0.500000 0.297573
O O7 0.440440 0.655343 0.409428
O O8 0.414062 0.678939 0.238790
O O9 0.820004 0.500000 0.201843
O O10 0.854977 0.318021 0.202552
O O11 0.790219 0.355039 0.089384
O O12 0.138471 0.162187 0.500000
O O13 0.189541 0.000000 0.500000
O O14 0.411987 0.500000 0.500000
O O15 0.368248 0.661622 0.088842
O O16 0.710766 0.333623 0.000000
O O17 0.750558 0.500000 0.000000
O O18 0.656883 0.500000 0.000000
#
# Coordination Sequence:
#
# PCOD8266239 Si02
#       8
#    16  16  16   8   8  16   8   8
#     4  10  18  30  47  71 102 133 162 197 243 298
#     4  10  20  34  53  77 102 126 158 203 254 307
#     4  10  21  34  48  70 100 134 173 212 244 278
#     4   9  16  27  46  70 102 135 164 196 238 298
#     4   9  15  28  50  76 101 127 157 199 252 295
#     4  12  21  32  51  72  99 135 171 202 245 295
#     4   9  17  31  49  70  98 129 165 207 241 273
#     4  11  21  31  49  77 106 135 164 199 242 297
#
# _framework density 17.114294000000001
#
# number of rings (size 3 to 8) (size 9 to 14) (size 15 to 20)
#    0.000    1.833    3.333    2.750    0.000    1.667 
#    0.000    2.917    0.000    2.000    0.000    0.000 
#    0.000    4.667    0.000    0.000    0.000    0.000 
#
# Total GULP energy -595139.965850 kJ/mol
# GULP energy per Si atom -12398.749289 kJ/mol
# Density = 1.707534 g / cm^3
# Si number density = 17.114294 Si / 1000 Ang^3
#
#
#
# Elastic Constant Matrix: (Units=GPa)
#
#
# Indices 1 2 3 4 5 6 
#
# 1 105.3002 44.9642 58.4411 0.0000 0.0000 0.0000
# 2 44.9642 53.2523 30.9236 0.0000 0.0000 0.0000
# 3 58.4411 30.9236 139.2327 0.0000 0.0000 0.0000
# 4 0.0000 0.0000 0.0000 9.5080 0.0000 0.0000
# 5 0.0000 0.0000 0.0000 0.0000 15.3597 0.0000
# 6 0.0000 0.0000 0.0000 0.0000 0.0000 23.4104
#
#
#
# Elastic Compliance Matrix: (Units=1/GPa)
#
#
# Indices 1 2 3 4 5 6 
#
# 1 0.017031 -0.011744 -0.004540 0.000000 0.000000 0.000000
# 2 -0.011744 0.029657 -0.001657 0.000000 0.000000 0.000000
# 3 -0.004540 -0.001657 0.009456 0.000000 0.000000 0.000000
# 4 0.000000 0.000000 0.000000 0.105175 0.000000 0.000000
# 5 0.000000 0.000000 0.000000 0.000000 0.065105 0.000000
# 6 0.000000 0.000000 0.000000 0.000000 0.000000 0.042716
#
#
# Mechanical properties :
#
#
# Convention : Reuss Voigt Hill
#
# Bulk Modulus (GPa) = 49.35590 62.93810 56.14700
# Shear Modulus (GPa) = 16.03703 20.55270 18.29487
#
# Velocity S-wave (km/s) = 3.06446 3.46917 3.27308
# Velocity P-wave (km/s) = 6.43605 7.27337 6.86748
#
# Compressibility (1/GPa) = 0.02026100
#
# Stress axis : x y z
#
# Youngs Moduli (GPa) = 58.71531 33.71855 105.75201
#
# Poissons Ratio (x) = 0.39599 0.48015
# Poissons Ratio (y) = 0.68956 0.17528
# Poissons Ratio (z) = 0.26659 0.05589
#
# Static dielectric constant tensor:
#      x y z
#    x 2.949280 0.000000 0.000000 
#    y 0.000000 3.008220 0.000000 
#    z 0.000000 0.000000 3.422020 
# 
# 
# High freq. dielectric constant tensor:
#      x y z
#    x 1.625820 0.000000 0.000000 
#    y 0.000000 1.640430 0.000000 
#    z 0.000000 0.000000 1.676530 
# 
# From -- ./inp_files/46996.got.cif
#   From: 2010.03.12/outbox.cif.g09.slc.cpg/sg65_24_cif.got.tgz:46996.got - 2010.04.10 20:52:16.
