data_PCOD8266979
_publ_section_title
;
Structure prediction by ZEFSAII (Michael W. Deem and Ramdas Pophale) SiO2 
 PCOD8266979
Probable space group: C M M M
;
_chemical_formula_sum "Si O2"
_cell_formula_units_Z 40
_cell_length_a 10.223235
_cell_length_b 26.261790
_cell_length_c 8.738387
_cell_angle_alpha 90.000000
_cell_angle_beta 90.000000
_cell_angle_gamma 90.000000
_cell_volume 2346.086080
_symmetry_space_group_name_H-M "C M M M"
_symmetry_group_IT_number 65
_symmetry_cell_setting 'orthorhombic'
loop_
_space_group_symop_operation_xyz
x,y,z
-x,-y,z
x,-y,-z
-x,y,-z
-x,-y,-z
x,y,-z
-x,y,z
x,-y,z
1/2+x,1/2+y,z
1/2-x,1/2-y,z
1/2+x,1/2-y,-z
1/2-x,1/2+y,-z
1/2-x,1/2-y,-z
1/2+x,1/2+y,-z
1/2-x,1/2+y,z
1/2+x,1/2-y,z
loop_
_atom_site_type_symbol
_atom_site_label
_atom_site_fract_x
_atom_site_fract_y
_atom_site_fract_z
Si Si1 0.248345 0.147000 0.170117
Si Si2 0.655147 0.557112 0.000000
Si Si3 0.000000 0.317040 0.677856
Si Si4 0.500000 0.293105 0.181170
O O1 0.204964 0.087663 0.151137
O O2 0.372856 0.150034 0.280027
O O3 0.130391 0.179558 0.245654
O O4 0.283122 0.169109 0.000000
O O5 0.712834 0.500000 0.000000
O O6 0.500000 0.556321 0.000000
O O7 0.000000 0.265179 0.772165
O O8 0.000000 0.304232 0.500000
O O9 0.500000 0.300534 0.000000
#
# Coordination Sequence:
#
# PCOD8266979 Si02
#       4
#    16   8   8   8
#     4   9  18  35  53  80 101 134 171 215 264 302
#     4   9  16  33  62  90  99 114 167 231 276 302
#     4  12  24  32  46  73 114 153 174 202 242 302
#     4  10  18  34  54  76 103 136 179 212 258 304
#
# _framework density 17.049672999999999
#
# number of rings (size 3 to 8) (size 9 to 14) (size 15 to 20)
#    1.200    1.000    2.000    3.000    0.000    6.400 
#    0.000    2.000    0.000    2.400    0.000    2.800 
#    0.000    0.000    0.000    0.000    0.000    0.000 
#
# Total GULP energy -247860.987295 kJ/mol
# GULP energy per Si atom -12393.049365 kJ/mol
# Density = 1.701087 g / cm^3
# Si number density = 17.049673 Si / 1000 Ang^3
#
#
#
# Elastic Constant Matrix: (Units=GPa)
#
#
# Indices 1 2 3 4 5 6 
#
# 1 128.6602 43.6538 25.9256 0.0000 0.0000 0.0000
# 2 43.6538 124.9785 3.6003 0.0000 0.0000 0.0000
# 3 25.9256 3.6003 24.2048 0.0000 0.0000 0.0000
# 4 0.0000 0.0000 0.0000 2.3380 0.0000 0.0000
# 5 0.0000 0.0000 0.0000 0.0000 2.8878 0.0000
# 6 0.0000 0.0000 0.0000 0.0000 0.0000 4.4004
#
#
#
# Elastic Compliance Matrix: (Units=1/GPa)
#
#
# Indices 1 2 3 4 5 6 
#
# 1 0.011342 -0.003627 -0.011609 0.000000 0.000000 0.000000
# 2 -0.003627 0.009196 0.002517 0.000000 0.000000 0.000000
# 3 -0.011609 0.002517 0.053374 0.000000 0.000000 0.000000
# 4 0.000000 0.000000 0.000000 0.427708 0.000000 0.000000
# 5 0.000000 0.000000 0.000000 0.000000 0.346279 0.000000
# 6 0.000000 0.000000 0.000000 0.000000 0.000000 0.227250
#
#
# Mechanical properties :
#
#
# Convention : Reuss Voigt Hill
#
# Bulk Modulus (GPa) = 20.62958 47.13364 33.88161
# Shear Modulus (GPa) = 4.47729 15.56952 10.02341
#
# Velocity S-wave (km/s) = 1.62226 3.02517 2.42728
# Velocity P-wave (km/s) = 3.95410 6.31721 5.26982
#
# Compressibility (1/GPa) = 0.04847408
#
# Stress axis : x y z
#
# Youngs Moduli (GPa) = 88.16409 108.74445 18.73565
#
# Poissons Ratio (x) = 0.39446 0.21751
# Poissons Ratio (y) = 0.31981 -0.04717
# Poissons Ratio (z) = 1.02352 -0.27376
#
# Static dielectric constant tensor:
#      x y z
#    x 3.286990 0.000000 0.000000 
#    y 0.000000 3.163300 0.000000 
#    z 0.000000 0.000000 2.740200 
# 
# 
# High freq. dielectric constant tensor:
#      x y z
#    x 1.673130 0.000000 0.000000 
#    y 0.000000 1.644020 0.000000 
#    z 0.000000 0.000000 1.609640 
# 
# From -- ./inp_files/2809.got.cif
#   From: 2010.03.12/outbox.cif.g09.slc.cpg/sg65_2_cif.got.tgz:2809.got - 2010.04.10 20:52:16.
