data_PCOD8266892
_publ_section_title
;
Structure prediction by ZEFSAII (Michael W. Deem and Ramdas Pophale) SiO2 
 PCOD8266892
Probable space group: C M M M
;
_chemical_formula_sum "Si O2"
_cell_formula_units_Z 84
_cell_length_a 14.037524
_cell_length_b 20.145323
_cell_length_c 16.209536
_cell_angle_alpha 90.000000
_cell_angle_beta 90.000000
_cell_angle_gamma 90.000000
_cell_volume 4583.902062
_symmetry_space_group_name_H-M "C M M M"
_symmetry_group_IT_number 65
_symmetry_cell_setting 'orthorhombic'
loop_
_space_group_symop_operation_xyz
x,y,z
-x,-y,z
x,-y,-z
-x,y,-z
-x,-y,-z
x,y,-z
-x,y,z
x,-y,z
1/2+x,1/2+y,z
1/2-x,1/2-y,z
1/2+x,1/2-y,-z
1/2-x,1/2+y,-z
1/2-x,1/2-y,-z
1/2+x,1/2+y,-z
1/2-x,1/2+y,z
1/2+x,1/2-y,z
loop_
_atom_site_type_symbol
_atom_site_label
_atom_site_fract_x
_atom_site_fract_y
_atom_site_fract_z
Si Si1 0.202183 0.424154 0.254551
Si Si2 0.000000 0.345122 0.500000
Si Si3 0.000000 0.380009 0.313773
Si Si4 0.500000 0.267236 0.755267
Si Si5 0.500000 0.339304 0.907434
Si Si6 0.820629 0.187669 0.669744
Si Si7 0.143760 0.771253 0.500000
Si Si8 0.311674 0.422961 0.907253
O O1 0.229323 0.500000 0.272728
O O2 0.090663 0.414185 0.271906
O O3 0.261836 0.379526 0.318055
O O4 0.229331 0.404829 0.159840
O O5 0.000000 0.388210 0.414465
O O6 0.090802 0.298450 0.500000
O O7 0.000000 0.303080 0.289074
O O8 0.500000 0.270653 0.854753
O O9 0.595020 0.307790 0.734625
O O10 0.407311 0.383076 0.887434
O O11 0.500000 0.313702 0.000000
O O12 0.750000 0.250000 0.678379
O O13 0.875061 0.185558 0.581443
O O14 0.250000 0.750000 0.500000
O O15 0.338470 0.500000 0.900739
O O16 0.273822 0.406209 0.000000
#
# Coordination Sequence:
#
# PCOD8266892 Si02
#       8
#    16   4   8   8   8  16   8  16
#     4  11  23  39  58  86 121 157 195 241 298 354
#     4  12  20  38  61  90 111 150 202 260 280 330
#     4  12  23  40  61  83 116 156 207 244 288 341
#     4  12  20  34  60  85 115 148 190 241 290 341
#     4  10  19  32  55  89 121 147 185 241 303 354
#     4  11  20  36  58  85 114 152 195 243 292 344
#     4  10  18  32  56  86 107 140 197 244 284 337
#     4   9  18  34  57  83 113 152 197 239 283 348
#
# _framework density 18.324998000000001
#
# number of rings (size 3 to 8) (size 9 to 14) (size 15 to 20)
#    0.000    1.333    5.714    1.714    0.000    1.143 
#    0.000    4.286    0.000    5.714    0.000    2.000 
#    0.000    0.000    0.000    0.000    0.000    0.000 
#
# Total GULP energy -520504.322340 kJ/mol
# GULP energy per Si atom -12392.960056 kJ/mol
# Density = 1.828329 g / cm^3
# Si number density = 18.324998 Si / 1000 Ang^3
#
#
#
# Elastic Constant Matrix: (Units=GPa)
#
#
# Indices 1 2 3 4 5 6 
#
# 1 104.9722 25.8480 43.4650 0.0000 0.0000 0.0000
# 2 25.8480 69.2358 35.5977 0.0000 0.0000 0.0000
# 3 43.4650 35.5977 143.8602 0.0000 0.0000 0.0000
# 4 0.0000 0.0000 0.0000 27.5998 0.0000 0.0000
# 5 0.0000 0.0000 0.0000 0.0000 27.9892 0.0000
# 6 0.0000 0.0000 0.0000 0.0000 0.0000 14.1078
#
#
#
# Elastic Compliance Matrix: (Units=1/GPa)
#
#
# Indices 1 2 3 4 5 6 
#
# 1 0.011355 -0.002836 -0.002729 0.000000 0.000000 0.000000
# 2 -0.002836 0.017257 -0.003413 0.000000 0.000000 0.000000
# 3 -0.002729 -0.003413 0.008620 0.000000 0.000000 0.000000
# 4 0.000000 0.000000 0.000000 0.036232 0.000000 0.000000
# 5 0.000000 0.000000 0.000000 0.000000 0.035728 0.000000
# 6 0.000000 0.000000 0.000000 0.000000 0.000000 0.070883
#
#
# Mechanical properties :
#
#
# Convention : Reuss Voigt Hill
#
# Bulk Modulus (GPa) = 51.87907 58.65440 55.26673
# Shear Modulus (GPa) = 24.45507 28.14987 26.30247
#
# Velocity S-wave (km/s) = 3.65707 3.92362 3.79269
# Velocity P-wave (km/s) = 6.79737 7.25284 7.02880
#
# Compressibility (1/GPa) = 0.01927560
#
# Stress axis : x y z
#
# Youngs Moduli (GPa) = 88.07026 57.94698 116.00532
#
# Poissons Ratio (x) = 0.16434 0.31656
# Poissons Ratio (y) = 0.24977 0.39597
# Poissons Ratio (z) = 0.24033 0.19779
#
# Static dielectric constant tensor:
#      x y z
#    x 3.479980 0.000000 0.000000 
#    y 0.000000 3.179620 0.000000 
#    z 0.000000 0.000000 2.862520 
# 
# 
# High freq. dielectric constant tensor:
#      x y z
#    x 1.717880 0.000000 0.000000 
#    y 0.000000 1.684940 0.000000 
#    z 0.000000 0.000000 1.724550 
# 
# From -- ./inp_files/40283.got.cif
#   From: 2010.03.12/outbox.cif.g09.slc.cpg/sg65_21_cif.got.tgz:40283.got - 2010.04.10 20:52:16.
