data_PCOD8266498
_publ_section_title
;
Structure prediction by ZEFSAII (Michael W. Deem and Ramdas Pophale) SiO2 
 PCOD8266498
Probable space group: C M M M
;
_chemical_formula_sum "Si O2"
_cell_formula_units_Z 88
_cell_length_a 14.189788
_cell_length_b 18.477870
_cell_length_c 17.599926
_cell_angle_alpha 90.000000
_cell_angle_beta 90.000000
_cell_angle_gamma 90.000000
_cell_volume 4614.648818
_symmetry_space_group_name_H-M "C M M M"
_symmetry_group_IT_number 65
_symmetry_cell_setting 'orthorhombic'
loop_
_space_group_symop_operation_xyz
x,y,z
-x,-y,z
x,-y,-z
-x,y,-z
-x,-y,-z
x,y,-z
-x,y,z
x,-y,z
1/2+x,1/2+y,z
1/2-x,1/2-y,z
1/2+x,1/2-y,-z
1/2-x,1/2+y,-z
1/2-x,1/2-y,-z
1/2+x,1/2+y,-z
1/2-x,1/2+y,z
1/2+x,1/2-y,z
loop_
_atom_site_type_symbol
_atom_site_label
_atom_site_fract_x
_atom_site_fract_y
_atom_site_fract_z
Si Si1 0.108158 0.303949 0.777855
Si Si2 0.221205 0.670306 0.626452
Si Si3 0.604329 0.418483 0.332749
Si Si4 0.895504 0.140454 0.174901
Si Si5 0.724449 0.833442 0.083415
Si Si6 0.611893 0.915196 0.500000
O O1 0.174436 0.329699 0.709608
O O2 0.122061 0.218305 0.785889
O O3 0.140936 0.344370 0.855383
O O4 0.000000 0.324967 0.761810
O O5 0.250000 0.750000 0.597276
O O6 0.319576 0.628688 0.624338
O O7 0.149476 0.627697 0.572986
O O8 0.500000 0.388508 0.353633
O O9 0.616059 0.500000 0.361173
O O10 0.616497 0.417717 0.241510
O O11 0.818785 0.124292 0.109944
O O12 0.000000 0.137391 0.138054
O O13 0.750000 0.750000 0.076997
O O14 0.693396 0.862606 0.000000
O O15 0.500000 0.909959 0.500000
O O16 0.643333 0.000000 0.500000
#
# Coordination Sequence:
#
# PCOD8266498 Si02
#       6
#    16  16  16  16  16   8
#     4  10  18  30  52  81 111 146 187 235 284 331
#     4  12  21  39  63  88 114 146 191 237 284 337
#     4  10  20  34  56  85 115 146 182 228 283 344
#     4   9  16  29  47  74 109 144 185 231 280 334
#     4   9  16  27  43  73 112 148 187 233 284 332
#     4  11  27  46  61  85 119 153 188 231 282 338
#
# _framework density 19.069707999999999
#
# number of rings (size 3 to 8) (size 9 to 14) (size 15 to 20)
#    0.000    1.909    3.636    1.909    0.000    1.455 
#    0.000    4.091    0.000    2.182    0.000    2.545 
#    0.000    1.455    0.000    0.000    0.000    0.000 
#
# Total GULP energy -545434.750996 kJ/mol
# GULP energy per Si atom -12396.244341 kJ/mol
# Density = 1.902630 g / cm^3
# Si number density = 19.069708 Si / 1000 Ang^3
#
#
#
# Elastic Constant Matrix: (Units=GPa)
#
#
# Indices 1 2 3 4 5 6 
#
# 1 123.8026 45.1145 39.8595 0.0000 0.0000 0.0000
# 2 45.1145 67.9938 31.3812 0.0000 0.0000 0.0000
# 3 39.8595 31.3812 91.5606 0.0000 0.0000 0.0000
# 4 0.0000 0.0000 0.0000 4.4176 0.0000 0.0000
# 5 0.0000 0.0000 0.0000 0.0000 28.6642 0.0000
# 6 0.0000 0.0000 0.0000 0.0000 0.0000 24.9747
#
#
#
# Elastic Compliance Matrix: (Units=1/GPa)
#
#
# Indices 1 2 3 4 5 6 
#
# 1 0.011215 -0.006163 -0.002770 0.000000 0.000000 0.000000
# 2 -0.006163 0.020857 -0.004466 0.000000 0.000000 0.000000
# 3 -0.002770 -0.004466 0.013658 0.000000 0.000000 0.000000
# 4 0.000000 0.000000 0.000000 0.226369 0.000000 0.000000
# 5 0.000000 0.000000 0.000000 0.000000 0.034887 0.000000
# 6 0.000000 0.000000 0.000000 0.000000 0.000000 0.040040
#
#
# Mechanical properties :
#
#
# Convention : Reuss Voigt Hill
#
# Bulk Modulus (GPa) = 52.81666 57.34084 55.07875
# Shear Modulus (GPa) = 13.15323 22.74476 17.94900
#
# Velocity S-wave (km/s) = 2.62915 3.45732 3.07128
# Velocity P-wave (km/s) = 6.08057 6.78762 6.44380
#
# Compressibility (1/GPa) = 0.01893342
#
# Stress axis : x y z
#
# Youngs Moduli (GPa) = 89.16650 47.94478 73.21614
#
# Poissons Ratio (x) = 0.29547 0.20281
# Poissons Ratio (y) = 0.54951 0.32696
# Poissons Ratio (z) = 0.24700 0.21411
#
# Static dielectric constant tensor:
#      x y z
#    x 3.708040 0.000000 0.000000 
#    y 0.000000 3.255580 0.000000 
#    z 0.000000 0.000000 3.504570 
# 
# 
# High freq. dielectric constant tensor:
#      x y z
#    x 1.756980 0.000000 0.000000 
#    y 0.000000 1.704530 0.000000 
#    z 0.000000 0.000000 1.728300 
# 
# From -- ./inp_files/52995.got.cif
#   From: 2010.03.12/outbox.cif.g09.slc.cpg/sg65_27_cif.got.tgz:52995.got - 2010.04.10 20:52:16.
