data_PCOD8266431
_publ_section_title
;
Structure prediction by ZEFSAII (Michael W. Deem and Ramdas Pophale) SiO2 
 PCOD8266431
Probable space group: C M M M
;
_chemical_formula_sum "Si O2"
_cell_formula_units_Z 88
_cell_length_a 22.696335
_cell_length_b 22.456383
_cell_length_c 8.652716
_cell_angle_alpha 90.000000
_cell_angle_beta 90.000000
_cell_angle_gamma 90.000000
_cell_volume 4410.095450
_symmetry_space_group_name_H-M "C M M M"
_symmetry_group_IT_number 65
_symmetry_cell_setting 'orthorhombic'
loop_
_space_group_symop_operation_xyz
x,y,z
-x,-y,z
x,-y,-z
-x,y,-z
-x,-y,-z
x,y,-z
-x,y,z
x,-y,z
1/2+x,1/2+y,z
1/2-x,1/2-y,z
1/2+x,1/2-y,-z
1/2-x,1/2+y,-z
1/2-x,1/2-y,-z
1/2+x,1/2+y,-z
1/2-x,1/2+y,z
1/2+x,1/2-y,z
loop_
_atom_site_type_symbol
_atom_site_label
_atom_site_fract_x
_atom_site_fract_y
_atom_site_fract_z
Si Si1 0.627964 0.155970 0.180036
Si Si2 0.568599 0.500000 0.183070
Si Si3 0.879265 0.209379 0.817430
Si Si4 0.000000 0.335953 0.821484
Si Si5 0.156645 0.093698 0.318840
Si Si6 0.500000 0.712040 0.679255
Si Si7 0.723155 0.065640 0.822821
O O1 0.633515 0.223582 0.245942
O O2 0.561482 0.129087 0.208090
O O3 0.676387 0.112025 0.253772
O O4 0.641068 0.158142 0.000000
O O5 0.500000 0.500000 0.237746
O O6 0.601594 0.558971 0.244229
O O7 0.572600 0.500000 0.000000
O O8 0.835266 0.161382 0.743907
O O9 0.942933 0.185604 0.763111
O O10 0.874302 0.208296 0.000000
O O11 0.000000 0.282685 0.700533
O O12 0.000000 0.311346 0.000000
O O13 0.146594 0.093541 0.500000
O O14 0.217814 0.062536 0.277150
O O15 0.500000 0.694520 0.500000
O O16 0.694141 0.000000 0.816336
O O17 0.738656 0.082586 0.000000
#
# Coordination Sequence:
#
# PCOD8266431 Si02
#       7
#    16   8  16   8  16   8  16
#     4   8  16  32  57  86 113 150 195 243 286 338
#     4  11  25  45  67  89 115 152 197 236 282 342
#     4  10  20  36  57  81 113 152 194 236 290 346
#     4   8  14  30  53  78 113 151 188 229 285 340
#     4  12  25  40  59  85 119 151 192 241 289 337
#     4  10  18  30  50  80 116 147 184 229 284 341
#     4  10  20  37  60  82 111 153 201 240 288 348
#
# _framework density 19.954215999999999
#
# number of rings (size 3 to 8) (size 9 to 14) (size 15 to 20)
#    0.000    2.091    0.909    4.364    1.273    1.455 
#    0.000    8.636    0.000    2.727    0.000    0.000 
#    0.000   13.091    0.000    0.000    0.000    0.000 
#
# Total GULP energy -545239.173894 kJ/mol
# GULP energy per Si atom -12391.799407 kJ/mol
# Density = 1.990880 g / cm^3
# Si number density = 19.954216 Si / 1000 Ang^3
#
#
#
# Elastic Constant Matrix: (Units=GPa)
#
#
# Indices 1 2 3 4 5 6 
#
# 1 119.0096 64.8675 30.9798 0.0000 0.0000 0.0000
# 2 64.8675 112.2138 29.8594 0.0000 0.0000 0.0000
# 3 30.9798 29.8594 76.4873 0.0000 0.0000 0.0000
# 4 0.0000 0.0000 0.0000 10.6067 0.0000 0.0000
# 5 0.0000 0.0000 0.0000 0.0000 8.2387 0.0000
# 6 0.0000 0.0000 0.0000 0.0000 0.0000 34.1631
#
#
#
# Elastic Compliance Matrix: (Units=1/GPa)
#
#
# Indices 1 2 3 4 5 6 
#
# 1 0.012696 -0.006663 -0.002541 0.000000 0.000000 0.000000
# 2 -0.006663 0.013441 -0.002549 0.000000 0.000000 0.000000
# 3 -0.002541 -0.002549 0.015098 0.000000 0.000000 0.000000
# 4 0.000000 0.000000 0.000000 0.094280 0.000000 0.000000
# 5 0.000000 0.000000 0.000000 0.000000 0.121379 0.000000
# 6 0.000000 0.000000 0.000000 0.000000 0.000000 0.029271
#
#
# Mechanical properties :
#
#
# Convention : Reuss Voigt Hill
#
# Bulk Modulus (GPa) = 56.40105 62.12489 59.26297
# Shear Modulus (GPa) = 15.84380 22.73530 19.28955
#
# Velocity S-wave (km/s) = 2.82087 3.37912 3.11254
# Velocity P-wave (km/s) = 6.23990 6.81366 6.53308
#
# Compressibility (1/GPa) = 0.01773017
#
# Stress axis : x y z
#
# Youngs Moduli (GPa) = 78.76581 74.39719 66.23287
#
# Poissons Ratio (x) = 0.49570 0.16831
# Poissons Ratio (y) = 0.52481 0.16880
# Poissons Ratio (z) = 0.20015 0.18961
#
# Static dielectric constant tensor:
#      x y z
#    x 3.656740 0.000000 0.000000 
#    y 0.000000 3.739780 0.000000 
#    z 0.000000 0.000000 3.323420 
# 
# 
# High freq. dielectric constant tensor:
#      x y z
#    x 1.779700 0.000000 0.000000 
#    y 0.000000 1.767560 0.000000 
#    z 0.000000 0.000000 1.753620 
# 
# From -- ./inp_files/14059.got.cif
#   From: 2010.03.12/outbox.cif.g09.slc.cpg/sg65_8_cif.got.tgz:14059.got - 2010.04.10 20:52:16.
