data_PCOD8266433
_publ_section_title
;
Structure prediction by ZEFSAII (Michael W. Deem and Ramdas Pophale) SiO2 
 PCOD8266433
Probable space group: C M M M
;
_chemical_formula_sum "Si O2"
_cell_formula_units_Z 80
_cell_length_a 15.388310
_cell_length_b 23.301542
_cell_length_c 11.587792
_cell_angle_alpha 90.000000
_cell_angle_beta 90.000000
_cell_angle_gamma 90.000000
_cell_volume 4155.050242
_symmetry_space_group_name_H-M "C M M M"
_symmetry_group_IT_number 65
_symmetry_cell_setting 'orthorhombic'
loop_
_space_group_symop_operation_xyz
x,y,z
-x,-y,z
x,-y,-z
-x,y,-z
-x,-y,-z
x,y,-z
-x,y,z
x,-y,z
1/2+x,1/2+y,z
1/2-x,1/2-y,z
1/2+x,1/2-y,-z
1/2-x,1/2+y,-z
1/2-x,1/2-y,-z
1/2+x,1/2+y,-z
1/2-x,1/2+y,z
1/2+x,1/2-y,z
loop_
_atom_site_type_symbol
_atom_site_label
_atom_site_fract_x
_atom_site_fract_y
_atom_site_fract_z
Si Si1 0.000000 0.564851 0.636134
Si Si2 0.400596 0.873999 0.000000
Si Si3 0.899198 0.758311 0.244995
Si Si4 0.333799 0.365355 0.635378
Si Si5 0.656752 0.128115 0.753508
Si Si6 0.353055 0.745238 0.000000
Si Si7 0.500000 0.564230 0.363007
O O1 0.915075 0.597942 0.676656
O O2 0.000000 0.500000 0.685075
O O3 0.000000 0.564444 0.500000
O O4 0.351327 0.895374 0.884918
O O5 0.500000 0.896451 0.000000
O O6 0.402893 0.805525 0.000000
O O7 0.853982 0.798799 0.339038
O O8 0.853527 0.696683 0.251357
O O9 0.000000 0.751873 0.274456
O O10 0.883827 0.786368 0.117351
O O11 0.316641 0.372819 0.500000
O O12 0.250417 0.388427 0.704134
O O13 0.414558 0.402922 0.680796
O O14 0.250000 0.750000 0.000000
O O15 0.500000 0.500000 0.312186
O O16 0.500000 0.563303 0.500000
#
# Coordination Sequence:
#
# PCOD8266433 Si02
#       7
#     8   8  16  16  16   8   8
#     4  11  24  40  58  85 118 154 198 241 288 352
#     4  10  18  36  60  83 113 152 196 236 277 349
#     4  11  20  35  56  84 118 155 191 235 291 349
#     4  11  23  37  57  88 120 151 194 240 288 355
#     4  11  21  39  60  87 120 156 190 238 296 344
#     4  10  18  30  50  82 115 149 192 238 280 346
#     4   9  20  41  63  79 104 149 200 246 286 326
#
# _framework density 19.253678000000001
#
# number of rings (size 3 to 8) (size 9 to 14) (size 15 to 20)
#    0.000    1.400    3.000    5.700    0.000    3.200 
#    0.000    3.000    0.000    0.000    0.000    4.900 
#    0.000    0.000    0.000    0.000    0.000    0.000 
#
# Total GULP energy -496029.291135 kJ/mol
# GULP energy per Si atom -12400.732278 kJ/mol
# Density = 1.920986 g / cm^3
# Si number density = 19.253678 Si / 1000 Ang^3
#
#
#
# Elastic Constant Matrix: (Units=GPa)
#
#
# Indices 1 2 3 4 5 6 
#
# 1 169.6395 35.6555 57.1506 0.0000 0.0000 0.0000
# 2 35.6555 80.3177 27.8413 0.0000 0.0000 0.0000
# 3 57.1506 27.8413 102.7983 0.0000 0.0000 0.0000
# 4 0.0000 0.0000 0.0000 5.8700 0.0000 0.0000
# 5 0.0000 0.0000 0.0000 0.0000 38.5658 0.0000
# 6 0.0000 0.0000 0.0000 0.0000 0.0000 -3.5282
#
#
#
# Elastic Compliance Matrix: (Units=1/GPa)
#
#
# Indices 1 2 3 4 5 6 
#
# 1 0.007560 -0.002096 -0.003635 0.000000 0.000000 0.000000
# 2 -0.002096 0.014322 -0.002714 0.000000 0.000000 0.000000
# 3 -0.003635 -0.002714 0.012484 0.000000 0.000000 0.000000
# 4 0.000000 0.000000 0.000000 0.170359 0.000000 0.000000
# 5 0.000000 0.000000 0.000000 0.000000 0.025930 0.000000
# 6 0.000000 0.000000 0.000000 0.000000 0.000000 -0.283432
#
#
# Mechanical properties :
#
#
# Convention : Reuss Voigt Hill
#
# Bulk Modulus (GPa) = 57.22213 66.00559 61.61386
# Shear Modulus (GPa) = -166.31797 23.65538 -71.33129
#
# Velocity S-wave (km/s) = -9.30430 3.50896 -6.09332
# Velocity P-wave (km/s) = 9.25430 7.12556 4.17543
#
# Compressibility (1/GPa) = 0.01747576
#
# Stress axis : x y z
#
# Youngs Moduli (GPa) = 132.27258 69.82437 80.10385
#
# Poissons Ratio (x) = 0.14635 0.29121
# Poissons Ratio (y) = 0.27725 0.21736
# Poissons Ratio (z) = 0.48086 0.18947
#
# Static dielectric constant tensor:
#      x y z
#    x 3.648110 0.000000 0.000000 
#    y 0.000000 3.354400 0.000000 
#    z 0.000000 0.000000 3.814750 
# 
# 
# High freq. dielectric constant tensor:
#      x y z
#    x 1.765790 0.000000 0.000000 
#    y 0.000000 1.712610 0.000000 
#    z 0.000000 0.000000 1.751410 
# 
# From -- ./inp_files/24751.got.cif
#   From: 2010.03.12/outbox.cif.g09.slc.cpg/sg65_13_cif.got.tgz:24751.got - 2010.04.10 20:52:16.
