data_PCOD8266724
_publ_section_title
;
Structure prediction by ZEFSAII (Michael W. Deem and Ramdas Pophale) SiO2 
 PCOD8266724
Probable space group: C M M M
;
_chemical_formula_sum "Si O2"
_cell_formula_units_Z 96
_cell_length_a 19.579310
_cell_length_b 17.187694
_cell_length_c 15.721476
_cell_angle_alpha 90.000000
_cell_angle_beta 90.000000
_cell_angle_gamma 90.000000
_cell_volume 5290.641239
_symmetry_space_group_name_H-M "C M M M"
_symmetry_group_IT_number 65
_symmetry_cell_setting 'orthorhombic'
loop_
_space_group_symop_operation_xyz
x,y,z
-x,-y,z
x,-y,-z
-x,y,-z
-x,-y,-z
x,y,-z
-x,y,z
x,-y,z
1/2+x,1/2+y,z
1/2-x,1/2-y,z
1/2+x,1/2-y,-z
1/2-x,1/2+y,-z
1/2-x,1/2-y,-z
1/2+x,1/2+y,-z
1/2-x,1/2+y,z
1/2+x,1/2-y,z
loop_
_atom_site_type_symbol
_atom_site_label
_atom_site_fract_x
_atom_site_fract_y
_atom_site_fract_z
Si Si1 0.821884 0.411086 0.312443
Si Si2 0.641988 0.912416 0.500000
Si Si3 0.424394 0.336503 0.663863
Si Si4 0.420752 0.250458 0.500000
Si Si5 0.576268 0.805951 0.214197
Si Si6 0.173099 0.221460 0.902828
Si Si7 0.682483 0.589273 0.770909
O O1 0.832691 0.500000 0.286964
O O2 0.813184 0.402027 0.414584
O O3 0.888114 0.367161 0.277104
O O4 0.753300 0.378957 0.268751
O O5 0.587458 0.842790 0.500000
O O6 0.608318 0.000000 0.500000
O O7 0.500000 0.370943 0.643550
O O8 0.389971 0.293183 0.582853
O O9 0.431286 0.274775 0.738318
O O10 0.374651 0.404400 0.696775
O O11 0.500000 0.266231 0.500000
O O12 0.500000 0.836295 0.189131
O O13 0.622699 0.789562 0.131177
O O14 0.250000 0.250000 0.893223
O O15 0.163597 0.140708 0.852508
O O16 0.153565 0.204805 0.000000
O O17 0.687625 0.500000 0.800055
#
# Coordination Sequence:
#
# PCOD8266724 Si02
#       7
#    16   8  16   8  16  16  16
#     4  10  20  34  51  79 114 149 189 227 272 325
#     4  10  20  32  49  76 115 151 185 237 282 317
#     4   9  19  33  52  77 104 141 185 229 276 324
#     4  10  18  32  50  75 109 143 190 236 271 327
#     4  10  19  34  55  78 110 145 179 221 269 330
#     4  10  20  36  60  86 109 136 176 224 275 332
#     4  10  21  37  57  79 110 145 182 228 274 332
#
# _framework density 18.145247999999999
#
# number of rings (size 3 to 8) (size 9 to 14) (size 15 to 20)
#    0.000    2.167    3.333    0.000    0.000    2.167 
#    0.000    3.750    0.000    2.000    0.000    5.833 
#    0.000    0.000    0.000    0.000    0.000    0.000 
#
# Total GULP energy -594925.148715 kJ/mol
# GULP energy per Si atom -12394.273932 kJ/mol
# Density = 1.810395 g / cm^3
# Si number density = 18.145248 Si / 1000 Ang^3
#
#
#
# Elastic Constant Matrix: (Units=GPa)
#
#
# Indices 1 2 3 4 5 6 
#
# 1 103.3077 23.3854 44.3135 0.0000 0.0000 0.0000
# 2 23.3854 57.8551 39.6940 0.0000 0.0000 0.0000
# 3 44.3135 39.6940 126.1475 0.0000 0.0000 0.0000
# 4 0.0000 0.0000 0.0000 24.6672 0.0000 0.0000
# 5 0.0000 0.0000 0.0000 0.0000 22.5631 0.0000
# 6 0.0000 0.0000 0.0000 0.0000 0.0000 23.3363
#
#
#
# Elastic Compliance Matrix: (Units=1/GPa)
#
#
# Indices 1 2 3 4 5 6 
#
# 1 0.011658 -0.002426 -0.003332 0.000000 0.000000 0.000000
# 2 -0.002426 0.022548 -0.006243 0.000000 0.000000 0.000000
# 3 -0.003332 -0.006243 0.011062 0.000000 0.000000 0.000000
# 4 0.000000 0.000000 0.000000 0.040540 0.000000 0.000000
# 5 0.000000 0.000000 0.000000 0.000000 0.044320 0.000000
# 6 0.000000 0.000000 0.000000 0.000000 0.000000 0.042852
#
#
# Mechanical properties :
#
#
# Convention : Reuss Voigt Hill
#
# Bulk Modulus (GPa) = 47.02200 55.78846 51.40523
# Shear Modulus (GPa) = 24.50124 26.10782 25.30453
#
# Velocity S-wave (km/s) = 3.67861 3.79730 3.73842
# Velocity P-wave (km/s) = 6.63426 7.07377 6.85753
#
# Compressibility (1/GPa) = 0.02126664
#
# Stress axis : x y z
#
# Youngs Moduli (GPa) = 85.77616 44.34887 90.39917
#
# Poissons Ratio (x) = 0.10761 0.30120
# Poissons Ratio (y) = 0.20812 0.56435
# Poissons Ratio (z) = 0.28579 0.27686
#
# Static dielectric constant tensor:
#      x y z
#    x 3.589000 0.000000 0.000000 
#    y 0.000000 3.139780 0.000000 
#    z 0.000000 0.000000 3.457320 
# 
# 
# High freq. dielectric constant tensor:
#      x y z
#    x 1.697410 0.000000 0.000000 
#    y 0.000000 1.688850 0.000000 
#    z 0.000000 0.000000 1.699010 
# 
# From -- ./inp_files/44189.got.cif
#   From: 2010.03.12/outbox.cif.g09.slc.cpg/sg65_23_cif.got.tgz:44189.got - 2010.04.10 20:52:16.
