data_PCOD8266363
_publ_section_title
;
Structure prediction by ZEFSAII (Michael W. Deem and Ramdas Pophale) SiO2 
 PCOD8266363
Probable space group: C M M M
;
_chemical_formula_sum "Si O2"
_cell_formula_units_Z 68
_cell_length_a 24.552667
_cell_length_b 14.463721
_cell_length_c 11.702675
_cell_angle_alpha 90.000000
_cell_angle_beta 90.000000
_cell_angle_gamma 90.000000
_cell_volume 4155.888180
_symmetry_space_group_name_H-M "C M M M"
_symmetry_group_IT_number 65
_symmetry_cell_setting 'orthorhombic'
loop_
_space_group_symop_operation_xyz
x,y,z
-x,-y,z
x,-y,-z
-x,y,-z
-x,-y,-z
x,y,-z
-x,y,z
x,-y,z
1/2+x,1/2+y,z
1/2-x,1/2-y,z
1/2+x,1/2-y,-z
1/2-x,1/2+y,-z
1/2-x,1/2-y,-z
1/2+x,1/2+y,-z
1/2-x,1/2+y,z
1/2+x,1/2-y,z
loop_
_atom_site_type_symbol
_atom_site_label
_atom_site_fract_x
_atom_site_fract_y
_atom_site_fract_z
Si Si1 0.230893 0.500000 0.127544
Si Si2 0.115277 0.000000 0.500000
Si Si3 0.836718 0.000000 0.266852
Si Si4 0.396015 0.687662 0.250906
Si Si5 0.563497 0.688129 0.500000
Si Si6 0.500000 0.391585 0.135725
Si Si7 0.305627 0.202211 0.869330
O O1 0.275446 0.500000 0.225450
O O2 0.194915 0.591474 0.142983
O O3 0.257642 0.500000 0.000000
O O4 0.159934 0.000000 0.597836
O O5 0.070357 0.078982 0.500000
O O6 0.865332 0.092345 0.224935
O O7 0.407032 0.720093 0.382405
O O8 0.451183 0.670434 0.183142
O O9 0.358838 0.768310 0.200225
O O10 0.500000 0.716611 0.500000
O O11 0.500000 0.500000 0.179171
O O12 0.500000 0.391190 0.000000
O O13 0.250000 0.250000 0.821260
O O14 0.312842 0.233921 0.000000
#
# Coordination Sequence:
#
# PCOD8266363 Si02
#       7
#     8   4   8  16   8   8  16
#     4  10  20  34  54  77 104 146 181 206 256 321
#     4   8  19  28  46  74 106 144 176 205 258 304
#     4  10  18  30  49  75 108 139 177 213 248 312
#     4  11  20  34  51  78 109 142 178 216 263 317
#     4  10  19  32  52  72 103 145 183 212 258 323
#     4  11  22  31  47  78 112 142 172 219 274 321
#     4  10  20  34  54  78 107 142 176 215 263 313
#
# _framework density 16.362328000000002
#
# number of rings (size 3 to 8) (size 9 to 14) (size 15 to 20)
#    0.000    1.765    4.706    0.882    0.000    0.941 
#    0.000    1.765    0.000    0.706    0.000    4.118 
#    0.000    0.000    0.000    0.000    0.000    0.000 
#
# Total GULP energy -421235.168289 kJ/mol
# GULP energy per Si atom -12389.269656 kJ/mol
# Density = 1.632509 g / cm^3
# Si number density = 16.362328 Si / 1000 Ang^3
#
#
#
# Elastic Constant Matrix: (Units=GPa)
#
#
# Indices 1 2 3 4 5 6 
#
# 1 109.6643 45.6011 48.2267 0.0000 0.0000 0.0000
# 2 45.6011 87.7005 31.5560 0.0000 0.0000 0.0000
# 3 48.2267 31.5560 71.8033 0.0000 0.0000 0.0000
# 4 0.0000 0.0000 0.0000 20.3582 0.0000 0.0000
# 5 0.0000 0.0000 0.0000 0.0000 22.8480 0.0000
# 6 0.0000 0.0000 0.0000 0.0000 0.0000 27.5684
#
#
#
# Elastic Compliance Matrix: (Units=1/GPa)
#
#
# Indices 1 2 3 4 5 6 
#
# 1 0.014450 -0.004777 -0.007606 0.000000 0.000000 0.000000
# 2 -0.004777 0.015123 -0.003438 0.000000 0.000000 0.000000
# 3 -0.007606 -0.003438 0.020547 0.000000 0.000000 0.000000
# 4 0.000000 0.000000 0.000000 0.049120 0.000000 0.000000
# 5 0.000000 0.000000 0.000000 0.000000 0.043767 0.000000
# 6 0.000000 0.000000 0.000000 0.000000 0.000000 0.036273
#
#
# Mechanical properties :
#
#
# Convention : Reuss Voigt Hill
#
# Bulk Modulus (GPa) = 54.11829 57.77065 55.94447
# Shear Modulus (GPa) = 23.03283 23.74055 23.38669
#
# Velocity S-wave (km/s) = 3.75597 3.81324 3.78471
# Velocity P-wave (km/s) = 7.20808 7.40077 7.30506
#
# Compressibility (1/GPa) = 0.01847804
#
# Stress axis : x y z
#
# Youngs Moduli (GPa) = 69.20488 66.12357 48.67009
#
# Poissons Ratio (x) = 0.31585 0.37019
# Poissons Ratio (y) = 0.33057 0.16733
# Poissons Ratio (z) = 0.52637 0.22734
#
# Static dielectric constant tensor:
#      x y z
#    x 3.000000 0.000000 0.000000 
#    y 0.000000 2.968960 0.000000 
#    z 0.000000 0.000000 3.279110 
# 
# 
# High freq. dielectric constant tensor:
#      x y z
#    x 1.622510 0.000000 0.000000 
#    y 0.000000 1.606680 0.000000 
#    z 0.000000 0.000000 1.635270 
# 
# From -- ./inp_files/24335.got.cif
#   From: 2010.03.12/outbox.cif.g09.slc.cpg/sg65_13_cif.got.tgz:24335.got - 2010.04.10 20:52:16.
