data_PCOD8266270
_publ_section_title
;
Structure prediction by ZEFSAII (Michael W. Deem and Ramdas Pophale) SiO2 
 PCOD8266270
Probable space group: C M M M
;
_chemical_formula_sum "Si O2"
_cell_formula_units_Z 88
_cell_length_a 24.435145
_cell_length_b 22.555639
_cell_length_c 9.522298
_cell_angle_alpha 90.000000
_cell_angle_beta 90.000000
_cell_angle_gamma 90.000000
_cell_volume 5248.217490
_symmetry_space_group_name_H-M "C M M M"
_symmetry_group_IT_number 65
_symmetry_cell_setting 'orthorhombic'
loop_
_space_group_symop_operation_xyz
x,y,z
-x,-y,z
x,-y,-z
-x,y,-z
-x,-y,-z
x,y,-z
-x,y,z
x,-y,z
1/2+x,1/2+y,z
1/2-x,1/2-y,z
1/2+x,1/2-y,-z
1/2-x,1/2+y,-z
1/2-x,1/2-y,-z
1/2+x,1/2+y,-z
1/2-x,1/2+y,z
1/2+x,1/2-y,z
loop_
_atom_site_type_symbol
_atom_site_label
_atom_site_fract_x
_atom_site_fract_y
_atom_site_fract_z
Si Si1 0.259806 0.431758 0.660338
Si Si2 0.155611 0.568341 0.164562
Si Si3 0.436893 0.713351 0.163158
Si Si4 0.438182 0.500000 0.667000
Si Si5 0.939811 0.347886 0.833618
Si Si6 0.123362 0.884036 0.335593
O O1 0.240956 0.423618 0.500000
O O2 0.275738 0.500000 0.689546
O O3 0.210706 0.410383 0.759320
O O4 0.312282 0.391546 0.693812
O O5 0.142724 0.500000 0.198800
O O6 0.105393 0.606852 0.225999
O O7 0.164110 0.579073 0.000000
O O8 0.500000 0.697191 0.194196
O O9 0.424759 0.780865 0.208866
O O10 0.396929 0.673478 0.254736
O O11 0.423448 0.703586 0.000000
O O12 0.500000 0.500000 0.723442
O O13 0.435302 0.500000 0.500000
O O14 0.408301 0.441436 0.724426
O O15 0.000000 0.364660 0.773034
O O16 0.942177 0.352958 0.000000
O O17 0.111322 0.875740 0.500000
#
# Coordination Sequence:
#
# PCOD8266270 Si02
#       6
#    16  16  16   8  16  16
#     4   9  17  31  48  66  93 127 157 186 230 283
#     4   9  17  29  49  76  97 115 150 195 233 272
#     4   9  18  32  48  66  92 126 157 186 230 283
#     4   9  16  26  43  67  91 113 146 195 238 268
#     4   8  15  30  50  70  95 125 152 183 229 283
#     4  10  18  30  48  69  90 120 161 197 230 270
#
# _framework density 16.767599000000001
#
# number of rings (size 3 to 8) (size 9 to 14) (size 15 to 20)
#    0.000    3.000    0.909    1.636    0.000    2.182 
#    0.000    4.091    0.000    8.727    0.000    2.545 
#    0.000    0.000    0.000    0.000    0.000    0.000 
#
# Total GULP energy -545529.454000 kJ/mol
# GULP energy per Si atom -12398.396682 kJ/mol
# Density = 1.672943 g / cm^3
# Si number density = 16.767599 Si / 1000 Ang^3
#
#
#
# Elastic Constant Matrix: (Units=GPa)
#
#
# Indices 1 2 3 4 5 6 
#
# 1 139.1679 81.5499 52.3073 0.0000 0.0000 0.0000
# 2 81.5499 96.0302 39.3109 0.0000 0.0000 0.0000
# 3 52.3073 39.3109 42.7447 0.0000 0.0000 0.0000
# 4 0.0000 0.0000 0.0000 20.2189 0.0000 0.0000
# 5 0.0000 0.0000 0.0000 0.0000 20.2759 0.0000
# 6 0.0000 0.0000 0.0000 0.0000 0.0000 29.5948
#
#
#
# Elastic Compliance Matrix: (Units=1/GPa)
#
#
# Indices 1 2 3 4 5 6 
#
# 1 0.017706 -0.009890 -0.012572 0.000000 0.000000 0.000000
# 2 -0.009890 0.022225 -0.008337 0.000000 0.000000 0.000000
# 3 -0.012572 -0.008337 0.046446 0.000000 0.000000 0.000000
# 4 0.000000 0.000000 0.000000 0.049459 0.000000 0.000000
# 5 0.000000 0.000000 0.000000 0.000000 0.049320 0.000000
# 6 0.000000 0.000000 0.000000 0.000000 0.000000 0.033790
#
#
# Mechanical properties :
#
#
# Convention : Reuss Voigt Hill
#
# Bulk Modulus (GPa) = 40.35552 69.36435 54.85993
# Shear Modulus (GPa) = 17.31286 21.00289 19.15788
#
# Velocity S-wave (km/s) = 3.21677 3.54303 3.38383
# Velocity P-wave (km/s) = 6.15765 7.62859 6.93224
#
# Compressibility (1/GPa) = 0.02477976
#
# Stress axis : x y z
#
# Youngs Moduli (GPa) = 56.47813 44.99494 21.53016
#
# Poissons Ratio (x) = 0.44499 0.27067
# Poissons Ratio (y) = 0.55855 0.17950
# Poissons Ratio (z) = 0.71003 0.37513
#
# Static dielectric constant tensor:
#      x y z
#    x 3.349470 0.000000 0.000000 
#    y 0.000000 3.124650 0.000000 
#    z 0.000000 0.000000 2.836050 
# 
# 
# High freq. dielectric constant tensor:
#      x y z
#    x 1.651730 0.000000 0.000000 
#    y 0.000000 1.638840 0.000000 
#    z 0.000000 0.000000 1.614600 
# 
# From -- ./inp_files/13946.got.cif
#   From: 2010.03.12/outbox.cif.g09.slc.cpg/sg65_7_cif.got.tgz:13946.got - 2010.04.10 20:52:16.
