data_PCOD8266330
_publ_section_title
;
Structure prediction by ZEFSAII (Michael W. Deem and Ramdas Pophale) SiO2 
 PCOD8266330
Probable space group: C M M M
;
_chemical_formula_sum "Si O2"
_cell_formula_units_Z 80
_cell_length_a 8.654417
_cell_length_b 19.085736
_cell_length_c 25.758425
_cell_angle_alpha 90.000000
_cell_angle_beta 90.000000
_cell_angle_gamma 90.000000
_cell_volume 4254.671498
_symmetry_space_group_name_H-M "C M M M"
_symmetry_group_IT_number 65
_symmetry_cell_setting 'orthorhombic'
loop_
_space_group_symop_operation_xyz
x,y,z
-x,-y,z
x,-y,-z
-x,y,-z
-x,-y,-z
x,y,-z
-x,y,z
x,-y,z
1/2+x,1/2+y,z
1/2-x,1/2-y,z
1/2+x,1/2-y,-z
1/2-x,1/2+y,-z
1/2-x,1/2-y,-z
1/2+x,1/2+y,-z
1/2-x,1/2+y,z
1/2+x,1/2-y,z
loop_
_atom_site_type_symbol
_atom_site_label
_atom_site_fract_x
_atom_site_fract_y
_atom_site_fract_z
Si Si1 0.683644 0.827376 0.105422
Si Si2 0.683797 0.672300 0.000000
Si Si3 0.817247 0.323941 0.408975
Si Si4 0.817187 0.324124 0.707660
Si Si5 0.184116 0.578075 0.500000
Si Si6 0.316381 0.921481 0.201134
O O1 0.500000 0.822424 0.101760
O O2 0.750000 0.750000 0.115073
O O3 0.740797 0.877283 0.151728
O O4 0.750853 0.862835 0.052621
O O5 0.750000 0.750000 0.000000
O O6 0.500000 0.671449 0.000000
O O7 0.750000 0.250000 0.427161
O O8 0.761434 0.342920 0.350675
O O9 0.755134 0.382912 0.448350
O O10 0.000000 0.318514 0.411485
O O11 0.750000 0.250000 0.725970
O O12 0.755706 0.384166 0.746384
O O13 0.000000 0.318257 0.710465
O O14 0.253507 0.500000 0.500000
O O15 0.000000 0.575930 0.500000
O O16 0.500000 0.924696 0.201477
O O17 0.247122 0.000000 0.198757
#
# Coordination Sequence:
#
# PCOD8266330 Si02
#       6
#    16   8  16  16   8  16
#     4  10  18  30  50  72  94 120 152 190 229 271
#     4  10  18  30  49  72  97 121 151 191 229 268
#     4   9  17  29  47  69  92 121 155 193 235 276
#     4   9  17  30  49  71  93 119 154 194 234 276
#     4   9  17  28  43  67  96 123 156 196 234 273
#     4   9  18  31  47  69  95 122 154 191 229 272
#
# _framework density 18.802861
#
# number of rings (size 3 to 8) (size 9 to 14) (size 15 to 20)
#    0.000    2.700    0.000    3.600    0.000    0.800 
#    0.000    5.500    0.000    9.600    0.000    5.600 
#    0.000    0.000    0.000    0.000    0.000    0.000 
#
# Total GULP energy -495867.270971 kJ/mol
# GULP energy per Si atom -12396.681774 kJ/mol
# Density = 1.876006 g / cm^3
# Si number density = 18.802861 Si / 1000 Ang^3
#
#
#
# Elastic Constant Matrix: (Units=GPa)
#
#
# Indices 1 2 3 4 5 6 
#
# 1 40.0182 19.6890 24.3145 0.0000 0.0000 0.0000
# 2 19.6890 152.4236 106.1907 0.0000 0.0000 0.0000
# 3 24.3145 106.1907 171.6852 0.0000 0.0000 0.0000
# 4 0.0000 0.0000 0.0000 16.0333 0.0000 0.0000
# 5 0.0000 0.0000 0.0000 0.0000 18.1892 0.0000
# 6 0.0000 0.0000 0.0000 0.0000 0.0000 19.9690
#
#
#
# Elastic Compliance Matrix: (Units=1/GPa)
#
#
# Indices 1 2 3 4 5 6 
#
# 1 0.027529 -0.001476 -0.002986 0.000000 0.000000 0.000000
# 2 -0.001476 0.011607 -0.006970 0.000000 0.000000 0.000000
# 3 -0.002986 -0.006970 0.010559 0.000000 0.000000 0.000000
# 4 0.000000 0.000000 0.000000 0.062370 0.000000 0.000000
# 5 0.000000 0.000000 0.000000 0.000000 0.054978 0.000000
# 6 0.000000 0.000000 0.000000 0.000000 0.000000 0.050078
#
#
# Mechanical properties :
#
#
# Convention : Reuss Voigt Hill
#
# Bulk Modulus (GPa) = 37.27038 73.83505 55.55272
# Shear Modulus (GPa) = 20.08606 25.10047 22.59327
#
# Velocity S-wave (km/s) = 3.27195 3.65763 3.47015
# Velocity P-wave (km/s) = 5.84285 7.56247 6.75758
#
# Compressibility (1/GPa) = 0.02683096
#
# Stress axis : x y z
#
# Youngs Moduli (GPa) = 36.32545 86.15138 94.70721
#
# Poissons Ratio (x) = 0.12714 0.28279
# Poissons Ratio (y) = 0.05361 0.66015
# Poissons Ratio (z) = 0.10847 0.60051
#
# Static dielectric constant tensor:
#      x y z
#    x 3.125270 0.000000 0.000000 
#    y 0.000000 3.586460 0.000000 
#    z 0.000000 0.000000 4.078630 
# 
# 
# High freq. dielectric constant tensor:
#      x y z
#    x 1.699250 0.000000 0.000000 
#    y 0.000000 1.710830 0.000000 
#    z 0.000000 0.000000 1.752090 
# 
# From -- ./inp_files/72929.got.cif
#   From: 2010.03.12/outbox.cif.g09.slc.cpg/sg65_37_cif.got.tgz:72929.got - 2010.04.10 20:52:16.
