data_PCOD8266729
_publ_section_title
;
Structure prediction by ZEFSAII (Michael W. Deem and Ramdas Pophale) SiO2 
 PCOD8266729
Probable space group: C M M M
;
_chemical_formula_sum "Si O2"
_cell_formula_units_Z 72
_cell_length_a 9.019010
_cell_length_b 27.430599
_cell_length_c 20.744688
_cell_angle_alpha 90.000000
_cell_angle_beta 90.000000
_cell_angle_gamma 90.000000
_cell_volume 5132.170397
_symmetry_space_group_name_H-M "C M M M"
_symmetry_group_IT_number 65
_symmetry_cell_setting 'orthorhombic'
loop_
_space_group_symop_operation_xyz
x,y,z
-x,-y,z
x,-y,-z
-x,y,-z
-x,-y,-z
x,y,-z
-x,y,z
x,-y,z
1/2+x,1/2+y,z
1/2-x,1/2-y,z
1/2+x,1/2-y,-z
1/2-x,1/2+y,-z
1/2-x,1/2-y,-z
1/2+x,1/2+y,-z
1/2-x,1/2+y,z
1/2+x,1/2-y,z
loop_
_atom_site_type_symbol
_atom_site_label
_atom_site_fract_x
_atom_site_fract_y
_atom_site_fract_z
Si Si1 0.822937 0.197543 0.000000
Si Si2 0.665917 0.941949 0.694323
Si Si3 0.328929 0.557422 0.821886
Si Si4 0.332083 0.881324 0.070791
Si Si5 0.166745 0.942031 0.429180
O O1 0.750000 0.250000 0.000000
O O2 0.763878 0.168714 0.063896
O O3 0.000000 0.200961 0.000000
O O4 0.500000 0.921780 0.703022
O O5 0.764776 0.923613 0.753933
O O6 0.730838 0.920292 0.627477
O O7 0.666831 0.000000 0.691656
O O8 0.500000 0.572160 0.825212
O O9 0.305428 0.500000 0.829045
O O10 0.242024 0.582316 0.879534
O O11 0.500000 0.868934 0.092956
O O12 0.334252 0.907025 0.000000
O O13 0.225650 0.925479 0.500000
O O14 0.000000 0.922654 0.418806
O O15 0.166755 0.000000 0.425395
#
# Coordination Sequence:
#
# PCOD8266729 Si02
#       5
#     8  16  16  16  16
#     4  10  18  32  51  68  85 102 124 155 193 235
#     4   9  16  24  34  48  67  93 125 160 197 235
#     4  10  19  29  41  56  77 106 137 168 201 238
#     4   9  19  32  45  63  82 102 130 163 198 236
#     4   8  13  21  32  45  62  85 116 156 197 233
#
# _framework density 14.029152
#
# number of rings (size 3 to 8) (size 9 to 14) (size 15 to 20)
#    0.667    2.222    0.000    3.333    0.000    4.889 
#    0.000    4.444    0.000    0.000    0.000    0.000 
#    0.000    0.000    0.000    0.000    0.000    1.111 
#
# Total GULP energy -446061.543088 kJ/mol
# GULP energy per Si atom -12390.598419 kJ/mol
# Density = 1.399722 g / cm^3
# Si number density = 14.029152 Si / 1000 Ang^3
#
#
#
# Elastic Constant Matrix: (Units=GPa)
#
#
# Indices 1 2 3 4 5 6 
#
# 1 131.6706 30.1804 60.8912 0.0000 0.0000 0.0000
# 2 30.1804 23.3897 25.0116 0.0000 0.0000 0.0000
# 3 60.8912 25.0116 105.1459 0.0000 0.0000 0.0000
# 4 0.0000 0.0000 0.0000 -0.4319 0.0000 0.0000
# 5 0.0000 0.0000 0.0000 0.0000 28.2064 0.0000
# 6 0.0000 0.0000 0.0000 0.0000 0.0000 17.0526
#
#
#
# Elastic Compliance Matrix: (Units=1/GPa)
#
#
# Indices 1 2 3 4 5 6 
#
# 1 0.012153 -0.010938 -0.004436 0.000000 0.000000 0.000000
# 2 -0.010938 0.067183 -0.009647 0.000000 0.000000 0.000000
# 3 -0.004436 -0.009647 0.014374 0.000000 0.000000 0.000000
# 4 0.000000 0.000000 0.000000 -2.315348 0.000000 0.000000
# 5 0.000000 0.000000 0.000000 0.000000 0.035453 0.000000
# 6 0.000000 0.000000 0.000000 0.000000 0.000000 0.058642
#
#
# Mechanical properties :
#
#
# Convention : Reuss Voigt Hill
#
# Bulk Modulus (GPa) = 22.89970 54.70807 38.80388
# Shear Modulus (GPa) = -2.42372 18.57364 8.07496
#
# Velocity S-wave (km/s) = -1.31582 3.64253 2.40174
# Velocity P-wave (km/s) = 3.74832 7.53468 5.95068
#
# Compressibility (1/GPa) = 0.04366869
#
# Stress axis : x y z
#
# Youngs Moduli (GPa) = 82.28177 14.88469 69.56777
#
# Poissons Ratio (x) = 0.16281 0.30862
# Poissons Ratio (y) = 0.89999 0.67112
# Poissons Ratio (z) = 0.36503 0.14359
#
# Static dielectric constant tensor:
#      x y z
#    x 2.988220 0.000000 0.000000 
#    y 0.000000 2.192550 0.000000 
#    z 0.000000 0.000000 2.917740 
# 
# 
# High freq. dielectric constant tensor:
#      x y z
#    x 1.554980 0.000000 0.000000 
#    y 0.000000 1.457060 0.000000 
#    z 0.000000 0.000000 1.541110 
# 
# From -- ./inp_files/59986.got.cif
#   From: 2010.03.12/outbox.cif.g09.slc.cpg/sg65_30_cif.got.tgz:59986.got - 2010.04.10 20:52:16.
