data_PCOD8266162
_publ_section_title
;
Structure prediction by ZEFSAII (Michael W. Deem and Ramdas Pophale) SiO2 
 PCOD8266162
Probable space group: C M M M
;
_chemical_formula_sum "Si O2"
_cell_formula_units_Z 88
_cell_length_a 27.665013
_cell_length_b 24.444328
_cell_length_c 9.073343
_cell_angle_alpha 90.000000
_cell_angle_beta 90.000000
_cell_angle_gamma 90.000000
_cell_volume 6135.872265
_symmetry_space_group_name_H-M "C M M M"
_symmetry_group_IT_number 65
_symmetry_cell_setting 'orthorhombic'
loop_
_space_group_symop_operation_xyz
x,y,z
-x,-y,z
x,-y,-z
-x,y,-z
-x,-y,-z
x,y,-z
-x,y,z
x,-y,z
1/2+x,1/2+y,z
1/2-x,1/2-y,z
1/2+x,1/2-y,-z
1/2-x,1/2+y,-z
1/2-x,1/2-y,-z
1/2+x,1/2+y,-z
1/2-x,1/2+y,z
1/2+x,1/2-y,z
loop_
_atom_site_type_symbol
_atom_site_label
_atom_site_fract_x
_atom_site_fract_y
_atom_site_fract_z
Si Si1 0.000000 0.564696 0.168538
Si Si2 0.355695 0.284632 0.834367
Si Si3 0.081381 0.370176 0.326775
Si Si4 0.234778 0.187044 0.333526
Si Si5 0.674249 0.841183 0.832989
Si Si6 0.445564 0.746887 0.669761
O O1 0.047772 0.585279 0.250486
O O2 0.000000 0.500000 0.175527
O O3 0.000000 0.585811 0.000000
O O4 0.317484 0.320469 0.742137
O O5 0.339805 0.222028 0.831010
O O6 0.409058 0.289951 0.764889
O O7 0.357139 0.307470 0.000000
O O8 0.084118 0.381957 0.500000
O O9 0.134831 0.375596 0.258059
O O10 0.059209 0.310816 0.292565
O O11 0.231882 0.164911 0.500000
O O12 0.250000 0.250000 0.332041
O O13 0.273781 0.151155 0.244148
O O14 0.677020 0.863264 0.000000
O O15 0.432447 0.737162 0.500000
O O16 0.500000 0.728075 0.706517
#
# Coordination Sequence:
#
# PCOD8266162 Si02
#       6
#     8  16  16  16  16  16
#     4  11  23  35  45  57  73  91 111 141 183 225
#     4   9  16  23  32  48  67  88 111 137 167 201
#     4  10  18  30  44  57  69  85 110 139 171 214
#     4   9  15  23  34  48  66  89 111 133 161 198
#     4   9  16  25  37  53  70  87 105 132 166 203
#     4   9  16  26  37  50  67  88 113 143 175 208
#
# _framework density 14.341888000000001
#
# number of rings (size 3 to 8) (size 9 to 14) (size 15 to 20)
#    0.000    2.636    0.909    2.455    0.000    8.364 
#    0.000    0.000    0.000    0.000    0.000    0.000 
#    0.000    0.000    0.000    0.000    0.000    0.000 
#
# Total GULP energy -545557.106993 kJ/mol
# GULP energy per Si atom -12399.025159 kJ/mol
# Density = 1.430925 g / cm^3
# Si number density = 14.341888 Si / 1000 Ang^3
#
#
#
# Elastic Constant Matrix: (Units=GPa)
#
#
# Indices 1 2 3 4 5 6 
#
# 1 124.7704 22.8918 70.7449 0.0000 0.0000 0.0000
# 2 22.8918 14.0943 19.7932 0.0000 0.0000 0.0000
# 3 70.7449 19.7932 127.3512 0.0000 0.0000 0.0000
# 4 0.0000 0.0000 0.0000 10.1653 0.0000 0.0000
# 5 0.0000 0.0000 0.0000 0.0000 30.7809 0.0000
# 6 0.0000 0.0000 0.0000 0.0000 0.0000 9.4519
#
#
#
# Elastic Compliance Matrix: (Units=1/GPa)
#
#
# Indices 1 2 3 4 5 6 
#
# 1 0.013769 -0.014867 -0.005338 0.000000 0.000000 0.000000
# 2 -0.014867 0.106812 -0.008342 0.000000 0.000000 0.000000
# 3 -0.005338 -0.008342 0.012114 0.000000 0.000000 0.000000
# 4 0.000000 0.000000 0.000000 0.098374 0.000000 0.000000
# 5 0.000000 0.000000 0.000000 0.000000 0.032488 0.000000
# 6 0.000000 0.000000 0.000000 0.000000 0.000000 0.105799
#
#
# Mechanical properties :
#
#
# Convention : Reuss Voigt Hill
#
# Bulk Modulus (GPa) = 13.22733 54.78620 34.00676
# Shear Modulus (GPa) = 11.07046 20.26534 15.66790
#
# Velocity S-wave (km/s) = 2.78132 3.76309 3.30882
# Velocity P-wave (km/s) = 4.42235 7.56070 6.19360
#
# Compressibility (1/GPa) = 0.07560102
#
# Stress axis : x y z
#
# Youngs Moduli (GPa) = 72.62598 9.36220 82.54679
#
# Poissons Ratio (x) = 0.13919 0.44066
# Poissons Ratio (y) = 1.07972 0.68863
# Poissons Ratio (z) = 0.38770 0.07810
#
# Static dielectric constant tensor:
#      x y z
#    x 2.992240 0.000000 0.000000 
#    y 0.000000 2.102280 0.000000 
#    z 0.000000 0.000000 3.025630 
# 
# 
# High freq. dielectric constant tensor:
#      x y z
#    x 1.561290 0.000000 0.000000 
#    y 0.000000 1.448860 0.000000 
#    z 0.000000 0.000000 1.569620 
# 
# From -- ./inp_files/12175.got.cif
#   From: 2010.03.12/outbox.cif.g09.slc.cpg/sg65_7_cif.got.tgz:12175.got - 2010.04.10 20:52:16.
