data_PCOD8266549
_publ_section_title
;
Structure prediction by ZEFSAII (Michael W. Deem and Ramdas Pophale) SiO2 
 PCOD8266549
Probable space group: C M M M
;
_chemical_formula_sum "Si O2"
_cell_formula_units_Z 96
_cell_length_a 8.660136
_cell_length_b 29.007560
_cell_length_c 20.550295
_cell_angle_alpha 90.000000
_cell_angle_beta 90.000000
_cell_angle_gamma 90.000000
_cell_volume 5162.427577
_symmetry_space_group_name_H-M "C M M M"
_symmetry_group_IT_number 65
_symmetry_cell_setting 'orthorhombic'
loop_
_space_group_symop_operation_xyz
x,y,z
-x,-y,z
x,-y,-z
-x,y,-z
-x,-y,-z
x,y,-z
-x,y,z
x,-y,z
1/2+x,1/2+y,z
1/2-x,1/2-y,z
1/2+x,1/2-y,-z
1/2-x,1/2+y,-z
1/2-x,1/2-y,-z
1/2+x,1/2+y,-z
1/2-x,1/2+y,z
1/2+x,1/2-y,z
loop_
_atom_site_type_symbol
_atom_site_label
_atom_site_fract_x
_atom_site_fract_y
_atom_site_fract_z
Si Si1 0.177617 0.446920 0.074774
Si Si2 0.680398 0.611331 0.815595
Si Si3 0.315870 0.448132 0.306485
Si Si4 0.183179 0.891724 0.428434
Si Si5 0.682095 0.202462 0.225832
Si Si6 0.182441 0.797172 0.367812
O O1 0.220850 0.500000 0.087069
O O2 0.288841 0.415760 0.118038
O O3 0.000000 0.437884 0.093600
O O4 0.207129 0.433760 0.000000
O O5 0.500000 0.621007 0.807712
O O6 0.743965 0.581385 0.754776
O O7 0.768746 0.659947 0.819618
O O8 0.500000 0.448425 0.307130
O O9 0.250755 0.500000 0.300722
O O10 0.249895 0.425856 0.373273
O O11 0.247553 0.905460 0.500000
O O12 0.232203 0.839136 0.414052
O O13 0.000000 0.895481 0.427851
O O14 0.500000 0.206774 0.229357
O O15 0.750000 0.250000 0.196620
O O16 0.749268 0.193199 0.297061
O O17 0.250000 0.750000 0.397941
O O18 0.000000 0.792913 0.360936
#
# Coordination Sequence:
#
# PCOD8266549 Si02
#       6
#    16  16  16  16  16  16
#     4   9  19  36  56  81 116 154 188 222 263 313
#     4  11  20  33  54  82 112 142 178 223 270 316
#     4   9  17  29  46  71 102 134 172 219 266 310
#     4   9  17  29  45  67  99 136 173 217 269 319
#     4  11  21  34  54  79 106 138 175 217 269 323
#     4  10  18  31  49  72 100 131 168 216 270 324
#
# _framework density 18.595901999999999
#
# number of rings (size 3 to 8) (size 9 to 14) (size 15 to 20)
#    0.000    2.167    1.667    4.500    0.000    2.000 
#    0.000    2.500    0.000    2.000    0.000    0.000 
#    0.000    1.333    0.000    0.000    0.000    0.000 
#
# Total GULP energy -595190.018916 kJ/mol
# GULP energy per Si atom -12399.792061 kJ/mol
# Density = 1.855358 g / cm^3
# Si number density = 18.595902 Si / 1000 Ang^3
#
#
#
# Elastic Constant Matrix: (Units=GPa)
#
#
# Indices 1 2 3 4 5 6 
#
# 1 64.0715 34.4746 17.3305 0.0000 0.0000 0.0000
# 2 34.4746 135.7298 57.1482 0.0000 0.0000 0.0000
# 3 17.3305 57.1482 92.9017 0.0000 0.0000 0.0000
# 4 0.0000 0.0000 0.0000 30.0809 0.0000 0.0000
# 5 0.0000 0.0000 0.0000 0.0000 17.4531 0.0000
# 6 0.0000 0.0000 0.0000 0.0000 0.0000 22.4947
#
#
#
# Elastic Compliance Matrix: (Units=1/GPa)
#
#
# Indices 1 2 3 4 5 6 
#
# 1 0.018116 -0.004289 -0.000741 0.000000 0.000000 0.000000
# 2 -0.004289 0.010958 -0.005941 0.000000 0.000000 0.000000
# 3 -0.000741 -0.005941 0.014557 0.000000 0.000000 0.000000
# 4 0.000000 0.000000 0.000000 0.033244 0.000000 0.000000
# 5 0.000000 0.000000 0.000000 0.000000 0.057297 0.000000
# 6 0.000000 0.000000 0.000000 0.000000 0.000000 0.044455
#
#
# Mechanical properties :
#
#
# Convention : Reuss Voigt Hill
#
# Bulk Modulus (GPa) = 46.10656 56.73440 51.42048
# Shear Modulus (GPa) = 24.06181 26.25571 25.15876
#
# Velocity S-wave (km/s) = 3.60103 3.76161 3.68220
# Velocity P-wave (km/s) = 6.49135 7.03147 6.76680
#
# Compressibility (1/GPa) = 0.02168889
#
# Stress axis : x y z
#
# Youngs Moduli (GPa) = 55.19998 91.25386 68.69648
#
# Poissons Ratio (x) = 0.39143 0.05089
# Poissons Ratio (y) = 0.23678 0.40812
# Poissons Ratio (z) = 0.04089 0.54213
#
# Static dielectric constant tensor:
#      x y z
#    x 3.120690 0.000000 0.000000 
#    y 0.000000 3.661520 0.000000 
#    z 0.000000 0.000000 3.335880 
# 
# 
# High freq. dielectric constant tensor:
#      x y z
#    x 1.695750 0.000000 0.000000 
#    y 0.000000 1.731570 0.000000 
#    z 0.000000 0.000000 1.704860 
# 
# From -- ./inp_files/60284.got.cif
#   From: 2010.03.12/outbox.cif.g09.slc.cpg/sg65_31_cif.got.tgz:60284.got - 2010.04.10 20:52:16.
