data_PCOD8266938
_publ_section_title
;
Structure prediction by ZEFSAII (Michael W. Deem and Ramdas Pophale) SiO2 
 PCOD8266938
Probable space group: C M M M
;
_chemical_formula_sum "Si O2"
_cell_formula_units_Z 64
_cell_length_a 8.564130
_cell_length_b 14.503834
_cell_length_c 26.684024
_cell_angle_alpha 90.000000
_cell_angle_beta 90.000000
_cell_angle_gamma 90.000000
_cell_volume 3314.495198
_symmetry_space_group_name_H-M "C M M M"
_symmetry_group_IT_number 65
_symmetry_cell_setting 'orthorhombic'
loop_
_space_group_symop_operation_xyz
x,y,z
-x,-y,z
x,-y,-z
-x,y,-z
-x,-y,-z
x,y,-z
-x,y,z
x,-y,z
1/2+x,1/2+y,z
1/2-x,1/2-y,z
1/2+x,1/2-y,-z
1/2-x,1/2+y,-z
1/2-x,1/2-y,-z
1/2+x,1/2+y,-z
1/2-x,1/2+y,z
1/2+x,1/2-y,z
loop_
_atom_site_type_symbol
_atom_site_label
_atom_site_fract_x
_atom_site_fract_y
_atom_site_fract_z
Si Si1 0.685706 0.000000 0.055845
Si Si2 0.314692 0.000000 0.212126
Si Si3 0.685215 0.352171 0.602091
Si Si4 0.685586 0.147277 0.500000
Si Si5 0.184562 0.647981 0.865751
Si Si6 0.314084 0.000000 0.674522
O O1 0.742235 0.908111 0.085087
O O2 0.500000 0.000000 0.053569
O O3 0.758368 0.000000 0.000000
O O4 0.255837 0.908022 0.183290
O O5 0.251206 0.000000 0.268609
O O6 0.500000 0.000000 0.212013
O O7 0.500000 0.350998 0.600449
O O8 0.750000 0.250000 0.608354
O O9 0.749590 0.399705 0.550741
O O10 0.745593 0.409204 0.649069
O O11 0.500000 0.143983 0.500000
O O12 0.750000 0.250000 0.500000
O O13 0.250000 0.750000 0.865929
O O14 0.000000 0.654140 0.865352
O O15 0.500000 0.000000 0.671094
#
# Coordination Sequence:
#
# PCOD8266938 Si02
#       6
#     8   8  16   8  16   8
#     4   8  15  29  49  73 106 145 178 208 251 311
#     4   8  18  36  54  71  99 136 172 213 262 317
#     4  11  22  38  57  81 110 141 175 215 264 319
#     4  10  18  33  56  81 107 140 176 213 259 313
#     4   9  17  32  53  76 101 135 177 216 258 308
#     4  11  22  38  57  79 105 136 176 223 272 320
#
# _framework density 19.309124000000001
#
# number of rings (size 3 to 8) (size 9 to 14) (size 15 to 20)
#    0.000    2.375    0.000    6.750    0.000    2.000 
#    0.000   10.000    0.000    0.750    0.000    0.000 
#    0.000    0.000    0.000    0.000    0.000    0.000 
#
# Total GULP energy -396654.329637 kJ/mol
# GULP energy per Si atom -12395.447801 kJ/mol
# Density = 1.926518 g / cm^3
# Si number density = 19.309124 Si / 1000 Ang^3
#
#
#
# Elastic Constant Matrix: (Units=GPa)
#
#
# Indices 1 2 3 4 5 6 
#
# 1 102.4658 34.5320 50.3004 0.0000 0.0000 0.0000
# 2 34.5320 154.7299 92.9027 0.0000 0.0000 0.0000
# 3 50.3004 92.9027 209.7985 0.0000 0.0000 0.0000
# 4 0.0000 0.0000 0.0000 23.3325 0.0000 0.0000
# 5 0.0000 0.0000 0.0000 0.0000 18.5186 0.0000
# 6 0.0000 0.0000 0.0000 0.0000 0.0000 32.1521
#
#
#
# Elastic Compliance Matrix: (Units=1/GPa)
#
#
# Indices 1 2 3 4 5 6 
#
# 1 0.011225 -0.001211 -0.002155 0.000000 0.000000 0.000000
# 2 -0.001211 0.008934 -0.003666 0.000000 0.000000 0.000000
# 3 -0.002155 -0.003666 0.006906 0.000000 0.000000 0.000000
# 4 0.000000 0.000000 0.000000 0.042859 0.000000 0.000000
# 5 0.000000 0.000000 0.000000 0.000000 0.054000 0.000000
# 6 0.000000 0.000000 0.000000 0.000000 0.000000 0.031102
#
#
# Mechanical properties :
#
#
# Convention : Reuss Voigt Hill
#
# Bulk Modulus (GPa) = 76.91212 91.38494 84.14853
# Shear Modulus (GPa) = 28.83090 34.08458 31.45774
#
# Velocity S-wave (km/s) = 3.86829 4.20599 4.04067
# Velocity P-wave (km/s) = 7.73757 8.42717 8.08972
#
# Compressibility (1/GPa) = 0.01300185
#
# Stress axis : x y z
#
# Youngs Moduli (GPa) = 89.08321 111.92880 144.79261
#
# Poissons Ratio (x) = 0.13559 0.31202
# Poissons Ratio (y) = 0.10791 0.53078
# Poissons Ratio (z) = 0.19197 0.41031
#
# Static dielectric constant tensor:
#      x y z
#    x 3.296940 0.000000 0.000000 
#    y 0.000000 3.890770 0.000000 
#    z 0.000000 0.000000 4.173290 
# 
# 
# High freq. dielectric constant tensor:
#      x y z
#    x 1.733920 0.000000 0.000000 
#    y 0.000000 1.752030 0.000000 
#    z 0.000000 0.000000 1.759740 
# 
# From -- ./inp_files/66906.got.cif
#   From: 2010.03.12/outbox.cif.g09.slc.cpg/sg65_34_cif.got.tgz:66906.got - 2010.04.10 20:52:16.
