data_PCOD8266309
_publ_section_title
;
Structure prediction by ZEFSAII (Michael W. Deem and Ramdas Pophale) SiO2 
 PCOD8266309
Probable space group: C M M M
;
_chemical_formula_sum "Si O2"
_cell_formula_units_Z 88
_cell_length_a 19.802796
_cell_length_b 8.789668
_cell_length_c 28.547999
_cell_angle_alpha 90.000000
_cell_angle_beta 90.000000
_cell_angle_gamma 90.000000
_cell_volume 4969.064772
_symmetry_space_group_name_H-M "C M M M"
_symmetry_group_IT_number 65
_symmetry_cell_setting 'orthorhombic'
loop_
_space_group_symop_operation_xyz
x,y,z
-x,-y,z
x,-y,-z
-x,y,-z
-x,-y,-z
x,y,-z
-x,y,z
x,-y,z
1/2+x,1/2+y,z
1/2-x,1/2-y,z
1/2+x,1/2-y,-z
1/2-x,1/2+y,-z
1/2-x,1/2-y,-z
1/2+x,1/2+y,-z
1/2-x,1/2+y,z
1/2+x,1/2-y,z
loop_
_atom_site_type_symbol
_atom_site_label
_atom_site_fract_x
_atom_site_fract_y
_atom_site_fract_z
Si Si1 0.824135 0.818174 0.094559
Si Si2 0.424805 0.181678 0.371115
Si Si3 0.575864 0.678978 0.824350
Si Si4 0.824479 0.682187 0.000000
Si Si5 0.080243 0.668470 0.269193
Si Si6 0.679371 0.179894 0.447127
O O1 0.750000 0.750000 0.103817
O O2 0.873237 0.761975 0.135945
O O3 0.819099 0.000000 0.090650
O O4 0.858136 0.748531 0.047285
O O5 0.500000 0.246576 0.380132
O O6 0.396463 0.234253 0.319937
O O7 0.377144 0.245829 0.412102
O O8 0.426954 0.000000 0.371622
O O9 0.500000 0.745770 0.832602
O O10 0.572549 0.500000 0.825773
O O11 0.605141 0.727577 0.773707
O O12 0.750000 0.750000 0.000000
O O13 0.824961 0.500000 0.000000
O O14 0.110215 0.500000 0.261025
O O15 0.000000 0.661314 0.270787
O O16 0.660436 0.229815 0.500000
O O17 0.750000 0.250000 0.431438
O O18 0.684831 0.000000 0.443147
#
# Coordination Sequence:
#
# PCOD8266309 Si02
#       6
#    16  16  16   8  16  16
#     4  10  19  32  50  70  93 120 151 187 225 265
#     4   8  14  26  45  68  89 110 145 190 227 260
#     4   9  18  32  49  69  93 121 152 185 222 266
#     4  10  18  30  49  70  93 121 153 187 223 266
#     4   8  14  26  45  66  88 116 147 181 223 268
#     4   9  17  29  45  64  88 119 150 181 221 269
#
# _framework density 17.709569999999999
#
# number of rings (size 3 to 8) (size 9 to 14) (size 15 to 20)
#    0.000    3.091    0.000    3.545    0.000    1.818 
#    0.000    4.091    0.000    8.727    0.000    2.545 
#    0.000    0.000    0.000    0.000    0.000    0.000 
#
# Total GULP energy -545247.454177 kJ/mol
# GULP energy per Si atom -12391.987595 kJ/mol
# Density = 1.766926 g / cm^3
# Si number density = 17.709570 Si / 1000 Ang^3
#
#
#
# Elastic Constant Matrix: (Units=GPa)
#
#
# Indices 1 2 3 4 5 6 
#
# 1 80.6838 20.4043 83.1069 0.0000 0.0000 0.0000
# 2 20.4043 36.9422 29.6270 0.0000 0.0000 0.0000
# 3 83.1069 29.6270 179.6500 0.0000 0.0000 0.0000
# 4 0.0000 0.0000 0.0000 25.1539 0.0000 0.0000
# 5 0.0000 0.0000 0.0000 0.0000 27.9057 0.0000
# 6 0.0000 0.0000 0.0000 0.0000 0.0000 18.7856
#
#
#
# Elastic Compliance Matrix: (Units=1/GPa)
#
#
# Indices 1 2 3 4 5 6 
#
# 1 0.024487 -0.005117 -0.010484 0.000000 0.000000 0.000000
# 2 -0.005117 0.032264 -0.002954 0.000000 0.000000 0.000000
# 3 -0.010484 -0.002954 0.010903 0.000000 0.000000 0.000000
# 4 0.000000 0.000000 0.000000 0.039755 0.000000 0.000000
# 5 0.000000 0.000000 0.000000 0.000000 0.035835 0.000000
# 6 0.000000 0.000000 0.000000 0.000000 0.000000 0.053232
#
#
# Mechanical properties :
#
#
# Convention : Reuss Voigt Hill
#
# Bulk Modulus (GPa) = 32.73809 62.61692 47.67751
# Shear Modulus (GPa) = 20.51131 25.31157 22.91144
#
# Velocity S-wave (km/s) = 3.40693 3.78466 3.60075
# Velocity P-wave (km/s) = 5.83117 7.38462 6.65339
#
# Compressibility (1/GPa) = 0.03054546
#
# Stress axis : x y z
#
# Youngs Moduli (GPa) = 40.83836 30.99392 91.71485
#
# Poissons Ratio (x) = 0.15859 0.96152
# Poissons Ratio (y) = 0.20897 0.27090
# Poissons Ratio (z) = 0.42814 0.09155
#
# Static dielectric constant tensor:
#      x y z
#    x 3.214350 0.000000 0.000000 
#    y 0.000000 3.074400 0.000000 
#    z 0.000000 0.000000 3.943800 
# 
# 
# High freq. dielectric constant tensor:
#      x y z
#    x 1.649230 0.000000 0.000000 
#    y 0.000000 1.663340 0.000000 
#    z 0.000000 0.000000 1.704800 
# 
# From -- ./inp_files/77888.got.cif
#   From: 2010.03.12/outbox.cif.g09.slc.cpg/sg65_39_cif.got.tgz:77888.got - 2010.04.10 20:52:16.
