data_PCOD8266030
_publ_section_title
;
Structure prediction by ZEFSAII (Michael W. Deem and Ramdas Pophale) SiO2 
 PCOD8266030
Probable space group: C M M M
;
_chemical_formula_sum "Si O2"
_cell_formula_units_Z 112
_cell_length_a 9.634065
_cell_length_b 28.700948
_cell_length_c 25.520040
_cell_angle_alpha 90.000000
_cell_angle_beta 90.000000
_cell_angle_gamma 90.000000
_cell_volume 7056.464560
_symmetry_space_group_name_H-M "C M M M"
_symmetry_group_IT_number 65
_symmetry_cell_setting 'orthorhombic'
loop_
_space_group_symop_operation_xyz
x,y,z
-x,-y,z
x,-y,-z
-x,y,-z
-x,-y,-z
x,y,-z
-x,y,z
x,-y,z
1/2+x,1/2+y,z
1/2-x,1/2-y,z
1/2+x,1/2-y,-z
1/2-x,1/2+y,-z
1/2-x,1/2-y,-z
1/2+x,1/2+y,-z
1/2-x,1/2+y,z
1/2+x,1/2-y,z
loop_
_atom_site_type_symbol
_atom_site_label
_atom_site_fract_x
_atom_site_fract_y
_atom_site_fract_z
Si Si1 0.165300 0.947476 0.744118
Si Si2 0.839234 0.206502 0.804742
Si Si3 0.163075 0.106913 0.357880
Si Si4 0.165124 0.947548 0.057919
Si Si5 0.840928 0.206907 0.683140
Si Si6 0.334880 0.607999 0.156288
Si Si7 0.840553 0.446897 0.561080
O O1 0.218712 0.920994 0.692616
O O2 0.225886 0.922059 0.795537
O O3 0.000000 0.946478 0.745561
O O4 0.222561 0.000000 0.743043
O O5 0.750000 0.250000 0.824846
O O6 0.810526 0.195662 0.743858
O O7 0.789707 0.161698 0.837876
O O8 0.000000 0.217930 0.814535
O O9 0.196515 0.161447 0.350547
O O10 0.243011 0.088927 0.408585
O O11 0.000000 0.098511 0.366017
O O12 0.225533 0.912467 0.101778
O O13 0.000000 0.946613 0.059325
O O14 0.216525 0.000000 0.070266
O O15 0.217251 0.932095 0.000000
O O16 0.750000 0.250000 0.662638
O O17 0.000000 0.221193 0.675350
O O18 0.500000 0.604455 0.157582
O O19 0.816897 0.437761 0.500000
O O20 0.799649 0.500000 0.575262
O O21 0.000000 0.437631 0.576344
#
# Coordination Sequence:
#
# PCOD8266030 Si02
#       7
#    16  16  16  16  16  16  16
#     4   9  15  22  35  58  86 112 136 167 215 269
#     4   9  16  27  42  60  84 113 146 180 215 260
#     4  10  18  29  46  70  94 114 143 187 228 262
#     4   8  13  20  31  51  80 113 148 182 215 256
#     4   9  17  29  44  64  91 117 146 183 221 266
#     4   9  14  22  36  54  80 114 145 175 215 263
#     4   9  19  35  51  67  91 124 157 183 210 254
#
# _framework density 15.871972
#
# number of rings (size 3 to 8) (size 9 to 14) (size 15 to 20)
#    0.000    3.000    1.429    1.714    0.000    3.429 
#    0.000    0.714    0.000    0.857    0.000    0.000 
#    0.000    1.714    0.000    1.571    0.000    2.429 
#
# Total GULP energy -694228.177986 kJ/mol
# GULP energy per Si atom -12396.931750 kJ/mol
# Density = 1.583585 g / cm^3
# Si number density = 15.871972 Si / 1000 Ang^3
#
#
#
# Elastic Constant Matrix: (Units=GPa)
#
#
# Indices 1 2 3 4 5 6 
#
# 1 35.9264 48.7814 34.2403 0.0000 0.0000 0.0000
# 2 48.7814 139.5371 69.4058 0.0000 0.0000 0.0000
# 3 34.2403 69.4058 93.1202 0.0000 0.0000 0.0000
# 4 0.0000 0.0000 0.0000 25.3179 0.0000 0.0000
# 5 0.0000 0.0000 0.0000 0.0000 8.8118 0.0000
# 6 0.0000 0.0000 0.0000 0.0000 0.0000 22.9838
#
#
#
# Elastic Compliance Matrix: (Units=1/GPa)
#
#
# Indices 1 2 3 4 5 6 
#
# 1 0.058227 -0.015425 -0.009913 0.000000 0.000000 0.000000
# 2 -0.015425 0.015475 -0.005862 0.000000 0.000000 0.000000
# 3 -0.009913 -0.005862 0.018753 0.000000 0.000000 0.000000
# 4 0.000000 0.000000 0.000000 0.039498 0.000000 0.000000
# 5 0.000000 0.000000 0.000000 0.000000 0.113485 0.000000
# 6 0.000000 0.000000 0.000000 0.000000 0.000000 0.043509
#
#
# Mechanical properties :
#
#
# Convention : Reuss Voigt Hill
#
# Bulk Modulus (GPa) = 33.27324 63.71539 48.49431
# Shear Modulus (GPa) = 13.83641 19.16645 16.50143
#
# Velocity S-wave (km/s) = 2.95575 3.47877 3.22787
# Velocity P-wave (km/s) = 5.71468 7.50775 6.67173
#
# Compressibility (1/GPa) = 0.03005418
#
# Stress axis : x y z
#
# Youngs Moduli (GPa) = 17.17417 64.62067 53.32405
#
# Poissons Ratio (x) = 0.99677 0.52862
# Poissons Ratio (y) = 0.26491 0.31260
# Poissons Ratio (z) = 0.17025 0.37882
#
# Static dielectric constant tensor:
#      x y z
#    x 2.589740 0.000000 0.000000 
#    y 0.000000 3.122000 0.000000 
#    z 0.000000 0.000000 3.033310 
# 
# 
# High freq. dielectric constant tensor:
#      x y z
#    x 1.561710 0.000000 0.000000 
#    y 0.000000 1.614520 0.000000 
#    z 0.000000 0.000000 1.597960 
# 
# From -- ./inp_files/69141.got.cif
#   From: 2010.03.12/outbox.cif.g09.slc.cpg/sg65_35_cif.got.tgz:69141.got - 2010.04.10 20:52:16.
