data_PCOD8266537
_publ_section_title
;
Structure prediction by ZEFSAII (Michael W. Deem and Ramdas Pophale) SiO2 
 PCOD8266537
Probable space group: C M M M
;
_chemical_formula_sum "Si O2"
_cell_formula_units_Z 88
_cell_length_a 30.360855
_cell_length_b 18.100945
_cell_length_c 9.219251
_cell_angle_alpha 90.000000
_cell_angle_beta 90.000000
_cell_angle_gamma 90.000000
_cell_volume 5066.533115
_symmetry_space_group_name_H-M "C M M M"
_symmetry_group_IT_number 65
_symmetry_cell_setting 'orthorhombic'
loop_
_space_group_symop_operation_xyz
x,y,z
-x,-y,z
x,-y,-z
-x,y,-z
-x,-y,-z
x,y,-z
-x,y,z
x,-y,z
1/2+x,1/2+y,z
1/2-x,1/2-y,z
1/2+x,1/2-y,-z
1/2-x,1/2+y,-z
1/2-x,1/2-y,-z
1/2+x,1/2+y,-z
1/2-x,1/2+y,z
1/2+x,1/2-y,z
loop_
_atom_site_type_symbol
_atom_site_label
_atom_site_fract_x
_atom_site_fract_y
_atom_site_fract_z
Si Si1 0.209315 0.195692 0.333419
Si Si2 0.447691 0.500000 0.164606
Si Si3 0.239700 0.584886 0.162495
Si Si4 0.050767 0.854169 0.670947
Si Si5 0.881215 0.265408 0.328878
Si Si6 0.149796 0.582019 0.329539
O O1 0.203503 0.171913 0.500000
O O2 0.250000 0.250000 0.312461
O O3 0.218853 0.123795 0.237987
O O4 0.164992 0.232963 0.271716
O O5 0.500000 0.500000 0.167113
O O6 0.430944 0.426811 0.247631
O O7 0.429617 0.500000 0.000000
O O8 0.252503 0.500000 0.159222
O O9 0.195426 0.598837 0.251791
O O10 0.232611 0.615567 0.000000
O O11 0.057295 0.867250 0.500000
O O12 0.077975 0.783061 0.730364
O O13 0.000000 0.838564 0.709070
O O14 0.882056 0.260172 0.500000
O O15 0.884460 0.352713 0.283459
O O16 0.159761 0.586558 0.500000
O O17 0.131349 0.500000 0.287781
#
# Coordination Sequence:
#
# PCOD8266537 Si02
#       6
#    16   8  16  16  16  16
#     4  10  18  31  49  67  90 122 158 196 230 270
#     4   9  17  31  51  73  97 123 155 195 233 277
#     4  10  20  32  45  64  93 125 156 193 234 277
#     4   9  17  31  52  73  95 124 156 192 234 279
#     4   9  17  30  48  72  95 117 156 198 230 272
#     4   9  16  29  50  70  90 122 162 197 227 269
#
# _framework density 17.368879
#
# number of rings (size 3 to 8) (size 9 to 14) (size 15 to 20)
#    0.000    2.636    1.818    0.818    0.000    2.545 
#    1.636    1.818    0.000    0.545    0.000    3.818 
#    0.000    0.000    0.000    9.091    0.000    9.455 
#
# Total GULP energy -545328.004230 kJ/mol
# GULP energy per Si atom -12393.818278 kJ/mol
# Density = 1.732935 g / cm^3
# Si number density = 17.368879 Si / 1000 Ang^3
#
#
#
# Elastic Constant Matrix: (Units=GPa)
#
#
# Indices 1 2 3 4 5 6 
#
# 1 73.7957 65.1021 21.1698 0.0000 0.0000 0.0000
# 2 65.1021 155.7678 42.7535 0.0000 0.0000 0.0000
# 3 21.1698 42.7535 51.6680 0.0000 0.0000 0.0000
# 4 0.0000 0.0000 0.0000 15.2556 0.0000 0.0000
# 5 0.0000 0.0000 0.0000 0.0000 7.8107 0.0000
# 6 0.0000 0.0000 0.0000 0.0000 0.0000 30.7836
#
#
#
# Elastic Compliance Matrix: (Units=1/GPa)
#
#
# Indices 1 2 3 4 5 6 
#
# 1 0.021592 -0.008534 -0.001785 0.000000 0.000000 0.000000
# 2 -0.008534 0.011679 -0.006168 0.000000 0.000000 0.000000
# 3 -0.001785 -0.006168 0.025189 0.000000 0.000000 0.000000
# 4 0.000000 0.000000 0.000000 0.065550 0.000000 0.000000
# 5 0.000000 0.000000 0.000000 0.000000 0.128030 0.000000
# 6 0.000000 0.000000 0.000000 0.000000 0.000000 0.032485
#
#
# Mechanical properties :
#
#
# Convention : Reuss Voigt Hill
#
# Bulk Modulus (GPa) = 39.23603 59.92026 49.57814
# Shear Modulus (GPa) = 15.33770 20.91705 18.12737
#
# Velocity S-wave (km/s) = 2.97485 3.47404 3.23409
# Velocity P-wave (km/s) = 5.86844 7.11797 6.52319
#
# Compressibility (1/GPa) = 0.02548678
#
# Stress axis : x y z
#
# Youngs Moduli (GPa) = 46.31384 85.62034 39.69951
#
# Poissons Ratio (x) = 0.73070 0.07086
# Poissons Ratio (y) = 0.39525 0.24485
# Poissons Ratio (z) = 0.08267 0.52808
#
# Static dielectric constant tensor:
#      x y z
#    x 3.096480 0.000000 0.000000 
#    y 0.000000 3.651690 0.000000 
#    z 0.000000 0.000000 3.149780 
# 
# 
# High freq. dielectric constant tensor:
#      x y z
#    x 1.632600 0.000000 0.000000 
#    y 0.000000 1.684840 0.000000 
#    z 0.000000 0.000000 1.651990 
# 
# From -- ./inp_files/10012.got.cif
#   From: 2010.03.12/outbox.cif.g09.slc.cpg/sg65_6_cif.got.tgz:10012.got - 2010.04.10 20:52:16.
