data_PCOD8266942
_publ_section_title
;
Structure prediction by ZEFSAII (Michael W. Deem and Ramdas Pophale) SiO2 
 PCOD8266942
Probable space group: C M M M
;
_chemical_formula_sum "Si O2"
_cell_formula_units_Z 72
_cell_length_a 27.605062
_cell_length_b 14.555483
_cell_length_c 8.788226
_cell_angle_alpha 90.000000
_cell_angle_beta 90.000000
_cell_angle_gamma 90.000000
_cell_volume 3531.153242
_symmetry_space_group_name_H-M "C M M M"
_symmetry_group_IT_number 65
_symmetry_cell_setting 'orthorhombic'
loop_
_space_group_symop_operation_xyz
x,y,z
-x,-y,z
x,-y,-z
-x,y,-z
-x,-y,-z
x,y,-z
-x,y,z
x,-y,z
1/2+x,1/2+y,z
1/2-x,1/2-y,z
1/2+x,1/2-y,-z
1/2-x,1/2+y,-z
1/2-x,1/2-y,-z
1/2+x,1/2+y,-z
1/2-x,1/2+y,z
1/2+x,1/2-y,z
loop_
_atom_site_type_symbol
_atom_site_label
_atom_site_fract_x
_atom_site_fract_y
_atom_site_fract_z
Si Si1 0.000000 0.104461 0.679347
Si Si2 0.761873 0.356213 0.827281
Si Si3 0.912267 0.212976 0.177661
Si Si4 0.868786 0.398371 0.180455
Si Si5 0.832339 0.898247 0.671037
O O1 0.046730 0.160922 0.729882
O O2 0.000000 0.098672 0.500000
O O3 0.000000 0.000000 0.746571
O O4 0.750000 0.250000 0.819878
O O5 0.814937 0.376765 0.757233
O O6 0.723174 0.407835 0.722736
O O7 0.758378 0.393306 0.000000
O O8 0.907159 0.319754 0.232244
O O9 0.860892 0.165411 0.210467
O O10 0.924531 0.206299 0.000000
O O11 0.885809 0.500000 0.236156
O O12 0.865828 0.394063 0.000000
O O13 0.835581 0.857461 0.500000
O O14 0.855517 0.000000 0.673057
#
# Coordination Sequence:
#
# PCOD8266942 Si02
#       5
#     8  16  16  16  16
#     4  11  25  45  66  89 118 148 179 227 298 363
#     4  10  18  33  56  83 114 153 201 246 285 330
#     4  11  22  39  63  89 114 146 194 242 286 343
#     4   9  18  34  57  85 118 154 193 241 291 334
#     4  11  23  36  52  80 119 159 195 236 290 346
#
# _framework density 20.389939999999999
#
# number of rings (size 3 to 8) (size 9 to 14) (size 15 to 20)
#    0.000    1.667    2.222    3.000    0.000    6.667 
#    0.000    0.556    0.000    7.333    0.000    0.000 
#    0.000    0.000    0.000    0.000    0.000    0.000 
#
# Total GULP energy -446298.714575 kJ/mol
# GULP energy per Si atom -12397.186516 kJ/mol
# Density = 2.034353 g / cm^3
# Si number density = 20.389940 Si / 1000 Ang^3
#
#
#
# Elastic Constant Matrix: (Units=GPa)
#
#
# Indices 1 2 3 4 5 6 
#
# 1 97.8514 60.9376 19.5819 0.0000 0.0000 0.0000
# 2 60.9376 162.9158 28.8955 0.0000 0.0000 0.0000
# 3 19.5819 28.8955 52.8334 0.0000 0.0000 0.0000
# 4 0.0000 0.0000 0.0000 15.3626 0.0000 0.0000
# 5 0.0000 0.0000 0.0000 0.0000 10.8444 0.0000
# 6 0.0000 0.0000 0.0000 0.0000 0.0000 30.9628
#
#
#
# Elastic Compliance Matrix: (Units=1/GPa)
#
#
# Indices 1 2 3 4 5 6 
#
# 1 0.013616 -0.004649 -0.002504 0.000000 0.000000 0.000000
# 2 -0.004649 0.008385 -0.002863 0.000000 0.000000 0.000000
# 3 -0.002504 -0.002863 0.021421 0.000000 0.000000 0.000000
# 4 0.000000 0.000000 0.000000 0.065093 0.000000 0.000000
# 5 0.000000 0.000000 0.000000 0.000000 0.092214 0.000000
# 6 0.000000 0.000000 0.000000 0.000000 0.000000 0.032297
#
#
# Mechanical properties :
#
#
# Convention : Reuss Voigt Hill
#
# Bulk Modulus (GPa) = 42.75216 59.15895 50.95555
# Shear Modulus (GPa) = 19.16787 25.04633 22.10710
#
# Velocity S-wave (km/s) = 3.06937 3.50861 3.29632
# Velocity P-wave (km/s) = 5.79433 6.74467 6.28748
#
# Compressibility (1/GPa) = 0.02339063
#
# Stress axis : x y z
#
# Youngs Moduli (GPa) = 73.44456 119.26443 46.68281
#
# Poissons Ratio (x) = 0.55443 0.11689
# Poissons Ratio (y) = 0.34143 0.13364
# Poissons Ratio (z) = 0.18390 0.34143
#
# Static dielectric constant tensor:
#      x y z
#    x 3.621450 0.000000 0.000000 
#    y 0.000000 4.071440 0.000000 
#    z 0.000000 0.000000 3.422130 
# 
# 
# High freq. dielectric constant tensor:
#      x y z
#    x 1.779560 0.000000 0.000000 
#    y 0.000000 1.814230 0.000000 
#    z 0.000000 0.000000 1.769440 
# 
# From -- ./inp_files/7241.got.cif
#   From: 2010.03.12/outbox.cif.g09.slc.cpg/sg65_4_cif.got.tgz:7241.got - 2010.04.10 20:52:16.
