data_PCOD8266332
_publ_section_title
;
Structure prediction by ZEFSAII (Michael W. Deem and Ramdas Pophale) SiO2 
 PCOD8266332
Probable space group: C M M M
;
_chemical_formula_sum "Si O2"
_cell_formula_units_Z 104
_cell_length_a 28.847924
_cell_length_b 8.959852
_cell_length_c 23.418422
_cell_angle_alpha 90.000000
_cell_angle_beta 90.000000
_cell_angle_gamma 90.000000
_cell_volume 6053.032823
_symmetry_space_group_name_H-M "C M M M"
_symmetry_group_IT_number 65
_symmetry_cell_setting 'orthorhombic'
loop_
_space_group_symop_operation_xyz
x,y,z
-x,-y,z
x,-y,-z
-x,y,-z
-x,-y,-z
x,y,-z
-x,y,z
x,-y,z
1/2+x,1/2+y,z
1/2-x,1/2-y,z
1/2+x,1/2-y,-z
1/2-x,1/2+y,-z
1/2-x,1/2-y,-z
1/2+x,1/2+y,-z
1/2-x,1/2+y,z
1/2+x,1/2-y,z
loop_
_atom_site_type_symbol
_atom_site_label
_atom_site_fract_x
_atom_site_fract_y
_atom_site_fract_z
Si Si1 0.606766 0.672568 0.435249
Si Si2 0.295649 0.675148 0.614741
Si Si3 0.795885 0.323953 0.736545
Si Si4 0.555112 0.668222 0.000000
Si Si5 0.895006 0.324620 0.775301
Si Si6 0.052673 0.676890 0.664490
Si Si7 0.553652 0.175353 0.113722
O O1 0.594184 0.715677 0.500000
O O2 0.596705 0.500000 0.422796
O O3 0.660981 0.707639 0.425902
O O4 0.574558 0.767905 0.394238
O O5 0.287118 0.500000 0.623948
O O6 0.250000 0.750000 0.586539
O O7 0.305333 0.752294 0.675211
O O8 0.788496 0.500000 0.729411
O O9 0.750000 0.250000 0.764680
O O10 0.840273 0.287817 0.775944
O O11 0.573926 0.749115 0.056669
O O12 0.573584 0.500000 0.000000
O O13 0.500000 0.676843 0.000000
O O14 0.904260 0.500000 0.774562
O O15 0.919306 0.256447 0.718751
O O16 0.917980 0.258124 0.832529
O O17 0.055352 0.500000 0.664212
O O18 0.000000 0.733537 0.668853
O O19 0.500000 0.215660 0.123653
O O20 0.560889 0.000000 0.106687
#
# Coordination Sequence:
#
# PCOD8266332 Si02
#       7
#    16  16  16   8  16  16  16
#     4  10  22  38  52  68  94 127 161 197 242 298
#     4  10  19  32  51  72  94 121 154 194 242 295
#     4  10  18  30  49  72  99 127 155 191 240 292
#     4   9  17  29  43  65 102 139 166 197 236 273
#     4   9  17  30  50  75 100 125 157 200 244 283
#     4  10  20  35  54  74  96 123 159 204 248 287
#     4   9  16  28  48  72  97 130 169 200 230 276
#
# _framework density 17.181469
#
# number of rings (size 3 to 8) (size 9 to 14) (size 15 to 20)
#    0.000    2.385    1.538    2.538    0.000    4.615 
#    0.000    3.846    0.000    1.846    0.000    0.538 
#    0.000    0.000    0.000    0.000    0.000    0.000 
#
# Total GULP energy -644723.801429 kJ/mol
# GULP energy per Si atom -12398.534643 kJ/mol
# Density = 1.714236 g / cm^3
# Si number density = 17.181469 Si / 1000 Ang^3
#
#
#
# Elastic Constant Matrix: (Units=GPa)
#
#
# Indices 1 2 3 4 5 6 
#
# 1 110.9078 38.0221 63.2648 0.0000 0.0000 0.0000
# 2 38.0221 53.3443 30.0755 0.0000 0.0000 0.0000
# 3 63.2648 30.0755 121.8893 0.0000 0.0000 0.0000
# 4 0.0000 0.0000 0.0000 16.2688 0.0000 0.0000
# 5 0.0000 0.0000 0.0000 0.0000 23.3254 0.0000
# 6 0.0000 0.0000 0.0000 0.0000 0.0000 22.9050
#
#
#
# Elastic Compliance Matrix: (Units=1/GPa)
#
#
# Indices 1 2 3 4 5 6 
#
# 1 0.014896 -0.007270 -0.005938 0.000000 0.000000 0.000000
# 2 -0.007270 0.025323 -0.002475 0.000000 0.000000 0.000000
# 3 -0.005938 -0.002475 0.011897 0.000000 0.000000 0.000000
# 4 0.000000 0.000000 0.000000 0.061467 0.000000 0.000000
# 5 0.000000 0.000000 0.000000 0.000000 0.042872 0.000000
# 6 0.000000 0.000000 0.000000 0.000000 0.000000 0.043659
#
#
# Mechanical properties :
#
#
# Convention : Reuss Voigt Hill
#
# Bulk Modulus (GPa) = 48.19087 60.98511 54.58799
# Shear Modulus (GPa) = 20.97359 22.81843 21.89601
#
# Velocity S-wave (km/s) = 3.49766 3.64824 3.57374
# Velocity P-wave (km/s) = 6.66487 7.30192 6.99065
#
# Compressibility (1/GPa) = 0.02075082
#
# Stress axis : x y z
#
# Youngs Moduli (GPa) = 67.13352 39.48955 84.05644
#
# Poissons Ratio (x) = 0.28707 0.49910
# Poissons Ratio (y) = 0.48803 0.20806
# Poissons Ratio (z) = 0.39862 0.09775
#
# Static dielectric constant tensor:
#      x y z
#    x 3.328540 0.000000 0.000000 
#    y 0.000000 3.097080 0.000000 
#    z 0.000000 0.000000 3.218100 
# 
# 
# High freq. dielectric constant tensor:
#      x y z
#    x 1.657930 0.000000 0.000000 
#    y 0.000000 1.652010 0.000000 
#    z 0.000000 0.000000 1.649660 
# 
# From -- ./inp_files/72188.got.cif
#   From: 2010.03.12/outbox.cif.g09.slc.cpg/sg65_37_cif.got.tgz:72188.got - 2010.04.10 20:52:16.
