data_PCOD8266842
_publ_section_title
;
Structure prediction by ZEFSAII (Michael W. Deem and Ramdas Pophale) SiO2 
 PCOD8266842
Probable space group: C M M M
;
_chemical_formula_sum "Si O2"
_cell_formula_units_Z 104
_cell_length_a 22.051115
_cell_length_b 13.619621
_cell_length_c 18.594198
_cell_angle_alpha 90.000000
_cell_angle_beta 90.000000
_cell_angle_gamma 90.000000
_cell_volume 5584.355116
_symmetry_space_group_name_H-M "C M M M"
_symmetry_group_IT_number 65
_symmetry_cell_setting 'orthorhombic'
loop_
_space_group_symop_operation_xyz
x,y,z
-x,-y,z
x,-y,-z
-x,y,-z
-x,-y,-z
x,y,-z
-x,y,z
x,-y,z
1/2+x,1/2+y,z
1/2-x,1/2-y,z
1/2+x,1/2-y,-z
1/2-x,1/2+y,-z
1/2-x,1/2-y,-z
1/2+x,1/2+y,-z
1/2-x,1/2+y,z
1/2+x,1/2-y,z
loop_
_atom_site_type_symbol
_atom_site_label
_atom_site_fract_x
_atom_site_fract_y
_atom_site_fract_z
Si Si1 0.931027 0.611743 0.191230
Si Si2 0.070694 0.000000 0.583052
Si Si3 0.725107 0.393068 0.085240
Si Si4 0.872092 0.390119 0.342094
Si Si5 0.750397 0.109683 0.580427
Si Si6 0.123972 0.197911 0.582513
Si Si7 0.847067 0.290779 0.084833
O O1 0.929158 0.500000 0.164124
O O2 0.886449 0.625832 0.258710
O O3 0.907937 0.680063 0.126478
O O4 0.000000 0.641809 0.211352
O O5 0.095565 0.100490 0.619565
O O6 0.091429 0.000000 0.500000
O O7 0.000000 0.000000 0.593303
O O8 0.710471 0.500000 0.117979
O O9 0.792187 0.361266 0.109868
O O10 0.672351 0.318748 0.109441
O O11 0.726160 0.394391 0.000000
O O12 0.895470 0.500000 0.366050
O O13 0.800416 0.382379 0.358018
O O14 0.902770 0.298664 0.383786
O O15 0.721670 0.125053 0.500000
O O16 0.802857 0.190915 0.592668
O O17 0.779763 0.000000 0.583757
O O18 0.104450 0.200592 0.500000
O O19 0.860018 0.297576 0.000000
#
# Coordination Sequence:
#
# PCOD8266842 Si02
#       7
#    16   8  16  16  16  16  16
#     4  10  22  39  54  70 100 142 180 218 266 314
#     4   9  18  32  52  78 104 136 176 216 266 313
#     4   8  14  27  50  81 115 140 157 195 262 323
#     4  10  21  34  50  74 104 142 175 207 265 334
#     4   9  16  30  53  80 109 135 167 217 270 317
#     4  10  18  32  54  79 107 136 175 225 266 308
#     4   9  17  31  55  84 107 134 176 220 261 311
#
# _framework density 18.623457999999999
#
# number of rings (size 3 to 8) (size 9 to 14) (size 15 to 20)
#    0.000    2.692    0.769    2.308    0.000    4.000 
#    5.538    0.769    1.692    1.846    0.000   14.000 
#    0.000    0.000    0.000    0.000    0.000    0.000 
#
# Total GULP energy -644371.894177 kJ/mol
# GULP energy per Si atom -12391.767196 kJ/mol
# Density = 1.858107 g / cm^3
# Si number density = 18.623458 Si / 1000 Ang^3
#
#
#
# Elastic Constant Matrix: (Units=GPa)
#
#
# Indices 1 2 3 4 5 6 
#
# 1 62.5287 40.6551 40.4646 0.0000 0.0000 0.0000
# 2 40.6551 160.2567 44.0294 0.0000 0.0000 0.0000
# 3 40.4646 44.0294 63.6110 0.0000 0.0000 0.0000
# 4 0.0000 0.0000 0.0000 21.2101 0.0000 0.0000
# 5 0.0000 0.0000 0.0000 0.0000 14.5861 0.0000
# 6 0.0000 0.0000 0.0000 0.0000 0.0000 20.9280
#
#
#
# Elastic Compliance Matrix: (Units=1/GPa)
#
#
# Indices 1 2 3 4 5 6 
#
# 1 0.028125 -0.002741 -0.015994 0.000000 0.000000 0.000000
# 2 -0.002741 0.007972 -0.003775 0.000000 0.000000 0.000000
# 3 -0.015994 -0.003775 0.028507 0.000000 0.000000 0.000000
# 4 0.000000 0.000000 0.000000 0.047147 0.000000 0.000000
# 5 0.000000 0.000000 0.000000 0.000000 0.068559 0.000000
# 6 0.000000 0.000000 0.000000 0.000000 0.000000 0.047783
#
#
# Mechanical properties :
#
#
# Convention : Reuss Voigt Hill
#
# Bulk Modulus (GPa) = 51.05714 59.63273 55.34493
# Shear Modulus (GPa) = 17.88008 22.09466 19.98737
#
# Velocity S-wave (km/s) = 3.10188 3.44814 3.27958
# Velocity P-wave (km/s) = 6.34854 6.92406 6.64253
#
# Compressibility (1/GPa) = 0.01958590
#
# Stress axis : x y z
#
# Youngs Moduli (GPa) = 35.55577 125.43339 35.07854
#
# Poissons Ratio (x) = 0.34377 0.56104
# Poissons Ratio (y) = 0.09745 0.13241
# Poissons Ratio (z) = 0.56868 0.47348
#
# Static dielectric constant tensor:
#      x y z
#    x 3.135670 0.000000 0.000000 
#    y 0.000000 4.105230 0.000000 
#    z 0.000000 0.000000 2.971850 
# 
# 
# High freq. dielectric constant tensor:
#      x y z
#    x 1.696230 0.000000 0.000000 
#    y 0.000000 1.747150 0.000000 
#    z 0.000000 0.000000 1.675860 
# 
# From -- ./inp_files/56808.got.cif
#   From: 2010.03.12/outbox.cif.g09.slc.cpg/sg65_29_cif.got.tgz:56808.got - 2010.04.10 20:52:16.
