data_PCOD8266104
_publ_section_title
;
Structure prediction by ZEFSAII (Michael W. Deem and Ramdas Pophale) SiO2 
 PCOD8266104
Probable space group: C M M M
;
_chemical_formula_sum "Si O2"
_cell_formula_units_Z 104
_cell_length_a 9.184809
_cell_length_b 28.405627
_cell_length_c 23.215375
_cell_angle_alpha 90.000000
_cell_angle_beta 90.000000
_cell_angle_gamma 90.000000
_cell_volume 6056.897339
_symmetry_space_group_name_H-M "C M M M"
_symmetry_group_IT_number 65
_symmetry_cell_setting 'orthorhombic'
loop_
_space_group_symop_operation_xyz
x,y,z
-x,-y,z
x,-y,-z
-x,y,-z
-x,-y,-z
x,y,-z
-x,y,z
x,-y,z
1/2+x,1/2+y,z
1/2-x,1/2-y,z
1/2+x,1/2-y,-z
1/2-x,1/2+y,-z
1/2-x,1/2-y,-z
1/2+x,1/2+y,-z
1/2-x,1/2+y,z
1/2+x,1/2-y,z
loop_
_atom_site_type_symbol
_atom_site_label
_atom_site_fract_x
_atom_site_fract_y
_atom_site_fract_z
Si Si1 0.327444 0.603137 0.384736
Si Si2 0.671340 0.886249 0.169379
Si Si3 0.669196 0.296383 0.345008
Si Si4 0.171241 0.797098 0.211627
Si Si5 0.666919 0.054548 0.718437
Si Si6 0.172622 0.447530 0.063900
Si Si7 0.673252 0.446540 0.500000
O O1 0.500000 0.599645 0.380529
O O2 0.278751 0.657852 0.380838
O O3 0.265820 0.573100 0.332662
O O4 0.267992 0.581131 0.444136
O O5 0.500000 0.874648 0.166392
O O6 0.762586 0.838746 0.173972
O O7 0.708475 0.919602 0.222840
O O8 0.730914 0.911570 0.111814
O O9 0.500000 0.286637 0.353412
O O10 0.750000 0.250000 0.368530
O O11 0.707934 0.306266 0.278560
O O12 0.250000 0.750000 0.190369
O O13 0.000000 0.792890 0.200695
O O14 0.500000 0.063806 0.701570
O O15 0.699202 0.000000 0.728421
O O16 0.235106 0.500000 0.075405
O O17 0.000000 0.449892 0.068533
O O18 0.220016 0.430291 0.000000
O O19 0.733927 0.500000 0.500000
O O20 0.500000 0.447247 0.500000
#
# Coordination Sequence:
#
# PCOD8266104 Si02
#       7
#    16  16  16  16  16  16   8
#     4  10  19  34  52  72  95 125 165 205 242 286
#     4  10  18  29  48  74 102 130 162 202 246 289
#     4   9  18  31  49  71  96 124 155 195 242 292
#     4  10  19  32  49  72 100 129 162 199 247 300
#     4  10  20  31  45  70 102 131 158 195 244 291
#     4   8  14  26  46  72 101 134 171 206 239 283
#     4   9  18  32  52  73  93 125 167 205 240 283
#
# _framework density 17.170507000000001
#
# number of rings (size 3 to 8) (size 9 to 14) (size 15 to 20)
#    0.000    2.538    1.538    1.846    0.000    4.000 
#    0.000    0.769    0.000    3.692    0.000    1.077 
#    0.000    0.000    0.000    0.000    0.000    0.000 
#
# Total GULP energy -644773.277215 kJ/mol
# GULP energy per Si atom -12399.486100 kJ/mol
# Density = 1.713143 g / cm^3
# Si number density = 17.170507 Si / 1000 Ang^3
#
#
#
# Elastic Constant Matrix: (Units=GPa)
#
#
# Indices 1 2 3 4 5 6 
#
# 1 37.8663 43.4513 34.0426 0.0000 0.0000 0.0000
# 2 43.4513 157.6315 82.1751 0.0000 0.0000 0.0000
# 3 34.0426 82.1751 123.3444 0.0000 0.0000 0.0000
# 4 0.0000 0.0000 0.0000 30.4738 0.0000 0.0000
# 5 0.0000 0.0000 0.0000 0.0000 13.3665 0.0000
# 6 0.0000 0.0000 0.0000 0.0000 0.0000 27.0202
#
#
#
# Elastic Compliance Matrix: (Units=1/GPa)
#
#
# Indices 1 2 3 4 5 6 
#
# 1 0.041191 -0.008316 -0.005828 0.000000 0.000000 0.000000
# 2 -0.008316 0.011399 -0.005299 0.000000 0.000000 0.000000
# 3 -0.005828 -0.005299 0.013246 0.000000 0.000000 0.000000
# 4 0.000000 0.000000 0.000000 0.032815 0.000000 0.000000
# 5 0.000000 0.000000 0.000000 0.000000 0.074814 0.000000
# 6 0.000000 0.000000 0.000000 0.000000 0.000000 0.037009
#
#
# Mechanical properties :
#
#
# Convention : Reuss Voigt Hill
#
# Bulk Modulus (GPa) = 37.10631 70.90892 54.00762
# Shear Modulus (GPa) = 19.35410 24.78366 22.06888
#
# Velocity S-wave (km/s) = 3.36098 3.80331 3.58897
# Velocity P-wave (km/s) = 6.05962 7.78932 6.97827
#
# Compressibility (1/GPa) = 0.02694959
#
# Stress axis : x y z
#
# Youngs Moduli (GPa) = 24.27714 87.73043 75.49357
#
# Poissons Ratio (x) = 0.72957 0.44000
# Poissons Ratio (y) = 0.20189 0.40003
# Poissons Ratio (z) = 0.14149 0.46487
#
# Static dielectric constant tensor:
#      x y z
#    x 2.991530 0.000000 0.000000 
#    y 0.000000 3.396870 0.000000 
#    z 0.000000 0.000000 3.267400 
# 
# 
# High freq. dielectric constant tensor:
#      x y z
#    x 1.636410 0.000000 0.000000 
#    y 0.000000 1.673880 0.000000 
#    z 0.000000 0.000000 1.648780 
# 
# From -- ./inp_files/68464.got.cif
#   From: 2010.03.12/outbox.cif.g09.slc.cpg/sg65_35_cif.got.tgz:68464.got - 2010.04.10 20:52:16.
