data_PCOD8266946
_publ_section_title
;
Structure prediction by ZEFSAII (Michael W. Deem and Ramdas Pophale) SiO2 
 PCOD8266946
Probable space group: C M M M
;
_chemical_formula_sum "Si O2"
_cell_formula_units_Z 88
_cell_length_a 17.966574
_cell_length_b 16.206233
_cell_length_c 14.566012
_cell_angle_alpha 90.000000
_cell_angle_beta 90.000000
_cell_angle_gamma 90.000000
_cell_volume 4241.192771
_symmetry_space_group_name_H-M "C M M M"
_symmetry_group_IT_number 65
_symmetry_cell_setting 'orthorhombic'
loop_
_space_group_symop_operation_xyz
x,y,z
-x,-y,z
x,-y,-z
-x,y,-z
-x,-y,-z
x,y,-z
-x,y,z
x,-y,z
1/2+x,1/2+y,z
1/2-x,1/2-y,z
1/2+x,1/2-y,-z
1/2-x,1/2+y,-z
1/2-x,1/2-y,-z
1/2+x,1/2+y,-z
1/2-x,1/2+y,z
1/2+x,1/2-y,z
loop_
_atom_site_type_symbol
_atom_site_label
_atom_site_fract_x
_atom_site_fract_y
_atom_site_fract_z
Si Si1 0.139653 0.905285 0.287920
Si Si2 0.361370 0.097841 0.099170
Si Si3 0.083681 0.597006 0.291787
Si Si4 0.724075 0.843101 0.605490
Si Si5 0.500000 0.401081 0.603367
Si Si6 0.193710 0.901665 0.900111
O O1 0.218072 0.900110 0.340222
O O2 0.072659 0.863751 0.345311
O O3 0.145632 0.865584 0.185229
O O4 0.118288 0.000000 0.276718
O O5 0.409823 0.127667 0.185807
O O6 0.277543 0.131959 0.110828
O O7 0.359757 0.000000 0.097425
O O8 0.393473 0.129191 0.000000
O O9 0.101685 0.500000 0.299548
O O10 0.141161 0.646638 0.354951
O O11 0.000000 0.616133 0.325717
O O12 0.723904 0.870906 0.500000
O O13 0.750000 0.750000 0.617884
O O14 0.500000 0.500000 0.600754
O O15 0.500000 0.366127 0.500000
O O16 0.194887 0.000000 0.893732
O O17 0.161163 0.873977 0.000000
#
# Coordination Sequence:
#
# PCOD8266946 Si02
#       6
#    16  16  16  16   8  16
#     4  10  18  33  57  79 102 135 176 225 273 318
#     4   8  13  24  46  79 115 144 173 215 267 323
#     4  10  20  35  58  88 117 145 183 232 282 330
#     4  11  24  40  55  75 105 144 187 224 270 338
#     4   9  18  30  47  77 105 125 167 229 276 303
#     4   8  13  23  45  76 105 134 170 213 263 320
#
# _framework density 20.748881000000001
#
# number of rings (size 3 to 8) (size 9 to 14) (size 15 to 20)
#    0.000    2.636    1.818    2.182    0.000    2.909 
#    1.636    3.182    0.000    4.909    0.000    0.000 
#    0.000    0.000    0.000    0.000    0.000    0.000 
#
# Total GULP energy -545238.620168 kJ/mol
# GULP energy per Si atom -12391.786822 kJ/mol
# Density = 2.070166 g / cm^3
# Si number density = 20.748881 Si / 1000 Ang^3
#
#
#
# Elastic Constant Matrix: (Units=GPa)
#
#
# Indices 1 2 3 4 5 6 
#
# 1 133.8968 13.4845 84.7714 0.0000 0.0000 0.0000
# 2 13.4845 15.1422 16.5637 0.0000 0.0000 0.0000
# 3 84.7714 16.5637 191.9028 0.0000 0.0000 0.0000
# 4 0.0000 0.0000 0.0000 7.6321 0.0000 0.0000
# 5 0.0000 0.0000 0.0000 0.0000 31.5726 0.0000
# 6 0.0000 0.0000 0.0000 0.0000 0.0000 14.9507
#
#
#
# Elastic Compliance Matrix: (Units=1/GPa)
#
#
# Indices 1 2 3 4 5 6 
#
# 1 0.010675 -0.004801 -0.004301 0.000000 0.000000 0.000000
# 2 -0.004801 0.075085 -0.004360 0.000000 0.000000 0.000000
# 3 -0.004301 -0.004360 0.007487 0.000000 0.000000 0.000000
# 4 0.000000 0.000000 0.000000 0.131026 0.000000 0.000000
# 5 0.000000 0.000000 0.000000 0.000000 0.031673 0.000000
# 6 0.000000 0.000000 0.000000 0.000000 0.000000 0.066887
#
#
# Mechanical properties :
#
#
# Convention : Reuss Voigt Hill
#
# Bulk Modulus (GPa) = 15.07778 63.39790 39.23784
# Shear Modulus (GPa) = 13.44571 25.90589 19.67580
#
# Velocity S-wave (km/s) = 2.54839 3.53731 3.08276
# Velocity P-wave (km/s) = 3.99269 6.87783 5.62344
#
# Compressibility (1/GPa) = 0.06632278
#
# Stress axis : x y z
#
# Youngs Moduli (GPa) = 93.67563 13.31817 133.55927
#
# Poissons Ratio (x) = 0.06395 0.57447
# Poissons Ratio (y) = 0.44978 0.58230
# Poissons Ratio (z) = 0.40292 0.05807
#
# Static dielectric constant tensor:
#      x y z
#    x 3.710170 0.000000 0.000000 
#    y 0.000000 3.071960 0.000000 
#    z 0.000000 0.000000 4.354520 
# 
# 
# High freq. dielectric constant tensor:
#      x y z
#    x 1.794970 0.000000 0.000000 
#    y 0.000000 1.749440 0.000000 
#    z 0.000000 0.000000 1.834280 
# 
# From -- ./inp_files/42536.got.cif
#   From: 2010.03.12/outbox.cif.g09.slc.cpg/sg65_22_cif.got.tgz:42536.got - 2010.04.10 20:52:16.
