data_PCOD8266473
_publ_section_title
;
Structure prediction by ZEFSAII (Michael W. Deem and Ramdas Pophale) SiO2 
 PCOD8266473
Probable space group: C M M M
;
_chemical_formula_sum "Si O2"
_cell_formula_units_Z 64
_cell_length_a 18.126323
_cell_length_b 8.747269
_cell_length_c 20.678360
_cell_angle_alpha 90.000000
_cell_angle_beta 90.000000
_cell_angle_gamma 90.000000
_cell_volume 3278.674394
_symmetry_space_group_name_H-M "C M M M"
_symmetry_group_IT_number 65
_symmetry_cell_setting 'orthorhombic'
loop_
_space_group_symop_operation_xyz
x,y,z
-x,-y,z
x,-y,-z
-x,y,-z
-x,-y,-z
x,y,-z
-x,y,z
x,-y,z
1/2+x,1/2+y,z
1/2-x,1/2-y,z
1/2+x,1/2-y,-z
1/2-x,1/2+y,-z
1/2-x,1/2-y,-z
1/2+x,1/2+y,-z
1/2-x,1/2+y,z
1/2+x,1/2-y,z
loop_
_atom_site_type_symbol
_atom_site_label
_atom_site_fract_x
_atom_site_fract_y
_atom_site_fract_z
Si Si1 0.830260 0.679629 0.875195
Si Si2 0.170211 0.179130 0.370827
Si Si3 0.083042 0.682102 0.000000
Si Si4 0.331559 0.181581 0.500000
Si Si5 0.085563 0.823414 0.241188
O O1 0.821547 0.500000 0.880465
O O2 0.750000 0.750000 0.873796
O O3 0.873553 0.719123 0.810397
O O4 0.875021 0.744673 0.936722
O O5 0.250000 0.250000 0.355818
O O6 0.131424 0.255017 0.434155
O O7 0.116642 0.215598 0.311637
O O8 0.180243 0.000000 0.382962
O O9 0.080807 0.500000 0.000000
O O10 0.000000 0.748336 0.000000
O O11 0.250000 0.250000 0.500000
O O12 0.332012 0.000000 0.500000
O O13 0.000000 0.781031 0.240540
O O14 0.099410 0.000000 0.223685
#
# Coordination Sequence:
#
# PCOD8266473 Si02
#       5
#    16  16   8   8  16
#     4  11  22  37  59  84 112 147 186 229 274 323
#     4  10  19  33  54  78 106 140 178 221 270 324
#     4   9  19  36  57  83 114 147 184 225 272 326
#     4  10  18  30  51  78 107 137 175 223 269 318
#     4  10  22  39  57  80 111 145 183 228 277 330
#
# _framework density 19.520084000000001
#
# number of rings (size 3 to 8) (size 9 to 14) (size 15 to 20)
#    0.000    1.875    0.000    6.000    0.000    5.500 
#    0.000    2.500    0.000    8.250    0.000    0.000 
#    0.000    0.000    0.000    0.000    0.000    0.000 
#
# Total GULP energy -396850.109774 kJ/mol
# GULP energy per Si atom -12401.565930 kJ/mol
# Density = 1.947565 g / cm^3
# Si number density = 19.520084 Si / 1000 Ang^3
#
#
#
# Elastic Constant Matrix: (Units=GPa)
#
#
# Indices 1 2 3 4 5 6 
#
# 1 132.3974 40.6606 74.4699 0.0000 0.0000 0.0000
# 2 40.6606 92.6488 60.6252 0.0000 0.0000 0.0000
# 3 74.4699 60.6252 162.2540 0.0000 0.0000 0.0000
# 4 0.0000 0.0000 0.0000 67.3145 0.0000 0.0000
# 5 0.0000 0.0000 0.0000 0.0000 10.6797 0.0000
# 6 0.0000 0.0000 0.0000 0.0000 0.0000 1.0327
#
#
#
# Elastic Compliance Matrix: (Units=1/GPa)
#
#
# Indices 1 2 3 4 5 6 
#
# 1 0.010431 -0.001913 -0.004073 0.000000 0.000000 0.000000
# 2 -0.001913 0.014637 -0.004591 0.000000 0.000000 0.000000
# 3 -0.004073 -0.004591 0.009748 0.000000 0.000000 0.000000
# 4 0.000000 0.000000 0.000000 0.014856 0.000000 0.000000
# 5 0.000000 0.000000 0.000000 0.000000 0.093636 0.000000
# 6 0.000000 0.000000 0.000000 0.000000 0.000000 0.968360
#
#
# Mechanical properties :
#
#
# Convention : Reuss Voigt Hill
#
# Bulk Modulus (GPa) = 73.19228 82.09017 77.64123
# Shear Modulus (GPa) = 4.39608 29.90835 17.15221
#
# Velocity S-wave (km/s) = 1.50232 3.91856 2.96750
# Velocity P-wave (km/s) = 6.37076 7.91321 7.18351
#
# Compressibility (1/GPa) = 0.01366264
#
# Stress axis : x y z
#
# Youngs Moduli (GPa) = 95.86427 68.31921 102.58488
#
# Poissons Ratio (x) = 0.13068 0.41783
# Poissons Ratio (y) = 0.18337 0.47098
# Poissons Ratio (z) = 0.39046 0.31366
#
# Static dielectric constant tensor:
#      x y z
#    x 3.476870 0.000000 0.000000 
#    y 0.000000 3.493550 0.000000 
#    z 0.000000 0.000000 4.095490 
# 
# 
# High freq. dielectric constant tensor:
#      x y z
#    x 1.748370 0.000000 0.000000 
#    y 0.000000 1.756330 0.000000 
#    z 0.000000 0.000000 1.783960 
# 
# From -- ./inp_files/63243.got.cif
#   From: 2010.03.12/outbox.cif.g09.slc.cpg/sg65_32_cif.got.tgz:63243.got - 2010.04.10 20:52:16.
