data_PCOD8266739
_publ_section_title
;
Structure prediction by ZEFSAII (Michael W. Deem and Ramdas Pophale) SiO2 
 PCOD8266739
Probable space group: C M M M
;
_chemical_formula_sum "Si O2"
_cell_formula_units_Z 112
_cell_length_a 28.844522
_cell_length_b 14.176244
_cell_length_c 15.550664
_cell_angle_alpha 90.000000
_cell_angle_beta 90.000000
_cell_angle_gamma 90.000000
_cell_volume 6358.775083
_symmetry_space_group_name_H-M "C M M M"
_symmetry_group_IT_number 65
_symmetry_cell_setting 'orthorhombic'
loop_
_space_group_symop_operation_xyz
x,y,z
-x,-y,z
x,-y,-z
-x,y,-z
-x,-y,-z
x,y,-z
-x,y,z
x,-y,z
1/2+x,1/2+y,z
1/2-x,1/2-y,z
1/2+x,1/2-y,-z
1/2-x,1/2+y,-z
1/2-x,1/2-y,-z
1/2+x,1/2+y,-z
1/2-x,1/2+y,z
1/2+x,1/2-y,z
loop_
_atom_site_type_symbol
_atom_site_label
_atom_site_fract_x
_atom_site_fract_y
_atom_site_fract_z
Si Si1 0.302844 0.275933 0.593520
Si Si2 0.448315 0.207599 0.095478
Si Si3 0.202115 0.889515 0.762150
Si Si4 0.303624 0.104968 0.176673
Si Si5 0.858938 0.605622 0.350551
Si Si6 0.550010 0.889582 0.269221
Si Si7 0.850258 0.781778 0.096388
O O1 0.311068 0.325477 0.500000
O O2 0.250000 0.250000 0.604389
O O3 0.315844 0.342139 0.673569
O O4 0.332181 0.179116 0.590184
O O5 0.500000 0.254696 0.105371
O O6 0.440703 0.129740 0.168600
O O7 0.406228 0.281527 0.106188
O O8 0.444404 0.161029 0.000000
O O9 0.253639 0.858173 0.790314
O O10 0.167464 0.859742 0.837491
O O11 0.199743 0.000000 0.746500
O O12 0.336050 0.098302 0.258186
O O13 0.326116 0.179695 0.111428
O O14 0.299495 0.000000 0.134045
O O15 0.859340 0.500000 0.392568
O O16 0.910454 0.648607 0.333509
O O17 0.500000 0.847039 0.297327
O O18 0.550233 0.000000 0.279562
O O19 0.836661 0.812964 0.000000
#
# Coordination Sequence:
#
# PCOD8266739 Si02
#       7
#    16  16  16  16  16  16  16
#     4  11  21  34  54  78 102 131 169 207 251 306
#     4   9  17  28  43  66  96 127 162 209 259 302
#     4  11  22  37  53  71 102 135 170 216 259 297
#     4  10  19  32  50  72 102 140 170 200 244 294
#     4  10  18  32  51  73 105 137 165 200 245 296
#     4   9  16  26  44  69  97 133 172 203 236 288
#     4  11  21  34  53  74 100 136 176 213 253 298
#
# _framework density 17.613454999999998
#
# number of rings (size 3 to 8) (size 9 to 14) (size 15 to 20)
#    0.000    1.857    4.286    0.429    0.000    2.571 
#    0.000    5.714    0.000    0.857    0.000    4.000 
#    0.000    0.000    0.000    6.000    0.000    0.143 
#
# Total GULP energy -693809.534915 kJ/mol
# GULP energy per Si atom -12389.455981 kJ/mol
# Density = 1.757337 g / cm^3
# Si number density = 17.613455 Si / 1000 Ang^3
#
#
#
# Elastic Constant Matrix: (Units=GPa)
#
#
# Indices 1 2 3 4 5 6 
#
# 1 113.2663 32.0444 37.6331 0.0000 0.0000 0.0000
# 2 32.0444 56.3122 29.3530 0.0000 0.0000 0.0000
# 3 37.6331 29.3530 95.8288 0.0000 0.0000 0.0000
# 4 0.0000 0.0000 0.0000 11.0562 0.0000 0.0000
# 5 0.0000 0.0000 0.0000 0.0000 49.9660 0.0000
# 6 0.0000 0.0000 0.0000 0.0000 0.0000 17.1712
#
#
#
# Elastic Compliance Matrix: (Units=1/GPa)
#
#
# Indices 1 2 3 4 5 6 
#
# 1 0.011162 -0.004839 -0.002901 0.000000 0.000000 0.000000
# 2 -0.004839 0.023230 -0.005215 0.000000 0.000000 0.000000
# 3 -0.002901 -0.005215 0.013172 0.000000 0.000000 0.000000
# 4 0.000000 0.000000 0.000000 0.090447 0.000000 0.000000
# 5 0.000000 0.000000 0.000000 0.000000 0.020014 0.000000
# 6 0.000000 0.000000 0.000000 0.000000 0.000000 0.058237
#
#
# Mechanical properties :
#
#
# Convention : Reuss Voigt Hill
#
# Bulk Modulus (GPa) = 46.18295 51.49649 48.83972
# Shear Modulus (GPa) = 20.04889 26.73048 23.38968
#
# Velocity S-wave (km/s) = 3.37749 3.89989 3.64805
# Velocity P-wave (km/s) = 6.44105 7.04126 6.74783
#
# Compressibility (1/GPa) = 0.02165301
#
# Stress axis : x y z
#
# Youngs Moduli (GPa) = 89.59165 43.04703 75.91883
#
# Poissons Ratio (x) = 0.20832 0.22024
# Poissons Ratio (y) = 0.43357 0.39593
# Poissons Ratio (z) = 0.25991 0.22450
#
# Static dielectric constant tensor:
#      x y z
#    x 4.022230 0.000000 0.000000 
#    y 0.000000 3.105140 0.000000 
#    z 0.000000 0.000000 3.226390 
# 
# 
# High freq. dielectric constant tensor:
#      x y z
#    x 1.691140 0.000000 0.000000 
#    y 0.000000 1.641310 0.000000 
#    z 0.000000 0.000000 1.673050 
# 
# From -- ./inp_files/41055.got.cif
#   From: 2010.03.12/outbox.cif.g09.slc.cpg/sg65_21_cif.got.tgz:41055.got - 2010.04.10 20:52:16.
