data_PCOD8266954
_publ_section_title
;
Structure prediction by ZEFSAII (Michael W. Deem and Ramdas Pophale) SiO2 
 PCOD8266954
Probable space group: C M M M
;
_chemical_formula_sum "Si O2"
_cell_formula_units_Z 88
_cell_length_a 13.920273
_cell_length_b 18.786856
_cell_length_c 17.900090
_cell_angle_alpha 90.000000
_cell_angle_beta 90.000000
_cell_angle_gamma 90.000000
_cell_volume 4681.198678
_symmetry_space_group_name_H-M "C M M M"
_symmetry_group_IT_number 65
_symmetry_cell_setting 'orthorhombic'
loop_
_space_group_symop_operation_xyz
x,y,z
-x,-y,z
x,-y,-z
-x,y,-z
-x,-y,-z
x,y,-z
-x,y,z
x,-y,z
1/2+x,1/2+y,z
1/2-x,1/2-y,z
1/2+x,1/2-y,-z
1/2-x,1/2+y,-z
1/2-x,1/2-y,-z
1/2+x,1/2+y,-z
1/2-x,1/2+y,z
1/2+x,1/2-y,z
loop_
_atom_site_type_symbol
_atom_site_label
_atom_site_fract_x
_atom_site_fract_y
_atom_site_fract_z
Si Si1 0.888450 0.800263 0.725840
Si Si2 0.614697 0.414800 0.000000
Si Si3 0.276009 0.330457 0.871363
Si Si4 0.606590 0.080450 0.373960
Si Si5 0.782635 0.829799 0.580635
Si Si6 0.607810 0.855249 0.224066
O O1 0.840264 0.834493 0.797791
O O2 0.853005 0.840616 0.650966
O O3 0.863505 0.716026 0.728361
O O4 0.000000 0.814814 0.731499
O O5 0.666779 0.377796 0.069690
O O6 0.632321 0.500000 0.000000
O O7 0.500000 0.398418 0.000000
O O8 0.250000 0.250000 0.899512
O O9 0.174679 0.366798 0.848412
O O10 0.500000 0.111933 0.392884
O O11 0.687887 0.122428 0.416890
O O12 0.620565 0.081970 0.283826
O O13 0.613082 0.000000 0.401164
O O14 0.833260 0.846402 0.500000
O O15 0.750000 0.750000 0.582035
O O16 0.500000 0.849233 0.192411
#
# Coordination Sequence:
#
# PCOD8266954 Si02
#       6
#    16   8  16  16  16  16
#     4  10  18  33  57  84 113 147 190 240 287 336
#     4  11  25  42  59  87 125 157 190 237 286 338
#     4  10  19  37  62  87 114 150 195 237 283 339
#     4  10  20  35  55  80 113 151 189 233 290 352
#     4  11  21  34  52  79 113 150 195 243 288 336
#     4   9  17  32  57  87 116 144 183 234 285 341
#
# _framework density 18.798603
#
# number of rings (size 3 to 8) (size 9 to 14) (size 15 to 20)
#    0.000    1.909    3.636    1.364    0.000    2.545 
#    0.000    3.182    0.000    1.091    0.000    1.273 
#    0.000    0.000    0.000    0.000    0.000    0.000 
#
# Total GULP energy -545227.039628 kJ/mol
# GULP energy per Si atom -12391.523628 kJ/mol
# Density = 1.875582 g / cm^3
# Si number density = 18.798603 Si / 1000 Ang^3
#
#
#
# Elastic Constant Matrix: (Units=GPa)
#
#
# Indices 1 2 3 4 5 6 
#
# 1 112.5608 40.5390 64.0587 0.0000 0.0000 0.0000
# 2 40.5390 65.6779 38.6553 0.0000 0.0000 0.0000
# 3 64.0587 38.6553 134.2574 0.0000 0.0000 0.0000
# 4 0.0000 0.0000 0.0000 37.3356 0.0000 0.0000
# 5 0.0000 0.0000 0.0000 0.0000 17.4765 0.0000
# 6 0.0000 0.0000 0.0000 0.0000 0.0000 29.0104
#
#
#
# Elastic Compliance Matrix: (Units=1/GPa)
#
#
# Indices 1 2 3 4 5 6 
#
# 1 0.013690 -0.005545 -0.004935 0.000000 0.000000 0.000000
# 2 -0.005545 0.020579 -0.003279 0.000000 0.000000 0.000000
# 3 -0.004935 -0.003279 0.010747 0.000000 0.000000 0.000000
# 4 0.000000 0.000000 0.000000 0.026784 0.000000 0.000000
# 5 0.000000 0.000000 0.000000 0.000000 0.057220 0.000000
# 6 0.000000 0.000000 0.000000 0.000000 0.000000 0.034470
#
#
# Mechanical properties :
#
#
# Convention : Reuss Voigt Hill
#
# Bulk Modulus (GPa) = 57.15479 66.55579 61.85529
# Shear Modulus (GPa) = 25.40114 28.04736 26.72425
#
# Velocity S-wave (km/s) = 3.67989 3.86682 3.77451
# Velocity P-wave (km/s) = 6.96600 7.44432 7.20913
#
# Compressibility (1/GPa) = 0.01749635
#
# Stress axis : x y z
#
# Youngs Moduli (GPa) = 73.04631 48.59433 93.04638
#
# Poissons Ratio (x) = 0.26947 0.45922
# Poissons Ratio (y) = 0.40506 0.30511
# Poissons Ratio (z) = 0.36051 0.15935
#
# Static dielectric constant tensor:
#      x y z
#    x 4.324420 0.000000 0.000000 
#    y 0.000000 3.076750 0.000000 
#    z 0.000000 0.000000 3.597400 
# 
# 
# High freq. dielectric constant tensor:
#      x y z
#    x 1.738440 0.000000 0.000000 
#    y 0.000000 1.700260 0.000000 
#    z 0.000000 0.000000 1.725000 
# 
# From -- ./inp_files/52972.got.cif
#   From: 2010.03.12/outbox.cif.g09.slc.cpg/sg65_27_cif.got.tgz:52972.got - 2010.04.10 20:52:16.
