data_PCOD8266801
_publ_section_title
;
Structure prediction by ZEFSAII (Michael W. Deem and Ramdas Pophale) SiO2 
 PCOD8266801
Probable space group: C M M M
;
_chemical_formula_sum "Si O2"
_cell_formula_units_Z 80
_cell_length_a 8.801791
_cell_length_b 19.540270
_cell_length_c 25.605755
_cell_angle_alpha 90.000000
_cell_angle_beta 90.000000
_cell_angle_gamma 90.000000
_cell_volume 4403.917738
_symmetry_space_group_name_H-M "C M M M"
_symmetry_group_IT_number 65
_symmetry_cell_setting 'orthorhombic'
loop_
_space_group_symop_operation_xyz
x,y,z
-x,-y,z
x,-y,-z
-x,y,-z
-x,-y,-z
x,y,-z
-x,y,z
x,-y,z
1/2+x,1/2+y,z
1/2-x,1/2-y,z
1/2+x,1/2-y,-z
1/2-x,1/2+y,-z
1/2-x,1/2-y,-z
1/2+x,1/2+y,-z
1/2-x,1/2+y,z
1/2+x,1/2-y,z
loop_
_atom_site_type_symbol
_atom_site_label
_atom_site_fract_x
_atom_site_fract_y
_atom_site_fract_z
Si Si1 0.825485 0.579220 0.685879
Si Si2 0.677877 0.323946 0.887459
Si Si3 0.822418 0.823073 0.000000
Si Si4 0.679208 0.675624 0.604580
Si Si5 0.325128 0.077968 0.193930
Si Si6 0.681394 0.825451 0.500000
O O1 0.787302 0.500000 0.675299
O O2 0.712911 0.626041 0.652711
O O3 0.796626 0.597815 0.746079
O O4 0.000000 0.594589 0.670772
O O5 0.500000 0.312832 0.884470
O O6 0.750000 0.250000 0.878406
O O7 0.725463 0.357511 0.944418
O O8 0.724006 0.374789 0.842094
O O9 0.750000 0.750000 0.000000
O O10 0.000000 0.812770 0.000000
O O11 0.500000 0.683742 0.596602
O O12 0.750000 0.750000 0.615784
O O13 0.754200 0.640238 0.552946
O O14 0.500000 0.088723 0.179143
O O15 0.275970 0.000000 0.184219
O O16 0.500000 0.826150 0.500000
O O17 0.750000 0.750000 0.500000
#
# Coordination Sequence:
#
# PCOD8266801 Si02
#       6
#    16  16   8  16  16   8
#     4   9  19  37  57  75 100 135 171 209 257 307
#     4  10  19  32  52  76 102 132 168 210 253 301
#     4   8  16  30  47  70  99 131 165 203 251 300
#     4  11  21  34  54  80 108 136 171 212 252 298
#     4   9  19  36  55  74 100 134 170 209 254 304
#     4  10  18  32  53  76 105 138 171 207 253 303
#
# _framework density 18.165642999999999
#
# number of rings (size 3 to 8) (size 9 to 14) (size 15 to 20)
#    0.000    2.400    0.000    5.700    0.000    3.200 
#    0.000    3.000    0.000    6.000    0.000    0.000 
#    0.000    0.000    0.000    0.000    0.000    0.000 
#
# Total GULP energy -495713.670784 kJ/mol
# GULP energy per Si atom -12392.841770 kJ/mol
# Density = 1.812430 g / cm^3
# Si number density = 18.165643 Si / 1000 Ang^3
#
#
#
# Elastic Constant Matrix: (Units=GPa)
#
#
# Indices 1 2 3 4 5 6 
#
# 1 100.4353 37.8835 54.0304 0.0000 0.0000 0.0000
# 2 37.8835 64.4047 58.6323 0.0000 0.0000 0.0000
# 3 54.0304 58.6323 122.5864 0.0000 0.0000 0.0000
# 4 0.0000 0.0000 0.0000 -38.1014 0.0000 0.0000
# 5 0.0000 0.0000 0.0000 0.0000 29.4474 0.0000
# 6 0.0000 0.0000 0.0000 0.0000 0.0000 29.1169
#
#
#
# Elastic Compliance Matrix: (Units=1/GPa)
#
#
# Indices 1 2 3 4 5 6 
#
# 1 0.013768 -0.004559 -0.003888 0.000000 0.000000 0.000000
# 2 -0.004559 0.029012 -0.011867 0.000000 0.000000 0.000000
# 3 -0.003888 -0.011867 0.015547 0.000000 0.000000 0.000000
# 4 0.000000 0.000000 0.000000 -0.026246 0.000000 0.000000
# 5 0.000000 0.000000 0.000000 0.000000 0.033959 0.000000
# 6 0.000000 0.000000 0.000000 0.000000 0.000000 0.034344
#
#
# Mechanical properties :
#
#
# Convention : Reuss Voigt Hill
#
# Bulk Modulus (GPa) = 56.49930 65.39101 60.94515
# Shear Modulus (GPa) = 34.03451 13.21794 23.62622
#
# Velocity S-wave (km/s) = 4.33317 2.70040 3.61029
# Velocity P-wave (km/s) = 7.49699 6.76743 7.14153
#
# Compressibility (1/GPa) = 0.01769934
#
# Stress axis : x y z
#
# Youngs Moduli (GPa) = 72.63371 34.46897 64.32247
#
# Poissons Ratio (x) = 0.15715 0.25006
# Poissons Ratio (y) = 0.33115 0.76329
# Poissons Ratio (z) = 0.28237 0.40903
#
# Static dielectric constant tensor:
#      x y z
#    x 3.393240 0.000000 0.000000 
#    y 0.000000 3.021040 0.000000 
#    z 0.000000 0.000000 3.990600 
# 
# 
# High freq. dielectric constant tensor:
#      x y z
#    x 1.709480 0.000000 0.000000 
#    y 0.000000 1.671020 0.000000 
#    z 0.000000 0.000000 1.724760 
# 
# From -- ./inp_files/67301.got.cif
#   From: 2010.03.12/outbox.cif.g09.slc.cpg/sg65_34_cif.got.tgz:67301.got - 2010.04.10 20:52:16.
