data_PCOD8266185
_publ_section_title
;
Structure prediction by ZEFSAII (Michael W. Deem and Ramdas Pophale) SiO2 
 PCOD8266185
Probable space group: C M M M
;
_chemical_formula_sum "Si O2"
_cell_formula_units_Z 64
_cell_length_a 9.598122
_cell_length_b 38.777309
_cell_length_c 10.326918
_cell_angle_alpha 90.000000
_cell_angle_beta 90.000000
_cell_angle_gamma 90.000000
_cell_volume 3843.568822
_symmetry_space_group_name_H-M "C M M M"
_symmetry_group_IT_number 65
_symmetry_cell_setting 'orthorhombic'
loop_
_space_group_symop_operation_xyz
x,y,z
-x,-y,z
x,-y,-z
-x,y,-z
-x,-y,-z
x,y,-z
-x,y,z
x,-y,z
1/2+x,1/2+y,z
1/2-x,1/2-y,z
1/2+x,1/2-y,-z
1/2-x,1/2+y,-z
1/2-x,1/2-y,-z
1/2+x,1/2+y,-z
1/2-x,1/2+y,z
1/2+x,1/2-y,z
loop_
_atom_site_type_symbol
_atom_site_label
_atom_site_fract_x
_atom_site_fract_y
_atom_site_fract_z
Si Si1 0.156481 0.038007 0.153840
Si Si2 0.337936 0.899128 0.151929
Si Si3 0.335448 0.826728 0.752901
Si Si4 0.665594 0.215431 0.000000
Si Si5 0.333230 0.785789 0.500000
O O1 0.258094 0.067523 0.208012
O O2 0.000000 0.045714 0.202163
O O3 0.204160 0.000000 0.203297
O O4 0.161647 0.038358 0.000000
O O5 0.500000 0.905731 0.176416
O O6 0.281636 0.866062 0.232518
O O7 0.308794 0.892605 0.000000
O O8 0.500000 0.828111 0.755581
O O9 0.283480 0.808296 0.622595
O O10 0.282546 0.805065 0.874630
O O11 0.750000 0.250000 0.000000
O O12 0.500000 0.222188 0.000000
O O13 0.500000 0.778745 0.500000
O O14 0.250000 0.750000 0.500000
#
# Coordination Sequence:
#
# PCOD8266185 Si02
#       5
#    16  16  16   8   8
#     4   8  14  24  37  57  89 122 144 169 213 260
#     4   9  15  25  42  62  84 112 146 180 213 253
#     4   9  17  30  47  65  87 116 145 179 223 264
#     4  10  18  30  46  64  87 112 141 177 220 265
#     4  10  20  34  50  66  87 116 149 183 222 267
#
# _framework density 16.651192000000002
#
# number of rings (size 3 to 8) (size 9 to 14) (size 15 to 20)
#    0.000    3.000    1.250    1.500    0.000    0.500 
#    0.000    5.000    0.000    0.000    0.000    0.875 
#    0.000    7.000    0.000    0.000    0.000    0.000 
#
# Total GULP energy -396586.051677 kJ/mol
# GULP energy per Si atom -12393.314115 kJ/mol
# Density = 1.661329 g / cm^3
# Si number density = 16.651192 Si / 1000 Ang^3
#
#
#
# Elastic Constant Matrix: (Units=GPa)
#
#
# Indices 1 2 3 4 5 6 
#
# 1 50.8944 68.1614 25.4446 0.0000 0.0000 0.0000
# 2 68.1614 196.6228 62.8692 0.0000 0.0000 0.0000
# 3 25.4446 62.8692 89.2002 0.0000 0.0000 0.0000
# 4 0.0000 0.0000 0.0000 17.6030 0.0000 0.0000
# 5 0.0000 0.0000 0.0000 0.0000 5.6203 0.0000
# 6 0.0000 0.0000 0.0000 0.0000 0.0000 34.6909
#
#
#
# Elastic Compliance Matrix: (Units=1/GPa)
#
#
# Indices 1 2 3 4 5 6 
#
# 1 0.036938 -0.012181 -0.001951 0.000000 0.000000 0.000000
# 2 -0.012181 0.010582 -0.003984 0.000000 0.000000 0.000000
# 3 -0.001951 -0.003984 0.014575 0.000000 0.000000 0.000000
# 4 0.000000 0.000000 0.000000 0.056809 0.000000 0.000000
# 5 0.000000 0.000000 0.000000 0.000000 0.177926 0.000000
# 6 0.000000 0.000000 0.000000 0.000000 0.000000 0.028826
#
#
# Mechanical properties :
#
#
# Convention : Reuss Voigt Hill
#
# Bulk Modulus (GPa) = 38.66536 72.18530 55.42533
# Shear Modulus (GPa) = 13.49493 23.59899 18.54696
#
# Velocity S-wave (km/s) = 2.84993 3.76873 3.34106
# Velocity P-wave (km/s) = 5.83957 7.89831 6.94564
#
# Compressibility (1/GPa) = 0.02586294
#
# Stress axis : x y z
#
# Youngs Moduli (GPa) = 27.07266 94.49685 68.60938
#
# Poissons Ratio (x) = 1.15106 0.13388
# Poissons Ratio (y) = 0.32977 0.27333
# Poissons Ratio (z) = 0.05283 0.37647
#
# Static dielectric constant tensor:
#      x y z
#    x 2.947210 0.000000 0.000000 
#    y 0.000000 3.532390 0.000000 
#    z 0.000000 0.000000 2.487350 
# 
# 
# High freq. dielectric constant tensor:
#      x y z
#    x 1.614040 0.000000 0.000000 
#    y 0.000000 1.660390 0.000000 
#    z 0.000000 0.000000 1.601650 
# 
# From -- ./inp_files/4933.got.cif
#   From: 2010.03.12/outbox.cif.g09.slc.cpg/sg65_3_cif.got.tgz:4933.got - 2010.04.10 20:52:16.
