data_PCOD8266555
_publ_section_title
;
Structure prediction by ZEFSAII (Michael W. Deem and Ramdas Pophale) SiO2 
 PCOD8266555
Probable space group: C M M M
;
_chemical_formula_sum "Si O2"
_cell_formula_units_Z 104
_cell_length_a 9.179142
_cell_length_b 28.862640
_cell_length_c 21.832990
_cell_angle_alpha 90.000000
_cell_angle_beta 90.000000
_cell_angle_gamma 90.000000
_cell_volume 5784.307291
_symmetry_space_group_name_H-M "C M M M"
_symmetry_group_IT_number 65
_symmetry_cell_setting 'orthorhombic'
loop_
_space_group_symop_operation_xyz
x,y,z
-x,-y,z
x,-y,-z
-x,y,-z
-x,-y,-z
x,y,-z
-x,y,z
x,-y,z
1/2+x,1/2+y,z
1/2-x,1/2-y,z
1/2+x,1/2-y,-z
1/2-x,1/2+y,-z
1/2-x,1/2-y,-z
1/2+x,1/2+y,-z
1/2-x,1/2+y,z
1/2+x,1/2-y,z
loop_
_atom_site_type_symbol
_atom_site_label
_atom_site_fract_x
_atom_site_fract_y
_atom_site_fract_z
Si Si1 0.172257 0.201170 0.675771
Si Si2 0.827004 0.116955 0.893076
Si Si3 0.826391 0.948170 0.648896
Si Si4 0.172720 0.050971 0.000000
Si Si5 0.327503 0.615775 0.755626
Si Si6 0.161169 0.707722 0.928490
Si Si7 0.826944 0.135337 0.568033
O O1 0.250000 0.250000 0.685083
O O2 0.221441 0.166209 0.730203
O O3 0.222713 0.177689 0.611580
O O4 0.000000 0.209484 0.676542
O O5 0.774710 0.076011 0.937924
O O6 0.770268 0.107057 0.824332
O O7 0.753598 0.162440 0.918041
O O8 0.000000 0.123825 0.895140
O O9 0.768877 0.925819 0.712650
O O10 0.772744 0.914413 0.594167
O O11 0.000000 0.950648 0.649418
O O12 0.761013 0.000000 0.640784
O O13 0.000000 0.048418 0.000000
O O14 0.242594 0.000000 0.000000
O O15 0.500000 0.614458 0.753867
O O16 0.250000 0.750000 0.897702
O O17 0.000000 0.704124 0.898486
O O18 0.143236 0.716903 0.000000
O O19 0.761197 0.142568 0.500000
O O20 0.000000 0.134475 0.566069
#
# Coordination Sequence:
#
# PCOD8266555 Si02
#       7
#    16  16  16   8  16  16  16
#     4   9  17  30  45  62  88 120 153 185 221 264
#     4  10  18  31  50  69  94 125 156 191 232 276
#     4   8  13  22  37  59  88 120 152 184 223 273
#     4   9  18  30  46  71  96 117 148 191 232 271
#     4   8  16  28  42  62  88 119 151 186 227 268
#     4  10  20  33  50  71  95 120 149 184 228 280
#     4   8  14  24  38  59  88 119 149 184 225 266
#
# _framework density 17.979680999999999
#
# number of rings (size 3 to 8) (size 9 to 14) (size 15 to 20)
#    0.000    3.154    0.769    2.308    0.000    2.462 
#    0.000    6.923    0.000    0.923    0.000    0.000 
#    0.000   14.769    0.000    5.538    0.000    6.154 
#
# Total GULP energy -644380.833140 kJ/mol
# GULP energy per Si atom -12391.939099 kJ/mol
# Density = 1.793876 g / cm^3
# Si number density = 17.979681 Si / 1000 Ang^3
#
#
#
# Elastic Constant Matrix: (Units=GPa)
#
#
# Indices 1 2 3 4 5 6 
#
# 1 22.0536 18.7331 16.2555 0.0000 0.0000 0.0000
# 2 18.7331 143.7091 61.6323 0.0000 0.0000 0.0000
# 3 16.2555 61.6323 135.2808 0.0000 0.0000 0.0000
# 4 0.0000 0.0000 0.0000 19.5841 0.0000 0.0000
# 5 0.0000 0.0000 0.0000 0.0000 7.9244 0.0000
# 6 0.0000 0.0000 0.0000 0.0000 0.0000 17.4334
#
#
#
# Elastic Compliance Matrix: (Units=1/GPa)
#
#
# Indices 1 2 3 4 5 6 
#
# 1 0.052657 -0.005158 -0.003977 0.000000 0.000000 0.000000
# 2 -0.005158 0.009154 -0.003550 0.000000 0.000000 0.000000
# 3 -0.003977 -0.003550 0.009487 0.000000 0.000000 0.000000
# 4 0.000000 0.000000 0.000000 0.051062 0.000000 0.000000
# 5 0.000000 0.000000 0.000000 0.000000 0.126193 0.000000
# 6 0.000000 0.000000 0.000000 0.000000 0.000000 0.057361
#
#
# Mechanical properties :
#
#
# Convention : Reuss Voigt Hill
#
# Bulk Modulus (GPa) = 21.77403 54.92059 38.34731
# Shear Modulus (GPa) = 14.42604 22.61654 18.52129
#
# Velocity S-wave (km/s) = 2.83566 3.55053 3.21304
# Velocity P-wave (km/s) = 4.78099 6.88626 5.92784
#
# Compressibility (1/GPa) = 0.04592626
#
# Stress axis : x y z
#
# Youngs Moduli (GPa) = 18.99069 109.24680 105.40210
#
# Poissons Ratio (x) = 0.56354 0.41921
# Poissons Ratio (y) = 0.09796 0.37422
# Poissons Ratio (z) = 0.07553 0.38787
#
# Static dielectric constant tensor:
#      x y z
#    x 2.832190 0.000000 0.000000 
#    y 0.000000 3.559810 0.000000 
#    z 0.000000 0.000000 3.805860 
# 
# 
# High freq. dielectric constant tensor:
#      x y z
#    x 1.634210 0.000000 0.000000 
#    y 0.000000 1.702060 0.000000 
#    z 0.000000 0.000000 1.697330 
# 
# From -- ./inp_files/68583.got.cif
#   From: 2010.03.12/outbox.cif.g09.slc.cpg/sg65_35_cif.got.tgz:68583.got - 2010.04.10 20:52:16.
