data_PCOD8266831
_publ_section_title
;
Structure prediction by ZEFSAII (Michael W. Deem and Ramdas Pophale) SiO2 
 PCOD8266831
Probable space group: C M M M
;
_chemical_formula_sum "Si O2"
_cell_formula_units_Z 104
_cell_length_a 32.807394
_cell_length_b 18.686222
_cell_length_c 8.917609
_cell_angle_alpha 90.000000
_cell_angle_beta 90.000000
_cell_angle_gamma 90.000000
_cell_volume 5466.906734
_symmetry_space_group_name_H-M "C M M M"
_symmetry_group_IT_number 65
_symmetry_cell_setting 'orthorhombic'
loop_
_space_group_symop_operation_xyz
x,y,z
-x,-y,z
x,-y,-z
-x,y,-z
-x,-y,-z
x,y,-z
-x,y,z
x,-y,z
1/2+x,1/2+y,z
1/2-x,1/2-y,z
1/2+x,1/2-y,-z
1/2-x,1/2+y,-z
1/2-x,1/2-y,-z
1/2+x,1/2+y,-z
1/2-x,1/2+y,z
1/2+x,1/2-y,z
loop_
_atom_site_type_symbol
_atom_site_label
_atom_site_fract_x
_atom_site_fract_y
_atom_site_fract_z
Si Si1 0.739059 0.419272 0.321968
Si Si2 0.500000 0.580424 0.821777
Si Si3 0.116564 0.417461 0.826501
Si Si4 0.577419 0.670552 0.178097
Si Si5 0.662683 0.328294 0.322429
Si Si6 0.544659 0.820367 0.824289
Si Si7 0.685349 0.171190 0.323073
O O1 0.742707 0.421559 0.500000
O O2 0.743938 0.500000 0.256911
O O3 0.695417 0.387934 0.273572
O O4 0.774110 0.366718 0.256171
O O5 0.500000 0.500000 0.758137
O O6 0.459026 0.619411 0.764206
O O7 0.500000 0.581568 0.000000
O O8 0.118380 0.500000 0.786078
O O9 0.071166 0.390296 0.788163
O O10 0.147325 0.376978 0.719942
O O11 0.127417 0.402291 0.000000
O O12 0.620160 0.647444 0.249958
O O13 0.567256 0.750055 0.238042
O O14 0.581995 0.666992 0.000000
O O15 0.657051 0.324838 0.500000
O O16 0.678678 0.251444 0.260058
O O17 0.500000 0.829479 0.749688
O O18 0.539035 0.809225 0.000000
O O19 0.689441 0.175317 0.500000
#
# Coordination Sequence:
#
# PCOD8266831 Si02
#       7
#    16   8  16  16  16  16  16
#     4   9  18  33  52  73  99 133 170 206 247 299
#     4   9  18  32  53  81 106 132 173 218 253 294
#     4  10  20  32  49  76 106 132 163 208 255 295
#     4  10  18  32  54  75  99 134 169 203 248 301
#     4  10  20  33  52  78 103 128 166 214 255 295
#     4   9  16  29  50  72  96 130 169 202 238 291
#     4  10  19  33  54  76  99 132 171 207 246 299
#
# _framework density 19.023555000000002
#
# number of rings (size 3 to 8) (size 9 to 14) (size 15 to 20)
#    0.000    2.385    2.308    0.923    0.000    3.692 
#    0.000    2.692    0.000    4.615    0.000    1.077 
#    0.000    0.000    0.000    0.000    0.000    0.000 
#
# Total GULP energy -644681.335479 kJ/mol
# GULP energy per Si atom -12397.717990 kJ/mol
# Density = 1.898026 g / cm^3
# Si number density = 19.023555 Si / 1000 Ang^3
#
#
#
# Elastic Constant Matrix: (Units=GPa)
#
#
# Indices 1 2 3 4 5 6 
#
# 1 147.8546 49.9914 16.6974 0.0000 0.0000 0.0000
# 2 49.9914 116.9997 12.0573 0.0000 0.0000 0.0000
# 3 16.6974 12.0573 8.5108 0.0000 0.0000 0.0000
# 4 0.0000 0.0000 0.0000 16.6893 0.0000 0.0000
# 5 0.0000 0.0000 0.0000 0.0000 30.4694 0.0000
# 6 0.0000 0.0000 0.0000 0.0000 0.0000 33.4134
#
#
#
# Elastic Compliance Matrix: (Units=1/GPa)
#
#
# Indices 1 2 3 4 5 6 
#
# 1 0.009246 -0.002437 -0.014687 0.000000 0.000000 0.000000
# 2 -0.002437 0.010651 -0.010307 0.000000 0.000000 0.000000
# 3 -0.014687 -0.010307 0.160915 0.000000 0.000000 0.000000
# 4 0.000000 0.000000 0.000000 0.059919 0.000000 0.000000
# 5 0.000000 0.000000 0.000000 0.000000 0.032820 0.000000
# 6 0.000000 0.000000 0.000000 0.000000 0.000000 0.029928
#
#
# Mechanical properties :
#
#
# Convention : Reuss Voigt Hill
#
# Bulk Modulus (GPa) = 7.93979 47.87304 27.90641
# Shear Modulus (GPa) = 12.48990 29.08903 20.78947
#
# Velocity S-wave (km/s) = 2.56510 3.91462 3.30938
# Velocity P-wave (km/s) = 3.59941 6.75663 5.41331
#
# Compressibility (1/GPa) = 0.12594786
#
# Stress axis : x y z
#
# Youngs Moduli (GPa) = 108.15435 93.89185 6.21448
#
# Poissons Ratio (x) = 0.22882 0.09127
# Poissons Ratio (y) = 0.26358 0.06406
# Poissons Ratio (z) = 1.58849 0.96778
#
# Static dielectric constant tensor:
#      x y z
#    x 3.655890 0.000000 0.000000 
#    y 0.000000 3.704930 0.000000 
#    z 0.000000 0.000000 2.953280 
# 
# 
# High freq. dielectric constant tensor:
#      x y z
#    x 1.755720 0.000000 0.000000 
#    y 0.000000 1.746670 0.000000 
#    z 0.000000 0.000000 1.682560 
# 
# From -- ./inp_files/16471.got.cif
#   From: 2010.03.12/outbox.cif.g09.slc.cpg/sg65_9_cif.got.tgz:16471.got - 2010.04.10 20:52:16.
