data_PCOD8266135
_publ_section_title
;
Structure prediction by ZEFSAII (Michael W. Deem and Ramdas Pophale) SiO2 
 PCOD8266135
Probable space group: C M M M
;
_chemical_formula_sum "Si O2"
_cell_formula_units_Z 120
_cell_length_a 22.131151
_cell_length_b 18.147170
_cell_length_c 15.677494
_cell_angle_alpha 90.000000
_cell_angle_beta 90.000000
_cell_angle_gamma 90.000000
_cell_volume 6296.360015
_symmetry_space_group_name_H-M "C M M M"
_symmetry_group_IT_number 65
_symmetry_cell_setting 'orthorhombic'
loop_
_space_group_symop_operation_xyz
x,y,z
-x,-y,z
x,-y,-z
-x,y,-z
-x,-y,-z
x,y,-z
-x,y,z
x,-y,z
1/2+x,1/2+y,z
1/2-x,1/2-y,z
1/2+x,1/2-y,-z
1/2-x,1/2+y,-z
1/2-x,1/2-y,-z
1/2+x,1/2+y,-z
1/2-x,1/2+y,z
1/2+x,1/2-y,z
loop_
_atom_site_type_symbol
_atom_site_label
_atom_site_fract_x
_atom_site_fract_y
_atom_site_fract_z
Si Si1 0.738135 0.084972 0.404071
Si Si2 0.340313 0.413159 0.268036
Si Si3 0.781512 0.087032 0.906190
Si Si4 0.622305 0.857064 0.670169
Si Si5 0.500000 0.914214 0.593312
Si Si6 0.571320 0.289472 0.264249
Si Si7 0.350943 0.085677 0.853115
Si Si8 0.568718 0.213885 0.907249
O O1 0.763671 0.096312 0.500000
O O2 0.788716 0.109586 0.335835
O O3 0.676759 0.133190 0.397013
O O4 0.720823 0.000000 0.387813
O O5 0.354037 0.500000 0.273005
O O6 0.322078 0.385901 0.172907
O O7 0.401891 0.369242 0.289227
O O8 0.713423 0.111786 0.888562
O O9 0.784892 0.000000 0.907543
O O10 0.802123 0.117969 0.000000
O O11 0.559737 0.893479 0.643875
O O12 0.608145 0.770910 0.681867
O O13 0.646489 0.899179 0.752997
O O14 0.500000 0.875530 0.500000
O O15 0.500000 0.000000 0.580359
O O16 0.500000 0.288113 0.285460
O O17 0.585656 0.273083 0.164835
O O18 0.398728 0.135640 0.901426
O O19 0.363619 0.000000 0.872524
O O20 0.500000 0.191277 0.895366
O O21 0.581510 0.250018 0.000000
#
# Coordination Sequence:
#
# PCOD8266135 Si02
#       8
#    16  16  16  16   8  16  16  16
#     4  10  20  37  62  90 119 150 187 233 282 334
#     4  10  21  39  62  87 112 142 189 243 292 346
#     4   9  17  31  52  80 113 143 176 230 292 340
#     4  11  20  36  55  80 120 157 189 231 282 337
#     4  11  22  34  54  86 118 156 202 237 272 328
#     4  10  22  40  59  79 112 154 190 234 289 342
#     4  10  18  29  49  76 111 153 192 227 271 330
#     4   9  19  34  49  71 106 149 194 236 277 323
#
# _framework density 19.058630000000001
#
# number of rings (size 3 to 8) (size 9 to 14) (size 15 to 20)
#    0.000    2.067    2.000    2.000    0.933    3.467 
#    0.000    2.667    0.000    2.400    0.000    5.600 
#    0.000    0.000    0.000    0.000    0.000    0.000 
#
# Total GULP energy -743690.249584 kJ/mol
# GULP energy per Si atom -12394.837493 kJ/mol
# Density = 1.901525 g / cm^3
# Si number density = 19.058630 Si / 1000 Ang^3
#
#
#
# Elastic Constant Matrix: (Units=GPa)
#
#
# Indices 1 2 3 4 5 6 
#
# 1 82.5262 50.9508 31.3221 0.0000 0.0000 0.0000
# 2 50.9508 76.8135 21.6483 0.0000 0.0000 0.0000
# 3 31.3221 21.6483 101.5114 0.0000 0.0000 0.0000
# 4 0.0000 0.0000 0.0000 10.0500 0.0000 0.0000
# 5 0.0000 0.0000 0.0000 0.0000 15.9723 0.0000
# 6 0.0000 0.0000 0.0000 0.0000 0.0000 33.7722
#
#
#
# Elastic Compliance Matrix: (Units=1/GPa)
#
#
# Indices 1 2 3 4 5 6 
#
# 1 0.021875 -0.013414 -0.003889 0.000000 0.000000 0.000000
# 2 -0.013414 0.022076 -0.000569 0.000000 0.000000 0.000000
# 3 -0.003889 -0.000569 0.011172 0.000000 0.000000 0.000000
# 4 0.000000 0.000000 0.000000 0.099502 0.000000 0.000000
# 5 0.000000 0.000000 0.000000 0.000000 0.062609 0.000000
# 6 0.000000 0.000000 0.000000 0.000000 0.000000 0.029610
#
#
# Mechanical properties :
#
#
# Convention : Reuss Voigt Hill
#
# Bulk Modulus (GPa) = 51.59962 52.07705 51.83834
# Shear Modulus (GPa) = 17.29816 22.42089 19.85952
#
# Velocity S-wave (km/s) = 3.01596 3.43361 3.23154
# Velocity P-wave (km/s) = 6.26585 6.56533 6.41734
#
# Compressibility (1/GPa) = 0.01937999
#
# Stress axis : x y z
#
# Youngs Moduli (GPa) = 45.71455 45.29748 89.50569
#
# Poissons Ratio (x) = 0.60761 0.34809
# Poissons Ratio (y) = 0.61320 0.05094
# Poissons Ratio (z) = 0.17779 0.02578
#
# Static dielectric constant tensor:
#      x y z
#    x 3.365350 0.000000 0.000000 
#    y 0.000000 3.166960 0.000000 
#    z 0.000000 0.000000 3.899990 
# 
# 
# High freq. dielectric constant tensor:
#      x y z
#    x 1.734310 0.000000 0.000000 
#    y 0.000000 1.715200 0.000000 
#    z 0.000000 0.000000 1.750800 
# 
# From -- ./inp_files/54967.got.cif
#   From: 2010.03.12/outbox.cif.g09.slc.cpg/sg65_28_cif.got.tgz:54967.got - 2010.04.10 20:52:16.
