data_PCOD8266816
_publ_section_title
;
Structure prediction by ZEFSAII (Michael W. Deem and Ramdas Pophale) SiO2 
 PCOD8266816
Probable space group: C M M M
;
_chemical_formula_sum "Si O2"
_cell_formula_units_Z 72
_cell_length_a 19.495174
_cell_length_b 8.639074
_cell_length_c 22.695920
_cell_angle_alpha 90.000000
_cell_angle_beta 90.000000
_cell_angle_gamma 90.000000
_cell_volume 3822.452539
_symmetry_space_group_name_H-M "C M M M"
_symmetry_group_IT_number 65
_symmetry_cell_setting 'orthorhombic'
loop_
_space_group_symop_operation_xyz
x,y,z
-x,-y,z
x,-y,-z
-x,y,-z
-x,-y,-z
x,y,-z
-x,y,z
x,-y,z
1/2+x,1/2+y,z
1/2-x,1/2-y,z
1/2+x,1/2-y,-z
1/2-x,1/2+y,-z
1/2-x,1/2-y,-z
1/2+x,1/2+y,-z
1/2-x,1/2+y,z
1/2+x,1/2-y,z
loop_
_atom_site_type_symbol
_atom_site_label
_atom_site_fract_x
_atom_site_fract_y
_atom_site_fract_z
Si Si1 0.174816 0.181586 0.119213
Si Si2 0.420596 0.677818 0.338846
Si Si3 0.420306 0.820444 0.216142
Si Si4 0.825979 0.683384 0.000000
Si Si5 0.677882 0.180861 0.431694
O O1 0.250000 0.250000 0.131980
O O2 0.124590 0.217473 0.172720
O O3 0.139716 0.253650 0.060108
O O4 0.182790 0.000000 0.110677
O O5 0.500000 0.701751 0.352976
O O6 0.402880 0.500000 0.325577
O O7 0.398323 0.778278 0.282426
O O8 0.381659 0.735786 0.396184
O O9 0.500000 0.779683 0.205869
O O10 0.405070 0.000000 0.204689
O O11 0.750000 0.750000 0.000000
O O12 0.827361 0.500000 0.000000
O O13 0.664826 0.217528 0.500000
O O14 0.750000 0.250000 0.410670
O O15 0.677275 0.000000 0.418286
#
# Coordination Sequence:
#
# PCOD8266816 Si02
#       5
#    16  16  16   8  16
#     4  11  21  35  56  82 111 142 181 224 268 319
#     4  10  21  37  57  81 109 142 180 221 266 318
#     4  10  21  38  58  80 109 143 179 222 272 322
#     4  10  18  32  53  78 109 142 179 221 269 319
#     4  10  21  37  57  81 110 143 179 221 269 319
#
# _framework density 18.836074
#
# number of rings (size 3 to 8) (size 9 to 14) (size 15 to 20)
#    0.000    1.778    0.000    6.333    0.000    5.333 
#    0.000    7.222    0.000    3.333    0.000    0.000 
#    0.000    0.000    0.000    0.000    0.000    0.000 
#
# Total GULP energy -446512.803612 kJ/mol
# GULP energy per Si atom -12403.133434 kJ/mol
# Density = 1.879320 g / cm^3
# Si number density = 18.836074 Si / 1000 Ang^3
#
#
#
# Elastic Constant Matrix: (Units=GPa)
#
#
# Indices 1 2 3 4 5 6 
#
# 1 67.9367 44.9601 58.5946 0.0000 0.0000 0.0000
# 2 44.9601 125.9429 43.5865 0.0000 0.0000 0.0000
# 3 58.5946 43.5865 102.3612 0.0000 0.0000 0.0000
# 4 0.0000 0.0000 0.0000 38.8050 0.0000 0.0000
# 5 0.0000 0.0000 0.0000 0.0000 8.1678 0.0000
# 6 0.0000 0.0000 0.0000 0.0000 0.0000 31.1227
#
#
#
# Elastic Compliance Matrix: (Units=1/GPa)
#
#
# Indices 1 2 3 4 5 6 
#
# 1 0.032609 -0.006076 -0.016079 0.000000 0.000000 0.000000
# 2 -0.006076 0.010445 -0.000969 0.000000 0.000000 0.000000
# 3 -0.016079 -0.000969 0.019386 0.000000 0.000000 0.000000
# 4 0.000000 0.000000 0.000000 0.025770 0.000000 0.000000
# 5 0.000000 0.000000 0.000000 0.000000 0.122431 0.000000
# 6 0.000000 0.000000 0.000000 0.000000 0.000000 0.032131
#
#
# Mechanical properties :
#
#
# Convention : Reuss Voigt Hill
#
# Bulk Modulus (GPa) = 61.76384 65.61371 63.68878
# Shear Modulus (GPa) = 16.98272 25.55909 21.27091
#
# Velocity S-wave (km/s) = 3.00593 3.68764 3.36410
# Velocity P-wave (km/s) = 6.70141 7.28294 6.99822
#
# Compressibility (1/GPa) = 0.01619070
#
# Stress axis : x y z
#
# Youngs Moduli (GPa) = 30.66672 95.74226 51.58355
#
# Poissons Ratio (x) = 0.58176 0.82940
# Poissons Ratio (y) = 0.18634 0.04999
# Poissons Ratio (z) = 0.49308 0.09279
#
# Static dielectric constant tensor:
#      x y z
#    x 3.272810 0.000000 0.000000 
#    y 0.000000 3.610350 0.000000 
#    z 0.000000 0.000000 3.751860 
# 
# 
# High freq. dielectric constant tensor:
#      x y z
#    x 1.712920 0.000000 0.000000 
#    y 0.000000 1.752580 0.000000 
#    z 0.000000 0.000000 1.743000 
# 
# From -- ./inp_files/59285.got.cif
#   From: 2010.03.12/outbox.cif.g09.slc.cpg/sg65_30_cif.got.tgz:59285.got - 2010.04.10 20:52:16.
