data_PCOD8266251
_publ_section_title
;
Structure prediction by ZEFSAII (Michael W. Deem and Ramdas Pophale) SiO2 
 PCOD8266251
Probable space group: C M M M
;
_chemical_formula_sum "Si O2"
_cell_formula_units_Z 72
_cell_length_a 33.805824
_cell_length_b 8.819153
_cell_length_c 15.533294
_cell_angle_alpha 90.000000
_cell_angle_beta 90.000000
_cell_angle_gamma 90.000000
_cell_volume 4631.076610
_symmetry_space_group_name_H-M "C M M M"
_symmetry_group_IT_number 65
_symmetry_cell_setting 'orthorhombic'
loop_
_space_group_symop_operation_xyz
x,y,z
-x,-y,z
x,-y,-z
-x,y,-z
-x,-y,-z
x,y,-z
-x,y,z
x,-y,z
1/2+x,1/2+y,z
1/2-x,1/2-y,z
1/2+x,1/2-y,-z
1/2-x,1/2+y,-z
1/2-x,1/2-y,-z
1/2+x,1/2+y,-z
1/2-x,1/2+y,z
1/2+x,1/2-y,z
loop_
_atom_site_type_symbol
_atom_site_label
_atom_site_fract_x
_atom_site_fract_y
_atom_site_fract_z
Si Si1 0.579893 0.321397 0.098510
Si Si2 0.793601 0.180992 0.500000
Si Si3 0.000000 0.329148 0.102275
Si Si4 0.207176 0.678908 0.328127
Si Si5 0.707343 0.821173 0.000000
Si Si6 0.156763 0.322619 0.161490
O O1 0.576874 0.500000 0.103597
O O2 0.539235 0.253950 0.136585
O O3 0.615220 0.263662 0.158627
O O4 0.587047 0.266766 0.000000
O O5 0.750000 0.250000 0.500000
O O6 0.813353 0.245730 0.412691
O O7 0.793710 0.000000 0.500000
O O8 0.000000 0.500000 0.137271
O O9 0.000000 0.322447 0.000000
O O10 0.212486 0.500000 0.341754
O O11 0.250000 0.750000 0.308464
O O12 0.178168 0.717847 0.250184
O O13 0.750000 0.750000 0.000000
O O14 0.684199 0.763702 0.916002
O O15 0.712273 0.000000 0.000000
O O16 0.148330 0.500000 0.152023
#
# Coordination Sequence:
#
# PCOD8266251 Si02
#       6
#    16   8   8  16   8  16
#     4  10  19  30  45  66  90 117 151 191 228 265
#     4  10  18  30  48  66  86 113 144 187 236 282
#     4   9  17  29  47  65  85 116 149 184 227 275
#     4  10  19  31  47  67  89 117 152 192 233 275
#     4  10  20  32  44  59  84 119 158 192 221 260
#     4  10  20  32  46  63  89 122 155 189 226 269
#
# _framework density 15.547141
#
# number of rings (size 3 to 8) (size 9 to 14) (size 15 to 20)
#    0.000    2.111    1.111    4.667    0.000    4.889 
#    0.000    0.000    0.000    0.000    0.000    0.000 
#    0.000    0.889    0.000    9.333    0.000    4.444 
#
# Total GULP energy -446404.280687 kJ/mol
# GULP energy per Si atom -12400.118908 kJ/mol
# Density = 1.551176 g / cm^3
# Si number density = 15.547141 Si / 1000 Ang^3
#
#
#
# Elastic Constant Matrix: (Units=GPa)
#
#
# Indices 1 2 3 4 5 6 
#
# 1 122.5644 51.6567 53.4947 0.0000 0.0000 0.0000
# 2 51.6567 84.1944 49.0888 0.0000 0.0000 0.0000
# 3 53.4947 49.0888 107.2187 0.0000 0.0000 0.0000
# 4 0.0000 0.0000 0.0000 19.8928 0.0000 0.0000
# 5 0.0000 0.0000 0.0000 0.0000 9.0433 0.0000
# 6 0.0000 0.0000 0.0000 0.0000 0.0000 30.1426
#
#
#
# Elastic Compliance Matrix: (Units=1/GPa)
#
#
# Indices 1 2 3 4 5 6 
#
# 1 0.011916 -0.005245 -0.003544 0.000000 0.000000 0.000000
# 2 -0.005245 0.018511 -0.005858 0.000000 0.000000 0.000000
# 3 -0.003544 -0.005858 0.013777 0.000000 0.000000 0.000000
# 4 0.000000 0.000000 0.000000 0.050269 0.000000 0.000000
# 5 0.000000 0.000000 0.000000 0.000000 0.110579 0.000000
# 6 0.000000 0.000000 0.000000 0.000000 0.000000 0.033176
#
#
# Mechanical properties :
#
#
# Convention : Reuss Voigt Hill
#
# Bulk Modulus (GPa) = 67.06907 69.16199 68.11553
# Shear Modulus (GPa) = 18.34915 22.46490 20.40702
#
# Velocity S-wave (km/s) = 3.43917 3.80538 3.62690
# Velocity P-wave (km/s) = 7.68136 7.99311 7.83879
#
# Compressibility (1/GPa) = 0.01491000
#
# Stress axis : x y z
#
# Youngs Moduli (GPa) = 83.91813 54.02289 72.58420
#
# Poissons Ratio (x) = 0.28334 0.25725
# Poissons Ratio (y) = 0.44013 0.42521
# Poissons Ratio (z) = 0.29742 0.31647
#
# Static dielectric constant tensor:
#      x y z
#    x 2.892810 0.000000 0.000000 
#    y 0.000000 3.027620 0.000000 
#    z 0.000000 0.000000 3.180420 
# 
# 
# High freq. dielectric constant tensor:
#      x y z
#    x 1.580200 0.000000 0.000000 
#    y 0.000000 1.610090 0.000000 
#    z 0.000000 0.000000 1.572660 
# 
# From -- ./inp_files/47491.got.cif
#   From: 2010.03.12/outbox.cif.g09.slc.cpg/sg65_24_cif.got.tgz:47491.got - 2010.04.10 20:52:16.
