data_PCOD8266752
_publ_section_title
;
Structure prediction by ZEFSAII (Michael W. Deem and Ramdas Pophale) SiO2 
 PCOD8266752
Probable space group: C M M M
;
_chemical_formula_sum "Si O2"
_cell_formula_units_Z 64
_cell_length_a 35.581157
_cell_length_b 8.723389
_cell_length_c 12.417120
_cell_angle_alpha 90.000000
_cell_angle_beta 90.000000
_cell_angle_gamma 90.000000
_cell_volume 3854.128440
_symmetry_space_group_name_H-M "C M M M"
_symmetry_group_IT_number 65
_symmetry_cell_setting 'orthorhombic'
loop_
_space_group_symop_operation_xyz
x,y,z
-x,-y,z
x,-y,-z
-x,y,-z
-x,-y,-z
x,y,-z
-x,y,z
x,-y,z
1/2+x,1/2+y,z
1/2-x,1/2-y,z
1/2+x,1/2-y,-z
1/2-x,1/2+y,-z
1/2-x,1/2-y,-z
1/2+x,1/2+y,-z
1/2-x,1/2+y,z
1/2+x,1/2-y,z
loop_
_atom_site_type_symbol
_atom_site_label
_atom_site_fract_x
_atom_site_fract_y
_atom_site_fract_z
Si Si1 0.000000 0.327223 0.871456
Si Si2 0.151833 0.676315 0.873287
Si Si3 0.709008 0.680655 0.283433
Si Si4 0.424628 0.328084 0.872019
Si Si5 0.208402 0.682394 0.500000
O O1 0.962995 0.243647 0.825340
O O2 0.000000 0.500000 0.828195
O O3 0.000000 0.323997 0.000000
O O4 0.157891 0.500000 0.841550
O O5 0.183142 0.780686 0.817906
O O6 0.110646 0.727518 0.833048
O O7 0.156018 0.703048 0.000000
O O8 0.712866 0.500000 0.297967
O O9 0.750000 0.750000 0.262106
O O10 0.689471 0.753587 0.390616
O O11 0.420176 0.500000 0.826985
O O12 0.426676 0.328910 0.000000
O O13 0.208119 0.500000 0.500000
O O14 0.250000 0.750000 0.500000
#
# Coordination Sequence:
#
# PCOD8266752 Si02
#       5
#     8  16  16  16   8
#     4   9  15  23  37  57  81 112 149 186 223 265
#     4  10  20  33  47  65  92 125 158 191 229 274
#     4  11  21  34  51  70  92 119 153 191 232 275
#     4   9  16  26  40  59  84 115 150 187 226 268
#     4  10  18  32  52  72  92 113 144 187 234 276
#
# _framework density 16.60557
#
# number of rings (size 3 to 8) (size 9 to 14) (size 15 to 20)
#    0.000    2.125    0.000    6.750    0.000    6.500 
#    0.000    0.000    0.000    0.000    0.000    0.000 
#    0.000    1.000    0.000   10.000    0.000    9.000 
#
# Total GULP energy -396765.120783 kJ/mol
# GULP energy per Si atom -12398.910024 kJ/mol
# Density = 1.656778 g / cm^3
# Si number density = 16.605570 Si / 1000 Ang^3
#
#
#
# Elastic Constant Matrix: (Units=GPa)
#
#
# Indices 1 2 3 4 5 6 
#
# 1 101.4957 44.2206 35.4971 0.0000 0.0000 0.0000
# 2 44.2206 143.7802 33.8140 0.0000 0.0000 0.0000
# 3 35.4971 33.8140 41.6529 0.0000 0.0000 0.0000
# 4 0.0000 0.0000 0.0000 22.2732 0.0000 0.0000
# 5 0.0000 0.0000 0.0000 0.0000 0.8465 0.0000
# 6 0.0000 0.0000 0.0000 0.0000 0.0000 32.6995
#
#
#
# Elastic Compliance Matrix: (Units=1/GPa)
#
#
# Indices 1 2 3 4 5 6 
#
# 1 0.014450 -0.001913 -0.010761 0.000000 0.000000 0.000000
# 2 -0.001913 0.008850 -0.005554 0.000000 0.000000 0.000000
# 3 -0.010761 -0.005554 0.037687 0.000000 0.000000 0.000000
# 4 0.000000 0.000000 0.000000 0.044897 0.000000 0.000000
# 5 0.000000 0.000000 0.000000 0.000000 1.181283 0.000000
# 6 0.000000 0.000000 0.000000 0.000000 0.000000 0.030582
#
#
# Mechanical properties :
#
#
# Convention : Reuss Voigt Hill
#
# Bulk Modulus (GPa) = 40.76555 57.11026 48.93791
# Shear Modulus (GPa) = 3.67005 22.72365 13.19685
#
# Velocity S-wave (km/s) = 1.48826 3.70325 2.82214
# Velocity P-wave (km/s) = 5.24937 7.26308 6.33672
#
# Compressibility (1/GPa) = 0.02453052
#
# Stress axis : x y z
#
# Youngs Moduli (GPa) = 69.20497 112.99935 26.53439
#
# Poissons Ratio (x) = 0.21621 0.28554
# Poissons Ratio (y) = 0.13242 0.14736
# Poissons Ratio (z) = 0.74472 0.62755
#
# Static dielectric constant tensor:
#      x y z
#    x 3.124200 0.000000 0.000000 
#    y 0.000000 3.325840 0.000000 
#    z 0.000000 0.000000 3.045650 
# 
# 
# High freq. dielectric constant tensor:
#      x y z
#    x 1.632170 0.000000 0.000000 
#    y 0.000000 1.664630 0.000000 
#    z 0.000000 0.000000 1.587470 
# 
# From -- ./inp_files/20992.got.cif
#   From: 2010.03.12/outbox.cif.g09.slc.cpg/sg65_11_cif.got.tgz:20992.got - 2010.04.10 20:52:16.
