data_PCOD8266305
_publ_section_title
;
Structure prediction by ZEFSAII (Michael W. Deem and Ramdas Pophale) SiO2 
 PCOD8266305
Probable space group: C M M M
;
_chemical_formula_sum "Si O2"
_cell_formula_units_Z 72
_cell_length_a 23.936599
_cell_length_b 18.145570
_cell_length_c 8.801208
_cell_angle_alpha 90.000000
_cell_angle_beta 90.000000
_cell_angle_gamma 90.000000
_cell_volume 3822.745135
_symmetry_space_group_name_H-M "C M M M"
_symmetry_group_IT_number 65
_symmetry_cell_setting 'orthorhombic'
loop_
_space_group_symop_operation_xyz
x,y,z
-x,-y,z
x,-y,-z
-x,y,-z
-x,-y,-z
x,y,-z
-x,y,z
x,-y,z
1/2+x,1/2+y,z
1/2-x,1/2-y,z
1/2+x,1/2-y,-z
1/2-x,1/2+y,-z
1/2-x,1/2-y,-z
1/2+x,1/2+y,-z
1/2-x,1/2+y,z
1/2+x,1/2-y,z
loop_
_atom_site_type_symbol
_atom_site_label
_atom_site_fract_x
_atom_site_fract_y
_atom_site_fract_z
Si Si1 0.563156 0.711010 0.681307
Si Si2 0.934027 0.500000 0.828118
Si Si3 0.235257 0.582218 0.680141
Si Si4 0.641496 0.582837 0.680934
Si Si5 0.879456 0.359338 0.680513
O O1 0.563311 0.710695 0.500000
O O2 0.500000 0.708924 0.744114
O O3 0.595943 0.639773 0.746372
O O4 0.593990 0.783918 0.743506
O O5 0.913505 0.427491 0.743927
O O6 0.000000 0.500000 0.822878
O O7 0.911486 0.500000 0.000000
O O8 0.237097 0.580413 0.500000
O O9 0.221709 0.500000 0.740820
O O10 0.296544 0.607154 0.739140
O O11 0.185588 0.636433 0.734658
O O12 0.640195 0.584493 0.500000
O O13 0.627517 0.500000 0.738173
O O14 0.883586 0.362467 0.500000
#
# Coordination Sequence:
#
# PCOD8266305 Si02
#       5
#    16   8  16  16  16
#     4   9  17  26  37  60  92 125 161 193 227 277
#     4  11  23  35  47  67  95 127 162 191 224 278
#     4   8  13  23  40  63  88 113 150 192 230 272
#     4   8  14  24  38  59  92 125 151 190 238 278
#     4  10  18  30  49  69  93 124 157 196 233 269
#
# _framework density 18.834631999999999
#
# number of rings (size 3 to 8) (size 9 to 14) (size 15 to 20)
#    0.000    3.000    1.111    2.333    0.000    3.111 
#    0.000    6.667    0.000    0.000    0.000    3.111 
#    0.000    0.000    0.000    4.667    0.000    4.444 
#
# Total GULP energy -446112.443727 kJ/mol
# GULP energy per Si atom -12392.012326 kJ/mol
# Density = 1.879176 g / cm^3
# Si number density = 18.834632 Si / 1000 Ang^3
#
#
#
# Elastic Constant Matrix: (Units=GPa)
#
#
# Indices 1 2 3 4 5 6 
#
# 1 180.7049 109.4811 8.8064 0.0000 0.0000 0.0000
# 2 109.4811 160.9023 10.5803 0.0000 0.0000 0.0000
# 3 8.8064 10.5803 8.1262 0.0000 0.0000 0.0000
# 4 0.0000 0.0000 0.0000 0.0942 0.0000 0.0000
# 5 0.0000 0.0000 0.0000 0.0000 5.3214 0.0000
# 6 0.0000 0.0000 0.0000 0.0000 0.0000 29.9005
#
#
#
# Elastic Compliance Matrix: (Units=1/GPa)
#
#
# Indices 1 2 3 4 5 6 
#
# 1 0.009446 -0.006293 -0.002043 0.000000 0.000000 0.000000
# 2 -0.006293 0.010989 -0.007488 0.000000 0.000000 0.000000
# 3 -0.002043 -0.007488 0.135022 0.000000 0.000000 0.000000
# 4 0.000000 0.000000 0.000000 10.619697 0.000000 0.000000
# 5 0.000000 0.000000 0.000000 0.000000 0.187922 0.000000
# 6 0.000000 0.000000 0.000000 0.000000 0.000000 0.033444
#
#
# Mechanical properties :
#
#
# Convention : Reuss Voigt Hill
#
# Bulk Modulus (GPa) = 8.07698 67.49655 37.78676
# Shear Modulus (GPa) = 0.45169 21.78758 11.11964
#
# Velocity S-wave (km/s) = 0.49025 3.40484 2.43241
# Velocity P-wave (km/s) = 2.14898 7.16739 5.29101
#
# Compressibility (1/GPa) = 0.12380868
#
# Stress axis : x y z
#
# Youngs Moduli (GPa) = 105.86406 90.99846 7.40618
#
# Poissons Ratio (x) = 0.57265 0.01513
# Poissons Ratio (y) = 0.66620 0.05546
# Poissons Ratio (z) = 0.21631 0.68142
#
# Static dielectric constant tensor:
#      x y z
#    x 3.950750 0.000000 0.000000 
#    y 0.000000 3.644880 0.000000 
#    z 0.000000 0.000000 2.734540 
# 
# 
# High freq. dielectric constant tensor:
#      x y z
#    x 1.750630 0.000000 0.000000 
#    y 0.000000 1.730670 0.000000 
#    z 0.000000 0.000000 1.649680 
# 
# From -- ./inp_files/9269.got.cif
#   From: 2010.03.12/outbox.cif.g09.slc.cpg/sg65_5_cif.got.tgz:9269.got - 2010.04.10 20:52:16.
