data_PCOD8266654
_publ_section_title
;
Structure prediction by ZEFSAII (Michael W. Deem and Ramdas Pophale) SiO2 
 PCOD8266654
Probable space group: C M M M
;
_chemical_formula_sum "Si O2"
_cell_formula_units_Z 80
_cell_length_a 18.498683
_cell_length_b 21.545886
_cell_length_c 10.503733
_cell_angle_alpha 90.000000
_cell_angle_beta 90.000000
_cell_angle_gamma 90.000000
_cell_volume 4186.478272
_symmetry_space_group_name_H-M "C M M M"
_symmetry_group_IT_number 65
_symmetry_cell_setting 'orthorhombic'
loop_
_space_group_symop_operation_xyz
x,y,z
-x,-y,z
x,-y,-z
-x,y,-z
-x,-y,-z
x,y,-z
-x,y,z
x,-y,z
1/2+x,1/2+y,z
1/2-x,1/2-y,z
1/2+x,1/2-y,-z
1/2-x,1/2+y,-z
1/2-x,1/2-y,-z
1/2+x,1/2+y,-z
1/2-x,1/2+y,z
1/2+x,1/2-y,z
loop_
_atom_site_type_symbol
_atom_site_label
_atom_site_fract_x
_atom_site_fract_y
_atom_site_fract_z
Si Si1 0.080106 0.927137 0.000000
Si Si2 0.173917 0.613237 0.852437
Si Si3 0.675387 0.426225 0.760667
Si Si4 0.417863 0.334420 0.640860
Si Si5 0.083423 0.736201 0.855221
Si Si6 0.420435 0.000000 0.848651
O O1 0.124863 0.906567 0.878032
O O2 0.000000 0.895291 0.000000
O O3 0.069661 0.000000 0.000000
O O4 0.247582 0.607113 0.773936
O O5 0.136407 0.678904 0.830575
O O6 0.120201 0.560934 0.799584
O O7 0.192142 0.601042 0.000000
O O8 0.684421 0.500000 0.744254
O O9 0.633922 0.395089 0.642145
O O10 0.410514 0.304047 0.500000
O O11 0.500000 0.356101 0.665172
O O12 0.393759 0.286526 0.750540
O O13 0.000000 0.715177 0.837009
O O14 0.094708 0.761724 0.000000
O O15 0.500000 0.000000 0.787756
O O16 0.425636 0.000000 0.000000
#
# Coordination Sequence:
#
# PCOD8266654 Si02
#       6
#     8  16  16  16  16   8
#     4   9  18  30  48  75 106 144 184 226 273 327
#     4  10  18  31  52  83 122 154 183 231 291 338
#     4  11  21  34  54  82 117 149 185 234 288 343
#     4  10  23  42  61  81 109 150 197 242 292 345
#     4   9  19  36  59  86 115 149 194 241 282 336
#     4   9  16  26  48  80 117 158 191 223 275 343
#
# _framework density 19.10914
#
# number of rings (size 3 to 8) (size 9 to 14) (size 15 to 20)
#    0.000    2.200    2.000    1.200    1.400    4.800 
#    0.000    5.000    0.000    0.000    0.000    0.000 
#    0.000    4.800    0.000    0.000    0.000    0.000 
#
# Total GULP energy -495880.703660 kJ/mol
# GULP energy per Si atom -12397.017591 kJ/mol
# Density = 1.906565 g / cm^3
# Si number density = 19.109140 Si / 1000 Ang^3
#
#
#
# Elastic Constant Matrix: (Units=GPa)
#
#
# Indices 1 2 3 4 5 6 
#
# 1 133.7006 54.0887 41.7286 0.0000 0.0000 0.0000
# 2 54.0887 88.7351 52.6625 0.0000 0.0000 0.0000
# 3 41.7286 52.6625 84.1959 0.0000 0.0000 0.0000
# 4 0.0000 0.0000 0.0000 13.0972 0.0000 0.0000
# 5 0.0000 0.0000 0.0000 0.0000 18.8322 0.0000
# 6 0.0000 0.0000 0.0000 0.0000 0.0000 24.3654
#
#
#
# Elastic Compliance Matrix: (Units=1/GPa)
#
#
# Indices 1 2 3 4 5 6 
#
# 1 0.010103 -0.005068 -0.001837 0.000000 0.000000 0.000000
# 2 -0.005068 0.020465 -0.010288 0.000000 0.000000 0.000000
# 3 -0.001837 -0.010288 0.019223 0.000000 0.000000 0.000000
# 4 0.000000 0.000000 0.000000 0.076352 0.000000 0.000000
# 5 0.000000 0.000000 0.000000 0.000000 0.053101 0.000000
# 6 0.000000 0.000000 0.000000 0.000000 0.000000 0.041042
#
#
# Mechanical properties :
#
#
# Convention : Reuss Voigt Hill
#
# Bulk Modulus (GPa) = 64.92168 67.06569 65.99369
# Shear Modulus (GPa) = 19.24504 21.80239 20.52372
#
# Velocity S-wave (km/s) = 3.17695 3.38145 3.28079
# Velocity P-wave (km/s) = 6.89240 7.10056 6.99725
#
# Compressibility (1/GPa) = 0.01540317
#
# Stress axis : x y z
#
# Youngs Moduli (GPa) = 98.97965 48.86478 52.02146
#
# Poissons Ratio (x) = 0.24764 0.09558
# Poissons Ratio (y) = 0.50162 0.53522
# Poissons Ratio (z) = 0.18186 0.50274
#
# Static dielectric constant tensor:
#      x y z
#    x 3.616930 0.000000 0.000000 
#    y 0.000000 3.354610 0.000000 
#    z 0.000000 0.000000 3.272180 
# 
# 
# High freq. dielectric constant tensor:
#      x y z
#    x 1.755520 0.000000 0.000000 
#    y 0.000000 1.739670 0.000000 
#    z 0.000000 0.000000 1.704890 
# 
# From -- ./inp_files/27025.got.cif
#   From: 2010.03.12/outbox.cif.g09.slc.cpg/sg65_14_cif.got.tgz:27025.got - 2010.04.10 20:52:16.
