data_PCOD8266818
_publ_section_title
;
Structure prediction by ZEFSAII (Michael W. Deem and Ramdas Pophale) SiO2 
 PCOD8266818
Probable space group: C M M M
;
_chemical_formula_sum "Si O2"
_cell_formula_units_Z 104
_cell_length_a 8.685402
_cell_length_b 18.607736
_cell_length_c 33.132047
_cell_angle_alpha 90.000000
_cell_angle_beta 90.000000
_cell_angle_gamma 90.000000
_cell_volume 5354.657891
_symmetry_space_group_name_H-M "C M M M"
_symmetry_group_IT_number 65
_symmetry_cell_setting 'orthorhombic'
loop_
_space_group_symop_operation_xyz
x,y,z
-x,-y,z
x,-y,-z
-x,y,-z
-x,-y,-z
x,y,-z
-x,y,z
x,-y,z
1/2+x,1/2+y,z
1/2-x,1/2-y,z
1/2+x,1/2-y,-z
1/2-x,1/2+y,-z
1/2-x,1/2-y,-z
1/2+x,1/2+y,-z
1/2-x,1/2+y,z
1/2+x,1/2-y,z
loop_
_atom_site_type_symbol
_atom_site_label
_atom_site_fract_x
_atom_site_fract_y
_atom_site_fract_z
Si Si1 0.319919 0.582072 0.112578
Si Si2 0.319197 0.828398 0.418911
Si Si3 0.317387 0.671158 0.190667
Si Si4 0.817313 0.170336 0.500000
Si Si5 0.676279 0.415651 0.651628
Si Si6 0.819326 0.417349 0.263647
Si Si7 0.319091 0.175606 0.954298
O O1 0.500000 0.590127 0.105041
O O2 0.271631 0.500000 0.120140
O O3 0.266638 0.627287 0.151206
O O4 0.234556 0.609480 0.072788
O O5 0.500000 0.821210 0.425208
O O6 0.250000 0.750000 0.411208
O O7 0.245494 0.866168 0.458912
O O8 0.283242 0.877611 0.380893
O O9 0.500000 0.673537 0.195931
O O10 0.250000 0.750000 0.186246
O O11 0.243098 0.632931 0.228773
O O12 0.750000 0.250000 0.500000
O O13 0.000000 0.169510 0.500000
O O14 0.500000 0.390779 0.646514
O O15 0.694962 0.500000 0.645255
O O16 0.734340 0.392999 0.695694
O O17 0.780189 0.500000 0.253123
O O18 0.000000 0.405674 0.269441
O O19 0.500000 0.182459 0.952282
O O20 0.250000 0.250000 0.937356
O O21 0.261521 0.161635 0.000000
#
# Coordination Sequence:
#
# PCOD8266818 Si02
#       7
#    16  16  16   8  16  16  16
#     4  10  22  39  59  84 114 149 188 230 278 333
#     4  11  21  35  56  82 112 145 186 232 278 329
#     4  11  23  39  59  84 114 146 184 229 277 328
#     4  10  18  32  53  78 109 144 185 229 279 333
#     4  10  21  38  59  83 113 148 184 225 277 333
#     4  10  21  38  60  85 112 144 183 225 272 328
#     4  10  21  37  58  84 114 149 189 233 281 332
#
# _framework density 19.422343000000001
#
# number of rings (size 3 to 8) (size 9 to 14) (size 15 to 20)
#    0.000    1.692    0.000    5.769    0.000    7.077 
#    0.000    5.000    0.000    2.308    0.000    0.000 
#    0.000    0.000    0.000    0.000    0.000    0.000 
#
# Total GULP energy -645008.091262 kJ/mol
# GULP energy per Si atom -12404.001755 kJ/mol
# Density = 1.937814 g / cm^3
# Si number density = 19.422343 Si / 1000 Ang^3
#
#
#
# Elastic Constant Matrix: (Units=GPa)
#
#
# Indices 1 2 3 4 5 6 
#
# 1 107.7340 41.1590 46.6966 0.0000 0.0000 0.0000
# 2 41.1590 97.0080 67.4893 0.0000 0.0000 0.0000
# 3 46.6966 67.4893 130.9132 0.0000 0.0000 0.0000
# 4 0.0000 0.0000 0.0000 -16.0607 0.0000 0.0000
# 5 0.0000 0.0000 0.0000 0.0000 37.1407 0.0000
# 6 0.0000 0.0000 0.0000 0.0000 0.0000 30.1695
#
#
#
# Elastic Compliance Matrix: (Units=1/GPa)
#
#
# Indices 1 2 3 4 5 6 
#
# 1 0.011576 -0.003179 -0.002490 0.000000 0.000000 0.000000
# 2 -0.003179 0.016946 -0.007602 0.000000 0.000000 0.000000
# 3 -0.002490 -0.007602 0.012446 0.000000 0.000000 0.000000
# 4 0.000000 0.000000 0.000000 -0.062264 0.000000 0.000000
# 5 0.000000 0.000000 0.000000 0.000000 0.026925 0.000000
# 6 0.000000 0.000000 0.000000 0.000000 0.000000 0.033146
#
#
# Mechanical properties :
#
#
# Convention : Reuss Voigt Hill
#
# Bulk Modulus (GPa) = 69.32319 71.81612 70.56965
# Shear Modulus (GPa) = 71.29928 22.27058 46.78493
#
# Velocity S-wave (km/s) = 6.06544 3.38989 4.91330
# Velocity P-wave (km/s) = 9.20993 7.23727 8.28254
#
# Compressibility (1/GPa) = 0.01442519
#
# Stress axis : x y z
#
# Youngs Moduli (GPa) = 86.38528 59.01021 80.34636
#
# Poissons Ratio (x) = 0.18760 0.20009
# Poissons Ratio (y) = 0.27462 0.61082
# Poissons Ratio (z) = 0.21512 0.44861
#
# Static dielectric constant tensor:
#      x y z
#    x 3.634070 0.000000 0.000000 
#    y 0.000000 3.437330 0.000000 
#    z 0.000000 0.000000 3.883640 
# 
# 
# High freq. dielectric constant tensor:
#      x y z
#    x 1.770160 0.000000 0.000000 
#    y 0.000000 1.743750 0.000000 
#    z 0.000000 0.000000 1.773080 
# 
# From -- ./inp_files/73370.got.cif
#   From: 2010.03.12/outbox.cif.g09.slc.cpg/sg65_37_cif.got.tgz:73370.got - 2010.04.10 20:52:16.
