data_PCOD8266702
_publ_section_title
;
Structure prediction by ZEFSAII (Michael W. Deem and Ramdas Pophale) SiO2 
 PCOD8266702
Probable space group: C M M M
;
_chemical_formula_sum "Si O2"
_cell_formula_units_Z 64
_cell_length_a 14.838049
_cell_length_b 24.467230
_cell_length_c 8.877290
_cell_angle_alpha 90.000000
_cell_angle_beta 90.000000
_cell_angle_gamma 90.000000
_cell_volume 3222.864249
_symmetry_space_group_name_H-M "C M M M"
_symmetry_group_IT_number 65
_symmetry_cell_setting 'orthorhombic'
loop_
_space_group_symop_operation_xyz
x,y,z
-x,-y,z
x,-y,-z
-x,y,-z
-x,-y,-z
x,y,-z
-x,y,z
x,-y,z
1/2+x,1/2+y,z
1/2-x,1/2-y,z
1/2+x,1/2-y,-z
1/2-x,1/2+y,-z
1/2-x,1/2-y,-z
1/2+x,1/2+y,-z
1/2-x,1/2+y,z
1/2+x,1/2-y,z
loop_
_atom_site_type_symbol
_atom_site_label
_atom_site_fract_x
_atom_site_fract_y
_atom_site_fract_z
Si Si1 0.666831 0.000000 0.671074
Si Si2 0.646173 0.118501 0.670204
Si Si3 0.143364 0.888725 0.323045
Si Si4 0.500000 0.810847 0.176162
Si Si5 0.149338 0.000000 0.823607
Si Si6 0.500000 0.687004 0.820661
O O1 0.609755 0.055786 0.690815
O O2 0.743979 0.000000 0.796209
O O3 0.709936 0.000000 0.500000
O O4 0.630289 0.138017 0.500000
O O5 0.751382 0.120696 0.712638
O O6 0.590495 0.158630 0.774430
O O7 0.123785 0.889395 0.500000
O O8 0.089890 0.839902 0.245240
O O9 0.107959 0.945713 0.252504
O O10 0.500000 0.749306 0.237700
O O11 0.500000 0.809736 0.000000
O O12 0.126867 0.000000 0.000000
O O13 0.500000 0.682191 0.000000
#
# Coordination Sequence:
#
# PCOD8266702 Si02
#       6
#     8  16  16   8   8   8
#     4   8  16  33  56  85 116 148 187 231 277 331
#     4   9  19  37  61  85 113 148 188 232 281 334
#     4  10  21  39  62  87 114 148 189 235 281 332
#     4  11  25  40  55  80 116 152 191 237 286 339
#     4  10  18  31  56  89 121 150 179 221 280 345
#     4  11  25  42  57  80 113 150 192 239 286 337
#
# _framework density 19.858112999999999
#
# number of rings (size 3 to 8) (size 9 to 14) (size 15 to 20)
#    0.000    2.250    0.000    4.125    0.000    9.000 
#    0.000   10.000    0.000    0.000    0.000    0.000 
#    0.000    0.000    0.000    0.000    0.000    0.000 
#
# Total GULP energy -396711.543660 kJ/mol
# GULP energy per Si atom -12397.235739 kJ/mol
# Density = 1.981291 g / cm^3
# Si number density = 19.858113 Si / 1000 Ang^3
#
#
#
# Elastic Constant Matrix: (Units=GPa)
#
#
# Indices 1 2 3 4 5 6 
#
# 1 83.2141 65.7998 33.2773 0.0000 0.0000 0.0000
# 2 65.7998 188.9444 65.9288 0.0000 0.0000 0.0000
# 3 33.2773 65.9288 91.7146 0.0000 0.0000 0.0000
# 4 0.0000 0.0000 0.0000 34.4901 0.0000 0.0000
# 5 0.0000 0.0000 0.0000 0.0000 30.4396 0.0000
# 6 0.0000 0.0000 0.0000 0.0000 0.0000 26.7337
#
#
#
# Elastic Compliance Matrix: (Units=1/GPa)
#
#
# Indices 1 2 3 4 5 6 
#
# 1 0.017021 -0.005036 -0.002556 0.000000 0.000000 0.000000
# 2 -0.005036 0.008554 -0.004322 0.000000 0.000000 0.000000
# 3 -0.002556 -0.004322 0.014938 0.000000 0.000000 0.000000
# 4 0.000000 0.000000 0.000000 0.028994 0.000000 0.000000
# 5 0.000000 0.000000 0.000000 0.000000 0.032852 0.000000
# 6 0.000000 0.000000 0.000000 0.000000 0.000000 0.037406
#
#
# Mechanical properties :
#
#
# Convention : Reuss Voigt Hill
#
# Bulk Modulus (GPa) = 59.93180 77.09831 68.51506
# Shear Modulus (GPa) = 29.55871 31.59049 30.57460
#
# Velocity S-wave (km/s) = 3.86229 3.99282 3.92810
# Velocity P-wave (km/s) = 7.08062 7.75666 7.42634
#
# Compressibility (1/GPa) = 0.01668563
#
# Stress axis : x y z
#
# Youngs Moduli (GPa) = 58.75005 116.89871 66.94447
#
# Poissons Ratio (x) = 0.58868 0.17111
# Poissons Ratio (y) = 0.29585 0.28934
# Poissons Ratio (z) = 0.15016 0.50525
#
# Static dielectric constant tensor:
#      x y z
#    x 3.354950 0.000000 0.000000 
#    y 0.000000 3.914360 0.000000 
#    z 0.000000 0.000000 3.524730 
# 
# 
# High freq. dielectric constant tensor:
#      x y z
#    x 1.759970 0.000000 0.000000 
#    y 0.000000 1.783570 0.000000 
#    z 0.000000 0.000000 1.774670 
# 
# From -- ./inp_files/6846.got.cif
#   From: 2010.03.12/outbox.cif.g09.slc.cpg/sg65_4_cif.got.tgz:6846.got - 2010.04.10 20:52:16.
