data_PCOD8266711
_publ_section_title
;
Structure prediction by ZEFSAII (Michael W. Deem and Ramdas Pophale) SiO2 
 PCOD8266711
Probable space group: C M M M
;
_chemical_formula_sum "Si O2"
_cell_formula_units_Z 96
_cell_length_a 23.858644
_cell_length_b 9.194357
_cell_length_c 25.147794
_cell_angle_alpha 90.000000
_cell_angle_beta 90.000000
_cell_angle_gamma 90.000000
_cell_volume 5516.543076
_symmetry_space_group_name_H-M "C M M M"
_symmetry_group_IT_number 65
_symmetry_cell_setting 'orthorhombic'
loop_
_space_group_symop_operation_xyz
x,y,z
-x,-y,z
x,-y,-z
-x,y,-z
-x,-y,-z
x,y,-z
-x,y,z
x,-y,z
1/2+x,1/2+y,z
1/2-x,1/2-y,z
1/2+x,1/2-y,-z
1/2-x,1/2+y,-z
1/2-x,1/2-y,-z
1/2+x,1/2+y,-z
1/2-x,1/2+y,z
1/2+x,1/2-y,z
loop_
_atom_site_type_symbol
_atom_site_label
_atom_site_fract_x
_atom_site_fract_y
_atom_site_fract_z
Si Si1 0.436565 0.670533 0.439596
Si Si2 0.305646 0.668908 0.940453
Si Si3 0.500000 0.839166 0.713482
Si Si4 0.621564 0.328245 0.158368
Si Si5 0.886078 0.335320 0.348331
Si Si6 0.809921 0.325755 0.749007
Si Si7 0.000000 0.829735 0.817850
O O1 0.420653 0.710498 0.500000
O O2 0.500000 0.726637 0.427386
O O3 0.434385 0.500000 0.430218
O O4 0.389004 0.741330 0.402076
O O5 0.291434 0.500000 0.938580
O O6 0.250000 0.750000 0.921777
O O7 0.354330 0.709837 0.899508
O O8 0.324063 0.716706 0.000000
O O9 0.554132 0.816942 0.678365
O O10 0.500000 0.716419 0.757194
O O11 0.500000 0.000000 0.739789
O O12 0.627355 0.500000 0.171755
O O13 0.652334 0.235518 0.203422
O O14 0.556997 0.274917 0.154227
O O15 0.873893 0.500000 0.365146
O O16 0.838192 0.282472 0.307305
O O17 0.804819 0.500000 0.755196
O O18 0.750000 0.250000 0.751767
O O19 0.000000 0.000000 0.819014
#
# Coordination Sequence:
#
# PCOD8266711 Si02
#       7
#    16  16   8  16  16  16   8
#     4   9  18  31  48  74 106 136 166 202 246 295
#     4   9  18  33  52  73  98 130 170 215 258 299
#     4  10  18  32  49  72 103 134 168 205 250 303
#     4  10  20  34  52  76 105 135 169 208 253 305
#     4  10  20  33  51  74 102 133 166 205 250 300
#     4  11  23  37  53  75 103 134 170 212 257 303
#     4  10  20  32  49  75 105 136 170 204 246 305
#
# _framework density 17.402201999999999
#
# number of rings (size 3 to 8) (size 9 to 14) (size 15 to 20)
#    0.000    2.167    2.500    1.500    0.000    4.333 
#    0.000    1.250    0.000    3.000    0.000    0.000 
#    0.000    4.667    0.000    0.000    0.000    0.000 
#
# Total GULP energy -595017.844878 kJ/mol
# GULP energy per Si atom -12396.205102 kJ/mol
# Density = 1.736259 g / cm^3
# Si number density = 17.402202 Si / 1000 Ang^3
#
#
#
# Elastic Constant Matrix: (Units=GPa)
#
#
# Indices 1 2 3 4 5 6 
#
# 1 128.8071 48.9357 68.2600 0.0000 0.0000 0.0000
# 2 48.9357 41.3948 46.8964 0.0000 0.0000 0.0000
# 3 68.2600 46.8964 118.2968 0.0000 0.0000 0.0000
# 4 0.0000 0.0000 0.0000 27.0246 0.0000 0.0000
# 5 0.0000 0.0000 0.0000 0.0000 28.2126 0.0000
# 6 0.0000 0.0000 0.0000 0.0000 0.0000 15.0143
#
#
#
# Elastic Compliance Matrix: (Units=1/GPa)
#
#
# Indices 1 2 3 4 5 6 
#
# 1 0.014612 -0.014018 -0.002875 0.000000 0.000000 0.000000
# 2 -0.014018 0.057300 -0.014627 0.000000 0.000000 0.000000
# 3 -0.002875 -0.014627 0.015911 0.000000 0.000000 0.000000
# 4 0.000000 0.000000 0.000000 0.037003 0.000000 0.000000
# 5 0.000000 0.000000 0.000000 0.000000 0.035445 0.000000
# 6 0.000000 0.000000 0.000000 0.000000 0.000000 0.066603
#
#
# Mechanical properties :
#
#
# Convention : Reuss Voigt Hill
#
# Bulk Modulus (GPa) = 40.34797 68.52032 54.43414
# Shear Modulus (GPa) = 16.76872 22.34408 19.55640
#
# Velocity S-wave (km/s) = 3.10755 3.58715 3.35593
# Velocity P-wave (km/s) = 6.00930 7.52442 6.80913
#
# Compressibility (1/GPa) = 0.02478439
#
# Stress axis : x y z
#
# Youngs Moduli (GPa) = 68.43462 17.45210 62.85114
#
# Poissons Ratio (x) = 0.24464 0.18068
# Poissons Ratio (y) = 0.95929 0.91931
# Poissons Ratio (z) = 0.19673 0.25527
#
# Static dielectric constant tensor:
#      x y z
#    x 3.480940 0.000000 0.000000 
#    y 0.000000 3.255600 0.000000 
#    z 0.000000 0.000000 3.322380 
# 
# 
# High freq. dielectric constant tensor:
#      x y z
#    x 1.662120 0.000000 0.000000 
#    y 0.000000 1.669940 0.000000 
#    z 0.000000 0.000000 1.671720 
# 
# From -- ./inp_files/75739.got.cif
#   From: 2010.03.12/outbox.cif.g09.slc.cpg/sg65_38_cif.got.tgz:75739.got - 2010.04.10 20:52:16.
