data_PCOD8266339
_publ_section_title
;
Structure prediction by ZEFSAII (Michael W. Deem and Ramdas Pophale) SiO2 
 PCOD8266339
Probable space group: C M M M
;
_chemical_formula_sum "Si O2"
_cell_formula_units_Z 80
_cell_length_a 8.683067
_cell_length_b 18.998821
_cell_length_c 25.580148
_cell_angle_alpha 90.000000
_cell_angle_beta 90.000000
_cell_angle_gamma 90.000000
_cell_volume 4219.906768
_symmetry_space_group_name_H-M "C M M M"
_symmetry_group_IT_number 65
_symmetry_cell_setting 'orthorhombic'
loop_
_space_group_symop_operation_xyz
x,y,z
-x,-y,z
x,-y,-z
-x,y,-z
-x,-y,-z
x,y,-z
-x,y,z
x,-y,z
1/2+x,1/2+y,z
1/2-x,1/2-y,z
1/2+x,1/2-y,-z
1/2-x,1/2+y,-z
1/2-x,1/2-y,-z
1/2+x,1/2+y,-z
1/2-x,1/2+y,z
1/2+x,1/2-y,z
loop_
_atom_site_type_symbol
_atom_site_label
_atom_site_fract_x
_atom_site_fract_y
_atom_site_fract_z
Si Si1 0.318058 0.824265 0.087396
Si Si2 0.681685 0.176400 0.205806
Si Si3 0.679456 0.582090 0.000000
Si Si4 0.683395 0.671981 0.500000
Si Si5 0.683180 0.172438 0.394127
Si Si6 0.817004 0.578638 0.297377
O O1 0.500000 0.820668 0.081829
O O2 0.250000 0.750000 0.068281
O O3 0.265219 0.840702 0.146739
O O4 0.254015 0.886313 0.051947
O O5 0.500000 0.183106 0.209164
O O6 0.750000 0.250000 0.225326
O O7 0.742963 0.115295 0.244133
O O8 0.715581 0.500000 0.000000
O O9 0.500000 0.598973 0.000000
O O10 0.500000 0.671323 0.500000
O O11 0.750000 0.750000 0.500000
O O12 0.748794 0.636547 0.552933
O O13 0.500000 0.177308 0.398125
O O14 0.750000 0.250000 0.384666
O O15 0.739983 0.123090 0.347047
O O16 0.747325 0.500000 0.300020
O O17 0.000000 0.575346 0.297182
#
# Coordination Sequence:
#
# PCOD8266339 Si02
#       6
#    16  16   8   8  16  16
#     4  10  20  35  57  82 107 137 174 216 259 307
#     4   9  18  33  55  80 104 132 167 209 253 298
#     4  11  24  39  54  75 107 143 176 215 262 309
#     4  10  18  30  49  72  99 127 161 207 251 294
#     4  10  18  30  51  75  99 128 164 206 248 294
#     4   9  18  32  50  74 103 134 168 205 246 294
#
# _framework density 18.957764999999998
#
# number of rings (size 3 to 8) (size 9 to 14) (size 15 to 20)
#    0.000    2.300    0.000    4.500    0.000    2.400 
#    0.000    3.500    0.000    8.400    0.000    0.000 
#    0.000    0.000    0.000    0.000    0.000    0.000 
#
# Total GULP energy -495975.071612 kJ/mol
# GULP energy per Si atom -12399.376790 kJ/mol
# Density = 1.891462 g / cm^3
# Si number density = 18.957765 Si / 1000 Ang^3
#
#
#
# Elastic Constant Matrix: (Units=GPa)
#
#
# Indices 1 2 3 4 5 6 
#
# 1 70.0889 35.2595 37.5864 0.0000 0.0000 0.0000
# 2 35.2595 127.2408 86.6925 0.0000 0.0000 0.0000
# 3 37.5864 86.6925 153.8893 0.0000 0.0000 0.0000
# 4 0.0000 0.0000 0.0000 14.6538 0.0000 0.0000
# 5 0.0000 0.0000 0.0000 0.0000 21.5403 0.0000
# 6 0.0000 0.0000 0.0000 0.0000 0.0000 23.2024
#
#
#
# Elastic Compliance Matrix: (Units=1/GPa)
#
#
# Indices 1 2 3 4 5 6 
#
# 1 0.017130 -0.003077 -0.002450 0.000000 0.000000 0.000000
# 2 -0.003077 0.013307 -0.006745 0.000000 0.000000 0.000000
# 3 -0.002450 -0.006745 0.010896 0.000000 0.000000 0.000000
# 4 0.000000 0.000000 0.000000 0.068242 0.000000 0.000000
# 5 0.000000 0.000000 0.000000 0.000000 0.046425 0.000000
# 6 0.000000 0.000000 0.000000 0.000000 0.000000 0.043099
#
#
# Mechanical properties :
#
#
# Convention : Reuss Voigt Hill
#
# Bulk Modulus (GPa) = 59.56527 74.47731 67.02129
# Shear Modulus (GPa) = 21.81120 24.65801 23.23461
#
# Velocity S-wave (km/s) = 3.39560 3.61041 3.50465
# Velocity P-wave (km/s) = 6.84556 7.53334 7.19767
#
# Compressibility (1/GPa) = 0.01678831
#
# Stress axis : x y z
#
# Youngs Moduli (GPa) = 58.37812 75.14578 91.77362
#
# Poissons Ratio (x) = 0.23126 0.22486
# Poissons Ratio (y) = 0.17965 0.61902
# Poissons Ratio (z) = 0.14304 0.50686
#
# Static dielectric constant tensor:
#      x y z
#    x 3.335310 0.000000 0.000000 
#    y 0.000000 3.475210 0.000000 
#    z 0.000000 0.000000 4.023740 
# 
# 
# High freq. dielectric constant tensor:
#      x y z
#    x 1.725660 0.000000 0.000000 
#    y 0.000000 1.717320 0.000000 
#    z 0.000000 0.000000 1.757660 
# 
# From -- ./inp_files/72919.got.cif
#   From: 2010.03.12/outbox.cif.g09.slc.cpg/sg65_37_cif.got.tgz:72919.got - 2010.04.10 20:52:16.
