data_PCOD8266444
_publ_section_title
;
Structure prediction by ZEFSAII (Michael W. Deem and Ramdas Pophale) SiO2 
 PCOD8266444
Probable space group: C M M M
;
_chemical_formula_sum "Si O2"
_cell_formula_units_Z 104
_cell_length_a 18.324796
_cell_length_b 21.220855
_cell_length_c 14.478398
_cell_angle_alpha 90.000000
_cell_angle_beta 90.000000
_cell_angle_gamma 90.000000
_cell_volume 5630.183340
_symmetry_space_group_name_H-M "C M M M"
_symmetry_group_IT_number 65
_symmetry_cell_setting 'orthorhombic'
loop_
_space_group_symop_operation_xyz
x,y,z
-x,-y,z
x,-y,-z
-x,y,-z
-x,-y,-z
x,y,-z
-x,y,z
x,-y,z
1/2+x,1/2+y,z
1/2-x,1/2-y,z
1/2+x,1/2-y,-z
1/2-x,1/2+y,-z
1/2-x,1/2-y,-z
1/2+x,1/2+y,-z
1/2-x,1/2+y,z
1/2+x,1/2-y,z
loop_
_atom_site_type_symbol
_atom_site_label
_atom_site_fract_x
_atom_site_fract_y
_atom_site_fract_z
Si Si1 0.086227 0.126636 0.706307
Si Si2 0.586334 0.500000 0.394785
Si Si3 0.085858 0.431505 0.219839
Si Si4 0.584656 0.863518 0.602011
Si Si5 0.086130 0.822101 0.101532
Si Si6 0.167402 0.760374 0.391385
Si Si7 0.583360 0.183141 0.893502
O O1 0.112879 0.060745 0.662873
O O2 0.105030 0.128736 0.816565
O O3 0.132111 0.180141 0.657341
O O4 0.000000 0.137502 0.689771
O O5 0.500000 0.500000 0.400724
O O6 0.618164 0.500000 0.500000
O O7 0.119722 0.500000 0.193489
O O8 0.101265 0.420584 0.328543
O O9 0.122531 0.374030 0.162222
O O10 0.000000 0.433466 0.199450
O O11 0.613057 0.882941 0.500000
O O12 0.500000 0.846789 0.599450
O O13 0.623668 0.801209 0.639262
O O14 0.118917 0.752233 0.125237
O O15 0.000000 0.813494 0.092846
O O16 0.115581 0.845002 0.000000
O O17 0.162066 0.772444 0.500000
O O18 0.250000 0.750000 0.358755
O O19 0.500000 0.185736 0.859737
O O20 0.589734 0.165320 0.000000
#
# Coordination Sequence:
#
# PCOD8266444 Si02
#       7
#    16   8  16  16  16  16  16
#     4  10  18  30  51  75 100 132 165 199 245 298
#     4   9  18  30  45  71 103 131 165 205 242 289
#     4   9  16  24  36  57  84 114 149 186 222 263
#     4   9  17  29  45  64  86 115 153 193 234 280
#     4   8  14  25  43  69  98 125 156 197 244 291
#     4  10  20  32  48  70  96 123 156 202 250 291
#     4   8  13  21  33  52  82 117 148 181 224 270
#
# _framework density 18.471867
#
# number of rings (size 3 to 8) (size 9 to 14) (size 15 to 20)
#    0.000    3.000    0.000    2.769    0.000    4.615 
#    0.000    3.462    1.692    2.769    0.000    0.000 
#    0.000    0.000    0.000    0.000    0.000    0.000 
#
# Total GULP energy -644285.803220 kJ/mol
# GULP energy per Si atom -12390.111600 kJ/mol
# Density = 1.842982 g / cm^3
# Si number density = 18.471867 Si / 1000 Ang^3
#
#
#
# Elastic Constant Matrix: (Units=GPa)
#
#
# Indices 1 2 3 4 5 6 
#
# 1 26.1609 17.3678 13.9132 0.0000 0.0000 0.0000
# 2 17.3678 111.5762 76.0508 0.0000 0.0000 0.0000
# 3 13.9132 76.0508 106.5516 0.0000 0.0000 0.0000
# 4 0.0000 0.0000 0.0000 26.4406 0.0000 0.0000
# 5 0.0000 0.0000 0.0000 0.0000 7.8142 0.0000
# 6 0.0000 0.0000 0.0000 0.0000 0.0000 2.3203
#
#
#
# Elastic Compliance Matrix: (Units=1/GPa)
#
#
# Indices 1 2 3 4 5 6 
#
# 1 0.042774 -0.005552 -0.001622 0.000000 0.000000 0.000000
# 2 -0.005552 0.018174 -0.012247 0.000000 0.000000 0.000000
# 3 -0.001622 -0.012247 0.018338 0.000000 0.000000 0.000000
# 4 0.000000 0.000000 0.000000 0.037821 0.000000 0.000000
# 5 0.000000 0.000000 0.000000 0.000000 0.127972 0.000000
# 6 0.000000 0.000000 0.000000 0.000000 0.000000 0.430970
#
#
# Mechanical properties :
#
#
# Convention : Reuss Voigt Hill
#
# Bulk Modulus (GPa) = 24.72597 50.99469 37.86033
# Shear Modulus (GPa) = 6.86462 16.44551 11.65506
#
# Velocity S-wave (km/s) = 1.92985 2.98703 2.51462
# Velocity P-wave (km/s) = 4.28726 6.28992 5.38255
#
# Compressibility (1/GPa) = 0.04044331
#
# Stress axis : x y z
#
# Youngs Moduli (GPa) = 23.37874 55.02312 54.53152
#
# Poissons Ratio (x) = 0.30551 0.08847
# Poissons Ratio (y) = 0.12981 0.66783
# Poissons Ratio (z) = 0.03793 0.67385
#
# Static dielectric constant tensor:
#      x y z
#    x 2.602390 0.000000 0.000000 
#    y 0.000000 3.576530 0.000000 
#    z 0.000000 0.000000 3.713090 
# 
# 
# High freq. dielectric constant tensor:
#      x y z
#    x 1.642500 0.000000 0.000000 
#    y 0.000000 1.711840 0.000000 
#    z 0.000000 0.000000 1.730960 
# 
# From -- ./inp_files/44442.got.cif
#   From: 2010.03.12/outbox.cif.g09.slc.cpg/sg65_23_cif.got.tgz:44442.got - 2010.04.10 20:52:16.
