data_PCOD8266202
_publ_section_title
;
Structure prediction by ZEFSAII (Michael W. Deem and Ramdas Pophale) SiO2 
 PCOD8266202
Probable space group: C M M M
;
_chemical_formula_sum "Si O2"
_cell_formula_units_Z 56
_cell_length_a 26.747614
_cell_length_b 8.633443
_cell_length_c 15.466479
_cell_angle_alpha 90.000000
_cell_angle_beta 90.000000
_cell_angle_gamma 90.000000
_cell_volume 3571.581210
_symmetry_space_group_name_H-M "C M M M"
_symmetry_group_IT_number 65
_symmetry_cell_setting 'orthorhombic'
loop_
_space_group_symop_operation_xyz
x,y,z
-x,-y,z
x,-y,-z
-x,y,-z
-x,-y,-z
x,y,-z
-x,y,z
x,-y,z
1/2+x,1/2+y,z
1/2-x,1/2-y,z
1/2+x,1/2-y,-z
1/2-x,1/2+y,-z
1/2-x,1/2-y,-z
1/2+x,1/2+y,-z
1/2-x,1/2+y,z
1/2+x,1/2-y,z
loop_
_atom_site_type_symbol
_atom_site_label
_atom_site_fract_x
_atom_site_fract_y
_atom_site_fract_z
Si Si1 0.194481 0.316225 0.176651
Si Si2 0.694631 0.684380 0.000000
Si Si3 0.557051 0.500000 0.396457
Si Si4 0.304044 0.180592 0.500000
Si Si5 0.854822 0.172202 0.337848
O O1 0.198162 0.500000 0.172171
O O2 0.250000 0.250000 0.194743
O O3 0.170073 0.250076 0.087799
O O4 0.155766 0.264062 0.250077
O O5 0.750000 0.750000 0.000000
O O6 0.693554 0.500000 0.000000
O O7 0.500000 0.500000 0.365295
O O8 0.561604 0.500000 0.500000
O O9 0.585487 0.348668 0.356788
O O10 0.250000 0.250000 0.500000
O O11 0.332599 0.231159 0.584777
O O12 0.298939 0.000000 0.500000
O O13 0.829849 0.000000 0.333791
#
# Coordination Sequence:
#
# PCOD8266202 Si02
#       5
#    16   8   8   8  16
#     4  11  20  31  47  72 107 144 175 209 250 300
#     4  10  18  30  46  68 100 141 184 213 243 290
#     4   9  18  36  62  77  95 129 177 226 262 303
#     4  12  22  32  46  69 107 141 169 200 244 303
#     4  10  19  34  50  74  97 128 172 207 255 305
#
# _framework density 15.67933
#
# number of rings (size 3 to 8) (size 9 to 14) (size 15 to 20)
#    0.857    0.714    1.429    8.571    0.000    0.000 
#    0.000    0.000    0.000    4.286    0.000    2.000 
#    0.000    2.286    0.000    0.000    0.000    0.000 
#
# Total GULP energy -346973.668449 kJ/mol
# GULP energy per Si atom -12391.916730 kJ/mol
# Density = 1.564364 g / cm^3
# Si number density = 15.679330 Si / 1000 Ang^3
#
#
#
# Elastic Constant Matrix: (Units=GPa)
#
#
# Indices 1 2 3 4 5 6 
#
# 1 103.0481 40.3409 53.7746 0.0000 0.0000 0.0000
# 2 40.3409 151.1993 56.4678 0.0000 0.0000 0.0000
# 3 53.7746 56.4678 149.1663 0.0000 0.0000 0.0000
# 4 0.0000 0.0000 0.0000 19.0939 0.0000 0.0000
# 5 0.0000 0.0000 0.0000 0.0000 2.7869 0.0000
# 6 0.0000 0.0000 0.0000 0.0000 0.0000 18.3506
#
#
#
# Elastic Compliance Matrix: (Units=1/GPa)
#
#
# Indices 1 2 3 4 5 6 
#
# 1 0.012409 -0.001910 -0.003750 0.000000 0.000000 0.000000
# 2 -0.001910 0.007997 -0.002339 0.000000 0.000000 0.000000
# 3 -0.003750 -0.002339 0.008941 0.000000 0.000000 0.000000
# 4 0.000000 0.000000 0.000000 0.052373 0.000000 0.000000
# 5 0.000000 0.000000 0.000000 0.000000 0.358827 0.000000
# 6 0.000000 0.000000 0.000000 0.000000 0.000000 0.054494
#
#
# Mechanical properties :
#
#
# Convention : Reuss Voigt Hill
#
# Bulk Modulus (GPa) = 74.91314 78.28670 76.59992
# Shear Modulus (GPa) = 9.69954 24.90164 17.30059
#
# Velocity S-wave (km/s) = 2.48990 3.98952 3.32535
# Velocity P-wave (km/s) = 7.49321 8.44156 7.98148
#
# Compressibility (1/GPa) = 0.01334879
#
# Stress axis : x y z
#
# Youngs Moduli (GPa) = 80.58613 125.04950 111.84129
#
# Poissons Ratio (x) = 0.23887 0.41945
# Poissons Ratio (y) = 0.15393 0.26156
# Poissons Ratio (z) = 0.30223 0.29244
#
# Static dielectric constant tensor:
#      x y z
#    x 2.669260 0.000000 0.000000 
#    y 0.000000 3.078810 0.000000 
#    z 0.000000 0.000000 3.285160 
# 
# 
# High freq. dielectric constant tensor:
#      x y z
#    x 1.548910 0.000000 0.000000 
#    y 0.000000 1.612380 0.000000 
#    z 0.000000 0.000000 1.621050 
# 
# From -- ./inp_files/46312.got.cif
#   From: 2010.03.12/outbox.cif.g09.slc.cpg/sg65_24_cif.got.tgz:46312.got - 2010.04.10 20:52:16.
