data_PCOD8266907
_publ_section_title
;
Structure prediction by ZEFSAII (Michael W. Deem and Ramdas Pophale) SiO2 
 PCOD8266907
Probable space group: C M M M
;
_chemical_formula_sum "Si O2"
_cell_formula_units_Z 88
_cell_length_a 19.957352
_cell_length_b 18.641716
_cell_length_c 13.992310
_cell_angle_alpha 90.000000
_cell_angle_beta 90.000000
_cell_angle_gamma 90.000000
_cell_volume 5205.689051
_symmetry_space_group_name_H-M "C M M M"
_symmetry_group_IT_number 65
_symmetry_cell_setting 'orthorhombic'
loop_
_space_group_symop_operation_xyz
x,y,z
-x,-y,z
x,-y,-z
-x,y,-z
-x,-y,-z
x,y,-z
-x,y,z
x,-y,z
1/2+x,1/2+y,z
1/2-x,1/2-y,z
1/2+x,1/2-y,-z
1/2-x,1/2+y,-z
1/2-x,1/2-y,-z
1/2+x,1/2+y,-z
1/2-x,1/2+y,z
1/2+x,1/2-y,z
loop_
_atom_site_type_symbol
_atom_site_label
_atom_site_fract_x
_atom_site_fract_y
_atom_site_fract_z
Si Si1 0.328494 0.918524 0.709557
Si Si2 0.762445 0.920410 0.892950
Si Si3 0.078468 0.579656 0.000000
Si Si4 0.320097 0.294145 0.202343
Si Si5 0.421500 0.170517 0.184048
Si Si6 0.777171 0.829139 0.396599
O O1 0.294192 0.911666 0.813299
O O2 0.397245 0.873105 0.721411
O O3 0.283090 0.883953 0.627551
O O4 0.344888 0.000000 0.681374
O O5 0.818432 0.859497 0.873482
O O6 0.794958 0.000000 0.885565
O O7 0.732001 0.908793 0.000000
O O8 0.099251 0.623559 0.093016
O O9 0.113086 0.500000 0.000000
O O10 0.000000 0.567416 0.000000
O O11 0.250000 0.250000 0.199925
O O12 0.383368 0.246073 0.175975
O O13 0.330196 0.328226 0.309098
O O14 0.500000 0.186208 0.191345
O O15 0.808228 0.852961 0.500000
O O16 0.750000 0.750000 0.408959
#
# Coordination Sequence:
#
# PCOD8266907 Si02
#       6
#    16  16   8  16  16  16
#     4  10  19  31  47  73 103 132 167 201 244 301
#     4   9  18  30  48  73 100 128 160 207 260 303
#     4   9  20  34  45  64 101 149 185 204 237 291
#     4  10  18  33  50  74  96 128 168 211 256 297
#     4  11  21  33  48  71 103 139 177 211 244 291
#     4   9  16  31  53  72  93 124 165 208 251 295
#
# _framework density 16.904582999999999
#
# number of rings (size 3 to 8) (size 9 to 14) (size 15 to 20)
#    0.000    2.273    5.455    0.545    2.545    1.818 
#    0.000    0.000    0.000    2.727    0.000    2.545 
#    0.000    0.000    0.000    9.091    0.000    0.000 
#
# Total GULP energy -545153.163610 kJ/mol
# GULP energy per Si atom -12389.844628 kJ/mol
# Density = 1.686611 g / cm^3
# Si number density = 16.904583 Si / 1000 Ang^3
#
#
#
# Elastic Constant Matrix: (Units=GPa)
#
#
# Indices 1 2 3 4 5 6 
#
# 1 64.0105 42.5180 14.8284 0.0000 0.0000 0.0000
# 2 42.5180 97.1752 27.8399 0.0000 0.0000 0.0000
# 3 14.8284 27.8399 91.9832 0.0000 0.0000 0.0000
# 4 0.0000 0.0000 0.0000 42.2403 0.0000 0.0000
# 5 0.0000 0.0000 0.0000 0.0000 18.5996 0.0000
# 6 0.0000 0.0000 0.0000 0.0000 0.0000 22.5386
#
#
#
# Elastic Compliance Matrix: (Units=1/GPa)
#
#
# Indices 1 2 3 4 5 6 
#
# 1 0.022063 -0.009454 -0.000695 0.000000 0.000000 0.000000
# 2 -0.009454 0.015319 -0.003112 0.000000 0.000000 0.000000
# 3 -0.000695 -0.003112 0.011926 0.000000 0.000000 0.000000
# 4 0.000000 0.000000 0.000000 0.023674 0.000000 0.000000
# 5 0.000000 0.000000 0.000000 0.000000 0.053765 0.000000
# 6 0.000000 0.000000 0.000000 0.000000 0.000000 0.044368
#
#
# Mechanical properties :
#
#
# Convention : Reuss Voigt Hill
#
# Bulk Modulus (GPa) = 43.89056 47.06016 45.47536
# Shear Modulus (GPa) = 24.36243 27.87455 26.11849
#
# Velocity S-wave (km/s) = 3.80040 4.06511 3.93498
# Velocity P-wave (km/s) = 6.72885 7.06630 6.89964
#
# Compressibility (1/GPa) = 0.02278394
#
# Stress axis : x y z
#
# Youngs Moduli (GPa) = 45.32378 65.27817 83.85294
#
# Poissons Ratio (x) = 0.61717 0.05830
# Poissons Ratio (y) = 0.42851 0.26098
# Poissons Ratio (z) = 0.03151 0.20317
#
# Static dielectric constant tensor:
#      x y z
#    x 2.739870 0.000000 0.000000 
#    y 0.000000 3.568440 0.000000 
#    z 0.000000 0.000000 3.523900 
# 
# 
# High freq. dielectric constant tensor:
#      x y z
#    x 1.594010 0.000000 0.000000 
#    y 0.000000 1.664060 0.000000 
#    z 0.000000 0.000000 1.650430 
# 
# From -- ./inp_files/42758.got.cif
#   From: 2010.03.12/outbox.cif.g09.slc.cpg/sg65_22_cif.got.tgz:42758.got - 2010.04.10 20:52:16.
