data_PCOD8266998
_publ_section_title
;
Structure prediction by ZEFSAII (Michael W. Deem and Ramdas Pophale) SiO2 
 PCOD8266998
Probable space group: C M M M
;
_chemical_formula_sum "Si O2"
_cell_formula_units_Z 104
_cell_length_a 9.024550
_cell_length_b 23.517008
_cell_length_c 28.129979
_cell_angle_alpha 90.000000
_cell_angle_beta 90.000000
_cell_angle_gamma 90.000000
_cell_volume 5970.037104
_symmetry_space_group_name_H-M "C M M M"
_symmetry_group_IT_number 65
_symmetry_cell_setting 'orthorhombic'
loop_
_space_group_symop_operation_xyz
x,y,z
-x,-y,z
x,-y,-z
-x,y,-z
-x,-y,-z
x,y,-z
-x,y,z
x,-y,z
1/2+x,1/2+y,z
1/2-x,1/2-y,z
1/2+x,1/2-y,-z
1/2-x,1/2+y,-z
1/2-x,1/2-y,-z
1/2+x,1/2+y,-z
1/2-x,1/2+y,z
1/2+x,1/2-y,z
loop_
_atom_site_type_symbol
_atom_site_label
_atom_site_fract_x
_atom_site_fract_y
_atom_site_fract_z
Si Si1 0.173451 0.896477 0.735684
Si Si2 0.174215 0.500000 0.213574
Si Si3 0.671715 0.500000 0.883713
Si Si4 0.172995 0.189761 0.815897
Si Si5 0.665991 0.567414 0.447865
Si Si6 0.672811 0.066774 0.354737
Si Si7 0.827051 0.875834 0.091956
Si Si8 0.177517 0.188972 0.000000
O O1 0.257702 0.945115 0.763069
O O2 0.204542 0.838467 0.764527
O O3 0.238815 0.893886 0.682550
O O4 0.000000 0.910451 0.733684
O O5 0.213206 0.500000 0.158755
O O6 0.000000 0.500000 0.222102
O O7 0.500000 0.500000 0.865536
O O8 0.705499 0.443194 0.913816
O O9 0.250000 0.250000 0.817921
O O10 0.237053 0.149767 0.858532
O O11 0.000000 0.199486 0.823258
O O12 0.717517 0.590144 0.500000
O O13 0.500000 0.589523 0.436631
O O14 0.665424 0.500000 0.449074
O O15 0.777905 0.588124 0.406984
O O16 0.500000 0.078098 0.348843
O O17 0.710899 0.000000 0.346608
O O18 0.760097 0.844018 0.046261
O O19 0.000000 0.864886 0.092472
O O20 0.250000 0.250000 0.000000
O O21 0.000000 0.193439 0.000000
#
# Coordination Sequence:
#
# PCOD8266998 Si02
#       8
#    16   8   8  16  16  16  16   8
#     4  11  21  34  52  70  97 136 171 203 249 306
#     4  12  22  32  49  77 104 127 164 208 253 298
#     4  10  18  35  56  74 104 135 165 204 249 306
#     4  10  21  36  53  74  98 130 169 206 249 301
#     4   8  14  25  40  58  85 127 174 209 244 297
#     4  10  19  28  41  67  99 127 165 212 256 297
#     4   9  18  33  55  80 103 131 169 206 247 302
#     4  10  20  35  55  79 105 134 173 214 254 299
#
# _framework density 17.420328000000001
#
# number of rings (size 3 to 8) (size 9 to 14) (size 15 to 20)
#    0.000    2.154    2.308    2.538    0.000    2.462 
#    0.000    3.846    0.000    0.000    0.000    1.077 
#    0.000    0.615    0.000    2.000    0.000    2.462 
#
# Total GULP energy -644575.789355 kJ/mol
# GULP energy per Si atom -12395.688257 kJ/mol
# Density = 1.738068 g / cm^3
# Si number density = 17.420328 Si / 1000 Ang^3
#
#
#
# Elastic Constant Matrix: (Units=GPa)
#
#
# Indices 1 2 3 4 5 6 
#
# 1 69.5927 36.8720 48.2977 0.0000 0.0000 0.0000
# 2 36.8720 106.6800 54.3940 0.0000 0.0000 0.0000
# 3 48.2977 54.3940 143.6348 0.0000 0.0000 0.0000
# 4 0.0000 0.0000 0.0000 20.6311 0.0000 0.0000
# 5 0.0000 0.0000 0.0000 0.0000 17.5278 0.0000
# 6 0.0000 0.0000 0.0000 0.0000 0.0000 23.4760
#
#
#
# Elastic Compliance Matrix: (Units=1/GPa)
#
#
# Indices 1 2 3 4 5 6 
#
# 1 0.020267 -0.004375 -0.005158 0.000000 0.000000 0.000000
# 2 -0.004375 0.012561 -0.003286 0.000000 0.000000 0.000000
# 3 -0.005158 -0.003286 0.009941 0.000000 0.000000 0.000000
# 4 0.000000 0.000000 0.000000 0.048470 0.000000 0.000000
# 5 0.000000 0.000000 0.000000 0.000000 0.057052 0.000000
# 6 0.000000 0.000000 0.000000 0.000000 0.000000 0.042597
#
#
# Mechanical properties :
#
#
# Convention : Reuss Voigt Hill
#
# Bulk Modulus (GPa) = 58.37201 66.55943 62.46572
# Shear Modulus (GPa) = 22.49852 24.34990 23.42421
#
# Velocity S-wave (km/s) = 3.59766 3.74275 3.67092
# Velocity P-wave (km/s) = 7.13009 7.54775 7.34189
#
# Compressibility (1/GPa) = 0.01713150
#
# Stress axis : x y z
#
# Youngs Moduli (GPa) = 49.34123 79.60944 100.59490
#
# Poissons Ratio (x) = 0.34829 0.51888
# Poissons Ratio (y) = 0.21586 0.33054
# Poissons Ratio (z) = 0.25451 0.26158
#
# Static dielectric constant tensor:
#      x y z
#    x 3.170550 0.000000 0.000000 
#    y 0.000000 2.959350 0.000000 
#    z 0.000000 0.000000 3.774600 
# 
# 
# High freq. dielectric constant tensor:
#      x y z
#    x 1.659970 0.000000 0.000000 
#    y 0.000000 1.635770 0.000000 
#    z 0.000000 0.000000 1.684030 
# 
# From -- ./inp_files/73668.got.cif
#   From: 2010.03.12/outbox.cif.g09.slc.cpg/sg65_37_cif.got.tgz:73668.got - 2010.04.10 20:52:16.
