data_PCOD8266885
_publ_section_title
;
Structure prediction by ZEFSAII (Michael W. Deem and Ramdas Pophale) SiO2 
 PCOD8266885
Probable space group: C M M M
;
_chemical_formula_sum "Si O2"
_cell_formula_units_Z 96
_cell_length_a 25.552984
_cell_length_b 8.798899
_cell_length_c 23.437837
_cell_angle_alpha 90.000000
_cell_angle_beta 90.000000
_cell_angle_gamma 90.000000
_cell_volume 5269.719334
_symmetry_space_group_name_H-M "C M M M"
_symmetry_group_IT_number 65
_symmetry_cell_setting 'orthorhombic'
loop_
_space_group_symop_operation_xyz
x,y,z
-x,-y,z
x,-y,-z
-x,y,-z
-x,-y,-z
x,y,-z
-x,y,z
x,-y,z
1/2+x,1/2+y,z
1/2-x,1/2-y,z
1/2+x,1/2-y,-z
1/2-x,1/2+y,-z
1/2-x,1/2-y,-z
1/2+x,1/2+y,-z
1/2-x,1/2+y,z
1/2+x,1/2-y,z
loop_
_atom_site_type_symbol
_atom_site_label
_atom_site_fract_x
_atom_site_fract_y
_atom_site_fract_z
Si Si1 0.694826 0.321299 0.065477
Si Si2 0.097635 0.319799 0.873466
Si Si3 0.500000 0.672122 0.932607
Si Si4 0.100918 0.680225 0.631707
Si Si5 0.441318 0.179873 0.248486
Si Si6 0.305040 0.321046 0.435169
Si Si7 0.000000 0.680617 0.563759
O O1 0.697309 0.500000 0.075245
O O2 0.750000 0.250000 0.083039
O O3 0.651926 0.250243 0.106596
O O4 0.680978 0.281354 0.000000
O O5 0.099807 0.500000 0.879124
O O6 0.088261 0.266394 0.808452
O O7 0.051163 0.259336 0.912377
O O8 0.500000 0.500000 0.908834
O O9 0.500000 0.671211 0.000000
O O10 0.107409 0.500000 0.626367
O O11 0.092118 0.733343 0.696923
O O12 0.152366 0.759525 0.608456
O O13 0.051464 0.739994 0.595672
O O14 0.500000 0.249961 0.250025
O O15 0.446800 0.000000 0.249600
O O16 0.319671 0.272967 0.500000
O O17 0.300706 0.500000 0.429241
O O18 0.250000 0.250000 0.417066
O O19 0.000000 0.500000 0.563523
O O20 0.000000 0.747481 0.500000
#
# Coordination Sequence:
#
# PCOD8266885 Si02
#       7
#    16  16   8  16  16  16   8
#     4  10  21  38  59  83 112 144 180 225 277 332
#     4  11  21  35  57  82 110 145 187 229 275 330
#     4  11  23  36  51  77 113 147 182 229 280 329
#     4  10  18  32  56  81 108 142 182 223 266 319
#     4   9  17  33  55  80 109 145 185 225 268 315
#     4  10  21  37  56  79 109 143 180 225 276 327
#     4   9  16  25  45  79 109 133 168 213 258 312
#
# _framework density 18.217289999999998
#
# number of rings (size 3 to 8) (size 9 to 14) (size 15 to 20)
#    0.000    2.000    1.667    2.750    0.000    5.333 
#    0.000    2.917    0.000    1.500    0.000    0.000 
#    0.000    0.000    0.000    0.000    0.000    0.000 
#
# Total GULP energy -595290.257359 kJ/mol
# GULP energy per Si atom -12401.880362 kJ/mol
# Density = 1.817583 g / cm^3
# Si number density = 18.217290 Si / 1000 Ang^3
#
#
#
# Elastic Constant Matrix: (Units=GPa)
#
#
# Indices 1 2 3 4 5 6 
#
# 1 167.9985 53.3550 92.0320 0.0000 0.0000 0.0000
# 2 53.3550 61.7044 40.8830 0.0000 0.0000 0.0000
# 3 92.0320 40.8830 138.2449 0.0000 0.0000 0.0000
# 4 0.0000 0.0000 0.0000 19.9672 0.0000 0.0000
# 5 0.0000 0.0000 0.0000 0.0000 8.7999 0.0000
# 6 0.0000 0.0000 0.0000 0.0000 0.0000 30.4036
#
#
#
# Elastic Compliance Matrix: (Units=1/GPa)
#
#
# Indices 1 2 3 4 5 6 
#
# 1 0.010757 -0.005667 -0.005485 0.000000 0.000000 0.000000
# 2 -0.005667 0.023141 -0.003071 0.000000 0.000000 0.000000
# 3 -0.005485 -0.003071 0.011793 0.000000 0.000000 0.000000
# 4 0.000000 0.000000 0.000000 0.050082 0.000000 0.000000
# 5 0.000000 0.000000 0.000000 0.000000 0.113637 0.000000
# 6 0.000000 0.000000 0.000000 0.000000 0.000000 0.032891
#
#
# Mechanical properties :
#
#
# Convention : Reuss Voigt Hill
#
# Bulk Modulus (GPa) = 57.98726 82.27646 70.13186
# Shear Modulus (GPa) = 18.08336 23.94599 21.01468
#
# Velocity S-wave (km/s) = 3.15405 3.62949 3.40009
# Velocity P-wave (km/s) = 6.72042 7.92630 7.34814
#
# Compressibility (1/GPa) = 0.01724517
#
# Stress axis : x y z
#
# Youngs Moduli (GPa) = 92.96054 43.21282 84.79389
#
# Poissons Ratio (x) = 0.24490 0.46512
# Poissons Ratio (y) = 0.52684 0.26038
# Poissons Ratio (z) = 0.50992 0.13269
#
# Static dielectric constant tensor:
#      x y z
#    x 3.410270 0.000000 0.000000 
#    y 0.000000 3.216920 0.000000 
#    z 0.000000 0.000000 3.568450 
# 
# 
# High freq. dielectric constant tensor:
#      x y z
#    x 1.711810 0.000000 0.000000 
#    y 0.000000 1.690830 0.000000 
#    z 0.000000 0.000000 1.709280 
# 
# From -- ./inp_files/71436.got.cif
#   From: 2010.03.12/outbox.cif.g09.slc.cpg/sg65_36_cif.got.tgz:71436.got - 2010.04.10 20:52:16.
