data_PCOD8266962
_publ_section_title
;
Structure prediction by ZEFSAII (Michael W. Deem and Ramdas Pophale) SiO2 
 PCOD8266962
Probable space group: C M M M
;
_chemical_formula_sum "Si O2"
_cell_formula_units_Z 64
_cell_length_a 14.970127
_cell_length_b 8.639404
_cell_length_c 24.465887
_cell_angle_alpha 90.000000
_cell_angle_beta 90.000000
_cell_angle_gamma 90.000000
_cell_volume 3164.245954
_symmetry_space_group_name_H-M "C M M M"
_symmetry_group_IT_number 65
_symmetry_cell_setting 'orthorhombic'
loop_
_space_group_symop_operation_xyz
x,y,z
-x,-y,z
x,-y,-z
-x,y,-z
-x,-y,-z
x,y,-z
-x,y,z
x,-y,z
1/2+x,1/2+y,z
1/2-x,1/2-y,z
1/2+x,1/2-y,-z
1/2-x,1/2+y,-z
1/2-x,1/2-y,-z
1/2+x,1/2+y,-z
1/2-x,1/2+y,z
1/2+x,1/2-y,z
loop_
_atom_site_type_symbol
_atom_site_label
_atom_site_fract_x
_atom_site_fract_y
_atom_site_fract_z
Si Si1 0.349056 0.815532 0.500000
Si Si2 0.500000 0.179981 0.317173
Si Si3 0.151515 0.182680 0.118024
Si Si4 0.151130 0.816123 0.388597
Si Si5 0.846414 0.819000 0.000000
Si Si6 0.500000 0.822110 0.188718
O O1 0.250000 0.750000 0.500000
O O2 0.393668 0.750175 0.444646
O O3 0.351932 0.000000 0.500000
O O4 0.588761 0.262431 0.339316
O O5 0.500000 0.204701 0.252889
O O6 0.500000 0.000000 0.333576
O O7 0.250000 0.250000 0.125817
O O8 0.088882 0.246187 0.165098
O O9 0.157526 0.000000 0.124121
O O10 0.108664 0.229709 0.058006
O O11 0.250000 0.750000 0.378781
O O12 0.156132 0.000000 0.391710
O O13 0.750000 0.750000 0.000000
O O14 0.835334 0.000000 0.000000
O O15 0.500000 0.000000 0.172443
#
# Coordination Sequence:
#
# PCOD8266962 Si02
#       6
#     8   8  16  16   8   8
#     4  10  18  33  58  89 123 156 190 231 283 343
#     4  11  25  44  61  82 113 152 200 249 290 339
#     4  10  20  37  61  87 118 152 190 235 289 345
#     4  11  22  39  63  91 121 154 192 237 290 346
#     4   8  16  31  54  85 116 148 184 229 282 343
#     4  11  25  42  59  82 114 152 199 245 288 341
#
# _framework density 20.225987
#
# number of rings (size 3 to 8) (size 9 to 14) (size 15 to 20)
#    0.000    1.750    0.000    6.375    0.000    5.000 
#    0.000    5.000    0.000    0.000    0.000    0.000 
#    0.000    0.000    0.000    0.000    0.000    0.000 
#
# Total GULP energy -396594.935698 kJ/mol
# GULP energy per Si atom -12393.591741 kJ/mol
# Density = 2.017995 g / cm^3
# Si number density = 20.225987 Si / 1000 Ang^3
#
#
#
# Elastic Constant Matrix: (Units=GPa)
#
#
# Indices 1 2 3 4 5 6 
#
# 1 109.2712 54.9749 61.4056 0.0000 0.0000 0.0000
# 2 54.9749 154.8429 72.9359 0.0000 0.0000 0.0000
# 3 61.4056 72.9359 117.1632 0.0000 0.0000 0.0000
# 4 0.0000 0.0000 0.0000 32.9656 0.0000 0.0000
# 5 0.0000 0.0000 0.0000 0.0000 19.9614 0.0000
# 6 0.0000 0.0000 0.0000 0.0000 0.0000 31.9571
#
#
#
# Elastic Compliance Matrix: (Units=1/GPa)
#
#
# Indices 1 2 3 4 5 6 
#
# 1 0.013418 -0.002054 -0.005754 0.000000 0.000000 0.000000
# 2 -0.002054 0.009452 -0.004808 0.000000 0.000000 0.000000
# 3 -0.005754 -0.004808 0.014544 0.000000 0.000000 0.000000
# 4 0.000000 0.000000 0.000000 0.030335 0.000000 0.000000
# 5 0.000000 0.000000 0.000000 0.000000 0.050097 0.000000
# 6 0.000000 0.000000 0.000000 0.000000 0.000000 0.031292
#
#
# Mechanical properties :
#
#
# Convention : Reuss Voigt Hill
#
# Bulk Modulus (GPa) = 82.08121 84.43444 83.25782
# Shear Modulus (GPa) = 28.02237 29.77421 28.89829
#
# Velocity S-wave (km/s) = 3.72622 3.84093 3.78401
# Velocity P-wave (km/s) = 7.69306 7.84260 7.76819
#
# Compressibility (1/GPa) = 0.01218306
#
# Stress axis : x y z
#
# Youngs Moduli (GPa) = 74.52501 105.80019 68.75834
#
# Poissons Ratio (x) = 0.21727 0.39565
# Poissons Ratio (y) = 0.15304 0.33056
# Poissons Ratio (z) = 0.42883 0.50864
#
# Static dielectric constant tensor:
#      x y z
#    x 3.548780 0.000000 0.000000 
#    y 0.000000 3.846230 0.000000 
#    z 0.000000 0.000000 4.261610 
# 
# 
# High freq. dielectric constant tensor:
#      x y z
#    x 1.777220 0.000000 0.000000 
#    y 0.000000 1.805820 0.000000 
#    z 0.000000 0.000000 1.803030 
# 
# From -- ./inp_files/69562.got.cif
#   From: 2010.03.12/outbox.cif.g09.slc.cpg/sg65_35_cif.got.tgz:69562.got - 2010.04.10 20:52:16.
