data_PCOD8266120
_publ_section_title
;
Structure prediction by ZEFSAII (Michael W. Deem and Ramdas Pophale) SiO2 
 PCOD8266120
Probable space group: C M M M
;
_chemical_formula_sum "Si O2"
_cell_formula_units_Z 72
_cell_length_a 8.698989
_cell_length_b 18.005727
_cell_length_c 23.609510
_cell_angle_alpha 90.000000
_cell_angle_beta 90.000000
_cell_angle_gamma 90.000000
_cell_volume 3697.995825
_symmetry_space_group_name_H-M "C M M M"
_symmetry_group_IT_number 65
_symmetry_cell_setting 'orthorhombic'
loop_
_space_group_symop_operation_xyz
x,y,z
-x,-y,z
x,-y,-z
-x,y,-z
-x,-y,-z
x,y,-z
-x,y,z
x,-y,z
1/2+x,1/2+y,z
1/2-x,1/2-y,z
1/2+x,1/2-y,-z
1/2-x,1/2+y,-z
1/2-x,1/2-y,-z
1/2+x,1/2+y,-z
1/2-x,1/2+y,z
1/2+x,1/2-y,z
loop_
_atom_site_type_symbol
_atom_site_label
_atom_site_fract_x
_atom_site_fract_y
_atom_site_fract_z
Si Si1 0.317670 0.168722 0.105588
Si Si2 0.823802 0.087834 0.000000
Si Si3 0.818090 0.668051 0.326502
Si Si4 0.182759 0.416737 0.216105
Si Si5 0.679883 0.668773 0.561311
O O1 0.500000 0.173512 0.104254
O O2 0.250000 0.250000 0.098809
O O3 0.261294 0.117525 0.055018
O O4 0.256715 0.132546 0.163901
O O5 0.000000 0.114922 0.000000
O O6 0.811109 0.000000 0.000000
O O7 0.750000 0.750000 0.320456
O O8 0.756623 0.619099 0.274367
O O9 0.760493 0.628512 0.385083
O O10 0.000000 0.672957 0.326672
O O11 0.249744 0.500000 0.210867
O O12 0.000000 0.419106 0.215666
O O13 0.709958 0.628790 0.500000
O O14 0.500000 0.674705 0.573604
O O15 0.750000 0.750000 0.557838
#
# Coordination Sequence:
#
# PCOD8266120 Si02
#       5
#    16   8  16  16  16
#     4  11  22  38  61  85 112 145 182 222 265 316
#     4  11  24  41  60  85 117 147 180 223 266 311
#     4  10  18  29  49  74 101 131 165 210 258 307
#     4   9  19  35  54  77 104 136 175 217 261 311
#     4   9  16  26  42  66  97 130 165 207 253 303
#
# _framework density 19.470005
#
# number of rings (size 3 to 8) (size 9 to 14) (size 15 to 20)
#    0.000    2.111    0.000    5.333    0.000    3.111 
#    0.000    3.333    0.000    8.667    0.000    4.667 
#    0.000    0.000    0.000    0.000    0.000    0.000 
#
# Total GULP energy -446251.687416 kJ/mol
# GULP energy per Si atom -12395.880206 kJ/mol
# Density = 1.942569 g / cm^3
# Si number density = 19.470005 Si / 1000 Ang^3
#
#
#
# Elastic Constant Matrix: (Units=GPa)
#
#
# Indices 1 2 3 4 5 6 
#
# 1 80.9925 24.8851 46.5003 0.0000 0.0000 0.0000
# 2 24.8851 76.2835 45.4340 0.0000 0.0000 0.0000
# 3 46.5003 45.4340 188.1997 0.0000 0.0000 0.0000
# 4 0.0000 0.0000 0.0000 6.7131 0.0000 0.0000
# 5 0.0000 0.0000 0.0000 0.0000 6.2077 0.0000
# 6 0.0000 0.0000 0.0000 0.0000 0.0000 15.2122
#
#
#
# Elastic Compliance Matrix: (Units=1/GPa)
#
#
# Indices 1 2 3 4 5 6 
#
# 1 0.015005 -0.003138 -0.002950 0.000000 0.000000 0.000000
# 2 -0.003138 0.015967 -0.003079 0.000000 0.000000 0.000000
# 3 -0.002950 -0.003079 0.006786 0.000000 0.000000 0.000000
# 4 0.000000 0.000000 0.000000 0.148963 0.000000 0.000000
# 5 0.000000 0.000000 0.000000 0.000000 0.161092 0.000000
# 6 0.000000 0.000000 0.000000 0.000000 0.000000 0.065737
#
#
# Mechanical properties :
#
#
# Convention : Reuss Voigt Hill
#
# Bulk Modulus (GPa) = 51.48532 64.34605 57.91568
# Shear Modulus (GPa) = 11.40625 20.87034 16.13830
#
# Velocity S-wave (km/s) = 2.42303 3.27757 2.88215
# Velocity P-wave (km/s) = 5.85909 6.88795 6.39425
#
# Compressibility (1/GPa) = 0.01942301
#
# Stress axis : x y z
#
# Youngs Moduli (GPa) = 66.64664 62.63067 147.36851
#
# Poissons Ratio (x) = 0.19653 0.43470
# Poissons Ratio (y) = 0.20913 0.45379
# Poissons Ratio (z) = 0.19659 0.19286
#
# Static dielectric constant tensor:
#      x y z
#    x 3.524030 0.000000 0.000000 
#    y 0.000000 3.367300 0.000000 
#    z 0.000000 0.000000 4.429400 
# 
# 
# High freq. dielectric constant tensor:
#      x y z
#    x 1.750590 0.000000 0.000000 
#    y 0.000000 1.727460 0.000000 
#    z 0.000000 0.000000 1.789550 
# 
# From -- ./inp_files/67067.got.cif
#   From: 2010.03.12/outbox.cif.g09.slc.cpg/sg65_34_cif.got.tgz:67067.got - 2010.04.10 20:52:16.
