data_PCOD8266861
_publ_section_title
;
Structure prediction by ZEFSAII (Michael W. Deem and Ramdas Pophale) SiO2 
 PCOD8266861
Probable space group: C M M M
;
_chemical_formula_sum "Si O2"
_cell_formula_units_Z 96
_cell_length_a 29.409382
_cell_length_b 8.692527
_cell_length_c 20.618822
_cell_angle_alpha 90.000000
_cell_angle_beta 90.000000
_cell_angle_gamma 90.000000
_cell_volume 5271.033741
_symmetry_space_group_name_H-M "C M M M"
_symmetry_group_IT_number 65
_symmetry_cell_setting 'orthorhombic'
loop_
_space_group_symop_operation_xyz
x,y,z
-x,-y,z
x,-y,-z
-x,y,-z
-x,-y,-z
x,y,-z
-x,y,z
x,-y,z
1/2+x,1/2+y,z
1/2-x,1/2-y,z
1/2+x,1/2-y,-z
1/2-x,1/2+y,-z
1/2-x,1/2-y,-z
1/2+x,1/2+y,-z
1/2-x,1/2+y,z
1/2+x,1/2-y,z
loop_
_atom_site_type_symbol
_atom_site_label
_atom_site_fract_x
_atom_site_fract_y
_atom_site_fract_z
Si Si1 0.549280 0.682522 0.119767
Si Si2 0.644937 0.679841 0.073287
Si Si3 0.299894 0.181474 0.811085
Si Si4 0.855515 0.182648 0.692246
Si Si5 0.548955 0.682426 0.733904
Si Si6 0.702147 0.681588 0.427697
O O1 0.500000 0.742162 0.092496
O O2 0.548474 0.500000 0.118462
O O3 0.592682 0.740849 0.078939
O O4 0.555481 0.743286 0.193023
O O5 0.647419 0.500000 0.091592
O O6 0.677875 0.771640 0.120736
O O7 0.661509 0.709443 0.000000
O O8 0.250000 0.250000 0.805556
O O9 0.329736 0.240782 0.751675
O O10 0.296275 0.000000 0.807400
O O11 0.908163 0.238924 0.691502
O O12 0.835337 0.238438 0.623584
O O13 0.851422 0.000000 0.700950
O O14 0.500000 0.742467 0.706172
O O15 0.548258 0.500000 0.734908
O O16 0.688747 0.739691 0.500000
O O17 0.706727 0.500000 0.426724
O O18 0.750000 0.750000 0.405440
#
# Coordination Sequence:
#
# PCOD8266861 Si02
#       6
#    16  16  16  16  16  16
#     4   8  13  24  46  76 105 129 160 203 246 292
#     4  10  20  35  55  77 102 132 168 209 253 301
#     4  12  25  39  55  74  99 129 167 213 257 306
#     4  10  18  32  55  78 104 134 169 211 249 293
#     4   8  13  23  45  75 102 130 165 204 245 290
#     4   9  18  31  48  73 104 137 169 205 252 302
#
# _framework density 18.212747
#
# number of rings (size 3 to 8) (size 9 to 14) (size 15 to 20)
#    0.000    2.500    1.667    3.000    0.000    3.000 
#    0.000    1.667    0.000    2.500    0.000    4.667 
#    0.000    0.000    0.000    5.667    0.000    6.000 
#
# Total GULP energy -594820.333346 kJ/mol
# GULP energy per Si atom -12392.090278 kJ/mol
# Density = 1.817129 g / cm^3
# Si number density = 18.212747 Si / 1000 Ang^3
#
#
#
# Elastic Constant Matrix: (Units=GPa)
#
#
# Indices 1 2 3 4 5 6 
#
# 1 162.7526 32.6047 74.0575 0.0000 0.0000 0.0000
# 2 32.6047 37.9833 27.6465 0.0000 0.0000 0.0000
# 3 74.0575 27.6465 106.8543 0.0000 0.0000 0.0000
# 4 0.0000 0.0000 0.0000 14.2420 0.0000 0.0000
# 5 0.0000 0.0000 0.0000 0.0000 38.4659 0.0000
# 6 0.0000 0.0000 0.0000 0.0000 0.0000 16.8867
#
#
#
# Elastic Compliance Matrix: (Units=1/GPa)
#
#
# Indices 1 2 3 4 5 6 
#
# 1 0.009473 -0.004131 -0.005497 0.000000 0.000000 0.000000
# 2 -0.004131 0.034237 -0.005995 0.000000 0.000000 0.000000
# 3 -0.005497 -0.005995 0.014719 0.000000 0.000000 0.000000
# 4 0.000000 0.000000 0.000000 0.070215 0.000000 0.000000
# 5 0.000000 0.000000 0.000000 0.000000 0.025997 0.000000
# 6 0.000000 0.000000 0.000000 0.000000 0.000000 0.059218
#
#
# Mechanical properties :
#
#
# Convention : Reuss Voigt Hill
#
# Bulk Modulus (GPa) = 36.78664 64.02309 50.40486
# Shear Modulus (GPa) = 19.67218 25.47101 22.57160
#
# Velocity S-wave (km/s) = 3.29010 3.74375 3.52423
# Velocity P-wave (km/s) = 5.88856 7.34280 6.65552
#
# Compressibility (1/GPa) = 0.02718378
#
# Stress axis : x y z
#
# Youngs Moduli (GPa) = 105.56338 29.20826 67.93810
#
# Poissons Ratio (x) = 0.12065 0.37343
# Poissons Ratio (y) = 0.43606 0.40731
# Poissons Ratio (z) = 0.58025 0.17511
#
# Static dielectric constant tensor:
#      x y z
#    x 4.179360 0.000000 0.000000 
#    y 0.000000 2.990630 0.000000 
#    z 0.000000 0.000000 3.435480 
# 
# 
# High freq. dielectric constant tensor:
#      x y z
#    x 1.721320 0.000000 0.000000 
#    y 0.000000 1.663680 0.000000 
#    z 0.000000 0.000000 1.690120 
# 
# From -- ./inp_files/60175.got.cif
#   From: 2010.03.12/outbox.cif.g09.slc.cpg/sg65_31_cif.got.tgz:60175.got - 2010.04.10 20:52:16.
