data_PCOD8266455
_publ_section_title
;
Structure prediction by ZEFSAII (Michael W. Deem and Ramdas Pophale) SiO2 
 PCOD8266455
Probable space group: C M M M
;
_chemical_formula_sum "Si O2"
_cell_formula_units_Z 128
_cell_length_a 16.954864
_cell_length_b 17.756869
_cell_length_c 23.721157
_cell_angle_alpha 90.000000
_cell_angle_beta 90.000000
_cell_angle_gamma 90.000000
_cell_volume 7141.617224
_symmetry_space_group_name_H-M "C M M M"
_symmetry_group_IT_number 65
_symmetry_cell_setting 'orthorhombic'
loop_
_space_group_symop_operation_xyz
x,y,z
-x,-y,z
x,-y,-z
-x,y,-z
-x,-y,-z
x,y,-z
-x,y,z
x,-y,z
1/2+x,1/2+y,z
1/2-x,1/2-y,z
1/2+x,1/2-y,-z
1/2-x,1/2+y,-z
1/2-x,1/2-y,-z
1/2+x,1/2+y,-z
1/2-x,1/2+y,z
1/2+x,1/2-y,z
loop_
_atom_site_type_symbol
_atom_site_label
_atom_site_fract_x
_atom_site_fract_y
_atom_site_fract_z
Si Si1 0.192069 0.181473 0.936591
Si Si2 0.906326 0.584496 0.563573
Si Si3 0.171487 0.585076 0.270937
Si Si4 0.587731 0.308951 0.829357
Si Si5 0.087202 0.364272 0.169601
Si Si6 0.689725 0.688422 0.727345
Si Si7 0.908994 0.301465 0.657457
Si Si8 0.663900 0.085720 0.936943
O O1 0.250000 0.250000 0.921683
O O2 0.123427 0.175375 0.890752
O O3 0.243714 0.105905 0.932650
O O4 0.156603 0.191270 0.000000
O O5 0.877094 0.600004 0.500000
O O6 0.877060 0.500000 0.582586
O O7 0.875245 0.654557 0.601853
O O8 0.000000 0.584874 0.566840
O O9 0.167297 0.500000 0.292593
O O10 0.154923 0.589902 0.203717
O O11 0.255615 0.618434 0.292204
O O12 0.098767 0.634530 0.294780
O O13 0.500000 0.343316 0.830097
O O14 0.585970 0.222014 0.811901
O O15 0.635680 0.345444 0.777299
O O16 0.109716 0.364837 0.103820
O O17 0.000000 0.399970 0.177855
O O18 0.750000 0.750000 0.753436
O O19 0.641663 0.726661 0.674714
O O20 0.000000 0.276688 0.651046
O O21 0.653867 0.000000 0.919220
O O22 0.633028 0.101612 0.000000
#
# Coordination Sequence:
#
# PCOD8266455 Si02
#       8
#    16  16  16  16  16  16  16  16
#     4  10  19  33  52  69  87 116 155 192 229 288
#     4   8  14  25  43  72 111 146 169 196 241 292
#     4  11  22  33  49  72  98 130 166 205 247 294
#     4  11  20  32  51  71  93 119 151 198 248 286
#     4  11  21  32  48  72  98 123 155 196 243 295
#     4  10  19  33  50  67  95 132 166 197 242 295
#     4  10  18  30  51  77 102 131 167 205 242 284
#     4  10  21  35  50  68  92 123 152 184 236 297
#
# _framework density 17.923110999999999
#
# number of rings (size 3 to 8) (size 9 to 14) (size 15 to 20)
#    0.000    1.875    3.750    3.000    0.000    2.750 
#    0.000    1.875    0.000    6.000    0.000    1.750 
#    0.000    0.000    0.000    3.125    0.000    0.000 
#
# Total GULP energy -793062.667274 kJ/mol
# GULP energy per Si atom -12391.604176 kJ/mol
# Density = 1.788232 g / cm^3
# Si number density = 17.923111 Si / 1000 Ang^3
#
#
#
# Elastic Constant Matrix: (Units=GPa)
#
#
# Indices 1 2 3 4 5 6 
#
# 1 79.7482 14.3850 30.0010 0.0000 0.0000 0.0000
# 2 14.3850 40.5410 12.8998 0.0000 0.0000 0.0000
# 3 30.0010 12.8998 87.7540 0.0000 0.0000 0.0000
# 4 0.0000 0.0000 0.0000 15.7643 0.0000 0.0000
# 5 0.0000 0.0000 0.0000 0.0000 19.0719 0.0000
# 6 0.0000 0.0000 0.0000 0.0000 0.0000 14.1748
#
#
#
# Elastic Compliance Matrix: (Units=1/GPa)
#
#
# Indices 1 2 3 4 5 6 
#
# 1 0.014944 -0.003857 -0.004542 0.000000 0.000000 0.000000
# 2 -0.003857 0.026872 -0.002631 0.000000 0.000000 0.000000
# 3 -0.004542 -0.002631 0.013335 0.000000 0.000000 0.000000
# 4 0.000000 0.000000 0.000000 0.063435 0.000000 0.000000
# 5 0.000000 0.000000 0.000000 0.000000 0.052433 0.000000
# 6 0.000000 0.000000 0.000000 0.000000 0.000000 0.070548
#
#
# Mechanical properties :
#
#
# Convention : Reuss Voigt Hill
#
# Bulk Modulus (GPa) = 30.22072 35.84610 33.03341
# Shear Modulus (GPa) = 18.20443 19.85268 19.02856
#
# Velocity S-wave (km/s) = 3.19046 3.33176 3.26187
# Velocity P-wave (km/s) = 5.51996 5.90290 5.71464
#
# Compressibility (1/GPa) = 0.03308988
#
# Stress axis : x y z
#
# Youngs Moduli (GPa) = 66.91679 37.21298 74.99005
#
# Poissons Ratio (x) = 0.14354 0.34060
# Poissons Ratio (y) = 0.25812 0.19734
# Poissons Ratio (z) = 0.30393 0.09793
#
# Static dielectric constant tensor:
#      x y z
#    x 3.254680 0.000000 0.000000 
#    y 0.000000 3.182490 0.000000 
#    z 0.000000 0.000000 3.399810 
# 
# 
# High freq. dielectric constant tensor:
#      x y z
#    x 1.671690 0.000000 0.000000 
#    y 0.000000 1.664440 0.000000 
#    z 0.000000 0.000000 1.688130 
# 
# From -- ./inp_files/70674.got.cif
#   From: 2010.03.12/outbox.cif.g09.slc.cpg/sg65_36_cif.got.tgz:70674.got - 2010.04.10 20:52:16.
