data_PCOD8266867
_publ_section_title
;
Structure prediction by ZEFSAII (Michael W. Deem and Ramdas Pophale) SiO2 
 PCOD8266867
Probable space group: C M M M
;
_chemical_formula_sum "Si O2"
_cell_formula_units_Z 80
_cell_length_a 21.206859
_cell_length_b 14.305806
_cell_length_c 13.970531
_cell_angle_alpha 90.000000
_cell_angle_beta 90.000000
_cell_angle_gamma 90.000000
_cell_volume 4238.396609
_symmetry_space_group_name_H-M "C M M M"
_symmetry_group_IT_number 65
_symmetry_cell_setting 'orthorhombic'
loop_
_space_group_symop_operation_xyz
x,y,z
-x,-y,z
x,-y,-z
-x,y,-z
-x,-y,-z
x,y,-z
-x,y,z
x,-y,z
1/2+x,1/2+y,z
1/2-x,1/2-y,z
1/2+x,1/2-y,-z
1/2-x,1/2+y,-z
1/2-x,1/2-y,-z
1/2+x,1/2+y,-z
1/2-x,1/2+y,z
1/2+x,1/2-y,z
loop_
_atom_site_type_symbol
_atom_site_label
_atom_site_fract_x
_atom_site_fract_y
_atom_site_fract_z
Si Si1 0.572382 0.602209 0.210758
Si Si2 0.721073 0.105433 0.805500
Si Si3 0.197134 0.329496 0.605942
Si Si4 0.428781 0.282192 0.392731
Si Si5 0.665517 0.720145 0.888790
O O1 0.500000 0.594114 0.185740
O O2 0.604460 0.500000 0.198267
O O3 0.583741 0.633442 0.319927
O O4 0.597604 0.677941 0.134625
O O5 0.711898 0.098030 0.690724
O O6 0.668019 0.172237 0.853347
O O7 0.787286 0.153771 0.829767
O O8 0.716968 0.000000 0.847128
O O9 0.201082 0.376338 0.500000
O O10 0.250000 0.250000 0.613125
O O11 0.125566 0.294241 0.623321
O O12 0.423256 0.323312 0.500000
O O13 0.500000 0.240092 0.376460
O O14 0.682063 0.715182 0.000000
#
# Coordination Sequence:
#
# PCOD8266867 Si02
#       5
#    16  16  16  16  16
#     4  10  20  34  55  83 112 144 182 222 271 329
#     4  11  21  36  58  82 107 139 180 223 273 330
#     4  10  18  32  55  81 112 145 177 217 269 328
#     4   9  17  31  53  79 110 148 184 219 265 325
#     4  11  23  39  56  78 109 142 182 232 280 323
#
# _framework density 18.875060999999999
#
# number of rings (size 3 to 8) (size 9 to 14) (size 15 to 20)
#    0.000    1.800    4.000    1.800    0.000    4.000 
#    0.000    3.000    0.000    8.400    0.000    4.200 
#    0.000    0.000    0.000    0.000    0.000    0.000 
#
# Total GULP energy -495660.354165 kJ/mol
# GULP energy per Si atom -12391.508854 kJ/mol
# Density = 1.883210 g / cm^3
# Si number density = 18.875061 Si / 1000 Ang^3
#
#
#
# Elastic Constant Matrix: (Units=GPa)
#
#
# Indices 1 2 3 4 5 6 
#
# 1 64.1814 28.4531 34.8977 0.0000 0.0000 0.0000
# 2 28.4531 119.5812 43.0993 0.0000 0.0000 0.0000
# 3 34.8977 43.0993 118.9404 0.0000 0.0000 0.0000
# 4 0.0000 0.0000 0.0000 11.4274 0.0000 0.0000
# 5 0.0000 0.0000 0.0000 0.0000 9.3821 0.0000
# 6 0.0000 0.0000 0.0000 0.0000 0.0000 19.8357
#
#
#
# Elastic Compliance Matrix: (Units=1/GPa)
#
#
# Indices 1 2 3 4 5 6 
#
# 1 0.019403 -0.002950 -0.004624 0.000000 0.000000 0.000000
# 2 -0.002950 0.010067 -0.002782 0.000000 0.000000 0.000000
# 3 -0.004624 -0.002782 0.010772 0.000000 0.000000 0.000000
# 4 0.000000 0.000000 0.000000 0.087509 0.000000 0.000000
# 5 0.000000 0.000000 0.000000 0.000000 0.106586 0.000000
# 6 0.000000 0.000000 0.000000 0.000000 0.000000 0.050414
#
#
# Mechanical properties :
#
#
# Convention : Reuss Voigt Hill
#
# Bulk Modulus (GPa) = 51.20393 57.28925 54.24659
# Shear Modulus (GPa) = 16.02699 21.21259 18.61979
#
# Velocity S-wave (km/s) = 2.91711 3.35601 3.14423
# Velocity P-wave (km/s) = 6.20748 6.74053 6.47949
#
# Compressibility (1/GPa) = 0.01952975
#
# Stress axis : x y z
#
# Youngs Moduli (GPa) = 51.53873 99.33141 92.82922
#
# Poissons Ratio (x) = 0.29305 0.42923
# Poissons Ratio (y) = 0.15205 0.25829
# Poissons Ratio (z) = 0.23831 0.27638
#
# Static dielectric constant tensor:
#      x y z
#    x 3.622920 0.000000 0.000000 
#    y 0.000000 3.288810 0.000000 
#    z 0.000000 0.000000 3.640320 
# 
# 
# High freq. dielectric constant tensor:
#      x y z
#    x 1.732990 0.000000 0.000000 
#    y 0.000000 1.698590 0.000000 
#    z 0.000000 0.000000 1.745150 
# 
# From -- ./inp_files/40505.got.cif
#   From: 2010.03.12/outbox.cif.g09.slc.cpg/sg65_21_cif.got.tgz:40505.got - 2010.04.10 20:52:16.
