data_PCOD8266067
_publ_section_title
;
Structure prediction by ZEFSAII (Michael W. Deem and Ramdas Pophale) SiO2 
 PCOD8266067
Probable space group: C M M M
;
_chemical_formula_sum "Si O2"
_cell_formula_units_Z 104
_cell_length_a 9.661690
_cell_length_b 28.378464
_cell_length_c 22.913186
_cell_angle_alpha 90.000000
_cell_angle_beta 90.000000
_cell_angle_gamma 90.000000
_cell_volume 6282.427199
_symmetry_space_group_name_H-M "C M M M"
_symmetry_group_IT_number 65
_symmetry_cell_setting 'orthorhombic'
loop_
_space_group_symop_operation_xyz
x,y,z
-x,-y,z
x,-y,-z
-x,y,-z
-x,-y,-z
x,y,-z
-x,y,z
x,-y,z
1/2+x,1/2+y,z
1/2-x,1/2-y,z
1/2+x,1/2-y,-z
1/2-x,1/2+y,-z
1/2-x,1/2-y,-z
1/2+x,1/2+y,-z
1/2-x,1/2+y,z
1/2+x,1/2-y,z
loop_
_atom_site_type_symbol
_atom_site_label
_atom_site_fract_x
_atom_site_fract_y
_atom_site_fract_z
Si Si1 0.335776 0.105564 0.114855
Si Si2 0.337964 0.107012 0.658381
Si Si3 0.664870 0.053050 0.772118
Si Si4 0.340936 0.553712 0.431989
Si Si5 0.834817 0.446155 0.000000
Si Si6 0.158208 0.293272 0.708924
Si Si7 0.660321 0.205853 0.843899
O O1 0.500000 0.100830 0.116102
O O2 0.273350 0.078592 0.170826
O O3 0.276187 0.081323 0.056509
O O4 0.294249 0.160602 0.117938
O O5 0.500000 0.097431 0.648489
O O6 0.281057 0.078667 0.714217
O O7 0.255911 0.090112 0.601853
O O8 0.308122 0.162062 0.668618
O O9 0.500000 0.055096 0.773790
O O10 0.720782 0.000000 0.771576
O O11 0.317098 0.562970 0.500000
O O12 0.500000 0.563011 0.415101
O O13 0.300001 0.500000 0.416199
O O14 0.780616 0.500000 0.000000
O O15 0.000000 0.445749 0.000000
O O16 0.250000 0.250000 0.686632
O O17 0.190029 0.306102 0.776207
O O18 0.000000 0.277745 0.702141
O O19 0.500000 0.218219 0.853770
O O20 0.750000 0.250000 0.865625
#
# Coordination Sequence:
#
# PCOD8266067 Si02
#       7
#    16  16  16  16   8  16  16
#     4   9  15  25  39  58  88 123 154 189 232 276
#     4  10  18  29  47  73  97 118 153 199 240 279
#     4   9  15  23  38  61  89 118 146 183 235 284
#     4   9  19  35  51  68  96 133 164 188 222 273
#     4   9  16  24  37  60  89 123 161 193 226 277
#     4   9  17  29  45  67  95 123 154 191 235 286
#     4   9  16  28  45  64  90 121 152 188 233 281
#
# _framework density 16.554110999999999
#
# number of rings (size 3 to 8) (size 9 to 14) (size 15 to 20)
#    0.000    2.846    1.538    1.385    0.000    3.692 
#    0.000    1.154    0.000    0.462    0.000    0.000 
#    0.000    2.462    0.000    0.000    0.000    0.308 
#
# Total GULP energy -644723.182779 kJ/mol
# GULP energy per Si atom -12398.522746 kJ/mol
# Density = 1.651643 g / cm^3
# Si number density = 16.554111 Si / 1000 Ang^3
#
#
#
# Elastic Constant Matrix: (Units=GPa)
#
#
# Indices 1 2 3 4 5 6 
#
# 1 42.3791 53.0481 36.6901 0.0000 0.0000 0.0000
# 2 53.0481 141.6593 65.2242 0.0000 0.0000 0.0000
# 3 36.6901 65.2242 91.5453 0.0000 0.0000 0.0000
# 4 0.0000 0.0000 0.0000 29.9946 0.0000 0.0000
# 5 0.0000 0.0000 0.0000 0.0000 11.4429 0.0000
# 6 0.0000 0.0000 0.0000 0.0000 0.0000 25.1933
#
#
#
# Elastic Compliance Matrix: (Units=1/GPa)
#
#
# Indices 1 2 3 4 5 6 
#
# 1 0.049830 -0.014086 -0.009935 0.000000 0.000000 0.000000
# 2 -0.014086 0.014487 -0.004676 0.000000 0.000000 0.000000
# 3 -0.009935 -0.004676 0.018237 0.000000 0.000000 0.000000
# 4 0.000000 0.000000 0.000000 0.033339 0.000000 0.000000
# 5 0.000000 0.000000 0.000000 0.000000 0.087390 0.000000
# 6 0.000000 0.000000 0.000000 0.000000 0.000000 0.039693
#
#
# Mechanical properties :
#
#
# Convention : Reuss Voigt Hill
#
# Bulk Modulus (GPa) = 39.74650 65.05649 52.40149
# Shear Modulus (GPa) = 16.19389 21.36759 18.78074
#
# Velocity S-wave (km/s) = 3.13108 3.59663 3.37190
# Velocity P-wave (km/s) = 6.09374 7.52544 6.84711
#
# Compressibility (1/GPa) = 0.02515945
#
# Stress axis : x y z
#
# Youngs Moduli (GPa) = 20.06830 69.02705 54.83233
#
# Poissons Ratio (x) = 0.97228 0.54478
# Poissons Ratio (y) = 0.28267 0.25642
# Poissons Ratio (z) = 0.19939 0.32280
#
# Static dielectric constant tensor:
#      x y z
#    x 2.700380 0.000000 0.000000 
#    y 0.000000 3.209110 0.000000 
#    z 0.000000 0.000000 3.051260 
# 
# 
# High freq. dielectric constant tensor:
#      x y z
#    x 1.591280 0.000000 0.000000 
#    y 0.000000 1.646810 0.000000 
#    z 0.000000 0.000000 1.625410 
# 
# From -- ./inp_files/60911.got.cif
#   From: 2010.03.12/outbox.cif.g09.slc.cpg/sg65_31_cif.got.tgz:60911.got - 2010.04.10 20:52:16.
