data_PCOD8266128
_publ_section_title
;
Structure prediction by ZEFSAII (Michael W. Deem and Ramdas Pophale) SiO2 
 PCOD8266128
Probable space group: C M M M
;
_chemical_formula_sum "Si O2"
_cell_formula_units_Z 96
_cell_length_a 21.996625
_cell_length_b 25.599030
_cell_length_c 9.596337
_cell_angle_alpha 90.000000
_cell_angle_beta 90.000000
_cell_angle_gamma 90.000000
_cell_volume 5403.623120
_symmetry_space_group_name_H-M "C M M M"
_symmetry_group_IT_number 65
_symmetry_cell_setting 'orthorhombic'
loop_
_space_group_symop_operation_xyz
x,y,z
-x,-y,z
x,-y,-z
-x,y,-z
-x,-y,-z
x,y,-z
-x,y,z
x,-y,z
1/2+x,1/2+y,z
1/2-x,1/2-y,z
1/2+x,1/2-y,-z
1/2-x,1/2+y,-z
1/2-x,1/2-y,-z
1/2+x,1/2+y,-z
1/2-x,1/2+y,z
1/2+x,1/2-y,z
loop_
_atom_site_type_symbol
_atom_site_label
_atom_site_fract_x
_atom_site_fract_y
_atom_site_fract_z
Si Si1 0.568435 0.058569 0.165688
Si Si2 0.200837 0.858067 0.165057
Si Si3 0.838989 0.354568 0.834183
Si Si4 0.873242 0.241544 0.165108
Si Si5 0.000000 0.904940 0.655729
Si Si6 0.000000 0.196353 0.164938
Si Si7 0.368670 0.441409 0.657334
O O1 0.500000 0.073111 0.215404
O O2 0.616491 0.100487 0.227419
O O3 0.585458 0.000000 0.217769
O O4 0.570845 0.059834 0.000000
O O5 0.270215 0.865342 0.213151
O O6 0.175177 0.801933 0.216403
O O7 0.162498 0.903688 0.233293
O O8 0.193579 0.863171 0.000000
O O9 0.857478 0.298185 0.771663
O O10 0.843942 0.353694 0.000000
O O11 0.940767 0.227468 0.216372
O O12 0.870389 0.244657 0.000000
O O13 0.941130 0.940660 0.678086
O O14 0.000000 0.880356 0.500000
O O15 0.000000 0.860126 0.769361
O O16 0.000000 0.188734 0.000000
O O17 0.351407 0.424334 0.500000
O O18 0.345855 0.500000 0.686969
#
# Coordination Sequence:
#
# PCOD8266128 Si02
#       7
#    16  16  16  16   8   8  16
#     4   8  14  24  37  56  87 123 156 194 238 282
#     4  10  19  32  49  71 101 131 160 201 247 290
#     4   9  17  27  44  68  96 130 163 194 237 295
#     4   9  17  28  44  68  98 128 160 197 240 287
#     4  10  19  34  54  72  94 127 167 206 248 290
#     4  10  18  29  49  75 101 128 162 205 246 288
#     4  10  21  36  53  72  96 129 169 207 244 293
#
# _framework density 17.765858999999999
#
# number of rings (size 3 to 8) (size 9 to 14) (size 15 to 20)
#    0.000    2.667    1.667    1.250    1.167    4.000 
#    0.000    1.667    0.000    4.500    0.000    0.000 
#    0.000    0.000    0.000    3.667    0.000    3.000 
#
# Total GULP energy -595013.534369 kJ/mol
# GULP energy per Si atom -12396.115299 kJ/mol
# Density = 1.772542 g / cm^3
# Si number density = 17.765859 Si / 1000 Ang^3
#
#
#
# Elastic Constant Matrix: (Units=GPa)
#
#
# Indices 1 2 3 4 5 6 
#
# 1 140.7108 77.1626 19.4622 0.0000 0.0000 0.0000
# 2 77.1626 140.6126 22.4816 0.0000 0.0000 0.0000
# 3 19.4622 22.4816 18.3596 0.0000 0.0000 0.0000
# 4 0.0000 0.0000 0.0000 4.6081 0.0000 0.0000
# 5 0.0000 0.0000 0.0000 0.0000 11.1449 0.0000
# 6 0.0000 0.0000 0.0000 0.0000 0.0000 24.2105
#
#
#
# Elastic Compliance Matrix: (Units=1/GPa)
#
#
# Indices 1 2 3 4 5 6 
#
# 1 0.010534 -0.004968 -0.005083 0.000000 0.000000 0.000000
# 2 -0.004968 0.011186 -0.008431 0.000000 0.000000 0.000000
# 3 -0.005083 -0.008431 0.070180 0.000000 0.000000 0.000000
# 4 0.000000 0.000000 0.000000 0.217009 0.000000 0.000000
# 5 0.000000 0.000000 0.000000 0.000000 0.089727 0.000000
# 6 0.000000 0.000000 0.000000 0.000000 0.000000 0.041304
#
#
# Mechanical properties :
#
#
# Convention : Reuss Voigt Hill
#
# Bulk Modulus (GPa) = 18.20324 59.76619 38.98472
# Shear Modulus (GPa) = 10.09657 20.03114 15.06385
#
# Velocity S-wave (km/s) = 2.38652 3.36148 2.91505
# Velocity P-wave (km/s) = 4.22639 6.98428 5.77246
#
# Compressibility (1/GPa) = 0.05493529
#
# Stress axis : x y z
#
# Youngs Moduli (GPa) = 94.92865 89.39780 14.24905
#
# Poissons Ratio (x) = 0.44413 0.07243
# Poissons Ratio (y) = 0.47161 0.12013
# Poissons Ratio (z) = 0.48257 0.75371
#
# Static dielectric constant tensor:
#      x y z
#    x 3.741560 0.000000 0.000000 
#    y 0.000000 3.508100 0.000000 
#    z 0.000000 0.000000 2.731310 
# 
# 
# High freq. dielectric constant tensor:
#      x y z
#    x 1.699070 0.000000 0.000000 
#    y 0.000000 1.696270 0.000000 
#    z 0.000000 0.000000 1.621240 
# 
# From -- ./inp_files/14433.got.cif
#   From: 2010.03.12/outbox.cif.g09.slc.cpg/sg65_8_cif.got.tgz:14433.got - 2010.04.10 20:52:16.
