data_PCOD8266253
_publ_section_title
;
Structure prediction by ZEFSAII (Michael W. Deem and Ramdas Pophale) SiO2 
 PCOD8266253
Probable space group: C M M M
;
_chemical_formula_sum "Si O2"
_cell_formula_units_Z 72
_cell_length_a 28.849336
_cell_length_b 8.864008
_cell_length_c 15.652818
_cell_angle_alpha 90.000000
_cell_angle_beta 90.000000
_cell_angle_gamma 90.000000
_cell_volume 4002.750282
_symmetry_space_group_name_H-M "C M M M"
_symmetry_group_IT_number 65
_symmetry_cell_setting 'orthorhombic'
loop_
_space_group_symop_operation_xyz
x,y,z
-x,-y,z
x,-y,-z
-x,y,-z
-x,-y,-z
x,y,-z
-x,y,z
x,-y,z
1/2+x,1/2+y,z
1/2-x,1/2-y,z
1/2+x,1/2-y,-z
1/2-x,1/2+y,-z
1/2-x,1/2-y,-z
1/2+x,1/2+y,-z
1/2-x,1/2+y,z
1/2+x,1/2-y,z
loop_
_atom_site_type_symbol
_atom_site_label
_atom_site_fract_x
_atom_site_fract_y
_atom_site_fract_z
Si Si1 0.298699 0.324789 0.669670
Si Si2 0.947394 0.322599 0.595981
Si Si3 0.447725 0.320761 0.094176
Si Si4 0.199173 0.680062 0.500000
Si Si5 0.892259 0.825699 0.253231
O O1 0.289414 0.500000 0.648997
O O2 0.250000 0.250000 0.697261
O O3 0.322745 0.244132 0.587293
O O4 0.336377 0.304003 0.745267
O O5 0.930757 0.279844 0.500000
O O6 0.944446 0.500000 0.608649
O O7 0.914290 0.246700 0.663717
O O8 0.000000 0.266529 0.609990
O O9 0.500000 0.269042 0.116937
O O10 0.444942 0.500000 0.092128
O O11 0.412796 0.253926 0.165778
O O12 0.433800 0.258393 0.000000
O O13 0.197787 0.500000 0.500000
O O14 0.250000 0.750000 0.500000
O O15 0.905677 0.000000 0.256501
#
# Coordination Sequence:
#
# PCOD8266253 Si02
#       5
#    16  16  16   8  16
#     4  10  20  33  47  67  96 127 163 206 247 288
#     4   9  19  34  48  66  97 134 166 193 230 289
#     4   8  14  27  49  76 102 124 150 192 247 299
#     4  10  18  30  48  66  87 120 161 202 244 285
#     4  10  20  31  49  75  98 123 162 208 246 284
#
# _framework density 17.987632999999999
#
# number of rings (size 3 to 8) (size 9 to 14) (size 15 to 20)
#    0.000    2.667    0.000    5.000    1.556    3.556 
#    0.000    1.111    0.000    1.333    0.000    3.111 
#    0.000    0.000    0.000    0.000    0.000    0.889 
#
# Total GULP energy -446106.606755 kJ/mol
# GULP energy per Si atom -12391.850188 kJ/mol
# Density = 1.794669 g / cm^3
# Si number density = 17.987633 Si / 1000 Ang^3
#
#
#
# Elastic Constant Matrix: (Units=GPa)
#
#
# Indices 1 2 3 4 5 6 
#
# 1 100.2628 34.4515 79.8087 0.0000 0.0000 0.0000
# 2 34.4515 64.4447 31.3505 0.0000 0.0000 0.0000
# 3 79.8087 31.3505 128.5286 0.0000 0.0000 0.0000
# 4 0.0000 0.0000 0.0000 5.2654 0.0000 0.0000
# 5 0.0000 0.0000 0.0000 0.0000 27.5838 0.0000
# 6 0.0000 0.0000 0.0000 0.0000 0.0000 21.3460
#
#
#
# Elastic Compliance Matrix: (Units=1/GPa)
#
#
# Indices 1 2 3 4 5 6 
#
# 1 0.021389 -0.005643 -0.011905 0.000000 0.000000 0.000000
# 2 -0.005643 0.019095 -0.001154 0.000000 0.000000 0.000000
# 3 -0.011905 -0.001154 0.015454 0.000000 0.000000 0.000000
# 4 0.000000 0.000000 0.000000 0.189921 0.000000 0.000000
# 5 0.000000 0.000000 0.000000 0.000000 0.036253 0.000000
# 6 0.000000 0.000000 0.000000 0.000000 0.000000 0.046847
#
#
# Mechanical properties :
#
#
# Convention : Reuss Voigt Hill
#
# Bulk Modulus (GPa) = 53.95192 64.93969 59.44581
# Shear Modulus (GPa) = 13.42136 20.68073 17.05104
#
# Velocity S-wave (km/s) = 2.73453 3.39443 3.08219
# Velocity P-wave (km/s) = 6.32686 7.17939 6.76657
#
# Compressibility (1/GPa) = 0.01853502
#
# Stress axis : x y z
#
# Youngs Moduli (GPa) = 46.75296 52.36943 64.70811
#
# Poissons Ratio (x) = 0.29552 0.77034
# Poissons Ratio (y) = 0.26383 0.07465
# Poissons Ratio (z) = 0.55659 0.06042
#
# Static dielectric constant tensor:
#      x y z
#    x 3.371630 0.000000 0.000000 
#    y 0.000000 3.105020 0.000000 
#    z 0.000000 0.000000 3.970030 
# 
# 
# High freq. dielectric constant tensor:
#      x y z
#    x 1.694610 0.000000 0.000000 
#    y 0.000000 1.674720 0.000000 
#    z 0.000000 0.000000 1.682960 
# 
# From -- ./inp_files/36956.got.cif
#   From: 2010.03.12/outbox.cif.g09.slc.cpg/sg65_19_cif.got.tgz:36956.got - 2010.04.10 20:52:16.
