data_PCOD8266346
_publ_section_title
;
Structure prediction by ZEFSAII (Michael W. Deem and Ramdas Pophale) SiO2 
 PCOD8266346
Probable space group: C M M M
;
_chemical_formula_sum "Si O2"
_cell_formula_units_Z 88
_cell_length_a 27.601629
_cell_length_b 19.001789
_cell_length_c 9.590942
_cell_angle_alpha 90.000000
_cell_angle_beta 90.000000
_cell_angle_gamma 90.000000
_cell_volume 5030.260428
_symmetry_space_group_name_H-M "C M M M"
_symmetry_group_IT_number 65
_symmetry_cell_setting 'orthorhombic'
loop_
_space_group_symop_operation_xyz
x,y,z
-x,-y,z
x,-y,-z
-x,y,-z
-x,-y,-z
x,y,-z
-x,y,z
x,-y,z
1/2+x,1/2+y,z
1/2-x,1/2-y,z
1/2+x,1/2-y,-z
1/2-x,1/2+y,-z
1/2-x,1/2-y,-z
1/2+x,1/2+y,-z
1/2-x,1/2+y,z
1/2+x,1/2-y,z
loop_
_atom_site_type_symbol
_atom_site_label
_atom_site_fract_x
_atom_site_fract_y
_atom_site_fract_z
Si Si1 0.212732 0.416291 0.845149
Si Si2 0.680997 0.578422 0.834334
Si Si3 0.409030 0.330872 0.165778
Si Si4 0.000000 0.078209 0.164954
Si Si5 0.944238 0.296138 0.338516
Si Si6 0.874959 0.420221 0.660094
O O1 0.212413 0.500000 0.850397
O O2 0.265858 0.393048 0.788494
O O3 0.170398 0.388261 0.745255
O O4 0.203555 0.385443 0.000000
O O5 0.670914 0.500000 0.773054
O O6 0.640459 0.632772 0.781911
O O7 0.679321 0.573075 0.000000
O O8 0.452651 0.380749 0.216041
O O9 0.413856 0.257014 0.243555
O O10 0.409949 0.318210 0.000000
O O11 0.000000 0.000000 0.230752
O O12 0.000000 0.072260 0.000000
O O13 0.939429 0.274021 0.500000
O O14 0.922502 0.373678 0.312691
O O15 0.000000 0.297670 0.290680
O O16 0.859056 0.417944 0.500000
O O17 0.887412 0.500000 0.706810
#
# Coordination Sequence:
#
# PCOD8266346 Si02
#       6
#    16  16  16   8  16  16
#     4   8  14  27  48  73  99 125 152 189 240 286
#     4   8  14  26  47  74 101 128 160 197 233 272
#     4  10  18  30  49  73  98 127 163 199 233 275
#     4   9  16  26  45  73  98 121 158 204 237 261
#     4  10  21  36  51  67  94 129 157 192 247 297
#     4   9  18  33  53  74  92 116 157 202 240 286
#
# _framework density 17.494123999999999
#
# number of rings (size 3 to 8) (size 9 to 14) (size 15 to 20)
#    0.000    3.000    0.909    1.636    0.000    3.273 
#    0.000    3.636    0.000    9.273    0.000    3.818 
#    0.000    0.000    0.000    0.000    0.000    0.000 
#
# Total GULP energy -545430.859354 kJ/mol
# GULP energy per Si atom -12396.155894 kJ/mol
# Density = 1.745431 g / cm^3
# Si number density = 17.494124 Si / 1000 Ang^3
#
#
#
# Elastic Constant Matrix: (Units=GPa)
#
#
# Indices 1 2 3 4 5 6 
#
# 1 115.4013 50.7082 37.6502 0.0000 0.0000 0.0000
# 2 50.7082 86.0973 32.9846 0.0000 0.0000 0.0000
# 3 37.6502 32.9846 41.6548 0.0000 0.0000 0.0000
# 4 0.0000 0.0000 0.0000 21.8027 0.0000 0.0000
# 5 0.0000 0.0000 0.0000 0.0000 20.7230 0.0000
# 6 0.0000 0.0000 0.0000 0.0000 0.0000 17.4834
#
#
#
# Elastic Compliance Matrix: (Units=1/GPa)
#
#
# Indices 1 2 3 4 5 6 
#
# 1 0.013497 -0.004702 -0.008476 0.000000 0.000000 0.000000
# 2 -0.004702 0.018311 -0.010250 0.000000 0.000000 0.000000
# 3 -0.008476 -0.010250 0.039784 0.000000 0.000000 0.000000
# 4 0.000000 0.000000 0.000000 0.045866 0.000000 0.000000
# 5 0.000000 0.000000 0.000000 0.000000 0.048256 0.000000
# 6 0.000000 0.000000 0.000000 0.000000 0.000000 0.057197
#
#
# Mechanical properties :
#
#
# Convention : Reuss Voigt Hill
#
# Bulk Modulus (GPa) = 40.42578 53.98215 47.20396
# Shear Modulus (GPa) = 17.98492 20.12251 19.05371
#
# Velocity S-wave (km/s) = 3.20981 3.39520 3.30381
# Velocity P-wave (km/s) = 6.07417 6.80398 6.44941
#
# Compressibility (1/GPa) = 0.02473669
#
# Stress axis : x y z
#
# Youngs Moduli (GPa) = 74.09161 54.61284 25.13566
#
# Poissons Ratio (x) = 0.25678 0.21305
# Poissons Ratio (y) = 0.34837 0.25763
# Poissons Ratio (z) = 0.62800 0.55976
#
# Static dielectric constant tensor:
#      x y z
#    x 3.570560 0.000000 0.000000 
#    y 0.000000 3.162340 0.000000 
#    z 0.000000 0.000000 3.026140 
# 
# 
# High freq. dielectric constant tensor:
#      x y z
#    x 1.687040 0.000000 0.000000 
#    y 0.000000 1.659010 0.000000 
#    z 0.000000 0.000000 1.640380 
# 
# From -- ./inp_files/18271.got.cif
#   From: 2010.03.12/outbox.cif.g09.slc.cpg/sg65_10_cif.got.tgz:18271.got - 2010.04.10 20:52:16.
