data_PCOD8266375
_publ_section_title
;
Structure prediction by ZEFSAII (Michael W. Deem and Ramdas Pophale) SiO2 
 PCOD8266375
Probable space group: C M M M
;
_chemical_formula_sum "Si O2"
_cell_formula_units_Z 72
_cell_length_a 8.969767
_cell_length_b 29.044610
_cell_length_c 15.849330
_cell_angle_alpha 90.000000
_cell_angle_beta 90.000000
_cell_angle_gamma 90.000000
_cell_volume 4129.121091
_symmetry_space_group_name_H-M "C M M M"
_symmetry_group_IT_number 65
_symmetry_cell_setting 'orthorhombic'
loop_
_space_group_symop_operation_xyz
x,y,z
-x,-y,z
x,-y,-z
-x,y,-z
-x,-y,-z
x,y,-z
-x,y,z
x,-y,z
1/2+x,1/2+y,z
1/2-x,1/2-y,z
1/2+x,1/2-y,-z
1/2-x,1/2+y,-z
1/2-x,1/2-y,-z
1/2+x,1/2+y,-z
1/2-x,1/2+y,z
1/2+x,1/2-y,z
loop_
_atom_site_type_symbol
_atom_site_label
_atom_site_fract_x
_atom_site_fract_y
_atom_site_fract_z
Si Si1 0.673951 0.366464 0.677069
Si Si2 0.322269 0.699949 0.831883
Si Si3 0.661552 0.208479 0.596202
Si Si4 0.673674 0.947123 0.404110
Si Si5 0.320368 0.800309 0.000000
O O1 0.500000 0.370833 0.666018
O O2 0.717059 0.337949 0.760863
O O3 0.743971 0.338087 0.599721
O O4 0.742482 0.417426 0.667969
O O5 0.500000 0.705980 0.843314
O O6 0.250000 0.750000 0.811768
O O7 0.246211 0.676951 0.915033
O O8 0.635674 0.221980 0.500000
O O9 0.500000 0.203060 0.640805
O O10 0.750000 0.250000 0.642552
O O11 0.729504 0.936788 0.500000
O O12 0.500000 0.935698 0.398469
O O13 0.705511 0.000000 0.381455
O O14 0.250000 0.750000 0.000000
O O15 0.500000 0.800459 0.000000
#
# Coordination Sequence:
#
# PCOD8266375 Si02
#       5
#    16  16  16  16   8
#     4  11  22  32  47  72  98 126 160 199 243 289
#     4  10  20  33  48  70 101 133 164 198 237 283
#     4  10  20  32  45  62  89 126 163 198 236 279
#     4   9  19  36  55  73  95 126 164 206 252 297
#     4  10  18  30  50  72  95 128 165 198 236 281
#
# _framework density 17.437125000000002
#
# number of rings (size 3 to 8) (size 9 to 14) (size 15 to 20)
#    0.000    2.000    0.000    6.333    0.000   10.222 
#    0.000    1.111    0.000    0.000    0.000    0.778 
#    0.000    6.222    0.000    0.000    0.000    0.000 
#
# Total GULP energy -446074.304560 kJ/mol
# GULP energy per Si atom -12390.952904 kJ/mol
# Density = 1.739744 g / cm^3
# Si number density = 17.437125 Si / 1000 Ang^3
#
#
#
# Elastic Constant Matrix: (Units=GPa)
#
#
# Indices 1 2 3 4 5 6 
#
# 1 114.1563 61.1234 60.2094 0.0000 0.0000 0.0000
# 2 61.1234 101.6369 50.1137 0.0000 0.0000 0.0000
# 3 60.2094 50.1137 83.1056 0.0000 0.0000 0.0000
# 4 0.0000 0.0000 0.0000 20.3020 0.0000 0.0000
# 5 0.0000 0.0000 0.0000 0.0000 25.6575 0.0000
# 6 0.0000 0.0000 0.0000 0.0000 0.0000 31.0896
#
#
#
# Elastic Compliance Matrix: (Units=1/GPa)
#
#
# Indices 1 2 3 4 5 6 
#
# 1 0.016152 -0.005613 -0.008318 0.000000 0.000000 0.000000
# 2 -0.005613 0.015952 -0.005553 0.000000 0.000000 0.000000
# 3 -0.008318 -0.005553 0.021408 0.000000 0.000000 0.000000
# 4 0.000000 0.000000 0.000000 0.049256 0.000000 0.000000
# 5 0.000000 0.000000 0.000000 0.000000 0.038975 0.000000
# 6 0.000000 0.000000 0.000000 0.000000 0.000000 0.032165
#
#
# Mechanical properties :
#
#
# Convention : Reuss Voigt Hill
#
# Bulk Modulus (GPa) = 68.75095 71.31019 70.03057
# Shear Modulus (GPa) = 22.96492 23.90665 23.43579
#
# Velocity S-wave (km/s) = 3.63300 3.70675 3.67006
# Velocity P-wave (km/s) = 7.55724 7.70093 7.62942
#
# Compressibility (1/GPa) = 0.01454525
#
# Stress axis : x y z
#
# Youngs Moduli (GPa) = 61.91179 62.68652 46.71245
#
# Poissons Ratio (x) = 0.35183 0.38853
# Poissons Ratio (y) = 0.34748 0.25941
# Poissons Ratio (z) = 0.51496 0.34811
#
# Static dielectric constant tensor:
#      x y z
#    x 3.542990 0.000000 0.000000 
#    y 0.000000 3.093050 0.000000 
#    z 0.000000 0.000000 3.592190 
# 
# 
# High freq. dielectric constant tensor:
#      x y z
#    x 1.692210 0.000000 0.000000 
#    y 0.000000 1.644540 0.000000 
#    z 0.000000 0.000000 1.658910 
# 
# From -- ./inp_files/49693.got.cif
#   From: 2010.03.12/outbox.cif.g09.slc.cpg/sg65_25_cif.got.tgz:49693.got - 2010.04.10 20:52:16.
