data_PCOD8266985
_publ_section_title
;
Structure prediction by ZEFSAII (Michael W. Deem and Ramdas Pophale) SiO2 
 PCOD8266985
Probable space group: C M M M
;
_chemical_formula_sum "Si O2"
_cell_formula_units_Z 104
_cell_length_a 8.915457
_cell_length_b 23.868703
_cell_length_c 25.580497
_cell_angle_alpha 90.000000
_cell_angle_beta 90.000000
_cell_angle_gamma 90.000000
_cell_volume 5443.539872
_symmetry_space_group_name_H-M "C M M M"
_symmetry_group_IT_number 65
_symmetry_cell_setting 'orthorhombic'
loop_
_space_group_symop_operation_xyz
x,y,z
-x,-y,z
x,-y,-z
-x,y,-z
-x,-y,-z
x,y,-z
-x,y,z
x,-y,z
1/2+x,1/2+y,z
1/2-x,1/2-y,z
1/2+x,1/2-y,-z
1/2-x,1/2+y,-z
1/2-x,1/2-y,-z
1/2+x,1/2+y,-z
1/2-x,1/2+y,z
1/2+x,1/2-y,z
loop_
_atom_site_type_symbol
_atom_site_label
_atom_site_fract_x
_atom_site_fract_y
_atom_site_fract_z
Si Si1 0.822648 0.810366 0.647245
Si Si2 0.822363 0.000000 0.283782
Si Si3 0.162621 0.000000 0.938410
Si Si4 0.679440 0.620184 0.941706
Si Si5 0.826975 0.618830 0.559993
Si Si6 0.672207 0.000000 0.606168
Si Si7 0.178037 0.809666 0.155300
Si Si8 0.178093 0.119746 0.253358
O O1 0.750000 0.750000 0.651026
O O2 0.776266 0.840668 0.594003
O O3 0.762385 0.846673 0.696199
O O4 0.000000 0.803613 0.648633
O O5 0.759571 0.055917 0.255324
O O6 0.777469 0.000000 0.343873
O O7 0.000000 0.000000 0.281777
O O8 0.245854 0.941268 0.924312
O O9 0.000000 0.000000 0.910021
O O10 0.137209 0.000000 0.000000
O O11 0.500000 0.615344 0.941482
O O12 0.734829 0.666342 0.900447
O O13 0.735881 0.637040 0.000000
O O14 0.788422 0.631191 0.500000
O O15 0.790543 0.554067 0.571404
O O16 0.000000 0.632236 0.572472
O O17 0.500000 0.000000 0.624803
O O18 0.250000 0.750000 0.165003
O O19 0.236805 0.850981 0.200640
O O20 0.000000 0.803582 0.156599
O O21 0.000000 0.119299 0.254022
#
# Coordination Sequence:
#
# PCOD8266985 Si02
#       8
#    16   8   8  16  16   8  16  16
#     4  11  22  37  56  77 103 139 181 221 263 309
#     4  10  18  34  57  80 106 132 164 212 264 314
#     4   7  10  19  37  64  96 125 155 200 254 299
#     4   8  14  25  44  71 102 133 168 212 260 308
#     4  10  21  37  57  82 111 141 173 211 257 311
#     4  10  19  34  57  85 112 137 169 208 258 312
#     4  10  20  34  50  72 102 137 175 213 256 304
#     4   9  19  34  54  78 103 132 168 212 261 313
#
# _framework density 19.105215999999999
#
# number of rings (size 3 to 8) (size 9 to 14) (size 15 to 20)
#    0.000    2.538    1.538    2.077    0.000    2.462 
#    0.000    4.615    0.000    1.385    0.000    1.615 
#    0.000    1.846    0.000    0.000    0.000    0.000 
#
# Total GULP energy -644560.017956 kJ/mol
# GULP energy per Si atom -12395.384961 kJ/mol
# Density = 1.906173 g / cm^3
# Si number density = 19.105216 Si / 1000 Ang^3
#
#
#
# Elastic Constant Matrix: (Units=GPa)
#
#
# Indices 1 2 3 4 5 6 
#
# 1 28.9506 33.4451 24.7563 0.0000 0.0000 0.0000
# 2 33.4451 170.3078 78.7850 0.0000 0.0000 0.0000
# 3 24.7563 78.7850 137.8649 0.0000 0.0000 0.0000
# 4 0.0000 0.0000 0.0000 29.1304 0.0000 0.0000
# 5 0.0000 0.0000 0.0000 0.0000 13.6889 0.0000
# 6 0.0000 0.0000 0.0000 0.0000 0.0000 7.0427
#
#
#
# Elastic Compliance Matrix: (Units=1/GPa)
#
#
# Indices 1 2 3 4 5 6 
#
# 1 0.046441 -0.007153 -0.004251 0.000000 0.000000 0.000000
# 2 -0.007153 0.009084 -0.003906 0.000000 0.000000 0.000000
# 3 -0.004251 -0.003906 0.010249 0.000000 0.000000 0.000000
# 4 0.000000 0.000000 0.000000 0.034328 0.000000 0.000000
# 5 0.000000 0.000000 0.000000 0.000000 0.073052 0.000000
# 6 0.000000 0.000000 0.000000 0.000000 0.000000 0.141991
#
#
# Mechanical properties :
#
#
# Convention : Reuss Voigt Hill
#
# Bulk Modulus (GPa) = 28.44832 67.89956 48.17394
# Shear Modulus (GPa) = 13.98661 23.31487 18.65074
#
# Velocity S-wave (km/s) = 2.70864 3.49713 3.12783
# Velocity P-wave (km/s) = 4.97041 7.20580 6.18985
#
# Compressibility (1/GPa) = 0.03515145
#
# Stress axis : x y z
#
# Youngs Moduli (GPa) = 21.53263 110.08781 97.56738
#
# Poissons Ratio (x) = 0.78750 0.41481
# Poissons Ratio (y) = 0.15403 0.38114
# Poissons Ratio (z) = 0.09155 0.43005
#
# Static dielectric constant tensor:
#      x y z
#    x 3.031640 0.000000 0.000000 
#    y 0.000000 3.834430 0.000000 
#    z 0.000000 0.000000 3.620720 
# 
# 
# High freq. dielectric constant tensor:
#      x y z
#    x 1.691140 0.000000 0.000000 
#    y 0.000000 1.760280 0.000000 
#    z 0.000000 0.000000 1.744140 
# 
# From -- ./inp_files/73670.got.cif
#   From: 2010.03.12/outbox.cif.g09.slc.cpg/sg65_37_cif.got.tgz:73670.got - 2010.04.10 20:52:16.
