data_PCOD8266466
_publ_section_title
;
Structure prediction by ZEFSAII (Michael W. Deem and Ramdas Pophale) SiO2 
 PCOD8266466
Probable space group: C M M M
;
_chemical_formula_sum "Si O2"
_cell_formula_units_Z 80
_cell_length_a 29.166634
_cell_length_b 8.834246
_cell_length_c 15.685296
_cell_angle_alpha 90.000000
_cell_angle_beta 90.000000
_cell_angle_gamma 90.000000
_cell_volume 4041.555241
_symmetry_space_group_name_H-M "C M M M"
_symmetry_group_IT_number 65
_symmetry_cell_setting 'orthorhombic'
loop_
_space_group_symop_operation_xyz
x,y,z
-x,-y,z
x,-y,-z
-x,y,-z
-x,-y,-z
x,y,-z
-x,y,z
x,-y,z
1/2+x,1/2+y,z
1/2-x,1/2-y,z
1/2+x,1/2-y,-z
1/2-x,1/2+y,-z
1/2-x,1/2-y,-z
1/2+x,1/2+y,-z
1/2-x,1/2+y,z
1/2+x,1/2-y,z
loop_
_atom_site_type_symbol
_atom_site_label
_atom_site_fract_x
_atom_site_fract_y
_atom_site_fract_z
Si Si1 0.051596 0.320536 0.746387
Si Si2 0.795135 0.823157 0.657219
Si Si3 0.107324 0.679455 0.906724
Si Si4 0.204121 0.678984 0.159183
Si Si5 0.893847 0.825828 0.595729
O O1 0.051437 0.500000 0.751224
O O2 0.076206 0.251539 0.830803
O O3 0.078109 0.275426 0.661184
O O4 0.000000 0.256106 0.743302
O O5 0.750000 0.750000 0.612841
O O6 0.803522 0.742749 0.746853
O O7 0.839532 0.792488 0.599570
O O8 0.786452 0.000000 0.671944
O O9 0.103449 0.500000 0.902616
O O10 0.160228 0.728139 0.895969
O O11 0.090607 0.737854 0.000000
O O12 0.209586 0.500000 0.163670
O O13 0.250000 0.750000 0.117404
O O14 0.910369 0.787275 0.500000
O O15 0.903563 0.000000 0.618445
#
# Coordination Sequence:
#
# PCOD8266466 Si02
#       5
#    16  16  16  16  16
#     4  10  21  38  60  84 109 139 180 231 281 325
#     4  10  19  32  53  79 109 144 182 221 264 317
#     4   9  18  33  54  81 112 144 179 221 271 325
#     4  10  18  30  51  77 109 146 182 219 263 316
#     4  10  22  39  58  81 111 147 184 221 269 330
#
# _framework density 19.794360000000001
#
# number of rings (size 3 to 8) (size 9 to 14) (size 15 to 20)
#    0.000    2.200    2.000    2.400    0.000    3.200 
#    0.000    4.000    0.000    4.800    0.000    1.400 
#    0.000    0.000    0.000    0.000    0.000    0.000 
#
# Total GULP energy -495863.201185 kJ/mol
# GULP energy per Si atom -12396.580030 kJ/mol
# Density = 1.974931 g / cm^3
# Si number density = 19.794360 Si / 1000 Ang^3
#
#
#
# Elastic Constant Matrix: (Units=GPa)
#
#
# Indices 1 2 3 4 5 6 
#
# 1 134.6801 33.5665 63.1591 0.0000 0.0000 0.0000
# 2 33.5665 50.0947 16.1176 0.0000 0.0000 0.0000
# 3 63.1591 16.1176 116.2113 0.0000 0.0000 0.0000
# 4 0.0000 0.0000 0.0000 16.1573 0.0000 0.0000
# 5 0.0000 0.0000 0.0000 0.0000 12.1373 0.0000
# 6 0.0000 0.0000 0.0000 0.0000 0.0000 25.2809
#
#
#
# Elastic Compliance Matrix: (Units=1/GPa)
#
#
# Indices 1 2 3 4 5 6 
#
# 1 0.011429 -0.005924 -0.005390 0.000000 0.000000 0.000000
# 2 -0.005924 0.023965 -0.000104 0.000000 0.000000 0.000000
# 3 -0.005390 -0.000104 0.011549 0.000000 0.000000 0.000000
# 4 0.000000 0.000000 0.000000 0.061891 0.000000 0.000000
# 5 0.000000 0.000000 0.000000 0.000000 0.082391 0.000000
# 6 0.000000 0.000000 0.000000 0.000000 0.000000 0.039556
#
#
# Mechanical properties :
#
#
# Convention : Reuss Voigt Hill
#
# Bulk Modulus (GPa) = 41.48201 58.51916 50.00059
# Shear Modulus (GPa) = 19.10930 23.25796 21.18363
#
# Velocity S-wave (km/s) = 3.11045 3.43152 3.27492
# Velocity P-wave (km/s) = 5.82253 6.73262 6.29404
#
# Compressibility (1/GPa) = 0.02410684
#
# Stress axis : x y z
#
# Youngs Moduli (GPa) = 87.49606 41.72726 86.58903
#
# Poissons Ratio (x) = 0.24719 0.46671
# Poissons Ratio (y) = 0.51833 0.00902
# Poissons Ratio (z) = 0.47160 0.00435
#
# Static dielectric constant tensor:
#      x y z
#    x 3.936470 0.000000 0.000000 
#    y 0.000000 3.362280 0.000000 
#    z 0.000000 0.000000 3.591960 
# 
# 
# High freq. dielectric constant tensor:
#      x y z
#    x 1.778180 0.000000 0.000000 
#    y 0.000000 1.746730 0.000000 
#    z 0.000000 0.000000 1.768450 
# 
# From -- ./inp_files/57238.got.cif
#   From: 2010.03.12/outbox.cif.g09.slc.cpg/sg65_29_cif.got.tgz:57238.got - 2010.04.10 20:52:16.
