data_PCOD8266497
_publ_section_title
;
Structure prediction by ZEFSAII (Michael W. Deem and Ramdas Pophale) SiO2 
 PCOD8266497
Probable space group: C M M M
;
_chemical_formula_sum "Si O2"
_cell_formula_units_Z 64
_cell_length_a 8.869427
_cell_length_b 27.381032
_cell_length_c 12.925646
_cell_angle_alpha 90.000000
_cell_angle_beta 90.000000
_cell_angle_gamma 90.000000
_cell_volume 3139.045668
_symmetry_space_group_name_H-M "C M M M"
_symmetry_group_IT_number 65
_symmetry_cell_setting 'orthorhombic'
loop_
_space_group_symop_operation_xyz
x,y,z
-x,-y,z
x,-y,-z
-x,y,-z
-x,-y,-z
x,y,-z
-x,y,z
x,-y,z
1/2+x,1/2+y,z
1/2-x,1/2-y,z
1/2+x,1/2-y,-z
1/2-x,1/2+y,-z
1/2-x,1/2-y,-z
1/2+x,1/2+y,-z
1/2-x,1/2+y,z
1/2+x,1/2-y,z
loop_
_atom_site_type_symbol
_atom_site_label
_atom_site_fract_x
_atom_site_fract_y
_atom_site_fract_z
Si Si1 0.329153 0.397792 0.307121
Si Si2 0.670147 0.057879 0.115732
Si Si3 0.177198 0.554722 0.500000
Si Si4 0.679288 0.196224 0.000000
Si Si5 0.326376 0.300946 0.796306
O O1 0.500000 0.412319 0.333460
O O2 0.287502 0.421745 0.198017
O O3 0.224650 0.416429 0.398291
O O4 0.312781 0.338994 0.298251
O O5 0.500000 0.073500 0.146407
O O6 0.683911 0.000000 0.114720
O O7 0.706382 0.078352 0.000000
O O8 0.246669 0.500000 0.500000
O O9 0.000000 0.551174 0.500000
O O10 0.750000 0.250000 0.000000
O O11 0.742056 0.172764 0.893896
O O12 0.500000 0.195699 0.000000
O O13 0.500000 0.290709 0.825665
O O14 0.250000 0.250000 0.763230
#
# Coordination Sequence:
#
# PCOD8266497 Si02
#       5
#    16  16   8   8  16
#     4  11  24  39  60  89 120 153 196 248 300 353
#     4   9  19  36  57  84 119 156 195 239 290 355
#     4  11  25  45  68  91 116 151 198 247 294 357
#     4  10  18  30  52  80 113 156 199 240 288 341
#     4  10  21  37  56  83 120 158 199 245 292 347
#
# _framework density 20.388361
#
# number of rings (size 3 to 8) (size 9 to 14) (size 15 to 20)
#    0.000    1.875    0.000    6.000    1.750    9.000 
#    0.000    1.875    0.000    0.000    0.000    0.000 
#    0.000    0.000    0.000    0.000    0.000    0.000 
#
# Total GULP energy -396775.247877 kJ/mol
# GULP energy per Si atom -12399.226496 kJ/mol
# Density = 2.034196 g / cm^3
# Si number density = 20.388361 Si / 1000 Ang^3
#
#
#
# Elastic Constant Matrix: (Units=GPa)
#
#
# Indices 1 2 3 4 5 6 
#
# 1 124.0186 44.0068 42.2815 0.0000 0.0000 0.0000
# 2 44.0068 68.2983 49.9705 0.0000 0.0000 0.0000
# 3 42.2815 49.9705 107.6249 0.0000 0.0000 0.0000
# 4 0.0000 0.0000 0.0000 29.4141 0.0000 0.0000
# 5 0.0000 0.0000 0.0000 0.0000 -23.4120 0.0000
# 6 0.0000 0.0000 0.0000 0.0000 0.0000 29.1676
#
#
#
# Elastic Compliance Matrix: (Units=1/GPa)
#
#
# Indices 1 2 3 4 5 6 
#
# 1 0.010612 -0.005736 -0.001506 0.000000 0.000000 0.000000
# 2 -0.005736 0.025275 -0.009482 0.000000 0.000000 0.000000
# 3 -0.001506 -0.009482 0.014285 0.000000 0.000000 0.000000
# 4 0.000000 0.000000 0.000000 0.033997 0.000000 0.000000
# 5 0.000000 0.000000 0.000000 0.000000 -0.042713 0.000000
# 6 0.000000 0.000000 0.000000 0.000000 0.000000 0.034285
#
#
# Mechanical properties :
#
#
# Convention : Reuss Voigt Hill
#
# Bulk Modulus (GPa) = 59.78950 63.60659 61.69805
# Shear Modulus (GPa) = 43.56796 17.94614 30.75705
#
# Velocity S-wave (km/s) = 4.62768 2.97006 3.88823
# Velocity P-wave (km/s) = 7.61202 6.55949 7.10527
#
# Compressibility (1/GPa) = 0.01672535
#
# Stress axis : x y z
#
# Youngs Moduli (GPa) = 94.23273 39.56512 70.00109
#
# Poissons Ratio (x) = 0.22694 0.10541
# Poissons Ratio (y) = 0.54051 0.66373
# Poissons Ratio (z) = 0.14190 0.37515
#
# Static dielectric constant tensor:
#      x y z
#    x 3.750030 0.000000 0.000000 
#    y 0.000000 3.784520 0.000000 
#    z 0.000000 0.000000 3.866430 
# 
# 
# High freq. dielectric constant tensor:
#      x y z
#    x 1.804330 0.000000 0.000000 
#    y 0.000000 1.807140 0.000000 
#    z 0.000000 0.000000 1.780470 
# 
# From -- ./inp_files/20986.got.cif
#   From: 2010.03.12/outbox.cif.g09.slc.cpg/sg65_11_cif.got.tgz:20986.got - 2010.04.10 20:52:16.
