data_PCOD8266116
_publ_section_title
;
Structure prediction by ZEFSAII (Michael W. Deem and Ramdas Pophale) SiO2 
 PCOD8266116
Probable space group: C M M M
;
_chemical_formula_sum "Si O2"
_cell_formula_units_Z 88
_cell_length_a 23.635910
_cell_length_b 9.320580
_cell_length_c 22.767828
_cell_angle_alpha 90.000000
_cell_angle_beta 90.000000
_cell_angle_gamma 90.000000
_cell_volume 5015.761388
_symmetry_space_group_name_H-M "C M M M"
_symmetry_group_IT_number 65
_symmetry_cell_setting 'orthorhombic'
loop_
_space_group_symop_operation_xyz
x,y,z
-x,-y,z
x,-y,-z
-x,y,-z
-x,-y,-z
x,y,-z
-x,y,z
x,-y,z
1/2+x,1/2+y,z
1/2-x,1/2-y,z
1/2+x,1/2-y,-z
1/2-x,1/2+y,-z
1/2-x,1/2-y,-z
1/2+x,1/2+y,-z
1/2-x,1/2+y,z
1/2+x,1/2-y,z
loop_
_atom_site_type_symbol
_atom_site_label
_atom_site_fract_x
_atom_site_fract_y
_atom_site_fract_z
Si Si1 0.888954 0.168534 0.330913
Si Si2 0.308634 0.669216 0.773533
Si Si3 0.935439 0.667208 0.432773
Si Si4 0.191115 0.170970 0.000000
Si Si5 0.000000 0.171137 0.864403
Si Si6 0.622507 0.670058 0.887326
Si Si7 0.000000 0.829714 0.266170
O O1 0.835649 0.207903 0.289800
O O2 0.888980 0.249262 0.393411
O O3 0.944570 0.226723 0.298457
O O4 0.891282 0.000000 0.342977
O O5 0.298008 0.500000 0.778803
O O6 0.250000 0.750000 0.779858
O O7 0.349731 0.722488 0.826093
O O8 0.919578 0.699616 0.500000
O O9 0.930330 0.500000 0.418993
O O10 0.000000 0.719366 0.420403
O O11 0.250000 0.250000 0.000000
O O12 0.157852 0.226026 0.942674
O O13 0.199731 0.000000 0.000000
O O14 0.057871 0.227668 0.894681
O O15 0.000000 0.233558 0.798877
O O16 0.000000 0.000000 0.863977
O O17 0.621291 0.500000 0.887091
O O18 0.000000 0.000000 0.263300
#
# Coordination Sequence:
#
# PCOD8266116 Si02
#       7
#    16  16  16   8   8  16   8
#     4  10  18  29  49  73  95 124 163 201 238 284
#     4  10  20  33  49  71  97 127 164 204 244 288
#     4   9  18  31  46  69 103 135 157 184 233 293
#     4  10  20  33  49  71  97 130 171 206 238 284
#     4   9  14  25  46  71 101 128 150 195 256 296
#     4   9  17  29  47  72 100 127 159 201 248 294
#     4   9  14  24  43  70  98 123 150 189 246 294
#
# _framework density 17.544695000000001
#
# number of rings (size 3 to 8) (size 9 to 14) (size 15 to 20)
#    0.000    2.545    2.727    1.091    0.000    1.455 
#    0.000    2.727    0.000    0.545    0.000    2.545 
#    0.000    0.000    0.000    0.000    0.000    0.000 
#
# Total GULP energy -545361.944240 kJ/mol
# GULP energy per Si atom -12394.589642 kJ/mol
# Density = 1.750476 g / cm^3
# Si number density = 17.544695 Si / 1000 Ang^3
#
#
#
# Elastic Constant Matrix: (Units=GPa)
#
#
# Indices 1 2 3 4 5 6 
#
# 1 138.9937 32.4527 62.9506 0.0000 0.0000 0.0000
# 2 32.4527 27.8090 36.6890 0.0000 0.0000 0.0000
# 3 62.9506 36.6890 130.1021 0.0000 0.0000 0.0000
# 4 0.0000 0.0000 0.0000 15.7691 0.0000 0.0000
# 5 0.0000 0.0000 0.0000 0.0000 25.2839 0.0000
# 6 0.0000 0.0000 0.0000 0.0000 0.0000 25.1876
#
#
#
# Elastic Compliance Matrix: (Units=1/GPa)
#
#
# Indices 1 2 3 4 5 6 
#
# 1 0.010399 -0.008755 -0.002563 0.000000 0.000000 0.000000
# 2 -0.008755 0.064635 -0.013991 0.000000 0.000000 0.000000
# 3 -0.002563 -0.013991 0.012872 0.000000 0.000000 0.000000
# 4 0.000000 0.000000 0.000000 0.063415 0.000000 0.000000
# 5 0.000000 0.000000 0.000000 0.000000 0.039551 0.000000
# 6 0.000000 0.000000 0.000000 0.000000 0.000000 0.039702
#
#
# Mechanical properties :
#
#
# Convention : Reuss Voigt Hill
#
# Bulk Modulus (GPa) = 26.81776 62.34327 44.58052
# Shear Modulus (GPa) = 17.02873 24.23562 20.63218
#
# Velocity S-wave (km/s) = 3.11881 3.72070 3.43297
# Velocity P-wave (km/s) = 5.31864 7.35318 6.41705
#
# Compressibility (1/GPa) = 0.03728872
#
# Stress axis : x y z
#
# Youngs Moduli (GPa) = 96.15943 15.47151 77.68825
#
# Poissons Ratio (x) = 0.13545 0.19912
# Poissons Ratio (y) = 0.84183 1.08696
# Poissons Ratio (z) = 0.24646 0.21647
#
# Static dielectric constant tensor:
#      x y z
#    x 3.295800 0.000000 0.000000 
#    y 0.000000 2.804520 0.000000 
#    z 0.000000 0.000000 3.464070 
# 
# 
# High freq. dielectric constant tensor:
#      x y z
#    x 1.670950 0.000000 0.000000 
#    y 0.000000 1.631620 0.000000 
#    z 0.000000 0.000000 1.686000 
# 
# From -- ./inp_files/65237.got.cif
#   From: 2010.03.12/outbox.cif.g09.slc.cpg/sg65_33_cif.got.tgz:65237.got - 2010.04.10 20:52:16.
