data_PCOD8266342
_publ_section_title
;
Structure prediction by ZEFSAII (Michael W. Deem and Ramdas Pophale) SiO2 
 PCOD8266342
Probable space group: C M M M
;
_chemical_formula_sum "Si O2"
_cell_formula_units_Z 88
_cell_length_a 9.122790
_cell_length_b 28.693665
_cell_length_c 18.087480
_cell_angle_alpha 90.000000
_cell_angle_beta 90.000000
_cell_angle_gamma 90.000000
_cell_volume 4734.692356
_symmetry_space_group_name_H-M "C M M M"
_symmetry_group_IT_number 65
_symmetry_cell_setting 'orthorhombic'
loop_
_space_group_symop_operation_xyz
x,y,z
-x,-y,z
x,-y,-z
-x,y,-z
-x,-y,-z
x,y,-z
-x,y,z
x,-y,z
1/2+x,1/2+y,z
1/2-x,1/2-y,z
1/2+x,1/2-y,-z
1/2-x,1/2+y,-z
1/2-x,1/2-y,-z
1/2+x,1/2+y,-z
1/2-x,1/2+y,z
1/2+x,1/2-y,z
loop_
_atom_site_type_symbol
_atom_site_label
_atom_site_fract_x
_atom_site_fract_y
_atom_site_fract_z
Si Si1 0.673616 0.052086 0.000000
Si Si2 0.660235 0.207558 0.412874
Si Si3 0.175224 0.394550 0.418206
Si Si4 0.671991 0.297763 0.085984
Si Si5 0.825809 0.612311 0.861223
Si Si6 0.674268 0.948141 0.277208
O O1 0.727686 0.079427 0.927866
O O2 0.500000 0.048381 0.000000
O O3 0.741431 0.000000 0.000000
O O4 0.646220 0.215265 0.500000
O O5 0.500000 0.209036 0.375861
O O6 0.750000 0.250000 0.376324
O O7 0.734913 0.157223 0.397861
O O8 0.230858 0.410010 0.500000
O O9 0.233394 0.430476 0.356766
O O10 0.000000 0.391965 0.418982
O O11 0.500000 0.293900 0.102739
O O12 0.750000 0.250000 0.109770
O O13 0.743207 0.338621 0.134541
O O14 0.702695 0.308398 0.000000
O O15 0.773568 0.586935 0.786440
O O16 0.000000 0.620905 0.863761
O O17 0.500000 0.950027 0.277671
O O18 0.737492 0.000000 0.263127
#
# Coordination Sequence:
#
# PCOD8266342 Si02
#       6
#     8  16  16  16  16  16
#     4   9  16  26  44  69  94 125 166 207 244 285
#     4   8  13  22  38  60  85 113 144 180 227 281
#     4   8  14  25  41  63  93 127 162 204 254 302
#     4  10  20  34  54  78 104 133 168 205 244 294
#     4  10  18  30  49  73 102 133 167 207 249 293
#     4   9  17  28  44  68  96 128 168 212 255 299
#
# _framework density 18.586213000000001
#
# number of rings (size 3 to 8) (size 9 to 14) (size 15 to 20)
#    0.000    3.000    0.909    2.182    0.000    3.273 
#    0.000    2.727    0.000    6.000    0.000    0.000 
#    0.000    0.000    0.000    8.727    0.000    9.091 
#
# Total GULP energy -545359.482506 kJ/mol
# GULP energy per Si atom -12394.533693 kJ/mol
# Density = 1.854391 g / cm^3
# Si number density = 18.586213 Si / 1000 Ang^3
#
#
#
# Elastic Constant Matrix: (Units=GPa)
#
#
# Indices 1 2 3 4 5 6 
#
# 1 43.1489 42.6902 22.7133 0.0000 0.0000 0.0000
# 2 42.6902 173.7949 77.8058 0.0000 0.0000 0.0000
# 3 22.7133 77.8058 116.3522 0.0000 0.0000 0.0000
# 4 0.0000 0.0000 0.0000 31.4040 0.0000 0.0000
# 5 0.0000 0.0000 0.0000 0.0000 8.2405 0.0000
# 6 0.0000 0.0000 0.0000 0.0000 0.0000 23.4640
#
#
#
# Elastic Compliance Matrix: (Units=1/GPa)
#
#
# Indices 1 2 3 4 5 6 
#
# 1 0.030766 -0.006949 -0.001359 0.000000 0.000000 0.000000
# 2 -0.006949 0.009782 -0.005185 0.000000 0.000000 0.000000
# 3 -0.001359 -0.005185 0.012327 0.000000 0.000000 0.000000
# 4 0.000000 0.000000 0.000000 0.031843 0.000000 0.000000
# 5 0.000000 0.000000 0.000000 0.000000 0.121351 0.000000
# 6 0.000000 0.000000 0.000000 0.000000 0.000000 0.042619
#
#
# Mechanical properties :
#
#
# Convention : Reuss Voigt Hill
#
# Bulk Modulus (GPa) = 38.62577 68.85719 53.74148
# Shear Modulus (GPa) = 17.58688 25.29414 21.44051
#
# Velocity S-wave (km/s) = 3.07943 3.69305 3.40011
# Velocity P-wave (km/s) = 5.78540 7.43725 6.66272
#
# Compressibility (1/GPa) = 0.02588945
#
# Stress axis : x y z
#
# Youngs Moduli (GPa) = 32.50356 102.22939 81.12241
#
# Poissons Ratio (x) = 0.71036 0.11026
# Poissons Ratio (y) = 0.22586 0.42060
# Poissons Ratio (z) = 0.04418 0.53004
#
# Static dielectric constant tensor:
#      x y z
#    x 3.024450 0.000000 0.000000 
#    y 0.000000 3.650040 0.000000 
#    z 0.000000 0.000000 3.356360 
# 
# 
# High freq. dielectric constant tensor:
#      x y z
#    x 1.661560 0.000000 0.000000 
#    y 0.000000 1.736270 0.000000 
#    z 0.000000 0.000000 1.702900 
# 
# From -- ./inp_files/50365.got.cif
#   From: 2010.03.12/outbox.cif.g09.slc.cpg/sg65_26_cif.got.tgz:50365.got - 2010.04.10 20:52:16.
