data_PCOD8266108
_publ_section_title
;
Structure prediction by ZEFSAII (Michael W. Deem and Ramdas Pophale) SiO2 
 PCOD8266108
Probable space group: C M M M
;
_chemical_formula_sum "Si O2"
_cell_formula_units_Z 88
_cell_length_a 18.849966
_cell_length_b 10.332735
_cell_length_c 25.389885
_cell_angle_alpha 90.000000
_cell_angle_beta 90.000000
_cell_angle_gamma 90.000000
_cell_volume 4945.231152
_symmetry_space_group_name_H-M "C M M M"
_symmetry_group_IT_number 65
_symmetry_cell_setting 'orthorhombic'
loop_
_space_group_symop_operation_xyz
x,y,z
-x,-y,z
x,-y,-z
-x,y,-z
-x,-y,-z
x,y,-z
-x,y,z
x,-y,z
1/2+x,1/2+y,z
1/2-x,1/2-y,z
1/2+x,1/2-y,-z
1/2-x,1/2+y,-z
1/2-x,1/2-y,-z
1/2+x,1/2+y,-z
1/2-x,1/2+y,z
1/2+x,1/2-y,z
loop_
_atom_site_type_symbol
_atom_site_label
_atom_site_fract_x
_atom_site_fract_y
_atom_site_fract_z
Si Si1 0.417507 0.147845 0.559951
Si Si2 0.915972 0.500000 0.176306
Si Si3 0.915316 0.647909 0.000000
Si Si4 0.332266 0.249996 0.651948
Si Si5 0.915208 0.000000 0.170093
Si Si6 0.584043 0.245413 0.889446
Si Si7 0.335321 0.500000 0.719454
Si Si8 0.170012 0.500000 0.281665
O O1 0.402408 0.189845 0.500000
O O2 0.500000 0.160014 0.573225
O O3 0.375093 0.245756 0.597408
O O4 0.392168 0.000000 0.568820
O O5 0.889568 0.625437 0.145044
O O6 0.878412 0.500000 0.231368
O O7 0.000000 0.500000 0.184591
O O8 0.886827 0.725607 0.051146
O O9 0.886830 0.500000 0.000000
O O10 0.000000 0.643204 0.000000
O O11 0.250000 0.250000 0.637124
O O12 0.355179 0.375348 0.684904
O O13 0.351850 0.125379 0.685828
O O14 0.887447 0.123280 0.136986
O O15 0.880890 0.000000 0.227579
O O16 0.000000 0.000000 0.177026
O O17 0.500000 0.249198 0.891274
O O18 0.252479 0.500000 0.734540
#
# Coordination Sequence:
#
# PCOD8266108 Si02
#       8
#    16   8   8  16   8  16   8   8
#     4   9  18  34  57  83 108 134 170 217 262 304
#     4  10  18  29  48  75  99 124 164 214 254 291
#     4   9  14  25  45  69  98 126 153 200 258 297
#     4  10  20  35  54  76 104 137 176 215 252 303
#     4  10  20  33  46  67  99 132 166 204 248 303
#     4   9  17  28  45  70  99 127 159 202 252 302
#     4  10  22  36  50  72 105 141 170 209 260 301
#     4  10  20  34  52  74  99 135 180 215 248 299
#
# _framework density 17.794920999999999
#
# number of rings (size 3 to 8) (size 9 to 14) (size 15 to 20)
#    0.000    2.455    1.818    1.636    0.000    2.182 
#    0.000    2.273    0.000    1.091    0.000    3.818 
#    0.000    0.000    0.000    0.000    0.000    0.000 
#
# Total GULP energy -545580.495753 kJ/mol
# GULP energy per Si atom -12399.556722 kJ/mol
# Density = 1.775442 g / cm^3
# Si number density = 17.794921 Si / 1000 Ang^3
#
#
#
# Elastic Constant Matrix: (Units=GPa)
#
#
# Indices 1 2 3 4 5 6 
#
# 1 34.0101 31.2962 53.4724 0.0000 0.0000 0.0000
# 2 31.2962 153.9011 83.4575 0.0000 0.0000 0.0000
# 3 53.4724 83.4575 164.7307 0.0000 0.0000 0.0000
# 4 0.0000 0.0000 0.0000 28.9271 0.0000 0.0000
# 5 0.0000 0.0000 0.0000 0.0000 -17.3767 0.0000
# 6 0.0000 0.0000 0.0000 0.0000 0.0000 18.8772
#
#
#
# Elastic Compliance Matrix: (Units=1/GPa)
#
#
# Indices 1 2 3 4 5 6 
#
# 1 0.060627 -0.002284 -0.018523 0.000000 0.000000 0.000000
# 2 -0.002284 0.009045 -0.003841 0.000000 0.000000 0.000000
# 3 -0.018523 -0.003841 0.014029 0.000000 0.000000 0.000000
# 4 0.000000 0.000000 0.000000 0.034570 0.000000 0.000000
# 5 0.000000 0.000000 0.000000 0.000000 -0.057548 0.000000
# 6 0.000000 0.000000 0.000000 0.000000 0.000000 0.052974
#
#
# Mechanical properties :
#
#
# Convention : Reuss Voigt Hill
#
# Bulk Modulus (GPa) = 29.06514 76.56603 52.81558
# Shear Modulus (GPa) = 28.65971 18.37991 23.51981
#
# Velocity S-wave (km/s) = 4.01753 3.21732 3.63948
# Velocity P-wave (km/s) = 6.15545 7.54466 6.88518
#
# Compressibility (1/GPa) = 0.03440547
#
# Stress axis : x y z
#
# Youngs Moduli (GPa) = 16.49426 110.55699 71.28072
#
# Poissons Ratio (x) = 0.25254 1.32031
# Poissons Ratio (y) = 0.03768 0.27379
# Poissons Ratio (z) = 0.30552 0.42465
#
# Static dielectric constant tensor:
#      x y z
#    x 2.916430 0.000000 0.000000 
#    y 0.000000 3.486670 0.000000 
#    z 0.000000 0.000000 3.390330 
# 
# 
# High freq. dielectric constant tensor:
#      x y z
#    x 1.649320 0.000000 0.000000 
#    y 0.000000 1.693480 0.000000 
#    z 0.000000 0.000000 1.701860 
# 
# From -- ./inp_files/71137.got.cif
#   From: 2010.03.12/outbox.cif.g09.slc.cpg/sg65_36_cif.got.tgz:71137.got - 2010.04.10 20:52:16.
