data_PCOD8266282
_publ_section_title
;
Structure prediction by ZEFSAII (Michael W. Deem and Ramdas Pophale) SiO2 
 PCOD8266282
Probable space group: C M M M
;
_chemical_formula_sum "Si O2"
_cell_formula_units_Z 104
_cell_length_a 8.125134
_cell_length_b 27.484212
_cell_length_c 27.718014
_cell_angle_alpha 90.000000
_cell_angle_beta 90.000000
_cell_angle_gamma 90.000000
_cell_volume 6189.790238
_symmetry_space_group_name_H-M "C M M M"
_symmetry_group_IT_number 65
_symmetry_cell_setting 'orthorhombic'
loop_
_space_group_symop_operation_xyz
x,y,z
-x,-y,z
x,-y,-z
-x,y,-z
-x,-y,-z
x,y,-z
-x,y,z
x,-y,z
1/2+x,1/2+y,z
1/2-x,1/2-y,z
1/2+x,1/2-y,-z
1/2-x,1/2+y,-z
1/2-x,1/2-y,-z
1/2+x,1/2+y,-z
1/2-x,1/2+y,z
1/2+x,1/2-y,z
loop_
_atom_site_type_symbol
_atom_site_label
_atom_site_fract_x
_atom_site_fract_y
_atom_site_fract_z
Si Si1 0.813506 0.943362 0.615897
Si Si2 0.500000 0.057586 0.446171
Si Si3 0.194819 0.804662 0.762303
Si Si4 0.190472 0.698446 0.052921
Si Si5 0.690775 0.894540 0.708883
Si Si6 0.188873 0.855585 0.141607
Si Si7 0.693780 0.945078 0.192782
O O1 0.669818 0.925044 0.579550
O O2 0.800017 0.911829 0.664258
O O3 0.000000 0.935711 0.594787
O O4 0.784565 0.000000 0.628306
O O5 0.500000 0.079973 0.500000
O O6 0.500000 0.000000 0.448855
O O7 0.250000 0.750000 0.752761
O O8 0.274084 0.837982 0.720500
O O9 0.262169 0.823072 0.814390
O O10 0.000000 0.809904 0.759910
O O11 0.250000 0.750000 0.074244
O O12 0.227079 0.656179 0.090908
O O13 0.000000 0.701516 0.045060
O O14 0.272650 0.688158 0.000000
O O15 0.500000 0.902400 0.696128
O O16 0.745603 0.927209 0.754240
O O17 0.217395 0.912395 0.152509
O O18 0.000000 0.843302 0.135454
O O19 0.500000 0.940097 0.185727
O O20 0.755180 0.000000 0.185684
#
# Coordination Sequence:
#
# PCOD8266282 Si02
#       7
#    16   8  16  16  16  16  16
#     4  10  19  30  47  71  99 133 169 207 248 291
#     4   9  18  32  48  68  98 134 170 208 249 295
#     4  10  20  32  45  66  95 128 161 194 235 285
#     4  10  20  33  50  71  93 117 148 189 234 283
#     4  10  18  30  48  69  96 130 163 200 240 285
#     4  10  20  32  48  69  94 124 156 190 234 283
#     4   9  18  31  48  69  94 126 162 197 233 277
#
# _framework density 16.801860999999999
#
# number of rings (size 3 to 8) (size 9 to 14) (size 15 to 20)
#    0.000    2.231    0.769    2.769    0.000    5.846 
#    0.000    1.538    0.000    0.462    0.000    3.231 
#    0.000    0.615    0.308    0.000    0.000    0.000 
#
# Total GULP energy -644729.338118 kJ/mol
# GULP energy per Si atom -12398.641118 kJ/mol
# Density = 1.676362 g / cm^3
# Si number density = 16.801861 Si / 1000 Ang^3
#
#
#
# Elastic Constant Matrix: (Units=GPa)
#
#
# Indices 1 2 3 4 5 6 
#
# 1 74.5666 20.8313 39.2043 0.0000 0.0000 0.0000
# 2 20.8313 93.3976 43.5627 0.0000 0.0000 0.0000
# 3 39.2043 43.5627 101.8792 0.0000 0.0000 0.0000
# 4 0.0000 0.0000 0.0000 19.7163 0.0000 0.0000
# 5 0.0000 0.0000 0.0000 0.0000 20.8363 0.0000
# 6 0.0000 0.0000 0.0000 0.0000 0.0000 25.0597
#
#
#
# Elastic Compliance Matrix: (Units=1/GPa)
#
#
# Indices 1 2 3 4 5 6 
#
# 1 0.016875 -0.000918 -0.006101 0.000000 0.000000 0.000000
# 2 -0.000918 0.013424 -0.005387 0.000000 0.000000 0.000000
# 3 -0.006101 -0.005387 0.014467 0.000000 0.000000 0.000000
# 4 0.000000 0.000000 0.000000 0.050720 0.000000 0.000000
# 5 0.000000 0.000000 0.000000 0.000000 0.047993 0.000000
# 6 0.000000 0.000000 0.000000 0.000000 0.000000 0.039905
#
#
# Mechanical properties :
#
#
# Convention : Reuss Voigt Hill
#
# Bulk Modulus (GPa) = 50.11549 53.00443 51.55996
# Shear Modulus (GPa) = 23.27241 24.20547 23.73894
#
# Velocity S-wave (km/s) = 3.72574 3.79970 3.76290
# Velocity P-wave (km/s) = 6.95703 7.13201 7.04506
#
# Compressibility (1/GPa) = 0.01995391
#
# Stress axis : x y z
#
# Youngs Moduli (GPa) = 59.25900 74.49237 69.12431
#
# Poissons Ratio (x) = 0.06839 0.42174
# Poissons Ratio (y) = 0.05440 0.37236
# Poissons Ratio (z) = 0.36155 0.40127
#
# Static dielectric constant tensor:
#      x y z
#    x 3.234150 0.000000 0.000000 
#    y 0.000000 3.034160 0.000000 
#    z 0.000000 0.000000 3.152660 
# 
# 
# High freq. dielectric constant tensor:
#      x y z
#    x 1.660460 0.000000 0.000000 
#    y 0.000000 1.624190 0.000000 
#    z 0.000000 0.000000 1.627180 
# 
# From -- ./inp_files/73585.got.cif
#   From: 2010.03.12/outbox.cif.g09.slc.cpg/sg65_37_cif.got.tgz:73585.got - 2010.04.10 20:52:16.
