data_PCOD8266800
_publ_section_title
;
Structure prediction by ZEFSAII (Michael W. Deem and Ramdas Pophale) SiO2 
 PCOD8266800
Probable space group: C M M M
;
_chemical_formula_sum "Si O2"
_cell_formula_units_Z 88
_cell_length_a 19.542078
_cell_length_b 8.794637
_cell_length_c 28.438503
_cell_angle_alpha 90.000000
_cell_angle_beta 90.000000
_cell_angle_gamma 90.000000
_cell_volume 4887.597032
_symmetry_space_group_name_H-M "C M M M"
_symmetry_group_IT_number 65
_symmetry_cell_setting 'orthorhombic'
loop_
_space_group_symop_operation_xyz
x,y,z
-x,-y,z
x,-y,-z
-x,y,-z
-x,-y,-z
x,y,-z
-x,y,z
x,-y,z
1/2+x,1/2+y,z
1/2-x,1/2-y,z
1/2+x,1/2-y,-z
1/2-x,1/2+y,-z
1/2-x,1/2-y,-z
1/2+x,1/2+y,-z
1/2-x,1/2+y,z
1/2+x,1/2-y,z
loop_
_atom_site_type_symbol
_atom_site_label
_atom_site_fract_x
_atom_site_fract_y
_atom_site_fract_z
Si Si1 0.579195 0.325287 0.167459
Si Si2 0.921933 0.174918 0.275676
Si Si3 0.175619 0.679274 0.905808
Si Si4 0.176182 0.321920 0.348885
Si Si5 0.174539 0.181467 0.000000
Si Si6 0.323886 0.821203 0.450417
O O1 0.500000 0.287051 0.157876
O O2 0.594552 0.500000 0.153953
O O3 0.597733 0.296065 0.221655
O O4 0.626055 0.212890 0.137541
O O5 0.875054 0.277042 0.308113
O O6 0.000000 0.222811 0.284505
O O7 0.910498 0.000000 0.288908
O O8 0.183762 0.500000 0.913025
O O9 0.250000 0.750000 0.895708
O O10 0.140230 0.754207 0.952312
O O11 0.187205 0.500000 0.346846
O O12 0.250000 0.250000 0.340082
O O13 0.143290 0.271888 0.400101
O O14 0.250000 0.250000 0.000000
O O15 0.173818 0.000000 0.000000
O O16 0.362690 0.773474 0.500000
O O17 0.250000 0.750000 0.451910
O O18 0.314948 0.000000 0.450083
#
# Coordination Sequence:
#
# PCOD8266800 Si02
#       6
#    16  16  16  16   8  16
#     4   9  19  37  57  75  98 130 167 206 252 302
#     4   9  19  36  55  72  95 130 167 204 249 300
#     4  11  21  34  54  80 108 136 169 207 247 291
#     4  10  19  30  48  74 101 128 161 204 248 292
#     4  10  18  32  53  76 105 138 171 205 245 293
#     4   8  14  25  41  63  92 124 157 194 239 289
#
# _framework density 18.004757000000001
#
# number of rings (size 3 to 8) (size 9 to 14) (size 15 to 20)
#    0.000    2.545    0.000    5.182    0.000    2.909 
#    0.000    2.273    0.000    3.273    0.000    3.818 
#    0.000    0.000    0.000    0.000    0.000    0.000 
#
# Total GULP energy -545100.298970 kJ/mol
# GULP energy per Si atom -12388.643158 kJ/mol
# Density = 1.796378 g / cm^3
# Si number density = 18.004757 Si / 1000 Ang^3
#
#
#
# Elastic Constant Matrix: (Units=GPa)
#
#
# Indices 1 2 3 4 5 6 
#
# 1 56.7270 33.1103 56.3377 0.0000 0.0000 0.0000
# 2 33.1103 90.8070 51.4759 0.0000 0.0000 0.0000
# 3 56.3377 51.4759 130.9761 0.0000 0.0000 0.0000
# 4 0.0000 0.0000 0.0000 24.1177 0.0000 0.0000
# 5 0.0000 0.0000 0.0000 0.0000 -10.9517 0.0000
# 6 0.0000 0.0000 0.0000 0.0000 0.0000 26.1759
#
#
#
# Elastic Compliance Matrix: (Units=1/GPa)
#
#
# Indices 1 2 3 4 5 6 
#
# 1 0.032479 -0.005048 -0.011986 0.000000 0.000000 0.000000
# 2 -0.005048 0.014954 -0.003706 0.000000 0.000000 0.000000
# 3 -0.011986 -0.003706 0.014247 0.000000 0.000000 0.000000
# 4 0.000000 0.000000 0.000000 0.041463 0.000000 0.000000
# 5 0.000000 0.000000 0.000000 0.000000 -0.091310 0.000000
# 6 0.000000 0.000000 0.000000 0.000000 0.000000 0.038203
#
#
# Mechanical properties :
#
#
# Convention : Reuss Voigt Hill
#
# Bulk Modulus (GPa) = 49.50593 62.26198 55.88396
# Shear Modulus (GPa) = 50.89100 17.04079 33.96590
#
# Velocity S-wave (km/s) = 5.32228 3.07980 4.34809
# Velocity P-wave (km/s) = 8.08236 6.87770 7.50425
#
# Compressibility (1/GPa) = 0.02019960
#
# Stress axis : x y z
#
# Youngs Moduli (GPa) = 30.78941 66.87362 70.18888
#
# Poissons Ratio (x) = 0.33756 0.84132
# Poissons Ratio (y) = 0.15541 0.26011
# Poissons Ratio (z) = 0.36906 0.24782
#
# Static dielectric constant tensor:
#      x y z
#    x 2.917930 0.000000 0.000000 
#    y 0.000000 3.210520 0.000000 
#    z 0.000000 0.000000 4.114340 
# 
# 
# High freq. dielectric constant tensor:
#      x y z
#    x 1.651590 0.000000 0.000000 
#    y 0.000000 1.701260 0.000000 
#    z 0.000000 0.000000 1.724360 
# 
# From -- ./inp_files/67529.got.cif
#   From: 2010.03.12/outbox.cif.g09.slc.cpg/sg65_34_cif.got.tgz:67529.got - 2010.04.10 20:52:16.
