data_PCOD8266698
_publ_section_title
;
Structure prediction by ZEFSAII (Michael W. Deem and Ramdas Pophale) SiO2 
 PCOD8266698
Probable space group: C M M M
;
_chemical_formula_sum "Si O2"
_cell_formula_units_Z 88
_cell_length_a 30.440298
_cell_length_b 19.683586
_cell_length_c 7.837826
_cell_angle_alpha 90.000000
_cell_angle_beta 90.000000
_cell_angle_gamma 90.000000
_cell_volume 4696.223308
_symmetry_space_group_name_H-M "C M M M"
_symmetry_group_IT_number 65
_symmetry_cell_setting 'orthorhombic'
loop_
_space_group_symop_operation_xyz
x,y,z
-x,-y,z
x,-y,-z
-x,y,-z
-x,-y,-z
x,y,-z
-x,y,z
x,-y,z
1/2+x,1/2+y,z
1/2-x,1/2-y,z
1/2+x,1/2-y,-z
1/2-x,1/2+y,-z
1/2-x,1/2-y,-z
1/2+x,1/2+y,-z
1/2-x,1/2+y,z
1/2+x,1/2-y,z
loop_
_atom_site_type_symbol
_atom_site_label
_atom_site_fract_x
_atom_site_fract_y
_atom_site_fract_z
Si Si1 0.621200 0.391212 0.698985
Si Si2 0.419507 0.927192 0.500000
Si Si3 0.548117 0.785285 0.500000
Si Si4 0.891976 0.254166 0.811145
Si Si5 0.313793 0.500000 0.693553
Si Si6 0.856022 0.605172 0.195746
Si Si7 0.550866 0.500000 0.201796
Si Si8 0.717043 0.000000 0.194764
O O1 0.624044 0.373416 0.500000
O O2 0.626910 0.321346 0.802059
O O3 0.663076 0.433301 0.771760
O O4 0.575825 0.432201 0.732609
O O5 0.454611 0.867084 0.500000
O O6 0.390945 0.924084 0.672190
O O7 0.443880 0.000000 0.500000
O O8 0.500000 0.754002 0.500000
O O9 0.570472 0.759204 0.329087
O O10 0.854469 0.312510 0.780307
O O11 0.912263 0.265707 0.000000
O O12 0.330064 0.500000 0.500000
O O13 0.261543 0.500000 0.698817
O O14 0.809770 0.568852 0.239109
O O15 0.869095 0.586051 0.000000
O O16 0.500000 0.500000 0.267551
O O17 0.551607 0.500000 0.000000
O O18 0.731811 0.000000 0.000000
#
# Coordination Sequence:
#
# PCOD8266698 Si02
#       8
#    16   8   8  16   8  16   8   8
#     4  10  20  38  56  77 111 146 182 224 273 327
#     4  10  18  31  56  78 102 149 181 219 279 323
#     4  10  22  37  52  79 115 141 179 231 274 328
#     4  10  20  37  60  79 106 148 187 225 273 326
#     4   9  21  35  54  80 111 146 178 219 276 332
#     4   9  19  33  52  83 111 137 185 232 266 319
#     4  10  21  35  54  81 105 135 184 228 269 326
#     4  10  19  33  54  82 112 140 179 232 276 315
#
# _framework density 18.738462999999999
#
# number of rings (size 3 to 8) (size 9 to 14) (size 15 to 20)
#    0.000    2.273    1.818    1.364    1.273    4.182 
#    0.000    0.909    0.000    5.455    0.000    5.091 
#    0.000    0.000    0.000    0.000    0.000    0.000 
#
# Total GULP energy -545158.969536 kJ/mol
# GULP energy per Si atom -12389.976580 kJ/mol
# Density = 1.869581 g / cm^3
# Si number density = 18.738463 Si / 1000 Ang^3
#
#
#
# Elastic Constant Matrix: (Units=GPa)
#
#
# Indices 1 2 3 4 5 6 
#
# 1 108.9402 49.2194 30.8127 0.0000 0.0000 0.0000
# 2 49.2194 156.1638 27.1409 0.0000 0.0000 0.0000
# 3 30.8127 27.1409 89.7944 0.0000 0.0000 0.0000
# 4 0.0000 0.0000 0.0000 -72.5723 0.0000 0.0000
# 5 0.0000 0.0000 0.0000 0.0000 4.1311 0.0000
# 6 0.0000 0.0000 0.0000 0.0000 0.0000 12.5842
#
#
#
# Elastic Compliance Matrix: (Units=1/GPa)
#
#
# Indices 1 2 3 4 5 6 
#
# 1 0.011415 -0.003079 -0.002986 0.000000 0.000000 0.000000
# 2 -0.003079 0.007589 -0.001237 0.000000 0.000000 0.000000
# 3 -0.002986 -0.001237 0.012535 0.000000 0.000000 0.000000
# 4 0.000000 0.000000 0.000000 -0.013779 0.000000 0.000000
# 5 0.000000 0.000000 0.000000 0.000000 0.242067 0.000000
# 6 0.000000 0.000000 0.000000 0.000000 0.000000 0.079465
#
#
# Mechanical properties :
#
#
# Convention : Reuss Voigt Hill
#
# Bulk Modulus (GPa) = 59.05203 63.24937 61.15070
# Shear Modulus (GPa) = 13.90662 5.34362 9.62512
#
# Velocity S-wave (km/s) = 2.72719 1.69053 2.26886
# Velocity P-wave (km/s) = 6.44197 6.13494 6.29033
#
# Compressibility (1/GPa) = 0.01693422
#
# Stress axis : x y z
#
# Youngs Moduli (GPa) = 87.60389 131.77090 79.77444
#
# Poissons Ratio (x) = 0.40569 0.23824
# Poissons Ratio (y) = 0.26971 0.09871
# Poissons Ratio (z) = 0.26163 0.16305
#
# Static dielectric constant tensor:
#      x y z
#    x 3.080100 0.000000 0.000000 
#    y 0.000000 3.767130 0.000000 
#    z 0.000000 0.000000 3.554570 
# 
# 
# High freq. dielectric constant tensor:
#      x y z
#    x 1.685880 0.000000 0.000000 
#    y 0.000000 1.742620 0.000000 
#    z 0.000000 0.000000 1.744280 
# 
# From -- ./inp_files/18411.got.cif
#   From: 2010.03.12/outbox.cif.g09.slc.cpg/sg65_10_cif.got.tgz:18411.got - 2010.04.10 20:52:16.
