data_PCOD8266634
_publ_section_title
;
Structure prediction by ZEFSAII (Michael W. Deem and Ramdas Pophale) SiO2 
 PCOD8266634
Probable space group: C M M M
;
_chemical_formula_sum "Si O2"
_cell_formula_units_Z 56
_cell_length_a 8.610670
_cell_length_b 15.339657
_cell_length_c 21.790399
_cell_angle_alpha 90.000000
_cell_angle_beta 90.000000
_cell_angle_gamma 90.000000
_cell_volume 2878.178845
_symmetry_space_group_name_H-M "C M M M"
_symmetry_group_IT_number 65
_symmetry_cell_setting 'orthorhombic'
loop_
_space_group_symop_operation_xyz
x,y,z
-x,-y,z
x,-y,-z
-x,y,-z
-x,-y,-z
x,y,-z
-x,y,z
x,-y,z
1/2+x,1/2+y,z
1/2-x,1/2-y,z
1/2+x,1/2-y,-z
1/2-x,1/2+y,-z
1/2-x,1/2-y,-z
1/2+x,1/2+y,-z
1/2-x,1/2+y,z
1/2+x,1/2-y,z
loop_
_atom_site_type_symbol
_atom_site_label
_atom_site_fract_x
_atom_site_fract_y
_atom_site_fract_z
Si Si1 0.314574 0.000000 0.149570
Si Si2 0.815723 0.346349 0.374470
Si Si3 0.184067 0.500000 0.712829
Si Si4 0.815448 0.846501 0.500000
Si Si5 0.683889 0.840842 0.930608
O O1 0.250846 0.084417 0.113886
O O2 0.500000 0.000000 0.150033
O O3 0.246744 0.000000 0.218487
O O4 0.750000 0.250000 0.360807
O O5 0.759854 0.411950 0.321113
O O6 0.749695 0.389118 0.437578
O O7 0.000000 0.339865 0.379354
O O8 0.000000 0.500000 0.714820
O O9 0.750000 0.750000 0.500000
O O10 0.000000 0.849323 0.500000
O O11 0.500000 0.837715 0.928692
O O12 0.750000 0.750000 0.905756
O O13 0.742188 0.859090 0.000000
#
# Coordination Sequence:
#
# PCOD8266634 Si02
#       5
#     8  16   8   8  16
#     4   9  17  32  51  71  98 134 173 204 236 290
#     4  10  19  34  53  74  99 128 163 204 249 294
#     4   9  20  34  50  72  99 134 171 202 240 295
#     4  10  18  31  52  77 100 126 160 201 251 297
#     4   9  17  30  51  77 102 129 164 206 249 291
#
# _framework density 19.456748000000001
#
# number of rings (size 3 to 8) (size 9 to 14) (size 15 to 20)
#    0.000    2.571    0.000    4.286    0.000    3.429 
#    0.000    6.429    0.000    8.571    0.000    0.000 
#    0.000    0.000    0.000    0.000    0.000    0.000 
#
# Total GULP energy -347094.281253 kJ/mol
# GULP energy per Si atom -12396.224330 kJ/mol
# Density = 1.941246 g / cm^3
# Si number density = 19.456748 Si / 1000 Ang^3
#
#
#
# Elastic Constant Matrix: (Units=GPa)
#
#
# Indices 1 2 3 4 5 6 
#
# 1 59.7033 27.5351 28.6458 0.0000 0.0000 0.0000
# 2 27.5351 157.3034 107.1674 0.0000 0.0000 0.0000
# 3 28.6458 107.1674 177.1077 0.0000 0.0000 0.0000
# 4 0.0000 0.0000 0.0000 25.6076 0.0000 0.0000
# 5 0.0000 0.0000 0.0000 0.0000 17.3725 0.0000
# 6 0.0000 0.0000 0.0000 0.0000 0.0000 25.6603
#
#
#
# Elastic Compliance Matrix: (Units=1/GPa)
#
#
# Indices 1 2 3 4 5 6 
#
# 1 0.018538 -0.002045 -0.001761 0.000000 0.000000 0.000000
# 2 -0.002045 0.011042 -0.006350 0.000000 0.000000 0.000000
# 3 -0.001761 -0.006350 0.009774 0.000000 0.000000 0.000000
# 4 0.000000 0.000000 0.000000 0.039051 0.000000 0.000000
# 5 0.000000 0.000000 0.000000 0.000000 0.057562 0.000000
# 6 0.000000 0.000000 0.000000 0.000000 0.000000 0.038971
#
#
# Mechanical properties :
#
#
# Convention : Reuss Voigt Hill
#
# Bulk Modulus (GPa) = 52.52125 80.09011 66.30568
# Shear Modulus (GPa) = 24.80207 29.11250 26.95728
#
# Velocity S-wave (km/s) = 3.57421 3.87236 3.72627
# Velocity P-wave (km/s) = 6.63971 7.82599 7.25713
#
# Compressibility (1/GPa) = 0.01903991
#
# Stress axis : x y z
#
# Youngs Moduli (GPa) = 53.94447 90.56692 102.31594
#
# Poissons Ratio (x) = 0.18525 0.18014
# Poissons Ratio (y) = 0.11034 0.64975
# Poissons Ratio (z) = 0.09498 0.57513
#
# Static dielectric constant tensor:
#      x y z
#    x 3.236170 0.000000 0.000000 
#    y 0.000000 3.656740 0.000000 
#    z 0.000000 0.000000 4.147400 
# 
# 
# High freq. dielectric constant tensor:
#      x y z
#    x 1.730410 0.000000 0.000000 
#    y 0.000000 1.757970 0.000000 
#    z 0.000000 0.000000 1.761770 
# 
# From -- ./inp_files/53954.got.cif
#   From: 2010.03.12/outbox.cif.g09.slc.cpg/sg65_27_cif.got.tgz:53954.got - 2010.04.10 20:52:16.
