data_PCOD8266994
_publ_section_title
;
Structure prediction by ZEFSAII (Michael W. Deem and Ramdas Pophale) SiO2 
 PCOD8266994
Probable space group: C M M M
;
_chemical_formula_sum "Si O2"
_cell_formula_units_Z 80
_cell_length_a 23.585846
_cell_length_b 14.153714
_cell_length_c 11.447951
_cell_angle_alpha 90.000000
_cell_angle_beta 90.000000
_cell_angle_gamma 90.000000
_cell_volume 3821.638787
_symmetry_space_group_name_H-M "C M M M"
_symmetry_group_IT_number 65
_symmetry_cell_setting 'orthorhombic'
loop_
_space_group_symop_operation_xyz
x,y,z
-x,-y,z
x,-y,-z
-x,y,-z
-x,-y,-z
x,y,-z
-x,y,z
x,-y,z
1/2+x,1/2+y,z
1/2-x,1/2-y,z
1/2+x,1/2-y,-z
1/2-x,1/2+y,-z
1/2-x,1/2-y,-z
1/2+x,1/2+y,-z
1/2-x,1/2+y,z
1/2+x,1/2-y,z
loop_
_atom_site_type_symbol
_atom_site_label
_atom_site_fract_x
_atom_site_fract_y
_atom_site_fract_z
Si Si1 0.165673 0.387786 0.867137
Si Si2 0.223443 0.111460 0.257370
Si Si3 0.323958 0.388081 0.500000
Si Si4 0.064239 0.223606 0.500000
Si Si5 0.609320 0.607605 0.136327
Si Si6 0.063060 0.715304 0.248394
O O1 0.165824 0.500000 0.861238
O O2 0.217608 0.344630 0.790464
O O3 0.106567 0.351610 0.817440
O O4 0.172511 0.352752 0.000000
O O5 0.207986 0.152635 0.385375
O O6 0.173883 0.136496 0.165863
O O7 0.230949 0.000000 0.266220
O O8 0.322836 0.500000 0.500000
O O9 0.389918 0.359907 0.500000
O O10 0.073618 0.289844 0.612796
O O11 0.000000 0.181237 0.500000
O O12 0.596836 0.500000 0.175552
O O13 0.567652 0.675684 0.207166
O O14 0.598956 0.621256 0.000000
O O15 0.000000 0.679180 0.217980
#
# Coordination Sequence:
#
# PCOD8266994 Si02
#       6
#    16  16   8   8  16  16
#     4  10  22  41  64  88 117 156 199 248 307 361
#     4   9  18  34  57  88 121 150 192 244 293 354
#     4  10  18  34  61  90 121 161 203 246 292 343
#     4  10  22  40  58  81 121 163 199 246 297 349
#     4  10  20  35  57  85 121 160 192 236 299 360
#     4  11  24  41  60  86 118 155 205 255 296 351
#
# _framework density 20.933426999999998
#
# number of rings (size 3 to 8) (size 9 to 14) (size 15 to 20)
#    0.000    2.000    2.000    1.200    0.000    6.600 
#    0.000    8.500    0.000    1.800    0.000    0.000 
#    0.000    0.000    0.000    0.000    0.000    0.000 
#
# Total GULP energy -496016.902564 kJ/mol
# GULP energy per Si atom -12400.422564 kJ/mol
# Density = 2.088578 g / cm^3
# Si number density = 20.933427 Si / 1000 Ang^3
#
#
#
# Elastic Constant Matrix: (Units=GPa)
#
#
# Indices 1 2 3 4 5 6 
#
# 1 147.1467 17.7114 72.9589 0.0000 0.0000 0.0000
# 2 17.7114 7.7207 22.4520 0.0000 0.0000 0.0000
# 3 72.9589 22.4520 153.9483 0.0000 0.0000 0.0000
# 4 0.0000 0.0000 0.0000 22.1452 0.0000 0.0000
# 5 0.0000 0.0000 0.0000 0.0000 30.1401 0.0000
# 6 0.0000 0.0000 0.0000 0.0000 0.0000 33.7451
#
#
#
# Elastic Compliance Matrix: (Units=1/GPa)
#
#
# Indices 1 2 3 4 5 6 
#
# 1 0.009869 -0.015695 -0.002388 0.000000 0.000000 0.000000
# 2 -0.015695 0.249869 -0.029003 0.000000 0.000000 0.000000
# 3 -0.002388 -0.029003 0.011857 0.000000 0.000000 0.000000
# 4 0.000000 0.000000 0.000000 0.045157 0.000000 0.000000
# 5 0.000000 0.000000 0.000000 0.000000 0.033178 0.000000
# 6 0.000000 0.000000 0.000000 0.000000 0.000000 0.029634
#
#
# Mechanical properties :
#
#
# Convention : Reuss Voigt Hill
#
# Bulk Modulus (GPa) = 5.63624 59.45112 32.54368
# Shear Modulus (GPa) = 9.38300 30.25230 19.81765
#
# Velocity S-wave (km/s) = 2.11944 3.80566 3.08019
# Velocity P-wave (km/s) = 2.94749 6.91176 5.31320
#
# Compressibility (1/GPa) = 0.17742317
#
# Stress axis : x y z
#
# Youngs Moduli (GPa) = 101.32502 4.00209 84.33611
#
# Poissons Ratio (x) = 0.06281 0.20141
# Poissons Ratio (y) = 1.59032 2.44600
# Poissons Ratio (z) = 0.24198 0.11607
#
# Static dielectric constant tensor:
#      x y z
#    x 3.818820 0.000000 0.000000 
#    y 0.000000 3.476300 0.000000 
#    z 0.000000 0.000000 4.150460 
# 
# 
# High freq. dielectric constant tensor:
#      x y z
#    x 1.821820 0.000000 0.000000 
#    y 0.000000 1.795450 0.000000 
#    z 0.000000 0.000000 1.835950 
# 
# From -- ./inp_files/30421.got.cif
#   From: 2010.03.12/outbox.cif.g09.slc.cpg/sg65_16_cif.got.tgz:30421.got - 2010.04.10 20:52:16.
