data_PCOD8266100
_publ_section_title
;
Structure prediction by ZEFSAII (Michael W. Deem and Ramdas Pophale) SiO2 
 PCOD8266100
Probable space group: C M M M
;
_chemical_formula_sum "Si O2"
_cell_formula_units_Z 104
_cell_length_a 29.944218
_cell_length_b 20.925156
_cell_length_c 9.374729
_cell_angle_alpha 90.000000
_cell_angle_beta 90.000000
_cell_angle_gamma 90.000000
_cell_volume 5874.087379
_symmetry_space_group_name_H-M "C M M M"
_symmetry_group_IT_number 65
_symmetry_cell_setting 'orthorhombic'
loop_
_space_group_symop_operation_xyz
x,y,z
-x,-y,z
x,-y,-z
-x,y,-z
-x,-y,-z
x,y,-z
-x,y,z
x,-y,z
1/2+x,1/2+y,z
1/2-x,1/2-y,z
1/2+x,1/2-y,-z
1/2-x,1/2+y,-z
1/2-x,1/2-y,-z
1/2+x,1/2+y,-z
1/2-x,1/2+y,z
1/2+x,1/2-y,z
loop_
_atom_site_type_symbol
_atom_site_label
_atom_site_fract_x
_atom_site_fract_y
_atom_site_fract_z
Si Si1 0.448479 0.876135 0.832457
Si Si2 0.725564 0.185949 0.169780
Si Si3 0.286227 0.428226 0.830138
Si Si4 0.052757 0.500000 0.339850
Si Si5 0.128584 0.717560 0.831062
Si Si6 0.875410 0.860582 0.169122
Si Si7 0.949459 0.074086 0.340111
O O1 0.500000 0.858090 0.797028
O O2 0.431590 0.937871 0.746605
O O3 0.416008 0.819240 0.780114
O O4 0.443006 0.890615 0.000000
O O5 0.750000 0.250000 0.228507
O O6 0.749202 0.121544 0.228565
O O7 0.674141 0.183484 0.222188
O O8 0.728824 0.187023 0.000000
O O9 0.277392 0.500000 0.770427
O O10 0.334375 0.403764 0.775957
O O11 0.285350 0.429355 0.000000
O O12 0.073205 0.500000 0.500000
O O13 0.000000 0.500000 0.348769
O O14 0.129002 0.789073 0.769171
O O15 0.128947 0.720453 0.000000
O O16 0.921420 0.888089 0.225010
O O17 0.876964 0.859927 0.000000
O O18 0.931516 0.086782 0.500000
O O19 0.000000 0.098512 0.326974
O O20 0.946595 0.000000 0.302578
#
# Coordination Sequence:
#
# PCOD8266100 Si02
#       7
#    16  16  16   8  16  16  16
#     4   9  17  30  47  68  97 128 158 197 241 284
#     4   9  14  25  42  61  94 134 160 189 238 290
#     4   9  16  25  40  66  98 126 156 199 245 283
#     4   9  17  31  51  71  91 121 161 199 239 289
#     4   9  17  28  44  68  98 131 163 192 234 292
#     4  10  18  29  48  73  99 125 156 197 244 289
#     4   9  19  35  50  65  92 129 164 198 237 282
#
# _framework density 17.704878000000001
#
# number of rings (size 3 to 8) (size 9 to 14) (size 15 to 20)
#    0.000    2.846    1.538    1.154    0.000    2.769 
#    1.385    3.077    0.000    1.846    0.000    3.231 
#    0.000    0.000    0.000    0.000    0.000    0.000 
#
# Total GULP energy -644541.894253 kJ/mol
# GULP energy per Si atom -12395.036428 kJ/mol
# Density = 1.766458 g / cm^3
# Si number density = 17.704878 Si / 1000 Ang^3
#
#
#
# Elastic Constant Matrix: (Units=GPa)
#
#
# Indices 1 2 3 4 5 6 
#
# 1 120.9570 76.6168 20.6445 0.0000 0.0000 0.0000
# 2 76.6168 147.4605 21.7224 0.0000 0.0000 0.0000
# 3 20.6445 21.7224 21.0216 0.0000 0.0000 0.0000
# 4 0.0000 0.0000 0.0000 8.4607 0.0000 0.0000
# 5 0.0000 0.0000 0.0000 0.0000 5.2097 0.0000
# 6 0.0000 0.0000 0.0000 0.0000 0.0000 36.5403
#
#
#
# Elastic Compliance Matrix: (Units=1/GPa)
#
#
# Indices 1 2 3 4 5 6 
#
# 1 0.013117 -0.005801 -0.006888 0.000000 0.000000 0.000000
# 2 -0.005801 0.010564 -0.005220 0.000000 0.000000 0.000000
# 3 -0.006888 -0.005220 0.059728 0.000000 0.000000 0.000000
# 4 0.000000 0.000000 0.000000 0.118193 0.000000 0.000000
# 5 0.000000 0.000000 0.000000 0.000000 0.191949 0.000000
# 6 0.000000 0.000000 0.000000 0.000000 0.000000 0.027367
#
#
# Mechanical properties :
#
#
# Convention : Reuss Voigt Hill
#
# Bulk Modulus (GPa) = 21.01148 58.60072 39.80610
# Shear Modulus (GPa) = 10.57976 21.40585 15.99281
#
# Velocity S-wave (km/s) = 2.44716 3.48089 3.00875
# Velocity P-wave (km/s) = 4.45850 7.02324 5.88235
#
# Compressibility (1/GPa) = 0.04759302
#
# Stress axis : x y z
#
# Youngs Moduli (GPa) = 76.23498 94.65791 16.74250
#
# Poissons Ratio (x) = 0.54909 0.11532
# Poissons Ratio (y) = 0.44222 0.08739
# Poissons Ratio (z) = 0.52509 0.49410
#
# Static dielectric constant tensor:
#      x y z
#    x 3.378210 0.000000 0.000000 
#    y 0.000000 3.511220 0.000000 
#    z 0.000000 0.000000 2.796480 
# 
# 
# High freq. dielectric constant tensor:
#      x y z
#    x 1.686050 0.000000 0.000000 
#    y 0.000000 1.690990 0.000000 
#    z 0.000000 0.000000 1.626060 
# 
# From -- ./inp_files/18687.got.cif
#   From: 2010.03.12/outbox.cif.g09.slc.cpg/sg65_10_cif.got.tgz:18687.got - 2010.04.10 20:52:16.
