data_PCOD8266791
_publ_section_title
;
Structure prediction by ZEFSAII (Michael W. Deem and Ramdas Pophale) SiO2 
 PCOD8266791
Probable space group: C M M M
;
_chemical_formula_sum "Si O2"
_cell_formula_units_Z 72
_cell_length_a 27.840196
_cell_length_b 14.629646
_cell_length_c 9.158995
_cell_angle_alpha 90.000000
_cell_angle_beta 90.000000
_cell_angle_gamma 90.000000
_cell_volume 3730.387334
_symmetry_space_group_name_H-M "C M M M"
_symmetry_group_IT_number 65
_symmetry_cell_setting 'orthorhombic'
loop_
_space_group_symop_operation_xyz
x,y,z
-x,-y,z
x,-y,-z
-x,y,-z
-x,-y,-z
x,y,-z
-x,y,z
x,-y,z
1/2+x,1/2+y,z
1/2-x,1/2-y,z
1/2+x,1/2-y,-z
1/2-x,1/2+y,-z
1/2-x,1/2-y,-z
1/2+x,1/2+y,-z
1/2-x,1/2+y,z
1/2+x,1/2-y,z
loop_
_atom_site_type_symbol
_atom_site_label
_atom_site_fract_x
_atom_site_fract_y
_atom_site_fract_z
Si Si1 0.000000 0.104835 0.825996
Si Si2 0.261902 0.855717 0.165715
Si Si3 0.671811 0.398799 0.664535
Si Si4 0.407046 0.287776 0.173230
Si Si5 0.131407 0.600415 0.826981
O O1 0.953977 0.160337 0.765451
O O2 0.000000 0.000000 0.767512
O O3 0.000000 0.104369 0.000000
O O4 0.250000 0.750000 0.172889
O O5 0.225097 0.907595 0.270305
O O6 0.315097 0.875302 0.228008
O O7 0.256913 0.892466 0.000000
O O8 0.673765 0.359599 0.500000
O O9 0.648933 0.500000 0.664734
O O10 0.640388 0.333747 0.764950
O O11 0.405950 0.180460 0.221916
O O12 0.404671 0.296936 0.000000
O O13 0.115565 0.500000 0.766229
O O14 0.132282 0.597949 0.000000
#
# Coordination Sequence:
#
# PCOD8266791 Si02
#       5
#     8  16  16  16  16
#     4   9  18  32  54  82 104 127 167 221 272 315
#     4  10  18  32  53  76 101 138 182 216 252 301
#     4  11  23  35  49  75 109 142 175 214 262 312
#     4  10  19  35  56  77 102 134 175 218 263 316
#     4   9  17  30  50  76 105 136 172 214 257 304
#
# _framework density 19.300944999999999
#
# number of rings (size 3 to 8) (size 9 to 14) (size 15 to 20)
#    0.000    2.111    2.222    2.000    0.000    4.000 
#    0.000    1.111    0.000    6.000    0.000    0.000 
#    0.000    1.778    0.000    0.000    0.000    0.000 
#
# Total GULP energy -446201.417519 kJ/mol
# GULP energy per Si atom -12394.483820 kJ/mol
# Density = 1.925702 g / cm^3
# Si number density = 19.300945 Si / 1000 Ang^3
#
#
#
# Elastic Constant Matrix: (Units=GPa)
#
#
# Indices 1 2 3 4 5 6 
#
# 1 103.5689 68.5659 17.5509 0.0000 0.0000 0.0000
# 2 68.5659 164.5783 17.5981 0.0000 0.0000 0.0000
# 3 17.5509 17.5981 32.4232 0.0000 0.0000 0.0000
# 4 0.0000 0.0000 0.0000 12.9179 0.0000 0.0000
# 5 0.0000 0.0000 0.0000 0.0000 2.5456 0.0000
# 6 0.0000 0.0000 0.0000 0.0000 0.0000 33.3842
#
#
#
# Elastic Compliance Matrix: (Units=1/GPa)
#
#
# Indices 1 2 3 4 5 6 
#
# 1 0.013970 -0.005320 -0.004674 0.000000 0.000000 0.000000
# 2 -0.005320 0.008477 -0.001721 0.000000 0.000000 0.000000
# 3 -0.004674 -0.001721 0.034306 0.000000 0.000000 0.000000
# 4 0.000000 0.000000 0.000000 0.077412 0.000000 0.000000
# 5 0.000000 0.000000 0.000000 0.000000 0.392832 0.000000
# 6 0.000000 0.000000 0.000000 0.000000 0.000000 0.029954
#
#
# Mechanical properties :
#
#
# Convention : Reuss Voigt Hill
#
# Bulk Modulus (GPa) = 30.01032 56.44446 43.22739
# Shear Modulus (GPa) = 8.45324 22.89323 15.67323
#
# Velocity S-wave (km/s) = 2.09504 3.44774 2.85273
# Velocity P-wave (km/s) = 4.62976 6.71991 5.77026
#
# Compressibility (1/GPa) = 0.03332187
#
# Stress axis : x y z
#
# Youngs Moduli (GPa) = 71.58390 117.97161 29.14910
#
# Poissons Ratio (x) = 0.62763 0.13625
# Poissons Ratio (y) = 0.38084 0.05016
# Poissons Ratio (z) = 0.33460 0.20303
#
# Static dielectric constant tensor:
#      x y z
#    x 3.518220 0.000000 0.000000 
#    y 0.000000 3.995130 0.000000 
#    z 0.000000 0.000000 3.108160 
# 
# 
# High freq. dielectric constant tensor:
#      x y z
#    x 1.731270 0.000000 0.000000 
#    y 0.000000 1.771650 0.000000 
#    z 0.000000 0.000000 1.701830 
# 
# From -- ./inp_files/7285.got.cif
#   From: 2010.03.12/outbox.cif.g09.slc.cpg/sg65_4_cif.got.tgz:7285.got - 2010.04.10 20:52:16.
