data_PCOD8266048
_publ_section_title
;
Structure prediction by ZEFSAII (Michael W. Deem and Ramdas Pophale) SiO2 
 PCOD8266048
Probable space group: C M M M
;
_chemical_formula_sum "Si O2"
_cell_formula_units_Z 80
_cell_length_a 25.186334
_cell_length_b 20.702035
_cell_length_c 9.105183
_cell_angle_alpha 90.000000
_cell_angle_beta 90.000000
_cell_angle_gamma 90.000000
_cell_volume 4747.518608
_symmetry_space_group_name_H-M "C M M M"
_symmetry_group_IT_number 65
_symmetry_cell_setting 'orthorhombic'
loop_
_space_group_symop_operation_xyz
x,y,z
-x,-y,z
x,-y,-z
-x,y,-z
-x,-y,-z
x,y,-z
-x,y,z
x,-y,z
1/2+x,1/2+y,z
1/2-x,1/2-y,z
1/2+x,1/2-y,-z
1/2-x,1/2+y,-z
1/2-x,1/2-y,-z
1/2+x,1/2+y,-z
1/2-x,1/2+y,z
1/2+x,1/2-y,z
loop_
_atom_site_type_symbol
_atom_site_label
_atom_site_fract_x
_atom_site_fract_y
_atom_site_fract_z
Si Si1 0.786011 0.572481 0.669705
Si Si2 0.000000 0.371257 0.164257
Si Si3 0.500000 0.717243 0.160730
Si Si4 0.604230 0.135667 0.329016
Si Si5 0.775255 0.183797 0.829382
Si Si6 0.612102 0.731204 0.173408
O O1 0.771883 0.580330 0.500000
O O2 0.774127 0.500000 0.725027
O O3 0.848048 0.585909 0.696368
O O4 0.748119 0.621016 0.754659
O O5 0.052419 0.394418 0.250870
O O6 0.000000 0.294450 0.156362
O O7 0.000000 0.400937 0.000000
O O8 0.556780 0.697995 0.234836
O O9 0.500000 0.685739 0.000000
O O10 0.591580 0.146777 0.500000
O O11 0.623172 0.202756 0.258150
O O12 0.750000 0.250000 0.765042
O O13 0.838637 0.183551 0.800211
O O14 0.761283 0.179425 0.000000
O O15 0.605293 0.747419 0.000000
#
# Coordination Sequence:
#
# PCOD8266048 Si02
#       6
#    16   8   8  16  16  16
#     4  10  22  37  50  68  98 134 169 206 251 300
#     4   9  17  29  46  66  93 127 161 201 248 289
#     4   7  12  23  41  64  91 122 150 182 230 286
#     4  10  18  29  47  69  93 124 166 207 243 287
#     4  10  19  31  50  75 101 127 162 207 251 298
#     4   9  16  28  46  70  99 128 158 196 246 295
#
# _framework density 16.850908
#
# number of rings (size 3 to 8) (size 9 to 14) (size 15 to 20)
#    0.000    2.600    2.000    2.100    0.000    2.400 
#    0.000    0.500    0.000    3.000    0.000    0.700 
#    0.000    5.600    0.000    0.000    0.000    0.000 
#
# Total GULP energy -495681.106395 kJ/mol
# GULP energy per Si atom -12392.027660 kJ/mol
# Density = 1.681255 g / cm^3
# Si number density = 16.850908 Si / 1000 Ang^3
#
#
#
# Elastic Constant Matrix: (Units=GPa)
#
#
# Indices 1 2 3 4 5 6 
#
# 1 142.7130 62.0762 47.9101 0.0000 0.0000 0.0000
# 2 62.0762 89.6809 40.4627 0.0000 0.0000 0.0000
# 3 47.9101 40.4627 70.7778 0.0000 0.0000 0.0000
# 4 0.0000 0.0000 0.0000 17.9001 0.0000 0.0000
# 5 0.0000 0.0000 0.0000 0.0000 27.4293 0.0000
# 6 0.0000 0.0000 0.0000 0.0000 0.0000 15.3160
#
#
#
# Elastic Compliance Matrix: (Units=1/GPa)
#
#
# Indices 1 2 3 4 5 6 
#
# 1 0.010846 -0.005653 -0.004110 0.000000 0.000000 0.000000
# 2 -0.005653 0.017973 -0.006448 0.000000 0.000000 0.000000
# 3 -0.004110 -0.006448 0.020597 0.000000 0.000000 0.000000
# 4 0.000000 0.000000 0.000000 0.055866 0.000000 0.000000
# 5 0.000000 0.000000 0.000000 0.000000 0.036457 0.000000
# 6 0.000000 0.000000 0.000000 0.000000 0.000000 0.065291
#
#
# Mechanical properties :
#
#
# Convention : Reuss Voigt Hill
#
# Bulk Modulus (GPa) = 58.84602 67.11886 62.98244
# Shear Modulus (GPa) = 20.39843 22.31058 21.35451
#
# Velocity S-wave (km/s) = 3.48303 3.64263 3.56372
# Velocity P-wave (km/s) = 7.15351 7.59007 7.37502
#
# Compressibility (1/GPa) = 0.01699350
#
# Stress axis : x y z
#
# Youngs Moduli (GPa) = 92.20284 55.63906 48.55047
#
# Poissons Ratio (x) = 0.31453 0.19953
# Poissons Ratio (y) = 0.52122 0.31307
# Poissons Ratio (z) = 0.37893 0.35878
#
# Static dielectric constant tensor:
#      x y z
#    x 3.618810 0.000000 0.000000 
#    y 0.000000 2.731400 0.000000 
#    z 0.000000 0.000000 3.124890 
# 
# 
# High freq. dielectric constant tensor:
#      x y z
#    x 1.671740 0.000000 0.000000 
#    y 0.000000 1.594600 0.000000 
#    z 0.000000 0.000000 1.641340 
# 
# From -- ./inp_files/12099.got.cif
#   From: 2010.03.12/outbox.cif.g09.slc.cpg/sg65_7_cif.got.tgz:12099.got - 2010.04.10 20:52:16.
