data_PCOD8266399
_publ_section_title
;
Structure prediction by ZEFSAII (Michael W. Deem and Ramdas Pophale) SiO2 
 PCOD8266399
Probable space group: C M M M
;
_chemical_formula_sum "Si O2"
_cell_formula_units_Z 104
_cell_length_a 9.173775
_cell_length_b 29.036559
_cell_length_c 23.025287
_cell_angle_alpha 90.000000
_cell_angle_beta 90.000000
_cell_angle_gamma 90.000000
_cell_volume 6133.357579
_symmetry_space_group_name_H-M "C M M M"
_symmetry_group_IT_number 65
_symmetry_cell_setting 'orthorhombic'
loop_
_space_group_symop_operation_xyz
x,y,z
-x,-y,z
x,-y,-z
-x,y,-z
-x,-y,-z
x,y,-z
-x,y,z
x,-y,z
1/2+x,1/2+y,z
1/2-x,1/2-y,z
1/2+x,1/2-y,-z
1/2-x,1/2+y,-z
1/2-x,1/2-y,-z
1/2+x,1/2+y,-z
1/2-x,1/2+y,z
1/2+x,1/2-y,z
loop_
_atom_site_type_symbol
_atom_site_label
_atom_site_fract_x
_atom_site_fract_y
_atom_site_fract_z
Si Si1 0.168819 0.052608 0.331262
Si Si2 0.171177 0.447466 0.217460
Si Si3 0.672647 0.887102 0.107481
Si Si4 0.670015 0.617127 0.565690
Si Si5 0.327338 0.948314 0.000000
Si Si6 0.662243 0.792841 0.568970
Si Si7 0.171328 0.202725 0.932166
O O1 0.256079 0.072030 0.276079
O O2 0.215468 0.076608 0.391110
O O3 0.000000 0.060312 0.317824
O O4 0.209846 0.000000 0.341236
O O5 0.223439 0.500000 0.203800
O O6 0.217527 0.413155 0.166261
O O7 0.000000 0.446851 0.226496
O O8 0.500000 0.877428 0.103526
O O9 0.726313 0.920630 0.056216
O O10 0.757871 0.838869 0.104303
O O11 0.714385 0.602971 0.500000
O O12 0.500000 0.629007 0.568637
O O13 0.756366 0.661255 0.588117
O O14 0.500000 0.952370 0.000000
O O15 0.260147 0.000000 0.000000
O O16 0.656785 0.788756 0.500000
O O17 0.500000 0.793008 0.595247
O O18 0.750000 0.750000 0.595806
O O19 0.250000 0.250000 0.913173
O O20 0.000000 0.206511 0.918174
O O21 0.199603 0.193148 0.000000
#
# Coordination Sequence:
#
# PCOD8266399 Si02
#       7
#    16  16  16  16   8  16  16
#     4   9  18  32  49  69  94 127 165 201 240 286
#     4   9  18  32  50  72  97 128 166 202 236 283
#     4  10  18  30  50  74  99 128 163 201 242 283
#     4   9  17  29  46  69  96 124 157 199 244 289
#     4   9  16  26  44  71 100 127 156 193 234 277
#     4   9  16  26  42  65  93 123 153 185 226 279
#     4  10  20  33  50  72 100 131 165 202 243 291
#
# _framework density 16.956454000000001
#
# number of rings (size 3 to 8) (size 9 to 14) (size 15 to 20)
#    0.000    2.692    0.769    1.385    0.000    5.846 
#    0.000    1.538    0.000    2.769    0.000   10.769 
#    0.000    0.000    0.000    0.000    0.000    0.000 
#
# Total GULP energy -644746.441205 kJ/mol
# GULP energy per Si atom -12398.970023 kJ/mol
# Density = 1.691786 g / cm^3
# Si number density = 16.956454 Si / 1000 Ang^3
#
#
#
# Elastic Constant Matrix: (Units=GPa)
#
#
# Indices 1 2 3 4 5 6 
#
# 1 62.2140 54.4763 44.2624 0.0000 0.0000 0.0000
# 2 54.4763 126.9854 70.9367 0.0000 0.0000 0.0000
# 3 44.2624 70.9367 106.8986 0.0000 0.0000 0.0000
# 4 0.0000 0.0000 0.0000 13.3681 0.0000 0.0000
# 5 0.0000 0.0000 0.0000 0.0000 23.6714 0.0000
# 6 0.0000 0.0000 0.0000 0.0000 0.0000 29.1462
#
#
#
# Elastic Compliance Matrix: (Units=1/GPa)
#
#
# Indices 1 2 3 4 5 6 
#
# 1 0.027778 -0.008726 -0.005711 0.000000 0.000000 0.000000
# 2 -0.008726 0.015255 -0.006510 0.000000 0.000000 0.000000
# 3 -0.005711 -0.006510 0.016039 0.000000 0.000000 0.000000
# 4 0.000000 0.000000 0.000000 0.074805 0.000000 0.000000
# 5 0.000000 0.000000 0.000000 0.000000 0.042245 0.000000
# 6 0.000000 0.000000 0.000000 0.000000 0.000000 0.034310
#
#
# Mechanical properties :
#
#
# Convention : Reuss Voigt Hill
#
# Bulk Modulus (GPa) = 58.21506 70.60541 64.41024
# Shear Modulus (GPa) = 19.37597 21.66532 20.52064
#
# Velocity S-wave (km/s) = 3.38404 3.57838 3.48256
# Velocity P-wave (km/s) = 7.04809 7.66829 7.36472
#
# Compressibility (1/GPa) = 0.01717769
#
# Stress axis : x y z
#
# Youngs Moduli (GPa) = 36.00035 65.55241 62.34727
#
# Poissons Ratio (x) = 0.57202 0.35606
# Poissons Ratio (y) = 0.31415 0.40587
# Poissons Ratio (z) = 0.20560 0.42674
#
# Static dielectric constant tensor:
#      x y z
#    x 3.135680 0.000000 0.000000 
#    y 0.000000 3.249090 0.000000 
#    z 0.000000 0.000000 3.066230 
# 
# 
# High freq. dielectric constant tensor:
#      x y z
#    x 1.647820 0.000000 0.000000 
#    y 0.000000 1.656650 0.000000 
#    z 0.000000 0.000000 1.627760 
# 
# From -- ./inp_files/66390.got.cif
#   From: 2010.03.12/outbox.cif.g09.slc.cpg/sg65_34_cif.got.tgz:66390.got - 2010.04.10 20:52:16.
