data_PCOD8266058
_publ_section_title
;
Structure prediction by ZEFSAII (Michael W. Deem and Ramdas Pophale) SiO2 
 PCOD8266058
Probable space group: C M M M
;
_chemical_formula_sum "Si O2"
_cell_formula_units_Z 120
_cell_length_a 14.476238
_cell_length_b 21.866843
_cell_length_c 20.634363
_cell_angle_alpha 90.000000
_cell_angle_beta 90.000000
_cell_angle_gamma 90.000000
_cell_volume 6531.799840
_symmetry_space_group_name_H-M "C M M M"
_symmetry_group_IT_number 65
_symmetry_cell_setting 'orthorhombic'
loop_
_space_group_symop_operation_xyz
x,y,z
-x,-y,z
x,-y,-z
-x,y,-z
-x,-y,-z
x,y,-z
-x,y,z
x,-y,z
1/2+x,1/2+y,z
1/2-x,1/2-y,z
1/2+x,1/2-y,-z
1/2-x,1/2+y,-z
1/2-x,1/2-y,-z
1/2+x,1/2+y,-z
1/2-x,1/2+y,z
1/2+x,1/2-y,z
loop_
_atom_site_type_symbol
_atom_site_label
_atom_site_fract_x
_atom_site_fract_y
_atom_site_fract_z
Si Si1 0.796583 0.124951 0.073929
Si Si2 0.103761 0.648034 0.873721
Si Si3 0.391511 0.067045 0.755777
Si Si4 0.605602 0.848952 0.360477
Si Si5 0.727202 0.679804 0.430384
Si Si6 0.102885 0.212831 0.682060
Si Si7 0.848994 0.775176 0.824710
Si Si8 0.394043 0.500000 0.076282
O O1 0.684286 0.134163 0.074063
O O2 0.846512 0.173885 0.119709
O O3 0.833627 0.058934 0.098001
O O4 0.828040 0.136764 0.000000
O O5 0.143815 0.609895 0.813139
O O6 0.092044 0.718802 0.853095
O O7 0.000000 0.627138 0.896941
O O8 0.500000 0.061402 0.763359
O O9 0.367180 0.096744 0.687463
O O10 0.344941 0.000000 0.759871
O O11 0.500000 0.853339 0.384856
O O12 0.675693 0.855813 0.420394
O O13 0.625624 0.784763 0.324320
O O14 0.684497 0.657223 0.500000
O O15 0.750000 0.750000 0.438022
O O16 0.662797 0.670713 0.367012
O O17 0.112060 0.195784 0.758052
O O18 0.000000 0.199165 0.659070
O O19 0.750000 0.750000 0.806208
O O20 0.500000 0.500000 0.105165
O O21 0.403142 0.500000 0.000000
#
# Coordination Sequence:
#
# PCOD8266058 Si02
#       8
#    16  16  16  16  16  16  16   8
#     4  10  23  39  56  80 107 140 182 226 273 327
#     4  10  20  33  53  81 113 144 175 216 271 333
#     4   9  17  29  47  73 104 138 175 209 250 308
#     4   9  16  28  48  69  98 135 170 206 247 300
#     4   9  18  29  43  67  99 131 165 204 252 308
#     4  10  18  29  47  71 100 132 169 210 256 309
#     4  10  19  32  54  77 106 143 180 223 270 323
#     4   9  20  42  63  75  97 137 183 227 273 324
#
# _framework density 18.371658
#
# number of rings (size 3 to 8) (size 9 to 14) (size 15 to 20)
#    0.000    2.467    1.333    1.600    2.800    4.267 
#    0.000    2.667    0.000    1.600    0.000    1.867 
#    0.000    0.000    0.000    1.200    0.000    1.333 
#
# Total GULP energy -743338.721178 kJ/mol
# GULP energy per Si atom -12388.978686 kJ/mol
# Density = 1.832984 g / cm^3
# Si number density = 18.371658 Si / 1000 Ang^3
#
#
#
# Elastic Constant Matrix: (Units=GPa)
#
#
# Indices 1 2 3 4 5 6 
#
# 1 77.6550 33.1638 35.3845 0.0000 0.0000 0.0000
# 2 33.1638 92.0706 45.8493 0.0000 0.0000 0.0000
# 3 35.3845 45.8493 105.2881 0.0000 0.0000 0.0000
# 4 0.0000 0.0000 0.0000 28.6793 0.0000 0.0000
# 5 0.0000 0.0000 0.0000 0.0000 8.9355 0.0000
# 6 0.0000 0.0000 0.0000 0.0000 0.0000 17.6080
#
#
#
# Elastic Compliance Matrix: (Units=1/GPa)
#
#
# Indices 1 2 3 4 5 6 
#
# 1 0.016289 -0.004011 -0.003728 0.000000 0.000000 0.000000
# 2 -0.004011 0.014856 -0.005121 0.000000 0.000000 0.000000
# 3 -0.003728 -0.005121 0.012981 0.000000 0.000000 0.000000
# 4 0.000000 0.000000 0.000000 0.034868 0.000000 0.000000
# 5 0.000000 0.000000 0.000000 0.000000 0.111914 0.000000
# 6 0.000000 0.000000 0.000000 0.000000 0.000000 0.056792
#
#
# Mechanical properties :
#
#
# Convention : Reuss Voigt Hill
#
# Bulk Modulus (GPa) = 54.33040 55.97878 55.15459
# Shear Modulus (GPa) = 17.88552 21.75229 19.81891
#
# Velocity S-wave (km/s) = 3.12354 3.44468 3.28804
# Velocity P-wave (km/s) = 6.53038 6.80863 6.67096
#
# Compressibility (1/GPa) = 0.01840590
#
# Stress axis : x y z
#
# Youngs Moduli (GPa) = 61.39119 67.31126 77.03741
#
# Poissons Ratio (x) = 0.26999 0.28717
# Poissons Ratio (y) = 0.24624 0.39454
# Poissons Ratio (z) = 0.22884 0.34473
#
# Static dielectric constant tensor:
#      x y z
#    x 3.444100 0.000000 0.000000 
#    y 0.000000 3.452040 0.000000 
#    z 0.000000 0.000000 3.396430 
# 
# 
# High freq. dielectric constant tensor:
#      x y z
#    x 1.709580 0.000000 0.000000 
#    y 0.000000 1.676380 0.000000 
#    z 0.000000 0.000000 1.700990 
# 
# From -- ./inp_files/63015.got.cif
#   From: 2010.03.12/outbox.cif.g09.slc.cpg/sg65_32_cif.got.tgz:63015.got - 2010.04.10 20:52:16.
