data_PCOD8266233
_publ_section_title
;
Structure prediction by ZEFSAII (Michael W. Deem and Ramdas Pophale) SiO2 
 PCOD8266233
Probable space group: C M M M
;
_chemical_formula_sum "Si O2"
_cell_formula_units_Z 96
_cell_length_a 7.911841
_cell_length_b 29.440564
_cell_length_c 22.224192
_cell_angle_alpha 90.000000
_cell_angle_beta 90.000000
_cell_angle_gamma 90.000000
_cell_volume 5176.660181
_symmetry_space_group_name_H-M "C M M M"
_symmetry_group_IT_number 65
_symmetry_cell_setting 'orthorhombic'
loop_
_space_group_symop_operation_xyz
x,y,z
-x,-y,z
x,-y,-z
-x,y,-z
-x,-y,-z
x,y,-z
-x,y,z
x,-y,z
1/2+x,1/2+y,z
1/2-x,1/2-y,z
1/2+x,1/2-y,-z
1/2-x,1/2+y,-z
1/2-x,1/2-y,-z
1/2+x,1/2+y,-z
1/2-x,1/2+y,z
1/2+x,1/2-y,z
loop_
_atom_site_type_symbol
_atom_site_label
_atom_site_fract_x
_atom_site_fract_y
_atom_site_fract_z
Si Si1 0.301685 0.299079 0.279795
Si Si2 0.304756 0.614656 0.929214
Si Si3 0.199664 0.698163 0.500000
Si Si4 0.700508 0.049102 0.568570
Si Si5 0.802973 0.642423 0.387805
Si Si6 0.000000 0.449101 0.928736
Si Si7 0.198028 0.798843 0.145578
O O1 0.500000 0.303877 0.278613
O O2 0.250000 0.250000 0.306180
O O3 0.229561 0.338406 0.321707
O O4 0.223417 0.304848 0.212655
O O5 0.500000 0.601789 0.911913
O O6 0.240782 0.660893 0.897727
O O7 0.173407 0.575782 0.907622
O O8 0.290797 0.622935 0.000000
O O9 0.250000 0.750000 0.500000
O O10 0.276552 0.674234 0.559873
O O11 0.000000 0.693899 0.500000
O O12 0.757027 0.057369 0.500000
O O13 0.500000 0.047615 0.572631
O O14 0.773122 0.091159 0.607930
O O15 0.771912 0.000000 0.591309
O O16 0.000000 0.639452 0.400137
O O17 0.000000 0.500000 0.901264
O O18 0.000000 0.451605 0.000000
O O19 0.250000 0.750000 0.118107
O O20 0.000000 0.800706 0.151102
#
# Coordination Sequence:
#
# PCOD8266233 Si02
#       7
#    16  16   8  16  16   8  16
#     4  10  20  34  49  68  95 127 166 203 239 289
#     4   9  18  33  52  78 111 142 177 222 270 319
#     4  10  20  30  41  61  91 119 148 190 237 288
#     4   8  13  24  45  70  92 114 145 189 237 286
#     4  10  18  30  47  69  93 120 156 195 242 289
#     4   9  18  32  52  80 110 142 182 225 270 318
#     4   9  19  33  50  73 100 135 175 209 251 307
#
# _framework density 18.544775999999999
#
# number of rings (size 3 to 8) (size 9 to 14) (size 15 to 20)
#    0.000    2.750    0.833    1.500    1.167    3.333 
#    0.000    1.667    0.000    1.500    0.000    3.500 
#    0.000    0.000    0.000    0.000    0.000    0.000 
#
# Total GULP energy -594833.249899 kJ/mol
# GULP energy per Si atom -12392.359373 kJ/mol
# Density = 1.850257 g / cm^3
# Si number density = 18.544776 Si / 1000 Ang^3
#
#
#
# Elastic Constant Matrix: (Units=GPa)
#
#
# Indices 1 2 3 4 5 6 
#
# 1 46.1391 42.3282 17.7461 0.0000 0.0000 0.0000
# 2 42.3282 194.9256 59.9991 0.0000 0.0000 0.0000
# 3 17.7461 59.9991 57.3331 0.0000 0.0000 0.0000
# 4 0.0000 0.0000 0.0000 20.1005 0.0000 0.0000
# 5 0.0000 0.0000 0.0000 0.0000 13.8988 0.0000
# 6 0.0000 0.0000 0.0000 0.0000 0.0000 22.7302
#
#
#
# Elastic Compliance Matrix: (Units=1/GPa)
#
#
# Indices 1 2 3 4 5 6 
#
# 1 0.027491 -0.004943 -0.003337 0.000000 0.000000 0.000000
# 2 -0.004943 0.008457 -0.007320 0.000000 0.000000 0.000000
# 3 -0.003337 -0.007320 0.026135 0.000000 0.000000 0.000000
# 4 0.000000 0.000000 0.000000 0.049750 0.000000 0.000000
# 5 0.000000 0.000000 0.000000 0.000000 0.071949 0.000000
# 6 0.000000 0.000000 0.000000 0.000000 0.000000 0.043994
#
#
# Mechanical properties :
#
#
# Convention : Reuss Voigt Hill
#
# Bulk Modulus (GPa) = 32.37890 59.83824 46.10857
# Shear Modulus (GPa) = 18.56873 23.23418 20.90145
#
# Velocity S-wave (km/s) = 3.16775 3.54343 3.36084
# Velocity P-wave (km/s) = 5.55673 7.00558 6.32279
#
# Compressibility (1/GPa) = 0.03088431
#
# Stress axis : x y z
#
# Youngs Moduli (GPa) = 36.37493 118.25109 38.26278
#
# Poissons Ratio (x) = 0.58448 0.12767
# Poissons Ratio (y) = 0.17979 0.28008
# Poissons Ratio (z) = 0.12137 0.86559
#
# Static dielectric constant tensor:
#      x y z
#    x 3.252130 0.000000 0.000000 
#    y 0.000000 4.066550 0.000000 
#    z 0.000000 0.000000 3.529690 
# 
# 
# High freq. dielectric constant tensor:
#      x y z
#    x 1.705240 0.000000 0.000000 
#    y 0.000000 1.725970 0.000000 
#    z 0.000000 0.000000 1.688790 
# 
# From -- ./inp_files/68121.got.cif
#   From: 2010.03.12/outbox.cif.g09.slc.cpg/sg65_35_cif.got.tgz:68121.got - 2010.04.10 20:52:16.
