data_PCOD8266704
_publ_section_title
;
Structure prediction by ZEFSAII (Michael W. Deem and Ramdas Pophale) SiO2 
 PCOD8266704
Probable space group: C M M M
;
_chemical_formula_sum "Si O2"
_cell_formula_units_Z 88
_cell_length_a 27.149378
_cell_length_b 14.604333
_cell_length_c 11.489698
_cell_angle_alpha 90.000000
_cell_angle_beta 90.000000
_cell_angle_gamma 90.000000
_cell_volume 4555.648678
_symmetry_space_group_name_H-M "C M M M"
_symmetry_group_IT_number 65
_symmetry_cell_setting 'orthorhombic'
loop_
_space_group_symop_operation_xyz
x,y,z
-x,-y,z
x,-y,-z
-x,y,-z
-x,-y,-z
x,y,-z
-x,y,z
x,-y,z
1/2+x,1/2+y,z
1/2-x,1/2-y,z
1/2+x,1/2-y,-z
1/2-x,1/2+y,-z
1/2-x,1/2-y,-z
1/2+x,1/2+y,-z
1/2-x,1/2+y,z
1/2+x,1/2-y,z
loop_
_atom_site_type_symbol
_atom_site_label
_atom_site_fract_x
_atom_site_fract_y
_atom_site_fract_z
Si Si1 0.090995 0.830582 0.500000
Si Si2 0.775800 0.102046 0.750358
Si Si3 0.164367 0.398264 0.245797
Si Si4 0.299771 0.650800 0.500000
Si Si5 0.138782 0.217355 0.863575
Si Si6 0.654552 0.835120 0.500000
Si Si7 0.055978 0.894454 0.743253
O O1 0.143247 0.884180 0.500000
O O2 0.102847 0.721580 0.500000
O O3 0.059875 0.857080 0.612640
O O4 0.720607 0.119778 0.794947
O O5 0.772751 0.110354 0.611453
O O6 0.813328 0.175457 0.801723
O O7 0.793186 0.000000 0.785912
O O8 0.147928 0.500000 0.205048
O O9 0.131637 0.321167 0.182261
O O10 0.157655 0.396166 0.384949
O O11 0.299657 0.762456 0.500000
O O12 0.090296 0.161115 0.831353
O O13 0.147049 0.215458 0.000000
O O14 0.000000 0.882253 0.785782
O O15 0.072188 0.000000 0.746720
#
# Coordination Sequence:
#
# PCOD8266704 Si02
#       7
#     8  16  16   8  16   8  16
#     4  10  18  34  61  92 121 153 182 224 289 361
#     4  11  22  35  57  87 121 158 194 235 288 348
#     4  11  23  39  59  86 117 154 199 244 290 341
#     4  10  18  31  58  86 120 157 188 229 287 358
#     4  12  25  41  59  81 114 159 203 244 285 335
#     4  10  18  34  59  88 115 154 189 234 295 349
#     4  11  23  40  64  93 122 150 183 229 291 358
#
# _framework density 19.316678
#
# number of rings (size 3 to 8) (size 9 to 14) (size 15 to 20)
#    0.545    0.545    5.455    2.727    0.000    7.273 
#    0.000    2.727    0.000    0.545    0.000    2.545 
#    0.000    0.000    0.000    0.000    0.000    0.000 
#
# Total GULP energy -545605.963312 kJ/mol
# GULP energy per Si atom -12400.135530 kJ/mol
# Density = 1.927271 g / cm^3
# Si number density = 19.316678 Si / 1000 Ang^3
#
#
#
# Elastic Constant Matrix: (Units=GPa)
#
#
# Indices 1 2 3 4 5 6 
#
# 1 54.4672 42.4106 14.2156 0.0000 0.0000 0.0000
# 2 42.4106 131.7059 29.0155 0.0000 0.0000 0.0000
# 3 14.2156 29.0155 100.0104 0.0000 0.0000 0.0000
# 4 0.0000 0.0000 0.0000 -0.5460 0.0000 0.0000
# 5 0.0000 0.0000 0.0000 0.0000 5.0079 0.0000
# 6 0.0000 0.0000 0.0000 0.0000 0.0000 23.9564
#
#
#
# Elastic Compliance Matrix: (Units=1/GPa)
#
#
# Indices 1 2 3 4 5 6 
#
# 1 0.024657 -0.007657 -0.001283 0.000000 0.000000 0.000000
# 2 -0.007657 0.010489 -0.001955 0.000000 0.000000 0.000000
# 3 -0.001283 -0.001955 0.010748 0.000000 0.000000 0.000000
# 4 0.000000 0.000000 0.000000 -1.831481 0.000000 0.000000
# 5 0.000000 0.000000 0.000000 0.000000 0.199686 0.000000
# 6 0.000000 0.000000 0.000000 0.000000 0.000000 0.041743
#
#
# Mechanical properties :
#
#
# Convention : Reuss Voigt Hill
#
# Bulk Modulus (GPa) = 41.48662 50.82966 46.15814
# Shear Modulus (GPa) = -3.30178 19.05311 7.87566
#
# Velocity S-wave (km/s) = -1.30882 3.14404 2.02138
# Velocity P-wave (km/s) = 4.38631 6.28895 5.42175
#
# Compressibility (1/GPa) = 0.02410416
#
# Stress axis : x y z
#
# Youngs Moduli (GPa) = 40.55700 95.33860 93.03650
#
# Poissons Ratio (x) = 0.73001 0.11939
# Poissons Ratio (y) = 0.31054 0.18186
# Poissons Ratio (z) = 0.05204 0.18636
#
# Static dielectric constant tensor:
#      x y z
#    x 3.305630 0.000000 0.000000 
#    y 0.000000 3.614800 0.000000 
#    z 0.000000 0.000000 3.289900 
# 
# 
# High freq. dielectric constant tensor:
#      x y z
#    x 1.725950 0.000000 0.000000 
#    y 0.000000 1.758220 0.000000 
#    z 0.000000 0.000000 1.737940 
# 
# From -- ./inp_files/32278.got.cif
#   From: 2010.03.12/outbox.cif.g09.slc.cpg/sg65_17_cif.got.tgz:32278.got - 2010.04.10 20:52:16.
