data_PCOD8266637
_publ_section_title
;
Structure prediction by ZEFSAII (Michael W. Deem and Ramdas Pophale) SiO2 
 PCOD8266637
Probable space group: C M M M
;
_chemical_formula_sum "Si O2"
_cell_formula_units_Z 88
_cell_length_a 28.724900
_cell_length_b 9.040482
_cell_length_c 17.893971
_cell_angle_alpha 90.000000
_cell_angle_beta 90.000000
_cell_angle_gamma 90.000000
_cell_volume 4646.830599
_symmetry_space_group_name_H-M "C M M M"
_symmetry_group_IT_number 65
_symmetry_cell_setting 'orthorhombic'
loop_
_space_group_symop_operation_xyz
x,y,z
-x,-y,z
x,-y,-z
-x,y,-z
-x,-y,-z
x,y,-z
-x,y,z
x,-y,z
1/2+x,1/2+y,z
1/2-x,1/2-y,z
1/2+x,1/2-y,-z
1/2-x,1/2+y,-z
1/2-x,1/2-y,-z
1/2+x,1/2+y,-z
1/2-x,1/2+y,z
1/2+x,1/2-y,z
loop_
_atom_site_type_symbol
_atom_site_label
_atom_site_fract_x
_atom_site_fract_y
_atom_site_fract_z
Si Si1 0.702059 0.673688 0.413253
Si Si2 0.887234 0.326570 0.084481
Si Si3 0.948409 0.674898 0.779911
Si Si4 0.888286 0.675941 0.640812
Si Si5 0.794564 0.165371 0.088888
Si Si6 0.447930 0.175238 0.500000
O O1 0.691700 0.707979 0.500000
O O2 0.705661 0.500000 0.397643
O O3 0.750000 0.750000 0.388320
O O4 0.661271 0.743882 0.363590
O O5 0.877101 0.500000 0.088206
O O6 0.929410 0.279659 0.138399
O O7 0.841117 0.247344 0.114754
O O8 0.900116 0.277606 0.000000
O O9 0.952073 0.500000 0.772746
O O10 0.913631 0.732174 0.715952
O O11 0.000000 0.744422 0.770303
O O12 0.880391 0.500000 0.639349
O O13 0.920646 0.730204 0.572877
O O14 0.750000 0.250000 0.122659
O O15 0.794909 0.000000 0.121431
O O16 0.791578 0.163797 0.000000
O O17 0.500000 0.243249 0.500000
O O18 0.451391 0.000000 0.500000
#
# Coordination Sequence:
#
# PCOD8266637 Si02
#       6
#    16  16  16  16  16   8
#     4  10  20  34  54  79 108 139 173 210 251 301
#     4   9  17  30  49  73 101 134 173 215 260 310
#     4   9  18  32  51  76 104 134 171 218 264 303
#     4  10  18  31  52  77 105 135 171 212 253 299
#     4   9  16  27  46  72 100 128 160 201 250 304
#     4   9  16  26  46  75 100 127 166 207 244 289
#
# _framework density 18.937638
#
# number of rings (size 3 to 8) (size 9 to 14) (size 15 to 20)
#    0.000    2.636    0.909    1.636    0.000    5.455 
#    0.000    3.636    0.000    4.364    0.000    2.545 
#    0.000    0.000    0.000    0.000    0.000    0.000 
#
# Total GULP energy -545576.769665 kJ/mol
# GULP energy per Si atom -12399.472038 kJ/mol
# Density = 1.889454 g / cm^3
# Si number density = 18.937638 Si / 1000 Ang^3
#
#
#
# Elastic Constant Matrix: (Units=GPa)
#
#
# Indices 1 2 3 4 5 6 
#
# 1 185.4950 53.0302 73.1445 0.0000 0.0000 0.0000
# 2 53.0302 59.9138 28.6692 0.0000 0.0000 0.0000
# 3 73.1445 28.6692 99.7434 0.0000 0.0000 0.0000
# 4 0.0000 0.0000 0.0000 10.9022 0.0000 0.0000
# 5 0.0000 0.0000 0.0000 0.0000 28.5658 0.0000
# 6 0.0000 0.0000 0.0000 0.0000 0.0000 25.6438
#
#
#
# Elastic Compliance Matrix: (Units=1/GPa)
#
#
# Indices 1 2 3 4 5 6 
#
# 1 0.008926 -0.005529 -0.004957 0.000000 0.000000 0.000000
# 2 -0.005529 0.022777 -0.002492 0.000000 0.000000 0.000000
# 3 -0.004957 -0.002492 0.014377 0.000000 0.000000 0.000000
# 4 0.000000 0.000000 0.000000 0.091724 0.000000 0.000000
# 5 0.000000 0.000000 0.000000 0.000000 0.035007 0.000000
# 6 0.000000 0.000000 0.000000 0.000000 0.000000 0.038996
#
#
# Mechanical properties :
#
#
# Convention : Reuss Voigt Hill
#
# Bulk Modulus (GPa) = 49.69096 72.75999 61.22547
# Shear Modulus (GPa) = 20.45237 25.70956 23.08097
#
# Velocity S-wave (km/s) = 3.28988 3.68855 3.49490
# Velocity P-wave (km/s) = 6.38179 7.52627 6.97754
#
# Compressibility (1/GPa) = 0.02012439
#
# Stress axis : x y z
#
# Youngs Moduli (GPa) = 112.03154 43.90428 69.55602
#
# Poissons Ratio (x) = 0.24274 0.34476
# Poissons Ratio (y) = 0.61940 0.17336
# Poissons Ratio (z) = 0.55529 0.10942
#
# Static dielectric constant tensor:
#      x y z
#    x 3.637650 0.000000 0.000000 
#    y 0.000000 3.193190 0.000000 
#    z 0.000000 0.000000 3.343040 
# 
# 
# High freq. dielectric constant tensor:
#      x y z
#    x 1.747750 0.000000 0.000000 
#    y 0.000000 1.703000 0.000000 
#    z 0.000000 0.000000 1.716220 
# 
# From -- ./inp_files/50366.got.cif
#   From: 2010.03.12/outbox.cif.g09.slc.cpg/sg65_26_cif.got.tgz:50366.got - 2010.04.10 20:52:16.
