data_PCOD8266290
_publ_section_title
;
Structure prediction by ZEFSAII (Michael W. Deem and Ramdas Pophale) SiO2 
 PCOD8266290
Probable space group: C M M M
;
_chemical_formula_sum "Si O2"
_cell_formula_units_Z 104
_cell_length_a 7.997590
_cell_length_b 29.458965
_cell_length_c 24.765214
_cell_angle_alpha 90.000000
_cell_angle_beta 90.000000
_cell_angle_gamma 90.000000
_cell_volume 5834.702346
_symmetry_space_group_name_H-M "C M M M"
_symmetry_group_IT_number 65
_symmetry_cell_setting 'orthorhombic'
loop_
_space_group_symop_operation_xyz
x,y,z
-x,-y,z
x,-y,-z
-x,y,-z
-x,-y,-z
x,y,-z
-x,y,z
x,-y,z
1/2+x,1/2+y,z
1/2-x,1/2-y,z
1/2+x,1/2-y,-z
1/2-x,1/2+y,-z
1/2-x,1/2-y,-z
1/2+x,1/2+y,-z
1/2-x,1/2+y,z
1/2+x,1/2-y,z
loop_
_atom_site_type_symbol
_atom_site_label
_atom_site_fract_x
_atom_site_fract_y
_atom_site_fract_z
Si Si1 0.500000 0.946275 0.060195
Si Si2 0.307755 0.553378 0.133607
Si Si3 0.804346 0.702831 0.613881
Si Si4 0.301717 0.394686 0.241748
Si Si5 0.310892 0.298101 0.734153
Si Si6 0.802929 0.610222 0.560607
Si Si7 0.305593 0.449783 0.342721
O O1 0.327399 0.930482 0.089051
O O2 0.500000 0.000000 0.057245
O O3 0.500000 0.925276 0.000000
O O4 0.500000 0.565423 0.116120
O O5 0.293276 0.500000 0.144950
O O6 0.252894 0.578927 0.187800
O O7 0.750000 0.750000 0.584983
O O8 0.706240 0.699563 0.669912
O O9 0.749442 0.661379 0.576010
O O10 0.000000 0.702201 0.626555
O O11 0.500000 0.392267 0.248753
O O12 0.224488 0.343350 0.240359
O O13 0.224123 0.420804 0.293752
O O14 0.500000 0.300656 0.751463
O O15 0.250000 0.250000 0.758099
O O16 0.739269 0.600551 0.500000
O O17 0.719379 0.574181 0.599977
O O18 0.000000 0.604730 0.564831
O O19 0.500000 0.454881 0.331239
O O20 0.223319 0.500000 0.344219
#
# Coordination Sequence:
#
# PCOD8266290 Si02
#       7
#     8  16  16  16  16  16  16
#     4   9  18  32  48  74 112 148 185 221 249 291
#     4   9  17  31  50  74 106 144 180 216 258 297
#     4  10  19  32  50  70  91 117 153 193 242 301
#     4   9  17  31  51  72  99 131 160 201 251 300
#     4  10  18  30  48  70  98 128 156 192 245 302
#     4  10  22  38  51  66  92 122 155 198 248 303
#     4  10  20  35  54  73  92 119 159 203 248 297
#
# _framework density 17.824389
#
# number of rings (size 3 to 8) (size 9 to 14) (size 15 to 20)
#    0.000    2.385    1.538    2.308    0.000    4.000 
#    4.154    3.077    0.000    0.000    0.000    0.000 
#    0.000    0.615    0.308    0.000    0.000    0.000 
#
# Total GULP energy -644475.529043 kJ/mol
# GULP energy per Si atom -12393.760174 kJ/mol
# Density = 1.778382 g / cm^3
# Si number density = 17.824389 Si / 1000 Ang^3
#
#
#
# Elastic Constant Matrix: (Units=GPa)
#
#
# Indices 1 2 3 4 5 6 
#
# 1 46.6988 28.8586 30.7710 0.0000 0.0000 0.0000
# 2 28.8586 138.2712 59.6388 0.0000 0.0000 0.0000
# 3 30.7710 59.6388 113.8716 0.0000 0.0000 0.0000
# 4 0.0000 0.0000 0.0000 10.8254 0.0000 0.0000
# 5 0.0000 0.0000 0.0000 0.0000 22.3239 0.0000
# 6 0.0000 0.0000 0.0000 0.0000 0.0000 19.4399
#
#
#
# Elastic Compliance Matrix: (Units=1/GPa)
#
#
# Indices 1 2 3 4 5 6 
#
# 1 0.027125 -0.003229 -0.005639 0.000000 0.000000 0.000000
# 2 -0.003229 0.009727 -0.004222 0.000000 0.000000 0.000000
# 3 -0.005639 -0.004222 0.012517 0.000000 0.000000 0.000000
# 4 0.000000 0.000000 0.000000 0.092375 0.000000 0.000000
# 5 0.000000 0.000000 0.000000 0.000000 0.044795 0.000000
# 6 0.000000 0.000000 0.000000 0.000000 0.000000 0.051441
#
#
# Mechanical properties :
#
#
# Convention : Reuss Voigt Hill
#
# Bulk Modulus (GPa) = 43.12327 59.70871 51.41599
# Shear Modulus (GPa) = 18.38993 22.48940 20.43966
#
# Velocity S-wave (km/s) = 3.21554 3.55592 3.39001
# Velocity P-wave (km/s) = 6.16702 7.10144 6.65066
#
# Compressibility (1/GPa) = 0.02318934
#
# Stress axis : x y z
#
# Youngs Moduli (GPa) = 36.86663 102.80576 79.89381
#
# Poissons Ratio (x) = 0.33198 0.45048
# Poissons Ratio (y) = 0.11905 0.33730
# Poissons Ratio (z) = 0.20787 0.43403
#
# Static dielectric constant tensor:
#      x y z
#    x 3.215520 0.000000 0.000000 
#    y 0.000000 3.840460 0.000000 
#    z 0.000000 0.000000 3.133850 
# 
# 
# High freq. dielectric constant tensor:
#      x y z
#    x 1.682270 0.000000 0.000000 
#    y 0.000000 1.692260 0.000000 
#    z 0.000000 0.000000 1.652430 
# 
# From -- ./inp_files/68271.got.cif
#   From: 2010.03.12/outbox.cif.g09.slc.cpg/sg65_35_cif.got.tgz:68271.got - 2010.04.10 20:52:16.
