data_PCOD8266069
_publ_section_title
;
Structure prediction by ZEFSAII (Michael W. Deem and Ramdas Pophale) SiO2 
 PCOD8266069
Probable space group: C M M M
;
_chemical_formula_sum "Si O2"
_cell_formula_units_Z 88
_cell_length_a 21.402165
_cell_length_b 28.487582
_cell_length_c 7.869803
_cell_angle_alpha 90.000000
_cell_angle_beta 90.000000
_cell_angle_gamma 90.000000
_cell_volume 4798.186862
_symmetry_space_group_name_H-M "C M M M"
_symmetry_group_IT_number 65
_symmetry_cell_setting 'orthorhombic'
loop_
_space_group_symop_operation_xyz
x,y,z
-x,-y,z
x,-y,-z
-x,y,-z
-x,-y,-z
x,y,-z
-x,y,z
x,-y,z
1/2+x,1/2+y,z
1/2-x,1/2-y,z
1/2+x,1/2-y,-z
1/2-x,1/2+y,-z
1/2-x,1/2-y,-z
1/2+x,1/2+y,-z
1/2-x,1/2+y,z
1/2+x,1/2-y,z
loop_
_atom_site_type_symbol
_atom_site_label
_atom_site_fract_x
_atom_site_fract_y
_atom_site_fract_z
Si Si1 0.380594 0.610122 0.805894
Si Si2 0.425629 0.864023 0.500000
Si Si3 0.000000 0.055190 0.695982
Si Si4 0.666377 0.054250 0.500000
Si Si5 0.925967 0.302368 0.812854
Si Si6 0.430215 0.295458 0.692872
Si Si7 0.758393 0.945703 0.195542
O O1 0.438542 0.575663 0.781447
O O2 0.386966 0.658796 0.705047
O O3 0.318176 0.584092 0.745462
O O4 0.375568 0.624489 0.000000
O O5 0.500000 0.869597 0.500000
O O6 0.396709 0.915759 0.500000
O O7 0.400214 0.836866 0.667288
O O8 0.000000 0.069897 0.500000
O O9 0.000000 0.000000 0.724363
O O10 0.703845 0.066711 0.672233
O O11 0.646558 0.000000 0.500000
O O12 0.900932 0.248912 0.793115
O O13 0.000000 0.299830 0.792756
O O14 0.906209 0.321110 0.000000
O O15 0.434207 0.278642 0.500000
O O16 0.500000 0.308367 0.760720
O O17 0.777311 0.000000 0.212186
O O18 0.738169 0.934394 0.000000
#
# Coordination Sequence:
#
# PCOD8266069 Si02
#       7
#    16   8   8   8  16  16  16
#     4  11  21  32  49  73 103 143 189 239 286 324
#     4  10  20  37  59  91 120 136 163 207 262 328
#     4  11  23  33  43  67 103 143 187 243 301 336
#     4  10  22  39  63  86 109 143 174 210 263 323
#     4   9  17  31  53  80 112 149 179 211 259 319
#     4  10  18  29  47  74 110 145 184 230 276 318
#     4   9  20  38  57  77 103 143 195 236 266 314
#
# _framework density 18.340261999999999
#
# number of rings (size 3 to 8) (size 9 to 14) (size 15 to 20)
#    0.000    2.091    1.818    1.909    2.545    3.091 
#    0.000    0.000    0.000    2.182    0.000    8.909 
#    0.000    0.000    0.000    0.000    0.000    0.000 
#
# Total GULP energy -545519.507474 kJ/mol
# GULP energy per Si atom -12398.170624 kJ/mol
# Density = 1.829852 g / cm^3
# Si number density = 18.340262 Si / 1000 Ang^3
#
#
#
# Elastic Constant Matrix: (Units=GPa)
#
#
# Indices 1 2 3 4 5 6 
#
# 1 52.2650 46.0359 31.2051 0.0000 0.0000 0.0000
# 2 46.0359 100.5437 45.9575 0.0000 0.0000 0.0000
# 3 31.2051 45.9575 107.7352 0.0000 0.0000 0.0000
# 4 0.0000 0.0000 0.0000 20.8407 0.0000 0.0000
# 5 0.0000 0.0000 0.0000 0.0000 15.6313 0.0000
# 6 0.0000 0.0000 0.0000 0.0000 0.0000 25.6224
#
#
#
# Elastic Compliance Matrix: (Units=1/GPa)
#
#
# Indices 1 2 3 4 5 6 
#
# 1 0.033338 -0.013479 -0.003906 0.000000 0.000000 0.000000
# 2 -0.013479 0.017805 -0.003691 0.000000 0.000000 0.000000
# 3 -0.003906 -0.003691 0.011988 0.000000 0.000000 0.000000
# 4 0.000000 0.000000 0.000000 0.047983 0.000000 0.000000
# 5 0.000000 0.000000 0.000000 0.000000 0.063974 0.000000
# 6 0.000000 0.000000 0.000000 0.000000 0.000000 0.039028
#
#
# Mechanical properties :
#
#
# Convention : Reuss Voigt Hill
#
# Bulk Modulus (GPa) = 47.66883 56.32678 51.99780
# Shear Modulus (GPa) = 18.99255 21.57526 20.28391
#
# Velocity S-wave (km/s) = 3.22151 3.43357 3.32923
# Velocity P-wave (km/s) = 6.31548 6.81894 6.57204
#
# Compressibility (1/GPa) = 0.02097807
#
# Stress axis : x y z
#
# Youngs Moduli (GPa) = 29.99577 56.16526 83.41693
#
# Poissons Ratio (x) = 0.75705 0.32586
# Poissons Ratio (y) = 0.40431 0.30789
# Poissons Ratio (z) = 0.11718 0.20730
#
# Static dielectric constant tensor:
#      x y z
#    x 2.918420 0.000000 0.000000 
#    y 0.000000 3.293710 0.000000 
#    z 0.000000 0.000000 3.611110 
# 
# 
# High freq. dielectric constant tensor:
#      x y z
#    x 1.658850 0.000000 0.000000 
#    y 0.000000 1.711470 0.000000 
#    z 0.000000 0.000000 1.729680 
# 
# From -- ./inp_files/12701.got.cif
#   From: 2010.03.12/outbox.cif.g09.slc.cpg/sg65_7_cif.got.tgz:12701.got - 2010.04.10 20:52:16.
