data_PCOD8266097
_publ_section_title
;
Structure prediction by ZEFSAII (Michael W. Deem and Ramdas Pophale) SiO2 
 PCOD8266097
Probable space group: C M M M
;
_chemical_formula_sum "Si O2"
_cell_formula_units_Z 96
_cell_length_a 9.089000
_cell_length_b 25.809396
_cell_length_c 23.550559
_cell_angle_alpha 90.000000
_cell_angle_beta 90.000000
_cell_angle_gamma 90.000000
_cell_volume 5524.527817
_symmetry_space_group_name_H-M "C M M M"
_symmetry_group_IT_number 65
_symmetry_cell_setting 'orthorhombic'
loop_
_space_group_symop_operation_xyz
x,y,z
-x,-y,z
x,-y,-z
-x,y,-z
-x,-y,-z
x,y,-z
-x,y,z
x,-y,z
1/2+x,1/2+y,z
1/2-x,1/2-y,z
1/2+x,1/2-y,-z
1/2-x,1/2+y,-z
1/2-x,1/2-y,-z
1/2+x,1/2+y,-z
1/2-x,1/2+y,z
1/2+x,1/2-y,z
loop_
_atom_site_type_symbol
_atom_site_label
_atom_site_fract_x
_atom_site_fract_y
_atom_site_fract_z
Si Si1 0.169083 0.103626 0.433716
Si Si2 0.325133 0.000000 0.248416
Si Si3 0.824781 0.598697 0.821192
Si Si4 0.172676 0.302677 0.375258
Si Si5 0.174924 0.441486 0.938157
Si Si6 0.328150 0.500000 0.368208
Si Si7 0.327419 0.801954 0.244513
O O1 0.195111 0.095627 0.500000
O O2 0.270765 0.149906 0.412334
O O3 0.000000 0.117364 0.420117
O O4 0.216958 0.050522 0.403746
O O5 0.266081 0.050360 0.215279
O O6 0.500000 0.000000 0.251931
O O7 0.263121 0.000000 0.311067
O O8 0.766206 0.593907 0.886269
O O9 0.763661 0.651410 0.793731
O O10 0.000000 0.598837 0.819567
O O11 0.250000 0.250000 0.396069
O O12 0.212243 0.313949 0.309737
O O13 0.000000 0.296169 0.384688
O O14 0.233071 0.500000 0.929556
O O15 0.000000 0.442354 0.936475
O O16 0.228466 0.420178 0.000000
O O17 0.500000 0.500000 0.353888
O O18 0.500000 0.794825 0.236204
O O19 0.250000 0.750000 0.222992
#
# Coordination Sequence:
#
# PCOD8266097 Si02
#       7
#    16   8  16  16  16   8  16
#     4  10  21  37  55  73  95 127 163 196 234 283
#     4  10  18  29  48  73  98 122 149 190 244 290
#     4   9  15  25  42  66  95 124 153 190 236 282
#     4  10  20  35  54  76  99 124 157 199 245 291
#     4   8  12  19  34  60  94 126 153 185 230 279
#     4  10  21  36  52  71  99 131 161 194 234 284
#     4   9  18  31  47  67  92 123 157 189 229 278
#
# _framework density 17.377050000000001
#
# number of rings (size 3 to 8) (size 9 to 14) (size 15 to 20)
#    0.000    2.667    0.833    2.250    0.000    4.333 
#    0.000    0.833    0.000    2.000    0.000    0.000 
#    0.000    2.667    0.000    0.000    0.000    0.000 
#
# Total GULP energy -595092.104270 kJ/mol
# GULP energy per Si atom -12397.752172 kJ/mol
# Density = 1.733750 g / cm^3
# Si number density = 17.377050 Si / 1000 Ang^3
#
#
#
# Elastic Constant Matrix: (Units=GPa)
#
#
# Indices 1 2 3 4 5 6 
#
# 1 32.3593 33.2050 29.8981 0.0000 0.0000 0.0000
# 2 33.2050 134.3033 72.1849 0.0000 0.0000 0.0000
# 3 29.8981 72.1849 128.4023 0.0000 0.0000 0.0000
# 4 0.0000 0.0000 0.0000 -13.2147 0.0000 0.0000
# 5 0.0000 0.0000 0.0000 0.0000 12.0786 0.0000
# 6 0.0000 0.0000 0.0000 0.0000 0.0000 24.3948
#
#
#
# Elastic Compliance Matrix: (Units=1/GPa)
#
#
# Indices 1 2 3 4 5 6 
#
# 1 0.044387 -0.007766 -0.005970 0.000000 0.000000 0.000000
# 2 -0.007766 0.012028 -0.004954 0.000000 0.000000 0.000000
# 3 -0.005970 -0.004954 0.011963 0.000000 0.000000 0.000000
# 4 0.000000 0.000000 0.000000 -0.075673 0.000000 0.000000
# 5 0.000000 0.000000 0.000000 0.000000 0.082791 0.000000
# 6 0.000000 0.000000 0.000000 0.000000 0.000000 0.040992
#
#
# Mechanical properties :
#
#
# Convention : Reuss Voigt Hill
#
# Bulk Modulus (GPa) = 32.25788 62.84897 47.55342
# Shear Modulus (GPa) = 30.45049 15.30354 22.87702
#
# Velocity S-wave (km/s) = 4.19064 2.97084 3.63231
# Velocity P-wave (km/s) = 6.48221 6.92922 6.70944
#
# Compressibility (1/GPa) = 0.03100018
#
# Stress axis : x y z
#
# Youngs Moduli (GPa) = 22.52889 83.13649 83.59086
#
# Poissons Ratio (x) = 0.64561 0.49902
# Poissons Ratio (y) = 0.17495 0.41410
# Poissons Ratio (z) = 0.13449 0.41185
#
# Static dielectric constant tensor:
#      x y z
#    x 2.881300 0.000000 0.000000 
#    y 0.000000 3.341840 0.000000 
#    z 0.000000 0.000000 3.479350 
# 
# 
# High freq. dielectric constant tensor:
#      x y z
#    x 1.633870 0.000000 0.000000 
#    y 0.000000 1.669950 0.000000 
#    z 0.000000 0.000000 1.677130 
# 
# From -- ./inp_files/68094.got.cif
#   From: 2010.03.12/outbox.cif.g09.slc.cpg/sg65_35_cif.got.tgz:68094.got - 2010.04.10 20:52:16.
