data_PCOD8266657
_publ_section_title
;
Structure prediction by ZEFSAII (Michael W. Deem and Ramdas Pophale) SiO2 
 PCOD8266657
Probable space group: C M M M
;
_chemical_formula_sum "Si O2"
_cell_formula_units_Z 96
_cell_length_a 14.390369
_cell_length_b 18.752417
_cell_length_c 20.332158
_cell_angle_alpha 90.000000
_cell_angle_beta 90.000000
_cell_angle_gamma 90.000000
_cell_volume 5486.718237
_symmetry_space_group_name_H-M "C M M M"
_symmetry_group_IT_number 65
_symmetry_cell_setting 'orthorhombic'
loop_
_space_group_symop_operation_xyz
x,y,z
-x,-y,z
x,-y,-z
-x,y,-z
-x,-y,-z
x,y,-z
-x,y,z
x,-y,z
1/2+x,1/2+y,z
1/2-x,1/2-y,z
1/2+x,1/2-y,-z
1/2-x,1/2+y,-z
1/2-x,1/2-y,-z
1/2+x,1/2+y,-z
1/2-x,1/2+y,z
1/2+x,1/2-y,z
loop_
_atom_site_type_symbol
_atom_site_label
_atom_site_fract_x
_atom_site_fract_y
_atom_site_fract_z
Si Si1 0.604217 0.693746 0.755970
Si Si2 0.740189 0.866724 0.071136
Si Si3 0.610404 0.919819 0.572459
Si Si4 0.255404 0.918873 0.786528
Si Si5 0.609605 0.837839 0.301857
Si Si6 0.605600 0.257948 0.098352
O O1 0.500000 0.665827 0.742700
O O2 0.669830 0.625308 0.755747
O O3 0.635179 0.753572 0.702635
O O4 0.610445 0.737487 0.823353
O O5 0.742628 0.918950 0.133769
O O6 0.650566 0.816210 0.076843
O O7 0.835881 0.822511 0.068136
O O8 0.733091 0.907138 0.000000
O O9 0.646488 0.895910 0.500000
O O10 0.500000 0.918679 0.572796
O O11 0.648782 0.866354 0.628244
O O12 0.645469 0.000000 0.587904
O O13 0.348392 0.884367 0.757557
O O14 0.244946 0.000000 0.763091
O O15 0.500000 0.848547 0.295314
O O16 0.500000 0.262222 0.072290
#
# Coordination Sequence:
#
# PCOD8266657 Si02
#       6
#    16  16  16  16  16  16
#     4   9  18  33  53  72  92 122 164 210 246 280
#     4  10  20  31  45  68  93 119 158 202 245 297
#     4   8  14  25  43  72 109 140 162 188 230 286
#     4  11  22  34  49  69  97 131 164 202 248 298
#     4  10  18  31  53  77 101 130 162 197 237 284
#     4   9  16  30  50  70  90 116 154 200 245 289
#
# _framework density 17.496797000000001
#
# number of rings (size 3 to 8) (size 9 to 14) (size 15 to 20)
#    0.000    2.500    1.667    2.500    0.000    3.000 
#    0.000    0.000    0.000    2.000    0.000    7.000 
#    0.000    0.000    0.000   10.000    0.000    0.167 
#
# Total GULP energy -594853.760684 kJ/mol
# GULP energy per Si atom -12392.786681 kJ/mol
# Density = 1.745697 g / cm^3
# Si number density = 17.496797 Si / 1000 Ang^3
#
#
#
# Elastic Constant Matrix: (Units=GPa)
#
#
# Indices 1 2 3 4 5 6 
#
# 1 82.6185 35.0015 21.6885 0.0000 0.0000 0.0000
# 2 35.0015 92.3189 31.7021 0.0000 0.0000 0.0000
# 3 21.6885 31.7021 73.4014 0.0000 0.0000 0.0000
# 4 0.0000 0.0000 0.0000 15.6337 0.0000 0.0000
# 5 0.0000 0.0000 0.0000 0.0000 10.4758 0.0000
# 6 0.0000 0.0000 0.0000 0.0000 0.0000 16.0777
#
#
#
# Elastic Compliance Matrix: (Units=1/GPa)
#
#
# Indices 1 2 3 4 5 6 
#
# 1 0.014738 -0.004805 -0.002279 0.000000 0.000000 0.000000
# 2 -0.004805 0.014285 -0.004750 0.000000 0.000000 0.000000
# 3 -0.002279 -0.004750 0.016349 0.000000 0.000000 0.000000
# 4 0.000000 0.000000 0.000000 0.063964 0.000000 0.000000
# 5 0.000000 0.000000 0.000000 0.000000 0.095458 0.000000
# 6 0.000000 0.000000 0.000000 0.000000 0.000000 0.062198
#
#
# Mechanical properties :
#
#
# Convention : Reuss Voigt Hill
#
# Bulk Modulus (GPa) = 46.07678 47.23587 46.65632
# Shear Modulus (GPa) = 16.78447 19.10056 17.94251
#
# Velocity S-wave (km/s) = 3.10060 3.30761 3.20578
# Velocity P-wave (km/s) = 6.26178 6.45310 6.35816
#
# Compressibility (1/GPa) = 0.02170290
#
# Stress axis : x y z
#
# Youngs Moduli (GPa) = 67.85269 70.00437 61.16683
#
# Poissons Ratio (x) = 0.33636 0.13943
# Poissons Ratio (y) = 0.32602 0.29054
# Poissons Ratio (z) = 0.15467 0.33251
#
# Static dielectric constant tensor:
#      x y z
#    x 3.218070 0.000000 0.000000 
#    y 0.000000 3.032260 0.000000 
#    z 0.000000 0.000000 3.418180 
# 
# 
# High freq. dielectric constant tensor:
#      x y z
#    x 1.660590 0.000000 0.000000 
#    y 0.000000 1.649120 0.000000 
#    z 0.000000 0.000000 1.673560 
# 
# From -- ./inp_files/62954.got.cif
#   From: 2010.03.12/outbox.cif.g09.slc.cpg/sg65_32_cif.got.tgz:62954.got - 2010.04.10 20:52:16.
