data_PCOD8266267
_publ_section_title
;
Structure prediction by ZEFSAII (Michael W. Deem and Ramdas Pophale) SiO2 
 PCOD8266267
Probable space group: C M M M
;
_chemical_formula_sum "Si O2"
_cell_formula_units_Z 96
_cell_length_a 22.917440
_cell_length_b 27.517742
_cell_length_c 8.785290
_cell_angle_alpha 90.000000
_cell_angle_beta 90.000000
_cell_angle_gamma 90.000000
_cell_volume 5540.321912
_symmetry_space_group_name_H-M "C M M M"
_symmetry_group_IT_number 65
_symmetry_cell_setting 'orthorhombic'
loop_
_space_group_symop_operation_xyz
x,y,z
-x,-y,z
x,-y,-z
-x,y,-z
-x,-y,-z
x,y,-z
-x,y,z
x,-y,z
1/2+x,1/2+y,z
1/2-x,1/2-y,z
1/2+x,1/2-y,-z
1/2-x,1/2+y,-z
1/2-x,1/2-y,-z
1/2+x,1/2+y,-z
1/2-x,1/2+y,z
1/2+x,1/2-y,z
loop_
_atom_site_type_symbol
_atom_site_label
_atom_site_fract_x
_atom_site_fract_y
_atom_site_fract_z
Si Si1 0.187930 0.197935 0.329534
Si Si2 0.119988 0.286825 0.680532
Si Si3 0.207346 0.364044 0.319588
Si Si4 0.722955 0.443894 0.823650
Si Si5 0.000000 0.863326 0.178998
Si Si6 0.000000 0.244174 0.318471
Si Si7 0.113731 0.105532 0.672058
O O1 0.207283 0.210684 0.500000
O O2 0.165712 0.247412 0.249170
O O3 0.244449 0.173686 0.251894
O O4 0.133941 0.161169 0.326800
O O5 0.119047 0.279761 0.500000
O O6 0.143554 0.341221 0.720922
O O7 0.055347 0.275524 0.742928
O O8 0.215340 0.371784 0.500000
O O9 0.219766 0.415349 0.238657
O O10 0.735988 0.500000 0.793046
O O11 0.663624 0.429255 0.738773
O O12 0.714489 0.432155 0.000000
O O13 0.944693 0.895957 0.227991
O O14 0.000000 0.810318 0.255612
O O15 0.000000 0.855783 0.000000
O O16 0.000000 0.240048 0.500000
O O17 0.100279 0.088420 0.500000
#
# Coordination Sequence:
#
# PCOD8266267 Si02
#       7
#    16  16  16  16   8   8  16
#     4   8  13  23  43  68  94 123 158 199 238 278
#     4   9  15  25  44  71 100 130 168 206 239 280
#     4   9  17  28  47  73  97 126 164 205 245 291
#     4  10  21  37  54  73  99 126 153 199 264 316
#     4  12  22  32  47  71 106 141 173 207 244 284
#     4  10  18  30  48  69 100 143 182 207 234 284
#     4  10  19  33  54  74  95 130 174 212 241 284
#
# _framework density 17.327511999999999
#
# number of rings (size 3 to 8) (size 9 to 14) (size 15 to 20)
#    0.000    2.500    1.667    3.250    0.000    3.333 
#    0.000    1.250    0.000    4.500    0.000    0.583 
#    0.000    4.667    0.000    0.000    0.000    0.000 
#
# Total GULP energy -594752.379379 kJ/mol
# GULP energy per Si atom -12390.674570 kJ/mol
# Density = 1.728807 g / cm^3
# Si number density = 17.327512 Si / 1000 Ang^3
#
#
#
# Elastic Constant Matrix: (Units=GPa)
#
#
# Indices 1 2 3 4 5 6 
#
# 1 64.6523 44.1691 22.5776 0.0000 0.0000 0.0000
# 2 44.1691 93.1733 32.9286 0.0000 0.0000 0.0000
# 3 22.5776 32.9286 58.8866 0.0000 0.0000 0.0000
# 4 0.0000 0.0000 0.0000 17.2658 0.0000 0.0000
# 5 0.0000 0.0000 0.0000 0.0000 12.1882 0.0000
# 6 0.0000 0.0000 0.0000 0.0000 0.0000 18.0109
#
#
#
# Elastic Compliance Matrix: (Units=1/GPa)
#
#
# Indices 1 2 3 4 5 6 
#
# 1 0.023427 -0.009885 -0.003455 0.000000 0.000000 0.000000
# 2 -0.009885 0.017547 -0.006022 0.000000 0.000000 0.000000
# 3 -0.003455 -0.006022 0.021674 0.000000 0.000000 0.000000
# 4 0.000000 0.000000 0.000000 0.057918 0.000000 0.000000
# 5 0.000000 0.000000 0.000000 0.000000 0.082047 0.000000
# 6 0.000000 0.000000 0.000000 0.000000 0.000000 0.055522
#
#
# Mechanical properties :
#
#
# Convention : Reuss Voigt Hill
#
# Bulk Modulus (GPa) = 41.79794 46.22919 44.01357
# Shear Modulus (GPa) = 16.40249 17.29543 16.84896
#
# Velocity S-wave (km/s) = 3.08005 3.16278 3.12169
# Velocity P-wave (km/s) = 6.06825 6.33049 6.20075
#
# Compressibility (1/GPa) = 0.02392462
#
# Stress axis : x y z
#
# Youngs Moduli (GPa) = 42.68633 56.99045 46.13868
#
# Poissons Ratio (x) = 0.56333 0.15939
# Poissons Ratio (y) = 0.42194 0.27785
# Poissons Ratio (z) = 0.14747 0.34320
#
# Static dielectric constant tensor:
#      x y z
#    x 3.352030 0.000000 0.000000 
#    y 0.000000 3.119150 0.000000 
#    z 0.000000 0.000000 2.952930 
# 
# 
# High freq. dielectric constant tensor:
#      x y z
#    x 1.661280 0.000000 0.000000 
#    y 0.000000 1.647170 0.000000 
#    z 0.000000 0.000000 1.636740 
# 
# From -- ./inp_files/14648.got.cif
#   From: 2010.03.12/outbox.cif.g09.slc.cpg/sg65_8_cif.got.tgz:14648.got - 2010.04.10 20:52:16.
