data_PCOD8266188
_publ_section_title
;
Structure prediction by ZEFSAII (Michael W. Deem and Ramdas Pophale) SiO2 
 PCOD8266188
Probable space group: C M M M
;
_chemical_formula_sum "Si O2"
_cell_formula_units_Z 56
_cell_length_a 8.663327
_cell_length_b 24.471034
_cell_length_c 14.522927
_cell_angle_alpha 90.000000
_cell_angle_beta 90.000000
_cell_angle_gamma 90.000000
_cell_volume 3078.868796
_symmetry_space_group_name_H-M "C M M M"
_symmetry_group_IT_number 65
_symmetry_cell_setting 'orthorhombic'
loop_
_space_group_symop_operation_xyz
x,y,z
-x,-y,z
x,-y,-z
-x,y,-z
-x,-y,-z
x,y,-z
-x,y,z
x,-y,z
1/2+x,1/2+y,z
1/2-x,1/2-y,z
1/2+x,1/2-y,-z
1/2-x,1/2+y,-z
1/2-x,1/2-y,-z
1/2+x,1/2+y,-z
1/2-x,1/2+y,z
1/2+x,1/2-y,z
loop_
_atom_site_type_symbol
_atom_site_label
_atom_site_fract_x
_atom_site_fract_y
_atom_site_fract_z
Si Si1 0.818755 0.809379 0.813588
Si Si2 0.317149 0.000000 0.602211
Si Si3 0.817023 0.500000 0.104127
Si Si4 0.317446 0.912675 0.252227
Si Si5 0.183227 0.310212 0.000000
O O1 0.750000 0.750000 0.789259
O O2 0.770785 0.854568 0.738512
O O3 0.000000 0.802154 0.822463
O O4 0.748010 0.836554 0.906818
O O5 0.264873 0.946113 0.657502
O O6 0.500000 0.000000 0.596057
O O7 0.243040 0.000000 0.500000
O O8 0.764999 0.446210 0.160840
O O9 0.000000 0.500000 0.097703
O O10 0.746472 0.500000 0.000000
O O11 0.500000 0.902406 0.250997
O O12 0.250000 0.250000 0.000000
O O13 0.000000 0.312109 0.000000
#
# Coordination Sequence:
#
# PCOD8266188 Si02
#       5
#    16   8   8  16   8
#     4  11  21  33  48  70 102 137 174 213 254 297
#     4   8  15  31  56  82 105 129 164 209 256 311
#     4   8  15  27  44  68  96 130 166 200 242 294
#     4   9  17  30  50  76 101 131 171 208 249 303
#     4  10  18  30  46  65  92 131 176 212 242 284
#
# _framework density 18.188499
#
# number of rings (size 3 to 8) (size 9 to 14) (size 15 to 20)
#    0.000    2.571    0.000    7.286    2.000    0.000 
#    0.000    2.857    0.000    3.429    0.000    0.000 
#    0.000    0.000    0.000    0.000    0.000    0.000 
#
# Total GULP energy -346960.885784 kJ/mol
# GULP energy per Si atom -12391.460207 kJ/mol
# Density = 1.814710 g / cm^3
# Si number density = 18.188499 Si / 1000 Ang^3
#
#
#
# Elastic Constant Matrix: (Units=GPa)
#
#
# Indices 1 2 3 4 5 6 
#
# 1 103.2010 45.2296 26.9475 0.0000 0.0000 0.0000
# 2 45.2296 139.3615 59.5513 0.0000 0.0000 0.0000
# 3 26.9475 59.5513 122.6422 0.0000 0.0000 0.0000
# 4 0.0000 0.0000 0.0000 16.6395 0.0000 0.0000
# 5 0.0000 0.0000 0.0000 0.0000 11.1609 0.0000
# 6 0.0000 0.0000 0.0000 0.0000 0.0000 27.1258
#
#
#
# Elastic Compliance Matrix: (Units=1/GPa)
#
#
# Indices 1 2 3 4 5 6 
#
# 1 0.011373 -0.003310 -0.000892 0.000000 0.000000 0.000000
# 2 -0.003310 0.010018 -0.004137 0.000000 0.000000 0.000000
# 3 -0.000892 -0.004137 0.010359 0.000000 0.000000 0.000000
# 4 0.000000 0.000000 0.000000 0.060098 0.000000 0.000000
# 5 0.000000 0.000000 0.000000 0.000000 0.089599 0.000000
# 6 0.000000 0.000000 0.000000 0.000000 0.000000 0.036865
#
#
# Mechanical properties :
#
#
# Convention : Reuss Voigt Hill
#
# Bulk Modulus (GPa) = 66.34847 69.85127 68.09987
# Shear Modulus (GPa) = 20.83221 26.55033 23.69127
#
# Velocity S-wave (km/s) = 3.38797 3.82479 3.61299
# Velocity P-wave (km/s) = 7.20152 7.61530 7.41130
#
# Compressibility (1/GPa) = 0.01507194
#
# Stress axis : x y z
#
# Youngs Moduli (GPa) = 87.92430 99.82337 96.53900
#
# Poissons Ratio (x) = 0.33044 0.08608
# Poissons Ratio (y) = 0.29105 0.39938
# Poissons Ratio (z) = 0.07840 0.41297
#
# Static dielectric constant tensor:
#      x y z
#    x 3.012200 0.000000 0.000000 
#    y 0.000000 3.385260 0.000000 
#    z 0.000000 0.000000 4.030850 
# 
# 
# High freq. dielectric constant tensor:
#      x y z
#    x 1.679440 0.000000 0.000000 
#    y 0.000000 1.710140 0.000000 
#    z 0.000000 0.000000 1.674210 
# 
# From -- ./inp_files/35528.got.cif
#   From: 2010.03.12/outbox.cif.g09.slc.cpg/sg65_18_cif.got.tgz:35528.got - 2010.04.10 20:52:16.
