data_PCOD8266811
_publ_section_title
;
Structure prediction by ZEFSAII (Michael W. Deem and Ramdas Pophale) SiO2 
 PCOD8266811
Probable space group: C M M M
;
_chemical_formula_sum "Si O2"
_cell_formula_units_Z 104
_cell_length_a 20.011256
_cell_length_b 8.638979
_cell_length_c 32.841078
_cell_angle_alpha 90.000000
_cell_angle_beta 90.000000
_cell_angle_gamma 90.000000
_cell_volume 5677.461141
_symmetry_space_group_name_H-M "C M M M"
_symmetry_group_IT_number 65
_symmetry_cell_setting 'orthorhombic'
loop_
_space_group_symop_operation_xyz
x,y,z
-x,-y,z
x,-y,-z
-x,y,-z
-x,-y,-z
x,y,-z
-x,y,z
x,-y,z
1/2+x,1/2+y,z
1/2-x,1/2-y,z
1/2+x,1/2-y,-z
1/2-x,1/2+y,-z
1/2-x,1/2-y,-z
1/2+x,1/2+y,-z
1/2-x,1/2+y,z
1/2+x,1/2-y,z
loop_
_atom_site_type_symbol
_atom_site_label
_atom_site_fract_x
_atom_site_fract_y
_atom_site_fract_z
Si Si1 0.820245 0.316188 0.390419
Si Si2 0.423800 0.820992 0.232032
Si Si3 0.319981 0.182756 0.701178
Si Si4 0.676544 0.818138 0.082619
Si Si5 0.923130 0.820103 0.146072
Si Si6 0.925525 0.315932 0.454747
Si Si7 0.823935 0.816497 0.000000
O O1 0.817980 0.500000 0.392419
O O2 0.750000 0.250000 0.405493
O O3 0.836099 0.258329 0.344531
O O4 0.876043 0.246987 0.420738
O O5 0.500000 0.798174 0.246037
O O6 0.378208 0.759322 0.268880
O O7 0.407211 0.718535 0.192771
O O8 0.409080 0.000000 0.221539
O O9 0.250000 0.250000 0.716945
O O10 0.314822 0.000000 0.701734
O O11 0.750000 0.750000 0.091794
O O12 0.626126 0.781410 0.118893
O O13 0.642887 0.746859 0.041531
O O14 0.684557 0.000000 0.077216
O O15 0.000000 0.776848 0.135852
O O16 0.909141 0.000000 0.138105
O O17 0.902997 0.262087 0.500000
O O18 0.925294 0.500000 0.452651
O O19 0.000000 0.253888 0.445457
O O20 0.750000 0.750000 0.000000
O O21 0.825486 0.000000 0.000000
#
# Coordination Sequence:
#
# PCOD8266811 Si02
#       7
#    16  16  16  16  16  16   8
#     4   9  17  29  45  66  92 121 153 190 235 285
#     4   9  18  33  51  70  93 123 160 200 242 289
#     4   9  18  31  47  68  94 123 154 193 239 286
#     4  11  21  35  56  81 108 138 175 214 254 300
#     4  10  21  37  55  76 104 136 169 207 253 302
#     4   8  14  25  42  65  91 118 152 195 237 276
#     4  10  18  32  53  78 109 140 173 213 257 301
#
# _framework density 18.318048000000001
#
# number of rings (size 3 to 8) (size 9 to 14) (size 15 to 20)
#    0.000    2.615    0.000    3.923    0.000    3.077 
#    0.000    5.000    0.000    2.769    0.000    5.385 
#    0.000    0.000    0.000    0.000    0.000    0.000 
#
# Total GULP energy -644699.172214 kJ/mol
# GULP energy per Si atom -12398.061004 kJ/mol
# Density = 1.827636 g / cm^3
# Si number density = 18.318048 Si / 1000 Ang^3
#
#
#
# Elastic Constant Matrix: (Units=GPa)
#
#
# Indices 1 2 3 4 5 6 
#
# 1 113.7436 30.5240 87.5146 0.0000 0.0000 0.0000
# 2 30.5240 65.6737 30.5394 0.0000 0.0000 0.0000
# 3 87.5146 30.5394 122.4385 0.0000 0.0000 0.0000
# 4 0.0000 0.0000 0.0000 18.7574 0.0000 0.0000
# 5 0.0000 0.0000 0.0000 0.0000 22.6886 0.0000
# 6 0.0000 0.0000 0.0000 0.0000 0.0000 26.1163
#
#
#
# Elastic Compliance Matrix: (Units=1/GPa)
#
#
# Indices 1 2 3 4 5 6 
#
# 1 0.020045 -0.003002 -0.013578 0.000000 0.000000 0.000000
# 2 -0.003002 0.017674 -0.002263 0.000000 0.000000 0.000000
# 3 -0.013578 -0.002263 0.018437 0.000000 0.000000 0.000000
# 4 0.000000 0.000000 0.000000 0.053312 0.000000 0.000000
# 5 0.000000 0.000000 0.000000 0.000000 0.044075 0.000000
# 6 0.000000 0.000000 0.000000 0.000000 0.000000 0.038290
#
#
# Mechanical properties :
#
#
# Convention : Reuss Voigt Hill
#
# Bulk Modulus (GPa) = 54.14276 66.55688 60.34982
# Shear Modulus (GPa) = 21.21558 23.73099 22.47328
#
# Velocity S-wave (km/s) = 3.40690 3.60321 3.50643
# Velocity P-wave (km/s) = 6.71544 7.32965 7.02926
#
# Compressibility (1/GPa) = 0.01846969
#
# Stress axis : x y z
#
# Youngs Moduli (GPa) = 49.88898 56.57929 54.23893
#
# Poissons Ratio (x) = 0.16986 0.73647
# Poissons Ratio (y) = 0.14978 0.12272
# Poissons Ratio (z) = 0.67740 0.12801
#
# Static dielectric constant tensor:
#      x y z
#    x 3.399720 0.000000 0.000000 
#    y 0.000000 3.180450 0.000000 
#    z 0.000000 0.000000 3.781880 
# 
# 
# High freq. dielectric constant tensor:
#      x y z
#    x 1.700650 0.000000 0.000000 
#    y 0.000000 1.695160 0.000000 
#    z 0.000000 0.000000 1.718390 
# 
# From -- ./inp_files/78194.got.cif
#   From: 2010.03.12/outbox.cif.g09.slc.cpg/sg65_40_cif.got.tgz:78194.got - 2010.04.10 20:52:16.
