data_PCOD8266329
_publ_section_title
;
Structure prediction by ZEFSAII (Michael W. Deem and Ramdas Pophale) SiO2 
 PCOD8266329
Probable space group: C M M M
;
_chemical_formula_sum "Si O2"
_cell_formula_units_Z 64
_cell_length_a 18.760118
_cell_length_b 8.631899
_cell_length_c 21.147347
_cell_angle_alpha 90.000000
_cell_angle_beta 90.000000
_cell_angle_gamma 90.000000
_cell_volume 3424.505022
_symmetry_space_group_name_H-M "C M M M"
_symmetry_group_IT_number 65
_symmetry_cell_setting 'orthorhombic'
loop_
_space_group_symop_operation_xyz
x,y,z
-x,-y,z
x,-y,-z
-x,y,-z
-x,-y,-z
x,y,-z
-x,y,z
x,-y,z
1/2+x,1/2+y,z
1/2-x,1/2-y,z
1/2+x,1/2-y,-z
1/2-x,1/2+y,-z
1/2-x,1/2-y,-z
1/2+x,1/2+y,-z
1/2-x,1/2+y,z
1/2+x,1/2-y,z
loop_
_atom_site_type_symbol
_atom_site_label
_atom_site_fract_x
_atom_site_fract_y
_atom_site_fract_z
Si Si1 0.827233 0.681522 0.000000
Si Si2 0.828690 0.316140 0.371689
Si Si3 0.670822 0.683984 0.500000
Si Si4 0.079931 0.315726 0.252546
Si Si5 0.328690 0.183595 0.863614
O O1 0.750000 0.750000 0.000000
O O2 0.862735 0.731769 0.067211
O O3 0.819288 0.500000 0.000000
O O4 0.824090 0.500000 0.376439
O O5 0.750000 0.250000 0.360571
O O6 0.865162 0.248840 0.435853
O O7 0.877951 0.258945 0.314341
O O8 0.670086 0.500000 0.500000
O O9 0.750000 0.750000 0.500000
O O10 0.077794 0.500000 0.250420
O O11 0.119297 0.249382 0.190229
O O12 0.000000 0.247778 0.254439
O O13 0.250000 0.250000 0.853818
O O14 0.322748 0.000000 0.857425
#
# Coordination Sequence:
#
# PCOD8266329 Si02
#       5
#     8  16   8  16  16
#     4   8  14  24  41  67  93 117 147 186 230 270
#     4  10  18  30  50  72  93 118 151 189 227 270
#     4  10  18  30  49  72  97 119 145 185 229 272
#     4   9  18  31  46  66  93 124 156 190 227 268
#     4   9  16  28  47  69  93 120 153 191 229 271
#
# _framework density 18.688832999999999
#
# number of rings (size 3 to 8) (size 9 to 14) (size 15 to 20)
#    0.000    2.750    0.000    4.125    0.000    0.000 
#    0.000    2.500    0.000   14.250    0.000    0.000 
#    0.000   10.000    0.000    0.000    0.000    0.000 
#
# Total GULP energy -396441.374848 kJ/mol
# GULP energy per Si atom -12388.792964 kJ/mol
# Density = 1.864630 g / cm^3
# Si number density = 18.688833 Si / 1000 Ang^3
#
#
#
# Elastic Constant Matrix: (Units=GPa)
#
#
# Indices 1 2 3 4 5 6 
#
# 1 100.7575 17.7753 90.6137 0.0000 0.0000 0.0000
# 2 17.7753 47.5413 37.5742 0.0000 0.0000 0.0000
# 3 90.6137 37.5742 238.0969 0.0000 0.0000 0.0000
# 4 0.0000 0.0000 0.0000 19.5540 0.0000 0.0000
# 5 0.0000 0.0000 0.0000 0.0000 7.1689 0.0000
# 6 0.0000 0.0000 0.0000 0.0000 0.0000 15.1809
#
#
#
# Elastic Compliance Matrix: (Units=1/GPa)
#
#
# Indices 1 2 3 4 5 6 
#
# 1 0.015156 -0.001266 -0.005568 0.000000 0.000000 0.000000
# 2 -0.001266 0.024137 -0.003327 0.000000 0.000000 0.000000
# 3 -0.005568 -0.003327 0.006844 0.000000 0.000000 0.000000
# 4 0.000000 0.000000 0.000000 0.051140 0.000000 0.000000
# 5 0.000000 0.000000 0.000000 0.000000 0.139492 0.000000
# 6 0.000000 0.000000 0.000000 0.000000 0.000000 0.065872
#
#
# Mechanical properties :
#
#
# Convention : Reuss Voigt Hill
#
# Bulk Modulus (GPa) = 38.73783 75.36913 57.05348
# Shear Modulus (GPa) = 15.07981 24.40960 19.74470
#
# Velocity S-wave (km/s) = 2.84366 3.61793 3.25391
# Velocity P-wave (km/s) = 5.61735 7.60714 6.68667
#
# Compressibility (1/GPa) = 0.02581456
#
# Stress axis : x y z
#
# Youngs Moduli (GPa) = 65.98186 41.42946 146.11014
#
# Poissons Ratio (x) = 0.05244 0.81356
# Poissons Ratio (y) = 0.08352 0.48616
# Poissons Ratio (z) = 0.36739 0.13785
#
# Static dielectric constant tensor:
#      x y z
#    x 3.203770 0.000000 0.000000 
#    y 0.000000 3.172670 0.000000 
#    z 0.000000 0.000000 4.531010 
# 
# 
# High freq. dielectric constant tensor:
#      x y z
#    x 1.680390 0.000000 0.000000 
#    y 0.000000 1.703020 0.000000 
#    z 0.000000 0.000000 1.760840 
# 
# From -- ./inp_files/64244.got.cif
#   From: 2010.03.12/outbox.cif.g09.slc.cpg/sg65_33_cif.got.tgz:64244.got - 2010.04.10 20:52:16.
