data_PCOD8266919
_publ_section_title
;
Structure prediction by ZEFSAII (Michael W. Deem and Ramdas Pophale) SiO2 
 PCOD8266919
Probable space group: C M M M
;
_chemical_formula_sum "Si O2"
_cell_formula_units_Z 80
_cell_length_a 8.960756
_cell_length_b 23.913148
_cell_length_c 20.420674
_cell_angle_alpha 90.000000
_cell_angle_beta 90.000000
_cell_angle_gamma 90.000000
_cell_volume 4375.739664
_symmetry_space_group_name_H-M "C M M M"
_symmetry_group_IT_number 65
_symmetry_cell_setting 'orthorhombic'
loop_
_space_group_symop_operation_xyz
x,y,z
-x,-y,z
x,-y,-z
-x,y,-z
-x,-y,-z
x,y,-z
-x,y,z
x,-y,z
1/2+x,1/2+y,z
1/2-x,1/2-y,z
1/2+x,1/2-y,-z
1/2-x,1/2+y,-z
1/2-x,1/2-y,-z
1/2+x,1/2+y,-z
1/2-x,1/2+y,z
1/2+x,1/2-y,z
loop_
_atom_site_type_symbol
_atom_site_label
_atom_site_fract_x
_atom_site_fract_y
_atom_site_fract_z
Si Si1 0.822754 0.881349 0.692122
Si Si2 0.176901 0.000000 0.733280
Si Si3 0.175817 0.808111 0.426365
Si Si4 0.328426 0.119447 0.925037
Si Si5 0.323423 0.689832 0.815748
Si Si6 0.829354 0.500000 0.129863
O O1 0.759216 0.944523 0.697578
O O2 0.765327 0.855231 0.623760
O O3 0.764068 0.844956 0.753166
O O4 0.000000 0.882467 0.693745
O O5 0.221525 0.000000 0.808500
O O6 0.000000 0.000000 0.730417
O O7 0.221618 0.826122 0.500000
O O8 0.250000 0.750000 0.406342
O O9 0.000000 0.799834 0.420161
O O10 0.500000 0.133153 0.907955
O O11 0.222440 0.157715 0.881308
O O12 0.294467 0.054131 0.913772
O O13 0.292404 0.133828 0.000000
O O14 0.500000 0.696838 0.814543
O O15 0.250000 0.750000 0.813498
O O16 0.000000 0.500000 0.154535
#
# Coordination Sequence:
#
# PCOD8266919 Si02
#       6
#    16   8  16  16  16   8
#     4   9  18  32  52  77 104 135 170 212 256 303
#     4  10  18  33  54  75 104 137 168 208 260 308
#     4   9  17  31  51  76 105 137 173 211 252 299
#     4  10  21  37  56  78 105 135 168 211 262 313
#     4  11  22  36  54  76 103 136 175 216 261 310
#     4  10  19  34  56  81 105 130 168 214 259 306
#
# _framework density 18.282623999999998
#
# number of rings (size 3 to 8) (size 9 to 14) (size 15 to 20)
#    0.000    2.200    2.000    1.500    0.000    2.000 
#    0.000    2.500    0.000    4.800    0.000    0.000 
#    0.000    4.000    0.000    0.000    0.000    0.000 
#
# Total GULP energy -496011.097826 kJ/mol
# GULP energy per Si atom -12400.277446 kJ/mol
# Density = 1.824101 g / cm^3
# Si number density = 18.282624 Si / 1000 Ang^3
#
#
#
# Elastic Constant Matrix: (Units=GPa)
#
#
# Indices 1 2 3 4 5 6 
#
# 1 35.3195 37.1155 26.4507 0.0000 0.0000 0.0000
# 2 37.1155 159.9320 77.4945 0.0000 0.0000 0.0000
# 3 26.4507 77.4945 130.7257 0.0000 0.0000 0.0000
# 4 0.0000 0.0000 0.0000 34.9693 0.0000 0.0000
# 5 0.0000 0.0000 0.0000 0.0000 20.9676 0.0000
# 6 0.0000 0.0000 0.0000 0.0000 0.0000 5.4449
#
#
#
# Elastic Compliance Matrix: (Units=1/GPa)
#
#
# Indices 1 2 3 4 5 6 
#
# 1 0.038555 -0.007250 -0.003503 0.000000 0.000000 0.000000
# 2 -0.007250 0.010136 -0.004542 0.000000 0.000000 0.000000
# 3 -0.003503 -0.004542 0.011051 0.000000 0.000000 0.000000
# 4 0.000000 0.000000 0.000000 0.028597 0.000000 0.000000
# 5 0.000000 0.000000 0.000000 0.000000 0.047693 0.000000
# 6 0.000000 0.000000 0.000000 0.000000 0.000000 0.183657
#
#
# Mechanical properties :
#
#
# Convention : Reuss Voigt Hill
#
# Bulk Modulus (GPa) = 34.30306 67.56650 50.93478
# Shear Modulus (GPa) = 13.88909 24.60414 19.24661
#
# Velocity S-wave (km/s) = 2.75923 3.67245 3.24810
# Velocity P-wave (km/s) = 5.38094 7.41751 6.47974
#
# Compressibility (1/GPa) = 0.02915192
#
# Stress axis : x y z
#
# Youngs Moduli (GPa) = 25.93679 98.66053 90.49195
#
# Poissons Ratio (x) = 0.71529 0.31703
# Poissons Ratio (y) = 0.18804 0.41097
# Poissons Ratio (z) = 0.09087 0.44807
#
# Static dielectric constant tensor:
#      x y z
#    x 3.158300 0.000000 0.000000 
#    y 0.000000 3.688310 0.000000 
#    z 0.000000 0.000000 3.520150 
# 
# 
# High freq. dielectric constant tensor:
#      x y z
#    x 1.685390 0.000000 0.000000 
#    y 0.000000 1.716660 0.000000 
#    z 0.000000 0.000000 1.711690 
# 
# From -- ./inp_files/59617.got.cif
#   From: 2010.03.12/outbox.cif.g09.slc.cpg/sg65_30_cif.got.tgz:59617.got - 2010.04.10 20:52:16.
