data_PCOD8266077
_publ_section_title
;
Structure prediction by ZEFSAII (Michael W. Deem and Ramdas Pophale) SiO2 
 PCOD8266077
Probable space group: C M M M
;
_chemical_formula_sum "Si O2"
_cell_formula_units_Z 80
_cell_length_a 8.709935
_cell_length_b 27.679610
_cell_length_c 19.023103
_cell_angle_alpha 90.000000
_cell_angle_beta 90.000000
_cell_angle_gamma 90.000000
_cell_volume 4586.234321
_symmetry_space_group_name_H-M "C M M M"
_symmetry_group_IT_number 65
_symmetry_cell_setting 'orthorhombic'
loop_
_space_group_symop_operation_xyz
x,y,z
-x,-y,z
x,-y,-z
-x,y,-z
-x,-y,-z
x,y,-z
-x,y,z
x,-y,z
1/2+x,1/2+y,z
1/2-x,1/2-y,z
1/2+x,1/2-y,-z
1/2-x,1/2+y,-z
1/2-x,1/2-y,-z
1/2+x,1/2+y,-z
1/2-x,1/2+y,z
1/2+x,1/2-y,z
loop_
_atom_site_type_symbol
_atom_site_label
_atom_site_fract_x
_atom_site_fract_y
_atom_site_fract_z
Si Si1 0.317709 0.553999 0.077820
Si Si2 0.178089 0.554708 0.334244
Si Si3 0.681725 0.198422 0.287511
Si Si4 0.680544 0.856099 0.576976
Si Si5 0.680639 0.610585 0.788590
O O1 0.500000 0.551988 0.081437
O O2 0.253507 0.500000 0.093163
O O3 0.257586 0.591813 0.135931
O O4 0.263946 0.570995 0.000000
O O5 0.215209 0.500000 0.356566
O O6 0.219818 0.589096 0.399950
O O7 0.280454 0.569180 0.267766
O O8 0.000000 0.561653 0.313319
O O9 0.500000 0.201236 0.287358
O O10 0.750000 0.250000 0.268518
O O11 0.744488 0.181008 0.364159
O O12 0.733962 0.160551 0.228399
O O13 0.755534 0.846158 0.500000
O O14 0.500000 0.849159 0.571293
O O15 0.500000 0.620250 0.788862
#
# Coordination Sequence:
#
# PCOD8266077 Si02
#       5
#    16  16  16  16  16
#     4   8  14  25  43  70 101 128 154 184 218 259
#     4   9  17  28  43  65  94 127 159 191 226 265
#     4  10  20  34  51  70  91 116 149 191 236 280
#     4   8  15  28  45  66  91 118 150 188 230 276
#     4  10  18  29  48  71  94 122 155 191 229 271
#
# _framework density 17.443505999999999
#
# number of rings (size 3 to 8) (size 9 to 14) (size 15 to 20)
#    0.000    3.000    0.000    3.600    0.000    2.000 
#    0.000    2.000    0.000   17.400    0.000   12.600 
#    0.000    0.000    0.000    0.000    0.000    0.000 
#
# Total GULP energy -495769.526692 kJ/mol
# GULP energy per Si atom -12394.238167 kJ/mol
# Density = 1.740380 g / cm^3
# Si number density = 17.443506 Si / 1000 Ang^3
#
#
#
# Elastic Constant Matrix: (Units=GPa)
#
#
# Indices 1 2 3 4 5 6 
#
# 1 36.9043 24.2012 21.1753 0.0000 0.0000 0.0000
# 2 24.2012 126.2217 63.8230 0.0000 0.0000 0.0000
# 3 21.1753 63.8230 139.0170 0.0000 0.0000 0.0000
# 4 0.0000 0.0000 0.0000 17.2616 0.0000 0.0000
# 5 0.0000 0.0000 0.0000 0.0000 17.7647 0.0000
# 6 0.0000 0.0000 0.0000 0.0000 0.0000 22.5112
#
#
#
# Elastic Compliance Matrix: (Units=1/GPa)
#
#
# Indices 1 2 3 4 5 6 
#
# 1 0.031730 -0.004740 -0.002657 0.000000 0.000000 0.000000
# 2 -0.004740 0.011026 -0.004340 0.000000 0.000000 0.000000
# 3 -0.002657 -0.004340 0.009591 0.000000 0.000000 0.000000
# 4 0.000000 0.000000 0.000000 0.057932 0.000000 0.000000
# 5 0.000000 0.000000 0.000000 0.000000 0.056292 0.000000
# 6 0.000000 0.000000 0.000000 0.000000 0.000000 0.044422
#
#
# Mechanical properties :
#
#
# Convention : Reuss Voigt Hill
#
# Bulk Modulus (GPa) = 34.63531 57.83800 46.23665
# Shear Modulus (GPa) = 20.48415 24.37039 22.42727
#
# Velocity S-wave (km/s) = 3.43054 3.74184 3.58957
# Velocity P-wave (km/s) = 5.96576 7.20401 6.61393
#
# Compressibility (1/GPa) = 0.02887227
#
# Stress axis : x y z
#
# Youngs Moduli (GPa) = 31.51566 90.69519 104.26915
#
# Poissons Ratio (x) = 0.42993 0.27703
# Poissons Ratio (y) = 0.14940 0.45253
# Poissons Ratio (z) = 0.08373 0.39361
#
# Static dielectric constant tensor:
#      x y z
#    x 2.926660 0.000000 0.000000 
#    y 0.000000 3.299870 0.000000 
#    z 0.000000 0.000000 3.552650 
# 
# 
# High freq. dielectric constant tensor:
#      x y z
#    x 1.643560 0.000000 0.000000 
#    y 0.000000 1.668100 0.000000 
#    z 0.000000 0.000000 1.668690 
# 
# From -- ./inp_files/49870.got.cif
#   From: 2010.03.12/outbox.cif.g09.slc.cpg/sg65_25_cif.got.tgz:49870.got - 2010.04.10 20:52:16.
