data_PCOD8266245
_publ_section_title
;
Structure prediction by ZEFSAII (Michael W. Deem and Ramdas Pophale) SiO2 
 PCOD8266245
Probable space group: C M M M
;
_chemical_formula_sum "Si O2"
_cell_formula_units_Z 88
_cell_length_a 9.068031
_cell_length_b 28.262600
_cell_length_c 21.041496
_cell_angle_alpha 90.000000
_cell_angle_beta 90.000000
_cell_angle_gamma 90.000000
_cell_volume 5392.643641
_symmetry_space_group_name_H-M "C M M M"
_symmetry_group_IT_number 65
_symmetry_cell_setting 'orthorhombic'
loop_
_space_group_symop_operation_xyz
x,y,z
-x,-y,z
x,-y,-z
-x,y,-z
-x,-y,-z
x,y,-z
-x,y,z
x,-y,z
1/2+x,1/2+y,z
1/2-x,1/2-y,z
1/2+x,1/2-y,-z
1/2-x,1/2+y,-z
1/2-x,1/2-y,-z
1/2+x,1/2+y,-z
1/2-x,1/2+y,z
1/2+x,1/2-y,z
loop_
_atom_site_type_symbol
_atom_site_label
_atom_site_fract_x
_atom_site_fract_y
_atom_site_fract_z
Si Si1 0.828557 0.554336 0.928735
Si Si2 0.822167 0.698329 0.000000
Si Si3 0.166399 0.556203 0.430710
Si Si4 0.673618 0.554349 0.692868
Si Si5 0.671846 0.298952 0.875649
Si Si6 0.169148 0.106080 0.183684
O O1 0.778910 0.500000 0.923899
O O2 0.741663 0.584272 0.878009
O O3 0.000000 0.559535 0.913771
O O4 0.795374 0.573637 0.000000
O O5 0.750000 0.750000 0.000000
O O6 0.756779 0.676012 0.935334
O O7 0.000000 0.697353 0.000000
O O8 0.225014 0.574030 0.500000
O O9 0.173202 0.500000 0.429831
O O10 0.263194 0.576080 0.372677
O O11 0.000000 0.573970 0.420867
O O12 0.500000 0.558721 0.687844
O O13 0.723310 0.500000 0.703449
O O14 0.738210 0.585398 0.751239
O O15 0.500000 0.289029 0.892448
O O16 0.750000 0.250000 0.855085
O O17 0.685892 0.336767 0.818318
O O18 0.000000 0.090667 0.181175
#
# Coordination Sequence:
#
# PCOD8266245 Si02
#       6
#    16   8  16  16  16  16
#     4   9  19  34  48  64  87 114 148 189 227 264
#     4  10  18  30  48  66  83 104 133 174 226 277
#     4   8  14  25  41  62  89 120 151 180 210 247
#     4   9  17  29  44  64  91 120 150 182 215 254
#     4  10  20  34  49  66  88 112 143 184 230 279
#     4  10  21  33  47  66  89 117 150 187 226 271
#
# _framework density 16.318525999999999
#
# number of rings (size 3 to 8) (size 9 to 14) (size 15 to 20)
#    0.000    2.727    0.000    4.091    1.273    4.000 
#    0.000    4.545    0.000    0.000    0.000    0.000 
#    0.000    0.727    0.000    1.636    0.000    2.909 
#
# Total GULP energy -545240.670318 kJ/mol
# GULP energy per Si atom -12391.833416 kJ/mol
# Density = 1.628138 g / cm^3
# Si number density = 16.318526 Si / 1000 Ang^3
#
#
#
# Elastic Constant Matrix: (Units=GPa)
#
#
# Indices 1 2 3 4 5 6 
#
# 1 67.3783 32.3530 45.1646 0.0000 0.0000 0.0000
# 2 32.3530 49.9417 56.4735 0.0000 0.0000 0.0000
# 3 45.1646 56.4735 133.5029 0.0000 0.0000 0.0000
# 4 0.0000 0.0000 0.0000 11.9332 0.0000 0.0000
# 5 0.0000 0.0000 0.0000 0.0000 21.9778 0.0000
# 6 0.0000 0.0000 0.0000 0.0000 0.0000 17.6334
#
#
#
# Elastic Compliance Matrix: (Units=1/GPa)
#
#
# Indices 1 2 3 4 5 6 
#
# 1 0.022045 -0.011210 -0.002716 0.000000 0.000000 0.000000
# 2 -0.011210 0.044084 -0.014856 0.000000 0.000000 0.000000
# 3 -0.002716 -0.014856 0.014693 0.000000 0.000000 0.000000
# 4 0.000000 0.000000 0.000000 0.083800 0.000000 0.000000
# 5 0.000000 0.000000 0.000000 0.000000 0.045500 0.000000
# 6 0.000000 0.000000 0.000000 0.000000 0.000000 0.056711
#
#
# Mechanical properties :
#
#
# Convention : Reuss Voigt Hill
#
# Bulk Modulus (GPa) = 42.99380 57.64502 50.31941
# Shear Modulus (GPa) = 15.05350 18.09768 16.57559
#
# Velocity S-wave (km/s) = 3.04053 3.33382 3.19055
# Velocity P-wave (km/s) = 6.22336 7.08666 6.66899
#
# Compressibility (1/GPa) = 0.02325917
#
# Stress axis : x y z
#
# Youngs Moduli (GPa) = 45.36245 22.68397 68.05739
#
# Poissons Ratio (x) = 0.25428 0.18484
# Poissons Ratio (y) = 0.50850 1.01105
# Poissons Ratio (z) = 0.12320 0.33699
#
# Static dielectric constant tensor:
#      x y z
#    x 3.090710 0.000000 0.000000 
#    y 0.000000 2.912160 0.000000 
#    z 0.000000 0.000000 4.118260 
# 
# 
# High freq. dielectric constant tensor:
#      x y z
#    x 1.628610 0.000000 0.000000 
#    y 0.000000 1.594880 0.000000 
#    z 0.000000 0.000000 1.620310 
# 
# From -- ./inp_files/60672.got.cif
#   From: 2010.03.12/outbox.cif.g09.slc.cpg/sg65_31_cif.got.tgz:60672.got - 2010.04.10 20:52:16.
