data_PCOD8266088
_publ_section_title
;
Structure prediction by ZEFSAII (Michael W. Deem and Ramdas Pophale) SiO2 
 PCOD8266088
Probable space group: C M M M
;
_chemical_formula_sum "Si O2"
_cell_formula_units_Z 104
_cell_length_a 21.975124
_cell_length_b 14.678310
_cell_length_c 18.862153
_cell_angle_alpha 90.000000
_cell_angle_beta 90.000000
_cell_angle_gamma 90.000000
_cell_volume 6084.132356
_symmetry_space_group_name_H-M "C M M M"
_symmetry_group_IT_number 65
_symmetry_cell_setting 'orthorhombic'
loop_
_space_group_symop_operation_xyz
x,y,z
-x,-y,z
x,-y,-z
-x,y,-z
-x,-y,-z
x,y,-z
-x,y,z
x,-y,z
1/2+x,1/2+y,z
1/2-x,1/2-y,z
1/2+x,1/2-y,-z
1/2-x,1/2+y,-z
1/2-x,1/2-y,-z
1/2+x,1/2+y,-z
1/2-x,1/2+y,z
1/2+x,1/2-y,z
loop_
_atom_site_type_symbol
_atom_site_label
_atom_site_fract_x
_atom_site_fract_y
_atom_site_fract_z
Si Si1 0.612742 0.225890 0.582801
Si Si2 0.830224 0.000000 0.921528
Si Si3 0.169610 0.151574 0.183009
Si Si4 0.685044 0.000000 0.080221
Si Si5 0.685695 0.851911 0.188595
Si Si6 0.296088 0.897090 0.345174
Si Si7 0.500000 0.104347 0.584179
Si Si8 0.154181 0.103041 0.663135
O O1 0.606665 0.245203 0.500000
O O2 0.674615 0.172059 0.599081
O O3 0.558263 0.161512 0.611035
O O4 0.612908 0.324808 0.620554
O O5 0.854225 0.909210 0.882219
O O6 0.757579 0.000000 0.923468
O O7 0.858051 0.000000 0.000000
O O8 0.242026 0.149706 0.184690
O O9 0.151241 0.256771 0.174992
O O10 0.139639 0.110113 0.253579
O O11 0.660475 0.085644 0.125176
O O12 0.658238 0.000000 0.000000
O O13 0.671807 0.886343 0.268172
O O14 0.225057 0.872428 0.345685
O O15 0.306340 0.000000 0.371542
O O16 0.500000 0.098257 0.500000
O O17 0.500000 0.000000 0.614723
O O18 0.139743 0.000000 0.636976
#
# Coordination Sequence:
#
# PCOD8266088 Si02
#       8
#    16   8  16   8  16  16   8  16
#     4  11  22  35  52  73  95 124 164 207 246 287
#     4   9  16  24  36  56  83 122 171 206 225 262
#     4   9  15  25  40  57  84 123 162 195 229 277
#     4   9  16  24  34  54  87 124 163 204 235 270
#     4   9  15  24  39  58  83 121 163 194 232 283
#     4  10  18  29  48  72  98 129 164 200 245 296
#     4   9  20  40  59  73  93 121 155 200 253 297
#     4  10  19  31  48  71 100 133 163 195 242 298
#
# _framework density 17.093644000000001
#
# number of rings (size 3 to 8) (size 9 to 14) (size 15 to 20)
#    0.000    2.385    3.077    0.923    0.000    3.077 
#    0.000    5.000    0.000    1.385    0.000    0.000 
#    0.000    0.000    0.000    4.154    0.000    2.000 
#
# Total GULP energy -644457.268716 kJ/mol
# GULP energy per Si atom -12393.409014 kJ/mol
# Density = 1.705474 g / cm^3
# Si number density = 17.093644 Si / 1000 Ang^3
#
#
#
# Elastic Constant Matrix: (Units=GPa)
#
#
# Indices 1 2 3 4 5 6 
#
# 1 31.0423 33.7857 21.0400 0.0000 0.0000 0.0000
# 2 33.7857 147.1747 46.9499 0.0000 0.0000 0.0000
# 3 21.0400 46.9499 84.6454 0.0000 0.0000 0.0000
# 4 0.0000 0.0000 0.0000 32.4371 0.0000 0.0000
# 5 0.0000 0.0000 0.0000 0.0000 2.5966 0.0000
# 6 0.0000 0.0000 0.0000 0.0000 0.0000 17.1784
#
#
#
# Elastic Compliance Matrix: (Units=1/GPa)
#
#
# Indices 1 2 3 4 5 6 
#
# 1 0.045925 -0.008385 -0.006765 0.000000 0.000000 0.000000
# 2 -0.008385 0.009786 -0.003344 0.000000 0.000000 0.000000
# 3 -0.006765 -0.003344 0.015350 0.000000 0.000000 0.000000
# 4 0.000000 0.000000 0.000000 0.030829 0.000000 0.000000
# 5 0.000000 0.000000 0.000000 0.000000 0.385120 0.000000
# 6 0.000000 0.000000 0.000000 0.000000 0.000000 0.058213
#
#
# Mechanical properties :
#
#
# Convention : Reuss Voigt Hill
#
# Bulk Modulus (GPa) = 29.34733 51.82375 40.58554
# Shear Modulus (GPa) = 8.42365 21.18155 14.80260
#
# Velocity S-wave (km/s) = 2.22231 3.52397 2.94593
# Velocity P-wave (km/s) = 4.87757 6.85137 5.94693
#
# Compressibility (1/GPa) = 0.03407465
#
# Stress axis : x y z
#
# Youngs Moduli (GPa) = 21.77483 102.18514 65.14567
#
# Poissons Ratio (x) = 0.85678 0.44069
# Poissons Ratio (y) = 0.18257 0.21784
# Poissons Ratio (z) = 0.14730 0.34170
#
# Static dielectric constant tensor:
#      x y z
#    x 2.610280 0.000000 0.000000 
#    y 0.000000 3.569260 0.000000 
#    z 0.000000 0.000000 3.226410 
# 
# 
# High freq. dielectric constant tensor:
#      x y z
#    x 1.578070 0.000000 0.000000 
#    y 0.000000 1.682870 0.000000 
#    z 0.000000 0.000000 1.652500 
# 
# From -- ./inp_files/56863.got.cif
#   From: 2010.03.12/outbox.cif.g09.slc.cpg/sg65_29_cif.got.tgz:56863.got - 2010.04.10 20:52:16.
