data_PCOD8266003
_publ_section_title
;
Structure prediction by ZEFSAII (Michael W. Deem and Ramdas Pophale) SiO2 
 PCOD8266003
Probable space group: C M M M
;
_chemical_formula_sum "Si O2"
_cell_formula_units_Z 104
_cell_length_a 27.795909
_cell_length_b 7.962375
_cell_length_c 28.517361
_cell_angle_alpha 90.000000
_cell_angle_beta 90.000000
_cell_angle_gamma 90.000000
_cell_volume 6311.503713
_symmetry_space_group_name_H-M "C M M M"
_symmetry_group_IT_number 65
_symmetry_cell_setting 'orthorhombic'
loop_
_space_group_symop_operation_xyz
x,y,z
-x,-y,z
x,-y,-z
-x,y,-z
-x,-y,-z
x,y,-z
-x,y,z
x,-y,z
1/2+x,1/2+y,z
1/2-x,1/2-y,z
1/2+x,1/2-y,-z
1/2-x,1/2+y,-z
1/2-x,1/2-y,-z
1/2+x,1/2+y,-z
1/2-x,1/2+y,z
1/2+x,1/2-y,z
loop_
_atom_site_type_symbol
_atom_site_label
_atom_site_fract_x
_atom_site_fract_y
_atom_site_fract_z
Si Si1 0.604168 0.694747 0.308882
Si Si2 0.354732 0.799697 0.551625
Si Si3 0.803451 0.697227 0.643296
Si Si4 0.052480 0.306306 0.601037
Si Si5 0.557373 0.000000 0.946930
Si Si6 0.053321 0.198428 0.217263
Si Si7 0.057302 0.811450 0.113524
O O1 0.591964 0.500000 0.313381
O O2 0.660684 0.724701 0.318284
O O3 0.571251 0.791212 0.346043
O O4 0.590021 0.763957 0.257267
O O5 0.340625 0.729880 0.500000
O O6 0.316582 0.736447 0.590720
O O7 0.407660 0.728675 0.565710
O O8 0.355858 0.000000 0.551194
O O9 0.809717 0.500000 0.645286
O O10 0.750000 0.750000 0.656718
O O11 0.046543 0.500000 0.589037
O O12 0.000000 0.218120 0.594939
O O13 0.577170 0.829770 0.922257
O O14 0.500000 0.000000 0.945122
O O15 0.576556 0.000000 0.000000
O O16 0.073583 0.246090 0.165768
O O17 0.000000 0.276890 0.225351
O O18 0.048790 0.000000 0.219759
O O19 0.000000 0.817912 0.112208
O O20 0.076897 0.000000 0.100920
#
# Coordination Sequence:
#
# PCOD8266003 Si02
#       7
#    16  16  16  16   8  16  16
#     4  10  18  29  46  65  84 109 140 173 210 256
#     4   8  15  28  45  64  84 106 134 168 206 249
#     4  10  20  34  49  65  84 104 131 169 209 256
#     4   9  17  28  41  61  89 114 138 169 203 245
#     4   9  16  24  34  52  76 106 152 196 227 263
#     4   8  14  25  41  60  83 111 142 175 210 252
#     4   8  14  25  37  51  76 108 144 188 228 259
#
# _framework density 16.477848000000002
#
# number of rings (size 3 to 8) (size 9 to 14) (size 15 to 20)
#    0.000    3.154    0.000    3.231    0.000    1.846 
#    2.769    3.077    0.000   11.077    0.000    4.308 
#    0.000    0.000    0.000    0.000    0.000    0.769 
#
# Total GULP energy -644304.313507 kJ/mol
# GULP energy per Si atom -12390.467567 kJ/mol
# Density = 1.644034 g / cm^3
# Si number density = 16.477848 Si / 1000 Ang^3
#
#
#
# Elastic Constant Matrix: (Units=GPa)
#
#
# Indices 1 2 3 4 5 6 
#
# 1 73.9156 4.9683 31.1207 0.0000 0.0000 0.0000
# 2 4.9683 42.5709 31.1517 0.0000 0.0000 0.0000
# 3 31.1207 31.1517 127.8995 0.0000 0.0000 0.0000
# 4 0.0000 0.0000 0.0000 13.9458 0.0000 0.0000
# 5 0.0000 0.0000 0.0000 0.0000 11.3089 0.0000
# 6 0.0000 0.0000 0.0000 0.0000 0.0000 11.6778
#
#
#
# Elastic Compliance Matrix: (Units=1/GPa)
#
#
# Indices 1 2 3 4 5 6 
#
# 1 0.015118 0.001129 -0.003953 0.000000 0.000000 0.000000
# 2 0.001129 0.028669 -0.007257 0.000000 0.000000 0.000000
# 3 -0.003953 -0.007257 0.010548 0.000000 0.000000 0.000000
# 4 0.000000 0.000000 0.000000 0.071706 0.000000 0.000000
# 5 0.000000 0.000000 0.000000 0.000000 0.088426 0.000000
# 6 0.000000 0.000000 0.000000 0.000000 0.000000 0.085633
#
#
# Mechanical properties :
#
#
# Convention : Reuss Voigt Hill
#
# Bulk Modulus (GPa) = 29.26483 42.09635 35.68059
# Shear Modulus (GPa) = 15.07596 19.19620 17.13608
#
# Velocity S-wave (km/s) = 3.02805 3.41687 3.22832
# Velocity P-wave (km/s) = 5.47943 6.41633 5.96630
#
# Compressibility (1/GPa) = 0.03417071
#
# Stress axis : x y z
#
# Youngs Moduli (GPa) = 66.14826 34.88066 94.80297
#
# Poissons Ratio (x) = -0.03937 0.37478
# Poissons Ratio (y) = -0.07465 0.68802
# Poissons Ratio (z) = 0.26150 0.25314
#
# Static dielectric constant tensor:
#      x y z
#    x 2.792830 0.000000 0.000000 
#    y 0.000000 3.035270 0.000000 
#    z 0.000000 0.000000 3.325970 
# 
# 
# High freq. dielectric constant tensor:
#      x y z
#    x 1.587700 0.000000 0.000000 
#    y 0.000000 1.624810 0.000000 
#    z 0.000000 0.000000 1.622620 
# 
# From -- ./inp_files/75984.got.cif
#   From: 2010.03.12/outbox.cif.g09.slc.cpg/sg65_38_cif.got.tgz:75984.got - 2010.04.10 20:52:16.
