data_PCOD8266344
_publ_section_title
;
Structure prediction by ZEFSAII (Michael W. Deem and Ramdas Pophale) SiO2 
 PCOD8266344
Probable space group: C M M M
;
_chemical_formula_sum "Si O2"
_cell_formula_units_Z 120
_cell_length_a 13.734044
_cell_length_b 34.229920
_cell_length_c 14.012594
_cell_angle_alpha 90.000000
_cell_angle_beta 90.000000
_cell_angle_gamma 90.000000
_cell_volume 6587.533815
_symmetry_space_group_name_H-M "C M M M"
_symmetry_group_IT_number 65
_symmetry_cell_setting 'orthorhombic'
loop_
_space_group_symop_operation_xyz
x,y,z
-x,-y,z
x,-y,-z
-x,y,-z
-x,-y,-z
x,y,-z
-x,y,z
x,-y,z
1/2+x,1/2+y,z
1/2-x,1/2-y,z
1/2+x,1/2-y,-z
1/2-x,1/2+y,-z
1/2-x,1/2-y,-z
1/2+x,1/2+y,-z
1/2-x,1/2+y,z
1/2+x,1/2-y,z
loop_
_atom_site_type_symbol
_atom_site_label
_atom_site_fract_x
_atom_site_fract_y
_atom_site_fract_z
Si Si1 0.114440 0.000000 0.106526
Si Si2 0.886523 0.098001 0.608448
Si Si3 0.706317 0.573022 0.791103
Si Si4 0.707032 0.651469 0.108966
Si Si5 0.388864 0.954160 0.891276
Si Si6 0.115527 0.812608 0.603415
Si Si7 0.384599 0.276444 0.794912
Si Si8 0.390028 0.197969 0.889809
O O1 0.147854 0.961254 0.159113
O O2 0.000000 0.000000 0.102590
O O3 0.159336 0.000000 0.000000
O O4 0.869453 0.083596 0.500000
O O5 0.818350 0.072023 0.678245
O O6 0.852494 0.142740 0.619605
O O7 0.000000 0.092937 0.636495
O O8 0.670483 0.615033 0.829037
O O9 0.820796 0.568209 0.815408
O O10 0.645135 0.689805 0.132114
O O11 0.821502 0.660610 0.128468
O O12 0.689223 0.640105 0.000000
O O13 0.500000 0.944590 0.864414
O O14 0.367877 0.000000 0.883061
O O15 0.367075 0.940196 0.000000
O O16 0.155160 0.797899 0.500000
O O17 0.157057 0.785769 0.688741
O O18 0.000000 0.811058 0.602583
O O19 0.500000 0.274697 0.794819
O O20 0.346162 0.234129 0.828621
O O21 0.500000 0.186791 0.859132
O O22 0.386758 0.210933 0.000000
#
# Coordination Sequence:
#
# PCOD8266344 Si02
#       8
#     8  16  16  16  16  16  16  16
#     4  11  24  38  52  78 120 155 172 204 270 341
#     4   9  18  34  55  79 109 145 185 227 269 319
#     4  12  21  35  57  80 107 145 183 225 273 326
#     4  11  22  32  48  75 104 137 179 218 256 317
#     4   9  18  34  56  79 104 137 179 225 269 318
#     4   8  14  27  48  73 100 132 174 221 264 306
#     4  10  18  30  49  73 102 137 175 211 258 316
#     4   9  19  35  51  69 100 140 177 220 269 308
#
# _framework density 18.216225999999999
#
# number of rings (size 3 to 8) (size 9 to 14) (size 15 to 20)
#    0.000    2.200    2.000    3.600    0.000    2.933 
#    0.000    1.667    0.000    4.000    0.000    0.933 
#    0.000    0.000    0.000    0.000    0.000    0.000 
#
# Total GULP energy -743826.682194 kJ/mol
# GULP energy per Si atom -12397.111370 kJ/mol
# Density = 1.817477 g / cm^3
# Si number density = 18.216226 Si / 1000 Ang^3
#
#
#
# Elastic Constant Matrix: (Units=GPa)
#
#
# Indices 1 2 3 4 5 6 
#
# 1 39.5775 17.6971 36.5818 0.0000 0.0000 0.0000
# 2 17.6971 71.8149 41.6465 0.0000 0.0000 0.0000
# 3 36.5818 41.6465 122.1257 0.0000 0.0000 0.0000
# 4 0.0000 0.0000 0.0000 23.2033 0.0000 0.0000
# 5 0.0000 0.0000 0.0000 0.0000 23.8952 0.0000
# 6 0.0000 0.0000 0.0000 0.0000 0.0000 15.5435
#
#
#
# Elastic Compliance Matrix: (Units=1/GPa)
#
#
# Indices 1 2 3 4 5 6 
#
# 1 0.035529 -0.003220 -0.009544 0.000000 0.000000 0.000000
# 2 -0.003220 0.017649 -0.005054 0.000000 0.000000 0.000000
# 3 -0.009544 -0.005054 0.012771 0.000000 0.000000 0.000000
# 4 0.000000 0.000000 0.000000 0.043097 0.000000 0.000000
# 5 0.000000 0.000000 0.000000 0.000000 0.041849 0.000000
# 6 0.000000 0.000000 0.000000 0.000000 0.000000 0.064336
#
#
# Mechanical properties :
#
#
# Convention : Reuss Voigt Hill
#
# Bulk Modulus (GPa) = 32.99093 47.26321 40.12707
# Shear Modulus (GPa) = 19.15921 21.70127 20.43024
#
# Velocity S-wave (km/s) = 3.24661 3.45529 3.35257
# Velocity P-wave (km/s) = 5.67486 6.47462 6.08789
#
# Compressibility (1/GPa) = 0.03031136
#
# Stress axis : x y z
#
# Youngs Moduli (GPa) = 28.14639 56.66004 78.30493
#
# Poissons Ratio (x) = 0.18247 0.74735
# Poissons Ratio (y) = 0.09064 0.39575
# Poissons Ratio (z) = 0.26863 0.28636
#
# Static dielectric constant tensor:
#      x y z
#    x 3.300220 0.000000 0.000000 
#    y 0.000000 3.242880 0.000000 
#    z 0.000000 0.000000 3.581820 
# 
# 
# High freq. dielectric constant tensor:
#      x y z
#    x 1.693730 0.000000 0.000000 
#    y 0.000000 1.695460 0.000000 
#    z 0.000000 0.000000 1.697160 
# 
# From -- ./inp_files/41443.got.cif
#   From: 2010.03.12/outbox.cif.g09.slc.cpg/sg65_21_cif.got.tgz:41443.got - 2010.04.10 20:52:16.
