data_PCOD8266183
_publ_section_title
;
Structure prediction by ZEFSAII (Michael W. Deem and Ramdas Pophale) SiO2 
 PCOD8266183
Probable space group: C M M M
;
_chemical_formula_sum "Si O2"
_cell_formula_units_Z 88
_cell_length_a 9.235083
_cell_length_b 28.446196
_cell_length_c 23.246651
_cell_angle_alpha 90.000000
_cell_angle_beta 90.000000
_cell_angle_gamma 90.000000
_cell_volume 6106.964518
_symmetry_space_group_name_H-M "C M M M"
_symmetry_group_IT_number 65
_symmetry_cell_setting 'orthorhombic'
loop_
_space_group_symop_operation_xyz
x,y,z
-x,-y,z
x,-y,-z
-x,y,-z
-x,-y,-z
x,y,-z
-x,y,z
x,-y,z
1/2+x,1/2+y,z
1/2-x,1/2-y,z
1/2+x,1/2-y,-z
1/2-x,1/2+y,-z
1/2-x,1/2-y,-z
1/2+x,1/2+y,-z
1/2-x,1/2+y,z
1/2+x,1/2-y,z
loop_
_atom_site_type_symbol
_atom_site_label
_atom_site_fract_x
_atom_site_fract_y
_atom_site_fract_z
Si Si1 0.167869 0.204562 0.565475
Si Si2 0.837376 0.444093 0.936437
Si Si3 0.329819 0.394935 0.386505
Si Si4 0.829585 0.554570 0.284304
Si Si5 0.662113 0.555819 0.829080
Si Si6 0.171966 0.947319 0.500000
O O1 0.216957 0.193258 0.500000
O O2 0.250000 0.250000 0.590202
O O3 0.202789 0.160236 0.605868
O O4 0.000000 0.216516 0.566848
O O5 0.838185 0.500000 0.932866
O O6 0.731782 0.423156 0.887582
O O7 0.000000 0.425397 0.925425
O O8 0.783613 0.428122 0.000000
O O9 0.500000 0.404603 0.376341
O O10 0.238696 0.413628 0.333480
O O11 0.271844 0.421296 0.443226
O O12 0.793688 0.500000 0.296762
O O13 0.759393 0.571540 0.224631
O O14 0.000000 0.563322 0.280766
O O15 0.500000 0.576207 0.822233
O O16 0.657512 0.500000 0.832861
O O17 0.000000 0.946494 0.500000
O O18 0.234065 0.000000 0.500000
#
# Coordination Sequence:
#
# PCOD8266183 Si02
#       6
#    16  16  16  16  16   8
#     4   9  17  30  47  66  85 102 124 157 198 245
#     4   8  13  21  33  49  70  96 125 160 203 243
#     4  10  18  30  46  63  80 101 133 167 199 240
#     4  10  20  31  41  55  78 107 137 169 205 245
#     4   9  16  25  37  52  70  96 132 170 203 235
#     4   9  16  26  42  61  79 101 129 163 200 235
#
# _framework density 14.409777
#
# number of rings (size 3 to 8) (size 9 to 14) (size 15 to 20)
#    0.000    2.818    0.909    2.182    0.000    5.091 
#    0.000    2.273    0.000    1.636    0.000    0.000 
#    0.000    0.000    0.000    0.000    0.000    0.909 
#
# Total GULP energy -545456.003611 kJ/mol
# GULP energy per Si atom -12396.727355 kJ/mol
# Density = 1.437698 g / cm^3
# Si number density = 14.409777 Si / 1000 Ang^3
#
#
#
# Elastic Constant Matrix: (Units=GPa)
#
#
# Indices 1 2 3 4 5 6 
#
# 1 82.3998 36.3097 62.9569 0.0000 0.0000 0.0000
# 2 36.3097 58.7314 39.6727 0.0000 0.0000 0.0000
# 3 62.9569 39.6727 125.9841 0.0000 0.0000 0.0000
# 4 0.0000 0.0000 0.0000 1.9421 0.0000 0.0000
# 5 0.0000 0.0000 0.0000 0.0000 28.9015 0.0000
# 6 0.0000 0.0000 0.0000 0.0000 0.0000 17.0441
#
#
#
# Elastic Compliance Matrix: (Units=1/GPa)
#
#
# Indices 1 2 3 4 5 6 
#
# 1 0.022192 -0.007912 -0.008598 0.000000 0.000000 0.000000
# 2 -0.007912 0.024448 -0.003745 0.000000 0.000000 0.000000
# 3 -0.008598 -0.003745 0.013414 0.000000 0.000000 0.000000
# 4 0.000000 0.000000 0.000000 0.514898 0.000000 0.000000
# 5 0.000000 0.000000 0.000000 0.000000 0.034600 0.000000
# 6 0.000000 0.000000 0.000000 0.000000 0.000000 0.058671
#
#
# Mechanical properties :
#
#
# Convention : Reuss Voigt Hill
#
# Bulk Modulus (GPa) = 51.16892 60.55487 55.86189
# Shear Modulus (GPa) = 6.99060 18.12262 12.55661
#
# Velocity S-wave (km/s) = 2.20495 3.55020 2.95514
# Velocity P-wave (km/s) = 6.48609 7.67593 7.10596
#
# Compressibility (1/GPa) = 0.01954311
#
# Stress axis : x y z
#
# Youngs Moduli (GPa) = 45.06205 40.90386 74.55131
#
# Poissons Ratio (x) = 0.32361 0.64101
# Poissons Ratio (y) = 0.35651 0.27920
# Poissons Ratio (z) = 0.38746 0.15319
#
# Static dielectric constant tensor:
#      x y z
#    x 2.856880 0.000000 0.000000 
#    y 0.000000 2.469620 0.000000 
#    z 0.000000 0.000000 2.933380 
# 
# 
# High freq. dielectric constant tensor:
#      x y z
#    x 1.551260 0.000000 0.000000 
#    y 0.000000 1.494230 0.000000 
#    z 0.000000 0.000000 1.551050 
# 
# From -- ./inp_files/66184.got.cif
#   From: 2010.03.12/outbox.cif.g09.slc.cpg/sg65_34_cif.got.tgz:66184.got - 2010.04.10 20:52:16.
