data_PCOD8266327
_publ_section_title
;
Structure prediction by ZEFSAII (Michael W. Deem and Ramdas Pophale) SiO2 
 PCOD8266327
Probable space group: C M M M
;
_chemical_formula_sum "Si O2"
_cell_formula_units_Z 104
_cell_length_a 29.459704
_cell_length_b 22.536033
_cell_length_c 9.251615
_cell_angle_alpha 90.000000
_cell_angle_beta 90.000000
_cell_angle_gamma 90.000000
_cell_volume 6142.192175
_symmetry_space_group_name_H-M "C M M M"
_symmetry_group_IT_number 65
_symmetry_cell_setting 'orthorhombic'
loop_
_space_group_symop_operation_xyz
x,y,z
-x,-y,z
x,-y,-z
-x,y,-z
-x,-y,-z
x,y,-z
-x,y,z
x,-y,z
1/2+x,1/2+y,z
1/2-x,1/2-y,z
1/2+x,1/2-y,-z
1/2-x,1/2+y,-z
1/2-x,1/2-y,-z
1/2+x,1/2+y,-z
1/2-x,1/2+y,z
1/2+x,1/2-y,z
loop_
_atom_site_type_symbol
_atom_site_label
_atom_site_fract_x
_atom_site_fract_y
_atom_site_fract_z
Si Si1 0.285622 0.429418 0.663100
Si Si2 0.448270 0.338767 0.166389
Si Si3 0.198891 0.431828 0.166040
Si Si4 0.948897 0.500000 0.828187
Si Si5 0.552256 0.780002 0.330212
Si Si6 0.101702 0.383519 0.831088
Si Si7 0.373082 0.567809 0.168141
O O1 0.286723 0.405453 0.500000
O O2 0.285177 0.500000 0.670313
O O3 0.239976 0.405631 0.739040
O O4 0.330113 0.405877 0.745475
O O5 0.500000 0.358497 0.194454
O O6 0.434646 0.283687 0.265994
O O7 0.417198 0.394346 0.209755
O O8 0.440879 0.320098 0.000000
O O9 0.187222 0.500000 0.206008
O O10 0.155125 0.391541 0.196432
O O11 0.213931 0.427792 0.000000
O O12 0.924022 0.558571 0.770166
O O13 0.000000 0.500000 0.768722
O O14 0.946922 0.500000 0.000000
O O15 0.561101 0.778684 0.500000
O O16 0.500000 0.795645 0.293522
O O17 0.585058 0.827591 0.258361
O O18 0.091004 0.373705 0.000000
O O19 0.383447 0.500000 0.212576
O O20 0.361140 0.572625 0.000000
#
# Coordination Sequence:
#
# PCOD8266327 Si02
#       7
#    16  16  16   8  16  16  16
#     4   9  17  28  44  68  98 132 165 193 229 283
#     4   9  18  33  53  75  98 127 163 198 233 281
#     4   9  16  28  46  69  97 125 159 202 247 291
#     4   9  16  26  43  69  97 123 155 199 248 293
#     4  10  21  35  49  67  94 130 169 204 240 284
#     4  10  18  30  49  72  95 124 163 206 249 292
#     4   9  17  30  50  77 105 129 154 190 239 286
#
# _framework density 16.932065000000001
#
# number of rings (size 3 to 8) (size 9 to 14) (size 15 to 20)
#    0.000    2.692    0.769    1.385    0.000    4.923 
#    0.000    1.923    0.000    2.308    0.000   10.769 
#    0.000    0.000    0.000    0.000    0.000    0.000 
#
# Total GULP energy -644841.730998 kJ/mol
# GULP energy per Si atom -12400.802519 kJ/mol
# Density = 1.689353 g / cm^3
# Si number density = 16.932065 Si / 1000 Ang^3
#
#
#
# Elastic Constant Matrix: (Units=GPa)
#
#
# Indices 1 2 3 4 5 6 
#
# 1 126.9541 65.8163 64.6052 0.0000 0.0000 0.0000
# 2 65.8163 84.2200 49.4389 0.0000 0.0000 0.0000
# 3 64.6052 49.4389 82.7879 0.0000 0.0000 0.0000
# 4 0.0000 0.0000 0.0000 15.1132 0.0000 0.0000
# 5 0.0000 0.0000 0.0000 0.0000 22.0659 0.0000
# 6 0.0000 0.0000 0.0000 0.0000 0.0000 16.3011
#
#
#
# Elastic Compliance Matrix: (Units=1/GPa)
#
#
# Indices 1 2 3 4 5 6 
#
# 1 0.015879 -0.007907 -0.007670 0.000000 0.000000 0.000000
# 2 -0.007907 0.022220 -0.007099 0.000000 0.000000 0.000000
# 3 -0.007670 -0.007099 0.022304 0.000000 0.000000 0.000000
# 4 0.000000 0.000000 0.000000 0.066167 0.000000 0.000000
# 5 0.000000 0.000000 0.000000 0.000000 0.045319 0.000000
# 6 0.000000 0.000000 0.000000 0.000000 0.000000 0.061346
#
#
# Mechanical properties :
#
#
# Convention : Reuss Voigt Hill
#
# Bulk Modulus (GPa) = 66.43847 72.63143 69.53495
# Shear Modulus (GPa) = 17.63034 18.30283 17.96658
#
# Velocity S-wave (km/s) = 3.23033 3.29136 3.26098
# Velocity P-wave (km/s) = 7.29635 7.57845 7.43874
#
# Compressibility (1/GPa) = 0.01505152
#
# Stress axis : x y z
#
# Youngs Moduli (GPa) = 62.97627 45.00473 44.83586
#
# Poissons Ratio (x) = 0.35584 0.34388
# Poissons Ratio (y) = 0.49794 0.31829
# Poissons Ratio (z) = 0.48301 0.31948
#
# Static dielectric constant tensor:
#      x y z
#    x 3.254620 0.000000 0.000000 
#    y 0.000000 2.929910 0.000000 
#    z 0.000000 0.000000 3.114520 
# 
# 
# High freq. dielectric constant tensor:
#      x y z
#    x 1.659300 0.000000 0.000000 
#    y 0.000000 1.622510 0.000000 
#    z 0.000000 0.000000 1.645050 
# 
# From -- ./inp_files/18856.got.cif
#   From: 2010.03.12/outbox.cif.g09.slc.cpg/sg65_10_cif.got.tgz:18856.got - 2010.04.10 20:52:16.
