data_PCOD8266613
_publ_section_title
;
Structure prediction by ZEFSAII (Michael W. Deem and Ramdas Pophale) SiO2 
 PCOD8266613
Probable space group: C M M M
;
_chemical_formula_sum "Si O2"
_cell_formula_units_Z 72
_cell_length_a 20.160700
_cell_length_b 19.093679
_cell_length_c 10.676551
_cell_angle_alpha 90.000000
_cell_angle_beta 90.000000
_cell_angle_gamma 90.000000
_cell_volume 4109.852193
_symmetry_space_group_name_H-M "C M M M"
_symmetry_group_IT_number 65
_symmetry_cell_setting 'orthorhombic'
loop_
_space_group_symop_operation_xyz
x,y,z
-x,-y,z
x,-y,-z
-x,y,-z
-x,-y,-z
x,y,-z
-x,y,z
x,-y,z
1/2+x,1/2+y,z
1/2-x,1/2-y,z
1/2+x,1/2-y,-z
1/2-x,1/2+y,-z
1/2-x,1/2-y,-z
1/2+x,1/2+y,-z
1/2-x,1/2+y,z
1/2+x,1/2-y,z
loop_
_atom_site_type_symbol
_atom_site_label
_atom_site_fract_x
_atom_site_fract_y
_atom_site_fract_z
Si Si1 0.320759 0.779400 0.142639
Si Si2 0.577289 0.675273 0.230427
Si Si3 0.838906 0.078570 0.638234
Si Si4 0.077994 0.921612 0.000000
Si Si5 0.736522 0.078605 0.141543
O O1 0.250000 0.750000 0.191332
O O2 0.381755 0.747674 0.221362
O O3 0.322059 0.864129 0.155539
O O4 0.331456 0.755856 0.000000
O O5 0.500000 0.694212 0.231612
O O6 0.599520 0.632976 0.354407
O O7 0.599362 0.622119 0.120836
O O8 0.805985 0.086912 0.500000
O O9 0.787828 0.096377 0.748782
O O10 0.866466 0.000000 0.655381
O O11 0.000000 0.931493 0.000000
O O12 0.111207 0.000000 0.000000
O O13 0.707606 0.000000 0.158445
O O14 0.768285 0.086484 0.000000
#
# Coordination Sequence:
#
# PCOD8266613 Si02
#       5
#    16  16  16   8  16
#     4  10  18  31  51  77 105 132 167 217 266 302
#     4  11  21  33  49  73 104 139 174 208 252 307
#     4  10  21  35  51  75 108 142 173 209 258 310
#     4   9  18  30  45  70 101 131 167 206 239 287
#     4   9  18  33  55  78 101 134 177 219 258 306
#
# _framework density 17.518878000000001
#
# number of rings (size 3 to 8) (size 9 to 14) (size 15 to 20)
#    0.000    2.111    3.333    0.667    1.556    1.778 
#    0.000    3.333    0.000    0.667    0.000    3.111 
#    0.000    0.000    0.000    7.556    0.000    5.556 
#
# Total GULP energy -446085.157330 kJ/mol
# GULP energy per Si atom -12391.254370 kJ/mol
# Density = 1.747900 g / cm^3
# Si number density = 17.518878 Si / 1000 Ang^3
#
#
#
# Elastic Constant Matrix: (Units=GPa)
#
#
# Indices 1 2 3 4 5 6 
#
# 1 85.4546 58.3833 38.4283 0.0000 0.0000 0.0000
# 2 58.3833 119.6991 38.3900 0.0000 0.0000 0.0000
# 3 38.4283 38.3900 85.4670 0.0000 0.0000 0.0000
# 4 0.0000 0.0000 0.0000 0.6376 0.0000 0.0000
# 5 0.0000 0.0000 0.0000 0.0000 11.5304 0.0000
# 6 0.0000 0.0000 0.0000 0.0000 0.0000 27.2647
#
#
#
# Elastic Compliance Matrix: (Units=1/GPa)
#
#
# Indices 1 2 3 4 5 6 
#
# 1 0.019353 -0.007768 -0.005213 0.000000 0.000000 0.000000
# 2 -0.007768 0.012878 -0.002292 0.000000 0.000000 0.000000
# 3 -0.005213 -0.002292 0.015074 0.000000 0.000000 0.000000
# 4 0.000000 0.000000 0.000000 1.568298 0.000000 0.000000
# 5 0.000000 0.000000 0.000000 0.000000 0.086727 0.000000
# 6 0.000000 0.000000 0.000000 0.000000 0.000000 0.036677
#
#
# Mechanical properties :
#
#
# Convention : Reuss Voigt Hill
#
# Bulk Modulus (GPa) = 59.66492 62.33601 61.00046
# Shear Modulus (GPa) = 2.81668 18.24781 10.53225
#
# Velocity S-wave (km/s) = 1.26937 3.23090 2.45459
# Velocity P-wave (km/s) = 6.02327 7.04114 6.55200
#
# Compressibility (1/GPa) = 0.01676027
#
# Stress axis : x y z
#
# Youngs Moduli (GPa) = 51.67112 77.65134 66.34082
#
# Poissons Ratio (x) = 0.60317 0.34581
# Poissons Ratio (y) = 0.40137 0.15205
# Poissons Ratio (z) = 0.26934 0.17798
#
# Static dielectric constant tensor:
#      x y z
#    x 2.847840 0.000000 0.000000 
#    y 0.000000 3.442470 0.000000 
#    z 0.000000 0.000000 3.304630 
# 
# 
# High freq. dielectric constant tensor:
#      x y z
#    x 1.630500 0.000000 0.000000 
#    y 0.000000 1.684880 0.000000 
#    z 0.000000 0.000000 1.664180 
# 
# From -- ./inp_files/13761.got.cif
#   From: 2010.03.12/outbox.cif.g09.slc.cpg/sg65_7_cif.got.tgz:13761.got - 2010.04.10 20:52:16.
