data_PCOD8266259
_publ_section_title
;
Structure prediction by ZEFSAII (Michael W. Deem and Ramdas Pophale) SiO2 
 PCOD8266259
Probable space group: C M M M
;
_chemical_formula_sum "Si O2"
_cell_formula_units_Z 104
_cell_length_a 8.803023
_cell_length_b 28.772637
_cell_length_c 24.530040
_cell_angle_alpha 90.000000
_cell_angle_beta 90.000000
_cell_angle_gamma 90.000000
_cell_volume 6213.120256
_symmetry_space_group_name_H-M "C M M M"
_symmetry_group_IT_number 65
_symmetry_cell_setting 'orthorhombic'
loop_
_space_group_symop_operation_xyz
x,y,z
-x,-y,z
x,-y,-z
-x,y,-z
-x,-y,-z
x,y,-z
-x,y,z
x,-y,z
1/2+x,1/2+y,z
1/2-x,1/2-y,z
1/2+x,1/2-y,-z
1/2-x,1/2+y,-z
1/2-x,1/2-y,-z
1/2+x,1/2+y,-z
1/2-x,1/2+y,z
1/2+x,1/2-y,z
loop_
_atom_site_type_symbol
_atom_site_label
_atom_site_fract_x
_atom_site_fract_y
_atom_site_fract_z
Si Si1 0.178709 0.889716 0.845618
Si Si2 0.175798 0.702815 0.320594
Si Si3 0.321390 0.201634 0.806189
Si Si4 0.000000 0.445086 0.436538
Si Si5 0.675152 0.053158 0.063388
Si Si6 0.331188 0.106158 0.351489
Si Si7 0.818744 0.448232 0.749500
O O1 0.241758 0.837583 0.842523
O O2 0.217183 0.911629 0.904158
O O3 0.262235 0.919938 0.800580
O O4 0.000000 0.889832 0.835747
O O5 0.250000 0.750000 0.342697
O O6 0.215562 0.693226 0.257468
O O7 0.241547 0.658051 0.354977
O O8 0.000000 0.710936 0.330412
O O9 0.500000 0.201590 0.817441
O O10 0.250000 0.250000 0.825680
O O11 0.151076 0.421476 0.409308
O O12 0.000000 0.500000 0.424485
O O13 0.000000 0.433886 0.500000
O O14 0.500000 0.062843 0.078371
O O15 0.716275 0.000000 0.078590
O O16 0.704797 0.062167 0.000000
O O17 0.500000 0.116124 0.327516
O O18 0.250170 0.074031 0.306354
O O19 0.752498 0.500000 0.753204
O O20 0.000000 0.449364 0.748965
#
# Coordination Sequence:
#
# PCOD8266259 Si02
#       7
#    16  16  16   8  16  16  16
#     4  12  23  32  47  74 107 136 168 206 256 311
#     4   9  16  28  46  68  94 127 167 202 248 300
#     4  10  19  33  51  72 100 131 169 208 252 307
#     4   9  16  26  46  74 102 132 171 219 264 306
#     4   9  19  37  58  76  96 130 177 219 255 304
#     4   8  15  27  43  66  95 128 162 203 254 304
#     4  10  18  30  48  67  94 135 169 202 254 313
#
# _framework density 16.738771
#
# number of rings (size 3 to 8) (size 9 to 14) (size 15 to 20)
#    0.462    1.923    1.538    3.231    0.000    3.385 
#    0.000    0.769    0.000    0.923    0.000    0.000 
#    0.000    1.846    0.000    8.462    0.000    0.000 
#
# Total GULP energy -644414.497408 kJ/mol
# GULP energy per Si atom -12392.586489 kJ/mol
# Density = 1.670067 g / cm^3
# Si number density = 16.738771 Si / 1000 Ang^3
#
#
#
# Elastic Constant Matrix: (Units=GPa)
#
#
# Indices 1 2 3 4 5 6 
#
# 1 20.5282 22.7417 8.5156 0.0000 0.0000 0.0000
# 2 22.7417 152.3897 53.1802 0.0000 0.0000 0.0000
# 3 8.5156 53.1802 76.0901 0.0000 0.0000 0.0000
# 4 0.0000 0.0000 0.0000 29.2214 0.0000 0.0000
# 5 0.0000 0.0000 0.0000 0.0000 5.1742 0.0000
# 6 0.0000 0.0000 0.0000 0.0000 0.0000 26.5932
#
#
#
# Elastic Compliance Matrix: (Units=1/GPa)
#
#
# Indices 1 2 3 4 5 6 
#
# 1 0.058382 -0.008507 -0.000588 0.000000 0.000000 0.000000
# 2 -0.008507 0.009919 -0.005980 0.000000 0.000000 0.000000
# 3 -0.000588 -0.005980 0.017388 0.000000 0.000000 0.000000
# 4 0.000000 0.000000 0.000000 0.034221 0.000000 0.000000
# 5 0.000000 0.000000 0.000000 0.000000 0.193268 0.000000
# 6 0.000000 0.000000 0.000000 0.000000 0.000000 0.037604
#
#
# Mechanical properties :
#
#
# Convention : Reuss Voigt Hill
#
# Bulk Modulus (GPa) = 18.00587 46.43146 32.21866
# Shear Modulus (GPa) = 12.51738 23.16913 17.84326
#
# Velocity S-wave (km/s) = 2.73757 3.72447 3.26848
# Velocity P-wave (km/s) = 4.55771 6.80401 5.79083
#
# Compressibility (1/GPa) = 0.05553743
#
# Stress axis : x y z
#
# Youngs Moduli (GPa) = 17.12856 100.82047 57.51200
#
# Poissons Ratio (x) = 0.85772 0.03381
# Poissons Ratio (y) = 0.14572 0.34393
# Poissons Ratio (z) = 0.01007 0.60292
#
# Static dielectric constant tensor:
#      x y z
#    x 2.884240 0.000000 0.000000 
#    y 0.000000 3.461720 0.000000 
#    z 0.000000 0.000000 2.870690 
# 
# 
# High freq. dielectric constant tensor:
#      x y z
#    x 1.612600 0.000000 0.000000 
#    y 0.000000 1.665830 0.000000 
#    z 0.000000 0.000000 1.612090 
# 
# From -- ./inp_files/73730.got.cif
#   From: 2010.03.12/outbox.cif.g09.slc.cpg/sg65_37_cif.got.tgz:73730.got - 2010.04.10 20:52:16.
