data_PCOD8266970
_publ_section_title
;
Structure prediction by ZEFSAII (Michael W. Deem and Ramdas Pophale) SiO2 
 PCOD8266970
Probable space group: C M M M
;
_chemical_formula_sum "Si O2"
_cell_formula_units_Z 96
_cell_length_a 14.440230
_cell_length_b 20.784657
_cell_length_c 15.263516
_cell_angle_alpha 90.000000
_cell_angle_beta 90.000000
_cell_angle_gamma 90.000000
_cell_volume 4581.118848
_symmetry_space_group_name_H-M "C M M M"
_symmetry_group_IT_number 65
_symmetry_cell_setting 'orthorhombic'
loop_
_space_group_symop_operation_xyz
x,y,z
-x,-y,z
x,-y,-z
-x,y,-z
-x,-y,-z
x,y,-z
-x,y,z
x,-y,z
1/2+x,1/2+y,z
1/2-x,1/2-y,z
1/2+x,1/2-y,-z
1/2-x,1/2+y,-z
1/2-x,1/2-y,-z
1/2+x,1/2+y,-z
1/2-x,1/2+y,z
1/2+x,1/2-y,z
loop_
_atom_site_type_symbol
_atom_site_label
_atom_site_fract_x
_atom_site_fract_y
_atom_site_fract_z
Si Si1 0.500000 0.428867 0.099215
Si Si2 0.398691 0.143610 0.713510
Si Si3 0.851334 0.177011 0.138810
Si Si4 0.768050 0.886738 0.599050
Si Si5 0.897834 0.000000 0.603607
Si Si6 0.641356 0.181306 0.096323
Si Si7 0.893140 0.790780 0.671486
O O1 0.500000 0.500000 0.148236
O O2 0.590386 0.385938 0.116404
O O3 0.500000 0.447869 0.000000
O O4 0.500000 0.116565 0.687127
O O5 0.318945 0.104134 0.664670
O O6 0.395257 0.141187 0.820025
O O7 0.386754 0.214686 0.674440
O O8 0.751366 0.173324 0.095574
O O9 0.894647 0.244905 0.106102
O O10 0.845441 0.179043 0.242952
O O11 0.733691 0.900672 0.500000
O O12 0.842537 0.937572 0.634801
O O13 0.824324 0.818761 0.597446
O O14 0.907484 0.000000 0.500000
O O15 0.000000 0.000000 0.647039
O O16 0.606010 0.156519 0.000000
O O17 0.000000 0.813182 0.659547
#
# Coordination Sequence:
#
# PCOD8266970 Si02
#       7
#     8  16  16  16   8  16  16
#     4  11  22  34  50  80 125 165 196 236 292 371
#     4  10  22  37  55  85 120 149 194 246 294 355
#     4  10  18  34  51  79 114 153 201 243 293 358
#     4  11  22  39  61  84 117 155 190 238 293 347
#     4   9  20  40  65  93 118 145 191 241 285 348
#     4  10  19  33  58  81 107 154 201 255 304 339
#     4  10  19  34  55  82 118 155 189 239 293 349
#
# _framework density 20.955580000000001
#
# number of rings (size 3 to 8) (size 9 to 14) (size 15 to 20)
#    0.000    1.833    2.500    3.000    1.167    3.000 
#    1.500    2.083    0.000    1.500    0.000    0.000 
#    0.000    1.333    0.000    0.000    0.000    0.000 
#
# Total GULP energy -594659.890743 kJ/mol
# GULP energy per Si atom -12388.747724 kJ/mol
# Density = 2.090788 g / cm^3
# Si number density = 20.955580 Si / 1000 Ang^3
#
#
#
# Elastic Constant Matrix: (Units=GPa)
#
#
# Indices 1 2 3 4 5 6 
#
# 1 140.4933 48.4487 44.9186 0.0000 0.0000 0.0000
# 2 48.4487 73.3798 23.4313 0.0000 0.0000 0.0000
# 3 44.9186 23.4313 93.2959 0.0000 0.0000 0.0000
# 4 0.0000 0.0000 0.0000 13.1125 0.0000 0.0000
# 5 0.0000 0.0000 0.0000 0.0000 67.2671 0.0000
# 6 0.0000 0.0000 0.0000 0.0000 0.0000 30.4941
#
#
#
# Elastic Compliance Matrix: (Units=1/GPa)
#
#
# Indices 1 2 3 4 5 6 
#
# 1 0.010163 -0.005596 -0.003487 0.000000 0.000000 0.000000
# 2 -0.005596 0.017898 -0.001801 0.000000 0.000000 0.000000
# 3 -0.003487 -0.001801 0.012850 0.000000 0.000000 0.000000
# 4 0.000000 0.000000 0.000000 0.076263 0.000000 0.000000
# 5 0.000000 0.000000 0.000000 0.000000 0.014866 0.000000
# 6 0.000000 0.000000 0.000000 0.000000 0.000000 0.032793
#
#
# Mechanical properties :
#
#
# Convention : Reuss Voigt Hill
#
# Bulk Modulus (GPa) = 52.24242 60.08515 56.16379
# Shear Modulus (GPa) = 25.90921 34.86610 30.38765
#
# Velocity S-wave (km/s) = 3.52004 4.08341 3.81215
# Velocity P-wave (km/s) = 6.44245 7.13913 6.79972
#
# Compressibility (1/GPa) = 0.01914153
#
# Stress axis : x y z
#
# Youngs Moduli (GPa) = 98.39968 55.87346 77.82172
#
# Poissons Ratio (x) = 0.31268 0.27140
# Poissons Ratio (y) = 0.55067 0.14013
# Poissons Ratio (z) = 0.34316 0.10061
#
# Static dielectric constant tensor:
#      x y z
#    x 3.885690 0.000000 0.000000 
#    y 0.000000 3.508320 0.000000 
#    z 0.000000 0.000000 3.777740 
# 
# 
# High freq. dielectric constant tensor:
#      x y z
#    x 1.829680 0.000000 0.000000 
#    y 0.000000 1.773490 0.000000 
#    z 0.000000 0.000000 1.819060 
# 
# From -- ./inp_files/40685.got.cif
#   From: 2010.03.12/outbox.cif.g09.slc.cpg/sg65_21_cif.got.tgz:40685.got - 2010.04.10 20:52:16.
