data_PCOD8266771
_publ_section_title
;
Structure prediction by ZEFSAII (Michael W. Deem and Ramdas Pophale) SiO2 
 PCOD8266771
Probable space group: C M M M
;
_chemical_formula_sum "Si O2"
_cell_formula_units_Z 64
_cell_length_a 8.543989
_cell_length_b 28.232510
_cell_length_c 15.595181
_cell_angle_alpha 90.000000
_cell_angle_beta 90.000000
_cell_angle_gamma 90.000000
_cell_volume 3761.842345
_symmetry_space_group_name_H-M "C M M M"
_symmetry_group_IT_number 65
_symmetry_cell_setting 'orthorhombic'
loop_
_space_group_symop_operation_xyz
x,y,z
-x,-y,z
x,-y,-z
-x,y,-z
-x,-y,-z
x,y,-z
-x,y,z
x,-y,z
1/2+x,1/2+y,z
1/2-x,1/2-y,z
1/2+x,1/2-y,-z
1/2-x,1/2+y,-z
1/2-x,1/2-y,-z
1/2+x,1/2+y,-z
1/2-x,1/2+y,z
1/2+x,1/2-y,z
loop_
_atom_site_type_symbol
_atom_site_label
_atom_site_fract_x
_atom_site_fract_y
_atom_site_fract_z
Si Si1 0.315597 0.697559 0.324792
Si Si2 0.685510 0.302452 0.000000
Si Si3 0.181776 0.946497 0.900720
Si Si4 0.185218 0.697314 0.500000
Si Si5 0.182756 0.644878 0.164397
O O1 0.500000 0.701514 0.331211
O O2 0.250000 0.750000 0.307798
O O3 0.249370 0.673774 0.412572
O O4 0.267053 0.663022 0.249043
O O5 0.750000 0.250000 0.000000
O O6 0.745108 0.329000 0.083365
O O7 0.500000 0.301768 0.000000
O O8 0.286308 0.911261 0.843970
O O9 0.000000 0.934325 0.887306
O O10 0.217993 0.000000 0.870692
O O11 0.226960 0.940253 0.000000
O O12 0.250000 0.750000 0.500000
O O13 0.000000 0.696238 0.500000
O O14 0.000000 0.655663 0.170380
#
# Coordination Sequence:
#
# PCOD8266771 Si02
#       5
#    16   8  16   8  16
#     4  11  21  35  53  75 104 139 175 213 256 305
#     4  12  24  38  51  68  99 138 176 211 251 301
#     4   9  18  34  55  76 100 132 170 213 260 306
#     4  10  18  32  52  76 103 132 169 214 258 302
#     4  12  23  35  51  76 104 135 173 213 256 304
#
# _framework density 17.01294
#
# number of rings (size 3 to 8) (size 9 to 14) (size 15 to 20)
#    0.000    1.250    1.250    9.750    0.000    0.500 
#    0.000    1.250    0.000    0.000    0.000    0.875 
#    0.000    7.000    0.000    0.000    0.000    0.000 
#
# Total GULP energy -396845.732683 kJ/mol
# GULP energy per Si atom -12401.429146 kJ/mol
# Density = 1.697422 g / cm^3
# Si number density = 17.012940 Si / 1000 Ang^3
#
#
#
# Elastic Constant Matrix: (Units=GPa)
#
#
# Indices 1 2 3 4 5 6 
#
# 1 141.2423 30.5621 45.4268 0.0000 0.0000 0.0000
# 2 30.5621 87.9858 44.9626 0.0000 0.0000 0.0000
# 3 45.4268 44.9626 132.3249 0.0000 0.0000 0.0000
# 4 0.0000 0.0000 0.0000 -33.0637 0.0000 0.0000
# 5 0.0000 0.0000 0.0000 0.0000 33.8489 0.0000
# 6 0.0000 0.0000 0.0000 0.0000 0.0000 28.7010
#
#
#
# Elastic Compliance Matrix: (Units=1/GPa)
#
#
# Indices 1 2 3 4 5 6 
#
# 1 0.008163 -0.001698 -0.002225 0.000000 0.000000 0.000000
# 2 -0.001698 0.014107 -0.004210 0.000000 0.000000 0.000000
# 3 -0.002225 -0.004210 0.009752 0.000000 0.000000 0.000000
# 4 0.000000 0.000000 0.000000 -0.030245 0.000000 0.000000
# 5 0.000000 0.000000 0.000000 0.000000 0.029543 0.000000
# 6 0.000000 0.000000 0.000000 0.000000 0.000000 0.034842
#
#
# Mechanical properties :
#
#
# Convention : Reuss Voigt Hill
#
# Bulk Modulus (GPa) = 63.47643 67.05068 65.26355
# Shear Modulus (GPa) = 57.02438 21.93733 39.48085
#
# Velocity S-wave (km/s) = 5.79577 3.59479 4.82252
# Velocity P-wave (km/s) = 9.06530 7.53174 8.33387
#
# Compressibility (1/GPa) = 0.01575388
#
# Stress axis : x y z
#
# Youngs Moduli (GPa) = 122.50038 70.88695 102.54568
#
# Poissons Ratio (x) = 0.12039 0.22820
# Poissons Ratio (y) = 0.20805 0.43176
# Poissons Ratio (z) = 0.27261 0.29846
#
# Static dielectric constant tensor:
#      x y z
#    x 3.356490 0.000000 0.000000 
#    y 0.000000 3.144700 0.000000 
#    z 0.000000 0.000000 3.424580 
# 
# 
# High freq. dielectric constant tensor:
#      x y z
#    x 1.675550 0.000000 0.000000 
#    y 0.000000 1.635070 0.000000 
#    z 0.000000 0.000000 1.652300 
# 
# From -- ./inp_files/36364.got.cif
#   From: 2010.03.12/outbox.cif.g09.slc.cpg/sg65_19_cif.got.tgz:36364.got - 2010.04.10 20:52:16.
