data_PCOD8266578
_publ_section_title
;
Structure prediction by ZEFSAII (Michael W. Deem and Ramdas Pophale) SiO2 
 PCOD8266578
Probable space group: C M M M
;
_chemical_formula_sum "Si O2"
_cell_formula_units_Z 104
_cell_length_a 29.695081
_cell_length_b 22.749266
_cell_length_c 9.382204
_cell_angle_alpha 90.000000
_cell_angle_beta 90.000000
_cell_angle_gamma 90.000000
_cell_volume 6338.066255
_symmetry_space_group_name_H-M "C M M M"
_symmetry_group_IT_number 65
_symmetry_cell_setting 'orthorhombic'
loop_
_space_group_symop_operation_xyz
x,y,z
-x,-y,z
x,-y,-z
-x,y,-z
-x,-y,-z
x,y,-z
-x,y,z
x,-y,z
1/2+x,1/2+y,z
1/2-x,1/2-y,z
1/2+x,1/2-y,-z
1/2-x,1/2+y,-z
1/2-x,1/2-y,-z
1/2+x,1/2+y,-z
1/2-x,1/2+y,z
1/2+x,1/2-y,z
loop_
_atom_site_type_symbol
_atom_site_label
_atom_site_fract_x
_atom_site_fract_y
_atom_site_fract_z
Si Si1 0.551292 0.160367 0.166698
Si Si2 0.598369 0.394011 0.668109
Si Si3 0.446723 0.500000 0.834244
Si Si4 0.448078 0.274093 0.335356
Si Si5 0.306317 0.435003 0.331674
Si Si6 0.124391 0.567025 0.166818
Si Si7 0.709218 0.929896 0.340790
O O1 0.500000 0.145660 0.210704
O O2 0.568930 0.218354 0.246121
O O3 0.581427 0.105132 0.214156
O O4 0.555475 0.172701 0.000000
O O5 0.590902 0.406754 0.500000
O O6 0.572111 0.442393 0.757662
O O7 0.580433 0.330365 0.712650
O O8 0.651384 0.394280 0.709369
O O9 0.500000 0.500000 0.817261
O O10 0.432378 0.500000 0.000000
O O11 0.440306 0.259279 0.500000
O O12 0.500000 0.288096 0.302272
O O13 0.301843 0.441119 0.500000
O O14 0.315176 0.500000 0.266439
O O15 0.258097 0.408537 0.278873
O O16 0.114736 0.500000 0.214242
O O17 0.168955 0.593123 0.241558
O O18 0.133110 0.571234 0.000000
O O19 0.700717 0.905402 0.500000
O O20 0.710410 0.000000 0.342035
#
# Coordination Sequence:
#
# PCOD8266578 Si02
#       7
#    16  16   8  16  16  16  16
#     4   9  18  32  49  67  89 121 154 183 223 274
#     4  10  18  31  51  69  88 119 159 198 235 275
#     4  11  23  33  41  63  99 129 153 191 242 285
#     4   9  18  31  47  68  90 115 153 196 231 268
#     4   8  13  24  44  68  90 114 148 189 229 268
#     4   9  17  29  46  70  96 118 146 184 224 268
#     4   8  14  25  43  66  92 120 147 177 221 273
#
# _framework density 16.408791000000001
#
# number of rings (size 3 to 8) (size 9 to 14) (size 15 to 20)
#    0.000    3.000    0.769    1.615    0.000    2.769 
#    0.000    3.846    0.000    0.923    0.000   10.769 
#    0.000    0.000    0.000    0.000    0.000    0.000 
#
# Total GULP energy -644550.838931 kJ/mol
# GULP energy per Si atom -12395.208441 kJ/mol
# Density = 1.637144 g / cm^3
# Si number density = 16.408791 Si / 1000 Ang^3
#
#
#
# Elastic Constant Matrix: (Units=GPa)
#
#
# Indices 1 2 3 4 5 6 
#
# 1 132.1771 73.8466 45.6097 0.0000 0.0000 0.0000
# 2 73.8466 97.9744 41.3688 0.0000 0.0000 0.0000
# 3 45.6097 41.3688 45.2351 0.0000 0.0000 0.0000
# 4 0.0000 0.0000 0.0000 23.2365 0.0000 0.0000
# 5 0.0000 0.0000 0.0000 0.0000 22.3836 0.0000
# 6 0.0000 0.0000 0.0000 0.0000 0.0000 14.7417
#
#
#
# Elastic Compliance Matrix: (Units=1/GPa)
#
#
# Indices 1 2 3 4 5 6 
#
# 1 0.014489 -0.007742 -0.007529 0.000000 0.000000 0.000000
# 2 -0.007742 0.020764 -0.011183 0.000000 0.000000 0.000000
# 3 -0.007529 -0.011183 0.039925 0.000000 0.000000 0.000000
# 4 0.000000 0.000000 0.000000 0.043036 0.000000 0.000000
# 5 0.000000 0.000000 0.000000 0.000000 0.044676 0.000000
# 6 0.000000 0.000000 0.000000 0.000000 0.000000 0.067835
#
#
# Mechanical properties :
#
#
# Convention : Reuss Voigt Hill
#
# Bulk Modulus (GPa) = 44.90271 66.33742 55.62006
# Shear Modulus (GPa) = 17.17884 19.70979 18.44431
#
# Velocity S-wave (km/s) = 3.23914 3.46955 3.35632
# Velocity P-wave (km/s) = 6.43535 7.52105 6.99928
#
# Compressibility (1/GPa) = 0.02227037
#
# Stress axis : x y z
#
# Youngs Moduli (GPa) = 69.01890 48.16017 25.04671
#
# Poissons Ratio (x) = 0.37284 0.18857
# Poissons Ratio (y) = 0.53433 0.28011
# Poissons Ratio (z) = 0.51963 0.53860
#
# Static dielectric constant tensor:
#      x y z
#    x 3.444520 0.000000 0.000000 
#    y 0.000000 2.949930 0.000000 
#    z 0.000000 0.000000 2.988670 
# 
# 
# High freq. dielectric constant tensor:
#      x y z
#    x 1.642080 0.000000 0.000000 
#    y 0.000000 1.601830 0.000000 
#    z 0.000000 0.000000 1.613560 
# 
# From -- ./inp_files/15033.got.cif
#   From: 2010.03.12/outbox.cif.g09.slc.cpg/sg65_8_cif.got.tgz:15033.got - 2010.04.10 20:52:16.
