data_PCOD8266124
_publ_section_title
;
Structure prediction by ZEFSAII (Michael W. Deem and Ramdas Pophale) SiO2 
 PCOD8266124
Probable space group: C M M M
;
_chemical_formula_sum "Si O2"
_cell_formula_units_Z 96
_cell_length_a 23.599700
_cell_length_b 24.215499
_cell_length_c 9.432226
_cell_angle_alpha 90.000000
_cell_angle_beta 90.000000
_cell_angle_gamma 90.000000
_cell_volume 5390.314477
_symmetry_space_group_name_H-M "C M M M"
_symmetry_group_IT_number 65
_symmetry_cell_setting 'orthorhombic'
loop_
_space_group_symop_operation_xyz
x,y,z
-x,-y,z
x,-y,-z
-x,y,-z
-x,-y,-z
x,y,-z
-x,y,z
x,-y,z
1/2+x,1/2+y,z
1/2-x,1/2-y,z
1/2+x,1/2-y,-z
1/2-x,1/2+y,-z
1/2-x,1/2-y,-z
1/2+x,1/2+y,-z
1/2-x,1/2+y,z
1/2+x,1/2-y,z
loop_
_atom_site_type_symbol
_atom_site_label
_atom_site_fract_x
_atom_site_fract_y
_atom_site_fract_z
Si Si1 0.649156 0.064090 0.663814
Si Si2 0.433720 0.560410 0.346601
Si Si3 0.436650 0.262302 0.168146
Si Si4 0.238000 0.063746 0.166617
Si Si5 0.366364 0.363527 0.166523
Si Si6 0.933668 0.637811 0.838097
O O1 0.656545 0.080903 0.500000
O O2 0.706181 0.078991 0.746973
O O3 0.597600 0.097103 0.731932
O O4 0.634382 0.000000 0.679915
O O5 0.413651 0.584713 0.500000
O O6 0.500000 0.554833 0.345190
O O7 0.406295 0.500000 0.326670
O O8 0.416827 0.597469 0.215122
O O9 0.500000 0.277723 0.228204
O O10 0.385581 0.302646 0.223137
O O11 0.420399 0.200256 0.212709
O O12 0.440499 0.265999 0.000000
O O13 0.192075 0.109066 0.222992
O O14 0.219019 0.000000 0.196824
O O15 0.249898 0.071511 0.000000
O O16 0.363383 0.363359 0.000000
O O17 0.000000 0.625500 0.827109
O O18 0.912975 0.628586 0.000000
#
# Coordination Sequence:
#
# PCOD8266124 Si02
#       6
#    16  16  16  16  16  16
#     4  10  21  36  54  76 101 129 161 199 245 294
#     4   9  18  30  41  58  90 129 165 205 255 305
#     4   8  15  29  49  74 103 132 163 202 247 293
#     4   9  18  32  49  71 100 132 167 207 249 294
#     4  10  18  29  49  74  96 124 167 214 252 285
#     4   9  18  34  56  79 103 132 162 192 235 295
#
# _framework density 17.809722000000001
#
# number of rings (size 3 to 8) (size 9 to 14) (size 15 to 20)
#    0.000    2.833    0.000    3.000    0.000    4.333 
#    0.000    5.833    0.000    6.000    0.000    0.000 
#    0.000    0.000    0.000    0.000    0.000    0.000 
#
# Total GULP energy -594666.093696 kJ/mol
# GULP energy per Si atom -12388.876952 kJ/mol
# Density = 1.776919 g / cm^3
# Si number density = 17.809722 Si / 1000 Ang^3
#
#
#
# Elastic Constant Matrix: (Units=GPa)
#
#
# Indices 1 2 3 4 5 6 
#
# 1 83.8423 64.8813 43.2366 0.0000 0.0000 0.0000
# 2 64.8813 94.0883 35.8509 0.0000 0.0000 0.0000
# 3 43.2366 35.8509 34.7891 0.0000 0.0000 0.0000
# 4 0.0000 0.0000 0.0000 16.4381 0.0000 0.0000
# 5 0.0000 0.0000 0.0000 0.0000 17.8206 0.0000
# 6 0.0000 0.0000 0.0000 0.0000 0.0000 31.3236
#
#
#
# Elastic Compliance Matrix: (Units=1/GPa)
#
#
# Indices 1 2 3 4 5 6 
#
# 1 0.043711 -0.015547 -0.038303 0.000000 0.000000 0.000000
# 2 -0.015547 0.023030 -0.004410 0.000000 0.000000 0.000000
# 3 -0.038303 -0.004410 0.080893 0.000000 0.000000 0.000000
# 4 0.000000 0.000000 0.000000 0.060834 0.000000 0.000000
# 5 0.000000 0.000000 0.000000 0.000000 0.056115 0.000000
# 6 0.000000 0.000000 0.000000 0.000000 0.000000 0.031925
#
#
# Mechanical properties :
#
#
# Convention : Reuss Voigt Hill
#
# Bulk Modulus (GPa) = 32.14111 55.62860 43.88485
# Shear Modulus (GPa) = 11.80920 17.69985 14.75453
#
# Velocity S-wave (km/s) = 2.57782 3.15593 2.88141
# Velocity P-wave (km/s) = 5.19099 6.67702 5.98034
#
# Compressibility (1/GPa) = 0.03111281
#
# Stress axis : x y z
#
# Youngs Moduli (GPa) = 22.87770 43.42182 12.36207
#
# Poissons Ratio (x) = 0.67509 0.47350
# Poissons Ratio (y) = 0.35569 0.05452
# Poissons Ratio (z) = 0.87627 0.19150
#
# Static dielectric constant tensor:
#      x y z
#    x 3.268110 0.000000 0.000000 
#    y 0.000000 3.535230 0.000000 
#    z 0.000000 0.000000 3.215570 
# 
# 
# High freq. dielectric constant tensor:
#      x y z
#    x 1.679150 0.000000 0.000000 
#    y 0.000000 1.685350 0.000000 
#    z 0.000000 0.000000 1.670610 
# 
# From -- ./inp_files/12245.got.cif
#   From: 2010.03.12/outbox.cif.g09.slc.cpg/sg65_7_cif.got.tgz:12245.got - 2010.04.10 20:52:16.
