data_PCOD8266989
_publ_section_title
;
Structure prediction by ZEFSAII (Michael W. Deem and Ramdas Pophale) SiO2 
 PCOD8266989
Probable space group: C M M M
;
_chemical_formula_sum "Si O2"
_cell_formula_units_Z 88
_cell_length_a 18.208840
_cell_length_b 28.300724
_cell_length_c 8.918666
_cell_angle_alpha 90.000000
_cell_angle_beta 90.000000
_cell_angle_gamma 90.000000
_cell_volume 4595.996887
_symmetry_space_group_name_H-M "C M M M"
_symmetry_group_IT_number 65
_symmetry_cell_setting 'orthorhombic'
loop_
_space_group_symop_operation_xyz
x,y,z
-x,-y,z
x,-y,-z
-x,y,-z
-x,-y,-z
x,y,-z
-x,y,z
x,-y,z
1/2+x,1/2+y,z
1/2-x,1/2-y,z
1/2+x,1/2-y,-z
1/2-x,1/2+y,-z
1/2-x,1/2-y,-z
1/2+x,1/2+y,-z
1/2-x,1/2+y,z
1/2+x,1/2-y,z
loop_
_atom_site_type_symbol
_atom_site_label
_atom_site_fract_x
_atom_site_fract_y
_atom_site_fract_z
Si Si1 0.142055 0.389788 0.177826
Si Si2 0.915948 0.054770 0.826758
Si Si3 0.314368 0.287636 0.829699
Si Si4 0.000000 0.446661 0.821693
Si Si5 0.208416 0.114574 0.675923
Si Si6 0.080778 0.708534 0.822031
O O1 0.218141 0.407509 0.250024
O O2 0.129743 0.335738 0.231752
O O3 0.073564 0.420868 0.237181
O O4 0.149787 0.394042 0.000000
O O5 0.862661 0.085478 0.724877
O O6 0.000000 0.067908 0.787156
O O7 0.901395 0.000000 0.792676
O O8 0.900045 0.066141 0.000000
O O9 0.250000 0.250000 0.822093
O O10 0.301448 0.331020 0.720677
O O11 0.386087 0.259002 0.774101
O O12 0.322851 0.306757 0.000000
O O13 0.000000 0.500000 0.760296
O O14 0.000000 0.445116 0.000000
O O15 0.217215 0.110819 0.500000
O O16 0.000000 0.704427 0.750519
O O17 0.076245 0.705455 0.000000
#
# Coordination Sequence:
#
# PCOD8266989 Si02
#       6
#    16  16  16   8  16  16
#     4  10  18  34  58  81 111 151 199 246 290 341
#     4   9  20  42  70  93 112 142 191 247 296 345
#     4  10  19  34  56  80 108 147 198 246 288 330
#     4   9  18  32  57  91 117 141 187 255 308 339
#     4  12  25  37  55  87 127 161 192 231 289 360
#     4   9  16  29  53  81 103 138 192 247 293 332
#
# _framework density 19.147096999999999
#
# number of rings (size 3 to 8) (size 9 to 14) (size 15 to 20)
#    0.000    2.091    2.727    2.182    0.000    2.545 
#    0.000    5.000    0.000    1.636    0.000    0.000 
#    0.000    0.000    0.000    0.000    0.000    0.000 
#
# Total GULP energy -545525.714248 kJ/mol
# GULP energy per Si atom -12398.311687 kJ/mol
# Density = 1.910352 g / cm^3
# Si number density = 19.147097 Si / 1000 Ang^3
#
#
#
# Elastic Constant Matrix: (Units=GPa)
#
#
# Indices 1 2 3 4 5 6 
#
# 1 138.2482 57.6859 46.9141 0.0000 0.0000 0.0000
# 2 57.6859 97.0561 37.6625 0.0000 0.0000 0.0000
# 3 46.9141 37.6625 67.0558 0.0000 0.0000 0.0000
# 4 0.0000 0.0000 0.0000 -11.0272 0.0000 0.0000
# 5 0.0000 0.0000 0.0000 0.0000 9.1291 0.0000
# 6 0.0000 0.0000 0.0000 0.0000 0.0000 25.2927
#
#
#
# Elastic Compliance Matrix: (Units=1/GPa)
#
#
# Indices 1 2 3 4 5 6 
#
# 1 0.010812 -0.004464 -0.005057 0.000000 0.000000 0.000000
# 2 -0.004464 0.015018 -0.005312 0.000000 0.000000 0.000000
# 3 -0.005057 -0.005312 0.021435 0.000000 0.000000 0.000000
# 4 0.000000 0.000000 0.000000 -0.090685 0.000000 0.000000
# 5 0.000000 0.000000 0.000000 0.000000 0.109540 0.000000
# 6 0.000000 0.000000 0.000000 0.000000 0.000000 0.039537
#
#
# Mechanical properties :
#
#
# Convention : Reuss Voigt Hill
#
# Bulk Modulus (GPa) = 56.82290 65.20945 61.01617
# Shear Modulus (GPa) = 35.41372 15.35210 25.38291
#
# Velocity S-wave (km/s) = 4.30532 2.83468 3.64494
# Velocity P-wave (km/s) = 7.37942 6.69663 7.04630
#
# Compressibility (1/GPa) = 0.01759854
#
# Stress axis : x y z
#
# Youngs Moduli (GPa) = 92.48884 66.58846 46.65347
#
# Poissons Ratio (x) = 0.29723 0.23594
# Poissons Ratio (y) = 0.41285 0.24782
# Poissons Ratio (z) = 0.46775 0.35371
#
# Static dielectric constant tensor:
#      x y z
#    x 3.947440 0.000000 0.000000 
#    y 0.000000 3.766530 0.000000 
#    z 0.000000 0.000000 3.046760 
# 
# 
# High freq. dielectric constant tensor:
#      x y z
#    x 1.763100 0.000000 0.000000 
#    y 0.000000 1.743290 0.000000 
#    z 0.000000 0.000000 1.696040 
# 
# From -- ./inp_files/10086.got.cif
#   From: 2010.03.12/outbox.cif.g09.slc.cpg/sg65_6_cif.got.tgz:10086.got - 2010.04.10 20:52:16.
