data_PCOD8266891
_publ_section_title
;
Structure prediction by ZEFSAII (Michael W. Deem and Ramdas Pophale) SiO2 
 PCOD8266891
Probable space group: C M M M
;
_chemical_formula_sum "Si O2"
_cell_formula_units_Z 104
_cell_length_a 25.682863
_cell_length_b 8.175385
_cell_length_c 24.474905
_cell_angle_alpha 90.000000
_cell_angle_beta 90.000000
_cell_angle_gamma 90.000000
_cell_volume 5138.929548
_symmetry_space_group_name_H-M "C M M M"
_symmetry_group_IT_number 65
_symmetry_cell_setting 'orthorhombic'
loop_
_space_group_symop_operation_xyz
x,y,z
-x,-y,z
x,-y,-z
-x,y,-z
-x,-y,-z
x,y,-z
-x,y,z
x,-y,z
1/2+x,1/2+y,z
1/2-x,1/2-y,z
1/2+x,1/2-y,-z
1/2-x,1/2+y,-z
1/2-x,1/2-y,-z
1/2+x,1/2+y,-z
1/2-x,1/2+y,z
1/2+x,1/2-y,z
loop_
_atom_site_type_symbol
_atom_site_label
_atom_site_fract_x
_atom_site_fract_y
_atom_site_fract_z
Si Si1 0.110739 0.689686 0.766056
Si Si2 0.804025 0.812688 0.440173
Si Si3 0.612336 0.814057 0.639483
Si Si4 0.806263 0.188205 0.848017
Si Si5 0.557792 0.500000 0.064594
Si Si6 0.500000 0.813692 0.653644
Si Si7 0.500000 0.685319 0.230997
Si Si8 0.375620 0.814259 0.063175
O O1 0.122562 0.500000 0.774996
O O2 0.115313 0.740815 0.702600
O O3 0.153591 0.792556 0.798221
O O4 0.052965 0.727572 0.789738
O O5 0.814565 0.728793 0.500000
O O6 0.750000 0.750000 0.414079
O O7 0.850937 0.791763 0.398298
O O8 0.796794 0.000000 0.450786
O O9 0.552586 0.789262 0.618362
O O10 0.630484 0.000000 0.633237
O O11 0.750000 0.250000 0.828513
O O12 0.823842 0.294490 0.900592
O O13 0.803705 0.000000 0.865317
O O14 0.500000 0.500000 0.090507
O O15 0.585344 0.330299 0.083421
O O16 0.554169 0.500000 0.000000
O O17 0.500000 0.687630 0.703324
O O18 0.500000 0.000000 0.678491
O O19 0.500000 0.500000 0.209919
O O20 0.398382 0.000000 0.071834
O O21 0.360762 0.788508 0.000000
#
# Coordination Sequence:
#
# PCOD8266891 Si02
#       8
#    16  16  16  16   8   8   8  16
#     4  10  21  39  59  84 116 151 191 233 284 342
#     4  10  21  36  54  77 106 141 183 231 280 331
#     4   9  18  34  58  82 109 145 184 227 274 331
#     4  12  25  42  62  86 118 153 194 245 297 348
#     4   9  18  36  62  92 126 160 196 243 292 350
#     4   8  16  32  53  79 110 146 183 222 271 328
#     4  10  18  32  56  85 114 147 188 233 281 336
#     4  10  21  40  64  90 122 159 201 245 295 352
#
# _framework density 20.237677999999999
#
# number of rings (size 3 to 8) (size 9 to 14) (size 15 to 20)
#    0.000    2.077    0.769    3.923    0.000    5.231 
#    1.385    1.923    0.000    2.308    0.000    0.000 
#    0.000    0.000    0.000    0.000    0.000    0.000 
#
# Total GULP energy -644541.870471 kJ/mol
# GULP energy per Si atom -12395.035971 kJ/mol
# Density = 2.019162 g / cm^3
# Si number density = 20.237678 Si / 1000 Ang^3
#
#
#
# Elastic Constant Matrix: (Units=GPa)
#
#
# Indices 1 2 3 4 5 6 
#
# 1 156.4415 41.0598 53.6214 0.0000 0.0000 0.0000
# 2 41.0598 107.6001 25.1789 0.0000 0.0000 0.0000
# 3 53.6214 25.1789 72.6954 0.0000 0.0000 0.0000
# 4 0.0000 0.0000 0.0000 24.7350 0.0000 0.0000
# 5 0.0000 0.0000 0.0000 0.0000 45.4963 0.0000
# 6 0.0000 0.0000 0.0000 0.0000 0.0000 31.7155
#
#
#
# Elastic Compliance Matrix: (Units=1/GPa)
#
#
# Indices 1 2 3 4 5 6 
#
# 1 0.008947 -0.002035 -0.005894 0.000000 0.000000 0.000000
# 2 -0.002035 0.010576 -0.002162 0.000000 0.000000 0.000000
# 3 -0.005894 -0.002162 0.018853 0.000000 0.000000 0.000000
# 4 0.000000 0.000000 0.000000 0.040429 0.000000 0.000000
# 5 0.000000 0.000000 0.000000 0.000000 0.021980 0.000000
# 6 0.000000 0.000000 0.000000 0.000000 0.000000 0.031530
#
#
# Mechanical properties :
#
#
# Convention : Reuss Voigt Hill
#
# Bulk Modulus (GPa) = 54.96740 64.05081 59.50910
# Shear Modulus (GPa) = 31.53358 34.84781 33.19069
#
# Velocity S-wave (km/s) = 3.95164 4.15411 4.05414
# Velocity P-wave (km/s) = 6.93112 7.39776 7.16824
#
# Compressibility (1/GPa) = 0.01819260
#
# Stress axis : x y z
#
# Youngs Moduli (GPa) = 111.77532 94.55293 53.04256
#
# Poissons Ratio (x) = 0.19238 0.31265
# Poissons Ratio (y) = 0.22742 0.11470
# Poissons Ratio (z) = 0.65885 0.20446
#
# Static dielectric constant tensor:
#      x y z
#    x 3.779900 0.000000 0.000000 
#    y 0.000000 3.705020 0.000000 
#    z 0.000000 0.000000 3.402310 
# 
# 
# High freq. dielectric constant tensor:
#      x y z
#    x 1.790380 0.000000 0.000000 
#    y 0.000000 1.797140 0.000000 
#    z 0.000000 0.000000 1.768210 
# 
# From -- ./inp_files/65956.got.cif
#   From: 2010.03.12/outbox.cif.g09.slc.cpg/sg65_33_cif.got.tgz:65956.got - 2010.04.10 20:52:16.
