data_PCOD8266278
_publ_section_title
;
Structure prediction by ZEFSAII (Michael W. Deem and Ramdas Pophale) SiO2 
 PCOD8266278
Probable space group: C M M M
;
_chemical_formula_sum "Si O2"
_cell_formula_units_Z 96
_cell_length_a 19.935978
_cell_length_b 30.113830
_cell_length_c 9.361263
_cell_angle_alpha 90.000000
_cell_angle_beta 90.000000
_cell_angle_gamma 90.000000
_cell_volume 5620.021627
_symmetry_space_group_name_H-M "C M M M"
_symmetry_group_IT_number 65
_symmetry_cell_setting 'orthorhombic'
loop_
_space_group_symop_operation_xyz
x,y,z
-x,-y,z
x,-y,-z
-x,y,-z
-x,-y,-z
x,y,-z
-x,y,z
x,-y,z
1/2+x,1/2+y,z
1/2-x,1/2-y,z
1/2+x,1/2-y,-z
1/2-x,1/2+y,-z
1/2-x,1/2-y,-z
1/2+x,1/2+y,-z
1/2-x,1/2+y,z
1/2+x,1/2-y,z
loop_
_atom_site_type_symbol
_atom_site_label
_atom_site_fract_x
_atom_site_fract_y
_atom_site_fract_z
Si Si1 0.280350 0.548398 0.660626
Si Si2 0.923753 0.283419 0.663731
Si Si3 0.380315 0.867387 0.832248
Si Si4 0.620906 0.049106 0.339356
Si Si5 0.819805 0.227451 0.834244
Si Si6 0.724721 0.630416 0.162861
O O1 0.306341 0.554735 0.500000
O O2 0.305042 0.500000 0.718832
O O3 0.200641 0.549174 0.666365
O O4 0.308632 0.589580 0.751455
O O5 0.900662 0.291056 0.500000
O O6 0.919556 0.329026 0.750828
O O7 0.878516 0.245799 0.735762
O O8 0.000000 0.266388 0.669504
O O9 0.407018 0.914548 0.771686
O O10 0.301981 0.860699 0.797050
O O11 0.395818 0.864877 0.000000
O O12 0.596843 0.060873 0.500000
O O13 0.594237 0.000000 0.296204
O O14 0.750000 0.250000 0.789764
O O15 0.816669 0.174900 0.805627
O O16 0.835315 0.238278 0.000000
O O17 0.719917 0.615983 0.000000
#
# Coordination Sequence:
#
# PCOD8266278 Si02
#       6
#    16  16  16  16  16  16
#     4   8  14  24  38  60  93 129 160 191 230 279
#     4  11  24  38  51  71  98 128 166 207 247 296
#     4  10  18  30  48  69  94 125 162 203 247 293
#     4   8  14  25  41  63  92 124 158 198 244 291
#     4  10  19  35  54  74 101 128 161 205 249 295
#     4   9  17  28  45  70  97 124 157 199 240 284
#
# _framework density 17.081785
#
# number of rings (size 3 to 8) (size 9 to 14) (size 15 to 20)
#    0.000    2.667    1.667    2.000    0.000    3.667 
#    0.000    3.333    0.000    0.500    0.000    3.500 
#    0.000    0.667    0.000    7.333    0.000    5.667 
#
# Total GULP energy -595019.369187 kJ/mol
# GULP energy per Si atom -12396.236858 kJ/mol
# Density = 1.704291 g / cm^3
# Si number density = 17.081785 Si / 1000 Ang^3
#
#
#
# Elastic Constant Matrix: (Units=GPa)
#
#
# Indices 1 2 3 4 5 6 
#
# 1 44.0916 35.0681 37.4100 0.0000 0.0000 0.0000
# 2 35.0681 113.9427 61.8539 0.0000 0.0000 0.0000
# 3 37.4100 61.8539 100.1152 0.0000 0.0000 0.0000
# 4 0.0000 0.0000 0.0000 39.0800 0.0000 0.0000
# 5 0.0000 0.0000 0.0000 0.0000 17.1345 0.0000
# 6 0.0000 0.0000 0.0000 0.0000 0.0000 8.6080
#
#
#
# Elastic Compliance Matrix: (Units=1/GPa)
#
#
# Indices 1 2 3 4 5 6 
#
# 1 0.035429 -0.005593 -0.009783 0.000000 0.000000 0.000000
# 2 -0.005593 0.014088 -0.006614 0.000000 0.000000 0.000000
# 3 -0.009783 -0.006614 0.017731 0.000000 0.000000 0.000000
# 4 0.000000 0.000000 0.000000 0.025589 0.000000 0.000000
# 5 0.000000 0.000000 0.000000 0.000000 0.058362 0.000000
# 6 0.000000 0.000000 0.000000 0.000000 0.000000 0.116170
#
#
# Mechanical properties :
#
#
# Convention : Reuss Voigt Hill
#
# Bulk Modulus (GPa) = 42.97923 58.53484 50.75704
# Shear Modulus (GPa) = 15.66880 21.21900 18.44390
#
# Velocity S-wave (km/s) = 3.03195 3.52831 3.28951
# Velocity P-wave (km/s) = 6.12147 7.13726 6.64879
#
# Compressibility (1/GPa) = 0.02326705
#
# Stress axis : x y z
#
# Youngs Moduli (GPa) = 28.22521 70.98133 56.39987
#
# Poissons Ratio (x) = 0.39701 0.55177
# Poissons Ratio (y) = 0.15787 0.37303
# Poissons Ratio (z) = 0.27613 0.46947
#
# Static dielectric constant tensor:
#      x y z
#    x 2.676830 0.000000 0.000000 
#    y 0.000000 3.546900 0.000000 
#    z 0.000000 0.000000 3.291450 
# 
# 
# High freq. dielectric constant tensor:
#      x y z
#    x 1.595890 0.000000 0.000000 
#    y 0.000000 1.672590 0.000000 
#    z 0.000000 0.000000 1.662820 
# 
# From -- ./inp_files/12299.got.cif
#   From: 2010.03.12/outbox.cif.g09.slc.cpg/sg65_7_cif.got.tgz:12299.got - 2010.04.10 20:52:16.
