data_PCOD8266338
_publ_section_title
;
Structure prediction by ZEFSAII (Michael W. Deem and Ramdas Pophale) SiO2 
 PCOD8266338
Probable space group: C M M M
;
_chemical_formula_sum "Si O2"
_cell_formula_units_Z 88
_cell_length_a 19.202367
_cell_length_b 8.806940
_cell_length_c 28.039081
_cell_angle_alpha 90.000000
_cell_angle_beta 90.000000
_cell_angle_gamma 90.000000
_cell_volume 4741.803781
_symmetry_space_group_name_H-M "C M M M"
_symmetry_group_IT_number 65
_symmetry_cell_setting 'orthorhombic'
loop_
_space_group_symop_operation_xyz
x,y,z
-x,-y,z
x,-y,-z
-x,y,-z
-x,-y,-z
x,y,-z
-x,y,z
x,-y,z
1/2+x,1/2+y,z
1/2-x,1/2-y,z
1/2+x,1/2-y,-z
1/2-x,1/2+y,-z
1/2-x,1/2-y,-z
1/2+x,1/2+y,-z
1/2-x,1/2+y,z
1/2+x,1/2-y,z
loop_
_atom_site_type_symbol
_atom_site_label
_atom_site_fract_x
_atom_site_fract_y
_atom_site_fract_z
Si Si1 0.178869 0.177130 0.373106
Si Si2 0.822431 0.820312 0.265766
Si Si3 0.826283 0.181143 0.095983
Si Si4 0.673219 0.818201 0.000000
Si Si5 0.918338 0.672886 0.553608
Si Si6 0.578008 0.319973 0.183529
O O1 0.250000 0.250000 0.392039
O O2 0.160758 0.234465 0.319648
O O3 0.117037 0.217708 0.408532
O O4 0.190232 0.000000 0.372893
O O5 0.750000 0.750000 0.247795
O O6 0.884321 0.761282 0.231674
O O7 0.815109 0.000000 0.262385
O O8 0.750000 0.250000 0.105657
O O9 0.877108 0.233228 0.138290
O O10 0.820023 0.000000 0.091345
O O11 0.861593 0.252134 0.048150
O O12 0.750000 0.750000 0.000000
O O13 0.672840 0.000000 0.000000
O O14 0.895442 0.718103 0.500000
O O15 0.896489 0.500000 0.564122
O O16 0.000000 0.694221 0.559390
O O17 0.500000 0.250406 0.181192
O O18 0.573359 0.500000 0.184193
#
# Coordination Sequence:
#
# PCOD8266338 Si02
#       6
#    16  16  16   8  16  16
#     4  10  20  33  52  78 105 134 168 209 254 300
#     4   9  18  33  53  75 100 130 164 203 246 293
#     4  10  18  30  51  75  98 126 162 202 241 285
#     4  10  18  30  49  72  99 127 159 201 243 286
#     4   9  19  36  55  74 100 135 171 208 253 303
#     4   9  18  32  50  73 100 130 164 201 241 287
#
# _framework density 18.558337999999999
#
# number of rings (size 3 to 8) (size 9 to 14) (size 15 to 20)
#    0.000    2.545    0.000    4.091    0.000    2.545 
#    0.000    4.091    0.000    7.636    0.000    0.000 
#    0.000    0.000    0.000    0.000    0.000    0.000 
#
# Total GULP energy -545496.936472 kJ/mol
# GULP energy per Si atom -12397.657647 kJ/mol
# Density = 1.851610 g / cm^3
# Si number density = 18.558338 Si / 1000 Ang^3
#
#
#
# Elastic Constant Matrix: (Units=GPa)
#
#
# Indices 1 2 3 4 5 6 
#
# 1 106.5831 26.9969 74.5835 0.0000 0.0000 0.0000
# 2 26.9969 58.8010 34.6881 0.0000 0.0000 0.0000
# 3 74.5835 34.6881 135.0066 0.0000 0.0000 0.0000
# 4 0.0000 0.0000 0.0000 23.9705 0.0000 0.0000
# 5 0.0000 0.0000 0.0000 0.0000 18.0277 0.0000
# 6 0.0000 0.0000 0.0000 0.0000 0.0000 25.1631
#
#
#
# Elastic Compliance Matrix: (Units=1/GPa)
#
#
# Indices 1 2 3 4 5 6 
#
# 1 0.015588 -0.002448 -0.007983 0.000000 0.000000 0.000000
# 2 -0.002448 0.020429 -0.003897 0.000000 0.000000 0.000000
# 3 -0.007983 -0.003897 0.012818 0.000000 0.000000 0.000000
# 4 0.000000 0.000000 0.000000 0.041718 0.000000 0.000000
# 5 0.000000 0.000000 0.000000 0.000000 0.055470 0.000000
# 6 0.000000 0.000000 0.000000 0.000000 0.000000 0.039741
#
#
# Mechanical properties :
#
#
# Convention : Reuss Voigt Hill
#
# Bulk Modulus (GPa) = 49.55092 63.65862 56.60477
# Shear Modulus (GPa) = 22.60944 24.37375 23.49160
#
# Velocity S-wave (km/s) = 3.49419 3.62796 3.56170
# Velocity P-wave (km/s) = 6.56027 7.20596 6.89068
#
# Compressibility (1/GPa) = 0.02018126
#
# Stress axis : x y z
#
# Youngs Moduli (GPa) = 64.14987 48.94972 78.01343
#
# Poissons Ratio (x) = 0.11982 0.62277
# Poissons Ratio (y) = 0.15703 0.30400
# Poissons Ratio (z) = 0.51210 0.19074
#
# Static dielectric constant tensor:
#      x y z
#    x 3.364760 0.000000 0.000000 
#    y 0.000000 3.270730 0.000000 
#    z 0.000000 0.000000 3.875460 
# 
# 
# High freq. dielectric constant tensor:
#      x y z
#    x 1.702240 0.000000 0.000000 
#    y 0.000000 1.705350 0.000000 
#    z 0.000000 0.000000 1.736690 
# 
# From -- ./inp_files/77839.got.cif
#   From: 2010.03.12/outbox.cif.g09.slc.cpg/sg65_39_cif.got.tgz:77839.got - 2010.04.10 20:52:16.
