data_PCOD8266080
_publ_section_title
;
Structure prediction by ZEFSAII (Michael W. Deem and Ramdas Pophale) SiO2 
 PCOD8266080
Probable space group: C M M M
;
_chemical_formula_sum "Si O2"
_cell_formula_units_Z 72
_cell_length_a 21.690188
_cell_length_b 15.839048
_cell_length_c 9.902332
_cell_angle_alpha 90.000000
_cell_angle_beta 90.000000
_cell_angle_gamma 90.000000
_cell_volume 3401.965259
_symmetry_space_group_name_H-M "C M M M"
_symmetry_group_IT_number 65
_symmetry_cell_setting 'orthorhombic'
loop_
_space_group_symop_operation_xyz
x,y,z
-x,-y,z
x,-y,-z
-x,y,-z
-x,-y,-z
x,y,-z
-x,y,z
x,-y,z
1/2+x,1/2+y,z
1/2-x,1/2-y,z
1/2+x,1/2-y,-z
1/2-x,1/2+y,-z
1/2-x,1/2-y,-z
1/2+x,1/2+y,-z
1/2-x,1/2+y,z
1/2+x,1/2-y,z
loop_
_atom_site_type_symbol
_atom_site_label
_atom_site_fract_x
_atom_site_fract_y
_atom_site_fract_z
Si Si1 0.285962 0.161678 0.000000
Si Si2 0.392655 0.401144 0.500000
Si Si3 0.663569 0.098216 0.726473
Si Si4 0.432486 0.399580 0.220531
Si Si5 0.753192 0.850136 0.500000
Si Si6 0.344270 0.404355 0.000000
Si Si7 0.430033 0.899465 0.500000
O O1 0.250000 0.250000 0.000000
O O2 0.328599 0.149872 0.132964
O O3 0.229567 0.095562 0.000000
O O4 0.404575 0.500000 0.500000
O O5 0.424275 0.359673 0.369021
O O6 0.321513 0.381959 0.500000
O O7 0.723587 0.111598 0.635112
O O8 0.605078 0.131249 0.637118
O O9 0.656170 0.000000 0.764095
O O10 0.500000 0.374260 0.163319
O O11 0.426404 0.500000 0.230453
O O12 0.377043 0.361198 0.129651
O O13 0.750000 0.750000 0.500000
O O14 0.366715 0.500000 0.000000
O O15 0.500000 0.864892 0.500000
O O16 0.428275 0.000000 0.500000
#
# Coordination Sequence:
#
# PCOD8266080 Si02
#       7
#     8   8  16  16   8   8   8
#     4  12  24  37  54  82 118 151 185 234 289 338
#     4  10  18  29  48  72 100 134 174 218 265 320
#     4  10  20  36  59  84 113 147 188 235 282 343
#     4   9  17  29  47  72  98 127 170 221 262 303
#     4  11  21  34  53  79 112 147 186 235 291 343
#     4  10  19  32  52  72  97 136 178 214 256 320
#     4   8  16  34  62  91 113 140 184 239 295 348
#
# _framework density 21.164237
#
# number of rings (size 3 to 8) (size 9 to 14) (size 15 to 20)
#    0.000    2.111    0.000    5.333    0.000    4.444 
#    0.000    0.556    0.000   16.000    0.000    0.000 
#    0.000    0.000    0.000    0.000    0.000    0.222 
#
# Total GULP energy -446097.690321 kJ/mol
# GULP energy per Si atom -12391.602509 kJ/mol
# Density = 2.111607 g / cm^3
# Si number density = 21.164237 Si / 1000 Ang^3
#
#
#
# Elastic Constant Matrix: (Units=GPa)
#
#
# Indices 1 2 3 4 5 6 
#
# 1 132.5022 -2.1185 61.6949 0.0000 0.0000 0.0000
# 2 -2.1185 37.6047 25.4685 0.0000 0.0000 0.0000
# 3 61.6949 25.4685 178.2428 0.0000 0.0000 0.0000
# 4 0.0000 0.0000 0.0000 13.8218 0.0000 0.0000
# 5 0.0000 0.0000 0.0000 0.0000 5.2622 0.0000
# 6 0.0000 0.0000 0.0000 0.0000 0.0000 7.5485
#
#
#
# Elastic Compliance Matrix: (Units=1/GPa)
#
#
# Indices 1 2 3 4 5 6 
#
# 1 0.009291 0.002991 -0.003643 0.000000 0.000000 0.000000
# 2 0.002991 0.030404 -0.005380 0.000000 0.000000 0.000000
# 3 -0.003643 -0.005380 0.007640 0.000000 0.000000 0.000000
# 4 0.000000 0.000000 0.000000 0.072350 0.000000 0.000000
# 5 0.000000 0.000000 0.000000 0.000000 0.190035 0.000000
# 6 0.000000 0.000000 0.000000 0.000000 0.000000 0.132476
#
#
# Mechanical properties :
#
#
# Convention : Reuss Voigt Hill
#
# Bulk Modulus (GPa) = 28.35134 57.60438 42.97786
# Shear Modulus (GPa) = 10.72920 22.88015 16.80467
#
# Velocity S-wave (km/s) = 2.25400 3.29154 2.82088
# Velocity P-wave (km/s) = 4.49432 6.45930 5.56424
#
# Compressibility (1/GPa) = 0.03527170
#
# Stress axis : x y z
#
# Youngs Moduli (GPa) = 107.62808 32.88997 130.88886
#
# Poissons Ratio (x) = -0.09837 0.47687
# Poissons Ratio (y) = -0.32191 0.70414
# Poissons Ratio (z) = 0.39213 0.17694
#
# Static dielectric constant tensor:
#      x y z
#    x 3.958760 0.000000 0.000000 
#    y 0.000000 3.365470 0.000000 
#    z 0.000000 0.000000 4.252210 
# 
# 
# High freq. dielectric constant tensor:
#      x y z
#    x 1.826750 0.000000 0.000000 
#    y 0.000000 1.783430 0.000000 
#    z 0.000000 0.000000 1.843440 
# 
# From -- ./inp_files/13677.got.cif
#   From: 2010.03.12/outbox.cif.g09.slc.cpg/sg65_7_cif.got.tgz:13677.got - 2010.04.10 20:52:16.
