data_PCOD8266197
_publ_section_title
;
Structure prediction by ZEFSAII (Michael W. Deem and Ramdas Pophale) SiO2 
 PCOD8266197
Probable space group: C M M M
;
_chemical_formula_sum "Si O2"
_cell_formula_units_Z 56
_cell_length_a 9.201757
_cell_length_b 33.607755
_cell_length_c 10.351845
_cell_angle_alpha 90.000000
_cell_angle_beta 90.000000
_cell_angle_gamma 90.000000
_cell_volume 3201.312153
_symmetry_space_group_name_H-M "C M M M"
_symmetry_group_IT_number 65
_symmetry_cell_setting 'orthorhombic'
loop_
_space_group_symop_operation_xyz
x,y,z
-x,-y,z
x,-y,-z
-x,y,-z
-x,-y,-z
x,y,-z
-x,y,z
x,-y,z
1/2+x,1/2+y,z
1/2-x,1/2-y,z
1/2+x,1/2-y,-z
1/2-x,1/2+y,-z
1/2-x,1/2-y,-z
1/2+x,1/2+y,-z
1/2-x,1/2+y,z
1/2+x,1/2-y,z
loop_
_atom_site_type_symbol
_atom_site_label
_atom_site_fract_x
_atom_site_fract_y
_atom_site_fract_z
Si Si1 0.669424 0.577384 0.849158
Si Si2 0.826957 0.791546 0.000000
Si Si3 0.672039 0.661017 0.752733
Si Si4 0.826385 0.792677 0.500000
Si Si5 0.163782 0.500000 0.153585
O O1 0.500000 0.568900 0.827893
O O2 0.724407 0.615286 0.765908
O O3 0.755901 0.539375 0.795168
O O4 0.701140 0.585820 0.000000
O O5 0.750000 0.750000 0.000000
O O6 0.769239 0.814582 0.125411
O O7 0.000000 0.786483 0.000000
O O8 0.500000 0.661128 0.755508
O O9 0.728691 0.681949 0.622768
O O10 0.750000 0.750000 0.500000
O O11 0.000000 0.786538 0.500000
O O12 0.000000 0.500000 0.206382
O O13 0.169264 0.500000 0.000000
#
# Coordination Sequence:
#
# PCOD8266197 Si02
#       5
#    16   8  16   8   8
#     4   9  15  27  47  68  89 120 159 191 223 271
#     4  10  18  30  46  67  92 119 151 192 237 278
#     4   9  17  30  49  69  92 121 157 197 232 271
#     4  10  20  34  50  69  94 125 159 196 237 280
#     4   9  17  27  41  68 103 126 142 182 237 280
#
# _framework density 17.492826000000001
#
# number of rings (size 3 to 8) (size 9 to 14) (size 15 to 20)
#    0.000    2.714    1.429    1.286    0.000    1.714 
#    0.000    2.857    0.000    0.857    0.000    6.000 
#    0.000    0.000    0.000    0.000    0.000    0.000 
#
# Total GULP energy -347116.969795 kJ/mol
# GULP energy per Si atom -12397.034636 kJ/mol
# Density = 1.745301 g / cm^3
# Si number density = 17.492826 Si / 1000 Ang^3
#
#
#
# Elastic Constant Matrix: (Units=GPa)
#
#
# Indices 1 2 3 4 5 6 
#
# 1 49.6812 56.5790 26.6292 0.0000 0.0000 0.0000
# 2 56.5790 202.6917 77.8570 0.0000 0.0000 0.0000
# 3 26.6292 77.8570 113.8534 0.0000 0.0000 0.0000
# 4 0.0000 0.0000 0.0000 27.3189 0.0000 0.0000
# 5 0.0000 0.0000 0.0000 0.0000 6.9762 0.0000
# 6 0.0000 0.0000 0.0000 0.0000 0.0000 30.9856
#
#
#
# Elastic Compliance Matrix: (Units=1/GPa)
#
#
# Indices 1 2 3 4 5 6 
#
# 1 0.029760 -0.007640 -0.001736 0.000000 0.000000 0.000000
# 2 -0.007640 0.008653 -0.004130 0.000000 0.000000 0.000000
# 3 -0.001736 -0.004130 0.012013 0.000000 0.000000 0.000000
# 4 0.000000 0.000000 0.000000 0.036605 0.000000 0.000000
# 5 0.000000 0.000000 0.000000 0.000000 0.143345 0.000000
# 6 0.000000 0.000000 0.000000 0.000000 0.000000 0.032273
#
#
# Mechanical properties :
#
#
# Convention : Reuss Voigt Hill
#
# Bulk Modulus (GPa) = 42.71001 76.48408 59.59704
# Shear Modulus (GPa) = 16.80864 26.73355 21.77109
#
# Velocity S-wave (km/s) = 3.10318 3.91353 3.53168
# Velocity P-wave (km/s) = 6.10806 8.01493 7.12557
#
# Compressibility (1/GPa) = 0.02341372
#
# Stress axis : x y z
#
# Youngs Moduli (GPa) = 33.60226 115.57034 83.23985
#
# Poissons Ratio (x) = 0.88300 0.14448
# Poissons Ratio (y) = 0.25673 0.34378
# Poissons Ratio (z) = 0.05833 0.47731
#
# Static dielectric constant tensor:
#      x y z
#    x 2.970010 0.000000 0.000000 
#    y 0.000000 3.484250 0.000000 
#    z 0.000000 0.000000 3.844920 
# 
# 
# High freq. dielectric constant tensor:
#      x y z
#    x 1.642640 0.000000 0.000000 
#    y 0.000000 1.695730 0.000000 
#    z 0.000000 0.000000 1.647280 
# 
# From -- ./inp_files/20830.got.cif
#   From: 2010.03.12/outbox.cif.g09.slc.cpg/sg65_11_cif.got.tgz:20830.got - 2010.04.10 20:52:16.
