data_PCOD8266747
_publ_section_title
;
Structure prediction by ZEFSAII (Michael W. Deem and Ramdas Pophale) SiO2 
 PCOD8266747
Probable space group: C M M M
;
_chemical_formula_sum "Si O2"
_cell_formula_units_Z 104
_cell_length_a 8.840319
_cell_length_b 28.300472
_cell_length_c 26.172023
_cell_angle_alpha 90.000000
_cell_angle_beta 90.000000
_cell_angle_gamma 90.000000
_cell_volume 6547.852817
_symmetry_space_group_name_H-M "C M M M"
_symmetry_group_IT_number 65
_symmetry_cell_setting 'orthorhombic'
loop_
_space_group_symop_operation_xyz
x,y,z
-x,-y,z
x,-y,-z
-x,y,-z
-x,-y,-z
x,y,-z
-x,y,z
x,-y,z
1/2+x,1/2+y,z
1/2-x,1/2-y,z
1/2+x,1/2-y,-z
1/2-x,1/2+y,-z
1/2-x,1/2-y,-z
1/2+x,1/2+y,-z
1/2-x,1/2+y,z
1/2+x,1/2-y,z
loop_
_atom_site_type_symbol
_atom_site_label
_atom_site_fract_x
_atom_site_fract_y
_atom_site_fract_z
Si Si1 0.669208 0.056266 0.155310
Si Si2 0.829561 0.943817 0.055729
Si Si3 0.681837 0.302126 0.500000
Si Si4 0.178575 0.946811 0.257470
Si Si5 0.178046 0.112776 0.354160
Si Si6 0.673036 0.055523 0.558134
Si Si7 0.320288 0.801176 0.397063
O O1 0.500000 0.074825 0.161130
O O2 0.733947 0.077946 0.102467
O O3 0.761207 0.074884 0.204324
O O4 0.678589 0.000000 0.152974
O O5 0.000000 0.925258 0.061592
O O6 0.826866 0.000000 0.058784
O O7 0.764603 0.927880 0.000000
O O8 0.500000 0.302468 0.500000
O O9 0.750000 0.250000 0.500000
O O10 0.749247 0.325184 0.448575
O O11 0.235421 0.915018 0.304257
O O12 0.000000 0.947511 0.254692
O O13 0.241428 0.000000 0.265787
O O14 0.214463 0.082068 0.404055
O O15 0.269493 0.162375 0.353201
O O16 0.000000 0.123030 0.352515
O O17 0.716856 0.068943 0.500000
O O18 0.500000 0.070770 0.569394
O O19 0.692753 0.000000 0.566680
O O20 0.500000 0.796461 0.401496
O O21 0.250000 0.750000 0.385584
#
# Coordination Sequence:
#
# PCOD8266747 Si02
#       7
#    16  16   8  16  16  16  16
#     4   9  16  24  36  55  78 105 139 181 224 259
#     4   8  13  21  33  49  71 102 139 176 215 259
#     4  10  18  32  52  72  91 110 133 162 200 248
#     4   9  18  32  47  62  84 115 150 186 221 259
#     4  11  22  34  50  71  91 114 147 184 221 264
#     4   9  19  35  51  67  90 118 146 178 218 263
#     4  11  22  37  54  72  94 117 140 172 214 263
#
# _framework density 15.883069000000001
#
# number of rings (size 3 to 8) (size 9 to 14) (size 15 to 20)
#    0.000    2.462    0.000    5.308    1.077    4.615 
#    0.000    3.846    0.000    0.000    0.000    0.000 
#    0.000    0.000    0.000    0.000    0.000    0.769 
#
# Total GULP energy -644571.359114 kJ/mol
# GULP energy per Si atom -12395.603060 kJ/mol
# Density = 1.584692 g / cm^3
# Si number density = 15.883069 Si / 1000 Ang^3
#
#
#
# Elastic Constant Matrix: (Units=GPa)
#
#
# Indices 1 2 3 4 5 6 
#
# 1 76.7262 25.3672 42.0543 0.0000 0.0000 0.0000
# 2 25.3672 45.1446 44.7150 0.0000 0.0000 0.0000
# 3 42.0543 44.7150 125.8933 0.0000 0.0000 0.0000
# 4 0.0000 0.0000 0.0000 5.7793 0.0000 0.0000
# 5 0.0000 0.0000 0.0000 0.0000 20.6232 0.0000
# 6 0.0000 0.0000 0.0000 0.0000 0.0000 18.7534
#
#
#
# Elastic Compliance Matrix: (Units=1/GPa)
#
#
# Indices 1 2 3 4 5 6 
#
# 1 0.016961 -0.006045 -0.003518 0.000000 0.000000 0.000000
# 2 -0.006045 0.036328 -0.010884 0.000000 0.000000 0.000000
# 3 -0.003518 -0.010884 0.012984 0.000000 0.000000 0.000000
# 4 0.000000 0.000000 0.000000 0.173031 0.000000 0.000000
# 5 0.000000 0.000000 0.000000 0.000000 0.048489 0.000000
# 6 0.000000 0.000000 0.000000 0.000000 0.000000 0.053324
#
#
# Mechanical properties :
#
#
# Convention : Reuss Voigt Hill
#
# Bulk Modulus (GPa) = 39.40423 52.44855 45.92639
# Shear Modulus (GPa) = 12.80506 18.07303 15.43904
#
# Velocity S-wave (km/s) = 2.84246 3.37691 3.12114
# Velocity P-wave (km/s) = 5.96956 6.94968 6.47818
#
# Compressibility (1/GPa) = 0.02537798
#
# Stress axis : x y z
#
# Youngs Moduli (GPa) = 58.96030 27.52698 77.01670
#
# Poissons Ratio (x) = 0.16641 0.27098
# Poissons Ratio (y) = 0.35644 0.83822
# Poissons Ratio (z) = 0.20745 0.29959
#
# Static dielectric constant tensor:
#      x y z
#    x 3.040240 0.000000 0.000000 
#    y 0.000000 2.782070 0.000000 
#    z 0.000000 0.000000 3.322980 
# 
# 
# High freq. dielectric constant tensor:
#      x y z
#    x 1.617320 0.000000 0.000000 
#    y 0.000000 1.557590 0.000000 
#    z 0.000000 0.000000 1.606830 
# 
# From -- ./inp_files/73755.got.cif
#   From: 2010.03.12/outbox.cif.g09.slc.cpg/sg65_37_cif.got.tgz:73755.got - 2010.04.10 20:52:16.
