data_PCOD8266045
_publ_section_title
;
Structure prediction by ZEFSAII (Michael W. Deem and Ramdas Pophale) SiO2 
 PCOD8266045
Probable space group: C M M M
;
_chemical_formula_sum "Si O2"
_cell_formula_units_Z 128
_cell_length_a 20.980586
_cell_length_b 17.909189
_cell_length_c 20.621218
_cell_angle_alpha 90.000000
_cell_angle_beta 90.000000
_cell_angle_gamma 90.000000
_cell_volume 7748.325331
_symmetry_space_group_name_H-M "C M M M"
_symmetry_group_IT_number 65
_symmetry_cell_setting 'orthorhombic'
loop_
_space_group_symop_operation_xyz
x,y,z
-x,-y,z
x,-y,-z
-x,y,-z
-x,-y,-z
x,y,-z
-x,y,z
x,-y,z
1/2+x,1/2+y,z
1/2-x,1/2-y,z
1/2+x,1/2-y,-z
1/2-x,1/2+y,-z
1/2-x,1/2-y,-z
1/2+x,1/2+y,-z
1/2-x,1/2+y,z
1/2+x,1/2-y,z
loop_
_atom_site_type_symbol
_atom_site_label
_atom_site_fract_x
_atom_site_fract_y
_atom_site_fract_z
Si Si1 0.138909 0.310029 0.773869
Si Si2 0.347057 0.413176 0.074672
Si Si3 0.163328 0.083469 0.276143
Si Si4 0.573929 0.081498 0.321896
Si Si5 0.926673 0.298702 0.424437
Si Si6 0.233907 0.417075 0.834911
Si Si7 0.182965 0.223827 0.349503
Si Si8 0.424967 0.334433 0.819840
O O1 0.097464 0.373248 0.739833
O O2 0.182466 0.351522 0.827082
O O3 0.179306 0.266360 0.719491
O O4 0.094479 0.252093 0.812008
O O5 0.364248 0.500000 0.084990
O O6 0.276701 0.396790 0.102726
O O7 0.399589 0.364296 0.111531
O O8 0.347902 0.389723 0.000000
O O9 0.222945 0.082111 0.228630
O O10 0.181805 0.134835 0.337580
O O11 0.101847 0.116423 0.239441
O O12 0.147672 0.000000 0.301046
O O13 0.500000 0.070732 0.312298
O O14 0.588635 0.123125 0.389415
O O15 0.607447 0.000000 0.324495
O O16 0.914820 0.310194 0.500000
O O17 0.877227 0.238524 0.396298
O O18 0.000000 0.273200 0.410289
O O19 0.203069 0.500000 0.843631
O O20 0.250000 0.250000 0.382041
O O21 0.500000 0.341651 0.818633
#
# Coordination Sequence:
#
# PCOD8266045 Si02
#       8
#    16  16  16  16  16  16  16  16
#     4  10  18  29  47  69 100 126 153 189 241 293
#     4   9  19  34  50  69  93 122 160 203 244 287
#     4   9  18  30  47  71  97 122 155 201 251 297
#     4   9  17  29  47  72  98 124 157 195 235 281
#     4   9  19  34  49  67  95 131 168 203 241 289
#     4   9  16  29  49  71  94 124 156 192 243 297
#     4  10  18  30  49  73  96 125 159 199 246 297
#     4  10  20  31  46  68  97 130 164 199 240 293
#
# _framework density 16.519698999999999
#
# number of rings (size 3 to 8) (size 9 to 14) (size 15 to 20)
#    0.000    2.625    1.250    1.875    0.000    4.750 
#    0.000    3.125    0.000    0.375    0.000    0.875 
#    0.000    0.000    0.000   11.250    0.000    0.125 
#
# Total GULP energy -793416.340797 kJ/mol
# GULP energy per Si atom -12397.130325 kJ/mol
# Density = 1.648210 g / cm^3
# Si number density = 16.519699 Si / 1000 Ang^3
#
#
#
# Elastic Constant Matrix: (Units=GPa)
#
#
# Indices 1 2 3 4 5 6 
#
# 1 68.7496 48.5763 48.0707 0.0000 0.0000 0.0000
# 2 48.5763 125.8076 50.3209 0.0000 0.0000 0.0000
# 3 48.0707 50.3209 77.6461 0.0000 0.0000 0.0000
# 4 0.0000 0.0000 0.0000 14.7915 0.0000 0.0000
# 5 0.0000 0.0000 0.0000 0.0000 17.2224 0.0000
# 6 0.0000 0.0000 0.0000 0.0000 0.0000 25.0282
#
#
#
# Elastic Compliance Matrix: (Units=1/GPa)
#
#
# Indices 1 2 3 4 5 6 
#
# 1 0.027986 -0.005232 -0.013936 0.000000 0.000000 0.000000
# 2 -0.005232 0.011708 -0.004349 0.000000 0.000000 0.000000
# 3 -0.013936 -0.004349 0.024325 0.000000 0.000000 0.000000
# 4 0.000000 0.000000 0.000000 0.067606 0.000000 0.000000
# 5 0.000000 0.000000 0.000000 0.000000 0.058064 0.000000
# 6 0.000000 0.000000 0.000000 0.000000 0.000000 0.039955
#
#
# Mechanical properties :
#
#
# Convention : Reuss Voigt Hill
#
# Bulk Modulus (GPa) = 58.86958 62.90437 60.88698
# Shear Modulus (GPa) = 17.70921 19.75746 18.73333
#
# Velocity S-wave (km/s) = 3.27770 3.46207 3.37114
# Velocity P-wave (km/s) = 7.07374 7.35814 7.21734
#
# Compressibility (1/GPa) = 0.01698670
#
# Stress axis : x y z
#
# Youngs Moduli (GPa) = 35.73191 85.41014 41.11035
#
# Poissons Ratio (x) = 0.44686 0.57289
# Poissons Ratio (y) = 0.18695 0.17878
# Poissons Ratio (z) = 0.49794 0.37143
#
# Static dielectric constant tensor:
#      x y z
#    x 3.069750 0.000000 0.000000 
#    y 0.000000 3.433990 0.000000 
#    z 0.000000 0.000000 2.926140 
# 
# 
# High freq. dielectric constant tensor:
#      x y z
#    x 1.630100 0.000000 0.000000 
#    y 0.000000 1.642190 0.000000 
#    z 0.000000 0.000000 1.605300 
# 
# From -- ./inp_files/64876.got.cif
#   From: 2010.03.12/outbox.cif.g09.slc.cpg/sg65_33_cif.got.tgz:64876.got - 2010.04.10 20:52:16.
