data_PCOD8266155
_publ_section_title
;
Structure prediction by ZEFSAII (Michael W. Deem and Ramdas Pophale) SiO2 
 PCOD8266155
Probable space group: C M M M
;
_chemical_formula_sum "Si O2"
_cell_formula_units_Z 96
_cell_length_a 15.228109
_cell_length_b 14.825433
_cell_length_c 19.481997
_cell_angle_alpha 90.000000
_cell_angle_beta 90.000000
_cell_angle_gamma 90.000000
_cell_volume 4398.320122
_symmetry_space_group_name_H-M "C M M M"
_symmetry_group_IT_number 65
_symmetry_cell_setting 'orthorhombic'
loop_
_space_group_symop_operation_xyz
x,y,z
-x,-y,z
x,-y,-z
-x,y,-z
-x,-y,-z
x,y,-z
-x,y,z
x,-y,z
1/2+x,1/2+y,z
1/2-x,1/2-y,z
1/2+x,1/2-y,-z
1/2-x,1/2+y,-z
1/2-x,1/2-y,-z
1/2+x,1/2+y,-z
1/2-x,1/2+y,z
1/2+x,1/2-y,z
loop_
_atom_site_type_symbol
_atom_site_label
_atom_site_fract_x
_atom_site_fract_y
_atom_site_fract_z
Si Si1 0.500000 0.800335 0.076349
Si Si2 0.139052 0.604445 0.829118
Si Si3 0.000000 0.099499 0.895559
Si Si4 0.250168 0.857943 0.422392
Si Si5 0.094554 0.634521 0.670466
Si Si6 0.831134 0.899372 0.801942
Si Si7 0.596398 0.340389 0.334791
O O1 0.585094 0.831641 0.119357
O O2 0.500000 0.692000 0.061435
O O3 0.500000 0.844411 0.000000
O O4 0.120470 0.500000 0.848056
O O5 0.114157 0.622307 0.750583
O O6 0.241339 0.631333 0.839471
O O7 0.912115 0.104555 0.852326
O O8 0.000000 0.000000 0.934148
O O9 0.260077 0.892544 0.500000
O O10 0.250000 0.750000 0.417396
O O11 0.327239 0.904582 0.376930
O O12 0.156120 0.890233 0.391973
O O13 0.083707 0.736933 0.647137
O O14 0.000000 0.587171 0.655333
O O15 0.852155 0.837762 0.737147
O O16 0.816609 0.000000 0.773390
O O17 0.500000 0.387858 0.330401
#
# Coordination Sequence:
#
# PCOD8266155 Si02
#       7
#     8  16   8  16  16  16  16
#     4  12  27  45  68  97 130 168 204 249 316 386
#     4  11  23  39  62  94 128 166 212 263 314 374
#     4  10  22  42  67  98 131 163 205 258 310 365
#     4   9  18  31  47  75 119 164 207 261 322 381
#     4  10  19  31  53  82 110 153 208 264 318 369
#     4  10  20  35  60  93 124 159 205 261 313 362
#     4  10  18  29  51  83 116 153 205 263 318 377
#
# _framework density 21.826514
#
# number of rings (size 3 to 8) (size 9 to 14) (size 15 to 20)
#    0.000    1.833    3.333    1.250    0.000    3.500 
#    0.000    5.000    0.000    5.000    0.000    2.333 
#    0.000    0.000    0.000    0.000    0.000    0.000 
#
# Total GULP energy -594661.703513 kJ/mol
# GULP energy per Si atom -12388.785490 kJ/mol
# Density = 2.177684 g / cm^3
# Si number density = 21.826514 Si / 1000 Ang^3
#
#
#
# Elastic Constant Matrix: (Units=GPa)
#
#
# Indices 1 2 3 4 5 6 
#
# 1 213.9334 28.2148 74.4728 0.0000 0.0000 0.0000
# 2 28.2148 69.9136 17.5395 0.0000 0.0000 0.0000
# 3 74.4728 17.5395 142.0076 0.0000 0.0000 0.0000
# 4 0.0000 0.0000 0.0000 -19.9076 0.0000 0.0000
# 5 0.0000 0.0000 0.0000 0.0000 173.3296 0.0000
# 6 0.0000 0.0000 0.0000 0.0000 0.0000 15.0702
#
#
#
# Elastic Compliance Matrix: (Units=1/GPa)
#
#
# Indices 1 2 3 4 5 6 
#
# 1 0.005898 -0.001656 -0.002889 0.000000 0.000000 0.000000
# 2 -0.001656 0.015225 -0.001012 0.000000 0.000000 0.000000
# 3 -0.002889 -0.001012 0.008682 0.000000 0.000000 0.000000
# 4 0.000000 0.000000 0.000000 -0.050232 0.000000 0.000000
# 5 0.000000 0.000000 0.000000 0.000000 0.005769 0.000000
# 6 0.000000 0.000000 0.000000 0.000000 0.000000 0.066356
#
#
# Mechanical properties :
#
#
# Convention : Reuss Voigt Hill
#
# Bulk Modulus (GPa) = 53.49785 74.03431 63.76608
# Shear Modulus (GPa) = 72.41862 54.07360 63.24611
#
# Velocity S-wave (km/s) = 5.76639 4.98278 5.38884
# Velocity P-wave (km/s) = 8.30052 8.19128 8.24608
#
# Compressibility (1/GPa) = 0.01869234
#
# Stress axis : x y z
#
# Youngs Moduli (GPa) = 169.53986 65.67939 115.18285
#
# Poissons Ratio (x) = 0.10874 0.33274
# Poissons Ratio (y) = 0.28070 0.11659
# Poissons Ratio (z) = 0.48976 0.06648
#
# Static dielectric constant tensor:
#      x y z
#    x 4.676290 0.000000 0.000000 
#    y 0.000000 3.980840 0.000000 
#    z 0.000000 0.000000 3.583290 
# 
# 
# High freq. dielectric constant tensor:
#      x y z
#    x 1.883410 0.000000 0.000000 
#    y 0.000000 1.847890 0.000000 
#    z 0.000000 0.000000 1.822780 
# 
# From -- ./inp_files/62681.got.cif
#   From: 2010.03.12/outbox.cif.g09.slc.cpg/sg65_32_cif.got.tgz:62681.got - 2010.04.10 20:52:16.
