data_PCOD8266949
_publ_section_title
;
Structure prediction by ZEFSAII (Michael W. Deem and Ramdas Pophale) SiO2 
 PCOD8266949
Probable space group: C M M M
;
_chemical_formula_sum "Si O2"
_cell_formula_units_Z 104
_cell_length_a 19.176461
_cell_length_b 26.398313
_cell_length_c 11.562151
_cell_angle_alpha 90.000000
_cell_angle_beta 90.000000
_cell_angle_gamma 90.000000
_cell_volume 5853.063992
_symmetry_space_group_name_H-M "C M M M"
_symmetry_group_IT_number 65
_symmetry_cell_setting 'orthorhombic'
loop_
_space_group_symop_operation_xyz
x,y,z
-x,-y,z
x,-y,-z
-x,y,-z
-x,-y,-z
x,y,-z
-x,y,z
x,-y,z
1/2+x,1/2+y,z
1/2-x,1/2-y,z
1/2+x,1/2-y,-z
1/2-x,1/2+y,-z
1/2-x,1/2-y,-z
1/2+x,1/2+y,-z
1/2-x,1/2+y,z
1/2+x,1/2-y,z
loop_
_atom_site_type_symbol
_atom_site_label
_atom_site_fract_x
_atom_site_fract_y
_atom_site_fract_z
Si Si1 0.581702 0.302271 0.365949
Si Si2 0.418347 0.796485 0.238654
Si Si3 0.707785 0.056774 0.248605
Si Si4 0.578048 0.500000 0.637583
Si Si5 0.837716 0.097105 0.363517
Si Si6 0.420084 0.897161 0.365319
Si Si7 0.840710 0.442984 0.000000
Si Si8 0.417433 0.840189 0.000000
O O1 0.595357 0.289200 0.500000
O O2 0.500000 0.312223 0.345079
O O3 0.611701 0.256340 0.287699
O O4 0.623380 0.351830 0.326573
O O5 0.500000 0.789498 0.223942
O O6 0.401637 0.839571 0.332398
O O7 0.386204 0.812106 0.113736
O O8 0.761761 0.096190 0.304703
O O9 0.629462 0.065423 0.294650
O O10 0.730097 0.000000 0.283981
O O11 0.708851 0.063844 0.110868
O O12 0.500000 0.500000 0.688756
O O13 0.575260 0.500000 0.500000
O O14 0.617026 0.550011 0.683019
O O15 0.827166 0.093948 0.500000
O O16 0.406586 0.904800 0.500000
O O17 0.500000 0.909995 0.331825
O O18 0.874268 0.500000 0.000000
O O19 0.899573 0.399779 0.000000
O O20 0.500000 0.837113 0.000000
#
# Coordination Sequence:
#
# PCOD8266949 Si02
#       8
#    16  16  16   8  16  16   8   8
#     4   9  17  31  53  81 112 142 175 216 263 323
#     4   9  17  31  52  77 106 138 174 217 268 314
#     4  11  22  37  54  74 105 143 181 224 270 320
#     4   9  16  28  50  81 112 138 171 215 265 324
#     4  10  19  32  52  80 111 143 175 214 271 326
#     4  10  20  33  52  77 105 140 178 216 265 325
#     4  10  22  37  55  75  97 139 190 226 271 322
#     4  10  18  33  57  81 103 134 181 237 278 310
#
# _framework density 17.768471000000002
#
# number of rings (size 3 to 8) (size 9 to 14) (size 15 to 20)
#    0.000    2.231    2.308    1.385    0.000    5.077 
#    0.000    3.846    0.000    3.692    0.000    2.154 
#    0.000    0.000    0.000    0.000    0.000    0.000 
#
# Total GULP energy -644738.211926 kJ/mol
# GULP energy per Si atom -12398.811768 kJ/mol
# Density = 1.772803 g / cm^3
# Si number density = 17.768471 Si / 1000 Ang^3
#
#
#
# Elastic Constant Matrix: (Units=GPa)
#
#
# Indices 1 2 3 4 5 6 
#
# 1 71.4091 37.5756 35.1846 0.0000 0.0000 0.0000
# 2 37.5756 120.8660 50.2890 0.0000 0.0000 0.0000
# 3 35.1846 50.2890 83.9241 0.0000 0.0000 0.0000
# 4 0.0000 0.0000 0.0000 27.7138 0.0000 0.0000
# 5 0.0000 0.0000 0.0000 0.0000 15.0972 0.0000
# 6 0.0000 0.0000 0.0000 0.0000 0.0000 20.9844
#
#
#
# Elastic Compliance Matrix: (Units=1/GPa)
#
#
# Indices 1 2 3 4 5 6 
#
# 1 0.018636 -0.003387 -0.005783 0.000000 0.000000 0.000000
# 2 -0.003387 0.011637 -0.005553 0.000000 0.000000 0.000000
# 3 -0.005783 -0.005553 0.017668 0.000000 0.000000 0.000000
# 4 0.000000 0.000000 0.000000 0.036083 0.000000 0.000000
# 5 0.000000 0.000000 0.000000 0.000000 0.066237 0.000000
# 6 0.000000 0.000000 0.000000 0.000000 0.000000 0.047654
#
#
# Mechanical properties :
#
#
# Convention : Reuss Voigt Hill
#
# Bulk Modulus (GPa) = 54.07366 58.03310 56.05338
# Shear Modulus (GPa) = 21.41080 22.96908 22.18994
#
# Velocity S-wave (km/s) = 3.47506 3.59930 3.53772
# Velocity P-wave (km/s) = 6.82641 7.07141 6.94999
#
# Compressibility (1/GPa) = 0.01849329
#
# Stress axis : x y z
#
# Youngs Moduli (GPa) = 53.66040 85.93124 56.60085
#
# Poissons Ratio (x) = 0.29108 0.32733
# Poissons Ratio (y) = 0.18177 0.31431
# Poissons Ratio (z) = 0.31032 0.47718
#
# Static dielectric constant tensor:
#      x y z
#    x 3.070820 0.000000 0.000000 
#    y 0.000000 3.407990 0.000000 
#    z 0.000000 0.000000 3.381900 
# 
# 
# High freq. dielectric constant tensor:
#      x y z
#    x 1.662440 0.000000 0.000000 
#    y 0.000000 1.692280 0.000000 
#    z 0.000000 0.000000 1.676840 
# 
# From -- ./inp_files/27524.got.cif
#   From: 2010.03.12/outbox.cif.g09.slc.cpg/sg65_14_cif.got.tgz:27524.got - 2010.04.10 20:52:16.
