data_PCOD8266359
_publ_section_title
;
Structure prediction by ZEFSAII (Michael W. Deem and Ramdas Pophale) SiO2 
 PCOD8266359
Probable space group: C M M M
;
_chemical_formula_sum "Si O2"
_cell_formula_units_Z 96
_cell_length_a 23.833913
_cell_length_b 8.040470
_cell_length_c 26.934002
_cell_angle_alpha 90.000000
_cell_angle_beta 90.000000
_cell_angle_gamma 90.000000
_cell_volume 5161.520703
_symmetry_space_group_name_H-M "C M M M"
_symmetry_group_IT_number 65
_symmetry_cell_setting 'orthorhombic'
loop_
_space_group_symop_operation_xyz
x,y,z
-x,-y,z
x,-y,-z
-x,y,-z
-x,-y,-z
x,y,-z
-x,y,z
x,-y,z
1/2+x,1/2+y,z
1/2-x,1/2-y,z
1/2+x,1/2-y,-z
1/2-x,1/2+y,-z
1/2-x,1/2-y,-z
1/2+x,1/2+y,-z
1/2-x,1/2+y,z
1/2+x,1/2-y,z
loop_
_atom_site_type_symbol
_atom_site_label
_atom_site_fract_x
_atom_site_fract_y
_atom_site_fract_z
Si Si1 0.377382 0.696400 0.595565
Si Si2 0.500000 0.189556 0.725286
Si Si3 0.066189 0.000000 0.055131
Si Si4 0.813040 0.807784 0.690743
Si Si5 0.890015 0.692893 0.227889
Si Si6 0.065604 0.690308 0.121946
Si Si7 0.686172 0.697005 0.500000
Si Si8 0.000000 0.193983 0.617982
O O1 0.369665 0.500000 0.596106
O O2 0.352241 0.772522 0.647192
O O3 0.343935 0.772669 0.548838
O O4 0.443366 0.740825 0.588274
O O5 0.555496 0.278221 0.746854
O O6 0.500000 0.195372 0.666699
O O7 0.500000 0.000000 0.744728
O O8 0.084942 0.171332 0.082082
O O9 0.000000 0.000000 0.051073
O O10 0.093010 0.000000 0.000000
O O11 0.750000 0.750000 0.684825
O O12 0.834983 0.769521 0.746445
O O13 0.813932 0.000000 0.681799
O O14 0.888066 0.500000 0.240335
O O15 0.894092 0.724119 0.169003
O O16 0.074656 0.500000 0.102127
O O17 0.000000 0.713325 0.136719
O O18 0.680752 0.500000 0.500000
O O19 0.750000 0.750000 0.500000
O O20 0.000000 0.000000 0.633068
#
# Coordination Sequence:
#
# PCOD8266359 Si02
#       8
#    16   8   8  16  16  16   8   8
#     4   9  19  33  53  76  99 126 166 210 257 312
#     4  10  18  30  49  75 103 133 168 205 253 307
#     4   9  18  30  44  70 106 146 190 225 263 314
#     4  11  22  35  50  72 100 135 170 210 259 317
#     4  10  19  32  50  74 103 136 172 212 258 313
#     4   9  17  30  47  71 104 141 181 222 267 317
#     4  10  20  37  55  73  95 128 171 216 258 307
#     4  10  18  33  50  76 104 124 161 207 257 316
#
# _framework density 18.599170000000001
#
# number of rings (size 3 to 8) (size 9 to 14) (size 15 to 20)
#    0.000    2.250    2.500    1.000    1.167    0.667 
#    0.000    5.000    0.000    0.000    0.000    1.167 
#    0.000    0.667    0.333    0.000    0.000    0.000 
#
# Total GULP energy -594866.974779 kJ/mol
# GULP energy per Si atom -12393.061975 kJ/mol
# Density = 1.855684 g / cm^3
# Si number density = 18.599170 Si / 1000 Ang^3
#
#
#
# Elastic Constant Matrix: (Units=GPa)
#
#
# Indices 1 2 3 4 5 6 
#
# 1 122.1472 26.3185 57.8438 0.0000 0.0000 0.0000
# 2 26.3185 57.6934 44.3528 0.0000 0.0000 0.0000
# 3 57.8438 44.3528 128.5285 0.0000 0.0000 0.0000
# 4 0.0000 0.0000 0.0000 19.9784 0.0000 0.0000
# 5 0.0000 0.0000 0.0000 0.0000 17.8923 0.0000
# 6 0.0000 0.0000 0.0000 0.0000 0.0000 16.8934
#
#
#
# Elastic Compliance Matrix: (Units=1/GPa)
#
#
# Indices 1 2 3 4 5 6 
#
# 1 0.010508 -0.001576 -0.004185 0.000000 0.000000 0.000000
# 2 -0.001576 0.023828 -0.007513 0.000000 0.000000 0.000000
# 3 -0.004185 -0.007513 0.012257 0.000000 0.000000 0.000000
# 4 0.000000 0.000000 0.000000 0.050054 0.000000 0.000000
# 5 0.000000 0.000000 0.000000 0.000000 0.055890 0.000000
# 6 0.000000 0.000000 0.000000 0.000000 0.000000 0.059195
#
#
# Mechanical properties :
#
#
# Convention : Reuss Voigt Hill
#
# Bulk Modulus (GPa) = 49.89140 62.82212 56.35676
# Shear Modulus (GPa) = 20.41129 22.94310 21.67719
#
# Velocity S-wave (km/s) = 3.31634 3.51601 3.41763
# Velocity P-wave (km/s) = 6.44569 7.09459 6.77791
#
# Compressibility (1/GPa) = 0.02004353
#
# Stress axis : x y z
#
# Youngs Moduli (GPa) = 95.16119 41.96753 81.58816
#
# Poissons Ratio (x) = 0.06615 0.34148
# Poissons Ratio (y) = 0.14999 0.61299
# Poissons Ratio (z) = 0.39829 0.31531
#
# Static dielectric constant tensor:
#      x y z
#    x 3.128040 0.000000 0.000000 
#    y 0.000000 3.279150 0.000000 
#    z 0.000000 0.000000 3.466820 
# 
# 
# High freq. dielectric constant tensor:
#      x y z
#    x 1.698870 0.000000 0.000000 
#    y 0.000000 1.708990 0.000000 
#    z 0.000000 0.000000 1.708350 
# 
# From -- ./inp_files/71516.got.cif
#   From: 2010.03.12/outbox.cif.g09.slc.cpg/sg65_36_cif.got.tgz:71516.got - 2010.04.10 20:52:16.
