data_PCOD8266091
_publ_section_title
;
Structure prediction by ZEFSAII (Michael W. Deem and Ramdas Pophale) SiO2 
 PCOD8266091
Probable space group: C M M M
;
_chemical_formula_sum "Si O2"
_cell_formula_units_Z 80
_cell_length_a 20.859288
_cell_length_b 24.778790
_cell_length_c 9.100750
_cell_angle_alpha 90.000000
_cell_angle_beta 90.000000
_cell_angle_gamma 90.000000
_cell_volume 4703.885695
_symmetry_space_group_name_H-M "C M M M"
_symmetry_group_IT_number 65
_symmetry_cell_setting 'orthorhombic'
loop_
_space_group_symop_operation_xyz
x,y,z
-x,-y,z
x,-y,-z
-x,y,-z
-x,-y,-z
x,y,-z
-x,y,z
x,-y,z
1/2+x,1/2+y,z
1/2-x,1/2-y,z
1/2+x,1/2-y,-z
1/2-x,1/2+y,-z
1/2-x,1/2-y,-z
1/2+x,1/2+y,-z
1/2-x,1/2+y,z
1/2+x,1/2-y,z
loop_
_atom_site_type_symbol
_atom_site_label
_atom_site_fract_x
_atom_site_fract_y
_atom_site_fract_z
Si Si1 0.571523 0.773686 0.671725
Si Si2 0.127937 0.614034 0.325630
Si Si3 0.384335 0.000000 0.660967
Si Si4 0.231417 0.000000 0.664348
Si Si5 0.759764 0.894662 0.830634
Si Si6 0.312721 0.280106 0.831818
O O1 0.580276 0.764248 0.500000
O O2 0.500000 0.757673 0.723441
O O3 0.580912 0.836877 0.709842
O O4 0.622761 0.736394 0.750438
O O5 0.141959 0.607995 0.500000
O O6 0.096054 0.557353 0.264673
O O7 0.194198 0.624951 0.243652
O O8 0.307587 0.000000 0.656702
O O9 0.415351 0.000000 0.500000
O O10 0.208592 0.946276 0.750211
O O11 0.201882 0.000000 0.500000
O O12 0.808133 0.844569 0.816279
O O13 0.746590 0.909535 0.000000
O O14 0.250000 0.250000 0.764267
O O15 0.319420 0.261698 0.000000
#
# Coordination Sequence:
#
# PCOD8266091 Si02
#       6
#    16  16   8   8  16  16
#     4  10  21  34  48  70 100 134 174 215 255 303
#     4   9  16  28  45  65  94 130 168 207 249 293
#     4   7  12  23  40  61  85 119 159 197 234 279
#     4   9  17  29  45  70 103 130 158 194 246 304
#     4  10  18  29  48  73 100 127 163 207 247 291
#     4  10  20  34  51  74 101 130 170 212 251 301
#
# _framework density 17.007216
#
# number of rings (size 3 to 8) (size 9 to 14) (size 15 to 20)
#    0.000    2.600    2.000    2.100    0.000    2.400 
#    0.000    0.500    0.000    3.000    0.000    0.700 
#    0.000   12.000    0.000    0.000    0.000    0.000 
#
# Total GULP energy -495685.308287 kJ/mol
# GULP energy per Si atom -12392.132707 kJ/mol
# Density = 1.696851 g / cm^3
# Si number density = 17.007216 Si / 1000 Ang^3
#
#
#
# Elastic Constant Matrix: (Units=GPa)
#
#
# Indices 1 2 3 4 5 6 
#
# 1 91.8761 47.3159 37.9084 0.0000 0.0000 0.0000
# 2 47.3159 103.5356 44.1415 0.0000 0.0000 0.0000
# 3 37.9084 44.1415 70.4970 0.0000 0.0000 0.0000
# 4 0.0000 0.0000 0.0000 27.5192 0.0000 0.0000
# 5 0.0000 0.0000 0.0000 0.0000 16.6572 0.0000
# 6 0.0000 0.0000 0.0000 0.0000 0.0000 14.7408
#
#
#
# Elastic Compliance Matrix: (Units=1/GPa)
#
#
# Indices 1 2 3 4 5 6 
#
# 1 0.015585 -0.004842 -0.005349 0.000000 0.000000 0.000000
# 2 -0.004842 0.014680 -0.006588 0.000000 0.000000 0.000000
# 3 -0.005349 -0.006588 0.021186 0.000000 0.000000 0.000000
# 4 0.000000 0.000000 0.000000 0.036338 0.000000 0.000000
# 5 0.000000 0.000000 0.000000 0.000000 0.060034 0.000000
# 6 0.000000 0.000000 0.000000 0.000000 0.000000 0.067839
#
#
# Mechanical properties :
#
#
# Convention : Reuss Voigt Hill
#
# Bulk Modulus (GPa) = 55.88604 58.29336 57.08970
# Shear Modulus (GPa) = 19.59366 20.88630 20.23998
#
# Velocity S-wave (km/s) = 3.39791 3.50821 3.45350
# Velocity P-wave (km/s) = 6.95169 7.12461 7.03868
#
# Compressibility (1/GPa) = 0.01789356
#
# Stress axis : x y z
#
# Youngs Moduli (GPa) = 64.16583 68.11943 47.20020
#
# Poissons Ratio (x) = 0.32982 0.25246
# Poissons Ratio (y) = 0.31068 0.31097
# Poissons Ratio (z) = 0.34320 0.44879
#
# Static dielectric constant tensor:
#      x y z
#    x 2.773050 0.000000 0.000000 
#    y 0.000000 3.506990 0.000000 
#    z 0.000000 0.000000 3.148970 
# 
# 
# High freq. dielectric constant tensor:
#      x y z
#    x 1.604530 0.000000 0.000000 
#    y 0.000000 1.672640 0.000000 
#    z 0.000000 0.000000 1.646420 
# 
# From -- ./inp_files/11555.got.cif
#   From: 2010.03.12/outbox.cif.g09.slc.cpg/sg65_6_cif.got.tgz:11555.got - 2010.04.10 20:52:16.
