data_PCOD8266015
_publ_section_title
;
Structure prediction by ZEFSAII (Michael W. Deem and Ramdas Pophale) SiO2 
 PCOD8266015
Probable space group: C M M M
;
_chemical_formula_sum "Si O2"
_cell_formula_units_Z 72
_cell_length_a 23.975361
_cell_length_b 8.143680
_cell_length_c 21.681335
_cell_angle_alpha 90.000000
_cell_angle_beta 90.000000
_cell_angle_gamma 90.000000
_cell_volume 4233.230095
_symmetry_space_group_name_H-M "C M M M"
_symmetry_group_IT_number 65
_symmetry_cell_setting 'orthorhombic'
loop_
_space_group_symop_operation_xyz
x,y,z
-x,-y,z
x,-y,-z
-x,y,-z
-x,-y,-z
x,y,-z
-x,y,z
x,-y,z
1/2+x,1/2+y,z
1/2-x,1/2-y,z
1/2+x,1/2-y,-z
1/2-x,1/2+y,-z
1/2-x,1/2-y,-z
1/2+x,1/2+y,-z
1/2-x,1/2+y,z
1/2+x,1/2-y,z
loop_
_atom_site_type_symbol
_atom_site_label
_atom_site_fract_x
_atom_site_fract_y
_atom_site_fract_z
Si Si1 0.500000 0.679327 0.430658
Si Si2 0.063396 0.186453 0.728546
Si Si3 0.812852 0.808060 0.500000
Si Si4 0.387283 0.187069 0.610562
Si Si5 0.933562 0.000000 0.929407
Si Si6 0.065613 0.319017 0.140767
O O1 0.500000 0.500000 0.393825
O O2 0.500000 0.623383 0.500000
O O3 0.446940 0.792123 0.420127
O O4 0.109694 0.215114 0.675434
O O5 0.078786 0.297992 0.786848
O O6 0.000000 0.228516 0.704131
O O7 0.065841 0.000000 0.751671
O O8 0.750000 0.750000 0.500000
O O9 0.840505 0.747449 0.563326
O O10 0.817493 0.000000 0.500000
O O11 0.374787 0.000000 0.626243
O O12 0.908579 0.166814 0.898230
O O13 0.000000 0.000000 0.922453
O O14 0.914330 0.000000 0.000000
O O15 0.089122 0.500000 0.120572
O O16 0.000000 0.317070 0.129705
#
# Coordination Sequence:
#
# PCOD8266015 Si02
#       6
#     8  16   8  16   8  16
#     4  11  21  33  49  71 100 126 148 191 250 299
#     4  10  18  29  46  67  95 125 153 195 251 301
#     4  12  26  45  60  71  92 124 162 206 244 294
#     4  12  23  34  52  76  97 123 158 199 249 303
#     4   9  16  26  38  54  80 117 161 201 233 274
#     4   9  16  26  39  57  83 116 154 198 243 285
#
# _framework density 17.008288
#
# number of rings (size 3 to 8) (size 9 to 14) (size 15 to 20)
#    0.000    1.556    3.333    4.000    0.000    1.778 
#    0.000    2.222    0.000    0.000    0.000    0.000 
#    0.000    0.000    0.000    0.000    0.000    1.111 
#
# Total GULP energy -446106.862602 kJ/mol
# GULP energy per Si atom -12391.857294 kJ/mol
# Density = 1.696958 g / cm^3
# Si number density = 17.008288 Si / 1000 Ang^3
#
#
#
# Elastic Constant Matrix: (Units=GPa)
#
#
# Indices 1 2 3 4 5 6 
#
# 1 55.0968 16.1345 23.4445 0.0000 0.0000 0.0000
# 2 16.1345 132.9816 51.5480 0.0000 0.0000 0.0000
# 3 23.4445 51.5480 96.6496 0.0000 0.0000 0.0000
# 4 0.0000 0.0000 0.0000 23.4023 0.0000 0.0000
# 5 0.0000 0.0000 0.0000 0.0000 4.5958 0.0000
# 6 0.0000 0.0000 0.0000 0.0000 0.0000 17.4322
#
#
#
# Elastic Compliance Matrix: (Units=1/GPa)
#
#
# Indices 1 2 3 4 5 6 
#
# 1 0.020290 -0.000698 -0.004549 0.000000 0.000000 0.000000
# 2 -0.000698 0.009504 -0.004899 0.000000 0.000000 0.000000
# 3 -0.004549 -0.004899 0.014063 0.000000 0.000000 0.000000
# 4 0.000000 0.000000 0.000000 0.042731 0.000000 0.000000
# 5 0.000000 0.000000 0.000000 0.000000 0.217590 0.000000
# 6 0.000000 0.000000 0.000000 0.000000 0.000000 0.057365
#
#
# Mechanical properties :
#
#
# Convention : Reuss Voigt Hill
#
# Bulk Modulus (GPa) = 42.43937 51.88688 47.16313
# Shear Modulus (GPa) = 12.83064 21.99278 17.41171
#
# Velocity S-wave (km/s) = 2.74957 3.59982 3.20303
# Velocity P-wave (km/s) = 5.92339 6.91746 6.43964
#
# Compressibility (1/GPa) = 0.02356303
#
# Stress axis : x y z
#
# Youngs Moduli (GPa) = 49.28485 105.22178 71.10699
#
# Poissons Ratio (x) = 0.07347 0.32349
# Poissons Ratio (y) = 0.03441 0.34838
# Poissons Ratio (z) = 0.22422 0.51553
#
# Static dielectric constant tensor:
#      x y z
#    x 2.579910 0.000000 0.000000 
#    y 0.000000 3.511790 0.000000 
#    z 0.000000 0.000000 3.216700 
# 
# 
# High freq. dielectric constant tensor:
#      x y z
#    x 1.566640 0.000000 0.000000 
#    y 0.000000 1.683710 0.000000 
#    z 0.000000 0.000000 1.659930 
# 
# From -- ./inp_files/64426.got.cif
#   From: 2010.03.12/outbox.cif.g09.slc.cpg/sg65_33_cif.got.tgz:64426.got - 2010.04.10 20:52:16.
