data_PCOD8266773
_publ_section_title
;
Structure prediction by ZEFSAII (Michael W. Deem and Ramdas Pophale) SiO2 
 PCOD8266773
Probable space group: C M M M
;
_chemical_formula_sum "Si O2"
_cell_formula_units_Z 80
_cell_length_a 28.834346
_cell_length_b 8.357946
_cell_length_c 18.316331
_cell_angle_alpha 90.000000
_cell_angle_beta 90.000000
_cell_angle_gamma 90.000000
_cell_volume 4414.160799
_symmetry_space_group_name_H-M "C M M M"
_symmetry_group_IT_number 65
_symmetry_cell_setting 'orthorhombic'
loop_
_space_group_symop_operation_xyz
x,y,z
-x,-y,z
x,-y,-z
-x,y,-z
-x,-y,-z
x,y,-z
-x,y,z
x,-y,z
1/2+x,1/2+y,z
1/2-x,1/2-y,z
1/2+x,1/2-y,-z
1/2-x,1/2+y,-z
1/2-x,1/2-y,-z
1/2+x,1/2+y,-z
1/2-x,1/2+y,z
1/2+x,1/2-y,z
loop_
_atom_site_type_symbol
_atom_site_label
_atom_site_fract_x
_atom_site_fract_y
_atom_site_fract_z
Si Si1 0.445965 0.000000 0.921812
Si Si2 0.852313 0.178619 0.220088
Si Si3 0.699396 0.182732 0.648094
Si Si4 0.301937 0.686146 0.500000
Si Si5 0.300931 0.810695 0.083388
Si Si6 0.947492 0.820752 0.836566
O O1 0.432350 0.831555 0.885156
O O2 0.500000 0.000000 0.933567
O O3 0.420100 0.000000 0.000000
O O4 0.832833 0.294350 0.281819
O O5 0.837424 0.232018 0.138798
O O6 0.908560 0.181080 0.226564
O O7 0.833428 0.000000 0.234644
O O8 0.750000 0.250000 0.665376
O O9 0.674650 0.256053 0.575680
O O10 0.706071 0.000000 0.631006
O O11 0.303041 0.500000 0.500000
O O12 0.250000 0.750000 0.500000
O O13 0.250000 0.750000 0.105018
O O14 0.303194 0.000000 0.092606
O O15 0.312798 0.759177 0.000000
O O16 0.000000 0.795044 0.805984
O O17 0.945134 0.000000 0.874817
#
# Coordination Sequence:
#
# PCOD8266773 Si02
#       6
#     8  16  16   8  16  16
#     4   9  18  32  52  74  98 129 167 215 271 328
#     4  11  22  35  53  76 102 134 176 219 263 313
#     4  11  21  34  53  78 110 142 176 212 256 309
#     4  10  18  32  52  76 109 142 173 206 254 307
#     4  10  21  36  52  70  97 133 173 216 261 309
#     4   9  20  37  54  74 103 136 173 220 272 325
#
# _framework density 18.123491000000001
#
# number of rings (size 3 to 8) (size 9 to 14) (size 15 to 20)
#    0.000    1.900    0.000    5.700    2.800    2.400 
#    0.000    4.000    0.000    0.000    0.000    0.700 
#    0.000    5.600    0.000    0.000    0.000    0.000 
#
# Total GULP energy -495551.986827 kJ/mol
# GULP energy per Si atom -12388.799671 kJ/mol
# Density = 1.808224 g / cm^3
# Si number density = 18.123491 Si / 1000 Ang^3
#
#
#
# Elastic Constant Matrix: (Units=GPa)
#
#
# Indices 1 2 3 4 5 6 
#
# 1 79.5264 23.1641 40.3549 0.0000 0.0000 0.0000
# 2 23.1641 139.7318 34.6760 0.0000 0.0000 0.0000
# 3 40.3549 34.6760 104.1114 0.0000 0.0000 0.0000
# 4 0.0000 0.0000 0.0000 27.9044 0.0000 0.0000
# 5 0.0000 0.0000 0.0000 0.0000 7.6823 0.0000
# 6 0.0000 0.0000 0.0000 0.0000 0.0000 21.7457
#
#
#
# Elastic Compliance Matrix: (Units=1/GPa)
#
#
# Indices 1 2 3 4 5 6 
#
# 1 0.015836 -0.001201 -0.005738 0.000000 0.000000 0.000000
# 2 -0.001201 0.007893 -0.002163 0.000000 0.000000 0.000000
# 3 -0.005738 -0.002163 0.012550 0.000000 0.000000 0.000000
# 4 0.000000 0.000000 0.000000 0.035837 0.000000 0.000000
# 5 0.000000 0.000000 0.000000 0.000000 0.130170 0.000000
# 6 0.000000 0.000000 0.000000 0.000000 0.000000 0.045986
#
#
# Mechanical properties :
#
#
# Convention : Reuss Voigt Hill
#
# Bulk Modulus (GPa) = 55.33027 57.75107 56.54067
# Shear Modulus (GPa) = 18.34858 26.47812 22.41335
#
# Velocity S-wave (km/s) = 3.18531 3.82643 3.52049
# Velocity P-wave (km/s) = 6.64260 7.17332 6.91306
#
# Compressibility (1/GPa) = 0.01807329
#
# Stress axis : x y z
#
# Youngs Moduli (GPa) = 63.14680 126.70255 79.68289
#
# Poissons Ratio (x) = 0.15220 0.45724
# Poissons Ratio (y) = 0.07585 0.17236
# Poissons Ratio (z) = 0.36235 0.27407
#
# Static dielectric constant tensor:
#      x y z
#    x 3.229880 0.000000 0.000000 
#    y 0.000000 3.750770 0.000000 
#    z 0.000000 0.000000 3.474500 
# 
# 
# High freq. dielectric constant tensor:
#      x y z
#    x 1.682070 0.000000 0.000000 
#    y 0.000000 1.731930 0.000000 
#    z 0.000000 0.000000 1.675990 
# 
# From -- ./inp_files/57306.got.cif
#   From: 2010.03.12/outbox.cif.g09.slc.cpg/sg65_29_cif.got.tgz:57306.got - 2010.04.10 20:52:16.
