data_PCOD8266319
_publ_section_title
;
Structure prediction by ZEFSAII (Michael W. Deem and Ramdas Pophale) SiO2 
 PCOD8266319
Probable space group: C M M M
;
_chemical_formula_sum "Si O2"
_cell_formula_units_Z 104
_cell_length_a 17.032402
_cell_length_b 27.144605
_cell_length_c 12.659315
_cell_angle_alpha 90.000000
_cell_angle_beta 90.000000
_cell_angle_gamma 90.000000
_cell_volume 5852.880157
_symmetry_space_group_name_H-M "C M M M"
_symmetry_group_IT_number 65
_symmetry_cell_setting 'orthorhombic'
loop_
_space_group_symop_operation_xyz
x,y,z
-x,-y,z
x,-y,-z
-x,y,-z
-x,-y,-z
x,y,-z
-x,y,z
x,-y,z
1/2+x,1/2+y,z
1/2-x,1/2-y,z
1/2+x,1/2-y,-z
1/2-x,1/2+y,-z
1/2-x,1/2-y,-z
1/2+x,1/2+y,-z
1/2-x,1/2+y,z
1/2+x,1/2-y,z
loop_
_atom_site_type_symbol
_atom_site_label
_atom_site_fract_x
_atom_site_fract_y
_atom_site_fract_z
Si Si1 0.849342 0.671905 0.688652
Si Si2 0.500000 0.057415 0.824056
Si Si3 0.158275 0.606447 0.118530
Si Si4 0.685241 0.633194 0.619923
Si Si5 0.409916 0.271724 0.375978
Si Si6 0.000000 0.614227 0.382302
Si Si7 0.088471 0.058512 0.000000
Si Si8 0.810087 0.057609 0.802154
O O1 0.842997 0.655666 0.810814
O O2 0.772598 0.654878 0.626214
O O3 0.859333 0.730704 0.685791
O O4 0.923956 0.647858 0.632181
O O5 0.425098 0.080056 0.881041
O O6 0.500000 0.068927 0.698993
O O7 0.500000 0.000000 0.842086
O O8 0.220946 0.567433 0.163008
O O9 0.179806 0.622573 0.000000
O O10 0.669486 0.615954 0.500000
O O11 0.624139 0.675214 0.654731
O O12 0.670504 0.586489 0.694787
O O13 0.401154 0.261562 0.500000
O O14 0.500000 0.269678 0.339323
O O15 0.000000 0.591807 0.500000
O O16 0.132470 0.077079 0.894676
O O17 0.000000 0.079511 0.000000
O O18 0.089083 0.000000 0.000000
O O19 0.821351 0.000000 0.779320
#
# Coordination Sequence:
#
# PCOD8266319 Si02
#       8
#    16   8  16  16  16   8   8  16
#     4  10  19  32  53  77 103 138 180 223 266 315
#     4  10  21  31  44  73 105 140 181 218 262 314
#     4  10  20  34  52  76 105 139 181 225 265 313
#     4  10  21  34  52  82 114 141 176 221 269 325
#     4  10  19  33  55  78 104 140 179 220 267 319
#     4  10  18  30  49  72 100 137 180 223 263 313
#     4   9  18  34  58  81  96 127 181 228 261 305
#     4  10  20  35  57  80 107 144 180 220 271 319
#
# _framework density 17.769029
#
# number of rings (size 3 to 8) (size 9 to 14) (size 15 to 20)
#    0.000    2.077    1.538    2.538    0.000    3.538 
#    0.000    0.000    1.692    7.385    0.000    4.308 
#    0.000    0.000    0.000    0.000    0.000    0.000 
#
# Total GULP energy -644926.547291 kJ/mol
# GULP energy per Si atom -12402.433602 kJ/mol
# Density = 1.772859 g / cm^3
# Si number density = 17.769029 Si / 1000 Ang^3
#
#
#
# Elastic Constant Matrix: (Units=GPa)
#
#
# Indices 1 2 3 4 5 6 
#
# 1 84.0766 38.1172 24.3014 0.0000 0.0000 0.0000
# 2 38.1172 100.9229 62.8038 0.0000 0.0000 0.0000
# 3 24.3014 62.8038 119.7106 0.0000 0.0000 0.0000
# 4 0.0000 0.0000 0.0000 21.3199 0.0000 0.0000
# 5 0.0000 0.0000 0.0000 0.0000 32.0003 0.0000
# 6 0.0000 0.0000 0.0000 0.0000 0.0000 23.7531
#
#
#
# Elastic Compliance Matrix: (Units=1/GPa)
#
#
# Indices 1 2 3 4 5 6 
#
# 1 0.014352 -0.005356 -0.000103 0.000000 0.000000 0.000000
# 2 -0.005356 0.016710 -0.007679 0.000000 0.000000 0.000000
# 3 -0.000103 -0.007679 0.012403 0.000000 0.000000 0.000000
# 4 0.000000 0.000000 0.000000 0.046905 0.000000 0.000000
# 5 0.000000 0.000000 0.000000 0.000000 0.031250 0.000000
# 6 0.000000 0.000000 0.000000 0.000000 0.000000 0.042100
#
#
# Mechanical properties :
#
#
# Convention : Reuss Voigt Hill
#
# Bulk Modulus (GPa) = 58.18146 61.68388 59.93267
# Shear Modulus (GPa) = 25.54573 27.38052 26.46313
#
# Velocity S-wave (km/s) = 3.79576 3.92970 3.86331
# Velocity P-wave (km/s) = 7.21281 7.44176 7.32818
#
# Compressibility (1/GPa) = 0.01718761
#
# Stress axis : x y z
#
# Youngs Moduli (GPa) = 69.67608 59.84289 80.62329
#
# Poissons Ratio (x) = 0.32053 0.00834
# Poissons Ratio (y) = 0.37320 0.61914
# Poissons Ratio (z) = 0.00721 0.45956
#
# Static dielectric constant tensor:
#      x y z
#    x 3.479330 0.000000 0.000000 
#    y 0.000000 3.083030 0.000000 
#    z 0.000000 0.000000 3.287360 
# 
# 
# High freq. dielectric constant tensor:
#      x y z
#    x 1.700070 0.000000 0.000000 
#    y 0.000000 1.667690 0.000000 
#    z 0.000000 0.000000 1.684120 
# 
# From -- ./inp_files/27533.got.cif
#   From: 2010.03.12/outbox.cif.g09.slc.cpg/sg65_14_cif.got.tgz:27533.got - 2010.04.10 20:52:16.
