data_PCOD8266528
_publ_section_title
;
Structure prediction by ZEFSAII (Michael W. Deem and Ramdas Pophale) SiO2 
 PCOD8266528
Probable space group: C M M M
;
_chemical_formula_sum "Si O2"
_cell_formula_units_Z 88
_cell_length_a 13.432376
_cell_length_b 29.221260
_cell_length_c 14.058972
_cell_angle_alpha 90.000000
_cell_angle_beta 90.000000
_cell_angle_gamma 90.000000
_cell_volume 5518.300477
_symmetry_space_group_name_H-M "C M M M"
_symmetry_group_IT_number 65
_symmetry_cell_setting 'orthorhombic'
loop_
_space_group_symop_operation_xyz
x,y,z
-x,-y,z
x,-y,-z
-x,y,-z
-x,-y,-z
x,y,-z
-x,y,z
x,-y,z
1/2+x,1/2+y,z
1/2-x,1/2-y,z
1/2+x,1/2-y,-z
1/2-x,1/2+y,-z
1/2-x,1/2-y,-z
1/2+x,1/2+y,-z
1/2-x,1/2+y,z
1/2+x,1/2-y,z
loop_
_atom_site_type_symbol
_atom_site_label
_atom_site_fract_x
_atom_site_fract_y
_atom_site_fract_z
Si Si1 0.882798 0.769475 0.104009
Si Si2 0.881608 0.093448 0.300899
Si Si3 0.884907 0.729972 0.297682
Si Si4 0.881692 0.000000 0.392987
Si Si5 0.706277 0.683201 0.612076
Si Si6 0.881903 0.871587 0.103247
O O1 0.848516 0.735209 0.187450
O O2 0.839244 0.820457 0.120285
O O3 0.000000 0.773873 0.108915
O O4 0.849073 0.750485 0.000000
O O5 0.842231 0.044935 0.338999
O O6 0.830908 0.132903 0.362574
O O7 0.846971 0.096549 0.190506
O O8 0.000000 0.098354 0.312131
O O9 0.816819 0.691274 0.345387
O O10 0.870350 0.779038 0.348238
O O11 0.000000 0.715180 0.306052
O O12 0.839502 0.000000 0.500000
O O13 0.000000 0.000000 0.393855
O O14 0.712574 0.688660 0.500000
O O15 0.000000 0.869820 0.101563
O O16 0.843835 0.890269 0.000000
#
# Coordination Sequence:
#
# PCOD8266528 Si02
#       6
#    16  16  16   8  16  16
#     4   8  13  24  43  63  84 114 148 179 212 252
#     4  10  18  31  48  66  89 115 143 182 226 265
#     4  10  19  32  45  62  90 119 148 183 217 253
#     4   9  18  30  45  65  86 112 147 182 219 263
#     4  11  22  31  43  64  87 117 155 185 216 261
#     4   8  13  23  41  63  86 114 145 175 212 261
#
# _framework density 15.946939
#
# number of rings (size 3 to 8) (size 9 to 14) (size 15 to 20)
#    0.000    2.636    1.818    3.273    0.000    3.273 
#    0.000    3.182    0.000    2.727    0.000    0.636 
#    0.000    2.182    0.000    0.000    0.000    9.545 
#
# Total GULP energy -545234.786006 kJ/mol
# GULP energy per Si atom -12391.699682 kJ/mol
# Density = 1.591064 g / cm^3
# Si number density = 15.946939 Si / 1000 Ang^3
#
#
#
# Elastic Constant Matrix: (Units=GPa)
#
#
# Indices 1 2 3 4 5 6 
#
# 1 48.8448 24.0221 20.2197 0.0000 0.0000 0.0000
# 2 24.0221 83.0227 46.3087 0.0000 0.0000 0.0000
# 3 20.2197 46.3087 156.6660 0.0000 0.0000 0.0000
# 4 0.0000 0.0000 0.0000 22.8090 0.0000 0.0000
# 5 0.0000 0.0000 0.0000 0.0000 -33.0716 0.0000
# 6 0.0000 0.0000 0.0000 0.0000 0.0000 13.2013
#
#
#
# Elastic Compliance Matrix: (Units=1/GPa)
#
#
# Indices 1 2 3 4 5 6 
#
# 1 0.024074 -0.006266 -0.001255 0.000000 0.000000 0.000000
# 2 -0.006266 0.016054 -0.003937 0.000000 0.000000 0.000000
# 3 -0.001255 -0.003937 0.007709 0.000000 0.000000 0.000000
# 4 0.000000 0.000000 0.000000 0.043842 0.000000 0.000000
# 5 0.000000 0.000000 0.000000 0.000000 -0.030237 0.000000
# 6 0.000000 0.000000 0.000000 0.000000 0.000000 0.075750
#
#
# Mechanical properties :
#
#
# Convention : Reuss Voigt Hill
#
# Bulk Modulus (GPa) = 40.12566 52.18162 46.15364
# Shear Modulus (GPa) = 29.68888 13.78659 21.73774
#
# Velocity S-wave (km/s) = 4.31946 2.94348 3.69606
# Velocity P-wave (km/s) = 7.07768 6.65921 6.87163
#
# Compressibility (1/GPa) = 0.02492171
#
# Stress axis : x y z
#
# Youngs Moduli (GPa) = 41.53856 62.29135 129.72534
#
# Poissons Ratio (x) = 0.39030 0.16280
# Poissons Ratio (y) = 0.26027 0.51068
# Poissons Ratio (z) = 0.05213 0.24522
#
# Static dielectric constant tensor:
#      x y z
#    x 2.683390 0.000000 0.000000 
#    y 0.000000 2.832810 0.000000 
#    z 0.000000 0.000000 3.619620 
# 
# 
# High freq. dielectric constant tensor:
#      x y z
#    x 1.570770 0.000000 0.000000 
#    y 0.000000 1.574270 0.000000 
#    z 0.000000 0.000000 1.642680 
# 
# From -- ./inp_files/40942.got.cif
#   From: 2010.03.12/outbox.cif.g09.slc.cpg/sg65_21_cif.got.tgz:40942.got - 2010.04.10 20:52:16.
