data_PCOD8266210
_publ_section_title
;
Structure prediction by ZEFSAII (Michael W. Deem and Ramdas Pophale) SiO2 
 PCOD8266210
Probable space group: C M M M
;
_chemical_formula_sum "Si O2"
_cell_formula_units_Z 96
_cell_length_a 23.496284
_cell_length_b 16.549597
_cell_length_c 18.489702
_cell_angle_alpha 90.000000
_cell_angle_beta 90.000000
_cell_angle_gamma 90.000000
_cell_volume 7189.795158
_symmetry_space_group_name_H-M "C M M M"
_symmetry_group_IT_number 65
_symmetry_cell_setting 'orthorhombic'
loop_
_space_group_symop_operation_xyz
x,y,z
-x,-y,z
x,-y,-z
-x,y,-z
-x,-y,-z
x,y,-z
-x,y,z
x,-y,z
1/2+x,1/2+y,z
1/2-x,1/2-y,z
1/2+x,1/2-y,-z
1/2-x,1/2+y,-z
1/2-x,1/2-y,-z
1/2+x,1/2+y,-z
1/2-x,1/2+y,z
1/2+x,1/2-y,z
loop_
_atom_site_type_symbol
_atom_site_label
_atom_site_fract_x
_atom_site_fract_y
_atom_site_fract_z
Si Si1 0.932710 0.591362 0.500000
Si Si2 0.936413 0.404232 0.923558
Si Si3 0.874609 0.674058 0.634351
Si Si4 0.361383 0.649752 0.585177
Si Si5 0.567770 0.093334 0.232982
Si Si6 0.064170 0.000000 0.414036
Si Si7 0.235094 0.593483 0.584135
O O1 0.908993 0.500000 0.500000
O O2 0.911504 0.634673 0.571450
O O3 0.000000 0.592795 0.500000
O O4 0.939907 0.500000 0.921104
O O5 0.908781 0.378034 0.846759
O O6 0.000000 0.368736 0.926064
O O7 0.905416 0.377132 0.000000
O O8 0.877521 0.770333 0.628643
O O9 0.900871 0.650491 0.710783
O O10 0.809504 0.644653 0.630596
O O11 0.368495 0.665642 0.500000
O O12 0.403447 0.579801 0.613370
O O13 0.297466 0.624217 0.603748
O O14 0.500000 0.104939 0.237926
O O15 0.583453 0.000000 0.248970
O O16 0.064832 0.000000 0.500000
O O17 0.000000 0.000000 0.383434
O O18 0.221295 0.607867 0.500000
O O19 0.230006 0.500000 0.604713
#
# Coordination Sequence:
#
# PCOD8266210 Si02
#       7
#     8  16  16  16  16   8  16
#     4  11  22  32  37  49  79 113 144 167 186 227
#     4   7  10  19  36  54  72 101 137 165 192 230
#     4  12  20  28  41  59  78 108 141 168 203 243
#     4  10  19  33  44  60  75  95 133 183 217 248
#     4   9  17  27  37  54  84 113 137 166 198 235
#     4   9  18  32  48  60  74  96 125 175 231 262
#     4  10  18  30  47  58  74  97 135 178 220 244
#
# _framework density 13.352259
#
# number of rings (size 3 to 8) (size 9 to 14) (size 15 to 20)
#    0.000    2.333    2.500    4.000    0.000    4.000 
#    0.000    0.000    0.000    0.000    0.000    0.000 
#    0.000    2.667    0.000    1.083    0.000    8.917 
#
# Total GULP energy -594830.448535 kJ/mol
# GULP energy per Si atom -12392.301011 kJ/mol
# Density = 1.332187 g / cm^3
# Si number density = 13.352259 Si / 1000 Ang^3
#
#
#
# Elastic Constant Matrix: (Units=GPa)
#
#
# Indices 1 2 3 4 5 6 
#
# 1 64.9100 42.2024 36.8767 0.0000 0.0000 0.0000
# 2 42.2024 99.0314 40.4839 0.0000 0.0000 0.0000
# 3 36.8767 40.4839 95.8110 0.0000 0.0000 0.0000
# 4 0.0000 0.0000 0.0000 -66.7851 0.0000 0.0000
# 5 0.0000 0.0000 0.0000 0.0000 4.9655 0.0000
# 6 0.0000 0.0000 0.0000 0.0000 0.0000 12.6446
#
#
#
# Elastic Compliance Matrix: (Units=1/GPa)
#
#
# Indices 1 2 3 4 5 6 
#
# 1 0.023772 -0.007724 -0.005886 0.000000 0.000000 0.000000
# 2 -0.007724 0.014716 -0.003245 0.000000 0.000000 0.000000
# 3 -0.005886 -0.003245 0.014074 0.000000 0.000000 0.000000
# 4 0.000000 0.000000 0.000000 -0.014973 0.000000 0.000000
# 5 0.000000 0.000000 0.000000 0.000000 0.201391 0.000000
# 6 0.000000 0.000000 0.000000 0.000000 0.000000 0.079085
#
#
# Mechanical properties :
#
#
# Convention : Reuss Voigt Hill
#
# Bulk Modulus (GPa) = 53.04648 55.43095 54.23871
# Shear Modulus (GPa) = 13.96420 -0.48904 6.73758
#
# Velocity S-wave (km/s) = 3.23744 -0.60585 2.24877
# Velocity P-wave (km/s) = 7.33413 6.41210 6.88856
#
# Compressibility (1/GPa) = 0.01885139
#
# Stress axis : x y z
#
# Youngs Moduli (GPa) = 42.06656 67.95249 71.05418
#
# Poissons Ratio (x) = 0.52489 0.41820
# Poissons Ratio (y) = 0.32494 0.23058
# Poissons Ratio (z) = 0.24759 0.22052
#
# Static dielectric constant tensor:
#      x y z
#    x 2.627940 0.000000 0.000000 
#    y 0.000000 2.600320 0.000000 
#    z 0.000000 0.000000 2.809790 
# 
# 
# High freq. dielectric constant tensor:
#      x y z
#    x 1.498030 0.000000 0.000000 
#    y 0.000000 1.495580 0.000000 
#    z 0.000000 0.000000 1.478250 
# 
# From -- ./inp_files/55988.got.cif
#   From: 2010.03.12/outbox.cif.g09.slc.cpg/sg65_28_cif.got.tgz:55988.got - 2010.04.10 20:52:16.
