data_PCOD8266898
_publ_section_title
;
Structure prediction by ZEFSAII (Michael W. Deem and Ramdas Pophale) SiO2 
 PCOD8266898
Probable space group: C M M M
;
_chemical_formula_sum "Si O2"
_cell_formula_units_Z 72
_cell_length_a 23.356190
_cell_length_b 17.673028
_cell_length_c 9.118755
_cell_angle_alpha 90.000000
_cell_angle_beta 90.000000
_cell_angle_gamma 90.000000
_cell_volume 3763.990446
_symmetry_space_group_name_H-M "C M M M"
_symmetry_group_IT_number 65
_symmetry_cell_setting 'orthorhombic'
loop_
_space_group_symop_operation_xyz
x,y,z
-x,-y,z
x,-y,-z
-x,y,-z
-x,-y,-z
x,y,-z
-x,y,z
x,-y,z
1/2+x,1/2+y,z
1/2-x,1/2-y,z
1/2+x,1/2-y,-z
1/2-x,1/2+y,-z
1/2-x,1/2-y,-z
1/2+x,1/2+y,-z
1/2-x,1/2+y,z
1/2+x,1/2-y,z
loop_
_atom_site_type_symbol
_atom_site_label
_atom_site_fract_x
_atom_site_fract_y
_atom_site_fract_z
Si Si1 0.874065 0.911413 0.669962
Si Si2 0.564291 0.000000 0.674128
Si Si3 0.129972 0.648893 0.673806
Si Si4 0.934239 0.216932 0.171517
Si Si5 0.746943 0.916504 0.326500
O O1 0.883914 0.891473 0.500000
O O2 0.919332 0.865899 0.766998
O O3 0.809749 0.887034 0.720295
O O4 0.883715 0.000000 0.698278
O O5 0.596217 0.925051 0.730659
O O6 0.500000 0.000000 0.737652
O O7 0.564158 0.000000 0.500000
O O8 0.123481 0.658988 0.500000
O O9 0.105765 0.722323 0.751011
O O10 0.196540 0.640410 0.722305
O O11 0.000000 0.235328 0.207915
O O12 0.922234 0.218304 0.000000
O O13 0.745750 0.925208 0.500000
O O14 0.735627 0.000000 0.258882
#
# Coordination Sequence:
#
# PCOD8266898 Si02
#       5
#    16   8  16  16  16
#     4   9  19  37  62  87 108 134 174 225 278 331
#     4   9  16  26  47  81 111 139 180 223 258 298
#     4  10  18  32  57  84 111 143 180 223 266 315
#     4  11  25  41  53  72 109 151 187 225 271 322
#     4   8  14  29  55  87 116 138 168 217 275 325
#
# _framework density 19.128634000000002
#
# number of rings (size 3 to 8) (size 9 to 14) (size 15 to 20)
#    0.000    2.556    1.111    2.667    0.000    4.444 
#    0.000    8.333    0.000    3.333    0.000    0.000 
#    0.000    0.000    0.000    0.000    0.000    0.000 
#
# Total GULP energy -446305.833864 kJ/mol
# GULP energy per Si atom -12397.384274 kJ/mol
# Density = 1.908510 g / cm^3
# Si number density = 19.128634 Si / 1000 Ang^3
#
#
#
# Elastic Constant Matrix: (Units=GPa)
#
#
# Indices 1 2 3 4 5 6 
#
# 1 59.2202 33.0334 33.9885 0.0000 0.0000 0.0000
# 2 33.0334 88.9898 34.5709 0.0000 0.0000 0.0000
# 3 33.9885 34.5709 48.9523 0.0000 0.0000 0.0000
# 4 0.0000 0.0000 0.0000 -3.2594 0.0000 0.0000
# 5 0.0000 0.0000 0.0000 0.0000 16.9937 0.0000
# 6 0.0000 0.0000 0.0000 0.0000 0.0000 31.7639
#
#
#
# Elastic Compliance Matrix: (Units=1/GPa)
#
#
# Indices 1 2 3 4 5 6 
#
# 1 0.029105 -0.004070 -0.017334 0.000000 0.000000 0.000000
# 2 -0.004070 0.016055 -0.008512 0.000000 0.000000 0.000000
# 3 -0.017334 -0.008512 0.038475 0.000000 0.000000 0.000000
# 4 0.000000 0.000000 0.000000 -0.306805 0.000000 0.000000
# 5 0.000000 0.000000 0.000000 0.000000 0.058845 0.000000
# 6 0.000000 0.000000 0.000000 0.000000 0.000000 0.031482
#
#
# Mechanical properties :
#
#
# Convention : Reuss Voigt Hill
#
# Bulk Modulus (GPa) = 42.01273 44.48311 43.24792
# Shear Modulus (GPa) = -76.83269 15.47094 -30.68088
#
# Velocity S-wave (km/s) = -6.34457 2.84700 -4.00925
# Velocity P-wave (km/s) = 5.62676 5.84058 1.10725
#
# Compressibility (1/GPa) = 0.02380231
#
# Stress axis : x y z
#
# Youngs Moduli (GPa) = 34.35850 62.28608 25.99102
#
# Poissons Ratio (x) = 0.25351 0.45052
# Poissons Ratio (y) = 0.13984 0.22125
# Poissons Ratio (z) = 0.59556 0.53020
#
# Static dielectric constant tensor:
#      x y z
#    x 3.861210 0.000000 0.000000 
#    y 0.000000 3.449010 0.000000 
#    z 0.000000 0.000000 3.039790 
# 
# 
# High freq. dielectric constant tensor:
#      x y z
#    x 1.758160 0.000000 0.000000 
#    y 0.000000 1.744600 0.000000 
#    z 0.000000 0.000000 1.694350 
# 
# From -- ./inp_files/13618.got.cif
#   From: 2010.03.12/outbox.cif.g09.slc.cpg/sg65_7_cif.got.tgz:13618.got - 2010.04.10 20:52:16.
