data_PCOD8266646
_publ_section_title
;
Structure prediction by ZEFSAII (Michael W. Deem and Ramdas Pophale) SiO2 
 PCOD8266646
Probable space group: C M M M
;
_chemical_formula_sum "Si O2"
_cell_formula_units_Z 104
_cell_length_a 9.250115
_cell_length_b 26.458755
_cell_length_c 23.887002
_cell_angle_alpha 90.000000
_cell_angle_beta 90.000000
_cell_angle_gamma 90.000000
_cell_volume 5846.260768
_symmetry_space_group_name_H-M "C M M M"
_symmetry_group_IT_number 65
_symmetry_cell_setting 'orthorhombic'
loop_
_space_group_symop_operation_xyz
x,y,z
-x,-y,z
x,-y,-z
-x,y,-z
-x,-y,-z
x,y,-z
-x,y,z
x,-y,z
1/2+x,1/2+y,z
1/2-x,1/2-y,z
1/2+x,1/2-y,-z
1/2-x,1/2+y,-z
1/2-x,1/2-y,-z
1/2+x,1/2+y,-z
1/2-x,1/2+y,z
1/2+x,1/2-y,z
loop_
_atom_site_type_symbol
_atom_site_label
_atom_site_fract_x
_atom_site_fract_y
_atom_site_fract_z
Si Si1 0.339482 0.056439 0.257615
Si Si2 0.332242 0.058018 0.936063
Si Si3 0.829502 0.801105 0.358158
Si Si4 0.169678 0.399214 0.625590
Si Si5 0.330002 0.602037 0.836378
Si Si6 0.333090 0.701459 0.772161
Si Si7 0.828663 0.500000 0.563870
O O1 0.500000 0.068802 0.234536
O O2 0.300946 0.093057 0.308623
O O3 0.227614 0.060079 0.206695
O O4 0.333947 0.000000 0.282176
O O5 0.500000 0.065813 0.922448
O O6 0.238954 0.094923 0.897302
O O7 0.288043 0.000000 0.924865
O O8 0.298656 0.072709 0.000000
O O9 0.750000 0.750000 0.378885
O O10 0.759989 0.848985 0.391182
O O11 0.798015 0.809237 0.292546
O O12 0.000000 0.797491 0.371310
O O13 0.229764 0.448302 0.592312
O O14 0.000000 0.390388 0.612996
O O15 0.500000 0.596459 0.841736
O O16 0.281127 0.655437 0.810768
O O17 0.500000 0.712379 0.780729
O O18 0.250000 0.750000 0.794750
O O19 0.776153 0.500000 0.500000
O O20 0.000000 0.500000 0.569694
#
# Coordination Sequence:
#
# PCOD8266646 Si02
#       7
#    16  16  16  16  16  16   8
#     4  10  19  30  45  69 102 137 170 203 244 303
#     4   9  19  36  54  71  94 128 170 209 245 294
#     4  10  19  33  51  75 107 142 177 217 266 319
#     4  10  18  31  52  78 106 140 179 218 261 311
#     4  11  21  32  47  73 103 129 162 206 256 308
#     4   9  19  32  46  68  99 131 164 201 247 302
#     4   9  18  34  57  83 111 145 186 227 264 309
#
# _framework density 17.789148000000001
#
# number of rings (size 3 to 8) (size 9 to 14) (size 15 to 20)
#    0.000    2.231    2.308    1.846    0.000    4.615 
#    0.000    1.154    0.000    1.846    0.000    0.000 
#    0.000    0.000    0.000    0.000    0.000    0.000 
#
# Total GULP energy -644731.961336 kJ/mol
# GULP energy per Si atom -12398.691564 kJ/mol
# Density = 1.774866 g / cm^3
# Si number density = 17.789148 Si / 1000 Ang^3
#
#
#
# Elastic Constant Matrix: (Units=GPa)
#
#
# Indices 1 2 3 4 5 6 
#
# 1 64.2864 54.0905 31.4953 0.0000 0.0000 0.0000
# 2 54.0905 130.0576 39.3556 0.0000 0.0000 0.0000
# 3 31.4953 39.3556 61.2699 0.0000 0.0000 0.0000
# 4 0.0000 0.0000 0.0000 17.0423 0.0000 0.0000
# 5 0.0000 0.0000 0.0000 0.0000 13.9257 0.0000
# 6 0.0000 0.0000 0.0000 0.0000 0.0000 33.1621
#
#
#
# Elastic Compliance Matrix: (Units=1/GPa)
#
#
# Indices 1 2 3 4 5 6 
#
# 1 0.026915 -0.008698 -0.008248 0.000000 0.000000 0.000000
# 2 -0.008698 0.012355 -0.003465 0.000000 0.000000 0.000000
# 3 -0.008248 -0.003465 0.022787 0.000000 0.000000 0.000000
# 4 0.000000 0.000000 0.000000 0.058678 0.000000 0.000000
# 5 0.000000 0.000000 0.000000 0.000000 0.071810 0.000000
# 6 0.000000 0.000000 0.000000 0.000000 0.000000 0.030155
#
#
# Mechanical properties :
#
#
# Convention : Reuss Voigt Hill
#
# Bulk Modulus (GPa) = 47.09375 56.16631 51.63003
# Shear Modulus (GPa) = 18.47753 21.53751 20.00752
#
# Velocity S-wave (km/s) = 3.22638 3.48330 3.35730
# Velocity P-wave (km/s) = 6.35690 6.91518 6.64191
#
# Compressibility (1/GPa) = 0.02123424
#
# Stress axis : x y z
#
# Youngs Moduli (GPa) = 37.15434 80.94066 43.88490
#
# Poissons Ratio (x) = 0.70400 0.36198
# Poissons Ratio (y) = 0.32316 0.15205
# Poissons Ratio (z) = 0.30647 0.28045
#
# Static dielectric constant tensor:
#      x y z
#    x 3.190090 0.000000 0.000000 
#    y 0.000000 3.355190 0.000000 
#    z 0.000000 0.000000 3.038650 
# 
# 
# High freq. dielectric constant tensor:
#      x y z
#    x 1.679710 0.000000 0.000000 
#    y 0.000000 1.690750 0.000000 
#    z 0.000000 0.000000 1.659610 
# 
# From -- ./inp_files/68272.got.cif
#   From: 2010.03.12/outbox.cif.g09.slc.cpg/sg65_35_cif.got.tgz:68272.got - 2010.04.10 20:52:16.
