data_PCOD8266630
_publ_section_title
;
Structure prediction by ZEFSAII (Michael W. Deem and Ramdas Pophale) SiO2 
 PCOD8266630
Probable space group: C M M M
;
_chemical_formula_sum "Si O2"
_cell_formula_units_Z 96
_cell_length_a 8.529571
_cell_length_b 25.723177
_cell_length_c 23.629702
_cell_angle_alpha 90.000000
_cell_angle_beta 90.000000
_cell_angle_gamma 90.000000
_cell_volume 5184.537730
_symmetry_space_group_name_H-M "C M M M"
_symmetry_group_IT_number 65
_symmetry_cell_setting 'orthorhombic'
loop_
_space_group_symop_operation_xyz
x,y,z
-x,-y,z
x,-y,-z
-x,y,-z
-x,-y,-z
x,y,-z
-x,y,z
x,-y,z
1/2+x,1/2+y,z
1/2-x,1/2-y,z
1/2+x,1/2-y,-z
1/2-x,1/2+y,-z
1/2-x,1/2-y,-z
1/2+x,1/2+y,-z
1/2-x,1/2+y,z
1/2+x,1/2-y,z
loop_
_atom_site_type_symbol
_atom_site_label
_atom_site_fract_x
_atom_site_fract_y
_atom_site_fract_z
Si Si1 0.318200 0.099530 0.434565
Si Si2 0.314691 0.000000 0.249674
Si Si3 0.814124 0.599422 0.822340
Si Si4 0.316051 0.305019 0.372408
Si Si5 0.186566 0.441230 0.938346
Si Si6 0.316316 0.500000 0.372787
Si Si7 0.314182 0.805478 0.249873
O O1 0.287024 0.087562 0.500000
O O2 0.500000 0.109167 0.421621
O O3 0.223782 0.151101 0.417935
O O4 0.260288 0.050858 0.399124
O O5 0.261869 0.949807 0.214453
O O6 0.500000 0.000000 0.263062
O O7 0.215423 0.000000 0.306524
O O8 0.747602 0.593849 0.886630
O O9 0.747313 0.651818 0.793987
O O10 0.000000 0.601909 0.823933
O O11 0.500000 0.299661 0.364467
O O12 0.250000 0.250000 0.394381
O O13 0.242135 0.320560 0.312369
O O14 0.248332 0.500000 0.930460
O O15 0.000000 0.441912 0.935898
O O16 0.242297 0.419565 0.000000
O O17 0.500000 0.500000 0.385374
O O18 0.500000 0.804217 0.250134
O O19 0.250000 0.750000 0.230026
#
# Coordination Sequence:
#
# PCOD8266630 Si02
#       7
#    16   8  16  16  16   8  16
#     4  11  24  42  62  82 106 140 180 218 261 315
#     4  10  18  31  52  76 104 133 163 206 263 322
#     4   9  16  26  44  71 100 131 168 208 258 314
#     4  11  22  38  60  84 111 139 173 219 269 320
#     4   8  12  20  37  64 100 133 161 202 258 313
#     4  12  25  39  56  80 111 143 179 220 265 318
#     4  10  19  32  50  72 101 137 176 214 254 307
#
# _framework density 18.516597000000001
#
# number of rings (size 3 to 8) (size 9 to 14) (size 15 to 20)
#    0.000    2.000    0.833    6.000    0.000    4.000 
#    0.000    0.833    0.000    0.500    0.000    0.000 
#    0.000    6.000    0.000    0.000    0.000    0.667 
#
# Total GULP energy -595147.249103 kJ/mol
# GULP energy per Si atom -12398.901023 kJ/mol
# Density = 1.847445 g / cm^3
# Si number density = 18.516597 Si / 1000 Ang^3
#
#
#
# Elastic Constant Matrix: (Units=GPa)
#
#
# Indices 1 2 3 4 5 6 
#
# 1 52.8563 22.1581 18.2174 0.0000 0.0000 0.0000
# 2 22.1581 113.6946 57.7146 0.0000 0.0000 0.0000
# 3 18.2174 57.7146 116.6829 0.0000 0.0000 0.0000
# 4 0.0000 0.0000 0.0000 90.0843 0.0000 0.0000
# 5 0.0000 0.0000 0.0000 0.0000 12.0588 0.0000
# 6 0.0000 0.0000 0.0000 0.0000 0.0000 22.9425
#
#
#
# Elastic Compliance Matrix: (Units=1/GPa)
#
#
# Indices 1 2 3 4 5 6 
#
# 1 0.020841 -0.003218 -0.001662 0.000000 0.000000 0.000000
# 2 -0.003218 0.012241 -0.005552 0.000000 0.000000 0.000000
# 3 -0.001662 -0.005552 0.011576 0.000000 0.000000 0.000000
# 4 0.000000 0.000000 0.000000 0.011101 0.000000 0.000000
# 5 0.000000 0.000000 0.000000 0.000000 0.082927 0.000000
# 6 0.000000 0.000000 0.000000 0.000000 0.000000 0.043587
#
#
# Mechanical properties :
#
#
# Convention : Reuss Voigt Hill
#
# Bulk Modulus (GPa) = 42.02863 53.26822 47.64842
# Shear Modulus (GPa) = 23.68885 37.36003 30.52444
#
# Velocity S-wave (km/s) = 3.58065 4.49670 4.06457
# Velocity P-wave (km/s) = 6.31204 7.46932 6.91493
#
# Compressibility (1/GPa) = 0.02379330
#
# Stress axis : x y z
#
# Youngs Moduli (GPa) = 47.98204 81.69125 86.38463
#
# Poissons Ratio (x) = 0.26288 0.14359
# Poissons Ratio (y) = 0.15441 0.47964
# Poissons Ratio (z) = 0.07975 0.45358
#
# Static dielectric constant tensor:
#      x y z
#    x 3.165670 0.000000 0.000000 
#    y 0.000000 3.585230 0.000000 
#    z 0.000000 0.000000 3.720760 
# 
# 
# High freq. dielectric constant tensor:
#      x y z
#    x 1.695800 0.000000 0.000000 
#    y 0.000000 1.715890 0.000000 
#    z 0.000000 0.000000 1.723940 
# 
# From -- ./inp_files/68093.got.cif
#   From: 2010.03.12/outbox.cif.g09.slc.cpg/sg65_35_cif.got.tgz:68093.got - 2010.04.10 20:52:16.
