data_PCOD8266899
_publ_section_title
;
Structure prediction by ZEFSAII (Michael W. Deem and Ramdas Pophale) SiO2 
 PCOD8266899
Probable space group: C M M M
;
_chemical_formula_sum "Si O2"
_cell_formula_units_Z 88
_cell_length_a 7.832662
_cell_length_b 28.631974
_cell_length_c 19.407634
_cell_angle_alpha 90.000000
_cell_angle_beta 90.000000
_cell_angle_gamma 90.000000
_cell_volume 4352.444786
_symmetry_space_group_name_H-M "C M M M"
_symmetry_group_IT_number 65
_symmetry_cell_setting 'orthorhombic'
loop_
_space_group_symop_operation_xyz
x,y,z
-x,-y,z
x,-y,-z
-x,y,-z
-x,-y,-z
x,y,-z
-x,y,z
x,-y,z
1/2+x,1/2+y,z
1/2-x,1/2-y,z
1/2+x,1/2-y,-z
1/2-x,1/2+y,-z
1/2-x,1/2-y,-z
1/2+x,1/2+y,-z
1/2-x,1/2+y,z
1/2+x,1/2-y,z
loop_
_atom_site_type_symbol
_atom_site_label
_atom_site_fract_x
_atom_site_fract_y
_atom_site_fract_z
Si Si1 0.196658 0.101553 0.339881
Si Si2 0.500000 0.946370 0.418689
Si Si3 0.200756 0.699858 0.695166
Si Si4 0.299285 0.799484 0.850313
Si Si5 0.299726 0.447877 0.799418
Si Si6 0.197952 0.389132 0.924540
O O1 0.325760 0.077749 0.393024
O O2 0.210733 0.157641 0.346340
O O3 0.255783 0.085690 0.263259
O O4 0.000000 0.086243 0.355291
O O5 0.500000 0.941934 0.500000
O O6 0.500000 0.000000 0.394292
O O7 0.250000 0.750000 0.661559
O O8 0.275549 0.698672 0.772866
O O9 0.000000 0.691883 0.692410
O O10 0.500000 0.805429 0.846623
O O11 0.250000 0.750000 0.884965
O O12 0.216856 0.841653 0.894331
O O13 0.500000 0.447833 0.807804
O O14 0.231018 0.500000 0.784216
O O15 0.222725 0.431410 0.871797
O O16 0.000000 0.379845 0.934399
O O17 0.278636 0.400532 0.000000
#
# Coordination Sequence:
#
# PCOD8266899 Si02
#       6
#    16   8  16  16  16  16
#     4  11  22  40  67  99 131 167 211 263 313 369
#     4  11  26  46  70 102 137 175 213 249 305 379
#     4  10  18  32  57  93 128 162 208 262 316 371
#     4   9  18  31  49  74 109 147 192 247 301 363
#     4  10  22  38  57  82 111 147 198 255 309 364
#     4  10  21  36  52  74 108 150 197 249 307 368
#
# _framework density 20.218522
#
# number of rings (size 3 to 8) (size 9 to 14) (size 15 to 20)
#    0.000    1.909    2.727    1.091    1.273    4.364 
#    0.000    2.727    0.000    0.545    0.000    0.000 
#    0.000    0.000    0.000    0.000    0.000    0.000 
#
# Total GULP energy -545513.481650 kJ/mol
# GULP energy per Si atom -12398.033674 kJ/mol
# Density = 2.017250 g / cm^3
# Si number density = 20.218522 Si / 1000 Ang^3
#
#
#
# Elastic Constant Matrix: (Units=GPa)
#
#
# Indices 1 2 3 4 5 6 
#
# 1 66.8298 29.9389 29.0101 0.0000 0.0000 0.0000
# 2 29.9389 150.9265 42.2880 0.0000 0.0000 0.0000
# 3 29.0101 42.2880 76.1401 0.0000 0.0000 0.0000
# 4 0.0000 0.0000 0.0000 25.6886 0.0000 0.0000
# 5 0.0000 0.0000 0.0000 0.0000 19.5360 0.0000
# 6 0.0000 0.0000 0.0000 0.0000 0.0000 29.2866
#
#
#
# Elastic Compliance Matrix: (Units=1/GPa)
#
#
# Indices 1 2 3 4 5 6 
#
# 1 0.018424 -0.001999 -0.005910 0.000000 0.000000 0.000000
# 2 -0.001999 0.008064 -0.003717 0.000000 0.000000 0.000000
# 3 -0.005910 -0.003717 0.017450 0.000000 0.000000 0.000000
# 4 0.000000 0.000000 0.000000 0.038928 0.000000 0.000000
# 5 0.000000 0.000000 0.000000 0.000000 0.051187 0.000000
# 6 0.000000 0.000000 0.000000 0.000000 0.000000 0.034145
#
#
# Mechanical properties :
#
#
# Convention : Reuss Voigt Hill
#
# Bulk Modulus (GPa) = 48.34041 55.15226 51.74634
# Shear Modulus (GPa) = 25.20866 27.74621 26.47743
#
# Velocity S-wave (km/s) = 3.53485 3.70850 3.62271
# Velocity P-wave (km/s) = 6.37347 6.75830 6.56870
#
# Compressibility (1/GPa) = 0.02068663
#
# Stress axis : x y z
#
# Youngs Moduli (GPa) = 54.27648 124.01229 57.30768
#
# Poissons Ratio (x) = 0.24790 0.33866
# Poissons Ratio (y) = 0.10850 0.21301
# Poissons Ratio (z) = 0.32075 0.46095
#
# Static dielectric constant tensor:
#      x y z
#    x 3.510000 0.000000 0.000000 
#    y 0.000000 3.945560 0.000000 
#    z 0.000000 0.000000 3.517030 
# 
# 
# High freq. dielectric constant tensor:
#      x y z
#    x 1.783350 0.000000 0.000000 
#    y 0.000000 1.804210 0.000000 
#    z 0.000000 0.000000 1.749780 
# 
# From -- ./inp_files/50423.got.cif
#   From: 2010.03.12/outbox.cif.g09.slc.cpg/sg65_26_cif.got.tgz:50423.got - 2010.04.10 20:52:16.
