data_PCOD8266146
_publ_section_title
;
Structure prediction by ZEFSAII (Michael W. Deem and Ramdas Pophale) SiO2 
 PCOD8266146
Probable space group: C M M M
;
_chemical_formula_sum "Si O2"
_cell_formula_units_Z 88
_cell_length_a 8.739843
_cell_length_b 23.826654
_cell_length_c 22.984840
_cell_angle_alpha 90.000000
_cell_angle_beta 90.000000
_cell_angle_gamma 90.000000
_cell_volume 4786.391012
_symmetry_space_group_name_H-M "C M M M"
_symmetry_group_IT_number 65
_symmetry_cell_setting 'orthorhombic'
loop_
_space_group_symop_operation_xyz
x,y,z
-x,-y,z
x,-y,-z
-x,y,-z
-x,-y,-z
x,y,-z
-x,y,z
x,-y,z
1/2+x,1/2+y,z
1/2-x,1/2-y,z
1/2+x,1/2-y,-z
1/2-x,1/2+y,-z
1/2-x,1/2-y,-z
1/2+x,1/2+y,-z
1/2-x,1/2+y,z
1/2+x,1/2-y,z
loop_
_atom_site_type_symbol
_atom_site_label
_atom_site_fract_x
_atom_site_fract_y
_atom_site_fract_z
Si Si1 0.318109 0.311378 0.785741
Si Si2 0.318603 0.310125 0.435680
Si Si3 0.180862 0.564380 0.000000
Si Si4 0.822277 0.122638 0.327598
Si Si5 0.324923 0.500000 0.701031
Si Si6 0.823448 0.500000 0.819402
Si Si7 0.681777 0.110827 0.122074
O O1 0.500000 0.307846 0.787192
O O2 0.250000 0.250000 0.775904
O O3 0.256393 0.351037 0.732606
O O4 0.260367 0.335554 0.847749
O O5 0.268674 0.331761 0.500000
O O6 0.500000 0.306238 0.432071
O O7 0.250000 0.250000 0.422800
O O8 0.249384 0.350340 0.385630
O O9 0.232796 0.601809 0.055193
O O10 0.248407 0.500000 0.000000
O O11 0.000000 0.557373 0.000000
O O12 0.792327 0.056218 0.335269
O O13 0.000000 0.136489 0.326715
O O14 0.500000 0.500000 0.724925
O O15 0.202083 0.500000 0.751510
O O16 0.750642 0.555960 0.845895
O O17 0.000000 0.500000 0.836296
O O18 0.500000 0.117731 0.128345
#
# Coordination Sequence:
#
# PCOD8266146 Si02
#       7
#    16  16   8  16   8   8  16
#     4  11  22  36  53  74 102 135 172 212 256 301
#     4   9  17  31  50  72  98 129 168 210 249 292
#     4   9  16  30  54  81 106 133 164 202 249 300
#     4   9  18  31  50  75 101 131 165 205 251 301
#     4  10  18  32  50  71 103 138 165 196 252 310
#     4  10  18  29  50  79 107 131 163 206 248 294
#     4  10  19  33  54  80 107 133 166 206 250 301
#
# _framework density 18.385459999999998
#
# number of rings (size 3 to 8) (size 9 to 14) (size 15 to 20)
#    0.000    2.273    2.727    1.091    0.000    0.000 
#    0.000    3.182    0.000    3.273    0.000    0.000 
#    0.000    3.636    0.000    0.000    0.000    0.000 
#
# Total GULP energy -545287.622627 kJ/mol
# GULP energy per Si atom -12392.900514 kJ/mol
# Density = 1.834361 g / cm^3
# Si number density = 18.385460 Si / 1000 Ang^3
#
#
#
# Elastic Constant Matrix: (Units=GPa)
#
#
# Indices 1 2 3 4 5 6 
#
# 1 27.9182 24.7295 20.8954 0.0000 0.0000 0.0000
# 2 24.7295 133.2373 77.4994 0.0000 0.0000 0.0000
# 3 20.8954 77.4994 154.6938 0.0000 0.0000 0.0000
# 4 0.0000 0.0000 0.0000 36.8493 0.0000 0.0000
# 5 0.0000 0.0000 0.0000 0.0000 19.0510 0.0000
# 6 0.0000 0.0000 0.0000 0.0000 0.0000 18.1191
#
#
#
# Elastic Compliance Matrix: (Units=1/GPa)
#
#
# Indices 1 2 3 4 5 6 
#
# 1 0.043589 -0.006584 -0.002589 0.000000 0.000000 0.000000
# 2 -0.006584 0.011587 -0.004915 0.000000 0.000000 0.000000
# 3 -0.002589 -0.004915 0.009277 0.000000 0.000000 0.000000
# 4 0.000000 0.000000 0.000000 0.027138 0.000000 0.000000
# 5 0.000000 0.000000 0.000000 0.000000 0.052491 0.000000
# 6 0.000000 0.000000 0.000000 0.000000 0.000000 0.055190
#
#
# Mechanical properties :
#
#
# Convention : Reuss Voigt Hill
#
# Bulk Modulus (GPa) = 27.56745 62.45532 45.01138
# Shear Modulus (GPa) = 20.87333 27.65221 24.26277
#
# Velocity S-wave (km/s) = 3.37310 3.88238 3.63667
# Velocity P-wave (km/s) = 5.49519 7.35805 6.49377
#
# Compressibility (1/GPa) = 0.03627467
#
# Stress axis : x y z
#
# Youngs Moduli (GPa) = 22.94150 86.30691 107.79786
#
# Poissons Ratio (x) = 0.56827 0.27911
# Poissons Ratio (y) = 0.15105 0.52986
# Poissons Ratio (z) = 0.05940 0.42423
#
# Static dielectric constant tensor:
#      x y z
#    x 3.044260 0.000000 0.000000 
#    y 0.000000 3.430620 0.000000 
#    z 0.000000 0.000000 3.694680 
# 
# 
# High freq. dielectric constant tensor:
#      x y z
#    x 1.678710 0.000000 0.000000 
#    y 0.000000 1.711080 0.000000 
#    z 0.000000 0.000000 1.716550 
# 
# From -- ./inp_files/59900.got.cif
#   From: 2010.03.12/outbox.cif.g09.slc.cpg/sg65_30_cif.got.tgz:59900.got - 2010.04.10 20:52:16.
