data_PCOD8266424
_publ_section_title
;
Structure prediction by ZEFSAII (Michael W. Deem and Ramdas Pophale) SiO2 
 PCOD8266424
Probable space group: C M M M
;
_chemical_formula_sum "Si O2"
_cell_formula_units_Z 104
_cell_length_a 8.989839
_cell_length_b 28.808099
_cell_length_c 22.686470
_cell_angle_alpha 90.000000
_cell_angle_beta 90.000000
_cell_angle_gamma 90.000000
_cell_volume 5875.345901
_symmetry_space_group_name_H-M "C M M M"
_symmetry_group_IT_number 65
_symmetry_cell_setting 'orthorhombic'
loop_
_space_group_symop_operation_xyz
x,y,z
-x,-y,z
x,-y,-z
-x,y,-z
-x,-y,-z
x,y,-z
-x,y,z
x,-y,z
1/2+x,1/2+y,z
1/2-x,1/2-y,z
1/2+x,1/2-y,-z
1/2-x,1/2+y,-z
1/2-x,1/2-y,-z
1/2+x,1/2+y,-z
1/2-x,1/2+y,z
1/2+x,1/2-y,z
loop_
_atom_site_type_symbol
_atom_site_label
_atom_site_fract_x
_atom_site_fract_y
_atom_site_fract_z
Si Si1 0.328240 0.298413 0.223148
Si Si2 0.176308 0.050649 0.850709
Si Si3 0.326561 0.202414 0.431775
Si Si4 0.173196 0.853208 0.104439
Si Si5 0.176258 0.949157 0.281062
Si Si6 0.676607 0.644318 0.663784
Si Si7 0.675943 0.199976 0.000000
O O1 0.500000 0.287325 0.229677
O O2 0.250000 0.250000 0.212221
O O3 0.297099 0.331863 0.168372
O O4 0.270191 0.323282 0.282231
O O5 0.226476 0.092828 0.893052
O O6 0.242164 0.057181 0.784842
O O7 0.000000 0.052619 0.845603
O O8 0.226677 0.000000 0.876044
O O9 0.293688 0.192281 0.500000
O O10 0.500000 0.206954 0.418429
O O11 0.250000 0.250000 0.411113
O O12 0.257277 0.160038 0.395630
O O13 0.275414 0.827733 0.057623
O O14 0.000000 0.848558 0.086178
O O15 0.233394 0.908174 0.323544
O O16 0.000000 0.945263 0.276703
O O17 0.223371 0.000000 0.306078
O O18 0.500000 0.646635 0.655009
O O19 0.750000 0.250000 0.000000
O O20 0.500000 0.206371 0.000000
#
# Coordination Sequence:
#
# PCOD8266424 Si02
#       7
#    16  16  16  16  16  16   8
#     4  10  20  31  46  72 103 131 161 203 253 303
#     4   8  13  25  50  81 108 133 164 205 251 298
#     4  10  21  36  52  71  98 135 177 216 254 300
#     4  10  19  35  56  78 104 134 170 210 252 302
#     4   8  13  24  46  77 109 136 163 202 252 301
#     4  10  18  30  50  78 107 133 166 207 255 305
#     4  12  26  42  57  74  97 133 178 217 257 304
#
# _framework density 17.701086
#
# number of rings (size 3 to 8) (size 9 to 14) (size 15 to 20)
#    0.000    2.462    1.538    3.000    0.000    4.615 
#    0.000    0.385    0.000    3.692    0.000    5.385 
#    0.000    0.000    0.000    0.000    0.000    0.000 
#
# Total GULP energy -644591.770308 kJ/mol
# GULP energy per Si atom -12395.995583 kJ/mol
# Density = 1.766080 g / cm^3
# Si number density = 17.701086 Si / 1000 Ang^3
#
#
#
# Elastic Constant Matrix: (Units=GPa)
#
#
# Indices 1 2 3 4 5 6 
#
# 1 54.5469 46.1601 36.6889 0.0000 0.0000 0.0000
# 2 46.1601 166.3925 54.1347 0.0000 0.0000 0.0000
# 3 36.6889 54.1347 75.5660 0.0000 0.0000 0.0000
# 4 0.0000 0.0000 0.0000 29.6591 0.0000 0.0000
# 5 0.0000 0.0000 0.0000 0.0000 23.2713 0.0000
# 6 0.0000 0.0000 0.0000 0.0000 0.0000 19.0987
#
#
#
# Elastic Compliance Matrix: (Units=1/GPa)
#
#
# Indices 1 2 3 4 5 6 
#
# 1 0.029729 -0.004630 -0.011117 0.000000 0.000000 0.000000
# 2 -0.004630 0.008558 -0.003882 0.000000 0.000000 0.000000
# 3 -0.011117 -0.003882 0.021412 0.000000 0.000000 0.000000
# 4 0.000000 0.000000 0.000000 0.033716 0.000000 0.000000
# 5 0.000000 0.000000 0.000000 0.000000 0.042971 0.000000
# 6 0.000000 0.000000 0.000000 0.000000 0.000000 0.052359
#
#
# Mechanical properties :
#
#
# Convention : Reuss Voigt Hill
#
# Bulk Modulus (GPa) = 48.92536 63.38587 56.15561
# Shear Modulus (GPa) = 21.29313 25.04061 23.16687
#
# Velocity S-wave (km/s) = 3.47209 3.76525 3.62163
# Velocity P-wave (km/s) = 6.61616 7.40200 7.02008
#
# Compressibility (1/GPa) = 0.02043930
#
# Stress axis : x y z
#
# Youngs Moduli (GPa) = 33.63772 116.85577 46.70261
#
# Poissons Ratio (x) = 0.54110 0.51917
# Poissons Ratio (y) = 0.15576 0.18132
# Poissons Ratio (z) = 0.37394 0.45367
#
# Static dielectric constant tensor:
#      x y z
#    x 2.940840 0.000000 0.000000 
#    y 0.000000 3.712150 0.000000 
#    z 0.000000 0.000000 3.210320 
# 
# 
# High freq. dielectric constant tensor:
#      x y z
#    x 1.647630 0.000000 0.000000 
#    y 0.000000 1.700680 0.000000 
#    z 0.000000 0.000000 1.668700 
# 
# From -- ./inp_files/68189.got.cif
#   From: 2010.03.12/outbox.cif.g09.slc.cpg/sg65_35_cif.got.tgz:68189.got - 2010.04.10 20:52:16.
