data_PCOD8266527
_publ_section_title
;
Structure prediction by ZEFSAII (Michael W. Deem and Ramdas Pophale) SiO2 
 PCOD8266527
Probable space group: C M M M
;
_chemical_formula_sum "Si O2"
_cell_formula_units_Z 80
_cell_length_a 28.319252
_cell_length_b 11.873049
_cell_length_c 15.500546
_cell_angle_alpha 90.000000
_cell_angle_beta 90.000000
_cell_angle_gamma 90.000000
_cell_volume 5211.839518
_symmetry_space_group_name_H-M "C M M M"
_symmetry_group_IT_number 65
_symmetry_cell_setting 'orthorhombic'
loop_
_space_group_symop_operation_xyz
x,y,z
-x,-y,z
x,-y,-z
-x,y,-z
-x,-y,-z
x,y,-z
-x,y,z
x,-y,z
1/2+x,1/2+y,z
1/2-x,1/2-y,z
1/2+x,1/2-y,-z
1/2-x,1/2+y,-z
1/2-x,1/2-y,-z
1/2+x,1/2+y,-z
1/2-x,1/2+y,z
1/2+x,1/2-y,z
loop_
_atom_site_type_symbol
_atom_site_label
_atom_site_fract_x
_atom_site_fract_y
_atom_site_fract_z
Si Si1 0.612240 0.129835 0.599858
Si Si2 0.943912 0.372621 0.094630
Si Si3 0.445903 0.744488 0.258274
Si Si4 0.300913 0.277057 0.399520
Si Si5 0.946944 0.000000 0.313417
Si Si6 0.349654 0.500000 0.600961
O O1 0.598041 0.148314 0.500000
O O2 0.577905 0.205708 0.656549
O O3 0.665905 0.169148 0.615845
O O4 0.607951 0.000000 0.626933
O O5 0.927649 0.500000 0.113792
O O6 0.922847 0.293682 0.170294
O O7 0.000000 0.364633 0.093522
O O8 0.924789 0.334517 0.000000
O O9 0.500000 0.782427 0.264278
O O10 0.440661 0.609805 0.253731
O O11 0.293445 0.301182 0.500000
O O12 0.250000 0.250000 0.356476
O O13 0.324986 0.388859 0.357959
O O14 0.906074 0.000000 0.384861
O O15 0.000000 0.000000 0.355621
O O16 0.342103 0.500000 0.500000
#
# Coordination Sequence:
#
# PCOD8266527 Si02
#       6
#    16  16  16  16   8   8
#     4  10  20  31  43  62  88 116 148 185 224 267
#     4   8  14  26  45  66  85 109 145 186 227 269
#     4  10  19  31  45  62  88 121 153 186 222 260
#     4   9  18  30  45  63  83 110 147 191 235 273
#     4  10  20  31  43  62  90 125 159 187 216 261
#     4  10  18  31  48  63  83 120 163 197 231 267
#
# _framework density 15.349667999999999
#
# number of rings (size 3 to 8) (size 9 to 14) (size 15 to 20)
#    0.000    2.600    2.000    1.200    1.400    1.800 
#    0.000    3.500    0.000    3.000    0.000    0.000 
#    0.000    0.800    0.000    1.400    0.000    0.000 
#
# Total GULP energy -495735.517862 kJ/mol
# GULP energy per Si atom -12393.387947 kJ/mol
# Density = 1.531473 g / cm^3
# Si number density = 15.349668 Si / 1000 Ang^3
#
#
#
# Elastic Constant Matrix: (Units=GPa)
#
#
# Indices 1 2 3 4 5 6 
#
# 1 75.3446 38.3597 28.0917 0.0000 0.0000 0.0000
# 2 38.3597 115.2970 46.1691 0.0000 0.0000 0.0000
# 3 28.0917 46.1691 69.0722 0.0000 0.0000 0.0000
# 4 0.0000 0.0000 0.0000 16.7098 0.0000 0.0000
# 5 0.0000 0.0000 0.0000 0.0000 1.6518 0.0000
# 6 0.0000 0.0000 0.0000 0.0000 0.0000 21.3969
#
#
#
# Elastic Compliance Matrix: (Units=1/GPa)
#
#
# Indices 1 2 3 4 5 6 
#
# 1 0.016841 -0.003906 -0.004239 0.000000 0.000000 0.000000
# 2 -0.003906 0.012749 -0.006933 0.000000 0.000000 0.000000
# 3 -0.004239 -0.006933 0.020836 0.000000 0.000000 0.000000
# 4 0.000000 0.000000 0.000000 0.059845 0.000000 0.000000
# 5 0.000000 0.000000 0.000000 0.000000 0.605388 0.000000
# 6 0.000000 0.000000 0.000000 0.000000 0.000000 0.046736
#
#
# Mechanical properties :
#
#
# Convention : Reuss Voigt Hill
#
# Bulk Modulus (GPa) = 49.33222 53.88387 51.60805
# Shear Modulus (GPa) = 6.25542 17.75792 12.00667
#
# Velocity S-wave (km/s) = 2.02092 3.40500 2.79984
# Velocity P-wave (km/s) = 6.13630 7.11612 6.64430
#
# Compressibility (1/GPa) = 0.02027073
#
# Stress axis : x y z
#
# Youngs Moduli (GPa) = 59.37809 78.43730 47.99460
#
# Poissons Ratio (x) = 0.30636 0.20343
# Poissons Ratio (y) = 0.23192 0.33275
# Poissons Ratio (z) = 0.25168 0.54382
#
# Static dielectric constant tensor:
#      x y z
#    x 2.857720 0.000000 0.000000 
#    y 0.000000 3.242890 0.000000 
#    z 0.000000 0.000000 2.886570 
# 
# 
# High freq. dielectric constant tensor:
#      x y z
#    x 1.564570 0.000000 0.000000 
#    y 0.000000 1.604010 0.000000 
#    z 0.000000 0.000000 1.548490 
# 
# From -- ./inp_files/46710.got.cif
#   From: 2010.03.12/outbox.cif.g09.slc.cpg/sg65_24_cif.got.tgz:46710.got - 2010.04.10 20:52:16.
