data_PCOD8266815
_publ_section_title
;
Structure prediction by ZEFSAII (Michael W. Deem and Ramdas Pophale) SiO2 
 PCOD8266815
Probable space group: C M M M
;
_chemical_formula_sum "Si O2"
_cell_formula_units_Z 104
_cell_length_a 8.702656
_cell_length_b 19.647376
_cell_length_c 32.597316
_cell_angle_alpha 90.000000
_cell_angle_beta 90.000000
_cell_angle_gamma 90.000000
_cell_volume 5573.631039
_symmetry_space_group_name_H-M "C M M M"
_symmetry_group_IT_number 65
_symmetry_cell_setting 'orthorhombic'
loop_
_space_group_symop_operation_xyz
x,y,z
-x,-y,z
x,-y,-z
-x,y,-z
-x,-y,-z
x,y,-z
-x,y,z
x,-y,z
1/2+x,1/2+y,z
1/2-x,1/2-y,z
1/2+x,1/2-y,-z
1/2-x,1/2+y,-z
1/2-x,1/2-y,-z
1/2+x,1/2+y,-z
1/2-x,1/2+y,z
1/2+x,1/2-y,z
loop_
_atom_site_type_symbol
_atom_site_label
_atom_site_fract_x
_atom_site_fract_y
_atom_site_fract_z
Si Si1 0.818704 0.175341 0.082925
Si Si2 0.682796 0.174797 0.000000
Si Si3 0.821167 0.578985 0.149422
Si Si4 0.821407 0.319168 0.607334
Si Si5 0.323410 0.420841 0.453635
Si Si6 0.323344 0.579003 0.764538
Si Si7 0.317652 0.178726 0.700361
O O1 0.750000 0.250000 0.091708
O O2 0.780302 0.124984 0.119738
O O3 0.000000 0.182749 0.077678
O O4 0.746711 0.140842 0.041714
O O5 0.750000 0.250000 0.000000
O O6 0.500000 0.173569 0.000000
O O7 0.783984 0.500000 0.140500
O O8 0.774532 0.598453 0.195479
O O9 0.000000 0.595244 0.142933
O O10 0.750000 0.250000 0.589470
O O11 0.781571 0.381612 0.578268
O O12 0.763310 0.333551 0.653519
O O13 0.000000 0.307752 0.607831
O O14 0.277938 0.400381 0.500000
O O15 0.500000 0.402410 0.445361
O O16 0.293340 0.500000 0.446610
O O17 0.500000 0.599158 0.772231
O O18 0.306299 0.500000 0.754024
O O19 0.255349 0.618267 0.726066
O O20 0.500000 0.178608 0.705357
O O21 0.250000 0.250000 0.716596
#
# Coordination Sequence:
#
# PCOD8266815 Si02
#       7
#    16   8  16  16  16  16  16
#     4  11  21  35  56  82 111 142 181 224 267 317
#     4  10  18  32  53  78 109 142 179 221 269 319
#     4  10  21  38  58  80 109 143 178 220 270 319
#     4  10  21  36  55  79 107 140 177 218 264 315
#     4   9  19  36  56  78 106 140 177 218 264 313
#     4  10  21  37  57  81 108 140 178 217 261 316
#     4  10  21  37  56  79 108 140 176 219 266 314
#
# _framework density 18.659291
#
# number of rings (size 3 to 8) (size 9 to 14) (size 15 to 20)
#    0.000    2.000    0.000    5.308    0.000    5.846 
#    0.000    7.308    0.000    2.308    0.000    0.000 
#    0.000    0.000    0.000    0.000    0.000    0.000 
#
# Total GULP energy -644914.708765 kJ/mol
# GULP energy per Si atom -12402.205938 kJ/mol
# Density = 1.861682 g / cm^3
# Si number density = 18.659291 Si / 1000 Ang^3
#
#
#
# Elastic Constant Matrix: (Units=GPa)
#
#
# Indices 1 2 3 4 5 6 
#
# 1 104.5733 38.4024 39.9596 0.0000 0.0000 0.0000
# 2 38.4024 70.1348 58.0575 0.0000 0.0000 0.0000
# 3 39.9596 58.0575 103.4975 0.0000 0.0000 0.0000
# 4 0.0000 0.0000 0.0000 31.9074 0.0000 0.0000
# 5 0.0000 0.0000 0.0000 0.0000 36.8235 0.0000
# 6 0.0000 0.0000 0.0000 0.0000 0.0000 33.5606
#
#
#
# Elastic Compliance Matrix: (Units=1/GPa)
#
#
# Indices 1 2 3 4 5 6 
#
# 1 0.012144 -0.005168 -0.001790 0.000000 0.000000 0.000000
# 2 -0.005168 0.028818 -0.014170 0.000000 0.000000 0.000000
# 3 -0.001790 -0.014170 0.018302 0.000000 0.000000 0.000000
# 4 0.000000 0.000000 0.000000 0.031341 0.000000 0.000000
# 5 0.000000 0.000000 0.000000 0.000000 0.027157 0.000000
# 6 0.000000 0.000000 0.000000 0.000000 0.000000 0.029797
#
#
# Mechanical properties :
#
#
# Convention : Reuss Voigt Hill
#
# Bulk Modulus (GPa) = 58.79529 61.22720 60.01125
# Shear Modulus (GPa) = 25.57738 29.91070 27.74404
#
# Velocity S-wave (km/s) = 3.70639 4.00808 3.86019
# Velocity P-wave (km/s) = 7.06362 7.36913 7.21800
#
# Compressibility (1/GPa) = 0.01700816
#
# Stress axis : x y z
#
# Youngs Moduli (GPa) = 82.34188 34.70012 54.63854
#
# Poissons Ratio (x) = 0.17933 0.09779
# Poissons Ratio (y) = 0.42555 0.77425
# Poissons Ratio (z) = 0.14738 0.49172
#
# Static dielectric constant tensor:
#      x y z
#    x 3.512810 0.000000 0.000000 
#    y 0.000000 3.290430 0.000000 
#    z 0.000000 0.000000 3.674940 
# 
# 
# High freq. dielectric constant tensor:
#      x y z
#    x 1.738880 0.000000 0.000000 
#    y 0.000000 1.712420 0.000000 
#    z 0.000000 0.000000 1.732390 
# 
# From -- ./inp_files/73347.got.cif
#   From: 2010.03.12/outbox.cif.g09.slc.cpg/sg65_37_cif.got.tgz:73347.got - 2010.04.10 20:52:16.
