data_PCOD8266571
_publ_section_title
;
Structure prediction by ZEFSAII (Michael W. Deem and Ramdas Pophale) SiO2 
 PCOD8266571
Probable space group: C M M M
;
_chemical_formula_sum "Si O2"
_cell_formula_units_Z 88
_cell_length_a 16.795566
_cell_length_b 30.484644
_cell_length_c 9.242129
_cell_angle_alpha 90.000000
_cell_angle_beta 90.000000
_cell_angle_gamma 90.000000
_cell_volume 4732.033359
_symmetry_space_group_name_H-M "C M M M"
_symmetry_group_IT_number 65
_symmetry_cell_setting 'orthorhombic'
loop_
_space_group_symop_operation_xyz
x,y,z
-x,-y,z
x,-y,-z
-x,y,-z
-x,-y,-z
x,y,-z
-x,y,z
x,-y,z
1/2+x,1/2+y,z
1/2-x,1/2-y,z
1/2+x,1/2-y,-z
1/2-x,1/2+y,-z
1/2-x,1/2-y,-z
1/2+x,1/2+y,-z
1/2-x,1/2+y,z
1/2+x,1/2-y,z
loop_
_atom_site_type_symbol
_atom_site_label
_atom_site_fract_x
_atom_site_fract_y
_atom_site_fract_z
Si Si1 0.000000 0.851933 0.671670
Si Si2 0.090224 0.000000 0.672571
Si Si3 0.500000 0.736299 0.165038
Si Si4 0.189827 0.629331 0.327629
Si Si5 0.827250 0.720145 0.832161
Si Si6 0.910376 0.452157 0.328152
Si Si7 0.144768 0.907743 0.671960
O O1 0.075457 0.877437 0.734630
O O2 0.000000 0.851398 0.500000
O O3 0.000000 0.802995 0.724762
O O4 0.135946 0.957184 0.732346
O O5 0.089080 0.000000 0.500000
O O6 0.000000 0.000000 0.730755
O O7 0.416028 0.760790 0.196514
O O8 0.500000 0.720029 0.000000
O O9 0.183329 0.634236 0.500000
O O10 0.170419 0.675665 0.258121
O O11 0.134358 0.590287 0.265650
O O12 0.275792 0.614711 0.272960
O O13 0.750000 0.750000 0.782883
O O14 0.815951 0.709071 0.000000
O O15 0.906575 0.450010 0.500000
O O16 0.874608 0.500000 0.279339
O O17 0.000000 0.448975 0.271327
O O18 0.141620 0.909547 0.500000
#
# Coordination Sequence:
#
# PCOD8266571 Si02
#       7
#     8   8   8  16  16  16  16
#     4  10  18  31  50  74 104 131 161 204 256 298
#     4   9  14  24  42  68 107 147 172 199 246 300
#     4  10  22  38  57  77  96 129 174 211 252 313
#     4  10  20  31  51  80 105 130 169 215 255 296
#     4  10  22  40  57  74 101 136 173 212 260 317
#     4   8  15  28  45  69 103 135 160 194 244 298
#     4   9  17  27  43  73 107 136 167 205 247 294
#
# _framework density 18.596657
#
# number of rings (size 3 to 8) (size 9 to 14) (size 15 to 20)
#    0.000    2.636    0.909    1.636    2.545    1.091 
#    0.000    0.000    0.000    0.545    0.000    3.818 
#    0.000    0.000    0.000    0.000    0.000    0.000 
#
# Total GULP energy -545103.354693 kJ/mol
# GULP energy per Si atom -12388.712607 kJ/mol
# Density = 1.855433 g / cm^3
# Si number density = 18.596657 Si / 1000 Ang^3
#
#
#
# Elastic Constant Matrix: (Units=GPa)
#
#
# Indices 1 2 3 4 5 6 
#
# 1 140.3834 77.6996 21.3220 0.0000 0.0000 0.0000
# 2 77.6996 164.5338 34.8294 0.0000 0.0000 0.0000
# 3 21.3220 34.8294 18.7258 0.0000 0.0000 0.0000
# 4 0.0000 0.0000 0.0000 -3.5751 0.0000 0.0000
# 5 0.0000 0.0000 0.0000 0.0000 1.3260 0.0000
# 6 0.0000 0.0000 0.0000 0.0000 0.0000 47.0251
#
#
#
# Elastic Compliance Matrix: (Units=1/GPa)
#
#
# Indices 1 2 3 4 5 6 
#
# 1 0.009843 -0.003754 -0.004226 0.000000 0.000000 0.000000
# 2 -0.003754 0.011456 -0.017034 0.000000 0.000000 0.000000
# 3 -0.004226 -0.017034 0.089897 0.000000 0.000000 0.000000
# 4 0.000000 0.000000 0.000000 -0.279710 0.000000 0.000000
# 5 0.000000 0.000000 0.000000 0.000000 0.754119 0.000000
# 6 0.000000 0.000000 0.000000 0.000000 0.000000 0.021265
#
#
# Mechanical properties :
#
#
# Convention : Reuss Voigt Hill
#
# Bulk Modulus (GPa) = 16.34826 65.70499 41.02663
# Shear Modulus (GPa) = 7.38240 21.60801 14.49520
#
# Velocity S-wave (km/s) = 1.99458 3.41241 2.79490
# Velocity P-wave (km/s) = 3.75693 7.13683 5.70302
#
# Compressibility (1/GPa) = 0.06116859
#
# Stress axis : x y z
#
# Youngs Moduli (GPa) = 101.59789 87.28837 11.12387
#
# Poissons Ratio (x) = 0.32765 0.04701
# Poissons Ratio (y) = 0.38136 0.18949
# Poissons Ratio (z) = 0.42933 1.48689
#
# Static dielectric constant tensor:
#      x y z
#    x 3.869860 0.000000 0.000000 
#    y 0.000000 3.641680 0.000000 
#    z 0.000000 0.000000 2.832220 
# 
# 
# High freq. dielectric constant tensor:
#      x y z
#    x 1.738310 0.000000 0.000000 
#    y 0.000000 1.739630 0.000000 
#    z 0.000000 0.000000 1.657780 
# 
# From -- ./inp_files/10223.got.cif
#   From: 2010.03.12/outbox.cif.g09.slc.cpg/sg65_6_cif.got.tgz:10223.got - 2010.04.10 20:52:16.
