data_PCOD8266139
_publ_section_title
;
Structure prediction by ZEFSAII (Michael W. Deem and Ramdas Pophale) SiO2 
 PCOD8266139
Probable space group: C M M M
;
_chemical_formula_sum "Si O2"
_cell_formula_units_Z 88
_cell_length_a 23.146498
_cell_length_b 16.027675
_cell_length_c 12.805386
_cell_angle_alpha 90.000000
_cell_angle_beta 90.000000
_cell_angle_gamma 90.000000
_cell_volume 4750.600329
_symmetry_space_group_name_H-M "C M M M"
_symmetry_group_IT_number 65
_symmetry_cell_setting 'orthorhombic'
loop_
_space_group_symop_operation_xyz
x,y,z
-x,-y,z
x,-y,-z
-x,y,-z
-x,-y,-z
x,y,-z
-x,y,z
x,-y,z
1/2+x,1/2+y,z
1/2-x,1/2-y,z
1/2+x,1/2-y,-z
1/2-x,1/2+y,-z
1/2-x,1/2-y,-z
1/2+x,1/2+y,-z
1/2-x,1/2+y,z
1/2+x,1/2-y,z
loop_
_atom_site_type_symbol
_atom_site_label
_atom_site_fract_x
_atom_site_fract_y
_atom_site_fract_z
Si Si1 0.746280 0.905342 0.116159
Si Si2 0.318000 0.750249 0.381057
Si Si3 0.131275 0.662827 0.810962
Si Si4 0.931379 0.500000 0.121746
Si Si5 0.066607 0.824915 0.119001
Si Si6 0.650496 0.595019 0.266617
O O1 0.691018 0.846746 0.127070
O O2 0.796425 0.877720 0.193548
O O3 0.726639 0.000000 0.140222
O O4 0.771631 0.896755 0.000000
O O5 0.329019 0.777211 0.500000
O O6 0.250000 0.750000 0.355273
O O7 0.352681 0.816062 0.309171
O O8 0.345246 0.657654 0.364374
O O9 0.092675 0.580219 0.817449
O O10 0.096933 0.736308 0.866454
O O11 0.000000 0.500000 0.129365
O O12 0.911299 0.500000 0.000000
O O13 0.092651 0.893179 0.198369
O O14 0.000000 0.814045 0.147803
O O15 0.074556 0.855688 0.000000
O O16 0.654006 0.500000 0.306589
#
# Coordination Sequence:
#
# PCOD8266139 Si02
#       6
#    16  16  16   8  16  16
#     4  10  18  29  49  80 115 146 174 216 275 335
#     4  10  21  39  58  80 111 146 186 237 294 343
#     4  11  20  34  56  82 114 151 190 232 276 331
#     4  11  22  36  59  89 123 161 193 223 265 332
#     4  10  21  35  52  78 114 154 190 222 265 328
#     4  10  21  36  56  82 110 140 185 235 280 339
#
# _framework density 18.523975
#
# number of rings (size 3 to 8) (size 9 to 14) (size 15 to 20)
#    0.000    1.727    2.727    2.727    0.000    3.273 
#    0.000    4.091    0.000   14.182    0.000    5.091 
#    0.000    0.000    0.000    0.000    0.000    0.000 
#
# Total GULP energy -545631.707713 kJ/mol
# GULP energy per Si atom -12400.720630 kJ/mol
# Density = 1.848181 g / cm^3
# Si number density = 18.523975 Si / 1000 Ang^3
#
#
#
# Elastic Constant Matrix: (Units=GPa)
#
#
# Indices 1 2 3 4 5 6 
#
# 1 94.5336 22.0273 31.1765 0.0000 0.0000 0.0000
# 2 22.0273 86.0323 31.2011 0.0000 0.0000 0.0000
# 3 31.1765 31.2011 91.9350 0.0000 0.0000 0.0000
# 4 0.0000 0.0000 0.0000 20.3346 0.0000 0.0000
# 5 0.0000 0.0000 0.0000 0.0000 17.6083 0.0000
# 6 0.0000 0.0000 0.0000 0.0000 0.0000 24.8254
#
#
#
# Elastic Compliance Matrix: (Units=1/GPa)
#
#
# Indices 1 2 3 4 5 6 
#
# 1 0.012162 -0.001845 -0.003498 0.000000 0.000000 0.000000
# 2 -0.001845 0.013535 -0.003968 0.000000 0.000000 0.000000
# 3 -0.003498 -0.003968 0.013410 0.000000 0.000000 0.000000
# 4 0.000000 0.000000 0.000000 0.049177 0.000000 0.000000
# 5 0.000000 0.000000 0.000000 0.000000 0.056791 0.000000
# 6 0.000000 0.000000 0.000000 0.000000 0.000000 0.040281
#
#
# Mechanical properties :
#
#
# Convention : Reuss Voigt Hill
#
# Bulk Modulus (GPa) = 48.81669 49.03454 48.92561
# Shear Modulus (GPa) = 23.71835 25.09339 24.40587
#
# Velocity S-wave (km/s) = 3.58217 3.68454 3.63372
# Velocity P-wave (km/s) = 6.59695 6.68053 6.63887
#
# Compressibility (1/GPa) = 0.02048480
#
# Stress axis : x y z
#
# Youngs Moduli (GPa) = 82.22448 73.88267 74.57081
#
# Poissons Ratio (x) = 0.13633 0.26085
# Poissons Ratio (y) = 0.15172 0.29588
# Poissons Ratio (z) = 0.28762 0.29315
#
# Static dielectric constant tensor:
#      x y z
#    x 3.488880 0.000000 0.000000 
#    y 0.000000 3.455560 0.000000 
#    z 0.000000 0.000000 3.197110 
# 
# 
# High freq. dielectric constant tensor:
#      x y z
#    x 1.721060 0.000000 0.000000 
#    y 0.000000 1.722390 0.000000 
#    z 0.000000 0.000000 1.696920 
# 
# From -- ./inp_files/26802.got.cif
#   From: 2010.03.12/outbox.cif.g09.slc.cpg/sg65_14_cif.got.tgz:26802.got - 2010.04.10 20:52:16.
