data_PCOD8266160
_publ_section_title
;
Structure prediction by ZEFSAII (Michael W. Deem and Ramdas Pophale) SiO2 
 PCOD8266160
Probable space group: C M M M
;
_chemical_formula_sum "Si O2"
_cell_formula_units_Z 88
_cell_length_a 29.863894
_cell_length_b 23.656192
_cell_length_c 9.094849
_cell_angle_alpha 90.000000
_cell_angle_beta 90.000000
_cell_angle_gamma 90.000000
_cell_volume 6425.201688
_symmetry_space_group_name_H-M "C M M M"
_symmetry_group_IT_number 65
_symmetry_cell_setting 'orthorhombic'
loop_
_space_group_symop_operation_xyz
x,y,z
-x,-y,z
x,-y,-z
-x,y,-z
-x,-y,-z
x,y,-z
-x,y,z
x,-y,z
1/2+x,1/2+y,z
1/2-x,1/2-y,z
1/2+x,1/2-y,-z
1/2-x,1/2+y,-z
1/2-x,1/2-y,-z
1/2+x,1/2+y,-z
1/2-x,1/2+y,z
1/2+x,1/2-y,z
loop_
_atom_site_type_symbol
_atom_site_label
_atom_site_fract_x
_atom_site_fract_y
_atom_site_fract_z
Si Si1 0.246819 0.876322 0.332000
Si Si2 0.910713 0.401574 0.672148
Si Si3 0.296716 0.282265 0.165612
Si Si4 0.163439 0.314618 0.331702
Si Si5 0.358504 0.000000 0.173878
Si Si6 0.000000 0.433067 0.825431
Si Si7 0.268650 0.000000 0.667994
O O1 0.239263 0.859424 0.500000
O O2 0.208847 0.843461 0.240497
O O3 0.297316 0.858561 0.282838
O O4 0.239475 0.943435 0.307503
O O5 0.916567 0.416550 0.500000
O O6 0.885560 0.341736 0.692607
O O7 0.879786 0.446010 0.752308
O O8 0.958134 0.401297 0.753207
O O9 0.250000 0.250000 0.179462
O O10 0.334604 0.243693 0.241091
O O11 0.311861 0.292572 0.000000
O O12 0.170795 0.298229 0.500000
O O13 0.306345 0.000000 0.208209
O O14 0.367652 0.000000 0.000000
O O15 0.000000 0.500000 0.786912
O O16 0.000000 0.424056 0.000000
O O17 0.288480 0.000000 0.500000
#
# Coordination Sequence:
#
# PCOD8266160 Si02
#       7
#    16  16  16  16   8   8   8
#     4   9  16  27  42  58  78 103 133 166 198 235
#     4  11  21  34  49  61  75 103 138 170 206 251
#     4   9  17  27  39  57  80 102 126 159 202 243
#     4   9  17  29  45  60  74  97 133 170 201 237
#     4  12  22  29  41  60  82 104 129 170 213 249
#     4  11  23  35  45  63  84 104 130 167 214 253
#     4  10  18  30  43  59  80 108 140 169 202 244
#
# _framework density 13.696069
#
# number of rings (size 3 to 8) (size 9 to 14) (size 15 to 20)
#    0.000    2.091    2.727    2.182    0.000    4.727 
#    0.000    0.000    0.000    0.000    0.000    0.000 
#    0.000    0.000    0.000    0.000    0.000    0.909 
#
# Total GULP energy -545462.622266 kJ/mol
# GULP energy per Si atom -12396.877779 kJ/mol
# Density = 1.366490 g / cm^3
# Si number density = 13.696069 Si / 1000 Ang^3
#
#
#
# Elastic Constant Matrix: (Units=GPa)
#
#
# Indices 1 2 3 4 5 6 
#
# 1 49.4727 40.8295 39.5257 0.0000 0.0000 0.0000
# 2 40.8295 94.4683 52.0524 0.0000 0.0000 0.0000
# 3 39.5257 52.0524 93.1668 0.0000 0.0000 0.0000
# 4 0.0000 0.0000 0.0000 8.2007 0.0000 0.0000
# 5 0.0000 0.0000 0.0000 0.0000 14.1053 0.0000
# 6 0.0000 0.0000 0.0000 0.0000 0.0000 21.8163
#
#
#
# Elastic Compliance Matrix: (Units=1/GPa)
#
#
# Indices 1 2 3 4 5 6 
#
# 1 0.036591 -0.010491 -0.009662 0.000000 0.000000 0.000000
# 2 -0.010491 0.018301 -0.005774 0.000000 0.000000 0.000000
# 3 -0.009662 -0.005774 0.018059 0.000000 0.000000 0.000000
# 4 0.000000 0.000000 0.000000 0.121940 0.000000 0.000000
# 5 0.000000 0.000000 0.000000 0.000000 0.070895 0.000000
# 6 0.000000 0.000000 0.000000 0.000000 0.000000 0.045837
#
#
# Mechanical properties :
#
#
# Convention : Reuss Voigt Hill
#
# Bulk Modulus (GPa) = 47.40206 55.76922 51.58564
# Shear Modulus (GPa) = 13.49490 15.80447 14.64968
#
# Velocity S-wave (km/s) = 3.14237 3.40066 3.27406
# Velocity P-wave (km/s) = 6.91745 7.49846 7.21380
#
# Compressibility (1/GPa) = 0.02109613
#
# Stress axis : x y z
#
# Youngs Moduli (GPa) = 27.32941 54.64077 55.37467
#
# Poissons Ratio (x) = 0.57322 0.53505
# Poissons Ratio (y) = 0.28670 0.31975
# Poissons Ratio (z) = 0.26407 0.31552
#
# Static dielectric constant tensor:
#      x y z
#    x 2.484160 0.000000 0.000000 
#    y 0.000000 2.489940 0.000000 
#    z 0.000000 0.000000 2.833340 
# 
# 
# High freq. dielectric constant tensor:
#      x y z
#    x 1.473080 0.000000 0.000000 
#    y 0.000000 1.508680 0.000000 
#    z 0.000000 0.000000 1.535320 
# 
# From -- ./inp_files/15014.got.cif
#   From: 2010.03.12/outbox.cif.g09.slc.cpg/sg65_8_cif.got.tgz:15014.got - 2010.04.10 20:52:16.
