data_PCOD8266586
_publ_section_title
;
Structure prediction by ZEFSAII (Michael W. Deem and Ramdas Pophale) SiO2 
 PCOD8266586
Probable space group: C M M M
;
_chemical_formula_sum "Si O2"
_cell_formula_units_Z 104
_cell_length_a 36.825538
_cell_length_b 10.157066
_cell_length_c 15.064968
_cell_angle_alpha 90.000000
_cell_angle_beta 90.000000
_cell_angle_gamma 90.000000
_cell_volume 5634.891892
_symmetry_space_group_name_H-M "C M M M"
_symmetry_group_IT_number 65
_symmetry_cell_setting 'orthorhombic'
loop_
_space_group_symop_operation_xyz
x,y,z
-x,-y,z
x,-y,-z
-x,y,-z
-x,-y,-z
x,y,-z
-x,y,z
x,-y,z
1/2+x,1/2+y,z
1/2-x,1/2-y,z
1/2+x,1/2-y,-z
1/2-x,1/2+y,-z
1/2-x,1/2-y,-z
1/2+x,1/2+y,-z
1/2-x,1/2+y,z
1/2+x,1/2-y,z
loop_
_atom_site_type_symbol
_atom_site_label
_atom_site_fract_x
_atom_site_fract_y
_atom_site_fract_z
Si Si1 0.460142 0.352932 0.259759
Si Si2 0.283259 0.848455 0.245859
Si Si3 0.402611 0.653984 0.397626
Si Si4 0.580626 0.258171 0.102538
Si Si5 0.540247 0.000000 0.105140
Si Si6 0.341953 0.849085 0.100159
Si Si7 0.838372 0.649094 0.601477
O O1 0.500000 0.282916 0.250177
O O2 0.467540 0.500000 0.290851
O O3 0.435579 0.289505 0.337676
O O4 0.437626 0.364071 0.167146
O O5 0.250000 0.750000 0.239825
O O6 0.310287 0.808811 0.166557
O O7 0.302884 0.826623 0.339544
O O8 0.270246 0.000000 0.235411
O O9 0.413380 0.674564 0.500000
O O10 0.393545 0.500000 0.377944
O O11 0.368241 0.743414 0.371742
O O12 0.561918 0.125793 0.138184
O O13 0.623758 0.246301 0.116445
O O14 0.571403 0.291100 0.000000
O O15 0.500000 0.000000 0.146226
O O16 0.538848 0.000000 0.000000
O O17 0.354524 0.000000 0.115345
O O18 0.327465 0.830447 0.000000
O O19 0.826220 0.668424 0.500000
O O20 0.853309 0.500000 0.617576
#
# Coordination Sequence:
#
# PCOD8266586 Si02
#       7
#    16  16  16  16   8  16  16
#     4  10  21  34  47  68 100 137 174 210 252 304
#     4  10  21  35  52  76 105 136 168 204 252 306
#     4   9  18  34  56  78  99 130 175 220 256 296
#     4  10  18  31  51  73  98 130 169 211 255 302
#     4   9  16  26  44  72 101 125 157 205 254 294
#     4   9  17  32  53  74  96 128 170 211 251 301
#     4   9  18  34  56  80 105 132 163 203 255 312
#
# _framework density 18.456432
#
# number of rings (size 3 to 8) (size 9 to 14) (size 15 to 20)
#    0.000    2.538    0.769    1.385    0.000    2.769 
#    1.385    3.077    0.000    0.923    0.000    2.154 
#    0.000    0.000    0.000    0.000    0.000    0.000 
#
# Total GULP energy -644518.877673 kJ/mol
# GULP energy per Si atom -12394.593801 kJ/mol
# Density = 1.841442 g / cm^3
# Si number density = 18.456432 Si / 1000 Ang^3
#
#
#
# Elastic Constant Matrix: (Units=GPa)
#
#
# Indices 1 2 3 4 5 6 
#
# 1 130.3332 46.7179 65.5150 0.0000 0.0000 0.0000
# 2 46.7179 54.7945 25.6017 0.0000 0.0000 0.0000
# 3 65.5150 25.6017 95.1460 0.0000 0.0000 0.0000
# 4 0.0000 0.0000 0.0000 22.5904 0.0000 0.0000
# 5 0.0000 0.0000 0.0000 0.0000 25.0901 0.0000
# 6 0.0000 0.0000 0.0000 0.0000 0.0000 24.8433
#
#
#
# Elastic Compliance Matrix: (Units=1/GPa)
#
#
# Indices 1 2 3 4 5 6 
#
# 1 0.014802 -0.008988 -0.007774 0.000000 0.000000 0.000000
# 2 -0.008988 0.026332 -0.000896 0.000000 0.000000 0.000000
# 3 -0.007774 -0.000896 0.016104 0.000000 0.000000 0.000000
# 4 0.000000 0.000000 0.000000 0.044267 0.000000 0.000000
# 5 0.000000 0.000000 0.000000 0.000000 0.039856 0.000000
# 6 0.000000 0.000000 0.000000 0.000000 0.000000 0.040252
#
#
# Mechanical properties :
#
#
# Convention : Reuss Voigt Hill
#
# Bulk Modulus (GPa) = 45.61685 61.77144 53.69415
# Shear Modulus (GPa) = 22.29774 24.00069 23.14922
#
# Velocity S-wave (km/s) = 3.47959 3.61001 3.54540
# Velocity P-wave (km/s) = 6.39632 7.13566 6.77609
#
# Compressibility (1/GPa) = 0.02192172
#
# Stress axis : x y z
#
# Youngs Moduli (GPa) = 67.55771 37.97640 62.09545
#
# Poissons Ratio (x) = 0.34134 0.48272
# Poissons Ratio (y) = 0.60722 0.05566
# Poissons Ratio (z) = 0.52518 0.03404
#
# Static dielectric constant tensor:
#      x y z
#    x 3.388200 0.000000 0.000000 
#    y 0.000000 3.368990 0.000000 
#    z 0.000000 0.000000 3.477830 
# 
# 
# High freq. dielectric constant tensor:
#      x y z
#    x 1.707140 0.000000 0.000000 
#    y 0.000000 1.697140 0.000000 
#    z 0.000000 0.000000 1.721990 
# 
# From -- ./inp_files/47791.got.cif
#   From: 2010.03.12/outbox.cif.g09.slc.cpg/sg65_24_cif.got.tgz:47791.got - 2010.04.10 20:52:16.
