data_PCOD8266411
_publ_section_title
;
Structure prediction by ZEFSAII (Michael W. Deem and Ramdas Pophale) SiO2 
 PCOD8266411
Probable space group: C M M M
;
_chemical_formula_sum "Si O2"
_cell_formula_units_Z 72
_cell_length_a 33.991200
_cell_length_b 9.135375
_cell_length_c 12.883774
_cell_angle_alpha 90.000000
_cell_angle_beta 90.000000
_cell_angle_gamma 90.000000
_cell_volume 4000.699891
_symmetry_space_group_name_H-M "C M M M"
_symmetry_group_IT_number 65
_symmetry_cell_setting 'orthorhombic'
loop_
_space_group_symop_operation_xyz
x,y,z
-x,-y,z
x,-y,-z
-x,y,-z
-x,-y,-z
x,y,-z
-x,y,z
x,-y,z
1/2+x,1/2+y,z
1/2-x,1/2-y,z
1/2+x,1/2-y,-z
1/2-x,1/2+y,-z
1/2-x,1/2-y,-z
1/2+x,1/2+y,-z
1/2-x,1/2+y,z
1/2+x,1/2-y,z
loop_
_atom_site_type_symbol
_atom_site_label
_atom_site_fract_x
_atom_site_fract_y
_atom_site_fract_z
Si Si1 0.436434 0.333582 0.384580
Si Si2 0.292033 0.323426 0.500000
Si Si3 0.651512 0.333015 0.676305
Si Si4 0.618537 0.672235 0.885715
Si Si5 0.543807 0.168657 0.812766
O O1 0.451377 0.296213 0.500000
O O2 0.447574 0.500000 0.354634
O O3 0.389533 0.314073 0.382365
O O4 0.457284 0.224287 0.305681
O O5 0.289693 0.500000 0.500000
O O6 0.250000 0.250000 0.500000
O O7 0.314701 0.263158 0.396687
O O8 0.663540 0.500000 0.690188
O O9 0.647077 0.265116 0.793844
O O10 0.612356 0.500000 0.867679
O O11 0.575283 0.742714 0.880343
O O12 0.636609 0.705127 0.000000
O O13 0.500000 0.188953 0.860159
O O14 0.556409 0.000000 0.813615
#
# Coordination Sequence:
#
# PCOD8266411 Si02
#       5
#    16   8  16  16  16
#     4   9  16  29  50  70  88 120 167 211 247 283
#     4  10  18  30  50  76 105 132 153 181 226 283
#     4   8  14  28  50  72  96 124 153 191 237 281
#     4   9  18  33  54  75  90 115 164 215 249 281
#     4  10  21  33  43  62  96 133 163 196 246 303
#
# _framework density 17.996849999999998
#
# number of rings (size 3 to 8) (size 9 to 14) (size 15 to 20)
#    0.000    2.889    1.111    2.000    0.000    3.556 
#    0.000    8.889    0.000    0.667    0.000    0.000 
#    0.000    0.000    0.000    0.000    0.000    0.000 
#
# Total GULP energy -446002.822643 kJ/mol
# GULP energy per Si atom -12388.967296 kJ/mol
# Density = 1.795589 g / cm^3
# Si number density = 17.996850 Si / 1000 Ang^3
#
#
#
# Elastic Constant Matrix: (Units=GPa)
#
#
# Indices 1 2 3 4 5 6 
#
# 1 85.7931 21.3905 47.3454 0.0000 0.0000 0.0000
# 2 21.3905 40.1911 24.2492 0.0000 0.0000 0.0000
# 3 47.3454 24.2492 143.5108 0.0000 0.0000 0.0000
# 4 0.0000 0.0000 0.0000 13.6959 0.0000 0.0000
# 5 0.0000 0.0000 0.0000 0.0000 6.1721 0.0000
# 6 0.0000 0.0000 0.0000 0.0000 0.0000 23.4525
#
#
#
# Elastic Compliance Matrix: (Units=1/GPa)
#
#
# Indices 1 2 3 4 5 6 
#
# 1 0.015336 -0.005690 -0.004098 0.000000 0.000000 0.000000
# 2 -0.005690 0.029816 -0.003161 0.000000 0.000000 0.000000
# 3 -0.004098 -0.003161 0.008854 0.000000 0.000000 0.000000
# 4 0.000000 0.000000 0.000000 0.073015 0.000000 0.000000
# 5 0.000000 0.000000 0.000000 0.000000 0.162019 0.000000
# 6 0.000000 0.000000 0.000000 0.000000 0.000000 0.042639
#
#
# Mechanical properties :
#
#
# Convention : Reuss Voigt Hill
#
# Bulk Modulus (GPa) = 35.57546 50.60721 43.09133
# Shear Modulus (GPa) = 13.62593 20.43143 17.02868
#
# Velocity S-wave (km/s) = 2.75458 3.37304 3.07938
# Velocity P-wave (km/s) = 5.47060 6.58415 6.05303
#
# Compressibility (1/GPa) = 0.02810926
#
# Stress axis : x y z
#
# Youngs Moduli (GPa) = 65.20568 33.53849 112.94003
#
# Poissons Ratio (x) = 0.19082 0.46284
# Poissons Ratio (y) = 0.37099 0.35701
# Poissons Ratio (z) = 0.26722 0.10602
#
# Static dielectric constant tensor:
#      x y z
#    x 3.067220 0.000000 0.000000 
#    y 0.000000 3.049850 0.000000 
#    z 0.000000 0.000000 3.696880 
# 
# 
# High freq. dielectric constant tensor:
#      x y z
#    x 1.661420 0.000000 0.000000 
#    y 0.000000 1.664600 0.000000 
#    z 0.000000 0.000000 1.709860 
# 
# From -- ./inp_files/47452.got.cif
#   From: 2010.03.12/outbox.cif.g09.slc.cpg/sg65_24_cif.got.tgz:47452.got - 2010.04.10 20:52:16.
