data_PCOD8266396
_publ_section_title
;
Structure prediction by ZEFSAII (Michael W. Deem and Ramdas Pophale) SiO2 
 PCOD8266396
Probable space group: C M M M
;
_chemical_formula_sum "Si O2"
_cell_formula_units_Z 96
_cell_length_a 23.905332
_cell_length_b 25.203392
_cell_length_c 9.006442
_cell_angle_alpha 90.000000
_cell_angle_beta 90.000000
_cell_angle_gamma 90.000000
_cell_volume 5426.340355
_symmetry_space_group_name_H-M "C M M M"
_symmetry_group_IT_number 65
_symmetry_cell_setting 'orthorhombic'
loop_
_space_group_symop_operation_xyz
x,y,z
-x,-y,z
x,-y,-z
-x,y,-z
-x,-y,-z
x,y,-z
-x,y,z
x,-y,z
1/2+x,1/2+y,z
1/2-x,1/2-y,z
1/2+x,1/2-y,-z
1/2-x,1/2+y,-z
1/2-x,1/2-y,-z
1/2+x,1/2+y,-z
1/2-x,1/2+y,z
1/2+x,1/2-y,z
loop_
_atom_site_type_symbol
_atom_site_label
_atom_site_fract_x
_atom_site_fract_y
_atom_site_fract_z
Si Si1 0.801441 0.560359 0.325652
Si Si2 0.617097 0.647612 0.675874
Si Si3 0.500000 0.693214 0.676000
Si Si4 0.618592 0.151878 0.676391
Si Si5 0.000000 0.686756 0.322855
Si Si6 0.187386 0.751596 0.676568
Si Si7 0.186631 0.061393 0.826729
O O1 0.790573 0.567207 0.500000
O O2 0.816975 0.500000 0.283817
O O3 0.852818 0.597027 0.270895
O O4 0.745247 0.579338 0.244880
O O5 0.619579 0.639540 0.500000
O O6 0.554596 0.661527 0.730452
O O7 0.657917 0.694577 0.729191
O O8 0.635747 0.593662 0.754837
O O9 0.500000 0.697705 0.500000
O O10 0.500000 0.753119 0.740128
O O11 0.618192 0.154964 0.500000
O O12 0.554904 0.155607 0.736148
O O13 0.653565 0.201413 0.740847
O O14 0.000000 0.688679 0.500000
O O15 0.188217 0.748760 0.500000
O O16 0.250000 0.750000 0.741576
O O17 0.174935 0.000000 0.792128
O O18 0.189716 0.073185 0.000000
#
# Coordination Sequence:
#
# PCOD8266396 Si02
#       7
#    16  16   8  16   8  16  16
#     4   9  17  30  49  73  99 128 164 203 240 279
#     4  10  18  30  50  74  98 123 159 203 241 280
#     4   9  16  28  46  73 101 127 161 200 237 278
#     4   9  15  24  41  68 101 132 161 195 239 285
#     4   9  14  24  41  68 103 134 161 194 237 284
#     4   9  15  22  38  67  97 122 153 194 237 281
#     4  10  21  36  52  70  94 126 161 196 242 298
#
# _framework density 17.691481
#
# number of rings (size 3 to 8) (size 9 to 14) (size 15 to 20)
#    0.000    2.667    1.667    1.500    0.000    3.667 
#    0.000    1.250    0.000    9.500    0.000    0.583 
#    0.000    2.667    0.000    0.000    0.000    0.000 
#
# Total GULP energy -595122.351963 kJ/mol
# GULP energy per Si atom -12398.382333 kJ/mol
# Density = 1.765121 g / cm^3
# Si number density = 17.691481 Si / 1000 Ang^3
#
#
#
# Elastic Constant Matrix: (Units=GPa)
#
#
# Indices 1 2 3 4 5 6 
#
# 1 178.8029 82.4283 27.3256 0.0000 0.0000 0.0000
# 2 82.4283 110.9578 27.4572 0.0000 0.0000 0.0000
# 3 27.3256 27.4572 25.2966 0.0000 0.0000 0.0000
# 4 0.0000 0.0000 0.0000 10.2600 0.0000 0.0000
# 5 0.0000 0.0000 0.0000 0.0000 3.4642 0.0000
# 6 0.0000 0.0000 0.0000 0.0000 0.0000 33.4290
#
#
#
# Elastic Compliance Matrix: (Units=1/GPa)
#
#
# Indices 1 2 3 4 5 6 
#
# 1 0.008698 -0.005655 -0.003257 0.000000 0.000000 0.000000
# 2 -0.005655 0.015999 -0.011257 0.000000 0.000000 0.000000
# 3 -0.003257 -0.011257 0.055267 0.000000 0.000000 0.000000
# 4 0.000000 0.000000 0.000000 0.097466 0.000000 0.000000
# 5 0.000000 0.000000 0.000000 0.000000 0.288670 0.000000
# 6 0.000000 0.000000 0.000000 0.000000 0.000000 0.029914
#
#
# Mechanical properties :
#
#
# Convention : Reuss Voigt Hill
#
# Bulk Modulus (GPa) = 25.23582 65.49771 45.36676
# Shear Modulus (GPa) = 9.09817 21.28704 15.19261
#
# Velocity S-wave (km/s) = 2.27021 3.47253 2.93363
# Velocity P-wave (km/s) = 4.60078 7.29250 6.09704
#
# Compressibility (1/GPa) = 0.03962621
#
# Stress axis : x y z
#
# Youngs Moduli (GPa) = 114.97431 62.50302 18.09387
#
# Poissons Ratio (x) = 0.35348 0.05893
# Poissons Ratio (y) = 0.65022 0.20368
# Poissons Ratio (z) = 0.37446 0.70358
#
# Static dielectric constant tensor:
#      x y z
#    x 3.555200 0.000000 0.000000 
#    y 0.000000 3.357330 0.000000 
#    z 0.000000 0.000000 2.724720 
# 
# 
# High freq. dielectric constant tensor:
#      x y z
#    x 1.691590 0.000000 0.000000 
#    y 0.000000 1.687100 0.000000 
#    z 0.000000 0.000000 1.624410 
# 
# From -- ./inp_files/14423.got.cif
#   From: 2010.03.12/outbox.cif.g09.slc.cpg/sg65_8_cif.got.tgz:14423.got - 2010.04.10 20:52:16.
