data_PCOD8266078
_publ_section_title
;
Structure prediction by ZEFSAII (Michael W. Deem and Ramdas Pophale) SiO2 
 PCOD8266078
Probable space group: C M M M
;
_chemical_formula_sum "Si O2"
_cell_formula_units_Z 104
_cell_length_a 15.295349
_cell_length_b 18.426875
_cell_length_c 20.628890
_cell_angle_alpha 90.000000
_cell_angle_beta 90.000000
_cell_angle_gamma 90.000000
_cell_volume 5814.159489
_symmetry_space_group_name_H-M "C M M M"
_symmetry_group_IT_number 65
_symmetry_cell_setting 'orthorhombic'
loop_
_space_group_symop_operation_xyz
x,y,z
-x,-y,z
x,-y,-z
-x,y,-z
-x,-y,-z
x,y,-z
-x,y,z
x,-y,z
1/2+x,1/2+y,z
1/2-x,1/2-y,z
1/2+x,1/2-y,-z
1/2-x,1/2+y,-z
1/2-x,1/2-y,-z
1/2+x,1/2+y,-z
1/2-x,1/2+y,z
1/2+x,1/2-y,z
loop_
_atom_site_type_symbol
_atom_site_label
_atom_site_fract_x
_atom_site_fract_y
_atom_site_fract_z
Si Si1 0.900336 0.656811 0.924171
Si Si2 0.251327 0.919645 0.290397
Si Si3 0.600763 0.148689 0.634285
Si Si4 0.743327 0.581434 0.139197
Si Si5 0.657917 0.282438 0.711035
Si Si6 0.896835 0.582850 0.500000
Si Si7 0.098045 0.196636 0.148281
O O1 0.831370 0.596653 0.901198
O O2 0.874883 0.730320 0.887748
O O3 0.000000 0.632430 0.907377
O O4 0.889939 0.670246 0.000000
O O5 0.346782 0.904398 0.318794
O O6 0.264895 0.910103 0.214355
O O7 0.178216 0.863143 0.317292
O O8 0.219346 0.000000 0.309416
O O9 0.500000 0.128747 0.642406
O O10 0.616046 0.233169 0.654097
O O11 0.633896 0.130504 0.561689
O O12 0.712921 0.500000 0.122286
O O13 0.663395 0.634832 0.122632
O O14 0.750000 0.250000 0.734879
O O15 0.597935 0.288802 0.774342
O O16 0.857591 0.500000 0.500000
O O17 0.000000 0.575639 0.500000
O O18 0.000000 0.172661 0.129296
#
# Coordination Sequence:
#
# PCOD8266078 Si02
#       7
#    16  16  16  16  16   8  16
#     4  10  21  36  54  75  98 128 166 205 248 298
#     4   9  18  32  48  68  97 128 156 191 239 291
#     4  10  18  29  48  71  94 123 160 200 240 284
#     4  10  21  35  51  74 103 132 162 201 249 297
#     4   9  17  30  48  72  99 126 158 200 246 289
#     4   9  18  30  43  66 101 133 159 193 242 295
#     4  10  19  33  54  76  99 129 166 205 244 292
#
# _framework density 17.887366
#
# number of rings (size 3 to 8) (size 9 to 14) (size 15 to 20)
#    0.000    2.385    0.000    4.154    0.000    4.923 
#    0.000    5.769    0.000    1.385    0.000    3.231 
#    0.000    1.846    0.000    0.000    0.000    1.846 
#
# Total GULP energy -644608.539006 kJ/mol
# GULP energy per Si atom -12396.318058 kJ/mol
# Density = 1.784665 g / cm^3
# Si number density = 17.887366 Si / 1000 Ang^3
#
#
#
# Elastic Constant Matrix: (Units=GPa)
#
#
# Indices 1 2 3 4 5 6 
#
# 1 60.9410 26.3547 19.7354 0.0000 0.0000 0.0000
# 2 26.3547 121.4117 39.8749 0.0000 0.0000 0.0000
# 3 19.7354 39.8749 56.6714 0.0000 0.0000 0.0000
# 4 0.0000 0.0000 0.0000 4.8910 0.0000 0.0000
# 5 0.0000 0.0000 0.0000 0.0000 19.6455 0.0000
# 6 0.0000 0.0000 0.0000 0.0000 0.0000 20.6783
#
#
#
# Elastic Compliance Matrix: (Units=1/GPa)
#
#
# Indices 1 2 3 4 5 6 
#
# 1 0.019083 -0.002549 -0.004852 0.000000 0.000000 0.000000
# 2 -0.002549 0.011052 -0.006889 0.000000 0.000000 0.000000
# 3 -0.004852 -0.006889 0.024182 0.000000 0.000000 0.000000
# 4 0.000000 0.000000 0.000000 0.204458 0.000000 0.000000
# 5 0.000000 0.000000 0.000000 0.000000 0.050902 0.000000
# 6 0.000000 0.000000 0.000000 0.000000 0.000000 0.048360
#
#
# Mechanical properties :
#
#
# Convention : Reuss Voigt Hill
#
# Bulk Modulus (GPa) = 38.85313 45.66158 42.25735
# Shear Modulus (GPa) = 12.65192 19.24688 15.94940
#
# Velocity S-wave (km/s) = 2.66242 3.28381 2.98930
# Velocity P-wave (km/s) = 5.58743 6.32144 5.96573
#
# Compressibility (1/GPa) = 0.02573795
#
# Stress axis : x y z
#
# Youngs Moduli (GPa) = 52.40296 90.47967 41.35222
#
# Poissons Ratio (x) = 0.23061 0.20065
# Poissons Ratio (y) = 0.13356 0.28487
# Poissons Ratio (z) = 0.25427 0.62331
#
# Static dielectric constant tensor:
#      x y z
#    x 3.238000 0.000000 0.000000 
#    y 0.000000 3.733500 0.000000 
#    z 0.000000 0.000000 3.281440 
# 
# 
# High freq. dielectric constant tensor:
#      x y z
#    x 1.681000 0.000000 0.000000 
#    y 0.000000 1.696010 0.000000 
#    z 0.000000 0.000000 1.677170 
# 
# From -- ./inp_files/62890.got.cif
#   From: 2010.03.12/outbox.cif.g09.slc.cpg/sg65_32_cif.got.tgz:62890.got - 2010.04.10 20:52:16.
