data_PCOD8266622
_publ_section_title
;
Structure prediction by ZEFSAII (Michael W. Deem and Ramdas Pophale) SiO2 
 PCOD8266622
Probable space group: C M M M
;
_chemical_formula_sum "Si O2"
_cell_formula_units_Z 104
_cell_length_a 24.174974
_cell_length_b 17.950813
_cell_length_c 14.113617
_cell_angle_alpha 90.000000
_cell_angle_beta 90.000000
_cell_angle_gamma 90.000000
_cell_volume 6124.751409
_symmetry_space_group_name_H-M "C M M M"
_symmetry_group_IT_number 65
_symmetry_cell_setting 'orthorhombic'
loop_
_space_group_symop_operation_xyz
x,y,z
-x,-y,z
x,-y,-z
-x,y,-z
-x,-y,-z
x,y,-z
-x,y,z
x,-y,z
1/2+x,1/2+y,z
1/2-x,1/2-y,z
1/2+x,1/2-y,-z
1/2-x,1/2+y,-z
1/2-x,1/2-y,-z
1/2+x,1/2+y,-z
1/2-x,1/2+y,z
1/2+x,1/2-y,z
loop_
_atom_site_type_symbol
_atom_site_label
_atom_site_fract_x
_atom_site_fract_y
_atom_site_fract_z
Si Si1 0.856096 0.819194 0.393339
Si Si2 0.435895 0.339350 0.896228
Si Si3 0.500000 0.085951 0.887567
Si Si4 0.195911 0.701665 0.259274
Si Si5 0.250710 0.914606 0.392483
Si Si6 0.607866 0.824558 0.892051
Si Si7 0.065174 0.082427 0.710122
O O1 0.859290 0.787342 0.500000
O O2 0.844691 0.752069 0.322026
O O3 0.810881 0.883564 0.384505
O O4 0.913535 0.858303 0.366243
O O5 0.500000 0.321135 0.882430
O O6 0.404564 0.262240 0.887162
O O7 0.414469 0.395850 0.816087
O O8 0.424768 0.375216 0.000000
O O9 0.444012 0.127193 0.850902
O O10 0.500000 0.000000 0.852744
O O11 0.500000 0.091733 0.000000
O O12 0.250000 0.750000 0.228270
O O13 0.210436 0.631141 0.323051
O O14 0.163494 0.666319 0.170033
O O15 0.272625 0.905818 0.500000
O O16 0.250658 0.000000 0.359908
O O17 0.620760 0.849654 0.000000
O O18 0.000000 0.083661 0.703837
O O19 0.088079 0.000000 0.688203
#
# Coordination Sequence:
#
# PCOD8266622 Si02
#       7
#    16  16   8  16  16  16  16
#     4  10  19  33  51  71  97 130 165 206 252 296
#     4   9  16  29  49  70  94 126 165 202 240 286
#     4   9  18  32  52  80 106 130 169 218 258 296
#     4  10  20  33  51  76 102 131 168 210 250 302
#     4   9  18  33  53  74  95 124 165 210 252 293
#     4  10  18  31  52  75 102 135 167 203 250 302
#     4  10  20  31  46  71 100 129 162 202 246 297
#
# _framework density 16.980281000000002
#
# number of rings (size 3 to 8) (size 9 to 14) (size 15 to 20)
#    0.000    2.385    2.308    0.923    0.000    4.308 
#    0.000    2.308    0.000    0.000    0.000    0.000 
#    0.000    2.462    0.000    0.000    0.000    0.000 
#
# Total GULP energy -644594.333336 kJ/mol
# GULP energy per Si atom -12396.044872 kJ/mol
# Density = 1.694163 g / cm^3
# Si number density = 16.980281 Si / 1000 Ang^3
#
#
#
# Elastic Constant Matrix: (Units=GPa)
#
#
# Indices 1 2 3 4 5 6 
#
# 1 52.8039 26.7677 41.0292 0.0000 0.0000 0.0000
# 2 26.7677 73.1830 27.6489 0.0000 0.0000 0.0000
# 3 41.0292 27.6489 79.2035 0.0000 0.0000 0.0000
# 4 0.0000 0.0000 0.0000 21.3367 0.0000 0.0000
# 5 0.0000 0.0000 0.0000 0.0000 29.7869 0.0000
# 6 0.0000 0.0000 0.0000 0.0000 0.0000 20.6856
#
#
#
# Elastic Compliance Matrix: (Units=1/GPa)
#
#
# Indices 1 2 3 4 5 6 
#
# 1 0.034350 -0.006729 -0.015445 0.000000 0.000000 0.000000
# 2 -0.006729 0.017058 -0.002469 0.000000 0.000000 0.000000
# 3 -0.015445 -0.002469 0.021489 0.000000 0.000000 0.000000
# 4 0.000000 0.000000 0.000000 0.046868 0.000000 0.000000
# 5 0.000000 0.000000 0.000000 0.000000 0.033572 0.000000
# 6 0.000000 0.000000 0.000000 0.000000 0.000000 0.048343
#
#
# Mechanical properties :
#
#
# Convention : Reuss Voigt Hill
#
# Bulk Modulus (GPa) = 42.35351 44.00909 43.18130
# Shear Modulus (GPa) = 19.31727 21.67815 20.49771
#
# Velocity S-wave (km/s) = 3.37654 3.57692 3.47817
# Velocity P-wave (km/s) = 6.34021 6.55997 6.45102
#
# Compressibility (1/GPa) = 0.02361079
#
# Stress axis : x y z
#
# Youngs Moduli (GPa) = 29.11205 58.62218 46.53627
#
# Poissons Ratio (x) = 0.39445 0.71876
# Poissons Ratio (y) = 0.19589 0.11491
# Poissons Ratio (z) = 0.44964 0.14475
#
# Static dielectric constant tensor:
#      x y z
#    x 3.037740 0.000000 0.000000 
#    y 0.000000 3.194720 0.000000 
#    z 0.000000 0.000000 3.261060 
# 
# 
# High freq. dielectric constant tensor:
#      x y z
#    x 1.639080 0.000000 0.000000 
#    y 0.000000 1.651130 0.000000 
#    z 0.000000 0.000000 1.648420 
# 
# From -- ./inp_files/42873.got.cif
#   From: 2010.03.12/outbox.cif.g09.slc.cpg/sg65_22_cif.got.tgz:42873.got - 2010.04.10 20:52:16.
