data_PCOD8266123
_publ_section_title
;
Structure prediction by ZEFSAII (Michael W. Deem and Ramdas Pophale) SiO2 
 PCOD8266123
Probable space group: C M M M
;
_chemical_formula_sum "Si O2"
_cell_formula_units_Z 80
_cell_length_a 9.774603
_cell_length_b 23.169756
_cell_length_c 20.584519
_cell_angle_alpha 90.000000
_cell_angle_beta 90.000000
_cell_angle_gamma 90.000000
_cell_volume 4661.882368
_symmetry_space_group_name_H-M "C M M M"
_symmetry_group_IT_number 65
_symmetry_cell_setting 'orthorhombic'
loop_
_space_group_symop_operation_xyz
x,y,z
-x,-y,z
x,-y,-z
-x,y,-z
-x,-y,-z
x,y,-z
-x,y,z
x,-y,z
1/2+x,1/2+y,z
1/2-x,1/2-y,z
1/2+x,1/2-y,-z
1/2-x,1/2+y,-z
1/2-x,1/2-y,-z
1/2+x,1/2+y,-z
1/2-x,1/2+y,z
1/2+x,1/2-y,z
loop_
_atom_site_type_symbol
_atom_site_label
_atom_site_fract_x
_atom_site_fract_y
_atom_site_fract_z
Si Si1 0.846943 0.149226 0.139029
Si Si2 0.348370 0.845987 0.678406
Si Si3 0.156410 0.434387 0.787578
Si Si4 0.250000 0.750000 0.227412
Si Si5 0.344167 0.695555 0.000000
Si Si6 0.158635 0.193151 0.427244
O O1 0.745142 0.099144 0.159931
O O2 0.837357 0.208271 0.180817
O O3 0.000000 0.125793 0.147749
O O4 0.812074 0.158698 0.063822
O O5 0.500000 0.844975 0.646452
O O6 0.326386 0.904798 0.717666
O O7 0.341428 0.790228 0.725756
O O8 0.229278 0.849585 0.624070
O O9 0.207509 0.500000 0.781704
O O10 0.000000 0.431097 0.811055
O O11 0.250000 0.750000 0.000000
O O12 0.500000 0.717363 0.000000
O O13 0.165607 0.167067 0.500000
O O14 0.250000 0.250000 0.423026
O O15 0.000000 0.205465 0.408152
#
# Coordination Sequence:
#
# PCOD8266123 Si02
#       6
#    16  16  16   8   8  16
#     4  10  20  33  52  77 105 135 171 211 254 304
#     4  10  19  30  50  76 101 131 166 208 253 299
#     4   9  20  38  56  75 101 133 172 216 260 304
#     4  10  18  29  49  74 106 132 164 202 254 306
#     4  10  20  34  51  76 107 139 170 206 250 307
#     4  10  20  32  47  70 103 139 170 201 242 297
#
# _framework density 17.160450000000001
#
# number of rings (size 3 to 8) (size 9 to 14) (size 15 to 20)
#    0.000    2.200    2.000    1.200    0.000    6.400 
#    0.000    0.500    0.000    3.600    0.000    4.200 
#    0.000    0.000    0.000    0.000    0.000    0.000 
#
# Total GULP energy -495829.612192 kJ/mol
# GULP energy per Si atom -12395.740305 kJ/mol
# Density = 1.712139 g / cm^3
# Si number density = 17.160450 Si / 1000 Ang^3
#
#
#
# Elastic Constant Matrix: (Units=GPa)
#
#
# Indices 1 2 3 4 5 6 
#
# 1 130.6919 54.8521 71.5612 0.0000 0.0000 0.0000
# 2 54.8521 111.8500 46.9891 0.0000 0.0000 0.0000
# 3 71.5612 46.9891 114.8116 0.0000 0.0000 0.0000
# 4 0.0000 0.0000 0.0000 9.4081 0.0000 0.0000
# 5 0.0000 0.0000 0.0000 0.0000 31.3662 0.0000
# 6 0.0000 0.0000 0.0000 0.0000 0.0000 22.2744
#
#
#
# Elastic Compliance Matrix: (Units=1/GPa)
#
#
# Indices 1 2 3 4 5 6 
#
# 1 0.012653 -0.003492 -0.006457 0.000000 0.000000 0.000000
# 2 -0.003492 0.011761 -0.002637 0.000000 0.000000 0.000000
# 3 -0.006457 -0.002637 0.013814 0.000000 0.000000 0.000000
# 4 0.000000 0.000000 0.000000 0.106291 0.000000 0.000000
# 5 0.000000 0.000000 0.000000 0.000000 0.031881 0.000000
# 6 0.000000 0.000000 0.000000 0.000000 0.000000 0.044895
#
#
# Mechanical properties :
#
#
# Convention : Reuss Voigt Hill
#
# Bulk Modulus (GPa) = 76.59761 78.23980 77.41871
# Shear Modulus (GPa) = 19.93470 24.87315 22.40393
#
# Velocity S-wave (km/s) = 3.41202 3.81129 3.61717
# Velocity P-wave (km/s) = 7.76244 8.06598 7.91566
#
# Compressibility (1/GPa) = 0.01305524
#
# Stress axis : x y z
#
# Youngs Moduli (GPa) = 79.03231 85.02735 72.39175
#
# Poissons Ratio (x) = 0.29695 0.46745
# Poissons Ratio (y) = 0.27601 0.19087
# Poissons Ratio (z) = 0.51033 0.22418
#
# Static dielectric constant tensor:
#      x y z
#    x 3.321510 0.000000 0.000000 
#    y 0.000000 2.941120 0.000000 
#    z 0.000000 0.000000 3.407620 
# 
# 
# High freq. dielectric constant tensor:
#      x y z
#    x 1.674120 0.000000 0.000000 
#    y 0.000000 1.629580 0.000000 
#    z 0.000000 0.000000 1.666380 
# 
# From -- ./inp_files/59679.got.cif
#   From: 2010.03.12/outbox.cif.g09.slc.cpg/sg65_30_cif.got.tgz:59679.got - 2010.04.10 20:52:16.
