data_PCOD8266060
_publ_section_title
;
Structure prediction by ZEFSAII (Michael W. Deem and Ramdas Pophale) SiO2 
 PCOD8266060
Probable space group: C M M M
;
_chemical_formula_sum "Si O2"
_cell_formula_units_Z 104
_cell_length_a 29.475179
_cell_length_b 22.143649
_cell_length_c 9.288862
_cell_angle_alpha 90.000000
_cell_angle_beta 90.000000
_cell_angle_gamma 90.000000
_cell_volume 6062.728928
_symmetry_space_group_name_H-M "C M M M"
_symmetry_group_IT_number 65
_symmetry_cell_setting 'orthorhombic'
loop_
_space_group_symop_operation_xyz
x,y,z
-x,-y,z
x,-y,-z
-x,y,-z
-x,-y,-z
x,y,-z
-x,y,z
x,-y,z
1/2+x,1/2+y,z
1/2-x,1/2-y,z
1/2+x,1/2-y,-z
1/2-x,1/2+y,-z
1/2-x,1/2-y,-z
1/2+x,1/2+y,-z
1/2-x,1/2+y,z
1/2+x,1/2-y,z
loop_
_atom_site_type_symbol
_atom_site_label
_atom_site_fract_x
_atom_site_fract_y
_atom_site_fract_z
Si Si1 0.896213 0.883229 0.168941
Si Si2 0.948592 0.783691 0.667132
Si Si3 0.787928 0.571835 0.337345
Si Si4 0.552657 0.855574 0.663940
Si Si5 0.124558 0.429121 0.833098
Si Si6 0.448679 0.500000 0.828605
Si Si7 0.798870 0.930054 0.834172
O O1 0.913077 0.822663 0.243630
O O2 0.843223 0.891402 0.204020
O O3 0.923802 0.940490 0.231302
O O4 0.904687 0.877053 0.000000
O O5 0.943192 0.799037 0.500000
O O6 0.936975 0.714141 0.697005
O O7 0.000000 0.797994 0.717366
O O8 0.789899 0.596627 0.500000
O O9 0.787703 0.500000 0.333394
O O10 0.831459 0.596066 0.250860
O O11 0.742107 0.595617 0.262160
O O12 0.566469 0.871246 0.500000
O O13 0.500000 0.869725 0.688514
O O14 0.580143 0.896659 0.773766
O O15 0.118271 0.500000 0.807419
O O16 0.130884 0.413622 0.000000
O O17 0.500000 0.500000 0.771319
O O18 0.446207 0.500000 0.000000
O O19 0.809598 0.000000 0.800991
O O20 0.784774 0.922303 0.000000
#
# Coordination Sequence:
#
# PCOD8266060 Si02
#       7
#    16  16  16  16  16   8  16
#     4  10  18  29  47  71  96 128 168 209 251 296
#     4   9  19  35  51  68  94 129 168 208 248 289
#     4   9  17  29  47  71  98 130 166 198 234 288
#     4   9  19  36  55  73  97 132 169 201 236 285
#     4  10  20  33  51  78 108 132 155 191 242 290
#     4   9  16  26  41  65  97 129 163 205 250 295
#     4   9  16  28  45  67  98 130 163 204 251 295
#
# _framework density 17.153991000000001
#
# number of rings (size 3 to 8) (size 9 to 14) (size 15 to 20)
#    0.000    2.692    0.769    2.308    0.000    5.538 
#    0.000    3.462    0.000    2.308    0.000    6.462 
#    0.000    0.000    0.000    0.000    0.000    0.000 
#
# Total GULP energy -644841.583658 kJ/mol
# GULP energy per Si atom -12400.799686 kJ/mol
# Density = 1.711495 g / cm^3
# Si number density = 17.153991 Si / 1000 Ang^3
#
#
#
# Elastic Constant Matrix: (Units=GPa)
#
#
# Indices 1 2 3 4 5 6 
#
# 1 121.1731 51.3690 73.1357 0.0000 0.0000 0.0000
# 2 51.3690 52.6459 47.0664 0.0000 0.0000 0.0000
# 3 73.1357 47.0664 98.0463 0.0000 0.0000 0.0000
# 4 0.0000 0.0000 0.0000 26.2574 0.0000 0.0000
# 5 0.0000 0.0000 0.0000 0.0000 34.3618 0.0000
# 6 0.0000 0.0000 0.0000 0.0000 0.0000 19.6419
#
#
#
# Elastic Compliance Matrix: (Units=1/GPa)
#
#
# Indices 1 2 3 4 5 6 
#
# 1 0.017295 -0.009358 -0.008409 0.000000 0.000000 0.000000
# 2 -0.009358 0.038339 -0.011424 0.000000 0.000000 0.000000
# 3 -0.008409 -0.011424 0.021955 0.000000 0.000000 0.000000
# 4 0.000000 0.000000 0.000000 0.038084 0.000000 0.000000
# 5 0.000000 0.000000 0.000000 0.000000 0.029102 0.000000
# 6 0.000000 0.000000 0.000000 0.000000 0.000000 0.050911
#
#
# Mechanical properties :
#
#
# Convention : Reuss Voigt Hill
#
# Bulk Modulus (GPa) = 52.06062 68.33417 60.19739
# Shear Modulus (GPa) = 19.19597 22.73851 20.96724
#
# Velocity S-wave (km/s) = 3.34883 3.64476 3.49993
# Velocity P-wave (km/s) = 6.73556 7.59175 7.17643
#
# Compressibility (1/GPa) = 0.01920838
#
# Stress axis : x y z
#
# Youngs Moduli (GPa) = 57.82042 26.08303 45.54683
#
# Poissons Ratio (x) = 0.24409 0.38298
# Poissons Ratio (y) = 0.54109 0.52032
# Poissons Ratio (z) = 0.48619 0.29797
#
# Static dielectric constant tensor:
#      x y z
#    x 3.257340 0.000000 0.000000 
#    y 0.000000 2.900880 0.000000 
#    z 0.000000 0.000000 3.133770 
# 
# 
# High freq. dielectric constant tensor:
#      x y z
#    x 1.670710 0.000000 0.000000 
#    y 0.000000 1.630080 0.000000 
#    z 0.000000 0.000000 1.656830 
# 
# From -- ./inp_files/18861.got.cif
#   From: 2010.03.12/outbox.cif.g09.slc.cpg/sg65_10_cif.got.tgz:18861.got - 2010.04.10 20:52:16.
