data_PCOD8266404
_publ_section_title
;
Structure prediction by ZEFSAII (Michael W. Deem and Ramdas Pophale) SiO2 
 PCOD8266404
Probable space group: C M M M
;
_chemical_formula_sum "Si O2"
_cell_formula_units_Z 104
_cell_length_a 9.012729
_cell_length_b 25.275000
_cell_length_c 24.376687
_cell_angle_alpha 90.000000
_cell_angle_beta 90.000000
_cell_angle_gamma 90.000000
_cell_volume 5552.929477
_symmetry_space_group_name_H-M "C M M M"
_symmetry_group_IT_number 65
_symmetry_cell_setting 'orthorhombic'
loop_
_space_group_symop_operation_xyz
x,y,z
-x,-y,z
x,-y,-z
-x,y,-z
-x,-y,-z
x,y,-z
-x,y,z
x,-y,z
1/2+x,1/2+y,z
1/2-x,1/2-y,z
1/2+x,1/2-y,-z
1/2-x,1/2+y,-z
1/2-x,1/2-y,-z
1/2+x,1/2+y,-z
1/2-x,1/2+y,z
1/2+x,1/2-y,z
loop_
_atom_site_type_symbol
_atom_site_label
_atom_site_fract_x
_atom_site_fract_y
_atom_site_fract_z
Si Si1 0.326874 0.694767 0.106667
Si Si2 0.322572 0.192500 0.000000
Si Si3 0.176343 0.500000 0.438261
Si Si4 0.173544 0.194895 0.437533
Si Si5 0.329274 0.584138 0.849901
Si Si6 0.823943 0.602374 0.626034
Si Si7 0.665188 0.059819 0.740277
Si Si8 0.823761 0.000000 0.937303
O O1 0.500000 0.706486 0.094123
O O2 0.250000 0.750000 0.125543
O O3 0.244359 0.667192 0.054807
O O4 0.306006 0.647898 0.150317
O O5 0.250000 0.250000 0.000000
O O6 0.500000 0.192521 0.000000
O O7 0.239341 0.500000 0.500000
O O8 0.235837 0.552046 0.407737
O O9 0.000000 0.500000 0.437885
O O10 0.207613 0.177299 0.500000
O O11 0.250000 0.250000 0.424065
O O12 0.240617 0.153308 0.395680
O O13 0.000000 0.200932 0.426991
O O14 0.500000 0.569699 0.848184
O O15 0.264105 0.563573 0.793647
O O16 0.266373 0.551991 0.903135
O O17 0.779654 0.596191 0.690029
O O18 0.000000 0.608951 0.618879
O O19 0.500000 0.076979 0.757577
O O20 0.666244 0.000000 0.717818
O O21 0.000000 0.000000 0.942811
O O22 0.757134 0.000000 0.000000
#
# Coordination Sequence:
#
# PCOD8266404 Si02
#       8
#    16   8   8  16  16  16  16   8
#     4  10  20  34  53  78 107 139 176 219 265 321
#     4  10  18  30  50  75 104 139 173 209 257 317
#     4   9  16  27  49  81 113 143 178 221 268 322
#     4  10  21  37  57  83 116 154 194 237 285 335
#     4  10  21  36  58  82 106 142 188 231 276 332
#     4  10  19  34  56  83 112 148 192 231 275 328
#     4  10  20  36  57  81 112 147 184 229 277 331
#     4   9  18  33  55  81 107 137 178 229 280 333
#
# _framework density 18.728854999999999
#
# number of rings (size 3 to 8) (size 9 to 14) (size 15 to 20)
#    0.000    2.154    1.538    3.000    1.077    3.385 
#    0.000    1.154    0.000    3.692    0.000    0.000 
#    0.000    0.000    0.000    0.000    0.000    0.000 
#
# Total GULP energy -644449.910311 kJ/mol
# GULP energy per Si atom -12393.267506 kJ/mol
# Density = 1.868623 g / cm^3
# Si number density = 18.728855 Si / 1000 Ang^3
#
#
#
# Elastic Constant Matrix: (Units=GPa)
#
#
# Indices 1 2 3 4 5 6 
#
# 1 70.3671 43.7517 39.2640 0.0000 0.0000 0.0000
# 2 43.7517 111.7564 64.9359 0.0000 0.0000 0.0000
# 3 39.2640 64.9359 127.0310 0.0000 0.0000 0.0000
# 4 0.0000 0.0000 0.0000 -18.2693 0.0000 0.0000
# 5 0.0000 0.0000 0.0000 0.0000 27.1050 0.0000
# 6 0.0000 0.0000 0.0000 0.0000 0.0000 24.3871
#
#
#
# Elastic Compliance Matrix: (Units=1/GPa)
#
#
# Indices 1 2 3 4 5 6 
#
# 1 0.019572 -0.005900 -0.003034 0.000000 0.000000 0.000000
# 2 -0.005900 0.014507 -0.005592 0.000000 0.000000 0.000000
# 3 -0.003034 -0.005592 0.011668 0.000000 0.000000 0.000000
# 4 0.000000 0.000000 0.000000 -0.054737 0.000000 0.000000
# 5 0.000000 0.000000 0.000000 0.000000 0.036894 0.000000
# 6 0.000000 0.000000 0.000000 0.000000 0.000000 0.041005
#
#
# Mechanical properties :
#
#
# Convention : Reuss Voigt Hill
#
# Bulk Modulus (GPa) = 59.89298 67.22864 63.56081
# Shear Modulus (GPa) = 48.29690 17.39144 32.84417
#
# Velocity S-wave (km/s) = 5.08364 3.05058 4.19222
# Velocity P-wave (km/s) = 8.15514 6.95570 7.57918
#
# Compressibility (1/GPa) = 0.01669645
#
# Stress axis : x y z
#
# Youngs Moduli (GPa) = 51.09302 68.93225 85.70110
#
# Poissons Ratio (x) = 0.40667 0.26000
# Poissons Ratio (y) = 0.30142 0.47926
# Poissons Ratio (z) = 0.15501 0.38548
#
# Static dielectric constant tensor:
#      x y z
#    x 3.270460 0.000000 0.000000 
#    y 0.000000 3.415660 0.000000 
#    z 0.000000 0.000000 3.882930 
# 
# 
# High freq. dielectric constant tensor:
#      x y z
#    x 1.710240 0.000000 0.000000 
#    y 0.000000 1.728090 0.000000 
#    z 0.000000 0.000000 1.723080 
# 
# From -- ./inp_files/68295.got.cif
#   From: 2010.03.12/outbox.cif.g09.slc.cpg/sg65_35_cif.got.tgz:68295.got - 2010.04.10 20:52:16.
