data_PCOD8266551
_publ_section_title
;
Structure prediction by ZEFSAII (Michael W. Deem and Ramdas Pophale) SiO2 
 PCOD8266551
Probable space group: C M M M
;
_chemical_formula_sum "Si O2"
_cell_formula_units_Z 120
_cell_length_a 24.687754
_cell_length_b 21.442939
_cell_length_c 12.850729
_cell_angle_alpha 90.000000
_cell_angle_beta 90.000000
_cell_angle_gamma 90.000000
_cell_volume 6802.893256
_symmetry_space_group_name_H-M "C M M M"
_symmetry_group_IT_number 65
_symmetry_cell_setting 'orthorhombic'
loop_
_space_group_symop_operation_xyz
x,y,z
-x,-y,z
x,-y,-z
-x,y,-z
-x,-y,-z
x,y,-z
-x,y,z
x,-y,z
1/2+x,1/2+y,z
1/2-x,1/2-y,z
1/2+x,1/2-y,-z
1/2-x,1/2+y,-z
1/2-x,1/2-y,-z
1/2+x,1/2+y,-z
1/2-x,1/2+y,z
1/2+x,1/2-y,z
loop_
_atom_site_type_symbol
_atom_site_label
_atom_site_fract_x
_atom_site_fract_y
_atom_site_fract_z
Si Si1 0.387506 0.615240 0.120126
Si Si2 0.000000 0.071907 0.886662
Si Si3 0.937511 0.245143 0.116544
Si Si4 0.125429 0.659485 0.249968
Si Si5 0.059556 0.567924 0.621932
Si Si6 0.287712 0.427794 0.739600
Si Si7 0.729301 0.179653 0.618551
Si Si8 0.185548 0.430619 0.115046
O O1 0.444032 0.589830 0.169689
O O2 0.394145 0.689344 0.121062
O O3 0.341369 0.591932 0.197990
O O4 0.377516 0.591724 0.000000
O O5 0.000000 0.000000 0.905948
O O6 0.000000 0.107082 0.000000
O O7 0.917012 0.290877 0.206351
O O8 0.000000 0.225037 0.141330
O O9 0.935139 0.274479 0.000000
O O10 0.098273 0.621751 0.341832
O O11 0.179577 0.685779 0.301739
O O12 0.138902 0.614728 0.154228
O O13 0.054516 0.573475 0.500000
O O14 0.083641 0.500000 0.652767
O O15 0.000000 0.575482 0.672185
O O16 0.293900 0.500000 0.695825
O O17 0.272656 0.374886 0.652850
O O18 0.239600 0.426284 0.820073
O O19 0.712264 0.162606 0.500000
O O20 0.750000 0.250000 0.621433
O O21 0.161201 0.500000 0.117876
O O22 0.201833 0.409580 0.000000
#
# Coordination Sequence:
#
# PCOD8266551 Si02
#       8
#    16   8  16  16  16  16  16  16
#     4  10  18  31  49  73 107 142 173 208 253 300
#     4   9  16  26  44  70  99 131 166 203 243 287
#     4  10  20  33  48  71 106 145 180 215 255 304
#     4  11  19  31  52  73  93 130 175 210 249 308
#     4   9  18  32  49  71  97 120 150 203 266 316
#     4  10  20  33  53  80 105 134 173 215 260 311
#     4  10  22  39  55  74 102 133 169 216 268 316
#     4   9  18  31  45  67 100 131 162 204 249 295
#
# _framework density 17.639554
#
# number of rings (size 3 to 8) (size 9 to 14) (size 15 to 20)
#    0.000    2.200    0.667    3.600    0.000    2.133 
#    0.000    0.000    0.000    6.400    0.000    6.067 
#    0.000    1.600    0.000    0.000    0.000    0.000 
#
# Total GULP energy -743296.706109 kJ/mol
# GULP energy per Si atom -12388.278435 kJ/mol
# Density = 1.759941 g / cm^3
# Si number density = 17.639554 Si / 1000 Ang^3
#
#
#
# Elastic Constant Matrix: (Units=GPa)
#
#
# Indices 1 2 3 4 5 6 
#
# 1 62.0709 28.9976 14.5501 0.0000 0.0000 0.0000
# 2 28.9976 90.1598 32.0460 0.0000 0.0000 0.0000
# 3 14.5501 32.0460 62.5544 0.0000 0.0000 0.0000
# 4 0.0000 0.0000 0.0000 24.8959 0.0000 0.0000
# 5 0.0000 0.0000 0.0000 0.0000 30.3233 0.0000
# 6 0.0000 0.0000 0.0000 0.0000 0.0000 38.4800
#
#
#
# Elastic Compliance Matrix: (Units=1/GPa)
#
#
# Indices 1 2 3 4 5 6 
#
# 1 0.019087 -0.005576 -0.001583 0.000000 0.000000 0.000000
# 2 -0.005576 0.015190 -0.006485 0.000000 0.000000 0.000000
# 3 -0.001583 -0.006485 0.019676 0.000000 0.000000 0.000000
# 4 0.000000 0.000000 0.000000 0.040167 0.000000 0.000000
# 5 0.000000 0.000000 0.000000 0.000000 0.032978 0.000000
# 6 0.000000 0.000000 0.000000 0.000000 0.000000 0.025988
#
#
# Mechanical properties :
#
#
# Convention : Reuss Voigt Hill
#
# Bulk Modulus (GPa) = 37.50179 40.66362 39.08271
# Shear Modulus (GPa) = 26.41857 28.01928 27.21892
#
# Velocity S-wave (km/s) = 3.87420 3.98984 3.93244
# Velocity P-wave (km/s) = 6.42797 6.65790 6.54394
#
# Compressibility (1/GPa) = 0.02666539
#
# Stress axis : x y z
#
# Youngs Moduli (GPa) = 52.39266 65.83422 50.82274
#
# Poissons Ratio (x) = 0.36710 0.08045
# Poissons Ratio (y) = 0.29215 0.32956
# Poissons Ratio (z) = 0.08294 0.42690
#
# Static dielectric constant tensor:
#      x y z
#    x 3.486430 0.000000 0.000000 
#    y 0.000000 3.510900 0.000000 
#    z 0.000000 0.000000 3.161600 
# 
# 
# High freq. dielectric constant tensor:
#      x y z
#    x 1.683560 0.000000 0.000000 
#    y 0.000000 1.690960 0.000000 
#    z 0.000000 0.000000 1.659150 
# 
# From -- ./inp_files/31141.got.cif
#   From: 2010.03.12/outbox.cif.g09.slc.cpg/sg65_16_cif.got.tgz:31141.got - 2010.04.10 20:52:16.
