data_PCOD8266932
_publ_section_title
;
Structure prediction by ZEFSAII (Michael W. Deem and Ramdas Pophale) SiO2 
 PCOD8266932
Probable space group: C M M M
;
_chemical_formula_sum "Si O2"
_cell_formula_units_Z 88
_cell_length_a 8.936306
_cell_length_b 23.683171
_cell_length_c 22.797203
_cell_angle_alpha 90.000000
_cell_angle_beta 90.000000
_cell_angle_gamma 90.000000
_cell_volume 4824.801482
_symmetry_space_group_name_H-M "C M M M"
_symmetry_group_IT_number 65
_symmetry_cell_setting 'orthorhombic'
loop_
_space_group_symop_operation_xyz
x,y,z
-x,-y,z
x,-y,-z
-x,y,-z
-x,-y,-z
x,y,-z
-x,y,z
x,-y,z
1/2+x,1/2+y,z
1/2-x,1/2-y,z
1/2+x,1/2-y,-z
1/2-x,1/2+y,-z
1/2-x,1/2-y,-z
1/2+x,1/2+y,-z
1/2-x,1/2+y,z
1/2+x,1/2-y,z
loop_
_atom_site_type_symbol
_atom_site_label
_atom_site_fract_x
_atom_site_fract_y
_atom_site_fract_z
Si Si1 0.177347 0.933734 0.500000
Si Si2 0.827720 0.876170 0.176130
Si Si3 0.176665 0.311066 0.281849
Si Si4 0.176237 0.809013 0.935044
Si Si5 0.676684 0.891833 0.614697
Si Si6 0.825914 0.500000 0.680189
Si Si7 0.167117 0.000000 0.203377
O O1 0.236175 0.895833 0.446226
O O2 0.000000 0.933975 0.500000
O O3 0.235237 0.000000 0.500000
O O4 0.734749 0.853002 0.231284
O O5 0.766834 0.851563 0.114880
O O6 0.809059 0.943288 0.166095
O O7 0.000000 0.859406 0.187278
O O8 0.250000 0.250000 0.275700
O O9 0.214721 0.336333 0.346497
O O10 0.000000 0.305364 0.273668
O O11 0.250000 0.750000 0.920045
O O12 0.000000 0.801033 0.932277
O O13 0.224948 0.830548 0.000000
O O14 0.500000 0.895602 0.602404
O O15 0.742030 0.944459 0.651063
O O16 0.792687 0.500000 0.747956
O O17 0.000000 0.500000 0.670072
O O18 0.000000 0.000000 0.231295
#
# Coordination Sequence:
#
# PCOD8266932 Si02
#       7
#     8  16  16  16  16   8   8
#     4  11  23  35  54  85 114 139 172 216 265 312
#     4  10  20  34  53  79 110 142 177 220 270 320
#     4  11  23  38  57  81 108 141 180 222 268 318
#     4   9  18  33  52  74 102 138 181 225 267 314
#     4  10  21  37  57  79 107 141 177 215 261 317
#     4  10  18  33  55  79 106 139 177 218 263 316
#     4  10  20  32  50  79 112 142 172 216 271 320
#
# _framework density 18.239091999999999
#
# number of rings (size 3 to 8) (size 9 to 14) (size 15 to 20)
#    0.000    1.909    2.727    1.364    0.000    4.727 
#    0.000    0.909    0.000    2.727    0.000    0.000 
#    0.000    5.091    0.000    0.000    0.000    0.000 
#
# Total GULP energy -545366.712281 kJ/mol
# GULP energy per Si atom -12394.698006 kJ/mol
# Density = 1.819758 g / cm^3
# Si number density = 18.239092 Si / 1000 Ang^3
#
#
#
# Elastic Constant Matrix: (Units=GPa)
#
#
# Indices 1 2 3 4 5 6 
#
# 1 46.7513 36.3382 40.2116 0.0000 0.0000 0.0000
# 2 36.3382 121.3946 67.4247 0.0000 0.0000 0.0000
# 3 40.2116 67.4247 140.1485 0.0000 0.0000 0.0000
# 4 0.0000 0.0000 0.0000 47.0337 0.0000 0.0000
# 5 0.0000 0.0000 0.0000 0.0000 24.8596 0.0000
# 6 0.0000 0.0000 0.0000 0.0000 0.0000 22.9488
#
#
#
# Elastic Compliance Matrix: (Units=1/GPa)
#
#
# Indices 1 2 3 4 5 6 
#
# 1 0.031282 -0.005975 -0.006101 0.000000 0.000000 0.000000
# 2 -0.005975 0.012383 -0.004243 0.000000 0.000000 0.000000
# 3 -0.006101 -0.004243 0.010927 0.000000 0.000000 0.000000
# 4 0.000000 0.000000 0.000000 0.021261 0.000000 0.000000
# 5 0.000000 0.000000 0.000000 0.000000 0.040226 0.000000
# 6 0.000000 0.000000 0.000000 0.000000 0.000000 0.043575
#
#
# Mechanical properties :
#
#
# Convention : Reuss Voigt Hill
#
# Bulk Modulus (GPa) = 45.55074 66.24925 55.89999
# Shear Modulus (GPa) = 25.04893 29.92308 27.48600
#
# Velocity S-wave (km/s) = 3.70991 4.05483 3.88620
# Velocity P-wave (km/s) = 6.58633 7.63700 7.13104
#
# Compressibility (1/GPa) = 0.02195354
#
# Stress axis : x y z
#
# Youngs Moduli (GPa) = 31.96776 80.75706 91.51738
#
# Poissons Ratio (x) = 0.48256 0.55831
# Poissons Ratio (y) = 0.19102 0.38829
# Poissons Ratio (z) = 0.19502 0.34264
#
# Static dielectric constant tensor:
#      x y z
#    x 3.292570 0.000000 0.000000 
#    y 0.000000 3.516250 0.000000 
#    z 0.000000 0.000000 3.490570 
# 
# 
# High freq. dielectric constant tensor:
#      x y z
#    x 1.701420 0.000000 0.000000 
#    y 0.000000 1.703920 0.000000 
#    z 0.000000 0.000000 1.706950 
# 
# From -- ./inp_files/59863.got.cif
#   From: 2010.03.12/outbox.cif.g09.slc.cpg/sg65_30_cif.got.tgz:59863.got - 2010.04.10 20:52:16.
