data_PCOD8266073
_publ_section_title
;
Structure prediction by ZEFSAII (Michael W. Deem and Ramdas Pophale) SiO2 
 PCOD8266073
Probable space group: C M M M
;
_chemical_formula_sum "Si O2"
_cell_formula_units_Z 104
_cell_length_a 17.250352
_cell_length_b 28.697061
_cell_length_c 13.000608
_cell_angle_alpha 90.000000
_cell_angle_beta 90.000000
_cell_angle_gamma 90.000000
_cell_volume 6435.748228
_symmetry_space_group_name_H-M "C M M M"
_symmetry_group_IT_number 65
_symmetry_cell_setting 'orthorhombic'
loop_
_space_group_symop_operation_xyz
x,y,z
-x,-y,z
x,-y,-z
-x,y,-z
-x,-y,-z
x,y,-z
-x,y,z
x,-y,z
1/2+x,1/2+y,z
1/2-x,1/2-y,z
1/2+x,1/2-y,-z
1/2-x,1/2+y,-z
1/2-x,1/2-y,-z
1/2+x,1/2+y,-z
1/2-x,1/2+y,z
1/2+x,1/2-y,z
loop_
_atom_site_type_symbol
_atom_site_label
_atom_site_fract_x
_atom_site_fract_y
_atom_site_fract_z
Si Si1 0.913234 0.682443 0.615111
Si Si2 0.323664 0.781190 0.198484
Si Si3 0.228209 0.137100 0.880024
Si Si4 0.587796 0.927400 0.383970
Si Si5 0.414179 0.697923 0.120173
Si Si6 0.312219 0.947536 0.808505
Si Si7 0.085277 0.554886 0.000000
O O1 0.892469 0.698307 0.500000
O O2 0.852585 0.706285 0.688944
O O3 0.906910 0.627488 0.625805
O O4 0.000000 0.698554 0.643671
O O5 0.250000 0.750000 0.216790
O O6 0.300346 0.827205 0.134304
O O7 0.388699 0.751344 0.139320
O O8 0.148909 0.160779 0.836552
O O9 0.241785 0.089754 0.813523
O O10 0.221229 0.124378 0.000000
O O11 0.611026 0.943104 0.500000
O O12 0.500000 0.944245 0.360310
O O13 0.646248 0.949729 0.302071
O O14 0.500000 0.689156 0.168621
O O15 0.418320 0.690221 0.000000
O O16 0.281747 0.000000 0.832387
O O17 0.370778 0.929258 0.896855
O O18 0.076550 0.500000 0.000000
O O19 0.000000 0.578275 0.000000
#
# Coordination Sequence:
#
# PCOD8266073 Si02
#       7
#    16  16  16  16  16  16   8
#     4   9  17  29  44  62  89 123 155 188 226 269
#     4  10  18  29  48  70  92 119 152 188 231 276
#     4  10  19  32  48  68  96 125 151 187 237 281
#     4   9  18  32  48  65  89 125 165 200 232 269
#     4   9  18  32  50  71  94 121 154 190 229 279
#     4  11  20  31  48  68  92 125 161 195 234 281
#     4   9  18  30  42  62  92 121 151 187 224 272
#
# _framework density 16.159737
#
# number of rings (size 3 to 8) (size 9 to 14) (size 15 to 20)
#    0.000    2.385    2.308    2.308    0.000    3.385 
#    0.000    0.769    0.000    0.462    0.000    2.154 
#    0.000    0.000    0.000    1.385    0.000    0.000 
#
# Total GULP energy -644522.060550 kJ/mol
# GULP energy per Si atom -12394.655011 kJ/mol
# Density = 1.612296 g / cm^3
# Si number density = 16.159737 Si / 1000 Ang^3
#
#
#
# Elastic Constant Matrix: (Units=GPa)
#
#
# Indices 1 2 3 4 5 6 
#
# 1 77.4301 41.4756 25.8976 0.0000 0.0000 0.0000
# 2 41.4756 85.9711 20.4604 0.0000 0.0000 0.0000
# 3 25.8976 20.4604 65.6819 0.0000 0.0000 0.0000
# 4 0.0000 0.0000 0.0000 19.1523 0.0000 0.0000
# 5 0.0000 0.0000 0.0000 0.0000 22.0200 0.0000
# 6 0.0000 0.0000 0.0000 0.0000 0.0000 8.5753
#
#
#
# Elastic Compliance Matrix: (Units=1/GPa)
#
#
# Indices 1 2 3 4 5 6 
#
# 1 0.018798 -0.007890 -0.004954 0.000000 0.000000 0.000000
# 2 -0.007890 0.015875 -0.001834 0.000000 0.000000 0.000000
# 3 -0.004954 -0.001834 0.017750 0.000000 0.000000 0.000000
# 4 0.000000 0.000000 0.000000 0.052213 0.000000 0.000000
# 5 0.000000 0.000000 0.000000 0.000000 0.045413 0.000000
# 6 0.000000 0.000000 0.000000 0.000000 0.000000 0.116614
#
#
# Mechanical properties :
#
#
# Convention : Reuss Voigt Hill
#
# Bulk Modulus (GPa) = 43.35377 44.97225 44.16301
# Shear Modulus (GPa) = 16.46318 19.36615 17.91467
#
# Velocity S-wave (km/s) = 3.19529 3.46558 3.33318
# Velocity P-wave (km/s) = 6.36394 6.62600 6.49629
#
# Compressibility (1/GPa) = 0.02306604
#
# Stress axis : x y z
#
# Youngs Moduli (GPa) = 53.19697 62.99344 56.33926
#
# Poissons Ratio (x) = 0.49701 0.27911
# Poissons Ratio (y) = 0.41971 0.10334
# Poissons Ratio (z) = 0.26354 0.11554
#
# Static dielectric constant tensor:
#      x y z
#    x 3.242730 0.000000 0.000000 
#    y 0.000000 3.015660 0.000000 
#    z 0.000000 0.000000 3.097810 
# 
# 
# High freq. dielectric constant tensor:
#      x y z
#    x 1.598520 0.000000 0.000000 
#    y 0.000000 1.615450 0.000000 
#    z 0.000000 0.000000 1.614350 
# 
# From -- ./inp_files/27468.got.cif
#   From: 2010.03.12/outbox.cif.g09.slc.cpg/sg65_14_cif.got.tgz:27468.got - 2010.04.10 20:52:16.
