data_PCOD8266236
_publ_section_title
;
Structure prediction by ZEFSAII (Michael W. Deem and Ramdas Pophale) SiO2 
 PCOD8266236
Probable space group: C M M M
;
_chemical_formula_sum "Si O2"
_cell_formula_units_Z 120
_cell_length_a 22.928706
_cell_length_b 15.217849
_cell_length_c 20.228363
_cell_angle_alpha 90.000000
_cell_angle_beta 90.000000
_cell_angle_gamma 90.000000
_cell_volume 7058.193407
_symmetry_space_group_name_H-M "C M M M"
_symmetry_group_IT_number 65
_symmetry_cell_setting 'orthorhombic'
loop_
_space_group_symop_operation_xyz
x,y,z
-x,-y,z
x,-y,-z
-x,y,-z
-x,-y,-z
x,y,-z
-x,y,z
x,-y,z
1/2+x,1/2+y,z
1/2-x,1/2-y,z
1/2+x,1/2-y,-z
1/2-x,1/2+y,-z
1/2-x,1/2-y,-z
1/2+x,1/2+y,-z
1/2-x,1/2+y,z
1/2+x,1/2-y,z
loop_
_atom_site_type_symbol
_atom_site_label
_atom_site_fract_x
_atom_site_fract_y
_atom_site_fract_z
Si Si1 0.436432 0.098718 0.754403
Si Si2 0.431517 0.899047 0.500000
Si Si3 0.163581 0.398244 0.850435
Si Si4 0.124649 0.651814 0.370047
Si Si5 0.182305 0.234720 0.927940
Si Si6 0.693236 0.303830 0.315928
Si Si7 0.297149 0.398653 0.816241
Si Si8 0.755020 0.599109 0.425963
O O1 0.500000 0.146908 0.762505
O O2 0.384306 0.137708 0.798558
O O3 0.416306 0.096579 0.678485
O O4 0.445324 0.000000 0.778183
O O5 0.500000 0.905338 0.500000
O O6 0.410457 0.841616 0.438055
O O7 0.405546 0.000000 0.500000
O O8 0.154626 0.500000 0.872990
O O9 0.155173 0.330344 0.910621
O O10 0.227165 0.386607 0.817522
O O11 0.137092 0.744370 0.333268
O O12 0.185469 0.603568 0.384492
O O13 0.250000 0.250000 0.934646
O O14 0.170886 0.159638 0.872768
O O15 0.157202 0.205336 0.000000
O O16 0.750000 0.250000 0.292807
O O17 0.678803 0.369829 0.255757
O O18 0.705333 0.350610 0.385870
O O19 0.314189 0.500000 0.828400
O O20 0.762387 0.639569 0.500000
O O21 0.734231 0.500000 0.431667
#
# Coordination Sequence:
#
# PCOD8266236 Si02
#       8
#    16   8  16  16  16  16  16  16
#     4  10  19  30  45  65  89 121 165 208 238 269
#     4  11  22  34  47  64  89 121 158 197 236 284
#     4   9  17  29  47  69  98 134 165 193 234 283
#     4  11  20  30  46  63  90 124 157 194 239 286
#     4   9  17  29  46  70 101 131 163 196 229 282
#     4  10  20  29  45  65  92 123 157 196 238 288
#     4  10  18  30  47  69  99 130 163 196 235 287
#     4  10  19  30  45  65  93 124 157 192 233 291
#
# _framework density 17.001517
#
# number of rings (size 3 to 8) (size 9 to 14) (size 15 to 20)
#    0.000    2.067    0.667    5.600    0.933    3.467 
#    0.000    2.667    0.000    0.400    0.000    1.867 
#    0.000   27.200    0.000    4.800    0.000    2.933 
#
# Total GULP energy -743498.302685 kJ/mol
# GULP energy per Si atom -12391.638378 kJ/mol
# Density = 1.696282 g / cm^3
# Si number density = 17.001517 Si / 1000 Ang^3
#
#
#
# Elastic Constant Matrix: (Units=GPa)
#
#
# Indices 1 2 3 4 5 6 
#
# 1 47.8922 23.3827 30.8147 0.0000 0.0000 0.0000
# 2 23.3827 89.5728 51.8212 0.0000 0.0000 0.0000
# 3 30.8147 51.8212 122.6160 0.0000 0.0000 0.0000
# 4 0.0000 0.0000 0.0000 29.1667 0.0000 0.0000
# 5 0.0000 0.0000 0.0000 0.0000 11.7683 0.0000
# 6 0.0000 0.0000 0.0000 0.0000 0.0000 14.4045
#
#
#
# Elastic Compliance Matrix: (Units=1/GPa)
#
#
# Indices 1 2 3 4 5 6 
#
# 1 0.025932 -0.003970 -0.004839 0.000000 0.000000 0.000000
# 2 -0.003970 0.015385 -0.005504 0.000000 0.000000 0.000000
# 3 -0.004839 -0.005504 0.011698 0.000000 0.000000 0.000000
# 4 0.000000 0.000000 0.000000 0.034286 0.000000 0.000000
# 5 0.000000 0.000000 0.000000 0.000000 0.084974 0.000000
# 6 0.000000 0.000000 0.000000 0.000000 0.000000 0.069423
#
#
# Mechanical properties :
#
#
# Convention : Reuss Voigt Hill
#
# Bulk Modulus (GPa) = 41.00376 52.45758 46.73067
# Shear Modulus (GPa) = 17.95628 21.33873 19.64751
#
# Velocity S-wave (km/s) = 3.25338 3.54659 3.40315
# Velocity P-wave (km/s) = 6.18730 6.90599 6.55650
#
# Compressibility (1/GPa) = 0.02438801
#
# Stress axis : x y z
#
# Youngs Moduli (GPa) = 38.56231 64.99852 85.48424
#
# Poissons Ratio (x) = 0.25803 0.41368
# Poissons Ratio (y) = 0.15308 0.47055
# Poissons Ratio (z) = 0.18661 0.35778
#
# Static dielectric constant tensor:
#      x y z
#    x 3.060620 0.000000 0.000000 
#    y 0.000000 3.210800 0.000000 
#    z 0.000000 0.000000 3.440950 
# 
# 
# High freq. dielectric constant tensor:
#      x y z
#    x 1.606800 0.000000 0.000000 
#    y 0.000000 1.643500 0.000000 
#    z 0.000000 0.000000 1.664700 
# 
# From -- ./inp_files/65575.got.cif
#   From: 2010.03.12/outbox.cif.g09.slc.cpg/sg65_33_cif.got.tgz:65575.got - 2010.04.10 20:52:16.
