data_PCOD8266950
_publ_section_title
;
Structure prediction by ZEFSAII (Michael W. Deem and Ramdas Pophale) SiO2 
 PCOD8266950
Probable space group: C M M M
;
_chemical_formula_sum "Si O2"
_cell_formula_units_Z 104
_cell_length_a 25.750629
_cell_length_b 25.262142
_cell_length_c 8.906577
_cell_angle_alpha 90.000000
_cell_angle_beta 90.000000
_cell_angle_gamma 90.000000
_cell_volume 5793.871257
_symmetry_space_group_name_H-M "C M M M"
_symmetry_group_IT_number 65
_symmetry_cell_setting 'orthorhombic'
loop_
_space_group_symop_operation_xyz
x,y,z
-x,-y,z
x,-y,-z
-x,y,-z
-x,-y,-z
x,y,-z
-x,y,z
x,-y,z
1/2+x,1/2+y,z
1/2-x,1/2-y,z
1/2+x,1/2-y,-z
1/2-x,1/2+y,-z
1/2-x,1/2-y,-z
1/2+x,1/2+y,-z
1/2-x,1/2+y,z
1/2+x,1/2-y,z
loop_
_atom_site_type_symbol
_atom_site_label
_atom_site_fract_x
_atom_site_fract_y
_atom_site_fract_z
Si Si1 0.057316 0.937434 0.834023
Si Si2 0.716087 0.500000 0.177490
Si Si3 0.394805 0.898097 0.179235
Si Si4 0.300707 0.688686 0.176653
Si Si5 0.153937 0.092172 0.672338
Si Si6 0.000000 0.437541 0.321116
Si Si7 0.816771 0.308086 0.825190
Si Si8 0.831577 0.500000 0.822688
O O1 0.093239 0.915764 0.702378
O O2 0.000000 0.914459 0.805166
O O3 0.056424 0.000000 0.826964
O O4 0.076976 0.919579 0.000000
O O5 0.687254 0.447654 0.228999
O O6 0.773879 0.500000 0.246171
O O7 0.717183 0.500000 0.000000
O O8 0.450545 0.905232 0.257649
O O9 0.362962 0.845905 0.239541
O O10 0.361028 0.947988 0.233061
O O11 0.403228 0.896476 0.000000
O O12 0.335131 0.651457 0.278483
O O13 0.241463 0.679937 0.233861
O O14 0.325454 0.746325 0.209335
O O15 0.304515 0.676011 0.000000
O O16 0.166832 0.082255 0.500000
O O17 0.000000 0.500000 0.269795
O O18 0.000000 0.434225 0.500000
O O19 0.816052 0.319667 0.000000
O O20 0.827962 0.500000 0.000000
#
# Coordination Sequence:
#
# PCOD8266950 Si02
#       8
#    16   8  16  16  16   8  16   8
#     4   9  18  34  56  77  96 128 175 217 255 304
#     4  11  21  35  53  75 107 146 180 214 259 316
#     4  10  18  33  57  83 106 133 177 229 274 315
#     4   9  17  34  58  80 107 142 178 221 269 319
#     4  12  23  33  48  78 113 143 173 213 263 322
#     4  11  23  37  51  75 111 151 189 218 265 332
#     4   8  16  32  58  86 105 132 182 231 267 312
#     4   9  18  30  52  82 107 132 168 215 267 316
#
# _framework density 17.950001
#
# number of rings (size 3 to 8) (size 9 to 14) (size 15 to 20)
#    0.000    2.231    1.538    4.154    0.000    3.077 
#    0.000    6.923    1.692    0.000    0.000    0.000 
#    0.000    0.000    0.000    0.000    0.000    0.000 
#
# Total GULP energy -644454.040707 kJ/mol
# GULP energy per Si atom -12393.346937 kJ/mol
# Density = 1.790915 g / cm^3
# Si number density = 17.950001 Si / 1000 Ang^3
#
#
#
# Elastic Constant Matrix: (Units=GPa)
#
#
# Indices 1 2 3 4 5 6 
#
# 1 134.2724 63.3678 36.5809 0.0000 0.0000 0.0000
# 2 63.3678 102.0185 31.5826 0.0000 0.0000 0.0000
# 3 36.5809 31.5826 58.6178 0.0000 0.0000 0.0000
# 4 0.0000 0.0000 0.0000 2.7977 0.0000 0.0000
# 5 0.0000 0.0000 0.0000 0.0000 -7.5622 0.0000
# 6 0.0000 0.0000 0.0000 0.0000 0.0000 26.5172
#
#
#
# Elastic Compliance Matrix: (Units=1/GPa)
#
#
# Indices 1 2 3 4 5 6 
#
# 1 0.011233 -0.005770 -0.003902 0.000000 0.000000 0.000000
# 2 -0.005770 0.014728 -0.004335 0.000000 0.000000 0.000000
# 3 -0.003902 -0.004335 0.021830 0.000000 0.000000 0.000000
# 4 0.000000 0.000000 0.000000 0.357434 0.000000 0.000000
# 5 0.000000 0.000000 0.000000 0.000000 -0.132237 0.000000
# 6 0.000000 0.000000 0.000000 0.000000 0.000000 0.037711
#
#
# Mechanical properties :
#
#
# Convention : Reuss Voigt Hill
#
# Bulk Modulus (GPa) = 50.55776 61.99683 56.27730
# Shear Modulus (GPa) = 14.47997 15.24237 14.86117
#
# Velocity S-wave (km/s) = 2.84330 2.91719 2.88048
# Velocity P-wave (km/s) = 6.24549 6.77940 6.51792
#
# Compressibility (1/GPa) = 0.01977936
#
# Stress axis : x y z
#
# Youngs Moduli (GPa) = 89.02012 67.89886 45.80862
#
# Poissons Ratio (x) = 0.39175 0.17873
# Poissons Ratio (y) = 0.51362 0.19856
# Poissons Ratio (z) = 0.34733 0.29431
#
# Static dielectric constant tensor:
#      x y z
#    x 3.745450 0.000000 0.000000 
#    y 0.000000 3.409640 0.000000 
#    z 0.000000 0.000000 3.032490 
# 
# 
# High freq. dielectric constant tensor:
#      x y z
#    x 1.699950 0.000000 0.000000 
#    y 0.000000 1.687760 0.000000 
#    z 0.000000 0.000000 1.665160 
# 
# From -- ./inp_files/14850.got.cif
#   From: 2010.03.12/outbox.cif.g09.slc.cpg/sg65_8_cif.got.tgz:14850.got - 2010.04.10 20:52:16.
