data_PCOD8266971
_publ_section_title
;
Structure prediction by ZEFSAII (Michael W. Deem and Ramdas Pophale) SiO2 
 PCOD8266971
Probable space group: C M M M
;
_chemical_formula_sum "Si O2"
_cell_formula_units_Z 72
_cell_length_a 14.771691
_cell_length_b 35.456557
_cell_length_c 8.519385
_cell_angle_alpha 90.000000
_cell_angle_beta 90.000000
_cell_angle_gamma 90.000000
_cell_volume 4462.056041
_symmetry_space_group_name_H-M "C M M M"
_symmetry_group_IT_number 65
_symmetry_cell_setting 'orthorhombic'
loop_
_space_group_symop_operation_xyz
x,y,z
-x,-y,z
x,-y,-z
-x,y,-z
-x,-y,-z
x,y,-z
-x,y,z
x,-y,z
1/2+x,1/2+y,z
1/2-x,1/2-y,z
1/2+x,1/2-y,-z
1/2-x,1/2+y,-z
1/2-x,1/2-y,-z
1/2+x,1/2+y,-z
1/2-x,1/2+y,z
1/2+x,1/2-y,z
loop_
_atom_site_type_symbol
_atom_site_label
_atom_site_fract_x
_atom_site_fract_y
_atom_site_fract_z
Si Si1 0.607392 0.000000 0.176366
Si Si2 0.195353 0.786165 0.815494
Si Si3 0.000000 0.226709 0.180711
Si Si4 0.337578 0.152407 0.818000
Si Si5 0.105349 0.578196 0.316220
Si Si6 0.500000 0.805324 0.678132
O O1 0.641749 0.037068 0.267062
O O2 0.500000 0.000000 0.175189
O O3 0.646268 0.000000 0.000000
O O4 0.250000 0.750000 0.744337
O O5 0.244494 0.825694 0.778736
O O6 0.093612 0.788746 0.741437
O O7 0.185523 0.778913 0.000000
O O8 0.000000 0.271677 0.197908
O O9 0.000000 0.215297 0.000000
O O10 0.331675 0.108202 0.776019
O O11 0.413129 0.169109 0.704986
O O12 0.363334 0.157937 0.000000
O O13 0.118609 0.583550 0.500000
O O14 0.000000 0.583468 0.267715
O O15 0.500000 0.790184 0.500000
#
# Coordination Sequence:
#
# PCOD8266971 Si02
#       6
#     8  16   8  16  16   8
#     4   9  17  29  45  65  89 122 159 184 218 266
#     4   9  17  29  48  71  87 113 154 196 234 271
#     4  10  18  34  52  64  87 118 153 194 236 280
#     4  11  20  31  47  66  89 120 160 195 227 270
#     4  10  19  30  44  65  94 122 152 188 229 268
#     4  12  22  30  42  65  91 118 153 193 238 274
#
# _framework density 16.136057999999998
#
# number of rings (size 3 to 8) (size 9 to 14) (size 15 to 20)
#    0.000    1.889    3.333    2.667    0.000    2.222 
#    0.000    3.333    0.000    0.000    0.000    0.000 
#    0.000    0.889    0.000   10.444    0.000    2.000 
#
# Total GULP energy -446263.694956 kJ/mol
# GULP energy per Si atom -12396.213749 kJ/mol
# Density = 1.609933 g / cm^3
# Si number density = 16.136058 Si / 1000 Ang^3
#
#
#
# Elastic Constant Matrix: (Units=GPa)
#
#
# Indices 1 2 3 4 5 6 
#
# 1 109.3959 51.6305 19.6224 0.0000 0.0000 0.0000
# 2 51.6305 123.1132 20.0116 0.0000 0.0000 0.0000
# 3 19.6224 20.0116 45.1449 0.0000 0.0000 0.0000
# 4 0.0000 0.0000 0.0000 19.5371 0.0000 0.0000
# 5 0.0000 0.0000 0.0000 0.0000 2.7103 0.0000
# 6 0.0000 0.0000 0.0000 0.0000 0.0000 -151.7419
#
#
#
# Elastic Compliance Matrix: (Units=1/GPa)
#
#
# Indices 1 2 3 4 5 6 
#
# 1 0.011802 -0.004435 -0.003164 0.000000 0.000000 0.000000
# 2 -0.004435 0.010420 -0.002691 0.000000 0.000000 0.000000
# 3 -0.003164 -0.002691 0.024719 0.000000 0.000000 0.000000
# 4 0.000000 0.000000 0.000000 0.051185 0.000000 0.000000
# 5 0.000000 0.000000 0.000000 0.000000 0.368970 0.000000
# 6 0.000000 0.000000 0.000000 0.000000 0.000000 -0.006590
#
#
# Mechanical properties :
#
#
# Convention : Reuss Voigt Hill
#
# Bulk Modulus (GPa) = 37.93524 51.13144 44.53334
# Shear Modulus (GPa) = 10.20675 -13.47293 -1.63309
#
# Velocity S-wave (km/s) = 2.51777 -2.89270 -1.00711
# Velocity P-wave (km/s) = 5.65799 4.53867 5.12896
#
# Compressibility (1/GPa) = 0.02636072
#
# Stress axis : x y z
#
# Youngs Moduli (GPa) = 84.73301 95.96916 40.45479
#
# Poissons Ratio (x) = 0.42563 0.12799
# Poissons Ratio (y) = 0.37580 0.10887
# Poissons Ratio (z) = 0.26807 0.25827
#
# Static dielectric constant tensor:
#      x y z
#    x 3.169180 0.000000 0.000000 
#    y 0.000000 3.131680 0.000000 
#    z 0.000000 0.000000 2.888180 
# 
# 
# High freq. dielectric constant tensor:
#      x y z
#    x 1.578520 0.000000 0.000000 
#    y 0.000000 1.615590 0.000000 
#    z 0.000000 0.000000 1.610960 
# 
# From -- ./inp_files/7761.got.cif
#   From: 2010.03.12/outbox.cif.g09.slc.cpg/sg65_4_cif.got.tgz:7761.got - 2010.04.10 20:52:16.
