data_PCOD8266280
_publ_section_title
;
Structure prediction by ZEFSAII (Michael W. Deem and Ramdas Pophale) SiO2 
 PCOD8266280
Probable space group: C M M M
;
_chemical_formula_sum "Si O2"
_cell_formula_units_Z 104
_cell_length_a 26.577226
_cell_length_b 9.081323
_cell_length_c 24.230475
_cell_angle_alpha 90.000000
_cell_angle_beta 90.000000
_cell_angle_gamma 90.000000
_cell_volume 5848.179580
_symmetry_space_group_name_H-M "C M M M"
_symmetry_group_IT_number 65
_symmetry_cell_setting 'orthorhombic'
loop_
_space_group_symop_operation_xyz
x,y,z
-x,-y,z
x,-y,-z
-x,y,-z
-x,-y,-z
x,y,-z
-x,y,z
x,-y,z
1/2+x,1/2+y,z
1/2-x,1/2-y,z
1/2+x,1/2-y,-z
1/2-x,1/2+y,-z
1/2-x,1/2-y,-z
1/2+x,1/2+y,-z
1/2-x,1/2+y,z
1/2+x,1/2-y,z
loop_
_atom_site_type_symbol
_atom_site_label
_atom_site_fract_x
_atom_site_fract_y
_atom_site_fract_z
Si Si1 0.701174 0.827845 0.231861
Si Si2 0.556506 0.825428 0.060125
Si Si3 0.590602 0.827014 0.625203
Si Si4 0.000000 0.169223 0.565135
Si Si5 0.557300 0.665983 0.270433
Si Si6 0.100055 0.673906 0.827034
Si Si7 0.700811 0.171067 0.357776
O O1 0.750000 0.750000 0.206566
O O2 0.655112 0.779354 0.193335
O O3 0.692349 0.774841 0.294802
O O4 0.709794 0.000000 0.229341
O O5 0.500000 0.766180 0.070842
O O6 0.592890 0.772829 0.109644
O O7 0.555294 0.000000 0.059155
O O8 0.575893 0.767751 0.000000
O O9 0.551259 0.744454 0.586058
O O10 0.587020 0.770448 0.687669
O O11 0.649107 0.796323 0.607908
O O12 0.578484 0.000000 0.623685
O O13 0.000000 0.183196 0.500000
O O14 0.000000 0.000000 0.584896
O O15 0.500000 0.661687 0.290386
O O16 0.579548 0.500000 0.270400
O O17 0.560130 0.737950 0.210037
O O18 0.090259 0.500000 0.820237
O O19 0.750000 0.250000 0.384086
O O20 0.712991 0.000000 0.359196
#
# Coordination Sequence:
#
# PCOD8266280 Si02
#       7
#    16  16  16   8  16  16  16
#     4   9  17  29  43  65  96 128 165 203 251 309
#     4   8  14  25  43  68  93 119 158 208 258 306
#     4  11  21  36  58  82 110 143 183 224 261 309
#     4  11  25  43  61  85 117 151 186 221 262 311
#     4  11  22  32  45  72 108 139 168 205 259 318
#     4  10  18  30  48  69  95 128 167 211 258 311
#     4   9  18  32  50  77 108 140 177 218 264 318
#
# _framework density 17.783311999999999
#
# number of rings (size 3 to 8) (size 9 to 14) (size 15 to 20)
#    0.000    2.231    2.308    2.077    0.000    4.000 
#    0.000    0.000    0.000    1.385    0.000    2.154 
#    0.000    0.000    0.000    0.000    0.000    0.000 
#
# Total GULP energy -644516.478147 kJ/mol
# GULP energy per Si atom -12394.547657 kJ/mol
# Density = 1.774284 g / cm^3
# Si number density = 17.783312 Si / 1000 Ang^3
#
#
#
# Elastic Constant Matrix: (Units=GPa)
#
#
# Indices 1 2 3 4 5 6 
#
# 1 124.4594 49.3448 36.9362 0.0000 0.0000 0.0000
# 2 49.3448 70.1209 31.5690 0.0000 0.0000 0.0000
# 3 36.9362 31.5690 66.0500 0.0000 0.0000 0.0000
# 4 0.0000 0.0000 0.0000 14.9563 0.0000 0.0000
# 5 0.0000 0.0000 0.0000 0.0000 16.1230 0.0000
# 6 0.0000 0.0000 0.0000 0.0000 0.0000 29.1027
#
#
#
# Elastic Compliance Matrix: (Units=1/GPa)
#
#
# Indices 1 2 3 4 5 6 
#
# 1 0.011688 -0.006731 -0.003319 0.000000 0.000000 0.000000
# 2 -0.006731 0.022047 -0.006774 0.000000 0.000000 0.000000
# 3 -0.003319 -0.006774 0.020234 0.000000 0.000000 0.000000
# 4 0.000000 0.000000 0.000000 0.066861 0.000000 0.000000
# 5 0.000000 0.000000 0.000000 0.000000 0.062023 0.000000
# 6 0.000000 0.000000 0.000000 0.000000 0.000000 0.034361
#
#
# Mechanical properties :
#
#
# Convention : Reuss Voigt Hill
#
# Bulk Modulus (GPa) = 49.20813 55.14780 52.17796
# Shear Modulus (GPa) = 19.40722 21.55512 20.48117
#
# Velocity S-wave (km/s) = 3.30709 3.48530 3.39736
# Velocity P-wave (km/s) = 6.50488 6.87566 6.69284
#
# Compressibility (1/GPa) = 0.02032185
#
# Stress axis : x y z
#
# Youngs Moduli (GPa) = 85.55457 45.35730 49.42253
#
# Poissons Ratio (x) = 0.30530 0.16405
# Poissons Ratio (y) = 0.57586 0.33477
# Poissons Ratio (z) = 0.28398 0.30723
#
# Static dielectric constant tensor:
#      x y z
#    x 3.395950 0.000000 0.000000 
#    y 0.000000 3.170130 0.000000 
#    z 0.000000 0.000000 3.254260 
# 
# 
# High freq. dielectric constant tensor:
#      x y z
#    x 1.689510 0.000000 0.000000 
#    y 0.000000 1.675450 0.000000 
#    z 0.000000 0.000000 1.660930 
# 
# From -- ./inp_files/71841.got.cif
#   From: 2010.03.12/outbox.cif.g09.slc.cpg/sg65_36_cif.got.tgz:71841.got - 2010.04.10 20:52:16.
