data_PCOD8266297
_publ_section_title
;
Structure prediction by ZEFSAII (Michael W. Deem and Ramdas Pophale) SiO2 
 PCOD8266297
Probable space group: C M M M
;
_chemical_formula_sum "Si O2"
_cell_formula_units_Z 96
_cell_length_a 8.683279
_cell_length_b 29.131291
_cell_length_c 20.871560
_cell_angle_alpha 90.000000
_cell_angle_beta 90.000000
_cell_angle_gamma 90.000000
_cell_volume 5279.568118
_symmetry_space_group_name_H-M "C M M M"
_symmetry_group_IT_number 65
_symmetry_cell_setting 'orthorhombic'
loop_
_space_group_symop_operation_xyz
x,y,z
-x,-y,z
x,-y,-z
-x,y,-z
-x,-y,-z
x,y,-z
-x,y,z
x,-y,z
1/2+x,1/2+y,z
1/2-x,1/2-y,z
1/2+x,1/2-y,-z
1/2-x,1/2+y,-z
1/2-x,1/2-y,-z
1/2+x,1/2+y,-z
1/2-x,1/2+y,z
1/2+x,1/2-y,z
loop_
_atom_site_type_symbol
_atom_site_label
_atom_site_fract_x
_atom_site_fract_y
_atom_site_fract_z
Si Si1 0.683244 0.448278 0.570694
Si Si2 0.322385 0.614593 0.071784
Si Si3 0.818753 0.703070 0.877610
Si Si4 0.182638 0.106498 0.690628
Si Si5 0.816715 0.948424 0.813434
Si Si6 0.318195 0.703146 0.738066
O O1 0.741425 0.432755 0.500000
O O2 0.500000 0.446876 0.572202
O O3 0.739647 0.500000 0.585205
O O4 0.752159 0.414644 0.625062
O O5 0.500000 0.626350 0.086750
O O6 0.224773 0.661128 0.076598
O O7 0.259950 0.576860 0.121917
O O8 0.302493 0.594754 0.000000
O O9 0.750000 0.750000 0.907014
O O10 0.748107 0.693857 0.808037
O O11 0.000000 0.708155 0.871684
O O12 0.248781 0.078833 0.751792
O O13 0.230031 0.160029 0.693867
O O14 0.000000 0.101411 0.691041
O O15 0.000000 0.949964 0.811597
O O16 0.749292 0.000000 0.812996
O O17 0.500000 0.707956 0.743723
O O18 0.250000 0.750000 0.707866
#
# Coordination Sequence:
#
# PCOD8266297 Si02
#       6
#    16  16  16  16  16  16
#     4   8  13  21  35  61  98 133 160 189 233 286
#     4  10  20  34  50  70  98 128 159 197 240 287
#     4  11  21  34  53  73  96 124 157 198 246 295
#     4   9  15  24  42  66  94 125 158 196 238 280
#     4   9  16  27  45  69  94 120 156 201 241 277
#     4  10  18  30  48  71  98 125 158 198 241 288
#
# _framework density 18.183304
#
# number of rings (size 3 to 8) (size 9 to 14) (size 15 to 20)
#    0.000    2.500    1.667    4.000    0.000    3.000 
#    0.000    1.667    0.000    1.000    0.000    1.167 
#    0.000    2.000    0.000    7.333    0.000    7.333 
#
# Total GULP energy -595033.825179 kJ/mol
# GULP energy per Si atom -12396.538025 kJ/mol
# Density = 1.814192 g / cm^3
# Si number density = 18.183304 Si / 1000 Ang^3
#
#
#
# Elastic Constant Matrix: (Units=GPa)
#
#
# Indices 1 2 3 4 5 6 
#
# 1 48.6622 27.9017 16.9147 0.0000 0.0000 0.0000
# 2 27.9017 154.1242 85.2187 0.0000 0.0000 0.0000
# 3 16.9147 85.2187 137.2640 0.0000 0.0000 0.0000
# 4 0.0000 0.0000 0.0000 32.4166 0.0000 0.0000
# 5 0.0000 0.0000 0.0000 0.0000 8.1578 0.0000
# 6 0.0000 0.0000 0.0000 0.0000 0.0000 17.1952
#
#
#
# Elastic Compliance Matrix: (Units=1/GPa)
#
#
# Indices 1 2 3 4 5 6 
#
# 1 0.022943 -0.003944 -0.000378 0.000000 0.000000 0.000000
# 2 -0.003944 0.010558 -0.006069 0.000000 0.000000 0.000000
# 3 -0.000378 -0.006069 0.011100 0.000000 0.000000 0.000000
# 4 0.000000 0.000000 0.000000 0.030848 0.000000 0.000000
# 5 0.000000 0.000000 0.000000 0.000000 0.122582 0.000000
# 6 0.000000 0.000000 0.000000 0.000000 0.000000 0.058156
#
#
# Mechanical properties :
#
#
# Convention : Reuss Voigt Hill
#
# Bulk Modulus (GPa) = 41.98584 66.68009 54.33296
# Shear Modulus (GPa) = 17.54948 25.55492 21.55220
#
# Velocity S-wave (km/s) = 3.11004 3.75294 3.44652
# Velocity P-wave (km/s) = 6.00308 7.45185 6.76635
#
# Compressibility (1/GPa) = 0.02381755
#
# Stress axis : x y z
#
# Youngs Moduli (GPa) = 43.58655 94.71674 90.09398
#
# Poissons Ratio (x) = 0.37358 0.03410
# Poissons Ratio (y) = 0.17191 0.54675
# Poissons Ratio (z) = 0.01650 0.57480
#
# Static dielectric constant tensor:
#      x y z
#    x 2.886630 0.000000 0.000000 
#    y 0.000000 3.636280 0.000000 
#    z 0.000000 0.000000 3.472600 
# 
# 
# High freq. dielectric constant tensor:
#      x y z
#    x 1.655920 0.000000 0.000000 
#    y 0.000000 1.711060 0.000000 
#    z 0.000000 0.000000 1.692180 
# 
# From -- ./inp_files/60291.got.cif
#   From: 2010.03.12/outbox.cif.g09.slc.cpg/sg65_31_cif.got.tgz:60291.got - 2010.04.10 20:52:16.
