data_PCOD8266115
_publ_section_title
;
Structure prediction by ZEFSAII (Michael W. Deem and Ramdas Pophale) SiO2 
 PCOD8266115
Probable space group: C M M M
;
_chemical_formula_sum "Si O2"
_cell_formula_units_Z 56
_cell_length_a 8.709588
_cell_length_b 19.327328
_cell_length_c 19.547721
_cell_angle_alpha 90.000000
_cell_angle_beta 90.000000
_cell_angle_gamma 90.000000
_cell_volume 3290.527771
_symmetry_space_group_name_H-M "C M M M"
_symmetry_group_IT_number 65
_symmetry_cell_setting 'orthorhombic'
loop_
_space_group_symop_operation_xyz
x,y,z
-x,-y,z
x,-y,-z
-x,y,-z
-x,-y,-z
x,y,-z
-x,y,z
x,-y,z
1/2+x,1/2+y,z
1/2-x,1/2-y,z
1/2+x,1/2-y,-z
1/2-x,1/2+y,-z
1/2-x,1/2-y,-z
1/2+x,1/2+y,-z
1/2-x,1/2+y,z
1/2+x,1/2-y,z
loop_
_atom_site_type_symbol
_atom_site_label
_atom_site_fract_x
_atom_site_fract_y
_atom_site_fract_z
Si Si1 0.170096 0.319368 0.332219
Si Si2 0.818107 0.175530 0.806879
Si Si3 0.317530 0.577277 0.924558
Si Si4 0.000000 0.419608 0.580721
O O1 0.250000 0.250000 0.362807
O O2 0.264732 0.349743 0.268216
O O3 0.151842 0.380249 0.389266
O O4 0.000000 0.296901 0.306258
O O5 0.750000 0.250000 0.822475
O O6 0.748730 0.125388 0.865030
O O7 0.000000 0.176653 0.809884
O O8 0.500000 0.576820 0.920619
O O9 0.254180 0.500000 0.912543
O O10 0.265624 0.603838 0.000000
O O11 0.000000 0.500000 0.603061
O O12 0.000000 0.412012 0.500000
#
# Coordination Sequence:
#
# PCOD8266115 Si02
#       4
#    16  16  16   8
#     4   9  18  32  53  75 101 131 167 205 244 296
#     4  10  18  29  49  72  99 128 161 204 250 289
#     4   8  15  28  44  64  91 125 167 208 244 289
#     4   9  20  36  54  78 106 134 164 201 250 302
#
# _framework density 17.018547000000002
#
# number of rings (size 3 to 8) (size 9 to 14) (size 15 to 20)
#    0.857    2.143    0.000    4.286    0.000    2.286 
#    0.000    0.000    0.000    5.143    0.000   16.000 
#    0.000    0.000    0.000    0.000    0.000    0.000 
#
# Total GULP energy -346871.509957 kJ/mol
# GULP energy per Si atom -12388.268213 kJ/mol
# Density = 1.697981 g / cm^3
# Si number density = 17.018547 Si / 1000 Ang^3
#
#
#
# Elastic Constant Matrix: (Units=GPa)
#
#
# Indices 1 2 3 4 5 6 
#
# 1 55.7205 25.9386 23.7920 0.0000 0.0000 0.0000
# 2 25.9386 119.2144 91.7661 0.0000 0.0000 0.0000
# 3 23.7920 91.7661 126.0530 0.0000 0.0000 0.0000
# 4 0.0000 0.0000 0.0000 40.1178 0.0000 0.0000
# 5 0.0000 0.0000 0.0000 0.0000 15.3734 0.0000
# 6 0.0000 0.0000 0.0000 0.0000 0.0000 19.8649
#
#
#
# Elastic Compliance Matrix: (Units=1/GPa)
#
#
# Indices 1 2 3 4 5 6 
#
# 1 0.020075 -0.003301 -0.001386 0.000000 0.000000 0.000000
# 2 -0.003301 0.019624 -0.013663 0.000000 0.000000 0.000000
# 3 -0.001386 -0.013663 0.018141 0.000000 0.000000 0.000000
# 4 0.000000 0.000000 0.000000 0.024927 0.000000 0.000000
# 5 0.000000 0.000000 0.000000 0.000000 0.065047 0.000000
# 6 0.000000 0.000000 0.000000 0.000000 0.000000 0.050340
#
#
# Mechanical properties :
#
#
# Convention : Reuss Voigt Hill
#
# Bulk Modulus (GPa) = 47.30302 64.88682 56.09492
# Shear Modulus (GPa) = 20.66968 25.70398 23.18683
#
# Velocity S-wave (km/s) = 3.48880 3.89054 3.69514
# Velocity P-wave (km/s) = 6.63960 7.64144 7.15807
#
# Compressibility (1/GPa) = 0.02114030
#
# Stress axis : x y z
#
# Youngs Moduli (GPa) = 49.81269 50.95927 55.12318
#
# Poissons Ratio (x) = 0.16822 0.07640
# Poissons Ratio (y) = 0.16444 0.75313
# Poissons Ratio (z) = 0.06904 0.69624
#
# Static dielectric constant tensor:
#      x y z
#    x 2.902850 0.000000 0.000000 
#    y 0.000000 3.349660 0.000000 
#    z 0.000000 0.000000 3.258730 
# 
# 
# High freq. dielectric constant tensor:
#      x y z
#    x 1.628980 0.000000 0.000000 
#    y 0.000000 1.652810 0.000000 
#    z 0.000000 0.000000 1.655600 
# 
# From -- ./inp_files/59094.got.cif
#   From: 2010.03.12/outbox.cif.g09.slc.cpg/sg65_30_cif.got.tgz:59094.got - 2010.04.10 20:52:16.
