data_PCOD8266275
_publ_section_title
;
Structure prediction by ZEFSAII (Michael W. Deem and Ramdas Pophale) SiO2 
 PCOD8266275
Probable space group: C M M M
;
_chemical_formula_sum "Si O2"
_cell_formula_units_Z 88
_cell_length_a 27.595891
_cell_length_b 19.226765
_cell_length_c 9.534796
_cell_angle_alpha 90.000000
_cell_angle_beta 90.000000
_cell_angle_gamma 90.000000
_cell_volume 5058.969308
_symmetry_space_group_name_H-M "C M M M"
_symmetry_group_IT_number 65
_symmetry_cell_setting 'orthorhombic'
loop_
_space_group_symop_operation_xyz
x,y,z
-x,-y,z
x,-y,-z
-x,y,-z
-x,-y,-z
x,y,-z
-x,y,z
x,-y,z
1/2+x,1/2+y,z
1/2-x,1/2-y,z
1/2+x,1/2-y,-z
1/2-x,1/2+y,-z
1/2-x,1/2-y,-z
1/2+x,1/2+y,-z
1/2-x,1/2+y,z
1/2+x,1/2-y,z
loop_
_atom_site_type_symbol
_atom_site_label
_atom_site_fract_x
_atom_site_fract_y
_atom_site_fract_z
Si Si1 0.173445 0.919740 0.164870
Si Si2 0.000000 0.922754 0.333583
Si Si3 0.129078 0.420058 0.335866
Si Si4 0.217937 0.582368 0.154284
Si Si5 0.945865 0.693083 0.665926
Si Si6 0.906321 0.159720 0.333757
O O1 0.228199 0.896139 0.202712
O O2 0.140313 0.868629 0.254328
O O3 0.164242 0.000000 0.208601
O O4 0.163481 0.910317 0.000000
O O5 0.952364 0.883852 0.280215
O O6 0.000000 0.924029 0.500000
O O7 0.000000 0.000000 0.269768
O O8 0.137958 0.410793 0.500000
O O9 0.118341 0.500000 0.295910
O O10 0.177465 0.390558 0.262059
O O11 0.083157 0.375247 0.283841
O O12 0.216304 0.500000 0.145969
O O13 0.206744 0.613451 0.000000
O O14 0.951317 0.693971 0.500000
O O15 0.915863 0.760944 0.712544
O O16 0.000000 0.692169 0.732468
O O17 0.898162 0.152360 0.500000
#
# Coordination Sequence:
#
# PCOD8266275 Si02
#       6
#    16   8  16  16  16  16
#     4   9  18  32  49  70  97 127 158 195 239 283
#     4   9  16  26  43  67  90 114 154 199 229 263
#     4   9  17  29  49  76  98 118 154 201 239 278
#     4   8  15  30  50  69  93 126 157 188 235 289
#     4   9  17  31  49  69  97 130 158 190 240 290
#     4  10  18  30  48  69  93 126 163 197 233 276
#
# _framework density 17.394848
#
# number of rings (size 3 to 8) (size 9 to 14) (size 15 to 20)
#    0.000    3.000    0.909    1.636    0.000    2.182 
#    0.000    5.909    0.000    8.727    0.000    2.545 
#    0.000    0.000    0.000    0.000    0.000    0.000 
#
# Total GULP energy -545413.358191 kJ/mol
# GULP energy per Si atom -12395.758141 kJ/mol
# Density = 1.735526 g / cm^3
# Si number density = 17.394848 Si / 1000 Ang^3
#
#
#
# Elastic Constant Matrix: (Units=GPa)
#
#
# Indices 1 2 3 4 5 6 
#
# 1 153.5228 74.3797 53.5094 0.0000 0.0000 0.0000
# 2 74.3797 101.9250 34.5518 0.0000 0.0000 0.0000
# 3 53.5094 34.5518 40.9838 0.0000 0.0000 0.0000
# 4 0.0000 0.0000 0.0000 14.3642 0.0000 0.0000
# 5 0.0000 0.0000 0.0000 0.0000 2.6722 0.0000
# 6 0.0000 0.0000 0.0000 0.0000 0.0000 10.9840
#
#
#
# Elastic Compliance Matrix: (Units=1/GPa)
#
#
# Indices 1 2 3 4 5 6 
#
# 1 0.013910 -0.005592 -0.013446 0.000000 0.000000 0.000000
# 2 -0.005592 0.015986 -0.006175 0.000000 0.000000 0.000000
# 3 -0.013446 -0.006175 0.047161 0.000000 0.000000 0.000000
# 4 0.000000 0.000000 0.000000 0.069618 0.000000 0.000000
# 5 0.000000 0.000000 0.000000 0.000000 0.374224 0.000000
# 6 0.000000 0.000000 0.000000 0.000000 0.000000 0.091042
#
#
# Mechanical properties :
#
#
# Convention : Reuss Voigt Hill
#
# Bulk Modulus (GPa) = 37.55256 69.03483 53.29370
# Shear Modulus (GPa) = 7.44885 14.53678 10.99282
#
# Velocity S-wave (km/s) = 2.07160 2.89397 2.51661
# Velocity P-wave (km/s) = 5.23041 7.13722 6.25688
#
# Compressibility (1/GPa) = 0.02662934
#
# Stress axis : x y z
#
# Youngs Moduli (GPa) = 71.89219 62.55650 21.20383
#
# Poissons Ratio (x) = 0.34985 0.28511
# Poissons Ratio (y) = 0.40206 0.13093
# Poissons Ratio (z) = 0.96667 0.38629
#
# Static dielectric constant tensor:
#      x y z
#    x 3.497490 0.000000 0.000000 
#    y 0.000000 3.205710 0.000000 
#    z 0.000000 0.000000 3.032280 
# 
# 
# High freq. dielectric constant tensor:
#      x y z
#    x 1.681800 0.000000 0.000000 
#    y 0.000000 1.658690 0.000000 
#    z 0.000000 0.000000 1.637030 
# 
# From -- ./inp_files/18329.got.cif
#   From: 2010.03.12/outbox.cif.g09.slc.cpg/sg65_10_cif.got.tgz:18329.got - 2010.04.10 20:52:16.
