data_PCOD8266257
_publ_section_title
;
Structure prediction by ZEFSAII (Michael W. Deem and Ramdas Pophale) SiO2 
 PCOD8266257
Probable space group: C M M M
;
_chemical_formula_sum "Si O2"
_cell_formula_units_Z 104
_cell_length_a 24.768662
_cell_length_b 9.074857
_cell_length_c 28.258303
_cell_angle_alpha 90.000000
_cell_angle_beta 90.000000
_cell_angle_gamma 90.000000
_cell_volume 6351.677139
_symmetry_space_group_name_H-M "C M M M"
_symmetry_group_IT_number 65
_symmetry_cell_setting 'orthorhombic'
loop_
_space_group_symop_operation_xyz
x,y,z
-x,-y,z
x,-y,-z
-x,y,-z
-x,-y,-z
x,y,-z
-x,y,z
x,-y,z
1/2+x,1/2+y,z
1/2-x,1/2-y,z
1/2+x,1/2-y,-z
1/2-x,1/2+y,-z
1/2-x,1/2-y,-z
1/2+x,1/2+y,-z
1/2-x,1/2+y,z
1/2+x,1/2-y,z
loop_
_atom_site_type_symbol
_atom_site_label
_atom_site_fract_x
_atom_site_fract_y
_atom_site_fract_z
Si Si1 0.935621 0.666385 0.500000
Si Si2 0.583452 0.167531 0.868161
Si Si3 0.564330 0.333833 0.592369
Si Si4 0.808728 0.176238 0.000000
Si Si5 0.000000 0.673171 0.053543
Si Si6 0.435532 0.165158 0.684721
Si Si7 0.694867 0.169559 0.909481
Si Si8 0.562014 0.338492 0.226163
O O1 0.913481 0.500000 0.500000
O O2 0.913311 0.748804 0.453560
O O3 0.000000 0.667009 0.500000
O O4 0.553204 0.221632 0.916301
O O5 0.648639 0.176353 0.870060
O O6 0.565653 0.266550 0.824972
O O7 0.565310 0.000000 0.858033
O O8 0.500000 0.333535 0.592005
O O9 0.586677 0.500000 0.591570
O O10 0.586186 0.254211 0.639406
O O11 0.750000 0.250000 0.000000
O O12 0.834530 0.242995 0.047369
O O13 0.809118 0.000000 0.000000
O O14 0.000000 0.500000 0.046204
O O15 0.000000 0.744883 0.000000
O O16 0.500000 0.161950 0.685182
O O17 0.411558 0.239724 0.732419
O O18 0.412453 0.000000 0.682171
O O19 0.750000 0.250000 0.892526
O O20 0.708729 0.000000 0.923131
O O21 0.500000 0.358063 0.239653
O O22 0.589842 0.500000 0.225118
#
# Coordination Sequence:
#
# PCOD8266257 Si02
#       8
#     8  16  16   8   8  16  16  16
#     4   9  15  21  29  41  61  89 123 161 204 253
#     4  10  20  33  52  70  88 114 147 178 211 258
#     4   9  15  22  31  45  65  90 122 162 210 254
#     4  10  18  30  48  67  88 113 137 167 203 241
#     4   9  18  32  51  71  89 113 145 178 209 250
#     4   9  16  25  38  53  71  96 130 168 206 249
#     4  10  20  33  50  71  92 115 143 176 211 252
#     4  10  19  30  44  62  85 109 135 170 215 259
#
# _framework density 16.373628
#
# number of rings (size 3 to 8) (size 9 to 14) (size 15 to 20)
#    0.000    2.462    0.769    3.692    1.077    6.462 
#    0.000    0.000    0.000    0.462    0.000    0.000 
#    0.000    0.000    0.000    0.000    0.000    0.000 
#
# Total GULP energy -644371.362953 kJ/mol
# GULP energy per Si atom -12391.756980 kJ/mol
# Density = 1.633636 g / cm^3
# Si number density = 16.373628 Si / 1000 Ang^3
#
#
#
# Elastic Constant Matrix: (Units=GPa)
#
#
# Indices 1 2 3 4 5 6 
#
# 1 38.7964 15.4455 11.8496 0.0000 0.0000 0.0000
# 2 15.4455 147.2448 68.5522 0.0000 0.0000 0.0000
# 3 11.8496 68.5522 135.9721 0.0000 0.0000 0.0000
# 4 0.0000 0.0000 0.0000 28.6717 0.0000 0.0000
# 5 0.0000 0.0000 0.0000 0.0000 3.2342 0.0000
# 6 0.0000 0.0000 0.0000 0.0000 0.0000 10.4031
#
#
#
# Elastic Compliance Matrix: (Units=1/GPa)
#
#
# Indices 1 2 3 4 5 6 
#
# 1 0.027051 -0.002274 -0.001211 0.000000 0.000000 0.000000
# 2 -0.002274 0.009066 -0.004372 0.000000 0.000000 0.000000
# 3 -0.001211 -0.004372 0.009664 0.000000 0.000000 0.000000
# 4 0.000000 0.000000 0.000000 0.034878 0.000000 0.000000
# 5 0.000000 0.000000 0.000000 0.000000 0.309199 0.000000
# 6 0.000000 0.000000 0.000000 0.000000 0.000000 0.096125
#
#
# Mechanical properties :
#
#
# Convention : Reuss Voigt Hill
#
# Bulk Modulus (GPa) = 33.25980 57.07865 45.16922
# Shear Modulus (GPa) = 9.77100 23.53954 16.65527
#
# Velocity S-wave (km/s) = 2.44550 3.79575 3.19282
# Velocity P-wave (km/s) = 5.32270 7.35840 6.42173
#
# Compressibility (1/GPa) = 0.03006633
#
# Stress axis : x y z
#
# Youngs Moduli (GPa) = 36.96764 110.30784 103.47270
#
# Poissons Ratio (x) = 0.25080 0.12531
# Poissons Ratio (y) = 0.08405 0.45242
# Poissons Ratio (z) = 0.04477 0.48231
#
# Static dielectric constant tensor:
#      x y z
#    x 2.542580 0.000000 0.000000 
#    y 0.000000 3.308120 0.000000 
#    z 0.000000 0.000000 3.344770 
# 
# 
# High freq. dielectric constant tensor:
#      x y z
#    x 1.549270 0.000000 0.000000 
#    y 0.000000 1.644050 0.000000 
#    z 0.000000 0.000000 1.633110 
# 
# From -- ./inp_files/76070.got.cif
#   From: 2010.03.12/outbox.cif.g09.slc.cpg/sg65_39_cif.got.tgz:76070.got - 2010.04.10 20:52:16.
