data_PCOD8266096
_publ_section_title
;
Structure prediction by ZEFSAII (Michael W. Deem and Ramdas Pophale) SiO2 
 PCOD8266096
Probable space group: C M M M
;
_chemical_formula_sum "Si O2"
_cell_formula_units_Z 128
_cell_length_a 20.834755
_cell_length_b 19.242713
_cell_length_c 19.971232
_cell_angle_alpha 90.000000
_cell_angle_beta 90.000000
_cell_angle_gamma 90.000000
_cell_volume 8006.810631
_symmetry_space_group_name_H-M "C M M M"
_symmetry_group_IT_number 65
_symmetry_cell_setting 'orthorhombic'
loop_
_space_group_symop_operation_xyz
x,y,z
-x,-y,z
x,-y,-z
-x,y,-z
-x,-y,-z
x,y,-z
-x,y,z
x,-y,z
1/2+x,1/2+y,z
1/2-x,1/2-y,z
1/2+x,1/2-y,-z
1/2-x,1/2+y,-z
1/2-x,1/2-y,-z
1/2+x,1/2+y,-z
1/2-x,1/2+y,z
1/2+x,1/2-y,z
loop_
_atom_site_type_symbol
_atom_site_label
_atom_site_fract_x
_atom_site_fract_y
_atom_site_fract_z
Si Si1 0.348611 0.923781 0.924890
Si Si2 0.424890 0.210715 0.924931
Si Si3 0.254520 0.420434 0.676684
Si Si4 0.571921 0.215279 0.578072
Si Si5 0.155640 0.770145 0.184364
Si Si6 0.860884 0.422642 0.576460
Si Si7 0.677960 0.284253 0.667408
Si Si8 0.736710 0.867140 0.820637
O O1 0.401623 0.866776 0.905847
O O2 0.285836 0.919627 0.877935
O O3 0.380110 0.000000 0.915931
O O4 0.323448 0.912708 0.000000
O O5 0.500000 0.209020 0.924130
O O6 0.403550 0.265322 0.867450
O O7 0.400276 0.231840 0.000000
O O8 0.279650 0.500000 0.674409
O O9 0.199650 0.407067 0.622626
O O10 0.312668 0.367524 0.660084
O O11 0.224571 0.402984 0.749124
O O12 0.574775 0.232418 0.500000
O O13 0.500000 0.233185 0.605522
O O14 0.583704 0.133339 0.591685
O O15 0.629863 0.259349 0.609996
O O16 0.140177 0.767181 0.263617
O O17 0.189205 0.844746 0.170254
O O18 0.199192 0.704221 0.169258
O O19 0.836966 0.415805 0.500000
O O20 0.888641 0.500000 0.590416
O O21 0.750000 0.250000 0.666308
#
# Coordination Sequence:
#
# PCOD8266096 Si02
#       8
#    16  16  16  16  16  16  16  16
#     4   9  17  27  40  60  87 120 155 187 220 264
#     4   9  18  30  43  62  90 124 159 191 225 271
#     4  10  18  29  48  73  97 124 156 196 241 284
#     4  10  21  34  49  72 100 131 166 200 238 284
#     4   9  16  28  46  66  89 116 150 190 237 278
#     4   9  17  29  46  70 100 130 160 193 232 280
#     4  11  18  33  52  73  97 126 161 202 242 284
#     4   9  15  27  43  63  88 116 144 187 236 278
#
# _framework density 15.98639
#
# number of rings (size 3 to 8) (size 9 to 14) (size 15 to 20)
#    0.000    2.500    3.750    0.375    0.000    2.250 
#    0.000    5.000    0.000    0.375    0.000    4.375 
#    0.000    1.500    0.000   35.750    0.000    0.750 
#
# Total GULP energy -792888.834903 kJ/mol
# GULP energy per Si atom -12388.888045 kJ/mol
# Density = 1.595000 g / cm^3
# Si number density = 15.986390 Si / 1000 Ang^3
#
#
#
# Elastic Constant Matrix: (Units=GPa)
#
#
# Indices 1 2 3 4 5 6 
#
# 1 70.4581 34.8730 48.1746 0.0000 0.0000 0.0000
# 2 34.8730 62.7940 31.0193 0.0000 0.0000 0.0000
# 3 48.1746 31.0193 79.0584 0.0000 0.0000 0.0000
# 4 0.0000 0.0000 0.0000 22.4484 0.0000 0.0000
# 5 0.0000 0.0000 0.0000 0.0000 20.3081 0.0000
# 6 0.0000 0.0000 0.0000 0.0000 0.0000 16.3246
#
#
#
# Elastic Compliance Matrix: (Units=1/GPa)
#
#
# Indices 1 2 3 4 5 6 
#
# 1 0.027729 -0.008748 -0.013464 0.000000 0.000000 0.000000
# 2 -0.008748 0.022514 -0.003503 0.000000 0.000000 0.000000
# 3 -0.013464 -0.003503 0.022228 0.000000 0.000000 0.000000
# 4 0.000000 0.000000 0.000000 0.044547 0.000000 0.000000
# 5 0.000000 0.000000 0.000000 0.000000 0.049241 0.000000
# 6 0.000000 0.000000 0.000000 0.000000 0.000000 0.061257
#
#
# Mechanical properties :
#
#
# Convention : Reuss Voigt Hill
#
# Bulk Modulus (GPa) = 47.52872 48.93826 48.23349
# Shear Modulus (GPa) = 17.48504 18.36580 17.92542
#
# Velocity S-wave (km/s) = 3.31077 3.39313 3.35220
# Velocity P-wave (km/s) = 6.66410 6.78454 6.72459
#
# Compressibility (1/GPa) = 0.02103991
#
# Stress axis : x y z
#
# Youngs Moduli (GPa) = 36.06377 44.41737 44.98899
#
# Poissons Ratio (x) = 0.38857 0.60574
# Poissons Ratio (y) = 0.31549 0.15758
# Poissons Ratio (z) = 0.48557 0.15558
#
# Static dielectric constant tensor:
#      x y z
#    x 2.883840 0.000000 0.000000 
#    y 0.000000 3.211600 0.000000 
#    z 0.000000 0.000000 3.244610 
# 
# 
# High freq. dielectric constant tensor:
#      x y z
#    x 1.576090 0.000000 0.000000 
#    y 0.000000 1.607510 0.000000 
#    z 0.000000 0.000000 1.625350 
# 
# From -- ./inp_files/56250.got.cif
#   From: 2010.03.12/outbox.cif.g09.slc.cpg/sg65_29_cif.got.tgz:56250.got - 2010.04.10 20:52:16.
