data_PCOD8266353
_publ_section_title
;
Structure prediction by ZEFSAII (Michael W. Deem and Ramdas Pophale) SiO2 
 PCOD8266353
Probable space group: C M M M
;
_chemical_formula_sum "Si O2"
_cell_formula_units_Z 128
_cell_length_a 20.654754
_cell_length_b 17.787666
_cell_length_c 19.873159
_cell_angle_alpha 90.000000
_cell_angle_beta 90.000000
_cell_angle_gamma 90.000000
_cell_volume 7301.395943
_symmetry_space_group_name_H-M "C M M M"
_symmetry_group_IT_number 65
_symmetry_cell_setting 'orthorhombic'
loop_
_space_group_symop_operation_xyz
x,y,z
-x,-y,z
x,-y,-z
-x,y,-z
-x,-y,-z
x,y,-z
-x,y,z
x,-y,z
1/2+x,1/2+y,z
1/2-x,1/2-y,z
1/2+x,1/2-y,-z
1/2-x,1/2+y,-z
1/2-x,1/2-y,-z
1/2+x,1/2+y,-z
1/2-x,1/2+y,z
1/2+x,1/2-y,z
loop_
_atom_site_type_symbol
_atom_site_label
_atom_site_fract_x
_atom_site_fract_y
_atom_site_fract_z
Si Si1 0.762966 0.161465 0.705260
Si Si2 0.809586 0.910623 0.162727
Si Si3 0.375537 0.088764 0.306891
Si Si4 0.571859 0.589234 0.924884
Si Si5 0.571447 0.089397 0.834293
Si Si6 0.187095 0.410617 0.075428
Si Si7 0.426418 0.185697 0.575914
Si Si8 0.813578 0.198931 0.426779
O O1 0.750000 0.250000 0.714318
O O2 0.805847 0.130946 0.766240
O O3 0.697193 0.116171 0.700332
O O4 0.803266 0.143472 0.636426
O O5 0.875078 0.880686 0.127507
O O6 0.750098 0.884581 0.116117
O O7 0.809239 0.000000 0.173911
O O8 0.413690 0.117595 0.241072
O O9 0.410635 0.118719 0.373225
O O10 0.375569 0.000000 0.311860
O O11 0.500000 0.615182 0.901813
O O12 0.575823 0.500000 0.927124
O O13 0.586749 0.620080 0.000000
O O14 0.500000 0.117757 0.855416
O O15 0.623607 0.122143 0.887035
O O16 0.575101 0.000000 0.835470
O O17 0.184431 0.500000 0.072509
O O18 0.189607 0.377279 0.000000
O O19 0.416708 0.154867 0.500000
O O20 0.500000 0.213871 0.586785
O O21 0.378066 0.254250 0.589316
O O22 0.820863 0.158044 0.500000
O O23 0.750000 0.250000 0.429818
#
# Coordination Sequence:
#
# PCOD8266353 Si02
#       8
#    16  16  16  16  16  16  16  16
#     4  11  20  33  53  74  96 131 178 212 243 291
#     4  10  18  30  49  74 104 128 156 206 259 298
#     4  11  20  33  51  75 107 140 169 205 256 309
#     4   8  14  26  47  75 102 126 154 193 249 314
#     4   9  17  28  42  64  96 132 165 200 243 287
#     4   9  16  26  43  68  95 126 165 205 244 288
#     4  10  20  34  53  79 108 137 170 210 254 302
#     4   9  17  33  54  71  93 132 174 210 245 286
#
# _framework density 17.530894
#
# number of rings (size 3 to 8) (size 9 to 14) (size 15 to 20)
#    0.000    2.375    3.750    1.500    0.000    2.750 
#    0.000    2.500    0.000    2.625    0.000    0.000 
#    0.000    0.000    0.000   15.625    0.000    0.000 
#
# Total GULP energy -793231.289734 kJ/mol
# GULP energy per Si atom -12394.238902 kJ/mol
# Density = 1.749099 g / cm^3
# Si number density = 17.530894 Si / 1000 Ang^3
#
#
#
# Elastic Constant Matrix: (Units=GPa)
#
#
# Indices 1 2 3 4 5 6 
#
# 1 143.6235 17.3643 73.3681 0.0000 0.0000 0.0000
# 2 17.3643 10.7954 21.2839 0.0000 0.0000 0.0000
# 3 73.3681 21.2839 155.2654 0.0000 0.0000 0.0000
# 4 0.0000 0.0000 0.0000 21.1972 0.0000 0.0000
# 5 0.0000 0.0000 0.0000 0.0000 33.6535 0.0000
# 6 0.0000 0.0000 0.0000 0.0000 0.0000 16.0327
#
#
#
# Elastic Compliance Matrix: (Units=1/GPa)
#
#
# Indices 1 2 3 4 5 6 
#
# 1 0.009787 -0.009078 -0.003380 0.000000 0.000000 0.000000
# 2 -0.009078 0.135358 -0.014266 0.000000 0.000000 0.000000
# 3 -0.003380 -0.014266 0.009993 0.000000 0.000000 0.000000
# 4 0.000000 0.000000 0.000000 0.047176 0.000000 0.000000
# 5 0.000000 0.000000 0.000000 0.000000 0.029715 0.000000
# 6 0.000000 0.000000 0.000000 0.000000 0.000000 0.062373
#
#
# Mechanical properties :
#
#
# Convention : Reuss Voigt Hill
#
# Bulk Modulus (GPa) = 9.83364 59.30190 34.56777
# Shear Modulus (GPa) = 13.09771 27.35454 20.22613
#
# Velocity S-wave (km/s) = 2.73632 3.95443 3.40036
# Velocity P-wave (km/s) = 3.95028 7.39936 5.93107
#
# Compressibility (1/GPa) = 0.10169170
#
# Stress axis : x y z
#
# Youngs Moduli (GPa) = 102.17724 7.38780 100.06593
#
# Poissons Ratio (x) = 0.06706 0.33825
# Poissons Ratio (y) = 0.92753 1.42750
# Poissons Ratio (z) = 0.34539 0.10539
#
# Static dielectric constant tensor:
#      x y z
#    x 3.507680 0.000000 0.000000 
#    y 0.000000 2.726500 0.000000 
#    z 0.000000 0.000000 3.778040 
# 
# 
# High freq. dielectric constant tensor:
#      x y z
#    x 1.689640 0.000000 0.000000 
#    y 0.000000 1.610300 0.000000 
#    z 0.000000 0.000000 1.696220 
# 
# From -- ./inp_files/64849.got.cif
#   From: 2010.03.12/outbox.cif.g09.slc.cpg/sg65_33_cif.got.tgz:64849.got - 2010.04.10 20:52:16.
