data_PCOD8266581
_publ_section_title
;
Structure prediction by ZEFSAII (Michael W. Deem and Ramdas Pophale) SiO2 
 PCOD8266581
Probable space group: C M M M
;
_chemical_formula_sum "Si O2"
_cell_formula_units_Z 96
_cell_length_a 23.544552
_cell_length_b 9.401502
_cell_length_c 25.376256
_cell_angle_alpha 90.000000
_cell_angle_beta 90.000000
_cell_angle_gamma 90.000000
_cell_volume 5617.139646
_symmetry_space_group_name_H-M "C M M M"
_symmetry_group_IT_number 65
_symmetry_cell_setting 'orthorhombic'
loop_
_space_group_symop_operation_xyz
x,y,z
-x,-y,z
x,-y,-z
-x,y,-z
-x,-y,-z
x,y,-z
-x,y,z
x,-y,z
1/2+x,1/2+y,z
1/2-x,1/2-y,z
1/2+x,1/2-y,-z
1/2-x,1/2+y,-z
1/2-x,1/2-y,-z
1/2+x,1/2+y,-z
1/2-x,1/2+y,z
1/2+x,1/2-y,z
loop_
_atom_site_type_symbol
_atom_site_label
_atom_site_fract_x
_atom_site_fract_y
_atom_site_fract_z
Si Si1 0.000000 0.159391 0.165909
Si Si2 0.388756 0.834609 0.848427
Si Si3 0.500000 0.659149 0.289775
Si Si4 0.436113 0.167885 0.557212
Si Si5 0.195809 0.663506 0.059528
Si Si6 0.603681 0.165843 0.333211
Si Si7 0.192062 0.665044 0.247283
O O1 0.055071 0.242592 0.146478
O O2 0.000000 0.149895 0.227890
O O3 0.000000 0.000000 0.141816
O O4 0.356403 0.803366 0.902614
O O5 0.350637 0.785389 0.798764
O O6 0.405006 0.000000 0.841933
O O7 0.500000 0.500000 0.314276
O O8 0.444304 0.742619 0.306033
O O9 0.415835 0.229598 0.500000
O O10 0.500000 0.223799 0.570075
O O11 0.393588 0.211615 0.604787
O O12 0.438128 0.000000 0.552807
O O13 0.213532 0.500000 0.062823
O O14 0.250000 0.750000 0.079660
O O15 0.178584 0.707317 0.000000
O O16 0.663360 0.195956 0.304302
O O17 0.587062 0.000000 0.327475
O O18 0.206948 0.500000 0.240435
O O19 0.250000 0.750000 0.243299
#
# Coordination Sequence:
#
# PCOD8266581 Si02
#       7
#     8  16   8  16  16  16  16
#     4  11  23  35  50  75 104 134 165 200 247 298
#     4  10  20  35  54  75 101 133 166 202 244 295
#     4  11  21  31  46  73 102 130 159 196 247 294
#     4   8  13  22  42  72  97 119 155 202 241 275
#     4   9  18  33  54  79 104 133 170 209 249 290
#     4  10  18  31  51  71  96 130 164 199 239 293
#     4  10  21  33  49  72  96 127 164 201 245 287
#
# _framework density 17.090547999999998
#
# number of rings (size 3 to 8) (size 9 to 14) (size 15 to 20)
#    0.000    2.333    2.500    1.500    0.000    2.667 
#    0.000    0.417    0.000    4.000    0.000    0.000 
#    0.000    0.000    0.000    0.000    0.000    0.000 
#
# Total GULP energy -594985.896837 kJ/mol
# GULP energy per Si atom -12395.539517 kJ/mol
# Density = 1.705165 g / cm^3
# Si number density = 17.090548 Si / 1000 Ang^3
#
#
#
# Elastic Constant Matrix: (Units=GPa)
#
#
# Indices 1 2 3 4 5 6 
#
# 1 122.8169 64.3398 55.7482 0.0000 0.0000 0.0000
# 2 64.3398 69.8422 35.3450 0.0000 0.0000 0.0000
# 3 55.7482 35.3450 104.1509 0.0000 0.0000 0.0000
# 4 0.0000 0.0000 0.0000 11.8453 0.0000 0.0000
# 5 0.0000 0.0000 0.0000 0.0000 21.1347 0.0000
# 6 0.0000 0.0000 0.0000 0.0000 0.0000 -93.1667
#
#
#
# Elastic Compliance Matrix: (Units=1/GPa)
#
#
# Indices 1 2 3 4 5 6 
#
# 1 0.017448 -0.013700 -0.004690 0.000000 0.000000 0.000000
# 2 -0.013700 0.028044 -0.002184 0.000000 0.000000 0.000000
# 3 -0.004690 -0.002184 0.012853 0.000000 0.000000 0.000000
# 4 0.000000 0.000000 0.000000 0.084421 0.000000 0.000000
# 5 0.000000 0.000000 0.000000 0.000000 0.047315 0.000000
# 6 0.000000 0.000000 0.000000 0.000000 0.000000 -0.010733
#
#
# Mechanical properties :
#
#
# Convention : Reuss Voigt Hill
#
# Bulk Modulus (GPa) = 58.14967 67.51956 62.83462
# Shear Modulus (GPa) = 22.10154 -2.61220 9.74467
#
# Velocity S-wave (km/s) = 3.60001 -1.23765 2.39043
# Velocity P-wave (km/s) = 7.16788 6.12784 6.66816
#
# Compressibility (1/GPa) = 0.01719700
#
# Stress axis : x y z
#
# Youngs Moduli (GPa) = 57.31306 35.65843 77.80266
#
# Poissons Ratio (x) = 0.48852 0.36490
# Poissons Ratio (y) = 0.78519 0.16992
# Poissons Ratio (z) = 0.26880 0.07788
#
# Static dielectric constant tensor:
#      x y z
#    x 2.942460 0.000000 0.000000 
#    y 0.000000 3.154600 0.000000 
#    z 0.000000 0.000000 3.640980 
# 
# 
# High freq. dielectric constant tensor:
#      x y z
#    x 1.637310 0.000000 0.000000 
#    y 0.000000 1.643250 0.000000 
#    z 0.000000 0.000000 1.670180 
# 
# From -- ./inp_files/75733.got.cif
#   From: 2010.03.12/outbox.cif.g09.slc.cpg/sg65_38_cif.got.tgz:75733.got - 2010.04.10 20:52:16.
