data_PCOD8266014
_publ_section_title
;
Structure prediction by ZEFSAII (Michael W. Deem and Ramdas Pophale) SiO2 
 PCOD8266014
Probable space group: C M M M
;
_chemical_formula_sum "Si O2"
_cell_formula_units_Z 104
_cell_length_a 17.709559
_cell_length_b 17.343266
_cell_length_c 18.396185
_cell_angle_alpha 90.000000
_cell_angle_beta 90.000000
_cell_angle_gamma 90.000000
_cell_volume 5650.233556
_symmetry_space_group_name_H-M "C M M M"
_symmetry_group_IT_number 65
_symmetry_cell_setting 'orthorhombic'
loop_
_space_group_symop_operation_xyz
x,y,z
-x,-y,z
x,-y,-z
-x,y,-z
-x,-y,-z
x,y,-z
-x,y,z
x,-y,z
1/2+x,1/2+y,z
1/2-x,1/2-y,z
1/2+x,1/2-y,-z
1/2-x,1/2+y,-z
1/2-x,1/2-y,-z
1/2+x,1/2+y,-z
1/2-x,1/2+y,z
1/2+x,1/2-y,z
loop_
_atom_site_type_symbol
_atom_site_label
_atom_site_fract_x
_atom_site_fract_y
_atom_site_fract_z
Si Si1 0.000000 0.084030 0.085979
Si Si2 0.414467 0.411486 0.414340
Si Si3 0.176385 0.585805 0.765244
Si Si4 0.735185 0.084350 0.920413
Si Si5 0.696765 0.321352 0.686250
Si Si6 0.629297 0.695183 0.082200
Si Si7 0.912031 0.727098 0.782144
O O1 0.073177 0.129772 0.112060
O O2 0.000000 0.000000 0.123337
O O3 0.000000 0.075208 0.000000
O O4 0.405772 0.402771 0.500000
O O5 0.500000 0.385810 0.391377
O O6 0.401747 0.500000 0.390497
O O7 0.348408 0.358831 0.380537
O O8 0.158128 0.500000 0.735851
O O9 0.178971 0.585499 0.852854
O O10 0.253432 0.614767 0.727913
O O11 0.107891 0.643953 0.747013
O O12 0.788590 0.158226 0.912344
O O13 0.777486 0.000000 0.919135
O O14 0.694546 0.092320 0.000000
O O15 0.750000 0.250000 0.659944
O O16 0.632893 0.293987 0.741566
O O17 0.617729 0.769258 0.134032
O O18 0.610526 0.721277 0.000000
O O19 0.000000 0.742255 0.774692
#
# Coordination Sequence:
#
# PCOD8266014 Si02
#       7
#     8  16  16  16  16  16  16
#     4   9  16  26  40  62  93 125 156 194 251 318
#     4   9  18  34  57  84 114 145 170 194 235 296
#     4  10  21  36  53  72  97 132 174 219 261 304
#     4   9  17  30  48  69  93 123 164 213 262 308
#     4  10  20  35  55  79 106 135 171 215 253 289
#     4  10  18  29  46  67  94 129 165 211 263 311
#     4  11  22  35  50  72 102 134 171 213 263 314
#
# _framework density 18.406317999999999
#
# number of rings (size 3 to 8) (size 9 to 14) (size 15 to 20)
#    0.000    2.231    2.308    1.846    0.000    3.077 
#    0.000    1.538    0.000    0.000    0.000    3.231 
#    0.000    0.000    0.000   28.615    0.000    0.000 
#
# Total GULP energy -644292.905989 kJ/mol
# GULP energy per Si atom -12390.248192 kJ/mol
# Density = 1.836442 g / cm^3
# Si number density = 18.406318 Si / 1000 Ang^3
#
#
#
# Elastic Constant Matrix: (Units=GPa)
#
#
# Indices 1 2 3 4 5 6 
#
# 1 63.9472 25.2211 26.1935 0.0000 0.0000 0.0000
# 2 25.2211 100.2701 23.0608 0.0000 0.0000 0.0000
# 3 26.1935 23.0608 57.4166 0.0000 0.0000 0.0000
# 4 0.0000 0.0000 0.0000 22.6079 0.0000 0.0000
# 5 0.0000 0.0000 0.0000 0.0000 22.3252 0.0000
# 6 0.0000 0.0000 0.0000 0.0000 0.0000 29.2717
#
#
#
# Elastic Compliance Matrix: (Units=1/GPa)
#
#
# Indices 1 2 3 4 5 6 
#
# 1 0.020152 -0.003255 -0.007886 0.000000 0.000000 0.000000
# 2 -0.003255 0.011514 -0.003139 0.000000 0.000000 0.000000
# 3 -0.007886 -0.003139 0.022275 0.000000 0.000000 0.000000
# 4 0.000000 0.000000 0.000000 0.044232 0.000000 0.000000
# 5 0.000000 0.000000 0.000000 0.000000 0.044792 0.000000
# 6 0.000000 0.000000 0.000000 0.000000 0.000000 0.034163
#
#
# Mechanical properties :
#
#
# Convention : Reuss Voigt Hill
#
# Bulk Modulus (GPa) = 39.40139 41.17608 40.28874
# Shear Modulus (GPa) = 23.34820 24.65153 23.99987
#
# Velocity S-wave (km/s) = 3.56545 3.66361 3.61486
# Velocity P-wave (km/s) = 6.19700 6.34943 6.27368
#
# Compressibility (1/GPa) = 0.02537981
#
# Stress axis : x y z
#
# Youngs Moduli (GPa) = 49.62308 86.85183 44.89329
#
# Poissons Ratio (x) = 0.28272 0.35402
# Poissons Ratio (y) = 0.16153 0.14094
# Poissons Ratio (z) = 0.39132 0.27266
#
# Static dielectric constant tensor:
#      x y z
#    x 3.193580 0.000000 0.000000 
#    y 0.000000 3.609390 0.000000 
#    z 0.000000 0.000000 3.150940 
# 
# 
# High freq. dielectric constant tensor:
#      x y z
#    x 1.694460 0.000000 0.000000 
#    y 0.000000 1.721350 0.000000 
#    z 0.000000 0.000000 1.684710 
# 
# From -- ./inp_files/54575.got.cif
#   From: 2010.03.12/outbox.cif.g09.slc.cpg/sg65_28_cif.got.tgz:54575.got - 2010.04.10 20:52:16.
