data_PCOD8266234
_publ_section_title
;
Structure prediction by ZEFSAII (Michael W. Deem and Ramdas Pophale) SiO2 
 PCOD8266234
Probable space group: C M M M
;
_chemical_formula_sum "Si O2"
_cell_formula_units_Z 80
_cell_length_a 8.684731
_cell_length_b 29.238841
_cell_length_c 18.294693
_cell_angle_alpha 90.000000
_cell_angle_beta 90.000000
_cell_angle_gamma 90.000000
_cell_volume 4645.598265
_symmetry_space_group_name_H-M "C M M M"
_symmetry_group_IT_number 65
_symmetry_cell_setting 'orthorhombic'
loop_
_space_group_symop_operation_xyz
x,y,z
-x,-y,z
x,-y,-z
-x,y,-z
-x,-y,-z
x,y,-z
-x,y,z
x,-y,z
1/2+x,1/2+y,z
1/2-x,1/2-y,z
1/2+x,1/2-y,-z
1/2-x,1/2+y,-z
1/2-x,1/2-y,-z
1/2+x,1/2+y,-z
1/2-x,1/2+y,z
1/2+x,1/2-y,z
loop_
_atom_site_type_symbol
_atom_site_label
_atom_site_fract_x
_atom_site_fract_y
_atom_site_fract_z
Si Si1 0.818250 0.550734 0.149797
Si Si2 0.182218 0.358214 0.785384
Si Si3 0.682262 0.201069 0.918607
Si Si4 0.829059 0.054162 0.000000
Si Si5 0.183830 0.300627 0.648461
Si Si6 0.683532 0.699356 0.500000
O O1 0.751124 0.500000 0.168965
O O2 0.768818 0.587979 0.211405
O O3 0.000000 0.547740 0.143641
O O4 0.759601 0.570166 0.072401
O O5 0.247559 0.333939 0.858270
O O6 0.245770 0.333671 0.712826
O O7 0.000000 0.353876 0.784792
O O8 0.500000 0.204645 0.914725
O O9 0.750000 0.250000 0.898681
O O10 0.735308 0.185307 0.000000
O O11 0.000000 0.075287 0.000000
O O12 0.835800 0.000000 0.000000
O O13 0.250000 0.250000 0.661892
O O14 0.250521 0.323536 0.573959
O O15 0.000000 0.297824 0.644393
O O16 0.500000 0.698905 0.500000
O O17 0.750000 0.750000 0.500000
#
# Coordination Sequence:
#
# PCOD8266234 Si02
#       6
#    16  16  16   8  16   8
#     4   9  17  30  48  67  86 114 153 191 228 275
#     4   9  18  29  45  68  90 117 150 187 229 266
#     4   9  17  29  43  58  82 117 151 185 218 255
#     4   9  17  29  43  61  86 113 144 189 240 277
#     4  10  18  30  47  69  97 124 151 182 222 268
#     4  10  18  30  48  70  95 122 151 181 220 267
#
# _framework density 17.220603000000001
#
# number of rings (size 3 to 8) (size 9 to 14) (size 15 to 20)
#    0.000    2.700    0.000    3.600    1.400    1.200 
#    0.000    4.000    0.000    0.000    0.000    0.700 
#    0.000    5.600    0.000    0.000    0.000    0.000 
#
# Total GULP energy -495662.047478 kJ/mol
# GULP energy per Si atom -12391.551187 kJ/mol
# Density = 1.718141 g / cm^3
# Si number density = 17.220603 Si / 1000 Ang^3
#
#
#
# Elastic Constant Matrix: (Units=GPa)
#
#
# Indices 1 2 3 4 5 6 
#
# 1 44.9339 20.9622 25.9608 0.0000 0.0000 0.0000
# 2 20.9622 96.7986 78.1467 0.0000 0.0000 0.0000
# 3 25.9608 78.1467 144.6721 0.0000 0.0000 0.0000
# 4 0.0000 0.0000 0.0000 18.7232 0.0000 0.0000
# 5 0.0000 0.0000 0.0000 0.0000 17.3024 0.0000
# 6 0.0000 0.0000 0.0000 0.0000 0.0000 14.2630
#
#
#
# Elastic Compliance Matrix: (Units=1/GPa)
#
#
# Indices 1 2 3 4 5 6 
#
# 1 0.025385 -0.003227 -0.002812 0.000000 0.000000 0.000000
# 2 -0.003227 0.018730 -0.009538 0.000000 0.000000 0.000000
# 3 -0.002812 -0.009538 0.012569 0.000000 0.000000 0.000000
# 4 0.000000 0.000000 0.000000 0.053410 0.000000 0.000000
# 5 0.000000 0.000000 0.000000 0.000000 0.057795 0.000000
# 6 0.000000 0.000000 0.000000 0.000000 0.000000 0.070111
#
#
# Mechanical properties :
#
#
# Convention : Reuss Voigt Hill
#
# Bulk Modulus (GPa) = 39.17059 59.61598 49.39329
# Shear Modulus (GPa) = 18.00734 20.81338 19.41036
#
# Velocity S-wave (km/s) = 3.23721 3.48031 3.36096
# Velocity P-wave (km/s) = 6.06370 7.13051 6.61864
#
# Compressibility (1/GPa) = 0.02552936
#
# Stress axis : x y z
#
# Youngs Moduli (GPa) = 39.39323 53.39098 79.56128
#
# Poissons Ratio (x) = 0.17229 0.22374
# Poissons Ratio (y) = 0.12712 0.75886
# Poissons Ratio (z) = 0.11078 0.50925
#
# Static dielectric constant tensor:
#      x y z
#    x 3.081220 0.000000 0.000000 
#    y 0.000000 3.293940 0.000000 
#    z 0.000000 0.000000 3.737450 
# 
# 
# High freq. dielectric constant tensor:
#      x y z
#    x 1.650500 0.000000 0.000000 
#    y 0.000000 1.643910 0.000000 
#    z 0.000000 0.000000 1.656320 
# 
# From -- ./inp_files/50218.got.cif
#   From: 2010.03.12/outbox.cif.g09.slc.cpg/sg65_26_cif.got.tgz:50218.got - 2010.04.10 20:52:16.
