data_PCOD8266974
_publ_section_title
;
Structure prediction by ZEFSAII (Michael W. Deem and Ramdas Pophale) SiO2 
 PCOD8266974
Probable space group: C M M M
;
_chemical_formula_sum "Si O2"
_cell_formula_units_Z 104
_cell_length_a 9.344670
_cell_length_b 23.694767
_cell_length_c 28.102091
_cell_angle_alpha 90.000000
_cell_angle_beta 90.000000
_cell_angle_gamma 90.000000
_cell_volume 6222.358760
_symmetry_space_group_name_H-M "C M M M"
_symmetry_group_IT_number 65
_symmetry_cell_setting 'orthorhombic'
loop_
_space_group_symop_operation_xyz
x,y,z
-x,-y,z
x,-y,-z
-x,y,-z
-x,-y,-z
x,y,-z
-x,y,z
x,-y,z
1/2+x,1/2+y,z
1/2-x,1/2-y,z
1/2+x,1/2-y,-z
1/2-x,1/2+y,-z
1/2-x,1/2-y,-z
1/2+x,1/2+y,-z
1/2-x,1/2+y,z
1/2+x,1/2-y,z
loop_
_atom_site_type_symbol
_atom_site_label
_atom_site_fract_x
_atom_site_fract_y
_atom_site_fract_z
Si Si1 0.662169 0.564899 0.410680
Si Si2 0.338754 0.932854 0.500000
Si Si3 0.167555 0.000000 0.168083
Si Si4 0.831998 0.878035 0.859278
Si Si5 0.330437 0.000000 0.265032
Si Si6 0.162865 0.899644 0.691942
Si Si7 0.666742 0.691688 0.231579
Si Si8 0.167271 0.807266 0.946880
O O1 0.500000 0.567216 0.429334
O O2 0.702064 0.500000 0.397096
O O3 0.761655 0.589518 0.452455
O O4 0.682043 0.605578 0.364966
O O5 0.500000 0.910017 0.500000
O O6 0.330956 0.000000 0.500000
O O7 0.208514 0.944076 0.138610
O O8 0.266513 0.000000 0.213203
O O9 0.000000 0.000000 0.182833
O O10 0.772210 0.846654 0.812039
O O11 0.772225 0.851251 0.908063
O O12 0.000000 0.870949 0.857595
O O13 0.277860 0.944596 0.291480
O O14 0.500000 0.000000 0.263131
O O15 0.193514 0.840655 0.718518
O O16 0.000000 0.919807 0.703884
O O17 0.500000 0.705055 0.224345
O O18 0.750000 0.750000 0.233011
O O19 0.250000 0.750000 0.937911
O O20 0.000000 0.795121 0.939700
O O21 0.197467 0.831025 0.000000
#
# Coordination Sequence:
#
# PCOD8266974 Si02
#       8
#    16   8   8  16   8  16  16  16
#     4   9  16  27  46  67  88 121 166 199 224 274
#     4   9  17  27  39  61  98 131 152 187 244 288
#     4  10  18  34  53  66  91 131 168 192 235 302
#     4   9  17  30  51  72  92 127 164 198 236 288
#     4  12  22  30  46  74 102 125 158 206 246 280
#     4  10  19  34  52  69  94 134 169 196 236 295
#     4  10  20  33  50  70  95 126 163 200 242 288
#     4   9  17  30  48  72  98 124 160 203 246 289
#
# _framework density 16.713920000000002
#
# number of rings (size 3 to 8) (size 9 to 14) (size 15 to 20)
#    0.000    2.385    2.308    1.385    0.000    2.154 
#    0.000    1.154    0.000    2.308    0.000    0.538 
#    0.000    3.077    0.000    0.000    0.000    0.000 
#
# Total GULP energy -644585.459988 kJ/mol
# GULP energy per Si atom -12395.874231 kJ/mol
# Density = 1.667588 g / cm^3
# Si number density = 16.713920 Si / 1000 Ang^3
#
#
#
# Elastic Constant Matrix: (Units=GPa)
#
#
# Indices 1 2 3 4 5 6 
#
# 1 70.6315 41.1708 47.5831 0.0000 0.0000 0.0000
# 2 41.1708 106.8548 67.7730 0.0000 0.0000 0.0000
# 3 47.5831 67.7730 145.0242 0.0000 0.0000 0.0000
# 4 0.0000 0.0000 0.0000 25.0974 0.0000 0.0000
# 5 0.0000 0.0000 0.0000 0.0000 14.3855 0.0000
# 6 0.0000 0.0000 0.0000 0.0000 0.0000 22.0013
#
#
#
# Elastic Compliance Matrix: (Units=1/GPa)
#
#
# Indices 1 2 3 4 5 6 
#
# 1 0.019900 -0.005012 -0.004187 0.000000 0.000000 0.000000
# 2 -0.005012 0.014563 -0.005161 0.000000 0.000000 0.000000
# 3 -0.004187 -0.005161 0.010681 0.000000 0.000000 0.000000
# 4 0.000000 0.000000 0.000000 0.039845 0.000000 0.000000
# 5 0.000000 0.000000 0.000000 0.000000 0.069515 0.000000
# 6 0.000000 0.000000 0.000000 0.000000 0.000000 0.045452
#
#
# Mechanical properties :
#
#
# Convention : Reuss Voigt Hill
#
# Bulk Modulus (GPa) = 60.88653 70.61825 65.75239
# Shear Modulus (GPa) = 21.35376 23.36241 22.35809
#
# Velocity S-wave (km/s) = 3.57824 3.74275 3.66142
# Velocity P-wave (km/s) = 7.31980 7.81156 7.56967
#
# Compressibility (1/GPa) = 0.01642399
#
# Stress axis : x y z
#
# Youngs Moduli (GPa) = 50.25086 68.66701 93.62212
#
# Poissons Ratio (x) = 0.34414 0.39202
# Poissons Ratio (y) = 0.25184 0.48321
# Poissons Ratio (z) = 0.21041 0.35441
#
# Static dielectric constant tensor:
#      x y z
#    x 3.005820 0.000000 0.000000 
#    y 0.000000 2.940120 0.000000 
#    z 0.000000 0.000000 3.482270 
# 
# 
# High freq. dielectric constant tensor:
#      x y z
#    x 1.627290 0.000000 0.000000 
#    y 0.000000 1.612630 0.000000 
#    z 0.000000 0.000000 1.652150 
# 
# From -- ./inp_files/73663.got.cif
#   From: 2010.03.12/outbox.cif.g09.slc.cpg/sg65_37_cif.got.tgz:73663.got - 2010.04.10 20:52:16.
