data_PCOD8266890
_publ_section_title
;
Structure prediction by ZEFSAII (Michael W. Deem and Ramdas Pophale) SiO2 
 PCOD8266890
Probable space group: C M M M
;
_chemical_formula_sum "Si O2"
_cell_formula_units_Z 88
_cell_length_a 26.539687
_cell_length_b 9.280816
_cell_length_c 18.952993
_cell_angle_alpha 90.000000
_cell_angle_beta 90.000000
_cell_angle_gamma 90.000000
_cell_volume 4668.310791
_symmetry_space_group_name_H-M "C M M M"
_symmetry_group_IT_number 65
_symmetry_cell_setting 'orthorhombic'
loop_
_space_group_symop_operation_xyz
x,y,z
-x,-y,z
x,-y,-z
-x,y,-z
-x,-y,-z
x,y,-z
-x,y,z
x,-y,z
1/2+x,1/2+y,z
1/2-x,1/2-y,z
1/2+x,1/2-y,-z
1/2-x,1/2+y,-z
1/2-x,1/2-y,-z
1/2+x,1/2+y,-z
1/2-x,1/2+y,z
1/2+x,1/2-y,z
loop_
_atom_site_type_symbol
_atom_site_label
_atom_site_fract_x
_atom_site_fract_y
_atom_site_fract_z
Si Si1 0.000000 0.670813 0.919765
Si Si2 0.399550 0.829468 0.840912
Si Si3 0.895478 0.829859 0.579722
Si Si4 0.699261 0.669319 0.172203
Si Si5 0.056514 0.660521 0.694189
Si Si6 0.298046 0.334241 0.662572
O O1 0.051523 0.727855 0.883582
O O2 0.000000 0.500000 0.913980
O O3 0.000000 0.725366 0.000000
O O4 0.349508 0.742330 0.865297
O O5 0.407711 0.792970 0.758500
O O6 0.391077 0.000000 0.853138
O O7 0.898297 0.771188 0.500000
O O8 0.940099 0.764046 0.626525
O O9 0.844329 0.776328 0.616475
O O10 0.900887 0.000000 0.581373
O O11 0.702349 0.500000 0.152872
O O12 0.750000 0.750000 0.145671
O O13 0.692635 0.694538 0.255297
O O14 0.070609 0.500000 0.669108
O O15 0.000000 0.666132 0.724093
O O16 0.288236 0.500000 0.647013
O O17 0.250000 0.250000 0.634270
#
# Coordination Sequence:
#
# PCOD8266890 Si02
#       6
#     8  16  16  16  16  16
#     4   9  18  34  59  91 122 149 178 214 263 323
#     4  10  18  32  56  84 112 144 181 220 265 318
#     4  10  21  36  50  67  96 133 174 221 270 321
#     4  10  19  32  52  80 111 143 182 228 275 320
#     4  10  20  34  52  74 100 131 172 219 263 314
#     4   9  18  31  47  69  96 127 166 213 263 313
#
# _framework density 18.850503
#
# number of rings (size 3 to 8) (size 9 to 14) (size 15 to 20)
#    0.000    2.273    2.727    0.545    0.000    2.909 
#    0.000    2.273    0.000    1.636    0.000    0.000 
#    0.000    0.000    0.000    0.000    0.000    0.000 
#
# Total GULP energy -545499.281606 kJ/mol
# GULP energy per Si atom -12397.710946 kJ/mol
# Density = 1.880760 g / cm^3
# Si number density = 18.850503 Si / 1000 Ang^3
#
#
#
# Elastic Constant Matrix: (Units=GPa)
#
#
# Indices 1 2 3 4 5 6 
#
# 1 136.7026 52.9681 36.7370 0.0000 0.0000 0.0000
# 2 52.9681 54.4083 26.1435 0.0000 0.0000 0.0000
# 3 36.7370 26.1435 60.9881 0.0000 0.0000 0.0000
# 4 0.0000 0.0000 0.0000 13.4860 0.0000 0.0000
# 5 0.0000 0.0000 0.0000 0.0000 19.6908 0.0000
# 6 0.0000 0.0000 0.0000 0.0000 0.0000 35.5886
#
#
#
# Elastic Compliance Matrix: (Units=1/GPa)
#
#
# Indices 1 2 3 4 5 6 
#
# 1 0.012120 -0.010442 -0.002825 0.000000 0.000000 0.000000
# 2 -0.010442 0.032144 -0.007489 0.000000 0.000000 0.000000
# 3 -0.002825 -0.007489 0.021308 0.000000 0.000000 0.000000
# 4 0.000000 0.000000 0.000000 0.074151 0.000000 0.000000
# 5 0.000000 0.000000 0.000000 0.000000 0.050785 0.000000
# 6 0.000000 0.000000 0.000000 0.000000 0.000000 0.028099
#
#
# Mechanical properties :
#
#
# Convention : Reuss Voigt Hill
#
# Bulk Modulus (GPa) = 41.56119 53.75514 47.65817
# Shear Modulus (GPa) = 18.64704 22.83645 20.74175
#
# Velocity S-wave (km/s) = 3.14858 3.48437 3.32072
# Velocity P-wave (km/s) = 5.94253 6.69075 6.32771
#
# Compressibility (1/GPa) = 0.02406091
#
# Stress axis : x y z
#
# Youngs Moduli (GPa) = 82.50655 31.11018 46.93001
#
# Poissons Ratio (x) = 0.32486 0.13256
# Poissons Ratio (y) = 0.86155 0.35146
# Poissons Ratio (z) = 0.23305 0.23298
#
# Static dielectric constant tensor:
#      x y z
#    x 3.565970 0.000000 0.000000 
#    y 0.000000 3.308340 0.000000 
#    z 0.000000 0.000000 3.208690 
# 
# 
# High freq. dielectric constant tensor:
#      x y z
#    x 1.744540 0.000000 0.000000 
#    y 0.000000 1.715740 0.000000 
#    z 0.000000 0.000000 1.700130 
# 
# From -- ./inp_files/65182.got.cif
#   From: 2010.03.12/outbox.cif.g09.slc.cpg/sg65_33_cif.got.tgz:65182.got - 2010.04.10 20:52:16.
