data_PCOD8266165
_publ_section_title
;
Structure prediction by ZEFSAII (Michael W. Deem and Ramdas Pophale) SiO2 
 PCOD8266165
Probable space group: C M M M
;
_chemical_formula_sum "Si O2"
_cell_formula_units_Z 56
_cell_length_a 36.997854
_cell_length_b 7.663288
_cell_length_c 10.463073
_cell_angle_alpha 90.000000
_cell_angle_beta 90.000000
_cell_angle_gamma 90.000000
_cell_volume 2966.544976
_symmetry_space_group_name_H-M "C M M M"
_symmetry_group_IT_number 65
_symmetry_cell_setting 'orthorhombic'
loop_
_space_group_symop_operation_xyz
x,y,z
-x,-y,z
x,-y,-z
-x,y,-z
-x,-y,-z
x,y,-z
-x,y,z
x,-y,z
1/2+x,1/2+y,z
1/2-x,1/2-y,z
1/2+x,1/2-y,-z
1/2-x,1/2+y,-z
1/2-x,1/2-y,-z
1/2+x,1/2+y,-z
1/2-x,1/2+y,z
1/2+x,1/2-y,z
loop_
_atom_site_type_symbol
_atom_site_label
_atom_site_fract_x
_atom_site_fract_y
_atom_site_fract_z
Si Si1 0.829759 0.205736 0.247505
Si Si2 0.208636 0.205032 0.000000
Si Si3 0.959920 0.500000 0.848962
Si Si4 0.406802 0.699597 0.850733
Si Si5 0.292151 0.705518 0.500000
O O1 0.809169 0.289069 0.126244
O O2 0.872179 0.249530 0.235200
O O3 0.812246 0.286758 0.375948
O O4 0.823777 0.000000 0.247850
O O5 0.250000 0.250000 0.000000
O O6 0.201288 0.000000 0.000000
O O7 0.939039 0.325445 0.805030
O O8 0.000000 0.500000 0.787054
O O9 0.963370 0.500000 0.000000
O O10 0.418928 0.500000 0.826896
O O11 0.396913 0.727619 0.000000
O O12 0.297272 0.500000 0.500000
O O13 0.250000 0.750000 0.500000
#
# Coordination Sequence:
#
# PCOD8266165 Si02
#       5
#    16   8   8  16   8
#     4   9  17  31  49  65  92 129 165 207 251 301
#     4  10  18  30  44  66  92 119 159 204 252 303
#     4   9  18  30  46  77 113 133 161 209 257 311
#     4   9  16  30  50  71  98 135 171 206 253 301
#     4  10  20  34  48  66  96 129 165 214 262 303
#
# _framework density 18.877178000000001
#
# number of rings (size 3 to 8) (size 9 to 14) (size 15 to 20)
#    0.000    2.714    1.429    0.857    0.000    0.571 
#    5.143    2.857    0.000    0.000    0.000    2.000 
#    0.000    5.714    0.000    0.000    0.000    0.000 
#
# Total GULP energy -347088.086717 kJ/mol
# GULP energy per Si atom -12396.003097 kJ/mol
# Density = 1.883421 g / cm^3
# Si number density = 18.877178 Si / 1000 Ang^3
#
#
#
# Elastic Constant Matrix: (Units=GPa)
#
#
# Indices 1 2 3 4 5 6 
#
# 1 174.5262 53.6898 73.5036 0.0000 0.0000 0.0000
# 2 53.6898 64.8869 25.0216 0.0000 0.0000 0.0000
# 3 73.5036 25.0216 125.4164 0.0000 0.0000 0.0000
# 4 0.0000 0.0000 0.0000 3.8056 0.0000 0.0000
# 5 0.0000 0.0000 0.0000 0.0000 22.1829 0.0000
# 6 0.0000 0.0000 0.0000 0.0000 0.0000 30.7636
#
#
#
# Elastic Compliance Matrix: (Units=1/GPa)
#
#
# Indices 1 2 3 4 5 6 
#
# 1 0.009432 -0.006146 -0.004302 0.000000 0.000000 0.000000
# 2 -0.006146 0.020700 -0.000528 0.000000 0.000000 0.000000
# 3 -0.004302 -0.000528 0.010600 0.000000 0.000000 0.000000
# 4 0.000000 0.000000 0.000000 0.262772 0.000000 0.000000
# 5 0.000000 0.000000 0.000000 0.000000 0.045080 0.000000
# 6 0.000000 0.000000 0.000000 0.000000 0.000000 0.032506
#
#
# Mechanical properties :
#
#
# Convention : Reuss Voigt Hill
#
# Bulk Modulus (GPa) = 53.24457 74.36219 63.80338
# Shear Modulus (GPa) = 12.21594 25.52471 18.87032
#
# Velocity S-wave (km/s) = 2.54663 3.68114 3.16513
# Velocity P-wave (km/s) = 6.07570 7.58590 6.87241
#
# Compressibility (1/GPa) = 0.01878126
#
# Stress axis : x y z
#
# Youngs Moduli (GPa) = 106.02008 48.30877 94.33949
#
# Poissons Ratio (x) = 0.29689 0.40584
# Poissons Ratio (y) = 0.65156 0.04981
# Poissons Ratio (z) = 0.45608 0.02551
#
# Static dielectric constant tensor:
#      x y z
#    x 3.500200 0.000000 0.000000 
#    y 0.000000 3.230170 0.000000 
#    z 0.000000 0.000000 3.654220 
# 
# 
# High freq. dielectric constant tensor:
#      x y z
#    x 1.729230 0.000000 0.000000 
#    y 0.000000 1.720290 0.000000 
#    z 0.000000 0.000000 1.702900 
# 
# From -- ./inp_files/20509.got.cif
#   From: 2010.03.12/outbox.cif.g09.slc.cpg/sg65_11_cif.got.tgz:20509.got - 2010.04.10 20:52:16.
