data_PCOD8266735
_publ_section_title
;
Structure prediction by ZEFSAII (Michael W. Deem and Ramdas Pophale) SiO2 
 PCOD8266735
Probable space group: C M M M
;
_chemical_formula_sum "Si O2"
_cell_formula_units_Z 104
_cell_length_a 8.660359
_cell_length_b 23.884157
_cell_length_c 28.092792
_cell_angle_alpha 90.000000
_cell_angle_beta 90.000000
_cell_angle_gamma 90.000000
_cell_volume 5810.864069
_symmetry_space_group_name_H-M "C M M M"
_symmetry_group_IT_number 65
_symmetry_cell_setting 'orthorhombic'
loop_
_space_group_symop_operation_xyz
x,y,z
-x,-y,z
x,-y,-z
-x,y,-z
-x,-y,-z
x,y,-z
-x,y,z
x,-y,z
1/2+x,1/2+y,z
1/2-x,1/2-y,z
1/2+x,1/2-y,-z
1/2-x,1/2+y,-z
1/2-x,1/2-y,-z
1/2+x,1/2+y,-z
1/2-x,1/2+y,z
1/2+x,1/2-y,z
loop_
_atom_site_type_symbol
_atom_site_label
_atom_site_fract_x
_atom_site_fract_y
_atom_site_fract_z
Si Si1 0.327219 0.433807 0.000000
Si Si2 0.683445 0.387903 0.810703
Si Si3 0.177821 0.500000 0.666104
Si Si4 0.316781 0.189929 0.447238
Si Si5 0.182212 0.435322 0.098320
Si Si6 0.816406 0.311463 0.267211
Si Si7 0.180085 0.621778 0.640711
Si Si8 0.321284 0.500000 0.235214
O O1 0.234968 0.413934 0.953439
O O2 0.336161 0.500000 0.000000
O O3 0.500000 0.408240 0.000000
O O4 0.500000 0.382948 0.807675
O O5 0.737730 0.391987 0.865250
O O6 0.756067 0.335229 0.783162
O O7 0.752814 0.444144 0.786650
O O8 0.214200 0.555644 0.636106
O O9 0.294940 0.500000 0.709186
O O10 0.000000 0.500000 0.684189
O O11 0.263002 0.170093 0.500000
O O12 0.500000 0.192908 0.445106
O O13 0.250000 0.250000 0.434955
O O14 0.247741 0.148570 0.407065
O O15 0.235397 0.500000 0.107461
O O16 0.000000 0.430206 0.102541
O O17 0.750000 0.250000 0.275558
O O18 0.753555 0.350803 0.310582
O O19 0.000000 0.309030 0.265751
O O20 0.000000 0.634246 0.641227
O O21 0.500000 0.500000 0.222771
#
# Coordination Sequence:
#
# PCOD8266735 Si02
#       8
#     8  16   8  16  16  16  16   8
#     4   9  17  29  45  67 100 139 176 215 259 304
#     4  11  21  34  51  74 103 135 171 211 255 306
#     4  10  18  32  51  70  97 133 168 200 245 306
#     4   9  17  31  50  72  97 126 164 209 254 300
#     4  10  19  30  47  72 103 138 175 213 256 307
#     4  11  22  36  52  73 100 132 169 210 257 305
#     4   9  18  31  50  74  99 129 165 205 249 302
#     4  10  20  32  48  72 102 131 168 210 250 296
#
# _framework density 17.89751
#
# number of rings (size 3 to 8) (size 9 to 14) (size 15 to 20)
#    0.000    2.077    2.308    2.077    0.000    2.154 
#    0.000    1.923    0.000    2.308    0.000    0.538 
#    0.000    3.077    0.000    0.000    0.000    0.000 
#
# Total GULP energy -644655.110619 kJ/mol
# GULP energy per Si atom -12397.213666 kJ/mol
# Density = 1.785677 g / cm^3
# Si number density = 17.897510 Si / 1000 Ang^3
#
#
#
# Elastic Constant Matrix: (Units=GPa)
#
#
# Indices 1 2 3 4 5 6 
#
# 1 52.2620 26.1398 26.0489 0.0000 0.0000 0.0000
# 2 26.1398 106.4532 63.8646 0.0000 0.0000 0.0000
# 3 26.0489 63.8646 142.8700 0.0000 0.0000 0.0000
# 4 0.0000 0.0000 0.0000 18.2057 0.0000 0.0000
# 5 0.0000 0.0000 0.0000 0.0000 20.8672 0.0000
# 6 0.0000 0.0000 0.0000 0.0000 0.0000 22.2619
#
#
#
# Elastic Compliance Matrix: (Units=1/GPa)
#
#
# Indices 1 2 3 4 5 6 
#
# 1 0.022314 -0.004152 -0.002212 0.000000 0.000000 0.000000
# 2 -0.004152 0.013609 -0.005326 0.000000 0.000000 0.000000
# 3 -0.002212 -0.005326 0.009784 0.000000 0.000000 0.000000
# 4 0.000000 0.000000 0.000000 0.054928 0.000000 0.000000
# 5 0.000000 0.000000 0.000000 0.000000 0.047922 0.000000
# 6 0.000000 0.000000 0.000000 0.000000 0.000000 0.044920
#
#
# Mechanical properties :
#
#
# Convention : Reuss Voigt Hill
#
# Bulk Modulus (GPa) = 44.79289 59.29907 52.04598
# Shear Modulus (GPa) = 22.29173 24.63577 23.46375
#
# Velocity S-wave (km/s) = 3.53302 3.71413 3.62471
# Velocity P-wave (km/s) = 6.45947 7.18314 6.83090
#
# Compressibility (1/GPa) = 0.02232497
#
# Stress axis : x y z
#
# Youngs Moduli (GPa) = 44.81541 73.48254 102.21138
#
# Poissons Ratio (x) = 0.30509 0.22614
# Poissons Ratio (y) = 0.18607 0.54440
# Poissons Ratio (z) = 0.09915 0.39139
#
# Static dielectric constant tensor:
#      x y z
#    x 3.153030 0.000000 0.000000 
#    y 0.000000 3.209350 0.000000 
#    z 0.000000 0.000000 3.571620 
# 
# 
# High freq. dielectric constant tensor:
#      x y z
#    x 1.683070 0.000000 0.000000 
#    y 0.000000 1.665150 0.000000 
#    z 0.000000 0.000000 1.698300 
# 
# From -- ./inp_files/73611.got.cif
#   From: 2010.03.12/outbox.cif.g09.slc.cpg/sg65_37_cif.got.tgz:73611.got - 2010.04.10 20:52:16.
