data_PCOD8266663
_publ_section_title
;
Structure prediction by ZEFSAII (Michael W. Deem and Ramdas Pophale) SiO2 
 PCOD8266663
Probable space group: C M M M
;
_chemical_formula_sum "Si O2"
_cell_formula_units_Z 80
_cell_length_a 20.338820
_cell_length_b 25.133914
_cell_length_c 8.608072
_cell_angle_alpha 90.000000
_cell_angle_beta 90.000000
_cell_angle_gamma 90.000000
_cell_volume 4400.396073
_symmetry_space_group_name_H-M "C M M M"
_symmetry_group_IT_number 65
_symmetry_cell_setting 'orthorhombic'
loop_
_space_group_symop_operation_xyz
x,y,z
-x,-y,z
x,-y,-z
-x,y,-z
-x,-y,-z
x,y,-z
-x,y,z
x,-y,z
1/2+x,1/2+y,z
1/2-x,1/2-y,z
1/2+x,1/2-y,-z
1/2-x,1/2+y,-z
1/2-x,1/2-y,-z
1/2+x,1/2+y,-z
1/2-x,1/2+y,z
1/2+x,1/2-y,z
loop_
_atom_site_type_symbol
_atom_site_label
_atom_site_fract_x
_atom_site_fract_y
_atom_site_fract_z
Si Si1 0.313571 0.782824 0.181617
Si Si2 0.232171 0.613213 0.684988
Si Si3 0.925392 0.786167 0.322221
Si Si4 0.624502 0.610385 0.816780
Si Si5 0.779162 0.500000 0.330322
Si Si6 0.122889 0.000000 0.327516
O O1 0.250000 0.750000 0.239637
O O2 0.316649 0.839147 0.271383
O O3 0.379746 0.751405 0.218530
O O4 0.308986 0.794316 0.000000
O O5 0.242741 0.608964 0.500000
O O6 0.301481 0.624105 0.766222
O O7 0.201687 0.556554 0.749817
O O8 0.901330 0.783760 0.500000
O O9 0.922640 0.846496 0.261951
O O10 0.000000 0.765758 0.306222
O O11 0.599625 0.552368 0.764114
O O12 0.619097 0.615165 0.000000
O O13 0.811884 0.500000 0.500000
O O14 0.700761 0.500000 0.340772
O O15 0.091693 0.000000 0.500000
#
# Coordination Sequence:
#
# PCOD8266663 Si02
#       6
#    16  16  16  16   8   8
#     4  11  22  35  54  82 111 140 179 224 271 323
#     4  10  18  31  53  78 108 143 179 219 264 316
#     4  11  24  40  57  77 103 141 185 225 270 326
#     4  11  20  32  51  77 107 139 177 223 274 320
#     4   7  14  27  45  74 105 134 169 212 260 306
#     4   9  17  31  50  72 101 140 182 223 264 311
#
# _framework density 18.180181999999999
#
# number of rings (size 3 to 8) (size 9 to 14) (size 15 to 20)
#    0.000    1.800    2.000    5.100    0.000    2.400 
#    0.000    2.000    0.000    3.000    0.000    0.700 
#    0.000    5.600    0.000    0.000    0.000    0.000 
#
# Total GULP energy -495883.904031 kJ/mol
# GULP energy per Si atom -12397.097601 kJ/mol
# Density = 1.813880 g / cm^3
# Si number density = 18.180182 Si / 1000 Ang^3
#
#
#
# Elastic Constant Matrix: (Units=GPa)
#
#
# Indices 1 2 3 4 5 6 
#
# 1 51.9855 33.0409 12.4418 0.0000 0.0000 0.0000
# 2 33.0409 138.2762 20.0260 0.0000 0.0000 0.0000
# 3 12.4418 20.0260 61.0760 0.0000 0.0000 0.0000
# 4 0.0000 0.0000 0.0000 30.2800 0.0000 0.0000
# 5 0.0000 0.0000 0.0000 0.0000 17.7384 0.0000
# 6 0.0000 0.0000 0.0000 0.0000 0.0000 18.3496
#
#
#
# Elastic Compliance Matrix: (Units=1/GPa)
#
#
# Indices 1 2 3 4 5 6 
#
# 1 0.023211 -0.005104 -0.003055 0.000000 0.000000 0.000000
# 2 -0.005104 0.008715 -0.001818 0.000000 0.000000 0.000000
# 3 -0.003055 -0.001818 0.017591 0.000000 0.000000 0.000000
# 4 0.000000 0.000000 0.000000 0.033025 0.000000 0.000000
# 5 0.000000 0.000000 0.000000 0.000000 0.056375 0.000000
# 6 0.000000 0.000000 0.000000 0.000000 0.000000 0.054497
#
#
# Mechanical properties :
#
#
# Convention : Reuss Voigt Hill
#
# Bulk Modulus (GPa) = 33.82453 42.48391 38.15422
# Shear Modulus (GPa) = 22.39922 25.66219 24.03070
#
# Velocity S-wave (km/s) = 3.51389 3.76113 3.63961
# Velocity P-wave (km/s) = 5.92527 6.50234 6.22050
#
# Compressibility (1/GPa) = 0.02956434
#
# Stress axis : x y z
#
# Youngs Moduli (GPa) = 43.08268 114.74845 56.84603
#
# Poissons Ratio (x) = 0.58566 0.17366
# Poissons Ratio (y) = 0.21989 0.10333
# Poissons Ratio (z) = 0.13161 0.20858
#
# Static dielectric constant tensor:
#      x y z
#    x 2.858100 0.000000 0.000000 
#    y 0.000000 3.764870 0.000000 
#    z 0.000000 0.000000 3.348570 
# 
# 
# High freq. dielectric constant tensor:
#      x y z
#    x 1.646680 0.000000 0.000000 
#    y 0.000000 1.723330 0.000000 
#    z 0.000000 0.000000 1.709670 
# 
# From -- ./inp_files/11594.got.cif
#   From: 2010.03.12/outbox.cif.g09.slc.cpg/sg65_6_cif.got.tgz:11594.got - 2010.04.10 20:52:16.
