data_PCOD8266853
_publ_section_title
;
Structure prediction by ZEFSAII (Michael W. Deem and Ramdas Pophale) SiO2 
 PCOD8266853
Probable space group: C M M M
;
_chemical_formula_sum "Si O2"
_cell_formula_units_Z 112
_cell_length_a 14.675928
_cell_length_b 27.906727
_cell_length_c 14.358560
_cell_angle_alpha 90.000000
_cell_angle_beta 90.000000
_cell_angle_gamma 90.000000
_cell_volume 5880.650426
_symmetry_space_group_name_H-M "C M M M"
_symmetry_group_IT_number 65
_symmetry_cell_setting 'orthorhombic'
loop_
_space_group_symop_operation_xyz
x,y,z
-x,-y,z
x,-y,-z
-x,y,-z
-x,-y,-z
x,y,-z
-x,y,z
x,-y,z
1/2+x,1/2+y,z
1/2-x,1/2-y,z
1/2+x,1/2-y,-z
1/2-x,1/2+y,-z
1/2-x,1/2-y,-z
1/2+x,1/2+y,-z
1/2-x,1/2+y,z
1/2+x,1/2-y,z
loop_
_atom_site_type_symbol
_atom_site_label
_atom_site_fract_x
_atom_site_fract_y
_atom_site_fract_z
Si Si1 0.282875 0.444013 0.273017
Si Si2 0.602272 0.622485 0.608212
Si Si3 0.172367 0.640316 0.229047
Si Si4 0.599091 0.443645 0.101059
Si Si5 0.802396 0.200673 0.109077
Si Si6 0.237666 0.305898 0.393375
Si Si7 0.000000 0.339095 0.112292
Si Si8 0.500000 0.729265 0.109697
O O1 0.261573 0.500000 0.288146
O O2 0.353906 0.425989 0.350323
O O3 0.190212 0.412901 0.271586
O O4 0.324716 0.430308 0.173743
O O5 0.596507 0.612674 0.500000
O O6 0.500000 0.631601 0.647854
O O7 0.665978 0.668336 0.629844
O O8 0.258032 0.658536 0.168490
O O9 0.161533 0.674608 0.320499
O O10 0.086850 0.636897 0.160703
O O11 0.500000 0.422031 0.129121
O O12 0.589016 0.500000 0.095093
O O13 0.628024 0.422734 0.000000
O O14 0.750000 0.250000 0.130313
O O15 0.907460 0.203757 0.144013
O O16 0.795334 0.188507 0.000000
O O17 0.206697 0.316278 0.500000
O O18 0.250000 0.250000 0.376147
O O19 0.000000 0.284067 0.142472
O O20 0.000000 0.347239 0.000000
O O21 0.500000 0.730260 0.000000
#
# Coordination Sequence:
#
# PCOD8266853 Si02
#       8
#    16  16  16  16  16  16   8   8
#     4  10  21  36  53  74 105 143 187 236 286 336
#     4   9  18  34  57  86 117 148 186 233 286 343
#     4  11  22  37  56  82 107 148 191 235 291 346
#     4   8  14  26  44  65  92 128 168 210 258 315
#     4  10  18  32  54  81 113 144 181 227 281 346
#     4   9  19  37  56  80 118 155 186 225 275 338
#     4  11  22  38  60  85 114 143 185 245 301 351
#     4   9  18  32  52  80 112 146 177 219 277 339
#
# _framework density 19.045511999999999
#
# number of rings (size 3 to 8) (size 9 to 14) (size 15 to 20)
#    0.000    2.429    1.429    1.714    0.000    2.286 
#    7.714    1.429    0.000    0.429    0.000    0.000 
#    0.000    4.571    0.000    0.000    0.000    0.000 
#
# Total GULP energy -693946.076496 kJ/mol
# GULP energy per Si atom -12391.894223 kJ/mol
# Density = 1.900216 g / cm^3
# Si number density = 19.045512 Si / 1000 Ang^3
#
#
#
# Elastic Constant Matrix: (Units=GPa)
#
#
# Indices 1 2 3 4 5 6 
#
# 1 102.3211 38.0421 34.6792 0.0000 0.0000 0.0000
# 2 38.0421 110.9654 34.0028 0.0000 0.0000 0.0000
# 3 34.6792 34.0028 83.7275 0.0000 0.0000 0.0000
# 4 0.0000 0.0000 0.0000 21.7755 0.0000 0.0000
# 5 0.0000 0.0000 0.0000 0.0000 30.8177 0.0000
# 6 0.0000 0.0000 0.0000 0.0000 0.0000 11.8316
#
#
#
# Elastic Compliance Matrix: (Units=1/GPa)
#
#
# Indices 1 2 3 4 5 6 
#
# 1 0.012188 -0.003005 -0.003828 0.000000 0.000000 0.000000
# 2 -0.003005 0.011034 -0.003236 0.000000 0.000000 0.000000
# 3 -0.003828 -0.003236 0.014843 0.000000 0.000000 0.000000
# 4 0.000000 0.000000 0.000000 0.045923 0.000000 0.000000
# 5 0.000000 0.000000 0.000000 0.000000 0.032449 0.000000
# 6 0.000000 0.000000 0.000000 0.000000 0.000000 0.084520
#
#
# Mechanical properties :
#
#
# Convention : Reuss Voigt Hill
#
# Bulk Modulus (GPa) = 55.78351 56.71801 56.25076
# Shear Modulus (GPa) = 22.01964 25.57097 23.79530
#
# Velocity S-wave (km/s) = 3.40392 3.66816 3.53851
# Velocity P-wave (km/s) = 6.69344 6.91270 6.80395
#
# Compressibility (1/GPa) = 0.01792645
#
# Stress axis : x y z
#
# Youngs Moduli (GPa) = 82.04928 90.63052 67.37150
#
# Poissons Ratio (x) = 0.27239 0.25787
# Poissons Ratio (y) = 0.24660 0.21802
# Poissons Ratio (z) = 0.31405 0.29329
#
# Static dielectric constant tensor:
#      x y z
#    x 3.507480 0.000000 0.000000 
#    y 0.000000 3.319590 0.000000 
#    z 0.000000 0.000000 3.842050 
# 
# 
# High freq. dielectric constant tensor:
#      x y z
#    x 1.716030 0.000000 0.000000 
#    y 0.000000 1.729210 0.000000 
#    z 0.000000 0.000000 1.749090 
# 
# From -- ./inp_files/41199.got.cif
#   From: 2010.03.12/outbox.cif.g09.slc.cpg/sg65_21_cif.got.tgz:41199.got - 2010.04.10 20:52:16.
