data_PCOD8266921
_publ_section_title
;
Structure prediction by ZEFSAII (Michael W. Deem and Ramdas Pophale) SiO2 
 PCOD8266921
Probable space group: C M M M
;
_chemical_formula_sum "Si O2"
_cell_formula_units_Z 88
_cell_length_a 8.859984
_cell_length_b 23.618553
_cell_length_c 22.683523
_cell_angle_alpha 90.000000
_cell_angle_beta 90.000000
_cell_angle_gamma 90.000000
_cell_volume 4746.754061
_symmetry_space_group_name_H-M "C M M M"
_symmetry_group_IT_number 65
_symmetry_cell_setting 'orthorhombic'
loop_
_space_group_symop_operation_xyz
x,y,z
-x,-y,z
x,-y,-z
-x,y,-z
-x,-y,-z
x,y,-z
-x,y,z
x,-y,z
1/2+x,1/2+y,z
1/2-x,1/2-y,z
1/2+x,1/2-y,-z
1/2-x,1/2+y,-z
1/2-x,1/2-y,-z
1/2+x,1/2+y,-z
1/2-x,1/2+y,z
1/2+x,1/2-y,z
loop_
_atom_site_type_symbol
_atom_site_label
_atom_site_fract_x
_atom_site_fract_y
_atom_site_fract_z
Si Si1 0.670275 0.500000 0.757566
Si Si2 0.826127 0.885182 0.825727
Si Si3 0.324424 0.064531 0.067282
Si Si4 0.679081 0.188925 0.270804
Si Si5 0.823214 0.500000 0.362815
Si Si6 0.679654 0.811210 0.500000
Si Si7 0.320393 0.122182 0.613830
O O1 0.500000 0.500000 0.731953
O O2 0.701273 0.554410 0.796586
O O3 0.792024 0.500000 0.706313
O O4 0.765977 0.890918 0.892363
O O5 0.734374 0.837561 0.790535
O O6 0.000000 0.866921 0.826554
O O7 0.500000 0.068511 0.083093
O O8 0.267912 0.000000 0.077184
O O9 0.294872 0.082650 0.000000
O O10 0.500000 0.194119 0.270009
O O11 0.750000 0.250000 0.279816
O O12 0.736827 0.150570 0.325545
O O13 0.755854 0.442222 0.390923
O O14 0.000000 0.500000 0.372911
O O15 0.500000 0.806721 0.500000
O O16 0.750000 0.750000 0.500000
O O17 0.740770 0.843624 0.557675
O O18 0.500000 0.121325 0.613579
#
# Coordination Sequence:
#
# PCOD8266921 Si02
#       7
#     8  16  16  16   8   8  16
#     4  10  20  32  48  78 113 143 175 216 269 322
#     4  11  21  34  53  80 111 145 181 223 271 320
#     4   9  18  32  51  78 112 148 183 219 263 318
#     4  11  22  37  55  79 106 140 182 228 273 322
#     4  10  18  33  54  79 107 140 175 215 271 332
#     4  10  20  37  55  77 105 140 183 226 268 317
#     4   9  19  33  55  81 107 137 177 221 269 324
#
# _framework density 18.538985
#
# number of rings (size 3 to 8) (size 9 to 14) (size 15 to 20)
#    0.000    2.000    2.727    2.182    0.000    1.455 
#    0.000    4.545    0.000    0.545    0.000    1.273 
#    0.000    0.000    0.000    0.000    0.000    0.000 
#
# Total GULP energy -545587.975132 kJ/mol
# GULP energy per Si atom -12399.726708 kJ/mol
# Density = 1.849679 g / cm^3
# Si number density = 18.538985 Si / 1000 Ang^3
#
#
#
# Elastic Constant Matrix: (Units=GPa)
#
#
# Indices 1 2 3 4 5 6 
#
# 1 51.7012 37.3200 33.4227 0.0000 0.0000 0.0000
# 2 37.3200 141.2526 61.0461 0.0000 0.0000 0.0000
# 3 33.4227 61.0461 125.8892 0.0000 0.0000 0.0000
# 4 0.0000 0.0000 0.0000 -31.8872 0.0000 0.0000
# 5 0.0000 0.0000 0.0000 0.0000 18.6010 0.0000
# 6 0.0000 0.0000 0.0000 0.0000 0.0000 27.8490
#
#
#
# Elastic Compliance Matrix: (Units=1/GPa)
#
#
# Indices 1 2 3 4 5 6 
#
# 1 0.025750 -0.004869 -0.004475 0.000000 0.000000 0.000000
# 2 -0.004869 0.009877 -0.003497 0.000000 0.000000 0.000000
# 3 -0.004475 -0.003497 0.010827 0.000000 0.000000 0.000000
# 4 0.000000 0.000000 0.000000 -0.031361 0.000000 0.000000
# 5 0.000000 0.000000 0.000000 0.000000 0.053760 0.000000
# 6 0.000000 0.000000 0.000000 0.000000 0.000000 0.035908
#
#
# Mechanical properties :
#
#
# Convention : Reuss Voigt Hill
#
# Bulk Modulus (GPa) = 48.14247 64.71340 56.42794
# Shear Modulus (GPa) = 36.39837 15.38285 25.89061
#
# Velocity S-wave (km/s) = 4.43577 2.88368 3.74110
# Velocity P-wave (km/s) = 7.22906 6.78748 7.01175
#
# Compressibility (1/GPa) = 0.02077168
#
# Stress axis : x y z
#
# Youngs Moduli (GPa) = 38.83536 101.24231 92.35855
#
# Poissons Ratio (x) = 0.49297 0.41332
# Poissons Ratio (y) = 0.18910 0.32297
# Poissons Ratio (z) = 0.17380 0.35404
#
# Static dielectric constant tensor:
#      x y z
#    x 3.204000 0.000000 0.000000 
#    y 0.000000 3.495460 0.000000 
#    z 0.000000 0.000000 3.502190 
# 
# 
# High freq. dielectric constant tensor:
#      x y z
#    x 1.700640 0.000000 0.000000 
#    y 0.000000 1.714130 0.000000 
#    z 0.000000 0.000000 1.720630 
# 
# From -- ./inp_files/67661.got.cif
#   From: 2010.03.12/outbox.cif.g09.slc.cpg/sg65_34_cif.got.tgz:67661.got - 2010.04.10 20:52:16.
