data_PCOD8266476
_publ_section_title
;
Structure prediction by ZEFSAII (Michael W. Deem and Ramdas Pophale) SiO2 
 PCOD8266476
Probable space group: C M M M
;
_chemical_formula_sum "Si O2"
_cell_formula_units_Z 72
_cell_length_a 18.337133
_cell_length_b 8.799680
_cell_length_c 22.947539
_cell_angle_alpha 90.000000
_cell_angle_beta 90.000000
_cell_angle_gamma 90.000000
_cell_volume 3702.835604
_symmetry_space_group_name_H-M "C M M M"
_symmetry_group_IT_number 65
_symmetry_cell_setting 'orthorhombic'
loop_
_space_group_symop_operation_xyz
x,y,z
-x,-y,z
x,-y,-z
-x,y,-z
-x,-y,-z
x,y,-z
-x,y,z
x,-y,z
1/2+x,1/2+y,z
1/2-x,1/2-y,z
1/2+x,1/2-y,-z
1/2-x,1/2+y,-z
1/2-x,1/2-y,-z
1/2+x,1/2+y,-z
1/2-x,1/2+y,z
1/2+x,1/2-y,z
loop_
_atom_site_type_symbol
_atom_site_label
_atom_site_fract_x
_atom_site_fract_y
_atom_site_fract_z
Si Si1 0.915325 0.175224 0.768440
Si Si2 0.671200 0.678885 0.883968
Si Si3 0.330566 0.181063 0.000000
Si Si4 0.328038 0.822368 0.666620
Si Si5 0.916987 0.823662 0.432756
O O1 0.879651 0.218233 0.829760
O O2 0.882527 0.277623 0.717887
O O3 0.000000 0.212267 0.773474
O O4 0.900932 0.000000 0.752500
O O5 0.679812 0.500000 0.894380
O O6 0.750000 0.750000 0.871471
O O7 0.632601 0.754975 0.940857
O O8 0.250000 0.250000 0.000000
O O9 0.330634 0.000000 0.000000
O O10 0.250000 0.750000 0.678160
O O11 0.360814 0.772958 0.604784
O O12 0.316923 0.000000 0.666102
O O13 0.899340 0.791260 0.500000
O O14 0.000000 0.775294 0.418312
O O15 0.906252 0.000000 0.417814
#
# Coordination Sequence:
#
# PCOD8266476 Si02
#       5
#    16  16   8  16  16
#     4  10  22  40  60  82 111 147 185 228 280 336
#     4  10  19  33  55  81 109 142 182 226 272 325
#     4  10  18  30  51  78 109 143 179 223 273 324
#     4  12  25  39  58  84 114 149 188 233 281 329
#     4   9  19  38  63  88 116 151 187 225 274 331
#
# _framework density 19.444557
#
# number of rings (size 3 to 8) (size 9 to 14) (size 15 to 20)
#    0.000    1.778    0.000    7.000    0.000    8.000 
#    0.000    1.667    0.000    3.333    0.000    0.000 
#    0.000    0.000    0.000    0.000    0.000    0.000 
#
# Total GULP energy -446482.708409 kJ/mol
# GULP energy per Si atom -12402.297456 kJ/mol
# Density = 1.940030 g / cm^3
# Si number density = 19.444557 Si / 1000 Ang^3
#
#
#
# Elastic Constant Matrix: (Units=GPa)
#
#
# Indices 1 2 3 4 5 6 
#
# 1 94.6976 44.1869 57.0932 0.0000 0.0000 0.0000
# 2 44.1869 124.7036 64.4636 0.0000 0.0000 0.0000
# 3 57.0932 64.4636 131.9278 0.0000 0.0000 0.0000
# 4 0.0000 0.0000 0.0000 3610.1169 0.0000 0.0000
# 5 0.0000 0.0000 0.0000 0.0000 -55.0775 0.0000
# 6 0.0000 0.0000 0.0000 0.0000 0.0000 28.2645
#
#
#
# Elastic Compliance Matrix: (Units=1/GPa)
#
#
# Indices 1 2 3 4 5 6 
#
# 1 0.014894 -0.002603 -0.005173 0.000000 0.000000 0.000000
# 2 -0.002603 0.011184 -0.004338 0.000000 0.000000 0.000000
# 3 -0.005173 -0.004338 0.011939 0.000000 0.000000 0.000000
# 4 0.000000 0.000000 0.000000 0.000277 0.000000 0.000000
# 5 0.000000 0.000000 0.000000 0.000000 -0.018156 0.000000
# 6 0.000000 0.000000 0.000000 0.000000 0.000000 0.035380
#
#
# Mechanical properties :
#
#
# Convention : Reuss Voigt Hill
#
# Bulk Modulus (GPa) = 72.53420 75.86850 74.20135
# Shear Modulus (GPa) = 59.28236 729.03313 394.15775
#
# Velocity S-wave (km/s) = 5.52757 19.38409 14.25302
# Velocity P-wave (km/s) = 8.83871 23.23991 17.58147
#
# Compressibility (1/GPa) = 0.01378660
#
# Stress axis : x y z
#
# Youngs Moduli (GPa) = 67.14301 89.41360 83.76180
#
# Poissons Ratio (x) = 0.23274 0.43334
# Poissons Ratio (y) = 0.17477 0.36339
# Poissons Ratio (z) = 0.34736 0.38791
#
# Static dielectric constant tensor:
#      x y z
#    x 3.383670 0.000000 0.000000 
#    y 0.000000 3.557820 0.000000 
#    z 0.000000 0.000000 3.962660 
# 
# 
# High freq. dielectric constant tensor:
#      x y z
#    x 1.742320 0.000000 0.000000 
#    y 0.000000 1.759240 0.000000 
#    z 0.000000 0.000000 1.778980 
# 
# From -- ./inp_files/70313.got.cif
#   From: 2010.03.12/outbox.cif.g09.slc.cpg/sg65_36_cif.got.tgz:70313.got - 2010.04.10 20:52:16.
