data_PCOD8266916
_publ_section_title
;
Structure prediction by ZEFSAII (Michael W. Deem and Ramdas Pophale) SiO2 
 PCOD8266916
Probable space group: C M M M
;
_chemical_formula_sum "Si O2"
_cell_formula_units_Z 104
_cell_length_a 27.241951
_cell_length_b 22.937464
_cell_length_c 8.118193
_cell_angle_alpha 90.000000
_cell_angle_beta 90.000000
_cell_angle_gamma 90.000000
_cell_volume 5072.744391
_symmetry_space_group_name_H-M "C M M M"
_symmetry_group_IT_number 65
_symmetry_cell_setting 'orthorhombic'
loop_
_space_group_symop_operation_xyz
x,y,z
-x,-y,z
x,-y,-z
-x,y,-z
-x,-y,-z
x,y,-z
-x,y,z
x,-y,z
1/2+x,1/2+y,z
1/2-x,1/2-y,z
1/2+x,1/2-y,-z
1/2-x,1/2+y,-z
1/2-x,1/2-y,-z
1/2+x,1/2+y,-z
1/2-x,1/2+y,z
1/2+x,1/2-y,z
loop_
_atom_site_type_symbol
_atom_site_label
_atom_site_fract_x
_atom_site_fract_y
_atom_site_fract_z
Si Si1 0.945917 0.121947 0.823340
Si Si2 0.944905 0.365335 0.304117
Si Si3 0.777089 0.334487 0.306746
Si Si4 0.148990 0.434487 0.695678
Si Si5 0.941587 0.933861 0.500000
Si Si6 0.578611 0.263709 0.688953
Si Si7 0.683229 0.714885 0.810346
O O1 0.917965 0.094143 0.665769
O O2 0.952845 0.191175 0.795773
O O3 0.000000 0.094020 0.835137
O O4 0.918945 0.109845 0.000000
O O5 0.943760 0.365711 0.500000
O O6 0.903414 0.409938 0.236800
O O7 0.930290 0.301020 0.240044
O O8 0.000000 0.382304 0.241730
O O9 0.786531 0.323547 0.500000
O O10 0.805701 0.392996 0.248273
O O11 0.718984 0.335541 0.265326
O O12 0.795684 0.279939 0.201887
O O13 0.147197 0.436333 0.500000
O O14 0.156920 0.500000 0.766157
O O15 0.000000 0.923266 0.500000
O O16 0.925948 0.000000 0.500000
O O17 0.561492 0.266538 0.500000
O O18 0.634331 0.285442 0.703241
O O19 0.672135 0.700139 0.000000
#
# Coordination Sequence:
#
# PCOD8266916 Si02
#       7
#    16  16  16  16   8  16  16
#     4  10  20  33  51  79 112 147 188 232 279 333
#     4   9  17  28  46  76 112 150 190 231 279 332
#     4  10  18  33  53  77 105 136 174 220 279 337
#     4   9  17  30  50  77 109 144 185 231 277 333
#     4   9  18  34  54  76 104 141 183 227 273 326
#     4  11  19  32  52  78 112 150 185 229 290 345
#     4  11  21  32  51  79 107 133 171 227 282 340
#
# _framework density 20.501722000000001
#
# number of rings (size 3 to 8) (size 9 to 14) (size 15 to 20)
#    0.000    2.077    2.308    3.692    0.000    1.231 
#    0.000    3.077    0.000    2.769    0.000    0.000 
#    0.000    1.231    0.000    0.000    0.000    0.000 
#
# Total GULP energy -644266.044981 kJ/mol
# GULP energy per Si atom -12389.731634 kJ/mol
# Density = 2.045506 g / cm^3
# Si number density = 20.501722 Si / 1000 Ang^3
#
#
#
# Elastic Constant Matrix: (Units=GPa)
#
#
# Indices 1 2 3 4 5 6 
#
# 1 106.5652 44.2546 -0.7385 0.0000 0.0000 0.0000
# 2 44.2546 136.8448 33.4165 0.0000 0.0000 0.0000
# 3 -0.7385 33.4165 96.9884 0.0000 0.0000 0.0000
# 4 0.0000 0.0000 0.0000 3.5743 0.0000 0.0000
# 5 0.0000 0.0000 0.0000 0.0000 8.4655 0.0000
# 6 0.0000 0.0000 0.0000 0.0000 0.0000 29.3679
#
#
#
# Elastic Compliance Matrix: (Units=1/GPa)
#
#
# Indices 1 2 3 4 5 6 
#
# 1 0.011019 -0.003913 0.001432 0.000000 0.000000 0.000000
# 2 -0.003913 0.009369 -0.003258 0.000000 0.000000 0.000000
# 3 0.001432 -0.003258 0.011444 0.000000 0.000000 0.000000
# 4 0.000000 0.000000 0.000000 0.279777 0.000000 0.000000
# 5 0.000000 0.000000 0.000000 0.000000 0.118126 0.000000
# 6 0.000000 0.000000 0.000000 0.000000 0.000000 0.034051
#
#
# Mechanical properties :
#
#
# Convention : Reuss Voigt Hill
#
# Bulk Modulus (GPa) = 49.13052 54.91818 52.02435
# Shear Modulus (GPa) = 10.37244 25.84594 18.10919
#
# Velocity S-wave (km/s) = 2.25173 3.55445 2.97526
# Velocity P-wave (km/s) = 5.54766 6.60989 6.10193
#
# Compressibility (1/GPa) = 0.02035395
#
# Stress axis : x y z
#
# Youngs Moduli (GPa) = 90.75304 106.74041 87.38355
#
# Poissons Ratio (x) = 0.41769 -0.12515
# Poissons Ratio (y) = 0.35513 0.28466
# Poissons Ratio (z) = -0.12997 0.34772
#
# Static dielectric constant tensor:
#      x y z
#    x 4.177060 0.000000 0.000000 
#    y 0.000000 3.731430 0.000000 
#    z 0.000000 0.000000 3.579650 
# 
# 
# High freq. dielectric constant tensor:
#      x y z
#    x 1.786870 0.000000 0.000000 
#    y 0.000000 1.777420 0.000000 
#    z 0.000000 0.000000 1.783790 
# 
# From -- ./inp_files/18610.got.cif
#   From: 2010.03.12/outbox.cif.g09.slc.cpg/sg65_10_cif.got.tgz:18610.got - 2010.04.10 20:52:16.
