data_PCOD8266448
_publ_section_title
;
Structure prediction by ZEFSAII (Michael W. Deem and Ramdas Pophale) SiO2 
 PCOD8266448
Probable space group: C M M M
;
_chemical_formula_sum "Si O2"
_cell_formula_units_Z 80
_cell_length_a 25.553452
_cell_length_b 19.346160
_cell_length_c 9.117008
_cell_angle_alpha 90.000000
_cell_angle_beta 90.000000
_cell_angle_gamma 90.000000
_cell_volume 4507.094750
_symmetry_space_group_name_H-M "C M M M"
_symmetry_group_IT_number 65
_symmetry_cell_setting 'orthorhombic'
loop_
_space_group_symop_operation_xyz
x,y,z
-x,-y,z
x,-y,-z
-x,y,-z
-x,-y,-z
x,y,-z
-x,y,z
x,-y,z
1/2+x,1/2+y,z
1/2-x,1/2-y,z
1/2+x,1/2-y,-z
1/2-x,1/2+y,-z
1/2-x,1/2-y,-z
1/2+x,1/2+y,-z
1/2-x,1/2+y,z
1/2+x,1/2-y,z
loop_
_atom_site_type_symbol
_atom_site_label
_atom_site_fract_x
_atom_site_fract_y
_atom_site_fract_z
Si Si1 0.189855 0.419213 0.167805
Si Si2 0.000000 0.671889 0.173251
Si Si3 0.613224 0.672946 0.665208
Si Si4 0.396362 0.834323 0.328839
Si Si5 0.191898 0.076402 0.827082
Si Si6 0.000000 0.811761 0.666548
O O1 0.177882 0.500000 0.184790
O O2 0.153401 0.376705 0.275803
O O3 0.249220 0.402762 0.217236
O O4 0.180463 0.395815 0.000000
O O5 0.947701 0.638262 0.242714
O O6 0.000000 0.752622 0.211730
O O7 0.000000 0.659829 0.000000
O O8 0.632711 0.660666 0.500000
O O9 0.613813 0.753793 0.705011
O O10 0.651556 0.632712 0.770831
O O11 0.553404 0.644151 0.685537
O O12 0.405203 0.847336 0.500000
O O13 0.178582 0.000000 0.763565
O O14 0.187515 0.073953 0.000000
O O15 0.000000 0.778898 0.500000
#
# Coordination Sequence:
#
# PCOD8266448 Si02
#       6
#    16   8  16  16  16   8
#     4   9  19  36  54  72  98 132 168 206 250 298
#     4  10  18  30  51  76 101 132 167 200 243 296
#     4   9  18  32  51  74 100 131 166 204 245 295
#     4  10  20  34  52  76 105 132 163 205 249 293
#     4   9  19  35  52  71  99 133 167 207 253 297
#     4   8  16  32  49  70 103 135 163 202 251 295
#
# _framework density 17.749791999999999
#
# number of rings (size 3 to 8) (size 9 to 14) (size 15 to 20)
#    0.000    2.800    0.000    3.900    0.000    6.400 
#    0.000    7.000    0.000    6.000    0.000    0.000 
#    0.000    0.000    0.000    0.000    0.000    0.000 
#
# Total GULP energy -495814.561905 kJ/mol
# GULP energy per Si atom -12395.364048 kJ/mol
# Density = 1.770939 g / cm^3
# Si number density = 17.749792 Si / 1000 Ang^3
#
#
#
# Elastic Constant Matrix: (Units=GPa)
#
#
# Indices 1 2 3 4 5 6 
#
# 1 146.5658 58.7878 62.8101 0.0000 0.0000 0.0000
# 2 58.7878 50.9150 35.1100 0.0000 0.0000 0.0000
# 3 62.8101 35.1100 80.4043 0.0000 0.0000 0.0000
# 4 0.0000 0.0000 0.0000 24.3944 0.0000 0.0000
# 5 0.0000 0.0000 0.0000 0.0000 34.8514 0.0000
# 6 0.0000 0.0000 0.0000 0.0000 0.0000 -134.9894
#
#
#
# Elastic Compliance Matrix: (Units=1/GPa)
#
#
# Indices 1 2 3 4 5 6 
#
# 1 0.014314 -0.012615 -0.005673 0.000000 0.000000 0.000000
# 2 -0.012615 0.039221 -0.007272 0.000000 0.000000 0.000000
# 3 -0.005673 -0.007272 0.020044 0.000000 0.000000 0.000000
# 4 0.000000 0.000000 0.000000 0.040993 0.000000 0.000000
# 5 0.000000 0.000000 0.000000 0.000000 0.028693 0.000000
# 6 0.000000 0.000000 0.000000 0.000000 0.000000 -0.007408
#
#
# Mechanical properties :
#
#
# Convention : Reuss Voigt Hill
#
# Bulk Modulus (GPa) = 44.52580 65.70011 55.11296
# Shear Modulus (GPa) = 25.71165 -7.07023 9.32071
#
# Velocity S-wave (km/s) = 3.81012 -1.99798 2.29403
# Velocity P-wave (km/s) = 6.67052 5.63670 6.17528
#
# Compressibility (1/GPa) = 0.02245889
#
# Stress axis : x y z
#
# Youngs Moduli (GPa) = 69.86105 25.49651 49.88971
#
# Poissons Ratio (x) = 0.32165 0.28303
# Poissons Ratio (y) = 0.88132 0.36278
# Poissons Ratio (z) = 0.39633 0.18540
#
# Static dielectric constant tensor:
#      x y z
#    x 3.560170 0.000000 0.000000 
#    y 0.000000 3.020790 0.000000 
#    z 0.000000 0.000000 3.174490 
# 
# 
# High freq. dielectric constant tensor:
#      x y z
#    x 1.703500 0.000000 0.000000 
#    y 0.000000 1.653360 0.000000 
#    z 0.000000 0.000000 1.685690 
# 
# From -- ./inp_files/9728.got.cif
#   From: 2010.03.12/outbox.cif.g09.slc.cpg/sg65_5_cif.got.tgz:9728.got - 2010.04.10 20:52:16.
