data_PCOD8266699
_publ_section_title
;
Structure prediction by ZEFSAII (Michael W. Deem and Ramdas Pophale) SiO2 
 PCOD8266699
Probable space group: C M M M
;
_chemical_formula_sum "Si O2"
_cell_formula_units_Z 80
_cell_length_a 16.797734
_cell_length_b 14.910235
_cell_length_c 17.890751
_cell_angle_alpha 90.000000
_cell_angle_beta 90.000000
_cell_angle_gamma 90.000000
_cell_volume 4480.884602
_symmetry_space_group_name_H-M "C M M M"
_symmetry_group_IT_number 65
_symmetry_cell_setting 'orthorhombic'
loop_
_space_group_symop_operation_xyz
x,y,z
-x,-y,z
x,-y,-z
-x,y,-z
-x,-y,-z
x,y,-z
-x,y,z
x,-y,z
1/2+x,1/2+y,z
1/2-x,1/2-y,z
1/2+x,1/2-y,-z
1/2-x,1/2+y,-z
1/2-x,1/2-y,-z
1/2+x,1/2+y,-z
1/2-x,1/2+y,z
1/2+x,1/2-y,z
loop_
_atom_site_type_symbol
_atom_site_label
_atom_site_fract_x
_atom_site_fract_y
_atom_site_fract_z
Si Si1 0.211077 0.661830 0.164303
Si Si2 0.175212 0.138886 0.301117
Si Si3 0.411025 0.000000 0.362000
Si Si4 0.275859 0.500000 0.085788
Si Si5 0.090215 0.685580 0.275947
Si Si6 0.410385 0.500000 0.791740
Si Si7 0.260208 0.500000 0.415390
O O1 0.250000 0.750000 0.127899
O O2 0.251464 0.637973 0.243783
O O3 0.219947 0.584751 0.103384
O O4 0.119582 0.678777 0.189033
O O5 0.143784 0.239296 0.319620
O O6 0.103872 0.086630 0.259916
O O7 0.205007 0.089084 0.375735
O O8 0.402028 0.088319 0.312253
O O9 0.500000 0.000000 0.400377
O O10 0.336641 0.000000 0.418711
O O11 0.355216 0.500000 0.134964
O O12 0.301587 0.500000 0.000000
O O13 0.000000 0.719299 0.275728
O O14 0.500000 0.500000 0.821399
O O15 0.291575 0.500000 0.500000
#
# Coordination Sequence:
#
# PCOD8266699 Si02
#       7
#    16  16   8   8  16   8   8
#     4   9  17  31  53  74  98 134 175 220 257 306
#     4   9  18  33  53  78 104 130 180 223 262 314
#     4  10  20  32  49  77 107 137 174 219 266 306
#     4  10  20  32  48  75 111 143 172 210 261 317
#     4  10  18  31  56  80 101 130 174 229 269 303
#     4   9  17  31  53  76 102 137 177 225 266 304
#     4  11  21  35  55  77 107 143 174 213 268 329
#
# _framework density 17.853617
#
# number of rings (size 3 to 8) (size 9 to 14) (size 15 to 20)
#    0.000    2.400    2.000    1.800    0.000    0.800 
#    0.000    2.000    0.000   13.200    0.000    0.000 
#    0.000    0.000    0.000    0.000    0.000    0.000 
#
# Total GULP energy -495704.279174 kJ/mol
# GULP energy per Si atom -12392.606979 kJ/mol
# Density = 1.781298 g / cm^3
# Si number density = 17.853617 Si / 1000 Ang^3
#
#
#
# Elastic Constant Matrix: (Units=GPa)
#
#
# Indices 1 2 3 4 5 6 
#
# 1 87.0353 27.4672 29.6298 0.0000 0.0000 0.0000
# 2 27.4672 131.4264 41.9621 0.0000 0.0000 0.0000
# 3 29.6298 41.9621 88.1348 0.0000 0.0000 0.0000
# 4 0.0000 0.0000 0.0000 10.3499 0.0000 0.0000
# 5 0.0000 0.0000 0.0000 0.0000 14.0574 0.0000
# 6 0.0000 0.0000 0.0000 0.0000 0.0000 24.6873
#
#
#
# Elastic Compliance Matrix: (Units=1/GPa)
#
#
# Indices 1 2 3 4 5 6 
#
# 1 0.013250 -0.001588 -0.003698 0.000000 0.000000 0.000000
# 2 -0.001588 0.009163 -0.003829 0.000000 0.000000 0.000000
# 3 -0.003698 -0.003829 0.014412 0.000000 0.000000 0.000000
# 4 0.000000 0.000000 0.000000 0.096620 0.000000 0.000000
# 5 0.000000 0.000000 0.000000 0.000000 0.071137 0.000000
# 6 0.000000 0.000000 0.000000 0.000000 0.000000 0.040507
#
#
# Mechanical properties :
#
#
# Convention : Reuss Voigt Hill
#
# Bulk Modulus (GPa) = 53.77807 56.07941 54.92874
# Shear Modulus (GPa) = 18.55167 23.65475 21.10321
#
# Velocity S-wave (km/s) = 3.22700 3.64390 3.44177
# Velocity P-wave (km/s) = 6.63866 7.01305 6.82842
#
# Compressibility (1/GPa) = 0.01859494
#
# Stress axis : x y z
#
# Youngs Moduli (GPa) = 75.47253 109.13197 69.38447
#
# Poissons Ratio (x) = 0.17334 0.25660
# Poissons Ratio (y) = 0.11988 0.26565
# Poissons Ratio (z) = 0.27911 0.41784
#
# Static dielectric constant tensor:
#      x y z
#    x 3.460430 0.000000 0.000000 
#    y 0.000000 3.617540 0.000000 
#    z 0.000000 0.000000 2.784570 
# 
# 
# High freq. dielectric constant tensor:
#      x y z
#    x 1.692630 0.000000 0.000000 
#    y 0.000000 1.714690 0.000000 
#    z 0.000000 0.000000 1.633930 
# 
# From -- ./inp_files/54255.got.cif
#   From: 2010.03.12/outbox.cif.g09.slc.cpg/sg65_28_cif.got.tgz:54255.got - 2010.04.10 20:52:16.
