data_PCOD8266687
_publ_section_title
;
Structure prediction by ZEFSAII (Michael W. Deem and Ramdas Pophale) SiO2 
 PCOD8266687
Probable space group: C M M M
;
_chemical_formula_sum "Si O2"
_cell_formula_units_Z 56
_cell_length_a 15.130427
_cell_length_b 8.724572
_cell_length_c 21.438969
_cell_angle_alpha 90.000000
_cell_angle_beta 90.000000
_cell_angle_gamma 90.000000
_cell_volume 2830.083256
_symmetry_space_group_name_H-M "C M M M"
_symmetry_group_IT_number 65
_symmetry_cell_setting 'orthorhombic'
loop_
_space_group_symop_operation_xyz
x,y,z
-x,-y,z
x,-y,-z
-x,y,-z
-x,-y,-z
x,y,-z
-x,y,z
x,-y,z
1/2+x,1/2+y,z
1/2-x,1/2-y,z
1/2+x,1/2-y,-z
1/2-x,1/2+y,-z
1/2-x,1/2-y,-z
1/2+x,1/2+y,-z
1/2-x,1/2+y,z
1/2+x,1/2-y,z
loop_
_atom_site_type_symbol
_atom_site_label
_atom_site_fract_x
_atom_site_fract_y
_atom_site_fract_z
Si Si1 0.000000 0.320949 0.647714
Si Si2 0.656546 0.319850 0.571043
Si Si3 0.154242 0.820556 0.125283
Si Si4 0.652572 0.818003 0.000000
Si Si5 0.500000 0.323380 0.779525
O O1 0.913992 0.248815 0.617426
O O2 0.000000 0.500000 0.635227
O O3 0.000000 0.287830 0.720830
O O4 0.631337 0.276754 0.500000
O O5 0.660697 0.500000 0.580419
O O6 0.750000 0.250000 0.589849
O O7 0.250000 0.750000 0.141321
O O8 0.088229 0.786696 0.181743
O O9 0.166235 0.000000 0.113000
O O10 0.108961 0.745080 0.063632
O O11 0.750000 0.750000 0.000000
O O12 0.650467 0.000000 0.000000
O O13 0.500000 0.500000 0.757806
#
# Coordination Sequence:
#
# PCOD8266687 Si02
#       5
#     8  16  16   8   8
#     4  12  25  39  59  86 120 159 197 239 286 343
#     4  10  21  39  64  92 121 153 192 239 289 341
#     4  10  20  37  59  82 109 144 185 233 285 338
#     4  10  18  31  54  83 112 142 178 227 283 339
#     4  10  24  42  58  78 111 154 196 235 282 342
#
# _framework density 19.787403999999999
#
# number of rings (size 3 to 8) (size 9 to 14) (size 15 to 20)
#    0.000    1.714    0.000    6.429    0.000    7.429 
#    0.000    5.714    0.000    0.000    0.000    0.000 
#    0.000    0.000    0.000    0.000    0.000    0.000 
#
# Total GULP energy -347236.538588 kJ/mol
# GULP energy per Si atom -12401.304950 kJ/mol
# Density = 1.974237 g / cm^3
# Si number density = 19.787404 Si / 1000 Ang^3
#
#
#
# Elastic Constant Matrix: (Units=GPa)
#
#
# Indices 1 2 3 4 5 6 
#
# 1 119.9690 58.9924 71.8613 0.0000 0.0000 0.0000
# 2 58.9924 120.7189 57.8666 0.0000 0.0000 0.0000
# 3 71.8613 57.8666 124.3288 0.0000 0.0000 0.0000
# 4 0.0000 0.0000 0.0000 34.7409 0.0000 0.0000
# 5 0.0000 0.0000 0.0000 0.0000 -22.7474 0.0000
# 6 0.0000 0.0000 0.0000 0.0000 0.0000 30.7080
#
#
#
# Elastic Compliance Matrix: (Units=1/GPa)
#
#
# Indices 1 2 3 4 5 6 
#
# 1 0.013991 -0.003811 -0.006313 0.000000 0.000000 0.000000
# 2 -0.003811 0.011701 -0.003243 0.000000 0.000000 0.000000
# 3 -0.006313 -0.003243 0.013202 0.000000 0.000000 0.000000
# 4 0.000000 0.000000 0.000000 0.028785 0.000000 0.000000
# 5 0.000000 0.000000 0.000000 0.000000 -0.043961 0.000000
# 6 0.000000 0.000000 0.000000 0.000000 0.000000 0.032565
#
#
# Mechanical properties :
#
#
# Convention : Reuss Voigt Hill
#
# Bulk Modulus (GPa) = 82.24360 82.49526 82.36943
# Shear Modulus (GPa) = 57.42626 20.29339 38.85983
#
# Velocity S-wave (km/s) = 5.39302 3.20593 4.43636
# Velocity P-wave (km/s) = 8.96846 7.44884 8.24374
#
# Compressibility (1/GPa) = 0.01215900
#
# Stress axis : x y z
#
# Youngs Moduli (GPa) = 71.47525 85.46565 75.74896
#
# Poissons Ratio (x) = 0.32570 0.47820
# Poissons Ratio (y) = 0.27238 0.24567
# Poissons Ratio (z) = 0.45122 0.27718
#
# Static dielectric constant tensor:
#      x y z
#    x 3.671290 0.000000 0.000000 
#    y 0.000000 3.733750 0.000000 
#    z 0.000000 0.000000 3.868450 
# 
# 
# High freq. dielectric constant tensor:
#      x y z
#    x 1.772320 0.000000 0.000000 
#    y 0.000000 1.786040 0.000000 
#    z 0.000000 0.000000 1.775050 
# 
# From -- ./inp_files/53953.got.cif
#   From: 2010.03.12/outbox.cif.g09.slc.cpg/sg65_27_cif.got.tgz:53953.got - 2010.04.10 20:52:16.
