data_PCOD8266539
_publ_section_title
;
Structure prediction by ZEFSAII (Michael W. Deem and Ramdas Pophale) SiO2 
 PCOD8266539
Probable space group: C M M M
;
_chemical_formula_sum "Si O2"
_cell_formula_units_Z 64
_cell_length_a 19.124255
_cell_length_b 23.461132
_cell_length_c 8.737581
_cell_angle_alpha 90.000000
_cell_angle_beta 90.000000
_cell_angle_gamma 90.000000
_cell_volume 3920.348755
_symmetry_space_group_name_H-M "C M M M"
_symmetry_group_IT_number 65
_symmetry_cell_setting 'orthorhombic'
loop_
_space_group_symop_operation_xyz
x,y,z
-x,-y,z
x,-y,-z
-x,y,-z
-x,-y,-z
x,y,-z
-x,y,z
x,-y,z
1/2+x,1/2+y,z
1/2-x,1/2-y,z
1/2+x,1/2-y,-z
1/2-x,1/2+y,-z
1/2-x,1/2-y,-z
1/2+x,1/2+y,-z
1/2-x,1/2+y,z
1/2+x,1/2-y,z
loop_
_atom_site_type_symbol
_atom_site_label
_atom_site_fract_x
_atom_site_fract_y
_atom_site_fract_z
Si Si1 0.000000 0.258299 0.318830
Si Si2 0.849934 0.225784 0.319434
Si Si3 0.772533 0.331134 0.821270
Si Si4 0.863955 0.564085 0.823314
Si Si5 0.500000 0.114356 0.320224
O O1 0.930979 0.223836 0.266266
O O2 0.000000 0.322059 0.246873
O O3 0.000000 0.264895 0.500000
O O4 0.842056 0.217418 0.500000
O O5 0.819420 0.287219 0.274222
O O6 0.807991 0.175369 0.233169
O O7 0.798874 0.394703 0.783717
O O8 0.778629 0.316484 0.000000
O O9 0.840283 0.500000 0.781832
O O10 0.931847 0.579995 0.728122
O O11 0.884779 0.569744 0.000000
O O12 0.500000 0.119284 0.500000
#
# Coordination Sequence:
#
# PCOD8266539 Si02
#       5
#     8  16  16  16   8
#     4   9  18  30  46  69  95 123 152 182 229 281
#     4  10  18  31  49  67  92 122 150 186 234 281
#     4  10  19  31  46  68  92 118 156 195 228 269
#     4  10  21  35  48  64  93 131 163 192 232 275
#     4  11  20  32  47  68  96 125 163 199 225 265
#
# _framework density 16.325078000000001
#
# number of rings (size 3 to 8) (size 9 to 14) (size 15 to 20)
#    0.000    2.000    2.500    3.750    0.000    3.000 
#    0.000    2.500    0.000    0.000    0.000    0.875 
#    0.000    7.000    0.000    0.000    0.000    0.000 
#
# Total GULP energy -396737.646439 kJ/mol
# GULP energy per Si atom -12398.051451 kJ/mol
# Density = 1.628792 g / cm^3
# Si number density = 16.325078 Si / 1000 Ang^3
#
#
#
# Elastic Constant Matrix: (Units=GPa)
#
#
# Indices 1 2 3 4 5 6 
#
# 1 133.8765 66.5342 25.3465 0.0000 0.0000 0.0000
# 2 66.5342 104.2864 27.0774 0.0000 0.0000 0.0000
# 3 25.3465 27.0774 41.2469 0.0000 0.0000 0.0000
# 4 0.0000 0.0000 0.0000 15.9058 0.0000 0.0000
# 5 0.0000 0.0000 0.0000 0.0000 23.2838 0.0000
# 6 0.0000 0.0000 0.0000 0.0000 0.0000 20.4113
#
#
#
# Elastic Compliance Matrix: (Units=1/GPa)
#
#
# Indices 1 2 3 4 5 6 
#
# 1 0.011170 -0.006442 -0.002635 0.000000 0.000000 0.000000
# 2 -0.006442 0.015275 -0.006069 0.000000 0.000000 0.000000
# 3 -0.002635 -0.006069 0.029847 0.000000 0.000000 0.000000
# 4 0.000000 0.000000 0.000000 0.062870 0.000000 0.000000
# 5 0.000000 0.000000 0.000000 0.000000 0.042948 0.000000
# 6 0.000000 0.000000 0.000000 0.000000 0.000000 0.048993
#
#
# Mechanical properties :
#
#
# Convention : Reuss Voigt Hill
#
# Bulk Modulus (GPa) = 38.46078 57.48066 47.97072
# Shear Modulus (GPa) = 19.99503 22.61694 21.30599
#
# Velocity S-wave (km/s) = 3.50352 3.72615 3.61655
# Velocity P-wave (km/s) = 6.32271 7.33476 6.84746
#
# Compressibility (1/GPa) = 0.02600051
#
# Stress axis : x y z
#
# Youngs Moduli (GPa) = 89.52414 65.46698 33.50385
#
# Poissons Ratio (x) = 0.42176 0.08828
# Poissons Ratio (y) = 0.57675 0.20332
# Poissons Ratio (z) = 0.23589 0.39730
#
# Static dielectric constant tensor:
#      x y z
#    x 3.474430 0.000000 0.000000 
#    y 0.000000 3.075530 0.000000 
#    z 0.000000 0.000000 3.065260 
# 
# 
# High freq. dielectric constant tensor:
#      x y z
#    x 1.624930 0.000000 0.000000 
#    y 0.000000 1.601110 0.000000 
#    z 0.000000 0.000000 1.630810 
# 
# From -- ./inp_files/11147.got.cif
#   From: 2010.03.12/outbox.cif.g09.slc.cpg/sg65_6_cif.got.tgz:11147.got - 2010.04.10 20:52:16.
