data_PCOD8266500
_publ_section_title
;
Structure prediction by ZEFSAII (Michael W. Deem and Ramdas Pophale) SiO2 
 PCOD8266500
Probable space group: C M M M
;
_chemical_formula_sum "Si O2"
_cell_formula_units_Z 72
_cell_length_a 24.910980
_cell_length_b 8.907012
_cell_length_c 17.137993
_cell_angle_alpha 90.000000
_cell_angle_beta 90.000000
_cell_angle_gamma 90.000000
_cell_volume 3802.618980
_symmetry_space_group_name_H-M "C M M M"
_symmetry_group_IT_number 65
_symmetry_cell_setting 'orthorhombic'
loop_
_space_group_symop_operation_xyz
x,y,z
-x,-y,z
x,-y,-z
-x,y,-z
-x,-y,-z
x,y,-z
-x,y,z
x,-y,z
1/2+x,1/2+y,z
1/2-x,1/2-y,z
1/2+x,1/2-y,-z
1/2-x,1/2+y,-z
1/2-x,1/2-y,-z
1/2+x,1/2+y,-z
1/2-x,1/2+y,z
1/2+x,1/2-y,z
loop_
_atom_site_type_symbol
_atom_site_label
_atom_site_fract_x
_atom_site_fract_y
_atom_site_fract_z
Si Si1 0.883011 0.670450 0.879256
Si Si2 0.500000 0.828690 0.136496
Si Si3 0.193083 0.173164 0.411987
Si Si4 0.607717 0.824862 0.696763
Si Si5 0.000000 0.175289 0.296241
Si Si6 0.691616 0.676419 0.000000
O O1 0.864473 0.500000 0.894951
O O2 0.944519 0.692859 0.911808
O O3 0.881866 0.709040 0.787844
O O4 0.841801 0.777827 0.923357
O O5 0.500000 0.706368 0.204256
O O6 0.500000 0.000000 0.172275
O O7 0.170696 0.190636 0.500000
O O8 0.250000 0.250000 0.404406
O O9 0.155381 0.255550 0.351694
O O10 0.198388 0.000000 0.388328
O O11 0.552988 0.748628 0.666481
O O12 0.603850 0.000000 0.680250
O O13 0.000000 0.000000 0.313846
O O14 0.750000 0.750000 0.000000
O O15 0.699764 0.500000 0.000000
#
# Coordination Sequence:
#
# PCOD8266500 Si02
#       6
#    16   8  16  16   8   8
#     4   9  19  37  59  82 109 142 179 219 266 321
#     4   8  16  33  57  83 110 141 176 215 265 324
#     4  10  21  37  57  82 112 145 182 227 276 323
#     4  10  20  36  59  84 111 146 185 223 269 327
#     4  10  18  30  52  82 116 147 177 222 272 320
#     4  12  26  41  56  75 105 144 184 228 275 322
#
# _framework density 18.934318000000001
#
# number of rings (size 3 to 8) (size 9 to 14) (size 15 to 20)
#    0.000    2.222    0.000    4.667    0.000    7.111 
#    0.000    2.778    0.000    3.333    0.000    0.000 
#    0.000    0.000    0.000    0.000    0.000    0.000 
#
# Total GULP energy -446290.043490 kJ/mol
# GULP energy per Si atom -12396.945653 kJ/mol
# Density = 1.889122 g / cm^3
# Si number density = 18.934318 Si / 1000 Ang^3
#
#
#
# Elastic Constant Matrix: (Units=GPa)
#
#
# Indices 1 2 3 4 5 6 
#
# 1 131.5581 71.9860 54.8774 0.0000 0.0000 0.0000
# 2 71.9860 149.8854 52.2253 0.0000 0.0000 0.0000
# 3 54.8774 52.2253 72.6015 0.0000 0.0000 0.0000
# 4 0.0000 0.0000 0.0000 28.8163 0.0000 0.0000
# 5 0.0000 0.0000 0.0000 0.0000 64.5041 0.0000
# 6 0.0000 0.0000 0.0000 0.0000 0.0000 39.3127
#
#
#
# Elastic Compliance Matrix: (Units=1/GPa)
#
#
# Indices 1 2 3 4 5 6 
#
# 1 0.012397 -0.003588 -0.006789 0.000000 0.000000 0.000000
# 2 -0.003588 0.009942 -0.004439 0.000000 0.000000 0.000000
# 3 -0.006789 -0.004439 0.022099 0.000000 0.000000 0.000000
# 4 0.000000 0.000000 0.000000 0.034703 0.000000 0.000000
# 5 0.000000 0.000000 0.000000 0.000000 0.015503 0.000000
# 6 0.000000 0.000000 0.000000 0.000000 0.000000 0.025437
#
#
# Mechanical properties :
#
#
# Convention : Reuss Voigt Hill
#
# Bulk Modulus (GPa) = 67.54909 79.13581 73.34245
# Shear Modulus (GPa) = 32.33149 38.19037 35.26093
#
# Velocity S-wave (km/s) = 4.13675 4.49597 4.32009
# Velocity P-wave (km/s) = 7.65309 8.29682 7.98145
#
# Compressibility (1/GPa) = 0.01480405
#
# Stress axis : x y z
#
# Youngs Moduli (GPa) = 80.66769 100.58413 45.25105
#
# Poissons Ratio (x) = 0.36091 0.30721
# Poissons Ratio (y) = 0.28945 0.20089
# Poissons Ratio (z) = 0.54766 0.44654
#
# Static dielectric constant tensor:
#      x y z
#    x 3.682420 0.000000 0.000000 
#    y 0.000000 3.492380 0.000000 
#    z 0.000000 0.000000 3.268620 
# 
# 
# High freq. dielectric constant tensor:
#      x y z
#    x 1.748980 0.000000 0.000000 
#    y 0.000000 1.742640 0.000000 
#    z 0.000000 0.000000 1.712250 
# 
# From -- ./inp_files/46562.got.cif
#   From: 2010.03.12/outbox.cif.g09.slc.cpg/sg65_24_cif.got.tgz:46562.got - 2010.04.10 20:52:16.
