data_PCOD8266553
_publ_section_title
;
Structure prediction by ZEFSAII (Michael W. Deem and Ramdas Pophale) SiO2 
 PCOD8266553
Probable space group: C M M M
;
_chemical_formula_sum "Si O2"
_cell_formula_units_Z 56
_cell_length_a 26.269951
_cell_length_b 7.771589
_cell_length_c 15.588968
_cell_angle_alpha 90.000000
_cell_angle_beta 90.000000
_cell_angle_gamma 90.000000
_cell_volume 3182.632206
_symmetry_space_group_name_H-M "C M M M"
_symmetry_group_IT_number 65
_symmetry_cell_setting 'orthorhombic'
loop_
_space_group_symop_operation_xyz
x,y,z
-x,-y,z
x,-y,-z
-x,y,-z
-x,-y,-z
x,y,-z
-x,y,z
x,-y,z
1/2+x,1/2+y,z
1/2-x,1/2-y,z
1/2+x,1/2-y,-z
1/2-x,1/2+y,-z
1/2-x,1/2-y,-z
1/2+x,1/2+y,-z
1/2-x,1/2+y,z
1/2+x,1/2-y,z
loop_
_atom_site_type_symbol
_atom_site_label
_atom_site_fract_x
_atom_site_fract_y
_atom_site_fract_z
Si Si1 0.191019 0.296742 0.314140
Si Si2 0.559892 0.000000 0.899804
Si Si3 0.692174 0.201001 0.500000
Si Si4 0.873810 0.191401 0.156658
Si Si5 0.191875 0.702333 0.000000
O O1 0.185057 0.500000 0.303820
O O2 0.250000 0.250000 0.298618
O O3 0.170719 0.230753 0.408512
O O4 0.154472 0.204870 0.247184
O O5 0.581337 0.170036 0.853790
O O6 0.500000 0.000000 0.887677
O O7 0.575638 0.000000 0.000000
O O8 0.750000 0.250000 0.500000
O O9 0.685006 0.000000 0.500000
O O10 0.897628 0.000000 0.149382
O O11 0.831816 0.215430 0.084144
O O12 0.250000 0.750000 0.000000
O O13 0.182358 0.500000 0.000000
#
# Coordination Sequence:
#
# PCOD8266553 Si02
#       5
#    16   8   8  16   8
#     4  10  18  31  49  78 115 154 189 225 268 324
#     4  11  24  44  64  81 107 143 185 242 288 325
#     4   8  16  28  46  70 108 151 190 225 261 311
#     4  12  22  37  56  82 111 143 184 226 275 336
#     4  12  22  36  52  78 115 151 182 220 264 325
#
# _framework density 17.595499
#
# number of rings (size 3 to 8) (size 9 to 14) (size 15 to 20)
#    0.000    1.286    4.286    3.000    0.000    1.714 
#    0.000    1.429    0.000    0.000    0.000    2.000 
#    0.000    2.286    0.000    0.000    0.000    0.000 
#
# Total GULP energy -347011.161373 kJ/mol
# GULP energy per Si atom -12393.255763 kJ/mol
# Density = 1.755545 g / cm^3
# Si number density = 17.595499 Si / 1000 Ang^3
#
#
#
# Elastic Constant Matrix: (Units=GPa)
#
#
# Indices 1 2 3 4 5 6 
#
# 1 80.2879 37.6887 42.9127 0.0000 0.0000 0.0000
# 2 37.6887 129.1140 39.6355 0.0000 0.0000 0.0000
# 3 42.9127 39.6355 149.5640 0.0000 0.0000 0.0000
# 4 0.0000 0.0000 0.0000 96.4947 0.0000 0.0000
# 5 0.0000 0.0000 0.0000 0.0000 10.3606 0.0000
# 6 0.0000 0.0000 0.0000 0.0000 0.0000 22.0612
#
#
#
# Elastic Compliance Matrix: (Units=1/GPa)
#
#
# Indices 1 2 3 4 5 6 
#
# 1 0.016094 -0.003571 -0.003671 0.000000 0.000000 0.000000
# 2 -0.003571 0.009223 -0.001420 0.000000 0.000000 0.000000
# 3 -0.003671 -0.001420 0.008116 0.000000 0.000000 0.000000
# 4 0.000000 0.000000 0.000000 0.010363 0.000000 0.000000
# 5 0.000000 0.000000 0.000000 0.000000 0.096520 0.000000
# 6 0.000000 0.000000 0.000000 0.000000 0.000000 0.045328
#
#
# Mechanical properties :
#
#
# Convention : Reuss Voigt Hill
#
# Bulk Modulus (GPa) = 62.07690 66.60440 64.34065
# Shear Modulus (GPa) = 23.99958 41.69858 32.84908
#
# Velocity S-wave (km/s) = 3.69719 4.87339 4.32545
# Velocity P-wave (km/s) = 7.31999 8.34277 7.84806
#
# Compressibility (1/GPa) = 0.01610905
#
# Stress axis : x y z
#
# Youngs Moduli (GPa) = 62.13649 108.42198 123.21813
#
# Poissons Ratio (x) = 0.38715 0.45237
# Poissons Ratio (y) = 0.22187 0.17493
# Poissons Ratio (z) = 0.22812 0.15393
#
# Static dielectric constant tensor:
#      x y z
#    x 2.844350 0.000000 0.000000 
#    y 0.000000 3.507900 0.000000 
#    z 0.000000 0.000000 3.939410 
# 
# 
# High freq. dielectric constant tensor:
#      x y z
#    x 1.628150 0.000000 0.000000 
#    y 0.000000 1.697010 0.000000 
#    z 0.000000 0.000000 1.699460 
# 
# From -- ./inp_files/44991.got.cif
#   From: 2010.03.12/outbox.cif.g09.slc.cpg/sg65_23_cif.got.tgz:44991.got - 2010.04.10 20:52:16.
