data_PCOD8266134
_publ_section_title
;
Structure prediction by ZEFSAII (Michael W. Deem and Ramdas Pophale) SiO2 
 PCOD8266134
Probable space group: C M M M
;
_chemical_formula_sum "Si O2"
_cell_formula_units_Z 80
_cell_length_a 9.669122
_cell_length_b 23.265487
_cell_length_c 20.750981
_cell_angle_alpha 90.000000
_cell_angle_beta 90.000000
_cell_angle_gamma 90.000000
_cell_volume 4668.074951
_symmetry_space_group_name_H-M "C M M M"
_symmetry_group_IT_number 65
_symmetry_cell_setting 'orthorhombic'
loop_
_space_group_symop_operation_xyz
x,y,z
-x,-y,z
x,-y,-z
-x,y,-z
-x,-y,-z
x,y,-z
-x,y,z
x,-y,z
1/2+x,1/2+y,z
1/2-x,1/2-y,z
1/2+x,1/2-y,-z
1/2-x,1/2+y,-z
1/2-x,1/2-y,-z
1/2+x,1/2+y,-z
1/2-x,1/2+y,z
1/2+x,1/2-y,z
loop_
_atom_site_type_symbol
_atom_site_label
_atom_site_fract_x
_atom_site_fract_y
_atom_site_fract_z
Si Si1 0.653083 0.158365 0.114846
Si Si2 0.155593 0.853925 0.703722
Si Si3 0.157811 0.434958 0.782726
Si Si4 0.250000 0.750000 0.212294
Si Si5 0.667769 0.690833 0.000000
Si Si6 0.157848 0.194575 0.570610
O O1 0.500000 0.160804 0.082153
O O2 0.674625 0.097657 0.149674
O O3 0.654759 0.211101 0.165705
O O4 0.779031 0.158970 0.064005
O O5 0.253827 0.903760 0.728546
O O6 0.165549 0.793266 0.741819
O O7 0.196508 0.848117 0.628526
O O8 0.000000 0.876067 0.711525
O O9 0.210112 0.500000 0.792318
O O10 0.000000 0.433245 0.759202
O O11 0.750000 0.750000 0.000000
O O12 0.500000 0.696762 0.000000
O O13 0.180574 0.165244 0.500000
O O14 0.250000 0.250000 0.577140
O O15 0.000000 0.214869 0.578857
#
# Coordination Sequence:
#
# PCOD8266134 Si02
#       6
#    16  16  16   8   8  16
#     4  10  20  34  54  76 103 134 166 204 251 303
#     4  10  19  30  49  77 105 135 172 214 257 303
#     4   9  20  38  57  77 101 132 171 215 260 305
#     4  10  18  29  49  76 106 132 166 202 256 304
#     4  12  24  36  53  76 107 137 168 202 244 299
#     4   9  17  29  45  69 104 141 173 206 249 304
#
# _framework density 17.137685999999999
#
# number of rings (size 3 to 8) (size 9 to 14) (size 15 to 20)
#    0.000    2.200    2.000    1.500    0.000    5.200 
#    0.000    0.500    0.000    3.600    0.000    4.200 
#    0.000    0.000    0.000    0.000    0.000    0.000 
#
# Total GULP energy -495718.134881 kJ/mol
# GULP energy per Si atom -12392.953372 kJ/mol
# Density = 1.709868 g / cm^3
# Si number density = 17.137686 Si / 1000 Ang^3
#
#
#
# Elastic Constant Matrix: (Units=GPa)
#
#
# Indices 1 2 3 4 5 6 
#
# 1 101.9631 45.5554 64.8913 0.0000 0.0000 0.0000
# 2 45.5554 115.7890 53.7301 0.0000 0.0000 0.0000
# 3 64.8913 53.7301 119.7628 0.0000 0.0000 0.0000
# 4 0.0000 0.0000 0.0000 9.1537 0.0000 0.0000
# 5 0.0000 0.0000 0.0000 0.0000 28.5256 0.0000
# 6 0.0000 0.0000 0.0000 0.0000 0.0000 21.6902
#
#
#
# Elastic Compliance Matrix: (Units=1/GPa)
#
#
# Indices 1 2 3 4 5 6 
#
# 1 0.015661 -0.002809 -0.007225 0.000000 0.000000 0.000000
# 2 -0.002809 0.011411 -0.003597 0.000000 0.000000 0.000000
# 3 -0.007225 -0.003597 0.013879 0.000000 0.000000 0.000000
# 4 0.000000 0.000000 0.000000 0.109245 0.000000 0.000000
# 5 0.000000 0.000000 0.000000 0.000000 0.035056 0.000000
# 6 0.000000 0.000000 0.000000 0.000000 0.000000 0.046104
#
#
# Mechanical properties :
#
#
# Convention : Reuss Voigt Hill
#
# Bulk Modulus (GPa) = 73.06110 73.98539 73.52324
# Shear Modulus (GPa) = 18.99836 23.42979 21.21407
#
# Velocity S-wave (km/s) = 3.33313 3.70151 3.52214
# Velocity P-wave (km/s) = 7.58534 7.84431 7.71591
#
# Compressibility (1/GPa) = 0.01368717
#
# Stress axis : x y z
#
# Youngs Moduli (GPa) = 63.85407 87.63650 72.05249
#
# Poissons Ratio (x) = 0.24614 0.52061
# Poissons Ratio (y) = 0.17934 0.25921
# Poissons Ratio (z) = 0.46137 0.31527
#
# Static dielectric constant tensor:
#      x y z
#    x 3.321540 0.000000 0.000000 
#    y 0.000000 3.020170 0.000000 
#    z 0.000000 0.000000 3.756280 
# 
# 
# High freq. dielectric constant tensor:
#      x y z
#    x 1.667900 0.000000 0.000000 
#    y 0.000000 1.629980 0.000000 
#    z 0.000000 0.000000 1.668430 
# 
# From -- ./inp_files/59677.got.cif
#   From: 2010.03.12/outbox.cif.g09.slc.cpg/sg65_30_cif.got.tgz:59677.got - 2010.04.10 20:52:16.
