data_PCOD8266594
_publ_section_title
;
Structure prediction by ZEFSAII (Michael W. Deem and Ramdas Pophale) SiO2 
 PCOD8266594
Probable space group: C M M M
;
_chemical_formula_sum "Si O2"
_cell_formula_units_Z 72
_cell_length_a 18.138850
_cell_length_b 10.219083
_cell_length_c 22.118472
_cell_angle_alpha 90.000000
_cell_angle_beta 90.000000
_cell_angle_gamma 90.000000
_cell_volume 4099.933357
_symmetry_space_group_name_H-M "C M M M"
_symmetry_group_IT_number 65
_symmetry_cell_setting 'orthorhombic'
loop_
_space_group_symop_operation_xyz
x,y,z
-x,-y,z
x,-y,-z
-x,y,-z
-x,-y,-z
x,y,-z
-x,y,z
x,-y,z
1/2+x,1/2+y,z
1/2-x,1/2-y,z
1/2+x,1/2-y,-z
1/2-x,1/2+y,-z
1/2-x,1/2-y,-z
1/2+x,1/2+y,-z
1/2-x,1/2+y,z
1/2+x,1/2-y,z
loop_
_atom_site_type_symbol
_atom_site_label
_atom_site_fract_x
_atom_site_fract_y
_atom_site_fract_z
Si Si1 0.914554 0.348259 0.255909
Si Si2 0.182125 0.650246 0.631197
Si Si3 0.662484 0.751318 0.858670
Si Si4 0.312684 0.145312 0.500000
Si Si5 0.664101 0.000000 0.067207
Si Si6 0.660849 0.500000 0.931858
O O1 0.901355 0.500000 0.239294
O O2 0.880608 0.313454 0.320939
O O3 0.875323 0.256877 0.206578
O O4 0.000000 0.312694 0.258406
O O5 0.209697 0.500000 0.641258
O O6 0.250000 0.750000 0.639129
O O7 0.144254 0.663869 0.563916
O O8 0.750000 0.750000 0.848999
O O9 0.635306 0.873420 0.898018
O O10 0.633565 0.625476 0.894767
O O11 0.250000 0.250000 0.500000
O O12 0.277329 0.000000 0.500000
O O13 0.751693 0.000000 0.063514
O O14 0.630341 0.000000 0.000000
O O15 0.627698 0.500000 0.000000
#
# Coordination Sequence:
#
# PCOD8266594 Si02
#       6
#    16  16  16   8   8   8
#     4  10  20  34  50  69  98 134 170 205 241 283
#     4   9  17  31  52  77 102 130 164 203 244 288
#     4  10  18  31  51  74  98 126 161 199 245 294
#     4   8  14  26  47  75 103 127 157 198 244 288
#     4   9  16  28  49  75  99 122 155 198 241 293
#     4   9  18  30  49  77 101 120 151 204 257 293
#
# _framework density 17.561260000000001
#
# number of rings (size 3 to 8) (size 9 to 14) (size 15 to 20)
#    0.000    2.667    1.111    1.333    0.000    2.667 
#    2.000    1.111    0.000    7.333    0.000    0.000 
#    0.000    8.889    0.000    0.000    0.000    0.000 
#
# Total GULP energy -446117.191703 kJ/mol
# GULP energy per Si atom -12392.144214 kJ/mol
# Density = 1.752129 g / cm^3
# Si number density = 17.561260 Si / 1000 Ang^3
#
#
#
# Elastic Constant Matrix: (Units=GPa)
#
#
# Indices 1 2 3 4 5 6 
#
# 1 56.3793 31.0293 55.6745 0.0000 0.0000 0.0000
# 2 31.0293 110.2026 70.3078 0.0000 0.0000 0.0000
# 3 55.6745 70.3078 191.4813 0.0000 0.0000 0.0000
# 4 0.0000 0.0000 0.0000 28.8351 0.0000 0.0000
# 5 0.0000 0.0000 0.0000 0.0000 4.0592 0.0000
# 6 0.0000 0.0000 0.0000 0.0000 0.0000 12.5715
#
#
#
# Elastic Compliance Matrix: (Units=1/GPa)
#
#
# Indices 1 2 3 4 5 6 
#
# 1 0.025731 -0.003228 -0.006296 0.000000 0.000000 0.000000
# 2 -0.003228 0.012255 -0.003561 0.000000 0.000000 0.000000
# 3 -0.006296 -0.003561 0.008361 0.000000 0.000000 0.000000
# 4 0.000000 0.000000 0.000000 0.034680 0.000000 0.000000
# 5 0.000000 0.000000 0.000000 0.000000 0.246355 0.000000
# 6 0.000000 0.000000 0.000000 0.000000 0.000000 0.079545
#
#
# Mechanical properties :
#
#
# Convention : Reuss Voigt Hill
#
# Bulk Modulus (GPa) = 49.56411 74.67625 62.12018
# Shear Modulus (GPa) = 11.36819 22.49660 16.93240
#
# Velocity S-wave (km/s) = 2.54706 3.58304 3.10851
# Velocity P-wave (km/s) = 6.07740 7.72872 6.95227
#
# Compressibility (1/GPa) = 0.02017589
#
# Stress axis : x y z
#
# Youngs Moduli (GPa) = 38.86345 81.59847 119.60714
#
# Poissons Ratio (x) = 0.26341 0.75307
# Poissons Ratio (y) = 0.12546 0.42595
# Poissons Ratio (z) = 0.24469 0.29059
#
# Static dielectric constant tensor:
#      x y z
#    x 2.744460 0.000000 0.000000 
#    y 0.000000 3.369000 0.000000 
#    z 0.000000 0.000000 3.751390 
# 
# 
# High freq. dielectric constant tensor:
#      x y z
#    x 1.619840 0.000000 0.000000 
#    y 0.000000 1.681450 0.000000 
#    z 0.000000 0.000000 1.706100 
# 
# From -- ./inp_files/51289.got.cif
#   From: 2010.03.12/outbox.cif.g09.slc.cpg/sg65_26_cif.got.tgz:51289.got - 2010.04.10 20:52:16.
