data_PCOD8266967
_publ_section_title
;
Structure prediction by ZEFSAII (Michael W. Deem and Ramdas Pophale) SiO2 
 PCOD8266967
Probable space group: C M M M
;
_chemical_formula_sum "Si O2"
_cell_formula_units_Z 120
_cell_length_a 17.877863
_cell_length_b 20.770563
_cell_length_c 19.111400
_cell_angle_alpha 90.000000
_cell_angle_beta 90.000000
_cell_angle_gamma 90.000000
_cell_volume 7096.698843
_symmetry_space_group_name_H-M "C M M M"
_symmetry_group_IT_number 65
_symmetry_cell_setting 'orthorhombic'
loop_
_space_group_symop_operation_xyz
x,y,z
-x,-y,z
x,-y,-z
-x,y,-z
-x,-y,-z
x,y,-z
-x,y,z
x,-y,z
1/2+x,1/2+y,z
1/2-x,1/2-y,z
1/2+x,1/2-y,-z
1/2-x,1/2+y,-z
1/2-x,1/2-y,-z
1/2+x,1/2+y,-z
1/2-x,1/2+y,z
1/2+x,1/2-y,z
loop_
_atom_site_type_symbol
_atom_site_label
_atom_site_fract_x
_atom_site_fract_y
_atom_site_fract_z
Si Si1 0.914533 0.137479 0.306152
Si Si2 0.209094 0.315941 0.419557
Si Si3 0.869900 0.856221 0.845360
Si Si4 0.774503 0.323655 0.079317
Si Si5 0.084377 0.715282 0.320181
Si Si6 0.674051 0.426746 0.579217
Si Si7 0.085550 0.710733 0.159305
Si Si8 0.000000 0.924515 0.077613
O O1 0.864304 0.127145 0.237038
O O2 0.903865 0.209241 0.335500
O O3 0.892776 0.087538 0.366926
O O4 0.000000 0.125402 0.283970
O O5 0.183978 0.312573 0.500000
O O6 0.250000 0.250000 0.397502
O O7 0.136498 0.325246 0.371723
O O8 0.259032 0.378111 0.404020
O O9 0.786844 0.864079 0.877375
O O10 0.904362 0.785732 0.857649
O O11 0.924681 0.905359 0.882875
O O12 0.750000 0.250000 0.081634
O O13 0.856754 0.331671 0.113652
O O14 0.778022 0.349488 0.000000
O O15 0.104384 0.698440 0.240365
O O16 0.000000 0.694686 0.336900
O O17 0.644600 0.415830 0.500000
O O18 0.702060 0.500000 0.589160
O O19 0.000000 0.690990 0.141394
O O20 0.000000 0.000000 0.071898
O O21 0.000000 0.893288 0.000000
#
# Coordination Sequence:
#
# PCOD8266967 Si02
#       8
#    16  16  16  16  16  16  16   8
#     4  10  19  32  51  74  98 135 175 204 250 308
#     4  10  19  32  52  75  98 133 172 208 254 303
#     4  10  18  34  48  67  98 132 169 212 249 295
#     4   9  18  28  44  71  97 129 168 201 245 304
#     4   9  18  30  49  75 102 128 165 211 254 303
#     4  10  22  37  51  73 105 138 172 211 256 304
#     4   9  17  30  47  72 101 133 162 197 257 312
#     4  11  22  34  50  68  93 137 181 215 251 290
#
# _framework density 16.909269999999999
#
# number of rings (size 3 to 8) (size 9 to 14) (size 15 to 20)
#    0.000    2.333    2.667    1.200    1.867    2.667 
#    0.000    2.000    0.000    0.400    0.000    1.867 
#    0.000    0.533    0.000    2.800    0.000    0.000 
#
# Total GULP energy -744000.391869 kJ/mol
# GULP energy per Si atom -12400.006531 kJ/mol
# Density = 1.687078 g / cm^3
# Si number density = 16.909270 Si / 1000 Ang^3
#
#
#
# Elastic Constant Matrix: (Units=GPa)
#
#
# Indices 1 2 3 4 5 6 
#
# 1 116.0894 30.4832 67.2019 0.0000 0.0000 0.0000
# 2 30.4832 51.8280 31.3603 0.0000 0.0000 0.0000
# 3 67.2019 31.3603 101.5752 0.0000 0.0000 0.0000
# 4 0.0000 0.0000 0.0000 17.3139 0.0000 0.0000
# 5 0.0000 0.0000 0.0000 0.0000 28.9331 0.0000
# 6 0.0000 0.0000 0.0000 0.0000 0.0000 18.2068
#
#
#
# Elastic Compliance Matrix: (Units=1/GPa)
#
#
# Indices 1 2 3 4 5 6 
#
# 1 0.014413 -0.003329 -0.008508 0.000000 0.000000 0.000000
# 2 -0.003329 0.024496 -0.005360 0.000000 0.000000 0.000000
# 3 -0.008508 -0.005360 0.017129 0.000000 0.000000 0.000000
# 4 0.000000 0.000000 0.000000 0.057757 0.000000 0.000000
# 5 0.000000 0.000000 0.000000 0.000000 0.034563 0.000000
# 6 0.000000 0.000000 0.000000 0.000000 0.000000 0.054925
#
#
# Mechanical properties :
#
#
# Convention : Reuss Voigt Hill
#
# Bulk Modulus (GPa) = 46.20403 58.62038 52.41220
# Shear Modulus (GPa) = 20.41717 22.25389 21.33553
#
# Velocity S-wave (km/s) = 3.47861 3.63171 3.55599
# Velocity P-wave (km/s) = 6.59684 7.23385 6.92268
#
# Compressibility (1/GPa) = 0.02164313
#
# Stress axis : x y z
#
# Youngs Moduli (GPa) = 69.37999 40.82265 58.38154
#
# Poissons Ratio (x) = 0.13591 0.49671
# Poissons Ratio (y) = 0.23099 0.31294
# Poissons Ratio (z) = 0.59028 0.21882
#
# Static dielectric constant tensor:
#      x y z
#    x 3.174880 0.000000 0.000000 
#    y 0.000000 2.813070 0.000000 
#    z 0.000000 0.000000 3.297740 
# 
# 
# High freq. dielectric constant tensor:
#      x y z
#    x 1.649400 0.000000 0.000000 
#    y 0.000000 1.601770 0.000000 
#    z 0.000000 0.000000 1.665850 
# 
# From -- ./inp_files/54982.got.cif
#   From: 2010.03.12/outbox.cif.g09.slc.cpg/sg65_28_cif.got.tgz:54982.got - 2010.04.10 20:52:16.
