data_PCOD8266610
_publ_section_title
;
Structure prediction by ZEFSAII (Michael W. Deem and Ramdas Pophale) SiO2 
 PCOD8266610
Probable space group: C M M M
;
_chemical_formula_sum "Si O2"
_cell_formula_units_Z 88
_cell_length_a 28.868361
_cell_length_b 8.688816
_cell_length_c 18.222798
_cell_angle_alpha 90.000000
_cell_angle_beta 90.000000
_cell_angle_gamma 90.000000
_cell_volume 4570.858626
_symmetry_space_group_name_H-M "C M M M"
_symmetry_group_IT_number 65
_symmetry_cell_setting 'orthorhombic'
loop_
_space_group_symop_operation_xyz
x,y,z
-x,-y,z
x,-y,-z
-x,y,-z
-x,-y,-z
x,y,-z
-x,y,z
x,-y,z
1/2+x,1/2+y,z
1/2-x,1/2-y,z
1/2+x,1/2-y,-z
1/2-x,1/2+y,-z
1/2-x,1/2-y,-z
1/2+x,1/2+y,-z
1/2-x,1/2+y,z
1/2+x,1/2-y,z
loop_
_atom_site_type_symbol
_atom_site_label
_atom_site_fract_x
_atom_site_fract_y
_atom_site_fract_z
Si Si1 0.947166 0.183777 0.500000
Si Si2 0.448185 0.683104 0.786241
Si Si3 0.202437 0.181510 0.305847
Si Si4 0.384727 0.322143 0.082489
Si Si5 0.297356 0.180946 0.146430
Si Si6 0.895767 0.817778 0.356559
O O1 0.920667 0.250149 0.571337
O O2 0.000000 0.243676 0.500000
O O3 0.946236 0.000000 0.500000
O O4 0.500000 0.751268 0.785427
O O5 0.449717 0.500000 0.783174
O O6 0.423423 0.738597 0.860905
O O7 0.420636 0.749648 0.715973
O O8 0.250000 0.250000 0.339548
O O9 0.192298 0.246525 0.225530
O O10 0.158718 0.227389 0.356919
O O11 0.207928 0.000000 0.299531
O O12 0.372772 0.500000 0.098537
O O13 0.338345 0.223061 0.091190
O O14 0.403821 0.299629 0.000000
O O15 0.250000 0.250000 0.113575
O O16 0.292270 0.000000 0.154875
O O17 0.901198 0.000000 0.355960
#
# Coordination Sequence:
#
# PCOD8266610 Si02
#       6
#     8  16  16  16  16  16
#     4   9  16  26  43  74 111 141 169 207 262 311
#     4   9  16  28  48  73 100 132 172 215 258 301
#     4  10  18  31  51  76 106 137 173 213 257 307
#     4  10  20  34  51  74 106 138 171 214 260 308
#     4  11  21  34  54  77 103 135 173 216 262 311
#     4   9  16  27  46  72 106 139 168 210 257 304
#
# _framework density 19.252400000000002
#
# number of rings (size 3 to 8) (size 9 to 14) (size 15 to 20)
#    0.000    2.273    1.818    3.818    0.000    3.273 
#    0.000    2.273    0.000    0.545    0.000    3.182 
#    0.000    2.909    0.000    0.000    0.000    0.000 
#
# Total GULP energy -545537.774956 kJ/mol
# GULP energy per Si atom -12398.585794 kJ/mol
# Density = 1.920858 g / cm^3
# Si number density = 19.252400 Si / 1000 Ang^3
#
#
#
# Elastic Constant Matrix: (Units=GPa)
#
#
# Indices 1 2 3 4 5 6 
#
# 1 175.6302 33.4228 89.4352 0.0000 0.0000 0.0000
# 2 33.4228 56.9242 19.5973 0.0000 0.0000 0.0000
# 3 89.4352 19.5973 139.8148 0.0000 0.0000 0.0000
# 4 0.0000 0.0000 0.0000 10.6165 0.0000 0.0000
# 5 0.0000 0.0000 0.0000 0.0000 30.3118 0.0000
# 6 0.0000 0.0000 0.0000 0.0000 0.0000 19.9945
#
#
#
# Elastic Compliance Matrix: (Units=1/GPa)
#
#
# Indices 1 2 3 4 5 6 
#
# 1 0.009061 -0.003493 -0.005306 0.000000 0.000000 0.000000
# 2 -0.003493 0.019805 -0.000541 0.000000 0.000000 0.000000
# 3 -0.005306 -0.000541 0.010622 0.000000 0.000000 0.000000
# 4 0.000000 0.000000 0.000000 0.094193 0.000000 0.000000
# 5 0.000000 0.000000 0.000000 0.000000 0.032990 0.000000
# 6 0.000000 0.000000 0.000000 0.000000 0.000000 0.050014
#
#
# Mechanical properties :
#
#
# Convention : Reuss Voigt Hill
#
# Bulk Modulus (GPa) = 48.06296 73.03107 60.54702
# Shear Modulus (GPa) = 20.63542 27.51216 24.07379
#
# Velocity S-wave (km/s) = 3.27744 3.78435 3.53998
# Velocity P-wave (km/s) = 6.27224 7.55717 6.94449
#
# Compressibility (1/GPa) = 0.02080604
#
# Stress axis : x y z
#
# Youngs Moduli (GPa) = 110.36872 50.49335 94.14079
#
# Poissons Ratio (x) = 0.17638 0.49952
# Poissons Ratio (y) = 0.38553 0.05098
# Poissons Ratio (z) = 0.58563 0.02734
#
# Static dielectric constant tensor:
#      x y z
#    x 3.821170 0.000000 0.000000 
#    y 0.000000 3.048020 0.000000 
#    z 0.000000 0.000000 3.511890 
# 
# 
# High freq. dielectric constant tensor:
#      x y z
#    x 1.763560 0.000000 0.000000 
#    y 0.000000 1.700440 0.000000 
#    z 0.000000 0.000000 1.736850 
# 
# From -- ./inp_files/50424.got.cif
#   From: 2010.03.12/outbox.cif.g09.slc.cpg/sg65_26_cif.got.tgz:50424.got - 2010.04.10 20:52:16.
