data_PCOD8266548
_publ_section_title
;
Structure prediction by ZEFSAII (Michael W. Deem and Ramdas Pophale) SiO2 
 PCOD8266548
Probable space group: C M M M
;
_chemical_formula_sum "Si O2"
_cell_formula_units_Z 88
_cell_length_a 16.105036
_cell_length_b 16.650596
_cell_length_c 18.469507
_cell_angle_alpha 90.000000
_cell_angle_beta 90.000000
_cell_angle_gamma 90.000000
_cell_volume 4952.754332
_symmetry_space_group_name_H-M "C M M M"
_symmetry_group_IT_number 65
_symmetry_cell_setting 'orthorhombic'
loop_
_space_group_symop_operation_xyz
x,y,z
-x,-y,z
x,-y,-z
-x,y,-z
-x,-y,-z
x,y,-z
-x,y,z
x,-y,z
1/2+x,1/2+y,z
1/2-x,1/2-y,z
1/2+x,1/2-y,-z
1/2-x,1/2+y,-z
1/2-x,1/2-y,-z
1/2+x,1/2+y,-z
1/2-x,1/2+y,z
1/2+x,1/2-y,z
loop_
_atom_site_type_symbol
_atom_site_label
_atom_site_fract_x
_atom_site_fract_y
_atom_site_fract_z
Si Si1 0.677190 0.406071 0.758001
Si Si2 0.500000 0.209214 0.080384
Si Si3 0.401035 0.408406 0.500000
Si Si4 0.835091 0.777350 0.866209
Si Si5 0.404369 0.686244 0.360157
Si Si6 0.655341 0.170441 0.723836
Si Si7 0.000000 0.591917 0.215604
O O1 0.671373 0.500000 0.767704
O O2 0.671364 0.369699 0.839463
O O3 0.602173 0.373870 0.708380
O O4 0.761465 0.381247 0.715612
O O5 0.582420 0.264527 0.086472
O O6 0.500000 0.140185 0.140191
O O7 0.500000 0.170782 0.000000
O O8 0.365728 0.500000 0.500000
O O9 0.500000 0.412495 0.500000
O O10 0.368132 0.359547 0.569738
O O11 0.750000 0.750000 0.908221
O O12 0.839227 0.725485 0.793859
O O13 0.500000 0.708675 0.371184
O O14 0.356059 0.770334 0.345189
O O15 0.578717 0.110359 0.734122
O O16 0.000000 0.500000 0.192180
#
# Coordination Sequence:
#
# PCOD8266548 Si02
#       7
#    16   8   8  16  16  16   8
#     4  10  19  30  49  75 101 126 164 215 258 294
#     4  10  20  33  51  74 101 135 173 205 243 307
#     4   9  18  30  45  70 104 137 172 214 254 294
#     4   8  17  32  49  69  98 132 167 208 253 302
#     4  10  18  31  49  71  99 133 167 203 252 308
#     4   9  17  32  49  73  99 126 165 205 252 306
#     4  10  18  31  54  76 100 127 157 207 257 295
#
# _framework density 17.767890999999999
#
# number of rings (size 3 to 8) (size 9 to 14) (size 15 to 20)
#    0.000    2.636    0.909    2.727    3.818    1.636 
#    0.000    1.818    0.000    1.091    0.000    2.545 
#    0.000    0.000    0.000    0.000    0.000    0.000 
#
# Total GULP energy -545330.632041 kJ/mol
# GULP energy per Si atom -12393.878001 kJ/mol
# Density = 1.772745 g / cm^3
# Si number density = 17.767891 Si / 1000 Ang^3
#
#
#
# Elastic Constant Matrix: (Units=GPa)
#
#
# Indices 1 2 3 4 5 6 
#
# 1 83.4098 20.5483 13.9269 0.0000 0.0000 0.0000
# 2 20.5483 111.9369 27.7846 0.0000 0.0000 0.0000
# 3 13.9269 27.7846 65.1522 0.0000 0.0000 0.0000
# 4 0.0000 0.0000 0.0000 16.0233 0.0000 0.0000
# 5 0.0000 0.0000 0.0000 0.0000 8.0855 0.0000
# 6 0.0000 0.0000 0.0000 0.0000 0.0000 21.8536
#
#
#
# Elastic Compliance Matrix: (Units=1/GPa)
#
#
# Indices 1 2 3 4 5 6 
#
# 1 0.012771 -0.001864 -0.001935 0.000000 0.000000 0.000000
# 2 -0.001864 0.010263 -0.003978 0.000000 0.000000 0.000000
# 3 -0.001935 -0.003978 0.017459 0.000000 0.000000 0.000000
# 4 0.000000 0.000000 0.000000 0.062409 0.000000 0.000000
# 5 0.000000 0.000000 0.000000 0.000000 0.123679 0.000000
# 6 0.000000 0.000000 0.000000 0.000000 0.000000 0.045759
#
#
# Mechanical properties :
#
#
# Convention : Reuss Voigt Hill
#
# Bulk Modulus (GPa) = 40.09871 42.77985 41.43928
# Shear Modulus (GPa) = 16.88002 22.40841 19.64421
#
# Velocity S-wave (km/s) = 3.08560 3.55515 3.32867
# Velocity P-wave (km/s) = 5.94236 6.40168 6.17629
#
# Compressibility (1/GPa) = 0.02493846
#
# Stress axis : x y z
#
# Youngs Moduli (GPa) = 78.30045 97.43446 57.27736
#
# Poissons Ratio (x) = 0.18163 0.11083
# Poissons Ratio (y) = 0.14596 0.22787
# Poissons Ratio (z) = 0.15151 0.38763
#
# Static dielectric constant tensor:
#      x y z
#    x 3.758520 0.000000 0.000000 
#    y 0.000000 3.284690 0.000000 
#    z 0.000000 0.000000 3.054850 
# 
# 
# High freq. dielectric constant tensor:
#      x y z
#    x 1.695020 0.000000 0.000000 
#    y 0.000000 1.676720 0.000000 
#    z 0.000000 0.000000 1.649970 
# 
# From -- ./inp_files/54379.got.cif
#   From: 2010.03.12/outbox.cif.g09.slc.cpg/sg65_28_cif.got.tgz:54379.got - 2010.04.10 20:52:16.
