data_PCOD8266824
_publ_section_title
;
Structure prediction by ZEFSAII (Michael W. Deem and Ramdas Pophale) SiO2 
 PCOD8266824
Probable space group: C M M M
;
_chemical_formula_sum "Si O2"
_cell_formula_units_Z 96
_cell_length_a 14.401670
_cell_length_b 27.150739
_cell_length_c 13.489170
_cell_angle_alpha 90.000000
_cell_angle_beta 90.000000
_cell_angle_gamma 90.000000
_cell_volume 5274.481072
_symmetry_space_group_name_H-M "C M M M"
_symmetry_group_IT_number 65
_symmetry_cell_setting 'orthorhombic'
loop_
_space_group_symop_operation_xyz
x,y,z
-x,-y,z
x,-y,-z
-x,y,-z
-x,-y,-z
x,y,-z
-x,y,z
x,-y,z
1/2+x,1/2+y,z
1/2-x,1/2-y,z
1/2+x,1/2-y,-z
1/2-x,1/2+y,-z
1/2-x,1/2-y,-z
1/2+x,1/2+y,-z
1/2-x,1/2+y,z
1/2+x,1/2-y,z
loop_
_atom_site_type_symbol
_atom_site_label
_atom_site_fract_x
_atom_site_fract_y
_atom_site_fract_z
Si Si1 0.761163 0.308460 0.113277
Si Si2 0.100490 0.086627 0.611791
Si Si3 0.108183 0.737142 0.608477
Si Si4 0.199877 0.554978 0.614033
Si Si5 0.896015 0.820042 0.749710
Si Si6 0.608149 0.857018 0.270961
O O1 0.750000 0.250000 0.124375
O O2 0.664859 0.331072 0.153401
O O3 0.845995 0.333259 0.173100
O O4 0.775619 0.324153 0.000000
O O5 0.104468 0.106914 0.500000
O O6 0.188646 0.051860 0.631598
O O7 0.106930 0.132967 0.681719
O O8 0.000000 0.059562 0.629539
O O9 0.153577 0.744472 0.500000
O O10 0.151830 0.775098 0.687914
O O11 0.123988 0.680942 0.639670
O O12 0.000000 0.750166 0.603563
O O13 0.177449 0.570525 0.500000
O O14 0.161197 0.500000 0.634219
O O15 0.153186 0.591779 0.692854
O O16 0.000000 0.806722 0.784939
O O17 0.500000 0.865656 0.247442
#
# Coordination Sequence:
#
# PCOD8266824 Si02
#       6
#    16  16  16  16  16  16
#     4  11  23  38  56  81 110 142 186 232 278 332
#     4   9  17  30  52  83 118 150 178 214 264 330
#     4   9  17  29  48  76 109 144 178 212 256 320
#     4  10  21  36  56  84 116 150 189 232 281 337
#     4  10  18  32  53  80 112 142 175 216 266 329
#     4  11  22  38  56  77 108 147 193 237 281 329
#
# _framework density 18.200844
#
# number of rings (size 3 to 8) (size 9 to 14) (size 15 to 20)
#    0.000    2.000    3.333    1.000    0.000    4.333 
#    0.000    5.000    0.000    0.500    0.000    1.167 
#    0.000    2.667    0.000    0.000    0.000    0.000 
#
# Total GULP energy -594852.445245 kJ/mol
# GULP energy per Si atom -12392.759276 kJ/mol
# Density = 1.815942 g / cm^3
# Si number density = 18.200844 Si / 1000 Ang^3
#
#
#
# Elastic Constant Matrix: (Units=GPa)
#
#
# Indices 1 2 3 4 5 6 
#
# 1 107.6848 32.5825 56.8198 0.0000 0.0000 0.0000
# 2 32.5825 76.7785 37.3293 0.0000 0.0000 0.0000
# 3 56.8198 37.3293 111.1080 0.0000 0.0000 0.0000
# 4 0.0000 0.0000 0.0000 -3.8951 0.0000 0.0000
# 5 0.0000 0.0000 0.0000 0.0000 17.2934 0.0000
# 6 0.0000 0.0000 0.0000 0.0000 0.0000 18.5613
#
#
#
# Elastic Compliance Matrix: (Units=1/GPa)
#
#
# Indices 1 2 3 4 5 6 
#
# 1 0.013194 -0.002771 -0.005816 0.000000 0.000000 0.000000
# 2 -0.002771 0.016149 -0.004009 0.000000 0.000000 0.000000
# 3 -0.005816 -0.004009 0.013321 0.000000 0.000000 0.000000
# 4 0.000000 0.000000 0.000000 -0.256732 0.000000 0.000000
# 5 0.000000 0.000000 0.000000 0.000000 0.057826 0.000000
# 6 0.000000 0.000000 0.000000 0.000000 0.000000 0.053876
#
#
# Mechanical properties :
#
#
# Convention : Reuss Voigt Hill
#
# Bulk Modulus (GPa) = 57.23236 61.00383 59.11809
# Shear Modulus (GPa) = -70.07698 17.64789 -26.21455
#
# Velocity S-wave (km/s) = -6.21173 3.11725 -3.79924
# Velocity P-wave (km/s) = 4.46479 6.82247 3.64772
#
# Compressibility (1/GPa) = 0.01747263
#
# Stress axis : x y z
#
# Youngs Moduli (GPa) = 75.79352 61.92155 75.06751
#
# Poissons Ratio (x) = 0.17160 0.43660
# Poissons Ratio (y) = 0.21004 0.30091
# Poissons Ratio (z) = 0.44082 0.24822
#
# Static dielectric constant tensor:
#      x y z
#    x 3.674370 0.000000 0.000000 
#    y 0.000000 3.177080 0.000000 
#    z 0.000000 0.000000 3.217100 
# 
# 
# High freq. dielectric constant tensor:
#      x y z
#    x 1.716020 0.000000 0.000000 
#    y 0.000000 1.685890 0.000000 
#    z 0.000000 0.000000 1.679470 
# 
# From -- ./inp_files/27363.got.cif
#   From: 2010.03.12/outbox.cif.g09.slc.cpg/sg65_14_cif.got.tgz:27363.got - 2010.04.10 20:52:16.
