data_PCOD8266410
_publ_section_title
;
Structure prediction by ZEFSAII (Michael W. Deem and Ramdas Pophale) SiO2 
 PCOD8266410
Probable space group: C M M M
;
_chemical_formula_sum "Si O2"
_cell_formula_units_Z 104
_cell_length_a 9.159234
_cell_length_b 23.568524
_cell_length_c 27.423329
_cell_angle_alpha 90.000000
_cell_angle_beta 90.000000
_cell_angle_gamma 90.000000
_cell_volume 5919.863785
_symmetry_space_group_name_H-M "C M M M"
_symmetry_group_IT_number 65
_symmetry_cell_setting 'orthorhombic'
loop_
_space_group_symop_operation_xyz
x,y,z
-x,-y,z
x,-y,-z
-x,y,-z
-x,-y,-z
x,y,-z
-x,y,z
x,-y,z
1/2+x,1/2+y,z
1/2-x,1/2-y,z
1/2+x,1/2-y,-z
1/2-x,1/2+y,-z
1/2-x,1/2-y,-z
1/2+x,1/2+y,-z
1/2-x,1/2+y,z
1/2+x,1/2-y,z
loop_
_atom_site_type_symbol
_atom_site_label
_atom_site_fract_x
_atom_site_fract_y
_atom_site_fract_z
Si Si1 0.336122 0.432597 0.000000
Si Si2 0.828502 0.385792 0.803223
Si Si3 0.338657 0.500000 0.661807
Si Si4 0.329798 0.192910 0.444366
Si Si5 0.168818 0.434893 0.094620
Si Si6 0.672317 0.309154 0.270482
Si Si7 0.335589 0.623743 0.631934
Si Si8 0.170835 0.500000 0.243740
O O1 0.257413 0.410443 0.048699
O O2 0.330234 0.500000 0.000000
O O3 0.500000 0.409020 0.000000
O O4 0.799237 0.391771 0.860935
O O5 0.738890 0.333875 0.779823
O O6 0.764219 0.443484 0.780148
O O7 0.000000 0.377082 0.792051
O O8 0.500000 0.500000 0.687191
O O9 0.322752 0.555921 0.629271
O O10 0.208298 0.500000 0.699861
O O11 0.291512 0.176723 0.500000
O O12 0.500000 0.202440 0.436858
O O13 0.250000 0.250000 0.428117
O O14 0.275479 0.143531 0.409328
O O15 0.213328 0.500000 0.108241
O O16 0.000000 0.433776 0.080336
O O17 0.500000 0.299761 0.263645
O O18 0.750000 0.250000 0.282833
O O19 0.707695 0.352286 0.314763
O O20 0.500000 0.643644 0.619264
O O21 0.000000 0.500000 0.234454
#
# Coordination Sequence:
#
# PCOD8266410 Si02
#       8
#     8  16   8  16  16  16  16   8
#     4   9  17  27  39  63  98 133 170 211 253 298
#     4  10  19  32  51  76 104 135 174 213 254 306
#     4  10  20  36  53  77 109 140 174 210 250 304
#     4  10  21  37  58  82 106 134 172 218 264 308
#     4   9  16  28  46  68  97 134 171 207 250 302
#     4  11  23  37  53  75 104 137 173 214 259 304
#     4  10  21  36  56  80 107 139 173 210 254 306
#     4  10  18  30  50  76 104 136 173 211 251 300
#
# _framework density 17.567971
#
# number of rings (size 3 to 8) (size 9 to 14) (size 15 to 20)
#    0.000    2.077    2.308    1.615    0.000    5.538 
#    0.000    0.385    0.000    2.308    0.000    0.538 
#    0.000    0.000    0.000    0.000    0.000    0.000 
#
# Total GULP energy -644788.284133 kJ/mol
# GULP energy per Si atom -12399.774695 kJ/mol
# Density = 1.752799 g / cm^3
# Si number density = 17.567971 Si / 1000 Ang^3
#
#
#
# Elastic Constant Matrix: (Units=GPa)
#
#
# Indices 1 2 3 4 5 6 
#
# 1 76.6994 40.2191 50.9093 0.0000 0.0000 0.0000
# 2 40.2191 90.6864 41.3389 0.0000 0.0000 0.0000
# 3 50.9093 41.3389 98.5622 0.0000 0.0000 0.0000
# 4 0.0000 0.0000 0.0000 20.8531 0.0000 0.0000
# 5 0.0000 0.0000 0.0000 0.0000 29.8361 0.0000
# 6 0.0000 0.0000 0.0000 0.0000 0.0000 24.8964
#
#
#
# Elastic Compliance Matrix: (Units=1/GPa)
#
#
# Indices 1 2 3 4 5 6 
#
# 1 0.021954 -0.005647 -0.008971 0.000000 0.000000 0.000000
# 2 -0.005647 0.015086 -0.003411 0.000000 0.000000 0.000000
# 3 -0.008971 -0.003411 0.016210 0.000000 0.000000 0.000000
# 4 0.000000 0.000000 0.000000 0.047954 0.000000 0.000000
# 5 0.000000 0.000000 0.000000 0.000000 0.033516 0.000000
# 6 0.000000 0.000000 0.000000 0.000000 0.000000 0.040167
#
#
# Mechanical properties :
#
#
# Convention : Reuss Voigt Hill
#
# Bulk Modulus (GPa) = 58.16473 58.98695 58.57584
# Shear Modulus (GPa) = 23.07600 24.01581 23.54591
#
# Velocity S-wave (km/s) = 3.62819 3.70134 3.66495
# Velocity P-wave (km/s) = 7.12264 7.20527 7.16407
#
# Compressibility (1/GPa) = 0.01719255
#
# Stress axis : x y z
#
# Youngs Moduli (GPa) = 45.55072 66.28592 61.68999
#
# Poissons Ratio (x) = 0.37431 0.55342
# Poissons Ratio (y) = 0.25722 0.21040
# Poissons Ratio (z) = 0.40864 0.22608
#
# Static dielectric constant tensor:
#      x y z
#    x 3.276440 0.000000 0.000000 
#    y 0.000000 3.108600 0.000000 
#    z 0.000000 0.000000 3.206170 
# 
# 
# High freq. dielectric constant tensor:
#      x y z
#    x 1.681450 0.000000 0.000000 
#    y 0.000000 1.654650 0.000000 
#    z 0.000000 0.000000 1.674370 
# 
# From -- ./inp_files/73613.got.cif
#   From: 2010.03.12/outbox.cif.g09.slc.cpg/sg65_37_cif.got.tgz:73613.got - 2010.04.10 20:52:16.
