data_PCOD8266434
_publ_section_title
;
Structure prediction by ZEFSAII (Michael W. Deem and Ramdas Pophale) SiO2 
 PCOD8266434
Probable space group: C M M M
;
_chemical_formula_sum "Si O2"
_cell_formula_units_Z 72
_cell_length_a 8.765742
_cell_length_b 19.219150
_cell_length_c 23.608384
_cell_angle_alpha 90.000000
_cell_angle_beta 90.000000
_cell_angle_gamma 90.000000
_cell_volume 3977.307058
_symmetry_space_group_name_H-M "C M M M"
_symmetry_group_IT_number 65
_symmetry_cell_setting 'orthorhombic'
loop_
_space_group_symop_operation_xyz
x,y,z
-x,-y,z
x,-y,-z
-x,y,-z
-x,-y,-z
x,y,-z
-x,y,z
x,-y,z
1/2+x,1/2+y,z
1/2-x,1/2-y,z
1/2+x,1/2-y,-z
1/2-x,1/2+y,-z
1/2-x,1/2-y,-z
1/2+x,1/2+y,-z
1/2-x,1/2+y,z
1/2+x,1/2-y,z
loop_
_atom_site_type_symbol
_atom_site_label
_atom_site_fract_x
_atom_site_fract_y
_atom_site_fract_z
Si Si1 0.678337 0.674690 0.215944
Si Si2 0.181205 0.077626 0.562557
Si Si3 0.180816 0.326907 0.103573
Si Si4 0.181058 0.578830 0.000000
Si Si5 0.178468 0.825146 0.339835
O O1 0.500000 0.679617 0.202244
O O2 0.750000 0.750000 0.220509
O O3 0.762068 0.637954 0.162827
O O4 0.708338 0.639737 0.277626
O O5 0.228755 0.105354 0.500000
O O6 0.251590 0.126171 0.611610
O O7 0.000000 0.075873 0.567744
O O8 0.246152 0.000000 0.571265
O O9 0.250000 0.250000 0.094311
O O10 0.000000 0.319990 0.103568
O O11 0.239098 0.378899 0.054816
O O12 0.248106 0.500000 0.000000
O O13 0.000000 0.575121 0.000000
O O14 0.250000 0.750000 0.345481
O O15 0.000000 0.815793 0.349524
#
# Coordination Sequence:
#
# PCOD8266434 Si02
#       5
#    16  16  16   8  16
#     4   9  16  27  43  65  93 119 145 179 219 263
#     4   8  14  26  44  64  86 115 152 188 219 258
#     4  10  18  30  51  72  90 115 149 186 218 257
#     4   9  19  34  49  67  92 121 150 180 218 263
#     4   9  17  28  44  67  92 117 145 181 224 264
#
# _framework density 18.102702000000001
#
# number of rings (size 3 to 8) (size 9 to 14) (size 15 to 20)
#    0.000    3.000    0.000    3.667    0.000    1.333 
#    0.000    2.778    0.000    7.333    0.000    1.556 
#    0.000    0.000    0.000    0.000    0.000    0.000 
#
# Total GULP energy -445985.733317 kJ/mol
# GULP energy per Si atom -12388.492592 kJ/mol
# Density = 1.806150 g / cm^3
# Si number density = 18.102702 Si / 1000 Ang^3
#
#
#
# Elastic Constant Matrix: (Units=GPa)
#
#
# Indices 1 2 3 4 5 6 
#
# 1 46.7117 20.1647 36.8362 0.0000 0.0000 0.0000
# 2 20.1647 85.7260 84.2930 0.0000 0.0000 0.0000
# 3 36.8362 84.2930 205.2113 0.0000 0.0000 0.0000
# 4 0.0000 0.0000 0.0000 12.4736 0.0000 0.0000
# 5 0.0000 0.0000 0.0000 0.0000 12.0640 0.0000
# 6 0.0000 0.0000 0.0000 0.0000 0.0000 12.4985
#
#
#
# Elastic Compliance Matrix: (Units=1/GPa)
#
#
# Indices 1 2 3 4 5 6 
#
# 1 0.025250 -0.002487 -0.003511 0.000000 0.000000 0.000000
# 2 -0.002487 0.019814 -0.007692 0.000000 0.000000 0.000000
# 3 -0.003511 -0.007692 0.008663 0.000000 0.000000 0.000000
# 4 0.000000 0.000000 0.000000 0.080169 0.000000 0.000000
# 5 0.000000 0.000000 0.000000 0.000000 0.082891 0.000000
# 6 0.000000 0.000000 0.000000 0.000000 0.000000 0.080010
#
#
# Mechanical properties :
#
#
# Convention : Reuss Voigt Hill
#
# Bulk Modulus (GPa) = 37.95616 68.91518 53.43567
# Shear Modulus (GPa) = 15.01683 20.49758 17.75720
#
# Velocity S-wave (km/s) = 2.88329 3.36861 3.13535
# Velocity P-wave (km/s) = 5.66543 7.29943 6.53371
#
# Compressibility (1/GPa) = 0.02634618
#
# Stress axis : x y z
#
# Youngs Moduli (GPa) = 39.60367 50.46973 115.43432
#
# Poissons Ratio (x) = 0.12553 0.40527
# Poissons Ratio (y) = 0.09851 0.88796
# Poissons Ratio (z) = 0.13904 0.38823
#
# Static dielectric constant tensor:
#      x y z
#    x 3.084340 0.000000 0.000000 
#    y 0.000000 3.228730 0.000000 
#    z 0.000000 0.000000 4.308130 
# 
# 
# High freq. dielectric constant tensor:
#      x y z
#    x 1.674150 0.000000 0.000000 
#    y 0.000000 1.661780 0.000000 
#    z 0.000000 0.000000 1.729750 
# 
# From -- ./inp_files/67241.got.cif
#   From: 2010.03.12/outbox.cif.g09.slc.cpg/sg65_34_cif.got.tgz:67241.got - 2010.04.10 20:52:16.
