data_PCOD8266544
_publ_section_title
;
Structure prediction by ZEFSAII (Michael W. Deem and Ramdas Pophale) SiO2 
 PCOD8266544
Probable space group: C M M M
;
_chemical_formula_sum "Si O2"
_cell_formula_units_Z 112
_cell_length_a 21.012999
_cell_length_b 17.896474
_cell_length_c 16.816897
_cell_angle_alpha 90.000000
_cell_angle_beta 90.000000
_cell_angle_gamma 90.000000
_cell_volume 6324.138578
_symmetry_space_group_name_H-M "C M M M"
_symmetry_group_IT_number 65
_symmetry_cell_setting 'orthorhombic'
loop_
_space_group_symop_operation_xyz
x,y,z
-x,-y,z
x,-y,-z
-x,y,-z
-x,-y,-z
x,y,-z
-x,y,z
x,-y,z
1/2+x,1/2+y,z
1/2-x,1/2-y,z
1/2+x,1/2-y,-z
1/2-x,1/2+y,-z
1/2-x,1/2-y,-z
1/2+x,1/2+y,-z
1/2-x,1/2+y,z
1/2+x,1/2-y,z
loop_
_atom_site_type_symbol
_atom_site_label
_atom_site_fract_x
_atom_site_fract_y
_atom_site_fract_z
Si Si1 0.074211 0.209336 0.093473
Si Si2 0.783682 0.083081 0.587970
Si Si3 0.318685 0.222517 0.805684
Si Si4 0.376644 0.311981 0.334198
Si Si5 0.573010 0.418909 0.794119
Si Si6 0.667400 0.914295 0.703282
Si Si7 0.573029 0.832082 0.590456
O O1 0.123577 0.268419 0.131164
O O2 0.094822 0.129003 0.129236
O O3 0.000000 0.228798 0.115441
O O4 0.083935 0.207342 0.000000
O O5 0.754622 0.092848 0.500000
O O6 0.837741 0.144638 0.598790
O O7 0.729523 0.096909 0.651253
O O8 0.812782 0.000000 0.598488
O O9 0.250000 0.250000 0.840667
O O10 0.329215 0.270093 0.725858
O O11 0.321640 0.134822 0.782774
O O12 0.417212 0.372758 0.286354
O O13 0.421254 0.252990 0.378796
O O14 0.500000 0.436314 0.803053
O O15 0.608945 0.500000 0.792601
O O16 0.608231 0.888273 0.649898
O O17 0.656853 0.000000 0.729339
O O18 0.599370 0.838675 0.500000
O O19 0.500000 0.855661 0.592661
#
# Coordination Sequence:
#
# PCOD8266544 Si02
#       7
#    16  16  16  16  16  16  16
#     4   9  19  35  55  79 108 139 172 213 259 313
#     4  10  19  30  47  72 100 134 173 213 260 312
#     4  10  19  34  54  80 103 134 174 210 260 314
#     4  10  18  31  49  69 101 135 172 212 258 306
#     4   9  17  29  48  74 103 136 172 208 249 302
#     4  10  21  36  53  74 102 134 170 219 270 318
#     4  10  21  34  49  70  97 133 178 227 274 319
#
# _framework density 17.709921999999999
#
# number of rings (size 3 to 8) (size 9 to 14) (size 15 to 20)
#    0.000    2.286    1.429    1.714    0.000    5.143 
#    0.000    4.286    0.000    0.429    0.000    7.000 
#    0.000    0.000    0.000    0.000    0.000    0.000 
#
# Total GULP energy -694106.617034 kJ/mol
# GULP energy per Si atom -12394.761018 kJ/mol
# Density = 1.766961 g / cm^3
# Si number density = 17.709922 Si / 1000 Ang^3
#
#
#
# Elastic Constant Matrix: (Units=GPa)
#
#
# Indices 1 2 3 4 5 6 
#
# 1 64.5054 34.1869 32.9183 0.0000 0.0000 0.0000
# 2 34.1869 119.0552 46.6435 0.0000 0.0000 0.0000
# 3 32.9183 46.6435 77.6636 0.0000 0.0000 0.0000
# 4 0.0000 0.0000 0.0000 18.7883 0.0000 0.0000
# 5 0.0000 0.0000 0.0000 0.0000 34.3826 0.0000
# 6 0.0000 0.0000 0.0000 0.0000 0.0000 23.5963
#
#
#
# Elastic Compliance Matrix: (Units=1/GPa)
#
#
# Indices 1 2 3 4 5 6 
#
# 1 0.020717 -0.003281 -0.006811 0.000000 0.000000 0.000000
# 2 -0.003281 0.011503 -0.005518 0.000000 0.000000 0.000000
# 3 -0.006811 -0.005518 0.019077 0.000000 0.000000 0.000000
# 4 0.000000 0.000000 0.000000 0.053225 0.000000 0.000000
# 5 0.000000 0.000000 0.000000 0.000000 0.029084 0.000000
# 6 0.000000 0.000000 0.000000 0.000000 0.000000 0.042380
#
#
# Mechanical properties :
#
#
# Convention : Reuss Voigt Hill
#
# Bulk Modulus (GPa) = 49.80542 54.30241 52.05391
# Shear Modulus (GPa) = 23.37564 25.18514 24.28039
#
# Velocity S-wave (km/s) = 3.63701 3.77516 3.70673
# Velocity P-wave (km/s) = 6.76912 7.05203 6.91202
#
# Compressibility (1/GPa) = 0.02007814
#
# Stress axis : x y z
#
# Youngs Moduli (GPa) = 48.26984 86.93041 52.41910
#
# Poissons Ratio (x) = 0.28518 0.35701
# Poissons Ratio (y) = 0.15835 0.28926
# Poissons Ratio (z) = 0.32875 0.47971
#
# Static dielectric constant tensor:
#      x y z
#    x 3.222560 0.000000 0.000000 
#    y 0.000000 3.890760 0.000000 
#    z 0.000000 0.000000 3.144370 
# 
# 
# High freq. dielectric constant tensor:
#      x y z
#    x 1.678120 0.000000 0.000000 
#    y 0.000000 1.687580 0.000000 
#    z 0.000000 0.000000 1.666500 
# 
# From -- ./inp_files/54895.got.cif
#   From: 2010.03.12/outbox.cif.g09.slc.cpg/sg65_28_cif.got.tgz:54895.got - 2010.04.10 20:52:16.
