data_PCOD8266788
_publ_section_title
;
Structure prediction by ZEFSAII (Michael W. Deem and Ramdas Pophale) SiO2 
 PCOD8266788
Probable space group: C M M M
;
_chemical_formula_sum "Si O2"
_cell_formula_units_Z 88
_cell_length_a 17.555135
_cell_length_b 29.353668
_cell_length_c 9.313035
_cell_angle_alpha 90.000000
_cell_angle_beta 90.000000
_cell_angle_gamma 90.000000
_cell_volume 4799.077756
_symmetry_space_group_name_H-M "C M M M"
_symmetry_group_IT_number 65
_symmetry_cell_setting 'orthorhombic'
loop_
_space_group_symop_operation_xyz
x,y,z
-x,-y,z
x,-y,-z
-x,y,-z
-x,-y,-z
x,y,-z
-x,y,z
x,-y,z
1/2+x,1/2+y,z
1/2-x,1/2-y,z
1/2+x,1/2-y,-z
1/2-x,1/2+y,-z
1/2-x,1/2-y,-z
1/2+x,1/2+y,-z
1/2-x,1/2+y,z
1/2+x,1/2-y,z
loop_
_atom_site_type_symbol
_atom_site_label
_atom_site_fract_x
_atom_site_fract_y
_atom_site_fract_z
Si Si1 0.162438 0.552438 0.163368
Si Si2 0.700188 0.316335 0.668624
Si Si3 0.086880 0.000000 0.329308
Si Si4 0.859073 0.278241 0.329932
Si Si5 0.500000 0.184863 0.839169
Si Si6 0.692858 0.417271 0.329934
Si Si7 0.500000 0.922286 0.840002
O O1 0.183893 0.500000 0.163919
O O2 0.224593 0.577084 0.260353
O O3 0.078330 0.560133 0.233652
O O4 0.164868 0.571996 0.000000
O O5 0.708869 0.315342 0.500000
O O6 0.784698 0.305237 0.726999
O O7 0.644383 0.275349 0.714480
O O8 0.667283 0.365908 0.715774
O O9 0.131205 0.954540 0.274163
O O10 0.084121 0.000000 0.500000
O O11 0.000000 0.000000 0.268552
O O12 0.871343 0.283799 0.500000
O O13 0.927332 0.299246 0.245213
O O14 0.500000 0.131241 0.842511
O O15 0.500000 0.204953 0.000000
O O16 0.702378 0.422398 0.500000
O O17 0.500000 0.943368 0.000000
#
# Coordination Sequence:
#
# PCOD8266788 Si02
#       7
#    16  16   8  16   8  16   8
#     4  10  19  32  51  73 100 135 174 207 242 289
#     4   8  16  31  53  76  95 123 165 208 245 293
#     4   9  18  32  49  72 101 126 154 197 249 299
#     4   9  17  33  52  71  98 129 164 204 247 292
#     4  11  21  32  47  72 104 133 165 204 247 293
#     4  10  18  32  53  76 100 127 163 207 253 298
#     4   9  19  33  48  70 102 140 175 205 236 288
#
# _framework density 18.336856999999998
#
# number of rings (size 3 to 8) (size 9 to 14) (size 15 to 20)
#    0.000    2.636    0.909    2.727    0.000    1.091 
#    1.636    4.091    0.000    2.182    0.000    0.000 
#    0.000    0.000    0.000    0.000    0.000    0.000 
#
# Total GULP energy -545225.819847 kJ/mol
# GULP energy per Si atom -12391.495906 kJ/mol
# Density = 1.829512 g / cm^3
# Si number density = 18.336857 Si / 1000 Ang^3
#
#
#
# Elastic Constant Matrix: (Units=GPa)
#
#
# Indices 1 2 3 4 5 6 
#
# 1 72.5766 21.4740 14.2305 0.0000 0.0000 0.0000
# 2 21.4740 109.9495 14.3890 0.0000 0.0000 0.0000
# 3 14.2305 14.3890 32.8644 0.0000 0.0000 0.0000
# 4 0.0000 0.0000 0.0000 15.3515 0.0000 0.0000
# 5 0.0000 0.0000 0.0000 0.0000 -3.1785 0.0000
# 6 0.0000 0.0000 0.0000 0.0000 0.0000 27.7329
#
#
#
# Elastic Compliance Matrix: (Units=1/GPa)
#
#
# Indices 1 2 3 4 5 6 
#
# 1 0.015583 -0.002292 -0.005744 0.000000 0.000000 0.000000
# 2 -0.002292 0.009985 -0.003379 0.000000 0.000000 0.000000
# 3 -0.005744 -0.003379 0.034395 0.000000 0.000000 0.000000
# 4 0.000000 0.000000 0.000000 0.065140 0.000000 0.000000
# 5 0.000000 0.000000 0.000000 0.000000 -0.314617 0.000000
# 6 0.000000 0.000000 0.000000 0.000000 0.000000 0.036058
#
#
# Mechanical properties :
#
#
# Convention : Reuss Voigt Hill
#
# Bulk Modulus (GPa) = 26.93074 35.06417 30.99746
# Shear Modulus (GPa) = -42.28406 19.00097 -11.64155
#
# Velocity S-wave (km/s) = -4.80725 3.22253 -2.52240
# Velocity P-wave (km/s) = 4.01177 5.74543 2.90823
#
# Compressibility (1/GPa) = 0.03713228
#
# Stress axis : x y z
#
# Youngs Moduli (GPa) = 64.17285 100.15086 29.07412
#
# Poissons Ratio (x) = 0.22952 0.16700
# Poissons Ratio (y) = 0.14707 0.09825
# Poissons Ratio (z) = 0.36862 0.33845
#
# Static dielectric constant tensor:
#      x y z
#    x 3.220300 0.000000 0.000000 
#    y 0.000000 4.041720 0.000000 
#    z 0.000000 0.000000 3.076130 
# 
# 
# High freq. dielectric constant tensor:
#      x y z
#    x 1.706600 0.000000 0.000000 
#    y 0.000000 1.726680 0.000000 
#    z 0.000000 0.000000 1.665360 
# 
# From -- ./inp_files/10228.got.cif
#   From: 2010.03.12/outbox.cif.g09.slc.cpg/sg65_6_cif.got.tgz:10228.got - 2010.04.10 20:52:16.
