data_PCOD8266151
_publ_section_title
;
Structure prediction by ZEFSAII (Michael W. Deem and Ramdas Pophale) SiO2 
 PCOD8266151
Probable space group: C M M M
;
_chemical_formula_sum "Si O2"
_cell_formula_units_Z 96
_cell_length_a 14.826501
_cell_length_b 25.749512
_cell_length_c 13.114410
_cell_angle_alpha 90.000000
_cell_angle_beta 90.000000
_cell_angle_gamma 90.000000
_cell_volume 5006.756047
_symmetry_space_group_name_H-M "C M M M"
_symmetry_group_IT_number 65
_symmetry_cell_setting 'orthorhombic'
loop_
_space_group_symop_operation_xyz
x,y,z
-x,-y,z
x,-y,-z
-x,y,-z
-x,-y,-z
x,y,-z
-x,y,z
x,-y,z
1/2+x,1/2+y,z
1/2-x,1/2-y,z
1/2+x,1/2-y,-z
1/2-x,1/2+y,-z
1/2-x,1/2-y,-z
1/2+x,1/2+y,-z
1/2-x,1/2+y,z
1/2+x,1/2-y,z
loop_
_atom_site_type_symbol
_atom_site_label
_atom_site_fract_x
_atom_site_fract_y
_atom_site_fract_z
Si Si1 0.694177 0.442979 0.822904
Si Si2 0.500000 0.646046 0.348528
Si Si3 0.000000 0.739985 0.619154
Si Si4 0.340530 0.868616 0.885051
Si Si5 0.500000 0.058417 0.121103
Si Si6 0.691305 0.389276 0.610825
Si Si7 0.313748 0.800038 0.300685
Si Si8 0.000000 0.056309 0.192445
O O1 0.738219 0.500000 0.838402
O O2 0.746755 0.399519 0.885000
O O3 0.690813 0.431880 0.700644
O O4 0.593159 0.442741 0.870938
O O5 0.500000 0.706587 0.316498
O O6 0.592084 0.634693 0.408603
O O7 0.500000 0.609794 0.251524
O O8 0.090301 0.708514 0.645624
O O9 0.000000 0.753853 0.500000
O O10 0.413678 0.909217 0.840727
O O11 0.334239 0.817736 0.815313
O O12 0.363650 0.850489 0.000000
O O13 0.500000 0.000000 0.168228
O O14 0.500000 0.054191 0.000000
O O15 0.719287 0.413266 0.500000
O O16 0.762514 0.344551 0.637832
O O17 0.250000 0.750000 0.298162
O O18 0.000000 0.000000 0.253774
#
# Coordination Sequence:
#
# PCOD8266151 Si02
#       8
#    16   8   8  16   8  16  16   8
#     4   9  18  32  52  78 107 142 178 217 268 321
#     4  10  18  29  51  78 103 138 180 219 261 313
#     4  12  23  35  56  82 108 140 180 220 266 322
#     4  10  21  37  57  80 107 138 180 230 277 327
#     4   9  17  32  57  84 105 127 161 214 277 332
#     4  10  19  32  50  76 109 141 178 220 265 322
#     4  11  23  37  54  77 107 145 182 228 276 318
#     4   8  16  32  50  72 108 143 173 214 262 315
#
# _framework density 19.174092000000002
#
# number of rings (size 3 to 8) (size 9 to 14) (size 15 to 20)
#    0.000    2.083    1.667    2.250    0.000    2.333 
#    0.000    0.417    0.000    7.750    0.000    0.000 
#    0.000   12.000    0.000    0.000    0.000    0.000 
#
# Total GULP energy -594692.433381 kJ/mol
# GULP energy per Si atom -12389.425695 kJ/mol
# Density = 1.913045 g / cm^3
# Si number density = 19.174092 Si / 1000 Ang^3
#
#
#
# Elastic Constant Matrix: (Units=GPa)
#
#
# Indices 1 2 3 4 5 6 
#
# 1 115.9294 31.0631 13.9498 0.0000 0.0000 0.0000
# 2 31.0631 62.7587 3.0020 0.0000 0.0000 0.0000
# 3 13.9498 3.0020 56.1791 0.0000 0.0000 0.0000
# 4 0.0000 0.0000 0.0000 10.8694 0.0000 0.0000
# 5 0.0000 0.0000 0.0000 0.0000 1.5881 0.0000
# 6 0.0000 0.0000 0.0000 0.0000 0.0000 24.5277
#
#
#
# Elastic Compliance Matrix: (Units=1/GPa)
#
#
# Indices 1 2 3 4 5 6 
#
# 1 0.010227 -0.004953 -0.002275 0.000000 0.000000 0.000000
# 2 -0.004953 0.018374 0.000248 0.000000 0.000000 0.000000
# 3 -0.002275 0.000248 0.018352 0.000000 0.000000 0.000000
# 4 0.000000 0.000000 0.000000 0.092002 0.000000 0.000000
# 5 0.000000 0.000000 0.000000 0.000000 0.629703 0.000000
# 6 0.000000 0.000000 0.000000 0.000000 0.000000 0.040770
#
#
# Mechanical properties :
#
#
# Convention : Reuss Voigt Hill
#
# Bulk Modulus (GPa) = 30.30957 36.76633 33.53795
# Shear Modulus (GPa) = 5.99245 19.85385 12.92315
#
# Velocity S-wave (km/s) = 1.76976 3.22133 2.59895
# Velocity P-wave (km/s) = 4.47414 5.74914 5.15124
#
# Compressibility (1/GPa) = 0.03299288
#
# Stress axis : x y z
#
# Youngs Moduli (GPa) = 97.78209 54.42551 54.49062
#
# Poissons Ratio (x) = 0.26957 0.12395
# Poissons Ratio (y) = 0.48432 -0.01352
# Poissons Ratio (z) = 0.22243 -0.01350
#
# Static dielectric constant tensor:
#      x y z
#    x 3.845340 0.000000 0.000000 
#    y 0.000000 3.500850 0.000000 
#    z 0.000000 0.000000 3.189340 
# 
# 
# High freq. dielectric constant tensor:
#      x y z
#    x 1.765260 0.000000 0.000000 
#    y 0.000000 1.741190 0.000000 
#    z 0.000000 0.000000 1.715220 
# 
# From -- ./inp_files/41024.got.cif
#   From: 2010.03.12/outbox.cif.g09.slc.cpg/sg65_21_cif.got.tgz:41024.got - 2010.04.10 20:52:16.
