data_PCOD8266389
_publ_section_title
;
Structure prediction by ZEFSAII (Michael W. Deem and Ramdas Pophale) SiO2 
 PCOD8266389
Probable space group: C M M M
;
_chemical_formula_sum "Si O2"
_cell_formula_units_Z 120
_cell_length_a 18.295574
_cell_length_b 20.635709
_cell_length_c 17.098780
_cell_angle_alpha 90.000000
_cell_angle_beta 90.000000
_cell_angle_gamma 90.000000
_cell_volume 6455.510011
_symmetry_space_group_name_H-M "C M M M"
_symmetry_group_IT_number 65
_symmetry_cell_setting 'orthorhombic'
loop_
_space_group_symop_operation_xyz
x,y,z
-x,-y,z
x,-y,-z
-x,y,-z
-x,-y,-z
x,y,-z
-x,y,z
x,-y,z
1/2+x,1/2+y,z
1/2-x,1/2-y,z
1/2+x,1/2-y,-z
1/2-x,1/2+y,-z
1/2-x,1/2-y,-z
1/2+x,1/2+y,-z
1/2-x,1/2+y,z
1/2+x,1/2-y,z
loop_
_atom_site_type_symbol
_atom_site_label
_atom_site_fract_x
_atom_site_fract_y
_atom_site_fract_z
Si Si1 0.205217 0.311536 0.910465
Si Si2 0.086805 0.891940 0.793356
Si Si3 0.913451 0.000000 0.087624
Si Si4 0.217629 0.681280 0.408857
Si Si5 0.196753 0.071490 0.331589
Si Si6 0.582809 0.846124 0.701079
Si Si7 0.580982 0.747440 0.165665
Si Si8 0.183260 0.571967 0.800545
O O1 0.250000 0.250000 0.875262
O O2 0.121552 0.289479 0.900058
O O3 0.215780 0.378911 0.865083
O O4 0.225934 0.323909 0.000000
O O5 0.113566 0.938437 0.863175
O O6 0.119946 0.910826 0.709193
O O7 0.116834 0.822722 0.821469
O O8 0.000000 0.893395 0.781491
O O9 0.000000 0.000000 0.080483
O O10 0.879080 0.000000 0.000000
O O11 0.200874 0.685611 0.500000
O O12 0.250000 0.750000 0.378015
O O13 0.278671 0.625732 0.393997
O O14 0.140203 0.663202 0.369244
O O15 0.256340 0.068392 0.264810
O O16 0.190367 0.000000 0.371604
O O17 0.500000 0.861657 0.670518
O O18 0.582186 0.779905 0.749304
O O19 0.608430 0.903097 0.760188
O O20 0.500000 0.739598 0.132256
O O21 0.169410 0.500000 0.836493
#
# Coordination Sequence:
#
# PCOD8266389 Si02
#       8
#    16  16   8  16  16  16  16  16
#     4  10  20  33  49  70 100 137 177 222 270 320
#     4  10  18  30  50  74 100 136 180 219 260 310
#     4   9  18  30  42  64 101 137 170 215 269 317
#     4  10  21  36  55  81 112 144 173 208 264 327
#     4  10  19  33  54  75 101 135 175 217 257 314
#     4   9  18  34  56  82 105 131 173 222 267 316
#     4   9  18  31  50  73  97 129 171 215 257 310
#     4   9  19  34  53  75 101 135 174 221 277 333
#
# _framework density 18.588771999999999
#
# number of rings (size 3 to 8) (size 9 to 14) (size 15 to 20)
#    0.000    2.467    0.667    1.600    0.000    5.600 
#    0.000    2.000    0.000    1.200    0.000    8.400 
#    0.000    0.000    0.000    0.000    0.000    0.000 
#
# Total GULP energy -743612.814390 kJ/mol
# GULP energy per Si atom -12393.546906 kJ/mol
# Density = 1.854646 g / cm^3
# Si number density = 18.588772 Si / 1000 Ang^3
#
#
#
# Elastic Constant Matrix: (Units=GPa)
#
#
# Indices 1 2 3 4 5 6 
#
# 1 59.9108 18.8862 19.1566 0.0000 0.0000 0.0000
# 2 18.8862 145.7849 28.5471 0.0000 0.0000 0.0000
# 3 19.1566 28.5471 56.4096 0.0000 0.0000 0.0000
# 4 0.0000 0.0000 0.0000 24.1396 0.0000 0.0000
# 5 0.0000 0.0000 0.0000 0.0000 21.1769 0.0000
# 6 0.0000 0.0000 0.0000 0.0000 0.0000 22.3187
#
#
#
# Elastic Compliance Matrix: (Units=1/GPa)
#
#
# Indices 1 2 3 4 5 6 
#
# 1 0.018953 -0.001326 -0.005765 0.000000 0.000000 0.000000
# 2 -0.001326 0.007707 -0.003450 0.000000 0.000000 0.000000
# 3 -0.005765 -0.003450 0.021431 0.000000 0.000000 0.000000
# 4 0.000000 0.000000 0.000000 0.041426 0.000000 0.000000
# 5 0.000000 0.000000 0.000000 0.000000 0.047221 0.000000
# 6 0.000000 0.000000 0.000000 0.000000 0.000000 0.044806
#
#
# Mechanical properties :
#
#
# Convention : Reuss Voigt Hill
#
# Bulk Modulus (GPa) = 37.02563 43.92061 40.47312
# Shear Modulus (GPa) = 23.62626 26.56137 25.09382
#
# Velocity S-wave (km/s) = 3.56897 3.78417 3.67815
# Velocity P-wave (km/s) = 6.07823 6.54003 6.31336
#
# Compressibility (1/GPa) = 0.02700832
#
# Stress axis : x y z
#
# Youngs Moduli (GPa) = 52.76200 129.75609 46.66117
#
# Poissons Ratio (x) = 0.17211 0.26901
# Poissons Ratio (y) = 0.06998 0.16097
# Poissons Ratio (z) = 0.30418 0.44762
#
# Static dielectric constant tensor:
#      x y z
#    x 3.503290 0.000000 0.000000 
#    y 0.000000 3.905170 0.000000 
#    z 0.000000 0.000000 3.093580 
# 
# 
# High freq. dielectric constant tensor:
#      x y z
#    x 1.718990 0.000000 0.000000 
#    y 0.000000 1.736840 0.000000 
#    z 0.000000 0.000000 1.687430 
# 
# From -- ./inp_files/54970.got.cif
#   From: 2010.03.12/outbox.cif.g09.slc.cpg/sg65_28_cif.got.tgz:54970.got - 2010.04.10 20:52:16.
