data_PCOD8266061
_publ_section_title
;
Structure prediction by ZEFSAII (Michael W. Deem and Ramdas Pophale) SiO2 
 PCOD8266061
Probable space group: C M M M
;
_chemical_formula_sum "Si O2"
_cell_formula_units_Z 120
_cell_length_a 13.997952
_cell_length_b 33.379562
_cell_length_c 14.423145
_cell_angle_alpha 90.000000
_cell_angle_beta 90.000000
_cell_angle_gamma 90.000000
_cell_volume 6739.149693
_symmetry_space_group_name_H-M "C M M M"
_symmetry_group_IT_number 65
_symmetry_cell_setting 'orthorhombic'
loop_
_space_group_symop_operation_xyz
x,y,z
-x,-y,z
x,-y,-z
-x,y,-z
-x,-y,-z
x,y,-z
-x,y,z
x,-y,z
1/2+x,1/2+y,z
1/2-x,1/2-y,z
1/2+x,1/2-y,-z
1/2-x,1/2+y,-z
1/2-x,1/2-y,-z
1/2+x,1/2+y,-z
1/2-x,1/2+y,z
1/2+x,1/2-y,z
loop_
_atom_site_type_symbol
_atom_site_label
_atom_site_fract_x
_atom_site_fract_y
_atom_site_fract_z
Si Si1 0.107774 0.652097 0.106676
Si Si2 0.386425 0.424518 0.274078
Si Si3 0.386776 0.647525 0.602404
Si Si4 0.113212 0.000000 0.605426
Si Si5 0.613082 0.263128 0.398638
Si Si6 0.391169 0.307515 0.107302
Si Si7 0.208674 0.108831 0.894143
Si Si8 0.613832 0.769839 0.211399
O O1 0.176893 0.613803 0.120998
O O2 0.150038 0.689131 0.165945
O O3 0.000000 0.640036 0.136556
O O4 0.110436 0.666167 0.000000
O O5 0.500000 0.425720 0.258697
O O6 0.347996 0.384422 0.324046
O O7 0.351585 0.461415 0.337197
O O8 0.334406 0.425162 0.173657
O O9 0.347975 0.636477 0.500000
O O10 0.500000 0.644644 0.601266
O O11 0.352576 0.692160 0.629281
O O12 0.155282 0.000000 0.500000
O O13 0.000000 0.000000 0.598075
O O14 0.654198 0.250473 0.500000
O O15 0.500000 0.263586 0.404239
O O16 0.647426 0.232104 0.319498
O O17 0.500000 0.314336 0.140225
O O18 0.337061 0.348327 0.129855
O O19 0.344302 0.269855 0.161421
O O20 0.385546 0.296449 0.000000
O O21 0.185639 0.096011 0.000000
O O22 0.500000 0.768711 0.201191
#
# Coordination Sequence:
#
# PCOD8266061 Si02
#       8
#    16  16  16   8  16  16  16  16
#     4   9  18  32  47  62  81 109 151 202 247 279
#     4  10  18  29  47  71  99 127 151 175 207 253
#     4   8  13  22  38  60  86 117 152 187 218 249
#     4   9  18  32  51  77 106 133 157 177 201 240
#     4   8  13  20  32  53  78 106 143 182 222 267
#     4   9  16  25  38  59  87 117 150 188 227 268
#     4  10  20  31  44  64  90 121 155 188 225 272
#     4   9  15  24  39  57  80 112 149 192 239 280
#
# _framework density 17.806401999999999
#
# number of rings (size 3 to 8) (size 9 to 14) (size 15 to 20)
#    0.000    3.000    0.000    2.800    0.000    6.667 
#    0.000    2.333    0.000    2.800    0.000    3.267 
#    0.000    2.667    0.000    0.000    0.000    0.000 
#
# Total GULP energy -743591.521069 kJ/mol
# GULP energy per Si atom -12393.192018 kJ/mol
# Density = 1.776587 g / cm^3
# Si number density = 17.806402 Si / 1000 Ang^3
#
#
#
# Elastic Constant Matrix: (Units=GPa)
#
#
# Indices 1 2 3 4 5 6 
#
# 1 40.8316 19.3335 23.4741 0.0000 0.0000 0.0000
# 2 19.3335 50.1635 55.7561 0.0000 0.0000 0.0000
# 3 23.4741 55.7561 123.7176 0.0000 0.0000 0.0000
# 4 0.0000 0.0000 0.0000 28.3145 0.0000 0.0000
# 5 0.0000 0.0000 0.0000 0.0000 6.0581 0.0000
# 6 0.0000 0.0000 0.0000 0.0000 0.0000 13.2079
#
#
#
# Elastic Compliance Matrix: (Units=1/GPa)
#
#
# Indices 1 2 3 4 5 6 
#
# 1 0.030015 -0.010496 -0.000965 0.000000 0.000000 0.000000
# 2 -0.010496 0.043613 -0.017664 0.000000 0.000000 0.000000
# 3 -0.000965 -0.017664 0.016227 0.000000 0.000000 0.000000
# 4 0.000000 0.000000 0.000000 0.035318 0.000000 0.000000
# 5 0.000000 0.000000 0.000000 0.000000 0.165069 0.000000
# 6 0.000000 0.000000 0.000000 0.000000 0.000000 0.075712
#
#
# Mechanical properties :
#
#
# Convention : Reuss Voigt Hill
#
# Bulk Modulus (GPa) = 31.63945 45.76002 38.69973
# Shear Modulus (GPa) = 11.50120 17.25936 14.38028
#
# Velocity S-wave (km/s) = 2.54422 3.11670 2.84490
# Velocity P-wave (km/s) = 5.14178 6.22143 5.70719
#
# Compressibility (1/GPa) = 0.03160611
#
# Stress axis : x y z
#
# Youngs Moduli (GPa) = 33.31644 22.92891 61.62718
#
# Poissons Ratio (x) = 0.24065 0.05947
# Poissons Ratio (y) = 0.34968 1.08857
# Poissons Ratio (z) = 0.03215 0.40501
#
# Static dielectric constant tensor:
#      x y z
#    x 3.058910 0.000000 0.000000 
#    y 0.000000 3.000710 0.000000 
#    z 0.000000 0.000000 3.647290 
# 
# 
# High freq. dielectric constant tensor:
#      x y z
#    x 1.655160 0.000000 0.000000 
#    y 0.000000 1.639910 0.000000 
#    z 0.000000 0.000000 1.704980 
# 
# From -- ./inp_files/41465.got.cif
#   From: 2010.03.12/outbox.cif.g09.slc.cpg/sg65_21_cif.got.tgz:41465.got - 2010.04.10 20:52:16.
