data_PCOD8266863
_publ_section_title
;
Structure prediction by ZEFSAII (Michael W. Deem and Ramdas Pophale) SiO2 
 PCOD8266863
Probable space group: C M M M
;
_chemical_formula_sum "Si O2"
_cell_formula_units_Z 104
_cell_length_a 23.027430
_cell_length_b 26.615314
_cell_length_c 9.266039
_cell_angle_alpha 90.000000
_cell_angle_beta 90.000000
_cell_angle_gamma 90.000000
_cell_volume 5678.991109
_symmetry_space_group_name_H-M "C M M M"
_symmetry_group_IT_number 65
_symmetry_cell_setting 'orthorhombic'
loop_
_space_group_symop_operation_xyz
x,y,z
-x,-y,z
x,-y,-z
-x,y,-z
-x,-y,-z
x,y,-z
-x,y,z
x,-y,z
1/2+x,1/2+y,z
1/2-x,1/2-y,z
1/2+x,1/2-y,-z
1/2-x,1/2+y,-z
1/2-x,1/2-y,-z
1/2+x,1/2+y,-z
1/2-x,1/2+y,z
1/2+x,1/2-y,z
loop_
_atom_site_type_symbol
_atom_site_label
_atom_site_fract_x
_atom_site_fract_y
_atom_site_fract_z
Si Si1 0.136813 0.594169 0.171139
Si Si2 0.934304 0.674612 0.332371
Si Si3 0.932457 0.945570 0.657138
Si Si4 0.064432 0.500000 0.171673
Si Si5 0.566078 0.708704 0.668018
Si Si6 0.762392 0.057515 0.171426
Si Si7 0.632732 0.372507 0.168913
O O1 0.113969 0.645242 0.241614
O O2 0.096362 0.549389 0.228548
O O3 0.201504 0.580799 0.223337
O O4 0.134063 0.600437 0.000000
O O5 0.925276 0.662715 0.500000
O O6 0.924041 0.732964 0.300180
O O7 0.000000 0.659569 0.285549
O O8 0.910333 0.925035 0.500000
O O9 0.919895 0.908969 0.789700
O O10 0.000000 0.952599 0.648734
O O11 0.903544 0.000000 0.687536
O O12 0.000000 0.500000 0.236246
O O13 0.064512 0.500000 0.000000
O O14 0.573219 0.696517 0.500000
O O15 0.500000 0.693376 0.715769
O O16 0.617623 0.680050 0.753446
O O17 0.810414 0.097562 0.227859
O O18 0.770461 0.000000 0.231067
O O19 0.765081 0.054724 0.000000
O O20 0.636530 0.362223 0.000000
#
# Coordination Sequence:
#
# PCOD8266863 Si02
#       7
#    16  16  16   8  16  16  16
#     4  10  18  32  55  79 104 137 175 212 248 297
#     4   9  19  36  56  78 106 137 166 205 263 320
#     4   9  18  32  48  67  95 131 168 208 260 321
#     4   9  16  26  47  81 109 127 160 207 248 294
#     4   9  19  37  57  74  99 138 176 210 259 322
#     4   9  18  34  52  72 104 145 178 207 253 308
#     4  11  21  31  49  76 102 131 173 222 265 302
#
# _framework density 18.313113000000001
#
# number of rings (size 3 to 8) (size 9 to 14) (size 15 to 20)
#    0.000    2.538    0.769    3.231    0.000    4.923 
#    0.000    5.000    0.000    7.846    0.000    0.000 
#    0.000    0.000    0.000    0.000    0.000    0.000 
#
# Total GULP energy -644339.760581 kJ/mol
# GULP energy per Si atom -12391.149242 kJ/mol
# Density = 1.827143 g / cm^3
# Si number density = 18.313113 Si / 1000 Ang^3
#
#
#
# Elastic Constant Matrix: (Units=GPa)
#
#
# Indices 1 2 3 4 5 6 
#
# 1 110.0301 66.7257 36.9490 0.0000 0.0000 0.0000
# 2 66.7257 117.1342 40.4796 0.0000 0.0000 0.0000
# 3 36.9490 40.4796 44.3502 0.0000 0.0000 0.0000
# 4 0.0000 0.0000 0.0000 28.5033 0.0000 0.0000
# 5 0.0000 0.0000 0.0000 0.0000 20.0228 0.0000
# 6 0.0000 0.0000 0.0000 0.0000 0.0000 34.9129
#
#
#
# Elastic Compliance Matrix: (Units=1/GPa)
#
#
# Indices 1 2 3 4 5 6 
#
# 1 0.015229 -0.006267 -0.006967 0.000000 0.000000 0.000000
# 2 -0.006267 0.015050 -0.008515 0.000000 0.000000 0.000000
# 3 -0.006967 -0.008515 0.036124 0.000000 0.000000 0.000000
# 4 0.000000 0.000000 0.000000 0.035084 0.000000 0.000000
# 5 0.000000 0.000000 0.000000 0.000000 0.049943 0.000000
# 6 0.000000 0.000000 0.000000 0.000000 0.000000 0.028643
#
#
# Mechanical properties :
#
#
# Convention : Reuss Voigt Hill
#
# Bulk Modulus (GPa) = 43.66048 62.20255 52.93152
# Shear Modulus (GPa) = 21.62571 25.17846 23.40209
#
# Velocity S-wave (km/s) = 3.44013 3.71197 3.57863
# Velocity P-wave (km/s) = 6.29859 7.23958 6.78541
#
# Compressibility (1/GPa) = 0.02290401
#
# Stress axis : x y z
#
# Youngs Moduli (GPa) = 65.66541 66.44448 27.68232
#
# Poissons Ratio (x) = 0.41644 0.19286
# Poissons Ratio (y) = 0.41155 0.23572
# Poissons Ratio (z) = 0.45749 0.56579
#
# Static dielectric constant tensor:
#      x y z
#    x 3.433050 0.000000 0.000000 
#    y 0.000000 3.442110 0.000000 
#    z 0.000000 0.000000 3.089020 
# 
# 
# High freq. dielectric constant tensor:
#      x y z
#    x 1.702210 0.000000 0.000000 
#    y 0.000000 1.717380 0.000000 
#    z 0.000000 0.000000 1.680610 
# 
# From -- ./inp_files/14746.got.cif
#   From: 2010.03.12/outbox.cif.g09.slc.cpg/sg65_8_cif.got.tgz:14746.got - 2010.04.10 20:52:16.
