data_PCOD8266690
_publ_section_title
;
Structure prediction by ZEFSAII (Michael W. Deem and Ramdas Pophale) SiO2 
 PCOD8266690
Probable space group: C M M M
;
_chemical_formula_sum "Si O2"
_cell_formula_units_Z 64
_cell_length_a 24.850331
_cell_length_b 8.327976
_cell_length_c 15.134312
_cell_angle_alpha 90.000000
_cell_angle_beta 90.000000
_cell_angle_gamma 90.000000
_cell_volume 3132.090668
_symmetry_space_group_name_H-M "C M M M"
_symmetry_group_IT_number 65
_symmetry_cell_setting 'orthorhombic'
loop_
_space_group_symop_operation_xyz
x,y,z
-x,-y,z
x,-y,-z
-x,y,-z
-x,-y,-z
x,y,-z
-x,y,z
x,-y,z
1/2+x,1/2+y,z
1/2-x,1/2-y,z
1/2+x,1/2-y,-z
1/2-x,1/2+y,-z
1/2-x,1/2-y,-z
1/2+x,1/2+y,-z
1/2-x,1/2+y,z
1/2+x,1/2-y,z
loop_
_atom_site_type_symbol
_atom_site_label
_atom_site_fract_x
_atom_site_fract_y
_atom_site_fract_z
Si Si1 0.000000 0.313338 0.161630
Si Si2 0.885199 0.191701 0.347004
Si Si3 0.111027 0.189676 0.853872
Si Si4 0.689431 0.189473 0.000000
Si Si5 0.500000 0.683175 0.351022
Si Si6 0.190077 0.809714 0.500000
O O1 0.055389 0.270723 0.109965
O O2 0.000000 0.500000 0.187855
O O3 0.000000 0.194999 0.245177
O O4 0.875646 0.248585 0.246329
O O5 0.943295 0.259906 0.383361
O O6 0.839129 0.258372 0.411986
O O7 0.886747 0.000000 0.349272
O O8 0.104773 0.000000 0.860141
O O9 0.160502 0.245770 0.912740
O O10 0.750000 0.250000 0.000000
O O11 0.688324 0.000000 0.000000
O O12 0.500000 0.500000 0.380920
O O13 0.250000 0.750000 0.500000
O O14 0.188496 0.000000 0.500000
#
# Coordination Sequence:
#
# PCOD8266690 Si02
#       6
#     8  16  16   8   8   8
#     4  10  18  31  54  87 118 146 180 223 273 335
#     4   8  16  31  55  81 107 137 176 222 273 323
#     4  10  20  38  60  84 113 148 184 228 279 330
#     4  12  26  43  60  83 110 144 188 234 278 330
#     4   8  14  29  51  77 105 138 177 223 276 329
#     4  10  20  35  51  75 107 142 183 226 264 316
#
# _framework density 20.433637000000001
#
# number of rings (size 3 to 8) (size 9 to 14) (size 15 to 20)
#    0.000    2.500    0.000    4.500    0.000    2.000 
#    0.000   13.750    0.000    0.000    0.000   14.875 
#    0.000    0.000    0.000    0.000    0.000    0.000 
#
# Total GULP energy -396471.986141 kJ/mol
# GULP energy per Si atom -12389.749567 kJ/mol
# Density = 2.038713 g / cm^3
# Si number density = 20.433637 Si / 1000 Ang^3
#
#
#
# Elastic Constant Matrix: (Units=GPa)
#
#
# Indices 1 2 3 4 5 6 
#
# 1 220.2733 29.7872 94.7631 0.0000 0.0000 0.0000
# 2 29.7872 64.4407 26.2652 0.0000 0.0000 0.0000
# 3 94.7631 26.2652 121.0929 0.0000 0.0000 0.0000
# 4 0.0000 0.0000 0.0000 14.6118 0.0000 0.0000
# 5 0.0000 0.0000 0.0000 0.0000 38.7055 0.0000
# 6 0.0000 0.0000 0.0000 0.0000 0.0000 32.4210
#
#
#
# Elastic Compliance Matrix: (Units=1/GPa)
#
#
# Indices 1 2 3 4 5 6 
#
# 1 0.006913 -0.001086 -0.005174 0.000000 0.000000 0.000000
# 2 -0.001086 0.017194 -0.002879 0.000000 0.000000 0.000000
# 3 -0.005174 -0.002879 0.012932 0.000000 0.000000 0.000000
# 4 0.000000 0.000000 0.000000 0.068438 0.000000 0.000000
# 5 0.000000 0.000000 0.000000 0.000000 0.025836 0.000000
# 6 0.000000 0.000000 0.000000 0.000000 0.000000 0.030844
#
#
# Mechanical properties :
#
#
# Convention : Reuss Voigt Hill
#
# Bulk Modulus (GPa) = 53.30784 78.60422 65.95603
# Shear Modulus (GPa) = 26.78267 34.14710 30.46488
#
# Velocity S-wave (km/s) = 3.62431 4.09237 3.86543
# Velocity P-wave (km/s) = 6.60750 7.80266 7.22982
#
# Compressibility (1/GPa) = 0.01875897
#
# Stress axis : x y z
#
# Youngs Moduli (GPa) = 144.66375 58.16030 77.33047
#
# Poissons Ratio (x) = 0.06319 0.40010
# Poissons Ratio (y) = 0.15717 0.22264
# Poissons Ratio (z) = 0.74847 0.16745
#
# Static dielectric constant tensor:
#      x y z
#    x 1.380110 0.000000 0.000000 
#    y 0.000000 3.392210 0.000000 
#    z 0.000000 0.000000 3.106350 
# 
# 
# High freq. dielectric constant tensor:
#      x y z
#    x 1.812720 0.000000 0.000000 
#    y 0.000000 1.769210 0.000000 
#    z 0.000000 0.000000 1.784840 
# 
# From -- ./inp_files/45166.got.cif
#   From: 2010.03.12/outbox.cif.g09.slc.cpg/sg65_23_cif.got.tgz:45166.got - 2010.04.10 20:52:16.
