data_PCOD8266403
_publ_section_title
;
Structure prediction by ZEFSAII (Michael W. Deem and Ramdas Pophale) SiO2 
 PCOD8266403
Probable space group: C M M M
;
_chemical_formula_sum "Si O2"
_cell_formula_units_Z 88
_cell_length_a 28.005661
_cell_length_b 18.975348
_cell_length_c 8.970547
_cell_angle_alpha 90.000000
_cell_angle_beta 90.000000
_cell_angle_gamma 90.000000
_cell_volume 4767.102641
_symmetry_space_group_name_H-M "C M M M"
_symmetry_group_IT_number 65
_symmetry_cell_setting 'orthorhombic'
loop_
_space_group_symop_operation_xyz
x,y,z
-x,-y,z
x,-y,-z
-x,y,-z
-x,-y,-z
x,y,-z
-x,y,z
x,-y,z
1/2+x,1/2+y,z
1/2-x,1/2-y,z
1/2+x,1/2-y,-z
1/2-x,1/2+y,-z
1/2-x,1/2-y,-z
1/2+x,1/2+y,-z
1/2-x,1/2+y,z
1/2+x,1/2-y,z
loop_
_atom_site_type_symbol
_atom_site_label
_atom_site_fract_x
_atom_site_fract_y
_atom_site_fract_z
Si Si1 0.000000 0.078832 0.322983
Si Si2 0.716823 0.922063 0.323480
Si Si3 0.386420 0.083495 0.672736
Si Si4 0.090636 0.833342 0.322543
Si Si5 0.680296 0.419800 0.677039
Si Si6 0.445233 0.196926 0.824481
O O1 0.953348 0.119375 0.265185
O O2 0.000000 0.075338 0.500000
O O3 0.000000 0.000000 0.256123
O O4 0.715303 0.927844 0.500000
O O5 0.666382 0.886950 0.274941
O O6 0.767559 0.886785 0.274868
O O7 0.718147 0.000000 0.254655
O O8 0.395709 0.101521 0.500000
O O9 0.426277 0.120988 0.772199
O O10 0.389728 0.000000 0.699797
O O11 0.090853 0.826379 0.500000
O O12 0.138859 0.869537 0.259742
O O13 0.086891 0.756146 0.253374
O O14 0.676099 0.421837 0.500000
O O15 0.674009 0.500000 0.737054
O O16 0.500000 0.204809 0.773132
O O17 0.440191 0.203565 0.000000
#
# Coordination Sequence:
#
# PCOD8266403 Si02
#       6
#     8  16  16  16  16  16
#     4   9  16  26  45  75 104 127 162 213 255 282
#     4   7  11  23  45  75 107 130 151 191 247 299
#     4   9  18  34  58  83 101 121 157 205 252 301
#     4  10  18  30  50  75 102 134 170 208 247 288
#     4   8  13  23  45  78 109 133 161 201 248 293
#     4  11  24  39  52  67  96 137 172 205 251 303
#
# _framework density 18.459848999999998
#
# number of rings (size 3 to 8) (size 9 to 14) (size 15 to 20)
#    0.000    3.000    0.909    3.273    0.000    4.000 
#    0.000    2.727    0.000    9.273    0.000    2.545 
#    0.000    0.000    0.000    0.000    0.000    0.000 
#
# Total GULP energy -545087.572857 kJ/mol
# GULP energy per Si atom -12388.353929 kJ/mol
# Density = 1.841783 g / cm^3
# Si number density = 18.459849 Si / 1000 Ang^3
#
#
#
# Elastic Constant Matrix: (Units=GPa)
#
#
# Indices 1 2 3 4 5 6 
#
# 1 116.3897 51.2309 31.4453 0.0000 0.0000 0.0000
# 2 51.2309 77.5973 21.2560 0.0000 0.0000 0.0000
# 3 31.4453 21.2560 26.2192 0.0000 0.0000 0.0000
# 4 0.0000 0.0000 0.0000 1.4449 0.0000 0.0000
# 5 0.0000 0.0000 0.0000 0.0000 9.9379 0.0000
# 6 0.0000 0.0000 0.0000 0.0000 0.0000 21.7195
#
#
#
# Elastic Compliance Matrix: (Units=1/GPa)
#
#
# Indices 1 2 3 4 5 6 
#
# 1 0.014770 -0.006298 -0.012609 0.000000 0.000000 0.000000
# 2 -0.006298 0.019251 -0.008054 0.000000 0.000000 0.000000
# 3 -0.012609 -0.008054 0.059791 0.000000 0.000000 0.000000
# 4 0.000000 0.000000 0.000000 0.692095 0.000000 0.000000
# 5 0.000000 0.000000 0.000000 0.000000 0.100625 0.000000
# 6 0.000000 0.000000 0.000000 0.000000 0.000000 0.046042
#
#
# Mechanical properties :
#
#
# Convention : Reuss Voigt Hill
#
# Bulk Modulus (GPa) = 25.06779 47.56340 36.31560
# Shear Modulus (GPa) = 5.00104 14.37206 9.68655
#
# Velocity S-wave (km/s) = 1.64773 2.79329 2.29320
# Velocity P-wave (km/s) = 4.15080 6.01873 5.16983
#
# Compressibility (1/GPa) = 0.03989182
#
# Stress axis : x y z
#
# Youngs Moduli (GPa) = 67.70268 51.94511 16.72482
#
# Poissons Ratio (x) = 0.32714 0.21088
# Poissons Ratio (y) = 0.42637 0.13470
# Poissons Ratio (z) = 0.85366 0.41836
#
# Static dielectric constant tensor:
#      x y z
#    x 3.955750 0.000000 0.000000 
#    y 0.000000 3.209180 0.000000 
#    z 0.000000 0.000000 2.811310 
# 
# 
# High freq. dielectric constant tensor:
#      x y z
#    x 1.739380 0.000000 0.000000 
#    y 0.000000 1.694380 0.000000 
#    z 0.000000 0.000000 1.655530 
# 
# From -- ./inp_files/18292.got.cif
#   From: 2010.03.12/outbox.cif.g09.slc.cpg/sg65_10_cif.got.tgz:18292.got - 2010.04.10 20:52:16.
