data_PCOD8266659
_publ_section_title
;
Structure prediction by ZEFSAII (Michael W. Deem and Ramdas Pophale) SiO2 
 PCOD8266659
Probable space group: C M M M
;
_chemical_formula_sum "Si O2"
_cell_formula_units_Z 88
_cell_length_a 21.748748
_cell_length_b 23.971683
_cell_length_c 9.076507
_cell_angle_alpha 90.000000
_cell_angle_beta 90.000000
_cell_angle_gamma 90.000000
_cell_volume 4732.074072
_symmetry_space_group_name_H-M "C M M M"
_symmetry_group_IT_number 65
_symmetry_cell_setting 'orthorhombic'
loop_
_space_group_symop_operation_xyz
x,y,z
-x,-y,z
x,-y,-z
-x,y,-z
-x,-y,-z
x,y,-z
-x,y,z
x,-y,z
1/2+x,1/2+y,z
1/2-x,1/2-y,z
1/2+x,1/2-y,-z
1/2-x,1/2+y,-z
1/2-x,1/2-y,-z
1/2+x,1/2+y,-z
1/2-x,1/2+y,z
1/2+x,1/2-y,z
loop_
_atom_site_type_symbol
_atom_site_label
_atom_site_fract_x
_atom_site_fract_y
_atom_site_fract_z
Si Si1 0.734426 0.686546 0.675318
Si Si2 0.067851 0.731577 0.335017
Si Si3 0.102393 0.852581 0.331122
Si Si4 0.929277 0.436438 0.665408
Si Si5 0.500000 0.564342 0.676572
Si Si6 0.849956 0.649595 0.827736
O O1 0.735573 0.683656 0.500000
O O2 0.750000 0.750000 0.727179
O O3 0.669530 0.662067 0.738141
O O4 0.785306 0.646064 0.744069
O O5 0.093881 0.719892 0.500000
O O6 0.061519 0.797421 0.310412
O O7 0.113813 0.705427 0.217740
O O8 0.000000 0.704978 0.317275
O O9 0.113833 0.867601 0.500000
O O10 0.062093 0.904014 0.262846
O O11 0.919675 0.412257 0.500000
O O12 0.907645 0.500000 0.669753
O O13 0.889220 0.403906 0.783410
O O14 0.000000 0.431126 0.711735
O O15 0.500000 0.500000 0.731496
O O16 0.500000 0.567776 0.500000
O O17 0.838076 0.650126 0.000000
#
# Coordination Sequence:
#
# PCOD8266659 Si02
#       6
#    16  16  16  16   8  16
#     4  10  19  34  55  75 103 147 191 228 268 321
#     4  10  18  31  53  77 104 140 184 227 268 320
#     4   9  16  29  50  76 103 135 177 223 273 329
#     4   9  19  38  62  83 104 137 184 230 267 313
#     4   9  16  28  50  82 115 137 162 219 290 337
#     4  12  24  34  49  78 117 148 178 220 274 335
#
# _framework density 18.596496999999999
#
# number of rings (size 3 to 8) (size 9 to 14) (size 15 to 20)
#    0.000    2.091    2.727    2.727    0.000    3.636 
#    0.000    1.818    0.000    3.273    0.000    0.000 
#    0.000    3.636    0.000    0.000    0.000    0.000 
#
# Total GULP energy -545274.117182 kJ/mol
# GULP energy per Si atom -12392.593572 kJ/mol
# Density = 1.855417 g / cm^3
# Si number density = 18.596497 Si / 1000 Ang^3
#
#
#
# Elastic Constant Matrix: (Units=GPa)
#
#
# Indices 1 2 3 4 5 6 
#
# 1 134.2217 51.9805 26.6296 0.0000 0.0000 0.0000
# 2 51.9805 104.4495 14.0287 0.0000 0.0000 0.0000
# 3 26.6296 14.0287 31.1936 0.0000 0.0000 0.0000
# 4 0.0000 0.0000 0.0000 2.4822 0.0000 0.0000
# 5 0.0000 0.0000 0.0000 0.0000 6.9278 0.0000
# 6 0.0000 0.0000 0.0000 0.0000 0.0000 6.7344
#
#
#
# Elastic Compliance Matrix: (Units=1/GPa)
#
#
# Indices 1 2 3 4 5 6 
#
# 1 0.010506 -0.004283 -0.007043 0.000000 0.000000 0.000000
# 2 -0.004283 0.011935 -0.001712 0.000000 0.000000 0.000000
# 3 -0.007043 -0.001712 0.038840 0.000000 0.000000 0.000000
# 4 0.000000 0.000000 0.000000 0.402875 0.000000 0.000000
# 5 0.000000 0.000000 0.000000 0.000000 0.144346 0.000000
# 6 0.000000 0.000000 0.000000 0.000000 0.000000 0.148492
#
#
# Mechanical properties :
#
#
# Convention : Reuss Voigt Hill
#
# Bulk Modulus (GPa) = 28.40332 50.57136 39.48734
# Shear Modulus (GPa) = 6.29086 15.04394 10.66740
#
# Velocity S-wave (km/s) = 1.84124 2.84732 2.39764
# Velocity P-wave (km/s) = 4.45274 6.16950 5.38003
#
# Compressibility (1/GPa) = 0.03520715
#
# Stress axis : x y z
#
# Youngs Moduli (GPa) = 95.18163 83.78596 25.74651
#
# Poissons Ratio (x) = 0.35882 0.18133
# Poissons Ratio (y) = 0.40762 0.04407
# Poissons Ratio (z) = 0.67037 0.14341
#
# Static dielectric constant tensor:
#      x y z
#    x 3.675090 0.000000 0.000000 
#    y 0.000000 3.397540 0.000000 
#    z 0.000000 0.000000 2.922660 
# 
# 
# High freq. dielectric constant tensor:
#      x y z
#    x 1.733610 0.000000 0.000000 
#    y 0.000000 1.710890 0.000000 
#    z 0.000000 0.000000 1.669160 
# 
# From -- ./inp_files/11791.got.cif
#   From: 2010.03.12/outbox.cif.g09.slc.cpg/sg65_6_cif.got.tgz:11791.got - 2010.04.10 20:52:16.
