data_PCOD8266229
_publ_section_title
;
Structure prediction by ZEFSAII (Michael W. Deem and Ramdas Pophale) SiO2 
 PCOD8266229
Probable space group: C M M M
;
_chemical_formula_sum "Si O2"
_cell_formula_units_Z 104
_cell_length_a 19.909136
_cell_length_b 8.841163
_cell_length_c 32.595398
_cell_angle_alpha 90.000000
_cell_angle_beta 90.000000
_cell_angle_gamma 90.000000
_cell_volume 5737.439236
_symmetry_space_group_name_H-M "C M M M"
_symmetry_group_IT_number 65
_symmetry_cell_setting 'orthorhombic'
loop_
_space_group_symop_operation_xyz
x,y,z
-x,-y,z
x,-y,-z
-x,y,-z
-x,-y,-z
x,y,-z
-x,y,z
x,-y,z
1/2+x,1/2+y,z
1/2-x,1/2-y,z
1/2+x,1/2-y,-z
1/2-x,1/2+y,-z
1/2-x,1/2-y,-z
1/2+x,1/2+y,-z
1/2-x,1/2+y,z
1/2+x,1/2-y,z
loop_
_atom_site_type_symbol
_atom_site_label
_atom_site_fract_x
_atom_site_fract_y
_atom_site_fract_z
Si Si1 0.574201 0.679392 0.348421
Si Si2 0.318094 0.177023 0.895214
Si Si3 0.577722 0.325941 0.046812
Si Si4 0.176586 0.818884 0.417544
Si Si5 0.324033 0.181567 0.500000
Si Si6 0.078316 0.826350 0.256546
Si Si7 0.318430 0.177510 0.802260
O O1 0.500000 0.742997 0.360048
O O2 0.570761 0.500000 0.348965
O O3 0.629569 0.737207 0.380450
O O4 0.594152 0.732124 0.302640
O O5 0.250000 0.250000 0.912782
O O6 0.380507 0.221132 0.923123
O O7 0.331556 0.233513 0.848783
O O8 0.308301 0.000000 0.896719
O O9 0.500000 0.291751 0.055026
O O10 0.594297 0.500000 0.056124
O O11 0.596347 0.286432 0.000000
O O12 0.250000 0.750000 0.409734
O O13 0.142349 0.748162 0.458665
O O14 0.181228 0.000000 0.421247
O O15 0.250000 0.250000 0.500000
O O16 0.324195 0.000000 0.500000
O O17 0.118727 0.724923 0.224936
O O18 0.000000 0.807058 0.246756
O O19 0.100485 0.000000 0.251451
O O20 0.250000 0.250000 0.784849
O O21 0.309894 0.000000 0.800100
#
# Coordination Sequence:
#
# PCOD8266229 Si02
#       7
#    16  16  16  16   8  16  16
#     4   8  16  32  52  73  98 129 165 203 240 285
#     4  10  21  36  54  76 103 136 172 211 254 301
#     4   9  19  36  56  78 105 136 170 209 252 299
#     4  10  18  30  50  73  97 125 160 201 243 288
#     4  10  18  30  47  68  97 127 159 199 241 288
#     4   9  18  34  55  77 102 134 170 206 249 301
#     4  10  21  36  53  75 104 135 170 212 255 299
#
# _framework density 18.126553999999999
#
# number of rings (size 3 to 8) (size 9 to 14) (size 15 to 20)
#    0.000    2.615    0.000    4.385    0.000    4.308 
#    0.000    7.308    0.000    6.000    0.000    0.000 
#    0.000    0.000    0.000    0.000    0.000    0.000 
#
# Total GULP energy -644708.418077 kJ/mol
# GULP energy per Si atom -12398.238809 kJ/mol
# Density = 1.808530 g / cm^3
# Si number density = 18.126554 Si / 1000 Ang^3
#
#
#
# Elastic Constant Matrix: (Units=GPa)
#
#
# Indices 1 2 3 4 5 6 
#
# 1 89.0236 36.2730 68.8947 0.0000 0.0000 0.0000
# 2 36.2730 71.8562 40.1522 0.0000 0.0000 0.0000
# 3 68.8947 40.1522 110.9025 0.0000 0.0000 0.0000
# 4 0.0000 0.0000 0.0000 28.4915 0.0000 0.0000
# 5 0.0000 0.0000 0.0000 0.0000 18.0661 0.0000
# 6 0.0000 0.0000 0.0000 0.0000 0.0000 30.4339
#
#
#
# Elastic Compliance Matrix: (Units=1/GPa)
#
#
# Indices 1 2 3 4 5 6 
#
# 1 0.022735 -0.004494 -0.012496 0.000000 0.000000 0.000000
# 2 -0.004494 0.018334 -0.003846 0.000000 0.000000 0.000000
# 3 -0.012496 -0.003846 0.018172 0.000000 0.000000 0.000000
# 4 0.000000 0.000000 0.000000 0.035098 0.000000 0.000000
# 5 0.000000 0.000000 0.000000 0.000000 0.055352 0.000000
# 6 0.000000 0.000000 0.000000 0.000000 0.000000 0.032858
#
#
# Mechanical properties :
#
#
# Convention : Reuss Voigt Hill
#
# Bulk Modulus (GPa) = 56.91914 62.49135 59.70525
# Shear Modulus (GPa) = 21.73164 23.82912 22.78038
#
# Velocity S-wave (km/s) = 3.46625 3.62967 3.54890
# Velocity P-wave (km/s) = 6.89122 7.21913 7.05708
#
# Compressibility (1/GPa) = 0.01756878
#
# Stress axis : x y z
#
# Youngs Moduli (GPa) = 43.98553 54.54219 55.02842
#
# Poissons Ratio (x) = 0.24510 0.68765
# Poissons Ratio (y) = 0.19766 0.21166
# Poissons Ratio (z) = 0.54966 0.20979
#
# Static dielectric constant tensor:
#      x y z
#    x 3.321780 0.000000 0.000000 
#    y 0.000000 3.188240 0.000000 
#    z 0.000000 0.000000 3.702540 
# 
# 
# High freq. dielectric constant tensor:
#      x y z
#    x 1.693260 0.000000 0.000000 
#    y 0.000000 1.693450 0.000000 
#    z 0.000000 0.000000 1.709860 
# 
# From -- ./inp_files/78200.got.cif
#   From: 2010.03.12/outbox.cif.g09.slc.cpg/sg65_40_cif.got.tgz:78200.got - 2010.04.10 20:52:16.
