data_PCOD8266225
_publ_section_title
;
Structure prediction by ZEFSAII (Michael W. Deem and Ramdas Pophale) SiO2 
 PCOD8266225
Probable space group: C M M M
;
_chemical_formula_sum "Si O2"
_cell_formula_units_Z 72
_cell_length_a 9.293423
_cell_length_b 25.288010
_cell_length_c 19.627198
_cell_angle_alpha 90.000000
_cell_angle_beta 90.000000
_cell_angle_gamma 90.000000
_cell_volume 4612.630467
_symmetry_space_group_name_H-M "C M M M"
_symmetry_group_IT_number 65
_symmetry_cell_setting 'orthorhombic'
loop_
_space_group_symop_operation_xyz
x,y,z
-x,-y,z
x,-y,-z
-x,y,-z
-x,-y,-z
x,y,-z
-x,y,z
x,-y,z
1/2+x,1/2+y,z
1/2-x,1/2-y,z
1/2+x,1/2-y,-z
1/2-x,1/2+y,-z
1/2-x,1/2-y,-z
1/2+x,1/2+y,-z
1/2-x,1/2+y,z
1/2+x,1/2-y,z
loop_
_atom_site_type_symbol
_atom_site_label
_atom_site_fract_x
_atom_site_fract_y
_atom_site_fract_z
Si Si1 0.670806 0.500000 0.423735
Si Si2 0.668940 0.395811 0.347114
Si Si3 0.331767 0.804056 0.421654
Si Si4 0.337503 0.062846 0.925567
Si Si5 0.666576 0.560112 0.202248
O O1 0.500000 0.500000 0.423229
O O2 0.733371 0.500000 0.500000
O O3 0.725864 0.447888 0.385634
O O4 0.500000 0.385667 0.361704
O O5 0.763377 0.347408 0.372595
O O6 0.699312 0.403351 0.267131
O O7 0.308129 0.821196 0.500000
O O8 0.500000 0.796989 0.405011
O O9 0.250000 0.750000 0.405987
O O10 0.500000 0.082323 0.914968
O O11 0.244145 0.085884 0.863420
O O12 0.328719 0.000000 0.923899
O O13 0.281269 0.082610 0.000000
O O14 0.500000 0.559612 0.184864
O O15 0.718903 0.500000 0.217319
#
# Coordination Sequence:
#
# PCOD8266225 Si02
#       5
#     8  16  16  16  16
#     4   9  16  26  43  65  88 119 154 182 215 265
#     4  10  18  30  47  68  93 121 153 187 224 271
#     4  10  21  36  52  69  88 113 149 193 238 279
#     4   8  14  24  37  54  79 114 154 189 220 259
#     4   9  16  26  40  61  90 120 151 185 220 262
#
# _framework density 15.609313999999999
#
# number of rings (size 3 to 8) (size 9 to 14) (size 15 to 20)
#    0.000    2.778    1.111    2.000    0.000    3.556 
#    0.000    2.778    0.000    2.000    0.000    0.000 
#    0.000    0.889    0.000    2.889    0.000    4.222 
#
# Total GULP energy -446256.996630 kJ/mol
# GULP energy per Si atom -12396.027684 kJ/mol
# Density = 1.557379 g / cm^3
# Si number density = 15.609314 Si / 1000 Ang^3
#
#
#
# Elastic Constant Matrix: (Units=GPa)
#
#
# Indices 1 2 3 4 5 6 
#
# 1 74.4923 44.4726 64.2610 0.0000 0.0000 0.0000
# 2 44.4726 71.6443 51.8604 0.0000 0.0000 0.0000
# 3 64.2610 51.8604 135.1368 0.0000 0.0000 0.0000
# 4 0.0000 0.0000 0.0000 10.1563 0.0000 0.0000
# 5 0.0000 0.0000 0.0000 0.0000 29.2623 0.0000
# 6 0.0000 0.0000 0.0000 0.0000 0.0000 21.9964
#
#
#
# Elastic Compliance Matrix: (Units=1/GPa)
#
#
# Indices 1 2 3 4 5 6 
#
# 1 0.027511 -0.010534 -0.009040 0.000000 0.000000 0.000000
# 2 -0.010534 0.023360 -0.003956 0.000000 0.000000 0.000000
# 3 -0.009040 -0.003956 0.013217 0.000000 0.000000 0.000000
# 4 0.000000 0.000000 0.000000 0.098461 0.000000 0.000000
# 5 0.000000 0.000000 0.000000 0.000000 0.034174 0.000000
# 6 0.000000 0.000000 0.000000 0.000000 0.000000 0.045462
#
#
# Mechanical properties :
#
#
# Convention : Reuss Voigt Hill
#
# Bulk Modulus (GPa) = 58.72221 66.94015 62.83118
# Shear Modulus (GPa) = 16.95378 20.32828 18.64103
#
# Velocity S-wave (km/s) = 3.29923 3.61268 3.45950
# Velocity P-wave (km/s) = 7.22598 7.77044 7.50315
#
# Compressibility (1/GPa) = 0.01702933
#
# Stress axis : x y z
#
# Youngs Moduli (GPa) = 36.34884 42.80850 75.66259
#
# Poissons Ratio (x) = 0.45093 0.68398
# Poissons Ratio (y) = 0.38289 0.29929
# Poissons Ratio (z) = 0.32859 0.16933
#
# Static dielectric constant tensor:
#      x y z
#    x 2.923300 0.000000 0.000000 
#    y 0.000000 2.651910 0.000000 
#    z 0.000000 0.000000 3.284370 
# 
# 
# High freq. dielectric constant tensor:
#      x y z
#    x 1.590590 0.000000 0.000000 
#    y 0.000000 1.552900 0.000000 
#    z 0.000000 0.000000 1.608140 
# 
# From -- ./inp_files/49470.got.cif
#   From: 2010.03.12/outbox.cif.g09.slc.cpg/sg65_25_cif.got.tgz:49470.got - 2010.04.10 20:52:16.
