data_PCOD8266288
_publ_section_title
;
Structure prediction by ZEFSAII (Michael W. Deem and Ramdas Pophale) SiO2 
 PCOD8266288
Probable space group: C M M M
;
_chemical_formula_sum "Si O2"
_cell_formula_units_Z 104
_cell_length_a 28.981059
_cell_length_b 9.154464
_cell_length_c 23.221006
_cell_angle_alpha 90.000000
_cell_angle_beta 90.000000
_cell_angle_gamma 90.000000
_cell_volume 6160.673641
_symmetry_space_group_name_H-M "C M M M"
_symmetry_group_IT_number 65
_symmetry_cell_setting 'orthorhombic'
loop_
_space_group_symop_operation_xyz
x,y,z
-x,-y,z
x,-y,-z
-x,y,-z
-x,-y,-z
x,y,-z
-x,y,z
x,-y,z
1/2+x,1/2+y,z
1/2-x,1/2-y,z
1/2+x,1/2-y,-z
1/2-x,1/2+y,-z
1/2-x,1/2-y,-z
1/2+x,1/2+y,-z
1/2-x,1/2+y,z
1/2+x,1/2-y,z
loop_
_atom_site_type_symbol
_atom_site_label
_atom_site_fract_x
_atom_site_fract_y
_atom_site_fract_z
Si Si1 0.295130 0.171529 0.385985
Si Si2 0.104922 0.328295 0.783721
Si Si3 0.945262 0.335151 0.000000
Si Si4 0.609467 0.173937 0.563795
Si Si5 0.448375 0.173617 0.669866
Si Si6 0.446241 0.671458 0.113856
Si Si7 0.205316 0.330810 0.746214
O O1 0.250000 0.250000 0.411322
O O2 0.339033 0.228312 0.421693
O O3 0.303113 0.216484 0.319663
O O4 0.288244 0.000000 0.392849
O O5 0.095834 0.500000 0.794329
O O6 0.081905 0.276180 0.724088
O O7 0.082814 0.234157 0.833806
O O8 0.159373 0.292501 0.782072
O O9 0.927760 0.249777 0.943727
O O10 0.925290 0.500000 0.000000
O O11 0.000000 0.337912 0.000000
O O12 0.595479 0.229649 0.500000
O O13 0.573795 0.237026 0.610981
O O14 0.608705 0.000000 0.566515
O O15 0.500000 0.236947 0.676032
O O16 0.449219 0.000000 0.666958
O O17 0.500000 0.705988 0.124682
O O18 0.437451 0.500000 0.107421
O O19 0.216463 0.500000 0.750061
O O20 0.250000 0.250000 0.772657
#
# Coordination Sequence:
#
# PCOD8266288 Si02
#       7
#    16  16   8  16  16  16  16
#     4   9  16  28  44  63  87 114 145 185 236 291
#     4  10  18  30  48  70  94 124 162 201 240 287
#     4   9  17  31  51  73 100 137 176 205 231 271
#     4   9  16  26  40  59  85 116 150 191 240 290
#     4   9  16  26  41  61  86 117 154 196 239 283
#     4  10  20  32  47  72 106 138 166 200 240 278
#     4   9  17  29  46  66  91 120 153 194 241 292
#
# _framework density 16.881271999999999
#
# number of rings (size 3 to 8) (size 9 to 14) (size 15 to 20)
#    0.000    2.692    1.538    1.154    0.000    3.692 
#    0.000    1.538    0.000    0.000    0.000    0.538 
#    0.000    0.000    0.000    4.615    0.000    4.615 
#
# Total GULP energy -644685.372127 kJ/mol
# GULP energy per Si atom -12397.795618 kJ/mol
# Density = 1.684285 g / cm^3
# Si number density = 16.881272 Si / 1000 Ang^3
#
#
#
# Elastic Constant Matrix: (Units=GPa)
#
#
# Indices 1 2 3 4 5 6 
#
# 1 110.1944 37.3889 56.7616 0.0000 0.0000 0.0000
# 2 37.3889 48.9914 42.4015 0.0000 0.0000 0.0000
# 3 56.7616 42.4015 121.5748 0.0000 0.0000 0.0000
# 4 0.0000 0.0000 0.0000 13.6840 0.0000 0.0000
# 5 0.0000 0.0000 0.0000 0.0000 18.1321 0.0000
# 6 0.0000 0.0000 0.0000 0.0000 0.0000 23.5858
#
#
#
# Elastic Compliance Matrix: (Units=1/GPa)
#
#
# Indices 1 2 3 4 5 6 
#
# 1 0.013397 -0.006891 -0.003852 0.000000 0.000000 0.000000
# 2 -0.006891 0.032781 -0.008216 0.000000 0.000000 0.000000
# 3 -0.003852 -0.008216 0.012889 0.000000 0.000000 0.000000
# 4 0.000000 0.000000 0.000000 0.073078 0.000000 0.000000
# 5 0.000000 0.000000 0.000000 0.000000 0.055151 0.000000
# 6 0.000000 0.000000 0.000000 0.000000 0.000000 0.042398
#
#
# Mechanical properties :
#
#
# Convention : Reuss Voigt Hill
#
# Bulk Modulus (GPa) = 47.27919 61.54050 54.40985
# Shear Modulus (GPa) = 18.20428 20.69431 19.44929
#
# Velocity S-wave (km/s) = 3.28742 3.50505 3.39798
# Velocity P-wave (km/s) = 6.51745 7.27424 6.90622
#
# Compressibility (1/GPa) = 0.02115095
#
# Stress axis : x y z
#
# Youngs Moduli (GPa) = 74.64469 30.50521 77.58503
#
# Poissons Ratio (x) = 0.21020 0.29882
# Poissons Ratio (y) = 0.51435 0.63743
# Poissons Ratio (z) = 0.28750 0.25063
#
# Static dielectric constant tensor:
#      x y z
#    x 3.265920 0.000000 0.000000 
#    y 0.000000 2.885320 0.000000 
#    z 0.000000 0.000000 3.171480 
# 
# 
# High freq. dielectric constant tensor:
#      x y z
#    x 1.644970 0.000000 0.000000 
#    y 0.000000 1.618390 0.000000 
#    z 0.000000 0.000000 1.641390 
# 
# From -- ./inp_files/66344.got.cif
#   From: 2010.03.12/outbox.cif.g09.slc.cpg/sg65_34_cif.got.tgz:66344.got - 2010.04.10 20:52:16.
