data_PCOD8266027
_publ_section_title
;
Structure prediction by ZEFSAII (Michael W. Deem and Ramdas Pophale) SiO2 
 PCOD8266027
Probable space group: C M M M
;
_chemical_formula_sum "Si O2"
_cell_formula_units_Z 88
_cell_length_a 9.065562
_cell_length_b 27.394742
_cell_length_c 21.413785
_cell_angle_alpha 90.000000
_cell_angle_beta 90.000000
_cell_angle_gamma 90.000000
_cell_volume 5318.086354
_symmetry_space_group_name_H-M "C M M M"
_symmetry_group_IT_number 65
_symmetry_cell_setting 'orthorhombic'
loop_
_space_group_symop_operation_xyz
x,y,z
-x,-y,z
x,-y,-z
-x,y,-z
-x,-y,-z
x,y,-z
-x,y,z
x,-y,z
1/2+x,1/2+y,z
1/2-x,1/2-y,z
1/2+x,1/2-y,-z
1/2-x,1/2+y,-z
1/2-x,1/2-y,-z
1/2+x,1/2+y,-z
1/2-x,1/2+y,z
1/2+x,1/2-y,z
loop_
_atom_site_type_symbol
_atom_site_label
_atom_site_fract_x
_atom_site_fract_y
_atom_site_fract_z
Si Si1 0.172479 0.859593 0.756863
Si Si2 0.330807 0.885525 0.430129
Si Si3 0.171494 0.800991 0.633174
Si Si4 0.172082 0.444234 0.689770
Si Si5 0.826339 0.697289 0.864294
Si Si6 0.832484 0.700363 0.000000
O O1 0.206004 0.821279 0.702002
O O2 0.234446 0.912591 0.738592
O O3 0.256289 0.841588 0.817961
O O4 0.000000 0.864199 0.770937
O O5 0.300130 0.905320 0.500000
O O6 0.500000 0.869253 0.421965
O O7 0.231072 0.838270 0.418451
O O8 0.291473 0.928269 0.381301
O O9 0.250000 0.750000 0.624272
O O10 0.000000 0.793523 0.621832
O O11 0.221443 0.500000 0.697513
O O12 0.000000 0.437111 0.704653
O O13 0.750000 0.750000 0.856556
O O14 0.000000 0.703485 0.850214
O O15 0.797431 0.673785 0.933915
O O16 0.750000 0.750000 0.000000
O O17 0.000000 0.716285 0.000000
#
# Coordination Sequence:
#
# PCOD8266027 Si02
#       6
#    16  16  16  16  16   8
#     4  10  20  32  47  69  94 122 157 194 232 274
#     4   9  18  32  49  69  92 117 147 184 226 275
#     4  10  20  32  46  64  89 121 155 190 226 267
#     4   9  18  33  52  72  93 117 147 187 235 283
#     4  10  18  29  46  69  99 132 163 193 226 266
#     4   8  16  28  42  64  95 130 163 192 222 261
#
# _framework density 16.547307
#
# number of rings (size 3 to 8) (size 9 to 14) (size 15 to 20)
#    0.000    2.545    0.000    2.182    0.000    5.818 
#    0.000    1.818    0.000    0.000    0.000    5.727 
#    0.000    5.091    0.000    0.000    0.000    0.000 
#
# Total GULP energy -545437.228558 kJ/mol
# GULP energy per Si atom -12396.300649 kJ/mol
# Density = 1.650964 g / cm^3
# Si number density = 16.547307 Si / 1000 Ang^3
#
#
#
# Elastic Constant Matrix: (Units=GPa)
#
#
# Indices 1 2 3 4 5 6 
#
# 1 77.0438 45.4358 53.7521 0.0000 0.0000 0.0000
# 2 45.4358 100.6330 51.4584 0.0000 0.0000 0.0000
# 3 53.7521 51.4584 125.9148 0.0000 0.0000 0.0000
# 4 0.0000 0.0000 0.0000 15.3955 0.0000 0.0000
# 5 0.0000 0.0000 0.0000 0.0000 23.1591 0.0000
# 6 0.0000 0.0000 0.0000 0.0000 0.0000 25.3307
#
#
#
# Elastic Compliance Matrix: (Units=1/GPa)
#
#
# Indices 1 2 3 4 5 6 
#
# 1 0.021196 -0.006249 -0.006495 0.000000 0.000000 0.000000
# 2 -0.006249 0.014405 -0.003219 0.000000 0.000000 0.000000
# 3 -0.006495 -0.003219 0.012030 0.000000 0.000000 0.000000
# 4 0.000000 0.000000 0.000000 0.064954 0.000000 0.000000
# 5 0.000000 0.000000 0.000000 0.000000 0.043180 0.000000
# 6 0.000000 0.000000 0.000000 0.000000 0.000000 0.039478
#
#
# Mechanical properties :
#
#
# Convention : Reuss Voigt Hill
#
# Bulk Modulus (GPa) = 63.67368 67.20935 65.44152
# Shear Modulus (GPa) = 21.51438 22.97342 22.24390
#
# Velocity S-wave (km/s) = 3.60970 3.73010 3.67039
# Velocity P-wave (km/s) = 7.47908 7.69780 7.58923
#
# Compressibility (1/GPa) = 0.01570508
#
# Stress axis : x y z
#
# Youngs Moduli (GPa) = 47.17843 69.42199 83.12567
#
# Poissons Ratio (x) = 0.43382 0.53987
# Poissons Ratio (y) = 0.29482 0.26760
# Poissons Ratio (z) = 0.30641 0.22348
#
# Static dielectric constant tensor:
#      x y z
#    x 3.215710 0.000000 0.000000 
#    y 0.000000 2.887350 0.000000 
#    z 0.000000 0.000000 0.871250 
# 
# 
# High freq. dielectric constant tensor:
#      x y z
#    x 1.648550 0.000000 0.000000 
#    y 0.000000 1.608080 0.000000 
#    z 0.000000 0.000000 1.638800 
# 
# From -- ./inp_files/59831.got.cif
#   From: 2010.03.12/outbox.cif.g09.slc.cpg/sg65_30_cif.got.tgz:59831.got - 2010.04.10 20:52:16.
