data_PCOD8266425
_publ_section_title
;
Structure prediction by ZEFSAII (Michael W. Deem and Ramdas Pophale) SiO2 
 PCOD8266425
Probable space group: C M M M
;
_chemical_formula_sum "Si O2"
_cell_formula_units_Z 104
_cell_length_a 21.826417
_cell_length_b 18.184839
_cell_length_c 14.016327
_cell_angle_alpha 90.000000
_cell_angle_beta 90.000000
_cell_angle_gamma 90.000000
_cell_volume 5563.218655
_symmetry_space_group_name_H-M "C M M M"
_symmetry_group_IT_number 65
_symmetry_cell_setting 'orthorhombic'
loop_
_space_group_symop_operation_xyz
x,y,z
-x,-y,z
x,-y,-z
-x,y,-z
-x,-y,-z
x,y,-z
-x,y,z
x,-y,z
1/2+x,1/2+y,z
1/2-x,1/2-y,z
1/2+x,1/2-y,-z
1/2-x,1/2+y,-z
1/2-x,1/2-y,-z
1/2+x,1/2+y,-z
1/2-x,1/2+y,z
1/2+x,1/2-y,z
loop_
_atom_site_type_symbol
_atom_site_label
_atom_site_fract_x
_atom_site_fract_y
_atom_site_fract_z
Si Si1 0.173512 0.914862 0.734562
Si Si2 0.431933 0.412474 0.605025
Si Si3 0.429155 0.198713 0.889428
Si Si4 0.785587 0.585106 0.394002
Si Si5 0.500000 0.913209 0.603854
Si Si6 0.811205 0.203405 0.889613
Si Si7 0.891994 0.413107 0.736541
O O1 0.109803 0.884107 0.691954
O O2 0.217665 0.903254 0.644153
O O3 0.193215 0.870226 0.827471
O O4 0.171233 0.000000 0.765918
O O5 0.411264 0.383584 0.500000
O O6 0.500000 0.384038 0.627377
O O7 0.429121 0.500000 0.603217
O O8 0.500000 0.222912 0.863314
O O9 0.376755 0.258871 0.865073
O O10 0.408455 0.124987 0.835794
O O11 0.425957 0.178613 0.000000
O O12 0.792501 0.621606 0.500000
O O13 0.802856 0.500000 0.405030
O O14 0.829605 0.617326 0.311278
O O15 0.500000 0.875654 0.500000
O O16 0.440914 0.886804 0.659476
O O17 0.500000 0.000000 0.593455
O O18 0.750000 0.250000 0.865267
O O19 0.809806 0.180221 0.000000
O O20 0.891499 0.500000 0.756935
#
# Coordination Sequence:
#
# PCOD8266425 Si02
#       7
#    16  16  16  16   8  16  16
#     4  10  19  32  55  84 105 129 172 223 266 303
#     4   8  14  26  47  77 110 139 168 207 258 314
#     4  10  21  37  56  77 103 140 183 222 267 322
#     4   9  17  29  48  77 110 139 170 210 255 309
#     4   9  16  26  43  69 101 137 173 208 250 300
#     4  10  22  40  58  76 103 141 178 211 263 333
#     4  10  18  30  50  78 107 138 178 222 260 295
#
# _framework density 18.694213999999999
#
# number of rings (size 3 to 8) (size 9 to 14) (size 15 to 20)
#    0.000    2.538    0.769    2.308    0.000    4.923 
#    0.000    0.769    0.000   15.692    0.000    4.308 
#    0.000    0.000    0.000    0.000    0.000    0.000 
#
# Total GULP energy -644267.550649 kJ/mol
# GULP energy per Si atom -12389.760589 kJ/mol
# Density = 1.865166 g / cm^3
# Si number density = 18.694214 Si / 1000 Ang^3
#
#
#
# Elastic Constant Matrix: (Units=GPa)
#
#
# Indices 1 2 3 4 5 6 
#
# 1 120.7373 36.2401 47.6122 0.0000 0.0000 0.0000
# 2 36.2401 51.5079 49.8309 0.0000 0.0000 0.0000
# 3 47.6122 49.8309 101.7907 0.0000 0.0000 0.0000
# 4 0.0000 0.0000 0.0000 15.0979 0.0000 0.0000
# 5 0.0000 0.0000 0.0000 0.0000 28.5915 0.0000
# 6 0.0000 0.0000 0.0000 0.0000 0.0000 14.9132
#
#
#
# Elastic Compliance Matrix: (Units=1/GPa)
#
#
# Indices 1 2 3 4 5 6 
#
# 1 0.010834 -0.005167 -0.002538 0.000000 0.000000 0.000000
# 2 -0.005167 0.039346 -0.016845 0.000000 0.000000 0.000000
# 3 -0.002538 -0.016845 0.019257 0.000000 0.000000 0.000000
# 4 0.000000 0.000000 0.000000 0.066234 0.000000 0.000000
# 5 0.000000 0.000000 0.000000 0.000000 0.034975 0.000000
# 6 0.000000 0.000000 0.000000 0.000000 0.000000 0.067055
#
#
# Mechanical properties :
#
#
# Convention : Reuss Voigt Hill
#
# Bulk Modulus (GPa) = 49.16940 60.15581 54.66260
# Shear Modulus (GPa) = 17.03100 21.07738 19.05419
#
# Velocity S-wave (km/s) = 3.02160 3.36144 3.19604
# Velocity P-wave (km/s) = 6.20745 6.87855 6.55160
#
# Compressibility (1/GPa) = 0.02033785
#
# Stress axis : x y z
#
# Youngs Moduli (GPa) = 92.29897 25.41523 51.92797
#
# Poissons Ratio (x) = 0.13133 0.13180
# Poissons Ratio (y) = 0.47695 0.87471
# Poissons Ratio (z) = 0.23426 0.42811
#
# Static dielectric constant tensor:
#      x y z
#    x 3.845100 0.000000 0.000000 
#    y 0.000000 2.895890 0.000000 
#    z 0.000000 0.000000 3.525670 
# 
# 
# High freq. dielectric constant tensor:
#      x y z
#    x 1.747930 0.000000 0.000000 
#    y 0.000000 1.668700 0.000000 
#    z 0.000000 0.000000 1.732740 
# 
# From -- ./inp_files/44445.got.cif
#   From: 2010.03.12/outbox.cif.g09.slc.cpg/sg65_23_cif.got.tgz:44445.got - 2010.04.10 20:52:16.
