data_PCOD8266451
_publ_section_title
;
Structure prediction by ZEFSAII (Michael W. Deem and Ramdas Pophale) SiO2 
 PCOD8266451
Probable space group: C M M M
;
_chemical_formula_sum "Si O2"
_cell_formula_units_Z 104
_cell_length_a 26.435235
_cell_length_b 9.026401
_cell_length_c 24.357774
_cell_angle_alpha 90.000000
_cell_angle_beta 90.000000
_cell_angle_gamma 90.000000
_cell_volume 5812.131014
_symmetry_space_group_name_H-M "C M M M"
_symmetry_group_IT_number 65
_symmetry_cell_setting 'orthorhombic'
loop_
_space_group_symop_operation_xyz
x,y,z
-x,-y,z
x,-y,-z
-x,y,-z
-x,-y,-z
x,y,-z
-x,y,z
x,-y,z
1/2+x,1/2+y,z
1/2-x,1/2-y,z
1/2+x,1/2-y,-z
1/2-x,1/2+y,-z
1/2-x,1/2-y,-z
1/2+x,1/2+y,-z
1/2-x,1/2+y,z
1/2+x,1/2-y,z
loop_
_atom_site_type_symbol
_atom_site_label
_atom_site_fract_x
_atom_site_fract_y
_atom_site_fract_z
Si Si1 0.940746 0.673881 0.267649
Si Si2 0.098035 0.824006 0.373027
Si Si3 0.297998 0.665459 0.064965
Si Si4 0.557851 0.662736 0.839535
Si Si5 0.000000 0.175915 0.561146
Si Si6 0.301443 0.325900 0.563050
Si Si7 0.399785 0.825159 0.062672
O O1 0.931105 0.500000 0.266068
O O2 0.906208 0.746886 0.314246
O O3 0.919627 0.741186 0.210457
O O4 0.000000 0.710051 0.277730
O O5 0.150332 0.772921 0.401485
O O6 0.050615 0.767237 0.409003
O O7 0.096221 0.000000 0.365473
O O8 0.302041 0.500000 0.089851
O O9 0.250000 0.750000 0.090583
O O10 0.345959 0.762391 0.081567
O O11 0.292416 0.654985 0.000000
O O12 0.500000 0.638066 0.825836
O O13 0.584209 0.500000 0.843603
O O14 0.560163 0.750452 0.897051
O O15 0.000000 0.242577 0.500000
O O16 0.000000 0.000000 0.559046
O O17 0.311702 0.279991 0.500000
O O18 0.293950 0.500000 0.568643
O O19 0.250000 0.250000 0.585054
O O20 0.400129 0.000000 0.069891
O O21 0.412795 0.780526 0.000000
#
# Coordination Sequence:
#
# PCOD8266451 Si02
#       7
#    16  16  16  16   8  16  16
#     4  10  20  34  52  74 101 131 166 207 256 314
#     4  10  18  30  51  76 102 134 174 216 257 306
#     4   9  16  27  45  69  97 128 162 199 240 290
#     4  10  21  36  54  74  98 131 172 214 255 303
#     4   9  16  26  45  75 107 135 164 205 254 301
#     4   9  18  32  50  74 104 140 182 222 259 304
#     4  10  20  33  50  74 104 135 167 205 254 311
#
# _framework density 17.893609999999999
#
# number of rings (size 3 to 8) (size 9 to 14) (size 15 to 20)
#    0.000    2.385    0.769    2.308    0.000    7.077 
#    0.000    1.538    0.000    2.769    0.000    4.308 
#    0.000    0.000    0.000    0.000    0.000    0.000 
#
# Total GULP energy -644690.945515 kJ/mol
# GULP energy per Si atom -12397.902798 kJ/mol
# Density = 1.785288 g / cm^3
# Si number density = 17.893610 Si / 1000 Ang^3
#
#
#
# Elastic Constant Matrix: (Units=GPa)
#
#
# Indices 1 2 3 4 5 6 
#
# 1 91.1035 36.4815 48.8488 0.0000 0.0000 0.0000
# 2 36.4815 86.6540 51.6855 0.0000 0.0000 0.0000
# 3 48.8488 51.6855 116.5830 0.0000 0.0000 0.0000
# 4 0.0000 0.0000 0.0000 24.9501 0.0000 0.0000
# 5 0.0000 0.0000 0.0000 0.0000 20.9702 0.0000
# 6 0.0000 0.0000 0.0000 0.0000 0.0000 28.5704
#
#
#
# Elastic Compliance Matrix: (Units=1/GPa)
#
#
# Indices 1 2 3 4 5 6 
#
# 1 0.014884 -0.003462 -0.004702 0.000000 0.000000 0.000000
# 2 -0.003462 0.016494 -0.005862 0.000000 0.000000 0.000000
# 3 -0.004702 -0.005862 0.013146 0.000000 0.000000 0.000000
# 4 0.000000 0.000000 0.000000 0.040080 0.000000 0.000000
# 5 0.000000 0.000000 0.000000 0.000000 0.047687 0.000000
# 6 0.000000 0.000000 0.000000 0.000000 0.000000 0.035001
#
#
# Mechanical properties :
#
#
# Convention : Reuss Voigt Hill
#
# Bulk Modulus (GPa) = 60.70354 63.15247 61.92801
# Shear Modulus (GPa) = 24.89623 25.38645 25.14134
#
# Velocity S-wave (km/s) = 3.73412 3.77071 3.75246
# Velocity P-wave (km/s) = 7.25189 7.37072 7.31155
#
# Compressibility (1/GPa) = 0.01647350
#
# Stress axis : x y z
#
# Youngs Moduli (GPa) = 67.18749 60.62843 76.06666
#
# Poissons Ratio (x) = 0.20988 0.35764
# Poissons Ratio (y) = 0.23259 0.44589
# Poissons Ratio (z) = 0.31589 0.35540
#
# Static dielectric constant tensor:
#      x y z
#    x 3.252880 0.000000 0.000000 
#    y 0.000000 3.370650 0.000000 
#    z 0.000000 0.000000 3.200720 
# 
# 
# High freq. dielectric constant tensor:
#      x y z
#    x 1.677240 0.000000 0.000000 
#    y 0.000000 1.694800 0.000000 
#    z 0.000000 0.000000 1.675450 
# 
# From -- ./inp_files/71851.got.cif
#   From: 2010.03.12/outbox.cif.g09.slc.cpg/sg65_36_cif.got.tgz:71851.got - 2010.04.10 20:52:16.
