data_PCOD8266774
_publ_section_title
;
Structure prediction by ZEFSAII (Michael W. Deem and Ramdas Pophale) SiO2 
 PCOD8266774
Probable space group: C M M M
;
_chemical_formula_sum "Si O2"
_cell_formula_units_Z 104
_cell_length_a 8.556003
_cell_length_b 29.104012
_cell_length_c 23.535852
_cell_angle_alpha 90.000000
_cell_angle_beta 90.000000
_cell_angle_gamma 90.000000
_cell_volume 5860.756979
_symmetry_space_group_name_H-M "C M M M"
_symmetry_group_IT_number 65
_symmetry_cell_setting 'orthorhombic'
loop_
_space_group_symop_operation_xyz
x,y,z
-x,-y,z
x,-y,-z
-x,y,-z
-x,-y,-z
x,y,-z
-x,y,z
x,-y,z
1/2+x,1/2+y,z
1/2-x,1/2-y,z
1/2+x,1/2-y,-z
1/2-x,1/2+y,-z
1/2-x,1/2-y,-z
1/2+x,1/2+y,-z
1/2-x,1/2+y,z
1/2+x,1/2-y,z
loop_
_atom_site_type_symbol
_atom_site_label
_atom_site_fract_x
_atom_site_fract_y
_atom_site_fract_z
Si Si1 0.186558 0.301064 0.329676
Si Si2 0.319015 0.050926 0.618130
Si Si3 0.185689 0.146293 0.221124
Si Si4 0.684729 0.698870 0.000000
Si Si5 0.684784 0.142729 0.562053
Si Si6 0.316333 0.800663 0.884474
Si Si7 0.183380 0.950310 0.260027
O O1 0.250000 0.250000 0.327615
O O2 0.260237 0.328782 0.278029
O O3 0.247536 0.323812 0.388513
O O4 0.000000 0.301928 0.324500
O O5 0.500000 0.057108 0.634458
O O6 0.266308 0.089763 0.573546
O O7 0.221749 0.058946 0.674742
O O8 0.287750 0.000000 0.592338
O O9 0.271558 0.167385 0.167513
O O10 0.241892 0.092927 0.222969
O O11 0.000000 0.151502 0.214772
O O12 0.750000 0.750000 0.000000
O O13 0.747919 0.675763 0.942024
O O14 0.500000 0.698052 0.000000
O O15 0.754049 0.156682 0.500000
O O16 0.500000 0.146830 0.560243
O O17 0.500000 0.796522 0.890369
O O18 0.250000 0.750000 0.873668
O O19 0.000000 0.953018 0.254013
O O20 0.255732 0.000000 0.240322
#
# Coordination Sequence:
#
# PCOD8266774 Si02
#       7
#    16  16  16   8  16  16  16
#     4  11  22  36  52  70  95 127 165 210 259 305
#     4   9  16  28  49  74  97 122 155 196 246 305
#     4  11  21  34  53  77 104 133 169 209 253 302
#     4  10  18  32  52  76 109 146 183 216 252 293
#     4   9  18  32  49  70  96 125 160 203 251 305
#     4  11  21  34  52  77 110 145 181 215 253 295
#     4   9  18  32  51  74 101 131 161 199 250 305
#
# _framework density 17.745149000000001
#
# number of rings (size 3 to 8) (size 9 to 14) (size 15 to 20)
#    0.000    2.000    1.538    4.385    0.000    1.231 
#    0.000    1.538    0.000    3.692    0.000    2.692 
#    0.000    4.308    0.000    0.000    0.000    0.000 
#
# Total GULP energy -644480.178691 kJ/mol
# GULP energy per Si atom -12393.849590 kJ/mol
# Density = 1.770476 g / cm^3
# Si number density = 17.745149 Si / 1000 Ang^3
#
#
#
# Elastic Constant Matrix: (Units=GPa)
#
#
# Indices 1 2 3 4 5 6 
#
# 1 65.2137 33.7533 31.7473 0.0000 0.0000 0.0000
# 2 33.7533 109.0786 55.8716 0.0000 0.0000 0.0000
# 3 31.7473 55.8716 126.7269 0.0000 0.0000 0.0000
# 4 0.0000 0.0000 0.0000 -62.0541 0.0000 0.0000
# 5 0.0000 0.0000 0.0000 0.0000 20.3730 0.0000
# 6 0.0000 0.0000 0.0000 0.0000 0.0000 7.9877
#
#
#
# Elastic Compliance Matrix: (Units=1/GPa)
#
#
# Indices 1 2 3 4 5 6 
#
# 1 0.018998 -0.004445 -0.002800 0.000000 0.000000 0.000000
# 2 -0.004445 0.012882 -0.004566 0.000000 0.000000 0.000000
# 3 -0.002800 -0.004566 0.010605 0.000000 0.000000 0.000000
# 4 0.000000 0.000000 0.000000 -0.016115 0.000000 0.000000
# 5 0.000000 0.000000 0.000000 0.000000 0.049085 0.000000
# 6 0.000000 0.000000 0.000000 0.000000 0.000000 0.125192
#
#
# Mechanical properties :
#
#
# Convention : Reuss Voigt Hill
#
# Bulk Modulus (GPa) = 53.00991 60.41816 56.71404
# Shear Modulus (GPa) = 21.68679 5.23779 13.46229
#
# Velocity S-wave (km/s) = 3.49968 1.71991 2.75734
# Velocity P-wave (km/s) = 6.80207 6.16974 6.49361
#
# Compressibility (1/GPa) = 0.01886440
#
# Stress axis : x y z
#
# Youngs Moduli (GPa) = 52.63830 77.62927 94.29181
#
# Poissons Ratio (x) = 0.34503 0.26399
# Poissons Ratio (y) = 0.23395 0.43053
# Poissons Ratio (z) = 0.14737 0.35445
#
# Static dielectric constant tensor:
#      x y z
#    x 3.222930 0.000000 0.000000 
#    y 0.000000 3.629480 0.000000 
#    z 0.000000 0.000000 3.686550 
# 
# 
# High freq. dielectric constant tensor:
#      x y z
#    x 1.681130 0.000000 0.000000 
#    y 0.000000 1.682990 0.000000 
#    z 0.000000 0.000000 1.676750 
# 
# From -- ./inp_files/60886.got.cif
#   From: 2010.03.12/outbox.cif.g09.slc.cpg/sg65_31_cif.got.tgz:60886.got - 2010.04.10 20:52:16.
