data_PCOD8266174
_publ_section_title
;
Structure prediction by ZEFSAII (Michael W. Deem and Ramdas Pophale) SiO2 
 PCOD8266174
Probable space group: C M M M
;
_chemical_formula_sum "Si O2"
_cell_formula_units_Z 120
_cell_length_a 21.590452
_cell_length_b 25.191556
_cell_length_c 13.718139
_cell_angle_alpha 90.000000
_cell_angle_beta 90.000000
_cell_angle_gamma 90.000000
_cell_volume 7461.255754
_symmetry_space_group_name_H-M "C M M M"
_symmetry_group_IT_number 65
_symmetry_cell_setting 'orthorhombic'
loop_
_space_group_symop_operation_xyz
x,y,z
-x,-y,z
x,-y,-z
-x,y,-z
-x,-y,-z
x,y,-z
-x,y,z
x,-y,z
1/2+x,1/2+y,z
1/2-x,1/2-y,z
1/2+x,1/2-y,-z
1/2-x,1/2+y,-z
1/2-x,1/2-y,-z
1/2+x,1/2+y,-z
1/2-x,1/2+y,z
1/2+x,1/2-y,z
loop_
_atom_site_type_symbol
_atom_site_label
_atom_site_fract_x
_atom_site_fract_y
_atom_site_fract_z
Si Si1 0.571218 0.000000 0.615805
Si Si2 0.188901 0.715583 0.107021
Si Si3 0.813873 0.938854 0.892725
Si Si4 0.141225 0.607279 0.614892
Si Si5 0.632417 0.294358 0.244750
Si Si6 0.929333 0.285411 0.385538
Si Si7 0.752432 0.637481 0.246978
Si Si8 0.069456 0.124365 0.109213
O O1 0.607260 0.946761 0.652254
O O2 0.500000 0.000000 0.655576
O O3 0.568890 0.000000 0.500000
O O4 0.250000 0.750000 0.095341
O O5 0.138158 0.751013 0.160012
O O6 0.200041 0.663890 0.171814
O O7 0.164722 0.698487 0.000000
O O8 0.776180 0.912285 0.807108
O O9 0.886604 0.926636 0.881567
O O10 0.802305 0.000000 0.880803
O O11 0.791317 0.918976 0.000000
O O12 0.151559 0.603859 0.500000
O O13 0.100163 0.658197 0.644247
O O14 0.209473 0.615220 0.661053
O O15 0.604935 0.265226 0.338857
O O16 0.697998 0.321034 0.276950
O O17 0.585554 0.336069 0.197289
O O18 0.924223 0.276523 0.500000
O O19 0.000000 0.286533 0.349790
O O20 0.000000 0.104188 0.124936
O O21 0.077474 0.149981 0.000000
#
# Coordination Sequence:
#
# PCOD8266174 Si02
#       8
#     8  16  16  16  16  16  16  16
#     4   9  18  34  54  72  91 117 152 195 239 279
#     4   9  16  27  44  65  91 123 154 182 216 266
#     4   9  18  31  47  68  94 123 157 198 237 279
#     4  10  20  33  50  73  96 119 152 194 238 283
#     4  10  18  30  45  68  98 128 157 187 227 276
#     4  10  20  33  49  69  94 124 158 195 233 276
#     4  10  19  30  46  70  98 125 154 188 233 282
#     4   9  17  29  46  68  94 125 159 195 235 275
#
# _framework density 16.083083999999999
#
# number of rings (size 3 to 8) (size 9 to 14) (size 15 to 20)
#    0.000    2.467    1.333    1.600    0.933    5.600 
#    0.000    2.667    0.000    0.000    0.000    0.000 
#    0.000    2.133    0.000   14.133    0.000    0.267 
#
# Total GULP energy -743613.547680 kJ/mol
# GULP energy per Si atom -12393.559128 kJ/mol
# Density = 1.604648 g / cm^3
# Si number density = 16.083084 Si / 1000 Ang^3
#
#
#
# Elastic Constant Matrix: (Units=GPa)
#
#
# Indices 1 2 3 4 5 6 
#
# 1 92.6348 33.2159 39.6461 0.0000 0.0000 0.0000
# 2 33.2159 58.4102 30.5103 0.0000 0.0000 0.0000
# 3 39.6461 30.5103 54.4620 0.0000 0.0000 0.0000
# 4 0.0000 0.0000 0.0000 23.1676 0.0000 0.0000
# 5 0.0000 0.0000 0.0000 0.0000 25.5125 0.0000
# 6 0.0000 0.0000 0.0000 0.0000 0.0000 19.7112
#
#
#
# Elastic Compliance Matrix: (Units=1/GPa)
#
#
# Indices 1 2 3 4 5 6 
#
# 1 0.016436 -0.004378 -0.009512 0.000000 0.000000 0.000000
# 2 -0.004378 0.025369 -0.011025 0.000000 0.000000 0.000000
# 3 -0.009512 -0.011025 0.031462 0.000000 0.000000 0.000000
# 4 0.000000 0.000000 0.000000 0.043164 0.000000 0.000000
# 5 0.000000 0.000000 0.000000 0.000000 0.039197 0.000000
# 6 0.000000 0.000000 0.000000 0.000000 0.000000 0.050732
#
#
# Mechanical properties :
#
#
# Convention : Reuss Voigt Hill
#
# Bulk Modulus (GPa) = 42.66784 45.80573 44.23679
# Shear Modulus (GPa) = 18.93930 20.48725 19.71327
#
# Velocity S-wave (km/s) = 3.43533 3.57296 3.50482
# Velocity P-wave (km/s) = 6.50558 6.75010 6.62897
#
# Compressibility (1/GPa) = 0.02343685
#
# Stress axis : x y z
#
# Youngs Moduli (GPa) = 60.84259 39.41867 31.78427
#
# Poissons Ratio (x) = 0.17257 0.30233
# Poissons Ratio (y) = 0.26637 0.35042
# Poissons Ratio (z) = 0.57874 0.43459
#
# Static dielectric constant tensor:
#      x y z
#    x 3.038970 0.000000 0.000000 
#    y 0.000000 3.042680 0.000000 
#    z 0.000000 0.000000 2.998460 
# 
# 
# High freq. dielectric constant tensor:
#      x y z
#    x 1.612610 0.000000 0.000000 
#    y 0.000000 1.615180 0.000000 
#    z 0.000000 0.000000 1.603920 
# 
# From -- ./inp_files/44808.got.cif
#   From: 2010.03.12/outbox.cif.g09.slc.cpg/sg65_23_cif.got.tgz:44808.got - 2010.04.10 20:52:16.
