data_PCOD8266689
_publ_section_title
;
Structure prediction by ZEFSAII (Michael W. Deem and Ramdas Pophale) SiO2 
 PCOD8266689
Probable space group: C M M M
;
_chemical_formula_sum "Si O2"
_cell_formula_units_Z 64
_cell_length_a 8.658560
_cell_length_b 15.299528
_cell_length_c 23.985081
_cell_angle_alpha 90.000000
_cell_angle_beta 90.000000
_cell_angle_gamma 90.000000
_cell_volume 3177.348800
_symmetry_space_group_name_H-M "C M M M"
_symmetry_group_IT_number 65
_symmetry_cell_setting 'orthorhombic'
loop_
_space_group_symop_operation_xyz
x,y,z
-x,-y,z
x,-y,-z
-x,y,-z
-x,-y,-z
x,y,-z
-x,y,z
x,-y,z
1/2+x,1/2+y,z
1/2-x,1/2-y,z
1/2+x,1/2-y,-z
1/2-x,1/2+y,-z
1/2-x,1/2-y,-z
1/2+x,1/2+y,-z
1/2-x,1/2+y,z
1/2+x,1/2-y,z
loop_
_atom_site_type_symbol
_atom_site_label
_atom_site_fract_x
_atom_site_fract_y
_atom_site_fract_z
Si Si1 0.683433 0.097722 0.000000
Si Si2 0.819515 0.000000 0.185188
Si Si3 0.819179 0.345340 0.612744
Si Si4 0.682933 0.653518 0.500000
Si Si5 0.183046 0.659456 0.881238
Si Si6 0.321236 0.000000 0.696320
O O1 0.743963 0.145895 0.055425
O O2 0.500000 0.093891 0.000000
O O3 0.751552 0.000000 0.000000
O O4 0.743477 0.084772 0.158727
O O5 0.789179 0.000000 0.250744
O O6 0.000000 0.000000 0.172949
O O7 0.750000 0.250000 0.627214
O O8 0.745846 0.389396 0.556982
O O9 0.782622 0.412271 0.662222
O O10 0.000000 0.333702 0.602761
O O11 0.500000 0.651082 0.500000
O O12 0.750000 0.750000 0.500000
O O13 0.250000 0.750000 0.858410
O O14 0.000000 0.660034 0.878780
O O15 0.500000 0.000000 0.714712
#
# Coordination Sequence:
#
# PCOD8266689 Si02
#       6
#     8   8  16   8  16   8
#     4   9  17  34  62  93 124 162 196 239 300 355
#     4  12  26  43  62  87 119 158 206 254 303 356
#     4  10  20  37  60  86 116 151 192 238 292 351
#     4  10  18  31  54  85 120 154 188 231 287 347
#     4  11  22  40  65  92 125 160 201 247 299 359
#     4  10  24  43  62  83 113 156 200 246 301 356
#
# _framework density 20.142578
#
# number of rings (size 3 to 8) (size 9 to 14) (size 15 to 20)
#    0.000    1.625    1.250    5.625    0.000    3.500 
#    0.000    7.500    0.000    0.000    0.000    0.000 
#    0.000    0.000    0.000    0.000    0.000    0.000 
#
# Total GULP energy -396815.831825 kJ/mol
# GULP energy per Si atom -12400.494745 kJ/mol
# Density = 2.009673 g / cm^3
# Si number density = 20.142578 Si / 1000 Ang^3
#
#
#
# Elastic Constant Matrix: (Units=GPa)
#
#
# Indices 1 2 3 4 5 6 
#
# 1 119.5923 49.9617 55.5048 0.0000 0.0000 0.0000
# 2 49.9617 146.4823 61.0969 0.0000 0.0000 0.0000
# 3 55.5048 61.0969 132.0399 0.0000 0.0000 0.0000
# 4 0.0000 0.0000 0.0000 41.0570 0.0000 0.0000
# 5 0.0000 0.0000 0.0000 0.0000 28.6511 0.0000
# 6 0.0000 0.0000 0.0000 0.0000 0.0000 27.5349
#
#
#
# Elastic Compliance Matrix: (Units=1/GPa)
#
#
# Indices 1 2 3 4 5 6 
#
# 1 0.010956 -0.002250 -0.003564 0.000000 0.000000 0.000000
# 2 -0.002250 0.008922 -0.003182 0.000000 0.000000 0.000000
# 3 -0.003564 -0.003182 0.010544 0.000000 0.000000 0.000000
# 4 0.000000 0.000000 0.000000 0.024356 0.000000 0.000000
# 5 0.000000 0.000000 0.000000 0.000000 0.034903 0.000000
# 6 0.000000 0.000000 0.000000 0.000000 0.000000 0.036318
#
#
# Mechanical properties :
#
#
# Convention : Reuss Voigt Hill
#
# Bulk Modulus (GPa) = 80.46129 81.24903 80.85516
# Shear Modulus (GPa) = 33.75306 34.88536 34.31921
#
# Velocity S-wave (km/s) = 4.09798 4.16615 4.13221
# Velocity P-wave (km/s) = 7.90088 7.97289 7.93696
#
# Compressibility (1/GPa) = 0.01242834
#
# Stress axis : x y z
#
# Youngs Moduli (GPa) = 91.27366 112.08822 94.83839
#
# Poissons Ratio (x) = 0.25222 0.33804
# Poissons Ratio (y) = 0.20538 0.30180
# Poissons Ratio (z) = 0.32533 0.35669
#
# Static dielectric constant tensor:
#      x y z
#    x 3.597760 0.000000 0.000000 
#    y 0.000000 3.697730 0.000000 
#    z 0.000000 0.000000 3.970190 
# 
# 
# High freq. dielectric constant tensor:
#      x y z
#    x 1.785600 0.000000 0.000000 
#    y 0.000000 1.789900 0.000000 
#    z 0.000000 0.000000 1.790670 
# 
# From -- ./inp_files/66908.got.cif
#   From: 2010.03.12/outbox.cif.g09.slc.cpg/sg65_34_cif.got.tgz:66908.got - 2010.04.10 20:52:16.
