data_PCOD8266277
_publ_section_title
;
Structure prediction by ZEFSAII (Michael W. Deem and Ramdas Pophale) SiO2 
 PCOD8266277
Probable space group: C M M M
;
_chemical_formula_sum "Si O2"
_cell_formula_units_Z 72
_cell_length_a 29.361261
_cell_length_b 14.300559
_cell_length_c 9.243243
_cell_angle_alpha 90.000000
_cell_angle_beta 90.000000
_cell_angle_gamma 90.000000
_cell_volume 3881.075473
_symmetry_space_group_name_H-M "C M M M"
_symmetry_group_IT_number 65
_symmetry_cell_setting 'orthorhombic'
loop_
_space_group_symop_operation_xyz
x,y,z
-x,-y,z
x,-y,-z
-x,y,-z
-x,-y,-z
x,y,-z
-x,y,z
x,-y,z
1/2+x,1/2+y,z
1/2-x,1/2-y,z
1/2+x,1/2-y,-z
1/2-x,1/2+y,-z
1/2-x,1/2-y,-z
1/2+x,1/2+y,-z
1/2-x,1/2+y,z
1/2+x,1/2-y,z
loop_
_atom_site_type_symbol
_atom_site_label
_atom_site_fract_x
_atom_site_fract_y
_atom_site_fract_z
Si Si1 0.590239 0.209728 0.328573
Si Si2 0.180423 0.711992 0.171051
Si Si3 0.449272 0.601212 0.671454
Si Si4 0.770014 0.104598 0.171271
Si Si5 0.500000 0.895145 0.328168
O O1 0.596177 0.198463 0.500000
O O2 0.635480 0.173724 0.250336
O O3 0.584188 0.317253 0.276980
O O4 0.545932 0.154219 0.271741
O O5 0.192943 0.818175 0.223113
O O6 0.220198 0.640812 0.218306
O O7 0.172657 0.709724 0.000000
O O8 0.453058 0.604731 0.500000
O O9 0.500000 0.617200 0.734956
O O10 0.430309 0.500000 0.723184
O O11 0.779223 0.000000 0.236376
O O12 0.771699 0.099631 0.000000
O O13 0.500000 0.891329 0.500000
O O14 0.500000 0.000000 0.268129
#
# Coordination Sequence:
#
# PCOD8266277 Si02
#       5
#    16  16  16  16   8
#     4  10  18  30  48  69  94 124 157 192 231 271
#     4   9  18  31  49  73  94 117 154 194 231 274
#     4   8  13  23  41  63  85 113 152 190 220 259
#     4   8  15  31  52  69  90 123 157 186 224 282
#     4   9  18  32  48  66  92 129 167 193 218 266
#
# _framework density 18.551558
#
# number of rings (size 3 to 8) (size 9 to 14) (size 15 to 20)
#    0.000    3.222    1.111    2.000    0.000    1.778 
#    0.000    2.778    0.000    2.000    0.000    1.556 
#    0.000    0.000    0.000    0.000    0.000    0.000 
#
# Total GULP energy -446035.097757 kJ/mol
# GULP energy per Si atom -12389.863827 kJ/mol
# Density = 1.850933 g / cm^3
# Si number density = 18.551558 Si / 1000 Ang^3
#
#
#
# Elastic Constant Matrix: (Units=GPa)
#
#
# Indices 1 2 3 4 5 6 
#
# 1 122.3684 35.7706 26.1312 0.0000 0.0000 0.0000
# 2 35.7706 103.3963 12.9772 0.0000 0.0000 0.0000
# 3 26.1312 12.9772 19.9612 0.0000 0.0000 0.0000
# 4 0.0000 0.0000 0.0000 10.4392 0.0000 0.0000
# 5 0.0000 0.0000 0.0000 0.0000 11.9202 0.0000
# 6 0.0000 0.0000 0.0000 0.0000 0.0000 17.4511
#
#
#
# Elastic Compliance Matrix: (Units=1/GPa)
#
#
# Indices 1 2 3 4 5 6 
#
# 1 0.011842 -0.002342 -0.013980 0.000000 0.000000 0.000000
# 2 -0.002342 0.010994 -0.004081 0.000000 0.000000 0.000000
# 3 -0.013980 -0.004081 0.071051 0.000000 0.000000 0.000000
# 4 0.000000 0.000000 0.000000 0.095793 0.000000 0.000000
# 5 0.000000 0.000000 0.000000 0.000000 0.083891 0.000000
# 6 0.000000 0.000000 0.000000 0.000000 0.000000 0.057303
#
#
# Mechanical properties :
#
#
# Convention : Reuss Voigt Hill
#
# Bulk Modulus (GPa) = 18.83915 43.94268 31.39091
# Shear Modulus (GPa) = 12.84112 19.35190 16.09651
#
# Velocity S-wave (km/s) = 2.63380 3.23327 2.94881
# Velocity P-wave (km/s) = 4.40752 6.13816 5.34337
#
# Compressibility (1/GPa) = 0.05308096
#
# Stress axis : x y z
#
# Youngs Moduli (GPa) = 84.44512 90.95807 14.07436
#
# Poissons Ratio (x) = 0.21304 0.19675
# Poissons Ratio (y) = 0.19779 0.05744
# Poissons Ratio (z) = 1.18051 0.37123
#
# Static dielectric constant tensor:
#      x y z
#    x 3.346750 0.000000 0.000000 
#    y 0.000000 3.978470 0.000000 
#    z 0.000000 0.000000 2.706320 
# 
# 
# High freq. dielectric constant tensor:
#      x y z
#    x 1.718340 0.000000 0.000000 
#    y 0.000000 1.730550 0.000000 
#    z 0.000000 0.000000 1.649310 
# 
# From -- ./inp_files/7661.got.cif
#   From: 2010.03.12/outbox.cif.g09.slc.cpg/sg65_4_cif.got.tgz:7661.got - 2010.04.10 20:52:16.
