data_PCOD8266780
_publ_section_title
;
Structure prediction by ZEFSAII (Michael W. Deem and Ramdas Pophale) SiO2 
 PCOD8266780
Probable space group: C M M M
;
_chemical_formula_sum "Si O2"
_cell_formula_units_Z 104
_cell_length_a 22.585967
_cell_length_b 28.042510
_cell_length_c 9.396139
_cell_angle_alpha 90.000000
_cell_angle_beta 90.000000
_cell_angle_gamma 90.000000
_cell_volume 5951.206301
_symmetry_space_group_name_H-M "C M M M"
_symmetry_group_IT_number 65
_symmetry_cell_setting 'orthorhombic'
loop_
_space_group_symop_operation_xyz
x,y,z
-x,-y,z
x,-y,-z
-x,y,-z
-x,-y,-z
x,y,-z
-x,y,z
x,-y,z
1/2+x,1/2+y,z
1/2-x,1/2-y,z
1/2+x,1/2-y,-z
1/2-x,1/2+y,-z
1/2-x,1/2-y,-z
1/2+x,1/2+y,-z
1/2-x,1/2+y,z
1/2+x,1/2-y,z
loop_
_atom_site_type_symbol
_atom_site_label
_atom_site_fract_x
_atom_site_fract_y
_atom_site_fract_z
Si Si1 0.933962 0.943804 0.157268
Si Si2 0.157680 0.109757 0.666743
Si Si3 0.877663 0.600695 0.169452
Si Si4 0.224739 0.445386 0.662823
Si Si5 0.319019 0.196631 0.832335
Si Si6 0.684457 0.697967 0.831658
Si Si7 0.500000 0.945438 0.168783
O O1 0.893377 0.925370 0.283692
O O2 0.000000 0.923413 0.179363
O O3 0.935104 0.000000 0.168052
O O4 0.910500 0.928358 0.000000
O O5 0.152583 0.117967 0.500000
O O6 0.220702 0.087453 0.710399
O O7 0.146145 0.159496 0.747315
O O8 0.830679 0.564552 0.236055
O O9 0.862595 0.654691 0.224630
O O10 0.942548 0.584043 0.222225
O O11 0.872786 0.597227 0.000000
O O12 0.206607 0.434797 0.500000
O O13 0.244320 0.500000 0.682117
O O14 0.340667 0.249633 0.788203
O O15 0.251933 0.190788 0.777411
O O16 0.316904 0.193461 0.000000
O O17 0.679065 0.689895 0.000000
O O18 0.500000 0.000000 0.229025
O O19 0.500000 0.947930 0.000000
#
# Coordination Sequence:
#
# PCOD8266780 Si02
#       7
#    16  16  16  16  16  16   8
#     4   9  19  36  56  76  99 131 172 211 245 292
#     4  11  21  32  49  76 106 136 165 203 254 304
#     4  10  18  32  53  74  96 129 170 209 256 307
#     4  10  21  34  46  68 104 136 163 201 246 296
#     4   8  15  28  50  74  96 126 164 210 255 298
#     4   9  16  30  50  73 100 128 164 209 253 298
#     4   9  18  30  47  75 105 127 159 215 262 297
#
# _framework density 17.475448
#
# number of rings (size 3 to 8) (size 9 to 14) (size 15 to 20)
#    0.000    2.538    1.538    2.769    0.000    2.769 
#    0.000    3.462    1.692    1.385    0.000    0.000 
#    0.000    0.000    0.000    0.000    0.000    0.000 
#
# Total GULP energy -644549.702247 kJ/mol
# GULP energy per Si atom -12395.186582 kJ/mol
# Density = 1.743567 g / cm^3
# Si number density = 17.475448 Si / 1000 Ang^3
#
#
#
# Elastic Constant Matrix: (Units=GPa)
#
#
# Indices 1 2 3 4 5 6 
#
# 1 85.3201 46.5259 32.1732 0.0000 0.0000 0.0000
# 2 46.5259 110.4394 33.7894 0.0000 0.0000 0.0000
# 3 32.1732 33.7894 49.5235 0.0000 0.0000 0.0000
# 4 0.0000 0.0000 0.0000 16.6206 0.0000 0.0000
# 5 0.0000 0.0000 0.0000 0.0000 19.4554 0.0000
# 6 0.0000 0.0000 0.0000 0.0000 0.0000 25.5705
#
#
#
# Elastic Compliance Matrix: (Units=1/GPa)
#
#
# Indices 1 2 3 4 5 6 
#
# 1 0.017389 -0.004890 -0.007960 0.000000 0.000000 0.000000
# 2 -0.004890 0.012819 -0.005569 0.000000 0.000000 0.000000
# 3 -0.007960 -0.005569 0.029164 0.000000 0.000000 0.000000
# 4 0.000000 0.000000 0.000000 0.060166 0.000000 0.000000
# 5 0.000000 0.000000 0.000000 0.000000 0.051400 0.000000
# 6 0.000000 0.000000 0.000000 0.000000 0.000000 0.039108
#
#
# Mechanical properties :
#
#
# Convention : Reuss Voigt Hill
#
# Bulk Modulus (GPa) = 44.38118 52.25114 48.31616
# Shear Modulus (GPa) = 19.65446 21.18225 20.41836
#
# Velocity S-wave (km/s) = 3.35728 3.48532 3.42190
# Velocity P-wave (km/s) = 6.36238 6.79421 6.58184
#
# Compressibility (1/GPa) = 0.02253207
#
# Stress axis : x y z
#
# Youngs Moduli (GPa) = 57.50780 78.01052 34.28914
#
# Poissons Ratio (x) = 0.38148 0.27295
# Poissons Ratio (y) = 0.28122 0.19096
# Poissons Ratio (z) = 0.45778 0.43446
#
# Static dielectric constant tensor:
#      x y z
#    x 3.228030 0.000000 0.000000 
#    y 0.000000 3.535250 0.000000 
#    z 0.000000 0.000000 2.995720 
# 
# 
# High freq. dielectric constant tensor:
#      x y z
#    x 1.654060 0.000000 0.000000 
#    y 0.000000 1.685460 0.000000 
#    z 0.000000 0.000000 1.650090 
# 
# From -- ./inp_files/14802.got.cif
#   From: 2010.03.12/outbox.cif.g09.slc.cpg/sg65_8_cif.got.tgz:14802.got - 2010.04.10 20:52:16.
