data_PCOD8266908
_publ_section_title
;
Structure prediction by ZEFSAII (Michael W. Deem and Ramdas Pophale) SiO2 
 PCOD8266908
Probable space group: C M M M
;
_chemical_formula_sum "Si O2"
_cell_formula_units_Z 112
_cell_length_a 14.851238
_cell_length_b 28.240349
_cell_length_c 13.795513
_cell_angle_alpha 90.000000
_cell_angle_beta 90.000000
_cell_angle_gamma 90.000000
_cell_volume 5785.895324
_symmetry_space_group_name_H-M "C M M M"
_symmetry_group_IT_number 65
_symmetry_cell_setting 'orthorhombic'
loop_
_space_group_symop_operation_xyz
x,y,z
-x,-y,z
x,-y,-z
-x,y,-z
-x,-y,-z
x,y,-z
-x,y,z
x,-y,z
1/2+x,1/2+y,z
1/2-x,1/2-y,z
1/2+x,1/2-y,-z
1/2-x,1/2+y,-z
1/2-x,1/2-y,-z
1/2+x,1/2+y,-z
1/2-x,1/2+y,z
1/2+x,1/2-y,z
loop_
_atom_site_type_symbol
_atom_site_label
_atom_site_fract_x
_atom_site_fract_y
_atom_site_fract_z
Si Si1 0.603266 0.945717 0.113622
Si Si2 0.603286 0.672803 0.113803
Si Si3 0.099181 0.948602 0.614539
Si Si4 0.855180 0.239976 0.606101
Si Si5 0.099635 0.274530 0.190891
Si Si6 0.792719 0.140251 0.610045
Si Si7 0.282917 0.861550 0.802847
O O1 0.500000 0.934767 0.142961
O O2 0.670320 0.910817 0.169808
O O3 0.627061 0.000000 0.141118
O O4 0.616841 0.937598 0.000000
O O5 0.500000 0.662120 0.149321
O O6 0.631586 0.726353 0.140200
O O7 0.678084 0.638711 0.162961
O O8 0.609425 0.665024 0.000000
O O9 0.091081 0.943871 0.500000
O O10 0.162049 0.907151 0.652214
O O11 0.000000 0.943404 0.660587
O O12 0.139920 0.000000 0.643321
O O13 0.893381 0.255689 0.500000
O O14 0.750000 0.250000 0.611162
O O15 0.904442 0.266996 0.692451
O O16 0.865166 0.182972 0.617330
O O17 0.163744 0.316631 0.153454
O O18 0.000000 0.288366 0.156077
O O19 0.755265 0.135713 0.500000
O O20 0.711231 0.146707 0.686031
#
# Coordination Sequence:
#
# PCOD8266908 Si02
#       7
#    16  16  16  16  16  16  16
#     4   9  20  40  64  90 116 141 181 240 295 341
#     4  10  22  38  55  79 113 147 179 223 281 344
#     4   8  15  29  47  68  96 129 170 222 271 313
#     4  10  18  33  51  70 103 147 190 229 274 326
#     4  11  22  35  51  78 109 143 188 233 281 335
#     4  10  20  31  50  76 107 147 190 229 272 326
#     4  12  21  35  59  84 109 147 189 231 281 340
#
# _framework density 19.357419
#
# number of rings (size 3 to 8) (size 9 to 14) (size 15 to 20)
#    0.000    2.000    2.857    2.143    0.000    3.714 
#    0.000    2.857    0.000    1.714    0.000    3.000 
#    0.000    0.000    0.000    0.000    0.000    0.000 
#
# Total GULP energy -693949.971993 kJ/mol
# GULP energy per Si atom -12391.963786 kJ/mol
# Density = 1.931336 g / cm^3
# Si number density = 19.357419 Si / 1000 Ang^3
#
#
#
# Elastic Constant Matrix: (Units=GPa)
#
#
# Indices 1 2 3 4 5 6 
#
# 1 90.8632 46.4867 25.6157 0.0000 0.0000 0.0000
# 2 46.4867 102.4605 17.8241 0.0000 0.0000 0.0000
# 3 25.6157 17.8241 67.5809 0.0000 0.0000 0.0000
# 4 0.0000 0.0000 0.0000 21.6698 0.0000 0.0000
# 5 0.0000 0.0000 0.0000 0.0000 16.8688 0.0000
# 6 0.0000 0.0000 0.0000 0.0000 0.0000 31.9587
#
#
#
# Elastic Compliance Matrix: (Units=1/GPa)
#
#
# Indices 1 2 3 4 5 6 
#
# 1 0.015383 -0.006252 -0.004182 0.000000 0.000000 0.000000
# 2 -0.006252 0.012770 -0.000998 0.000000 0.000000 0.000000
# 3 -0.004182 -0.000998 0.016645 0.000000 0.000000 0.000000
# 4 0.000000 0.000000 0.000000 0.046147 0.000000 0.000000
# 5 0.000000 0.000000 0.000000 0.000000 0.059281 0.000000
# 6 0.000000 0.000000 0.000000 0.000000 0.000000 0.031290
#
#
# Mechanical properties :
#
#
# Convention : Reuss Voigt Hill
#
# Bulk Modulus (GPa) = 45.59042 48.97305 47.28173
# Shear Modulus (GPa) = 23.61913 25.49798 24.55855
#
# Velocity S-wave (km/s) = 3.49687 3.63329 3.56573
# Velocity P-wave (km/s) = 6.31721 6.55403 6.43671
#
# Compressibility (1/GPa) = 0.02193443
#
# Stress axis : x y z
#
# Youngs Moduli (GPa) = 65.00683 78.30841 60.07642
#
# Poissons Ratio (x) = 0.48957 0.25123
# Poissons Ratio (y) = 0.40641 0.05998
# Poissons Ratio (z) = 0.27185 0.07818
#
# Static dielectric constant tensor:
#      x y z
#    x 3.520310 0.000000 0.000000 
#    y 0.000000 3.743750 0.000000 
#    z 0.000000 0.000000 3.472290 
# 
# 
# High freq. dielectric constant tensor:
#      x y z
#    x 1.734870 0.000000 0.000000 
#    y 0.000000 1.749720 0.000000 
#    z 0.000000 0.000000 1.742490 
# 
# From -- ./inp_files/41112.got.cif
#   From: 2010.03.12/outbox.cif.g09.slc.cpg/sg65_21_cif.got.tgz:41112.got - 2010.04.10 20:52:16.
