data_PCOD8266316
_publ_section_title
;
Structure prediction by ZEFSAII (Michael W. Deem and Ramdas Pophale) SiO2 
 PCOD8266316
Probable space group: C M M M
;
_chemical_formula_sum "Si O2"
_cell_formula_units_Z 72
_cell_length_a 22.181200
_cell_length_b 18.235267
_cell_length_c 10.347001
_cell_angle_alpha 90.000000
_cell_angle_beta 90.000000
_cell_angle_gamma 90.000000
_cell_volume 4185.156045
_symmetry_space_group_name_H-M "C M M M"
_symmetry_group_IT_number 65
_symmetry_cell_setting 'orthorhombic'
loop_
_space_group_symop_operation_xyz
x,y,z
-x,-y,z
x,-y,-z
-x,y,-z
-x,-y,-z
x,y,-z
-x,y,z
x,-y,z
1/2+x,1/2+y,z
1/2-x,1/2-y,z
1/2+x,1/2-y,-z
1/2-x,1/2+y,-z
1/2-x,1/2-y,-z
1/2+x,1/2+y,-z
1/2-x,1/2+y,z
1/2+x,1/2-y,z
loop_
_atom_site_type_symbol
_atom_site_label
_atom_site_fract_x
_atom_site_fract_y
_atom_site_fract_z
Si Si1 0.139490 0.912881 0.747891
Si Si2 0.371152 0.082078 0.654011
Si Si3 0.933041 0.087080 0.500000
Si Si4 0.500000 0.087139 0.358388
Si Si5 0.931812 0.087062 0.000000
Si Si6 0.246687 0.663977 0.650105
O O1 0.101039 0.884492 0.626401
O O2 0.104420 0.885468 0.874709
O O3 0.204671 0.875624 0.740614
O O4 0.148142 0.000000 0.746737
O O5 0.377041 0.081331 0.500000
O O6 0.436544 0.109135 0.711899
O O7 0.318756 0.137056 0.698688
O O8 0.355456 0.000000 0.703289
O O9 0.000000 0.120718 0.500000
O O10 0.936306 0.000000 0.500000
O O11 0.500000 0.124065 0.500000
O O12 0.500000 0.000000 0.372907
O O13 0.000000 0.119195 0.000000
O O14 0.935747 0.000000 0.000000
O O15 0.257499 0.642332 0.500000
O O16 0.250000 0.750000 0.671479
#
# Coordination Sequence:
#
# PCOD8266316 Si02
#       6
#    16  16   8   8   8  16
#     4  10  18  30  49  71  95 124 164 201 242 293
#     4   8  13  22  39  59  81 113 152 191 232 278
#     4   9  16  26  45  70  94 121 155 196 236 284
#     4   7  10  18  34  56  76  99 138 186 229 268
#     4   9  18  32  51  74  98 123 157 208 252 280
#     4  10  19  29  42  62  98 131 159 193 239 285
#
# _framework density 17.203658999999998
#
# number of rings (size 3 to 8) (size 9 to 14) (size 15 to 20)
#    0.000    3.000    1.111    2.667    0.000    3.556 
#    0.000    0.556    4.889    0.000    0.000    0.000 
#    0.000    0.000    0.000    8.222    0.000    2.222 
#
# Total GULP energy -446103.410637 kJ/mol
# GULP energy per Si atom -12391.761407 kJ/mol
# Density = 1.716450 g / cm^3
# Si number density = 17.203659 Si / 1000 Ang^3
#
#
#
# Elastic Constant Matrix: (Units=GPa)
#
#
# Indices 1 2 3 4 5 6 
#
# 1 200.5524 55.7521 52.7259 0.0000 0.0000 0.0000
# 2 55.7521 51.4866 16.7218 0.0000 0.0000 0.0000
# 3 52.7259 16.7218 83.0649 0.0000 0.0000 0.0000
# 4 0.0000 0.0000 0.0000 6.2831 0.0000 0.0000
# 5 0.0000 0.0000 0.0000 0.0000 22.7557 0.0000
# 6 0.0000 0.0000 0.0000 0.0000 0.0000 5.9190
#
#
#
# Elastic Compliance Matrix: (Units=1/GPa)
#
#
# Indices 1 2 3 4 5 6 
#
# 1 0.008016 -0.007520 -0.003575 0.000000 0.000000 0.000000
# 2 -0.007520 0.027835 -0.000830 0.000000 0.000000 0.000000
# 3 -0.003575 -0.000830 0.014475 0.000000 0.000000 0.000000
# 4 0.000000 0.000000 0.000000 0.159158 0.000000 0.000000
# 5 0.000000 0.000000 0.000000 0.000000 0.043945 0.000000
# 6 0.000000 0.000000 0.000000 0.000000 0.000000 0.168947
#
#
# Mechanical properties :
#
#
# Convention : Reuss Voigt Hill
#
# Bulk Modulus (GPa) = 37.76869 65.05593 51.41231
# Shear Modulus (GPa) = 10.98778 20.98518 15.98648
#
# Velocity S-wave (km/s) = 2.52997 3.49637 3.05167
# Velocity P-wave (km/s) = 5.52593 7.36184 6.50894
#
# Compressibility (1/GPa) = 0.02647696
#
# Stress axis : x y z
#
# Youngs Moduli (GPa) = 124.74421 35.92638 69.08470
#
# Poissons Ratio (x) = 0.27015 0.24696
# Poissons Ratio (y) = 0.93802 0.05736
# Poissons Ratio (z) = 0.44592 0.02983
#
# Static dielectric constant tensor:
#      x y z
#    x 3.709570 0.000000 0.000000 
#    y 0.000000 2.726160 0.000000 
#    z 0.000000 0.000000 2.827990 
# 
# 
# High freq. dielectric constant tensor:
#      x y z
#    x 1.692370 0.000000 0.000000 
#    y 0.000000 1.621550 0.000000 
#    z 0.000000 0.000000 1.607120 
# 
# From -- ./inp_files/13626.got.cif
#   From: 2010.03.12/outbox.cif.g09.slc.cpg/sg65_7_cif.got.tgz:13626.got - 2010.04.10 20:52:16.
