data_PCOD8266364
_publ_section_title
;
Structure prediction by ZEFSAII (Michael W. Deem and Ramdas Pophale) SiO2 
 PCOD8266364
Probable space group: C M M M
;
_chemical_formula_sum "Si O2"
_cell_formula_units_Z 88
_cell_length_a 16.973660
_cell_length_b 17.648207
_cell_length_c 19.329585
_cell_angle_alpha 90.000000
_cell_angle_beta 90.000000
_cell_angle_gamma 90.000000
_cell_volume 5790.267364
_symmetry_space_group_name_H-M "C M M M"
_symmetry_group_IT_number 65
_symmetry_cell_setting 'orthorhombic'
loop_
_space_group_symop_operation_xyz
x,y,z
-x,-y,z
x,-y,-z
-x,y,-z
-x,-y,-z
x,y,-z
-x,y,z
x,-y,z
1/2+x,1/2+y,z
1/2-x,1/2-y,z
1/2+x,1/2-y,-z
1/2-x,1/2+y,-z
1/2-x,1/2-y,-z
1/2+x,1/2+y,-z
1/2-x,1/2+y,z
1/2+x,1/2-y,z
loop_
_atom_site_type_symbol
_atom_site_label
_atom_site_fract_x
_atom_site_fract_y
_atom_site_fract_z
Si Si1 0.594260 0.087943 0.650614
Si Si2 0.782027 0.085398 0.146623
Si Si3 0.208008 0.582134 0.000000
Si Si4 0.091258 0.798285 0.857074
Si Si5 0.818442 0.691525 0.760059
Si Si6 0.843953 0.261991 0.000000
Si Si7 0.415127 0.911317 0.500000
O O1 0.500000 0.100800 0.656591
O O2 0.642325 0.146082 0.697594
O O3 0.626690 0.108712 0.572965
O O4 0.613564 0.000000 0.669230
O O5 0.866488 0.122775 0.160983
O O6 0.714823 0.130908 0.186253
O O7 0.783931 0.000000 0.174674
O O8 0.765176 0.089846 0.065370
O O9 0.165052 0.500000 0.000000
O O10 0.141439 0.647046 0.000000
O O11 0.113228 0.736183 0.799904
O O12 0.000000 0.814530 0.854314
O O13 0.116394 0.772082 0.932861
O O14 0.750000 0.750000 0.734670
O O15 0.750000 0.250000 0.000000
O O16 0.500000 0.870070 0.500000
O O17 0.430417 0.000000 0.500000
#
# Coordination Sequence:
#
# PCOD8266364 Si02
#       7
#    16  16   8  16  16   8   8
#     4   9  16  28  47  69  91 114 144 182 217 253
#     4  10  19  32  49  65  84 114 150 185 220 260
#     4  10  18  30  50  64  79 109 146 182 215 258
#     4  11  21  31  46  67  89 114 145 182 225 266
#     4  10  19  31  45  64  90 121 150 175 213 263
#     4  12  17  34  49  62  85 113 146 179 221 270
#     4   7  12  24  43  66  90 116 141 169 216 264
#
# _framework density 15.197915999999999
#
# number of rings (size 3 to 8) (size 9 to 14) (size 15 to 20)
#    0.000    2.091    3.636    3.000    0.000    0.364 
#    0.000    0.455    0.000    4.909    0.000    0.000 
#    0.000    0.000    0.000    0.000    0.000  109.091 
#
# Total GULP energy -545221.730867 kJ/mol
# GULP energy per Si atom -12391.402974 kJ/mol
# Density = 1.516332 g / cm^3
# Si number density = 15.197916 Si / 1000 Ang^3
#
#
#
# Elastic Constant Matrix: (Units=GPa)
#
#
# Indices 1 2 3 4 5 6 
#
# 1 57.1644 20.2799 23.3096 0.0000 0.0000 0.0000
# 2 20.2799 91.7149 29.9726 0.0000 0.0000 0.0000
# 3 23.3096 29.9726 96.7652 0.0000 0.0000 0.0000
# 4 0.0000 0.0000 0.0000 1.8477 0.0000 0.0000
# 5 0.0000 0.0000 0.0000 0.0000 7.6646 0.0000
# 6 0.0000 0.0000 0.0000 0.0000 0.0000 16.9331
#
#
#
# Elastic Compliance Matrix: (Units=1/GPa)
#
#
# Indices 1 2 3 4 5 6 
#
# 1 0.020210 -0.003202 -0.003877 0.000000 0.000000 0.000000
# 2 -0.003202 0.012639 -0.003143 0.000000 0.000000 0.000000
# 3 -0.003877 -0.003143 0.012242 0.000000 0.000000 0.000000
# 4 0.000000 0.000000 0.000000 0.541210 0.000000 0.000000
# 5 0.000000 0.000000 0.000000 0.000000 0.130470 0.000000
# 6 0.000000 0.000000 0.000000 0.000000 0.000000 0.059056
#
#
# Mechanical properties :
#
#
# Convention : Reuss Voigt Hill
#
# Bulk Modulus (GPa) = 40.57367 43.64098 42.10732
# Shear Modulus (GPa) = 6.21515 16.76123 11.48819
#
# Velocity S-wave (km/s) = 2.02444 3.32454 2.75236
# Velocity P-wave (km/s) = 5.67620 6.59653 6.15360
#
# Compressibility (1/GPa) = 0.02464653
#
# Stress axis : x y z
#
# Youngs Moduli (GPa) = 49.48025 79.12229 81.68737
#
# Poissons Ratio (x) = 0.25335 0.31667
# Poissons Ratio (y) = 0.15843 0.25678
# Poissons Ratio (z) = 0.19181 0.24872
#
# Static dielectric constant tensor:
#      x y z
#    x 2.713550 0.000000 0.000000 
#    y 0.000000 3.155520 0.000000 
#    z 0.000000 0.000000 3.810910 
# 
# 
# High freq. dielectric constant tensor:
#      x y z
#    x 1.556630 0.000000 0.000000 
#    y 0.000000 1.586350 0.000000 
#    z 0.000000 0.000000 1.577680 
# 
# From -- ./inp_files/62794.got.cif
#   From: 2010.03.12/outbox.cif.g09.slc.cpg/sg65_32_cif.got.tgz:62794.got - 2010.04.10 20:52:16.
