data_PCOD8266242
_publ_section_title
;
Structure prediction by ZEFSAII (Michael W. Deem and Ramdas Pophale) SiO2 
 PCOD8266242
Probable space group: C M M M
;
_chemical_formula_sum "Si O2"
_cell_formula_units_Z 88
_cell_length_a 19.977305
_cell_length_b 30.203395
_cell_length_c 7.918448
_cell_angle_alpha 90.000000
_cell_angle_beta 90.000000
_cell_angle_gamma 90.000000
_cell_volume 4777.852427
_symmetry_space_group_name_H-M "C M M M"
_symmetry_group_IT_number 65
_symmetry_cell_setting 'orthorhombic'
loop_
_space_group_symop_operation_xyz
x,y,z
-x,-y,z
x,-y,-z
-x,y,-z
-x,-y,-z
x,y,-z
-x,y,z
x,-y,z
1/2+x,1/2+y,z
1/2-x,1/2-y,z
1/2+x,1/2-y,-z
1/2-x,1/2+y,-z
1/2-x,1/2-y,-z
1/2+x,1/2+y,-z
1/2-x,1/2+y,z
1/2+x,1/2-y,z
loop_
_atom_site_type_symbol
_atom_site_label
_atom_site_fract_x
_atom_site_fract_y
_atom_site_fract_z
Si Si1 0.117304 0.402654 0.691956
Si Si2 0.000000 0.952147 0.187027
Si Si3 0.633232 0.417298 0.690336
Si Si4 0.752184 0.855057 0.307926
Si Si5 0.075120 0.342429 0.000000
Si Si6 0.290257 0.500000 0.809295
Si Si7 0.646243 0.000000 0.693945
Si Si8 0.713042 0.796687 0.000000
O O1 0.092319 0.391075 0.500000
O O2 0.196855 0.393838 0.705521
O O3 0.080538 0.372770 0.831709
O O4 0.103940 0.454974 0.729780
O O5 0.064630 0.921618 0.210024
O O6 0.000000 0.000000 0.290212
O O7 0.000000 0.968590 0.000000
O O8 0.610163 0.413317 0.500000
O O9 0.675288 0.374124 0.743839
O O10 0.682428 0.458100 0.711646
O O11 0.752908 0.835983 0.500000
O O12 0.737865 0.817332 0.174065
O O13 0.131110 0.302729 0.000000
O O14 0.000000 0.321644 0.000000
O O15 0.210361 0.500000 0.813885
O O16 0.317847 0.500000 0.000000
O O17 0.670602 0.000000 0.500000
O O18 0.750000 0.750000 0.000000
#
# Coordination Sequence:
#
# PCOD8266242 Si02
#       8
#    16   8  16  16   8   8   8   8
#     4   9  18  32  52  81 114 150 189 227 263 305
#     4  11  23  33  43  67 104 150 202 242 272 318
#     4  11  21  34  49  69 103 147 190 235 281 327
#     4   9  19  34  57  85 111 138 179 230 279 331
#     4  10  22  39  60  84 113 144 180 221 266 332
#     4  12  22  25  45  74 105 145 188 244 283 314
#     4  10  18  30  47  74 110 147 191 232 267 302
#     4  10  22  40  67  91 111 135 171 222 286 348
#
# _framework density 18.418316000000001
#
# number of rings (size 3 to 8) (size 9 to 14) (size 15 to 20)
#    0.000    1.909    2.727    1.636    3.818    1.091 
#    0.000    0.909    2.000    1.636    0.000    0.000 
#    0.000    0.000    0.000    0.000    0.000    0.000 
#
# Total GULP energy -545098.680727 kJ/mol
# GULP energy per Si atom -12388.606380 kJ/mol
# Density = 1.837640 g / cm^3
# Si number density = 18.418316 Si / 1000 Ang^3
#
#
#
# Elastic Constant Matrix: (Units=GPa)
#
#
# Indices 1 2 3 4 5 6 
#
# 1 110.4061 38.6967 44.5280 0.0000 0.0000 0.0000
# 2 38.6967 89.1278 41.0398 0.0000 0.0000 0.0000
# 3 44.5280 41.0398 77.0118 0.0000 0.0000 0.0000
# 4 0.0000 0.0000 0.0000 18.9631 0.0000 0.0000
# 5 0.0000 0.0000 0.0000 0.0000 22.0132 0.0000
# 6 0.0000 0.0000 0.0000 0.0000 0.0000 17.6220
#
#
#
# Elastic Compliance Matrix: (Units=1/GPa)
#
#
# Indices 1 2 3 4 5 6 
#
# 1 0.012296 -0.002736 -0.005651 0.000000 0.000000 0.000000
# 2 -0.002736 0.015477 -0.006666 0.000000 0.000000 0.000000
# 3 -0.005651 -0.006666 0.019805 0.000000 0.000000 0.000000
# 4 0.000000 0.000000 0.000000 0.052734 0.000000 0.000000
# 5 0.000000 0.000000 0.000000 0.000000 0.045427 0.000000
# 6 0.000000 0.000000 0.000000 0.000000 0.000000 0.056747
#
#
# Mechanical properties :
#
#
# Convention : Reuss Voigt Hill
#
# Bulk Modulus (GPa) = 57.23699 58.34164 57.78931
# Shear Modulus (GPa) = 20.97173 21.87173 21.42173
#
# Velocity S-wave (km/s) = 3.37803 3.44975 3.41408
# Velocity P-wave (km/s) = 6.80870 6.90017 6.85459
#
# Compressibility (1/GPa) = 0.01747122
#
# Stress axis : x y z
#
# Youngs Moduli (GPa) = 81.32913 64.61136 50.49309
#
# Poissons Ratio (x) = 0.17680 0.28535
# Poissons Ratio (y) = 0.22254 0.33657
# Poissons Ratio (z) = 0.45960 0.43068
#
# Static dielectric constant tensor:
#      x y z
#    x 3.301310 0.000000 0.000000 
#    y 0.000000 2.997350 0.000000 
#    z 0.000000 0.000000 3.589170 
# 
# 
# High freq. dielectric constant tensor:
#      x y z
#    x 1.703190 0.000000 0.000000 
#    y 0.000000 1.665440 0.000000 
#    z 0.000000 0.000000 1.731110 
# 
# From -- ./inp_files/10236.got.cif
#   From: 2010.03.12/outbox.cif.g09.slc.cpg/sg65_6_cif.got.tgz:10236.got - 2010.04.10 20:52:16.
