data_PCOD8266963
_publ_section_title
;
Structure prediction by ZEFSAII (Michael W. Deem and Ramdas Pophale) SiO2 
 PCOD8266963
Probable space group: C M M M
;
_chemical_formula_sum "Si O2"
_cell_formula_units_Z 64
_cell_length_a 8.533466
_cell_length_b 15.026193
_cell_length_c 24.638316
_cell_angle_alpha 90.000000
_cell_angle_beta 90.000000
_cell_angle_gamma 90.000000
_cell_volume 3159.260563
_symmetry_space_group_name_H-M "C M M M"
_symmetry_group_IT_number 65
_symmetry_cell_setting 'orthorhombic'
loop_
_space_group_symop_operation_xyz
x,y,z
-x,-y,z
x,-y,-z
-x,y,-z
-x,-y,-z
x,y,-z
-x,y,z
x,-y,z
1/2+x,1/2+y,z
1/2-x,1/2-y,z
1/2+x,1/2-y,-z
1/2-x,1/2+y,-z
1/2-x,1/2-y,-z
1/2+x,1/2+y,-z
1/2-x,1/2+y,z
1/2+x,1/2-y,z
loop_
_atom_site_type_symbol
_atom_site_label
_atom_site_fract_x
_atom_site_fract_y
_atom_site_fract_z
Si Si1 0.814685 0.847936 0.616955
Si Si2 0.184736 0.152658 0.500000
Si Si3 0.814192 0.650975 0.000000
Si Si4 0.683733 0.000000 0.184213
Si Si5 0.813748 0.000000 0.302522
Si Si6 0.314679 0.651027 0.111238
O O1 0.750000 0.750000 0.628598
O O2 0.759003 0.888877 0.557824
O O3 0.000000 0.841337 0.617310
O O4 0.758129 0.913554 0.664061
O O5 0.250000 0.250000 0.500000
O O6 0.000000 0.153970 0.500000
O O7 0.750000 0.750000 0.000000
O O8 0.749622 0.606589 0.944820
O O9 0.000000 0.647431 0.000000
O O10 0.716753 0.000000 0.247664
O O11 0.760843 0.911220 0.160095
O O12 0.500000 0.000000 0.172276
O O13 0.000000 0.000000 0.291535
O O14 0.500000 0.655849 0.108575
O O15 0.250000 0.750000 0.120930
#
# Coordination Sequence:
#
# PCOD8266963 Si02
#       6
#    16   8   8   8   8  16
#     4   9  18  33  55  80 110 143 180 224 278 335
#     4   8  14  27  49  79 108 138 174 219 271 333
#     4  10  18  33  58  91 125 156 190 231 281 343
#     4  12  26  43  60  83 113 152 200 248 291 342
#     4  10  22  39  55  77 108 146 189 236 282 336
#     4  11  22  40  64  91 121 155 192 237 290 345
#
# _framework density 20.257905000000001
#
# number of rings (size 3 to 8) (size 9 to 14) (size 15 to 20)
#    0.000    2.000    0.000    6.000    0.000    3.000 
#    0.000    7.500    0.000    0.000    0.000    9.625 
#    0.000    0.000    0.000    0.000    0.000    0.000 
#
# Total GULP energy -396525.502805 kJ/mol
# GULP energy per Si atom -12391.421963 kJ/mol
# Density = 2.021180 g / cm^3
# Si number density = 20.257905 Si / 1000 Ang^3
#
#
#
# Elastic Constant Matrix: (Units=GPa)
#
#
# Indices 1 2 3 4 5 6 
#
# 1 119.7006 36.1723 47.9505 0.0000 0.0000 0.0000
# 2 36.1723 108.8532 70.8089 0.0000 0.0000 0.0000
# 3 47.9505 70.8089 172.6461 0.0000 0.0000 0.0000
# 4 0.0000 0.0000 0.0000 41.7346 0.0000 0.0000
# 5 0.0000 0.0000 0.0000 0.0000 30.5483 0.0000
# 6 0.0000 0.0000 0.0000 0.0000 0.0000 26.5198
#
#
#
# Elastic Compliance Matrix: (Units=1/GPa)
#
#
# Indices 1 2 3 4 5 6 
#
# 1 0.009712 -0.002008 -0.001874 0.000000 0.000000 0.000000
# 2 -0.002008 0.012945 -0.004751 0.000000 0.000000 0.000000
# 3 -0.001874 -0.004751 0.008261 0.000000 0.000000 0.000000
# 4 0.000000 0.000000 0.000000 0.023961 0.000000 0.000000
# 5 0.000000 0.000000 0.000000 0.000000 0.032735 0.000000
# 6 0.000000 0.000000 0.000000 0.000000 0.000000 0.037708
#
#
# Mechanical properties :
#
#
# Convention : Reuss Voigt Hill
#
# Bulk Modulus (GPa) = 73.25466 79.00705 76.13085
# Shear Modulus (GPa) = 33.98157 36.17841 35.07999
#
# Velocity S-wave (km/s) = 4.10011 4.23056 4.16585
# Velocity P-wave (km/s) = 7.65859 7.93403 7.79753
#
# Compressibility (1/GPa) = 0.01365101
#
# Stress axis : x y z
#
# Youngs Moduli (GPa) = 102.96923 77.25069 121.04676
#
# Poissons Ratio (x) = 0.15516 0.22679
# Poissons Ratio (y) = 0.20681 0.57514
# Poissons Ratio (z) = 0.19292 0.36705
#
# Static dielectric constant tensor:
#      x y z
#    x 3.635620 0.000000 0.000000 
#    y 0.000000 4.018500 0.000000 
#    z 0.000000 0.000000 4.350950 
# 
# 
# High freq. dielectric constant tensor:
#      x y z
#    x 1.790080 0.000000 0.000000 
#    y 0.000000 1.778050 0.000000 
#    z 0.000000 0.000000 1.807660 
# 
# From -- ./inp_files/66900.got.cif
#   From: 2010.03.12/outbox.cif.g09.slc.cpg/sg65_34_cif.got.tgz:66900.got - 2010.04.10 20:52:16.
