data_PCOD8266590
_publ_section_title
;
Structure prediction by ZEFSAII (Michael W. Deem and Ramdas Pophale) SiO2 
 PCOD8266590
Probable space group: C M M M
;
_chemical_formula_sum "Si O2"
_cell_formula_units_Z 104
_cell_length_a 9.238168
_cell_length_b 26.877611
_cell_length_c 23.796444
_cell_angle_alpha 90.000000
_cell_angle_beta 90.000000
_cell_angle_gamma 90.000000
_cell_volume 5908.654329
_symmetry_space_group_name_H-M "C M M M"
_symmetry_group_IT_number 65
_symmetry_cell_setting 'orthorhombic'
loop_
_space_group_symop_operation_xyz
x,y,z
-x,-y,z
x,-y,-z
-x,y,-z
-x,-y,-z
x,y,-z
-x,y,z
x,-y,z
1/2+x,1/2+y,z
1/2-x,1/2-y,z
1/2+x,1/2-y,-z
1/2-x,1/2+y,-z
1/2-x,1/2-y,-z
1/2+x,1/2+y,-z
1/2-x,1/2+y,z
1/2+x,1/2-y,z
loop_
_atom_site_type_symbol
_atom_site_label
_atom_site_fract_x
_atom_site_fract_y
_atom_site_fract_z
Si Si1 0.167041 0.201844 0.651101
Si Si2 0.672535 0.500000 0.436755
Si Si3 0.171044 0.799471 0.781261
Si Si4 0.336089 0.055658 0.733912
Si Si5 0.666234 0.886129 0.843252
Si Si6 0.165785 0.057043 0.934804
Si Si7 0.330472 0.406089 0.634274
O O1 0.250000 0.250000 0.626526
O O2 0.209328 0.191516 0.715828
O O3 0.203237 0.151199 0.615305
O O4 0.000000 0.215381 0.645747
O O5 0.500000 0.500000 0.437019
O O6 0.733586 0.500000 0.500000
O O7 0.731324 0.449241 0.407055
O O8 0.250000 0.750000 0.802160
O O9 0.235761 0.842002 0.820226
O O10 0.000000 0.795571 0.791019
O O11 0.500000 0.061599 0.712435
O O12 0.323767 0.069142 0.798951
O O13 0.235819 0.090042 0.696025
O O14 0.279147 0.000000 0.726619
O O15 0.500000 0.868715 0.851582
O O16 0.729126 0.905921 0.901680
O O17 0.000000 0.065524 0.915878
O O18 0.210756 0.000000 0.923414
O O19 0.184212 0.069991 0.000000
O O20 0.500000 0.413705 0.640715
#
# Coordination Sequence:
#
# PCOD8266590 Si02
#       7
#    16   8  16  16  16  16  16
#     4   9  18  30  47  72 100 133 171 209 254 308
#     4   9  18  32  53  79 105 135 174 221 264 303
#     4  10  19  32  49  71 102 134 169 209 254 309
#     4  10  20  31  44  69 105 137 164 199 252 306
#     4  11  21  32  49  74 104 136 169 207 256 312
#     4   9  19  36  55  74  98 132 174 216 256 301
#     4  10  18  31  51  74 100 132 172 212 254 306
#
# _framework density 17.601300999999999
#
# number of rings (size 3 to 8) (size 9 to 14) (size 15 to 20)
#    0.000    2.231    2.308    1.846    0.000    3.077 
#    0.000    0.769    0.000    1.846    0.000    0.000 
#    0.000    0.000    0.000    0.000    0.000    0.000 
#
# Total GULP energy -644574.610947 kJ/mol
# GULP energy per Si atom -12395.665595 kJ/mol
# Density = 1.756124 g / cm^3
# Si number density = 17.601301 Si / 1000 Ang^3
#
#
#
# Elastic Constant Matrix: (Units=GPa)
#
#
# Indices 1 2 3 4 5 6 
#
# 1 62.3757 49.3518 26.8391 0.0000 0.0000 0.0000
# 2 49.3518 135.1043 37.5122 0.0000 0.0000 0.0000
# 3 26.8391 37.5122 59.1093 0.0000 0.0000 0.0000
# 4 0.0000 0.0000 0.0000 17.5145 0.0000 0.0000
# 5 0.0000 0.0000 0.0000 0.0000 12.8523 0.0000
# 6 0.0000 0.0000 0.0000 0.0000 0.0000 31.5288
#
#
#
# Elastic Compliance Matrix: (Units=1/GPa)
#
#
# Indices 1 2 3 4 5 6 
#
# 1 0.024507 -0.007116 -0.006611 0.000000 0.000000 0.000000
# 2 -0.007116 0.011051 -0.003782 0.000000 0.000000 0.000000
# 3 -0.006611 -0.003782 0.022320 0.000000 0.000000 0.000000
# 4 0.000000 0.000000 0.000000 0.057095 0.000000 0.000000
# 5 0.000000 0.000000 0.000000 0.000000 0.077807 0.000000
# 6 0.000000 0.000000 0.000000 0.000000 0.000000 0.031717
#
#
# Mechanical properties :
#
#
# Convention : Reuss Voigt Hill
#
# Bulk Modulus (GPa) = 43.74742 53.77728 48.76235
# Shear Modulus (GPa) = 18.71692 21.90487 20.31090
#
# Velocity S-wave (km/s) = 3.26449 3.53158 3.40066
# Velocity P-wave (km/s) = 6.25442 6.87377 6.57140
#
# Compressibility (1/GPa) = 0.02285849
#
# Stress axis : x y z
#
# Youngs Moduli (GPa) = 40.80430 90.48643 44.80271
#
# Poissons Ratio (x) = 0.64394 0.29621
# Poissons Ratio (y) = 0.29038 0.16945
# Poissons Ratio (z) = 0.26978 0.34224
#
# Static dielectric constant tensor:
#      x y z
#    x 3.209260 0.000000 0.000000 
#    y 0.000000 3.493670 0.000000 
#    z 0.000000 0.000000 3.013170 
# 
# 
# High freq. dielectric constant tensor:
#      x y z
#    x 1.675650 0.000000 0.000000 
#    y 0.000000 1.690400 0.000000 
#    z 0.000000 0.000000 1.644010 
# 
# From -- ./inp_files/68245.got.cif
#   From: 2010.03.12/outbox.cif.g09.slc.cpg/sg65_35_cif.got.tgz:68245.got - 2010.04.10 20:52:16.
