data_PCOD8266554
_publ_section_title
;
Structure prediction by ZEFSAII (Michael W. Deem and Ramdas Pophale) SiO2 
 PCOD8266554
Probable space group: C M M M
;
_chemical_formula_sum "Si O2"
_cell_formula_units_Z 104
_cell_length_a 24.115294
_cell_length_b 28.224269
_cell_length_c 9.436002
_cell_angle_alpha 90.000000
_cell_angle_beta 90.000000
_cell_angle_gamma 90.000000
_cell_volume 6422.487799
_symmetry_space_group_name_H-M "C M M M"
_symmetry_group_IT_number 65
_symmetry_cell_setting 'orthorhombic'
loop_
_space_group_symop_operation_xyz
x,y,z
-x,-y,z
x,-y,-z
-x,y,-z
-x,-y,-z
x,y,-z
-x,y,z
x,-y,z
1/2+x,1/2+y,z
1/2-x,1/2-y,z
1/2+x,1/2-y,-z
1/2-x,1/2+y,-z
1/2-x,1/2-y,-z
1/2+x,1/2+y,-z
1/2-x,1/2+y,z
1/2+x,1/2-y,z
loop_
_atom_site_type_symbol
_atom_site_label
_atom_site_fract_x
_atom_site_fract_y
_atom_site_fract_z
Si Si1 0.563360 0.130759 0.334356
Si Si2 0.651495 0.946048 0.334123
Si Si3 0.438496 0.322305 0.168115
Si Si4 0.934389 0.000000 0.334392
Si Si5 0.256729 0.445265 0.161746
Si Si6 0.933971 0.719270 0.157822
Si Si7 0.877632 0.084206 0.833229
O O1 0.568100 0.140446 0.500000
O O2 0.500000 0.120376 0.289198
O O3 0.599082 0.085355 0.287544
O O4 0.587837 0.177335 0.258132
O O5 0.662568 0.942472 0.500000
O O6 0.706535 0.926537 0.257934
O O7 0.638729 0.000000 0.287426
O O8 0.500000 0.331893 0.231366
O O9 0.415006 0.270868 0.218297
O O10 0.397873 0.364094 0.216930
O O11 0.442817 0.320417 0.000000
O O12 0.910022 0.046129 0.259214
O O13 0.917810 0.000000 0.500000
O O14 0.000000 0.000000 0.314135
O O15 0.269771 0.500000 0.193383
O O16 0.312246 0.416640 0.199178
O O17 0.238927 0.437396 0.000000
O O18 0.000000 0.719484 0.153857
O O19 0.910147 0.710466 0.000000
O O20 0.889206 0.074369 0.000000
#
# Coordination Sequence:
#
# PCOD8266554 Si02
#       7
#    16  16  16   8  16  16  16
#     4   9  17  29  46  69  94 118 146 180 219 267
#     4   9  18  31  47  67  90 119 151 181 220 269
#     4   8  14  25  44  69  91 113 147 190 229 268
#     4  11  23  33  41  63  99 129 152 187 236 281
#     4   9  17  30  46  66  89 113 150 194 229 262
#     4   8  14  26  44  66  91 117 146 180 221 269
#     4  10  18  31  50  68  87 118 159 196 231 271
#
# _framework density 16.193102
#
# number of rings (size 3 to 8) (size 9 to 14) (size 15 to 20)
#    0.000    3.000    0.769    1.615    0.000    2.769 
#    0.000    2.308    0.000    3.692    0.000   10.769 
#    0.000    0.000    0.000    0.000    0.000    0.000 
#
# Total GULP energy -644598.312149 kJ/mol
# GULP energy per Si atom -12396.121387 kJ/mol
# Density = 1.615625 g / cm^3
# Si number density = 16.193102 Si / 1000 Ang^3
#
#
#
# Elastic Constant Matrix: (Units=GPa)
#
#
# Indices 1 2 3 4 5 6 
#
# 1 95.3095 70.9729 41.2637 0.0000 0.0000 0.0000
# 2 70.9729 132.9658 48.3748 0.0000 0.0000 0.0000
# 3 41.2637 48.3748 48.2835 0.0000 0.0000 0.0000
# 4 0.0000 0.0000 0.0000 19.2688 0.0000 0.0000
# 5 0.0000 0.0000 0.0000 0.0000 23.2911 0.0000
# 6 0.0000 0.0000 0.0000 0.0000 0.0000 7.4541
#
#
#
# Elastic Compliance Matrix: (Units=1/GPa)
#
#
# Indices 1 2 3 4 5 6 
#
# 1 0.020139 -0.007062 -0.010136 0.000000 0.000000 0.000000
# 2 -0.007062 0.014311 -0.008303 0.000000 0.000000 0.000000
# 3 -0.010136 -0.008303 0.037691 0.000000 0.000000 0.000000
# 4 0.000000 0.000000 0.000000 0.051897 0.000000 0.000000
# 5 0.000000 0.000000 0.000000 0.000000 0.042935 0.000000
# 6 0.000000 0.000000 0.000000 0.000000 0.000000 0.134155
#
#
# Mechanical properties :
#
#
# Convention : Reuss Voigt Hill
#
# Bulk Modulus (GPa) = 47.30228 66.42019 56.86123
# Shear Modulus (GPa) = 13.92074 17.73260 15.82667
#
# Velocity S-wave (km/s) = 2.93520 3.31278 3.12969
# Velocity P-wave (km/s) = 6.38451 7.46587 6.94627
#
# Compressibility (1/GPa) = 0.02114063
#
# Stress axis : x y z
#
# Youngs Moduli (GPa) = 49.65432 69.87706 26.53125
#
# Poissons Ratio (x) = 0.49348 0.26891
# Poissons Ratio (y) = 0.35067 0.22028
# Poissons Ratio (z) = 0.50328 0.58016
#
# Static dielectric constant tensor:
#      x y z
#    x 2.989920 0.000000 0.000000 
#    y 0.000000 3.360570 0.000000 
#    z 0.000000 0.000000 2.978490 
# 
# 
# High freq. dielectric constant tensor:
#      x y z
#    x 1.602370 0.000000 0.000000 
#    y 0.000000 1.622540 0.000000 
#    z 0.000000 0.000000 1.606040 
# 
# From -- ./inp_files/15034.got.cif
#   From: 2010.03.12/outbox.cif.g09.slc.cpg/sg65_8_cif.got.tgz:15034.got - 2010.04.10 20:52:16.
