data_PCOD8266719
_publ_section_title
;
Structure prediction by ZEFSAII (Michael W. Deem and Ramdas Pophale) SiO2 
 PCOD8266719
Probable space group: C M M M
;
_chemical_formula_sum "Si O2"
_cell_formula_units_Z 76
_cell_length_a 25.135068
_cell_length_b 14.316504
_cell_length_c 10.659566
_cell_angle_alpha 90.000000
_cell_angle_beta 90.000000
_cell_angle_gamma 90.000000
_cell_volume 3835.805401
_symmetry_space_group_name_H-M "C M M M"
_symmetry_group_IT_number 65
_symmetry_cell_setting 'orthorhombic'
loop_
_space_group_symop_operation_xyz
x,y,z
-x,-y,z
x,-y,-z
-x,y,-z
-x,-y,-z
x,y,-z
-x,y,z
x,-y,z
1/2+x,1/2+y,z
1/2-x,1/2-y,z
1/2+x,1/2-y,-z
1/2-x,1/2+y,-z
1/2-x,1/2-y,-z
1/2+x,1/2+y,-z
1/2-x,1/2+y,z
1/2+x,1/2-y,z
loop_
_atom_site_type_symbol
_atom_site_label
_atom_site_fract_x
_atom_site_fract_y
_atom_site_fract_z
Si Si1 0.895904 0.677081 0.248494
Si Si2 0.666395 0.000000 0.146441
Si Si3 0.160927 0.112001 0.000000
Si Si4 0.922203 0.396542 0.500000
Si Si5 0.322593 0.000000 0.500000
Si Si6 0.262732 0.500000 0.296676
Si Si7 0.197426 0.810720 0.745684
Si Si8 0.060770 0.233618 0.000000
O O1 0.860191 0.589211 0.211440
O O2 0.935462 0.656591 0.368234
O O3 0.855995 0.758441 0.295430
O O4 0.929812 0.705935 0.126375
O O5 0.731485 0.000000 0.161565
O O6 0.653349 0.000000 0.000000
O O7 0.193278 0.157966 0.111574
O O8 0.099114 0.143544 0.000000
O O9 0.162102 0.000000 0.000000
O O10 0.949626 0.500000 0.500000
O O11 0.858270 0.406472 0.500000
O O12 0.289533 0.000000 0.622986
O O13 0.297865 0.408997 0.328629
O O14 0.250000 0.750000 0.722882
O O15 0.000000 0.198632 0.000000
#
# Coordination Sequence:
#
# PCOD8266719 Si02
#       8
#    16   8   8   8   4   8  16   8
#     4  11  21  37  59  81 114 154 191 237 289 340
#     4  12  20  32  52  80 109 152 193 224 283 338
#     4  10  21  36  57  84 116 148 189 245 295 337
#     4  10  18  35  59  82 112 154 198 230 276 344
#     4  10  18  32  50  72 113 160 201 218 256 322
#     4  12  22  32  48  78 118 163 196 238 260 327
#     4  11  21  32  49  82 120 158 196 231 273 322
#     4  10  24  43  62  87 111 140 190 244 308 370
#
# _framework density 19.813310000000001
#
# number of rings (size 3 to 8) (size 9 to 14) (size 15 to 20)
#    0.316    0.842    7.368    0.316    1.474    1.053 
#    0.000    3.684    0.000    0.632    0.000    0.000 
#    0.000    3.789    0.000    0.000    0.000    0.000 
#
# Total GULP energy -470748.869293 kJ/mol
# GULP energy per Si atom -12388.128139 kJ/mol
# Density = 1.976821 g / cm^3
# Si number density = 19.813310 Si / 1000 Ang^3
#
#
#
# Elastic Constant Matrix: (Units=GPa)
#
#
# Indices 1 2 3 4 5 6 
#
# 1 60.7619 18.2466 3.8683 0.0000 0.0000 0.0000
# 2 18.2466 114.0863 16.1105 0.0000 0.0000 0.0000
# 3 3.8683 16.1105 100.2667 0.0000 0.0000 0.0000
# 4 0.0000 0.0000 0.0000 20.9143 0.0000 0.0000
# 5 0.0000 0.0000 0.0000 0.0000 36.6667 0.0000
# 6 0.0000 0.0000 0.0000 0.0000 0.0000 1.7070
#
#
#
# Elastic Compliance Matrix: (Units=1/GPa)
#
#
# Indices 1 2 3 4 5 6 
#
# 1 0.017293 -0.002734 -0.000228 0.000000 0.000000 0.000000
# 2 -0.002734 0.009401 -0.001405 0.000000 0.000000 0.000000
# 3 -0.000228 -0.001405 0.010208 0.000000 0.000000 0.000000
# 4 0.000000 0.000000 0.000000 0.047814 0.000000 0.000000
# 5 0.000000 0.000000 0.000000 0.000000 0.027273 0.000000
# 6 0.000000 0.000000 0.000000 0.000000 0.000000 0.585814
#
#
# Mechanical properties :
#
#
# Convention : Reuss Voigt Hill
#
# Bulk Modulus (GPa) = 35.50033 39.06286 37.28159
# Shear Modulus (GPa) = 6.98396 27.65024 17.31710
#
# Velocity S-wave (km/s) = 1.87950 3.73974 2.95958
# Velocity P-wave (km/s) = 4.76092 6.19724 5.52595
#
# Compressibility (1/GPa) = 0.02816875
#
# Stress axis : x y z
#
# Youngs Moduli (GPa) = 57.82661 106.37269 97.96286
#
# Poissons Ratio (x) = 0.29078 0.02233
# Poissons Ratio (y) = 0.15808 0.13764
# Poissons Ratio (z) = 0.01318 0.14946
#
# Static dielectric constant tensor:
#      x y z
#    x 3.267470 0.000000 0.000000 
#    y 0.000000 4.050580 0.000000 
#    z 0.000000 0.000000 4.035420 
# 
# 
# High freq. dielectric constant tensor:
#      x y z
#    x 1.742210 0.000000 0.000000 
#    y 0.000000 1.771620 0.000000 
#    z 0.000000 0.000000 1.778230 
# 
# From -- ./inp_files/30498.got.cif
#   From: 2010.03.12/outbox.cif.g09.slc.cpg/sg65_16_cif.got.tgz:30498.got - 2010.04.10 20:52:16.
