data_PCOD8266150
_publ_section_title
;
Structure prediction by ZEFSAII (Michael W. Deem and Ramdas Pophale) SiO2 
 PCOD8266150
Probable space group: C M M M
;
_chemical_formula_sum "Si O2"
_cell_formula_units_Z 80
_cell_length_a 31.213075
_cell_length_b 17.787924
_cell_length_c 7.704627
_cell_angle_alpha 90.000000
_cell_angle_beta 90.000000
_cell_angle_gamma 90.000000
_cell_volume 4277.730689
_symmetry_space_group_name_H-M "C M M M"
_symmetry_group_IT_number 65
_symmetry_cell_setting 'orthorhombic'
loop_
_space_group_symop_operation_xyz
x,y,z
-x,-y,z
x,-y,-z
-x,y,-z
-x,-y,-z
x,y,-z
-x,y,z
x,-y,z
1/2+x,1/2+y,z
1/2-x,1/2-y,z
1/2+x,1/2-y,-z
1/2-x,1/2+y,-z
1/2-x,1/2-y,-z
1/2+x,1/2+y,-z
1/2-x,1/2+y,z
1/2+x,1/2-y,z
loop_
_atom_site_type_symbol
_atom_site_label
_atom_site_fract_x
_atom_site_fract_y
_atom_site_fract_z
Si Si1 0.154004 0.637972 0.305228
Si Si2 0.550420 0.765426 0.000000
Si Si3 0.746656 0.835027 0.794217
Si Si4 0.599079 0.082479 0.000000
Si Si5 0.332507 0.414478 0.205514
Si Si6 0.393547 0.712459 0.305077
O O1 0.140157 0.615010 0.500000
O O2 0.204640 0.626152 0.284774
O O3 0.142773 0.725157 0.265613
O O4 0.128567 0.586545 0.170715
O O5 0.562957 0.853427 0.000000
O O6 0.567729 0.723319 0.170871
O O7 0.500000 0.758425 0.000000
O O8 0.750000 0.750000 0.725194
O O9 0.787501 0.881483 0.726521
O O10 0.742824 0.836862 0.000000
O O11 0.577062 0.000000 0.000000
O O12 0.336725 0.500000 0.268961
O O13 0.372073 0.368874 0.285290
O O14 0.334673 0.407466 0.000000
O O15 0.411989 0.720725 0.500000
#
# Coordination Sequence:
#
# PCOD8266150 Si02
#       6
#    16   8  16   8  16  16
#     4  10  20  34  55  80 109 154 203 236 271 321
#     4  10  22  41  66  91 112 137 175 222 280 347
#     4  10  18  29  51  77 110 158 201 243 278 315
#     4  10  22  39  58  83 118 149 180 228 279 328
#     4  10  20  33  52  80 115 154 195 238 283 324
#     4  10  20  36  60  85 111 145 186 230 276 332
#
# _framework density 18.701505000000001
#
# number of rings (size 3 to 8) (size 9 to 14) (size 15 to 20)
#    0.000    2.000    4.000    0.000    0.000    3.400 
#    0.000    0.000    0.000    1.200    0.000    7.000 
#    0.000    0.000    0.000    0.000    0.000    0.000 
#
# Total GULP energy -496076.042288 kJ/mol
# GULP energy per Si atom -12401.901057 kJ/mol
# Density = 1.865894 g / cm^3
# Si number density = 18.701505 Si / 1000 Ang^3
#
#
#
# Elastic Constant Matrix: (Units=GPa)
#
#
# Indices 1 2 3 4 5 6 
#
# 1 129.5224 45.1351 51.3385 0.0000 0.0000 0.0000
# 2 45.1351 114.2111 41.2290 0.0000 0.0000 0.0000
# 3 51.3385 41.2290 100.7083 0.0000 0.0000 0.0000
# 4 0.0000 0.0000 0.0000 4.4879 0.0000 0.0000
# 5 0.0000 0.0000 0.0000 0.0000 6.8872 0.0000
# 6 0.0000 0.0000 0.0000 0.0000 0.0000 16.9754
#
#
#
# Elastic Compliance Matrix: (Units=1/GPa)
#
#
# Indices 1 2 3 4 5 6 
#
# 1 0.010270 -0.002545 -0.004193 0.000000 0.000000 0.000000
# 2 -0.002545 0.010905 -0.003167 0.000000 0.000000 0.000000
# 3 -0.004193 -0.003167 0.013364 0.000000 0.000000 0.000000
# 4 0.000000 0.000000 0.000000 0.222821 0.000000 0.000000
# 5 0.000000 0.000000 0.000000 0.000000 0.145197 0.000000
# 6 0.000000 0.000000 0.000000 0.000000 0.000000 0.058909
#
#
# Mechanical properties :
#
#
# Convention : Reuss Voigt Hill
#
# Bulk Modulus (GPa) = 67.89841 68.87189 68.38515
# Shear Modulus (GPa) = 10.28416 19.45269 14.86843
#
# Velocity S-wave (km/s) = 2.34756 3.22866 2.82270
# Velocity P-wave (km/s) = 6.61311 7.12782 6.87529
#
# Compressibility (1/GPa) = 0.01472788
#
# Stress axis : x y z
#
# Youngs Moduli (GPa) = 97.37527 91.70429 74.82838
#
# Poissons Ratio (x) = 0.23336 0.31378
# Poissons Ratio (y) = 0.24779 0.23698
# Poissons Ratio (z) = 0.40833 0.29043
#
# Static dielectric constant tensor:
#      x y z
#    x 3.045100 0.000000 0.000000 
#    y 0.000000 3.382910 0.000000 
#    z 0.000000 0.000000 3.469250 
# 
# 
# High freq. dielectric constant tensor:
#      x y z
#    x 1.689820 0.000000 0.000000 
#    y 0.000000 1.716720 0.000000 
#    z 0.000000 0.000000 1.734910 
# 
# From -- ./inp_files/18208.got.cif
#   From: 2010.03.12/outbox.cif.g09.slc.cpg/sg65_10_cif.got.tgz:18208.got - 2010.04.10 20:52:16.
