data_PCOD8266195
_publ_section_title
;
Structure prediction by ZEFSAII (Michael W. Deem and Ramdas Pophale) SiO2 
 PCOD8266195
Probable space group: C M M M
;
_chemical_formula_sum "Si O2"
_cell_formula_units_Z 88
_cell_length_a 8.822521
_cell_length_b 27.410736
_cell_length_c 21.185928
_cell_angle_alpha 90.000000
_cell_angle_beta 90.000000
_cell_angle_gamma 90.000000
_cell_volume 5123.430975
_symmetry_space_group_name_H-M "C M M M"
_symmetry_group_IT_number 65
_symmetry_cell_setting 'orthorhombic'
loop_
_space_group_symop_operation_xyz
x,y,z
-x,-y,z
x,-y,-z
-x,y,-z
-x,-y,-z
x,y,-z
-x,y,z
x,-y,z
1/2+x,1/2+y,z
1/2-x,1/2-y,z
1/2+x,1/2-y,-z
1/2-x,1/2+y,-z
1/2-x,1/2-y,-z
1/2+x,1/2+y,-z
1/2-x,1/2+y,z
1/2+x,1/2-y,z
loop_
_atom_site_type_symbol
_atom_site_label
_atom_site_fract_x
_atom_site_fract_y
_atom_site_fract_z
Si Si1 0.174887 0.853030 0.241066
Si Si2 0.818702 0.196227 0.000000
Si Si3 0.320731 0.196903 0.873653
Si Si4 0.325072 0.107705 0.428545
Si Si5 0.175420 0.801203 0.629550
Si Si6 0.324548 0.445113 0.681443
O O1 0.284222 0.838845 0.183968
O O2 0.206584 0.815968 0.298155
O O3 0.220211 0.907777 0.262730
O O4 0.000000 0.850263 0.219287
O O5 0.750000 0.250000 0.000000
O O6 0.753611 0.171829 0.063892
O O7 0.000000 0.195996 0.000000
O O8 0.500000 0.202396 0.882401
O O9 0.250000 0.250000 0.860196
O O10 0.296289 0.090182 0.500000
O O11 0.500000 0.116931 0.414559
O O12 0.240377 0.158445 0.417335
O O13 0.266797 0.065287 0.382416
O O14 0.250000 0.750000 0.614108
O O15 0.000000 0.796567 0.615350
O O16 0.500000 0.437119 0.664573
O O17 0.290085 0.500000 0.704633
#
# Coordination Sequence:
#
# PCOD8266195 Si02
#       6
#    16   8  16  16  16  16
#     4   9  18  32  49  71  96 123 158 196 236 283
#     4  10  18  30  46  66  97 134 169 202 234 269
#     4  11  20  30  46  70 101 135 168 198 232 274
#     4  10  21  35  50  70  96 125 158 196 239 290
#     4  10  20  33  50  70  95 127 162 200 239 283
#     4   9  19  36  56  75  95 121 155 198 246 294
#
# _framework density 17.175989999999999
#
# number of rings (size 3 to 8) (size 9 to 14) (size 15 to 20)
#    0.000    2.182    0.000    6.273    0.000    7.636 
#    0.000    1.818    0.000    0.000    0.000    0.636 
#    0.000    5.091    0.000    0.000    0.000    0.000 
#
# Total GULP energy -545611.892486 kJ/mol
# GULP energy per Si atom -12400.270284 kJ/mol
# Density = 1.713690 g / cm^3
# Si number density = 17.175990 Si / 1000 Ang^3
#
#
#
# Elastic Constant Matrix: (Units=GPa)
#
#
# Indices 1 2 3 4 5 6 
#
# 1 116.3093 34.0147 55.6080 0.0000 0.0000 0.0000
# 2 34.0147 89.9987 34.8773 0.0000 0.0000 0.0000
# 3 55.6080 34.8773 101.2039 0.0000 0.0000 0.0000
# 4 0.0000 0.0000 0.0000 15.0654 0.0000 0.0000
# 5 0.0000 0.0000 0.0000 0.0000 31.4640 0.0000
# 6 0.0000 0.0000 0.0000 0.0000 0.0000 23.2989
#
#
#
# Elastic Compliance Matrix: (Units=1/GPa)
#
#
# Indices 1 2 3 4 5 6 
#
# 1 0.012059 -0.002297 -0.005834 0.000000 0.000000 0.000000
# 2 -0.002297 0.013261 -0.003308 0.000000 0.000000 0.000000
# 3 -0.005834 -0.003308 0.014227 0.000000 0.000000 0.000000
# 4 0.000000 0.000000 0.000000 0.066377 0.000000 0.000000
# 5 0.000000 0.000000 0.000000 0.000000 0.031782 0.000000
# 6 0.000000 0.000000 0.000000 0.000000 0.000000 0.042920
#
#
# Mechanical properties :
#
#
# Convention : Reuss Voigt Hill
#
# Bulk Modulus (GPa) = 59.99328 61.83465 60.91396
# Shear Modulus (GPa) = 23.91630 26.16644 25.04137
#
# Velocity S-wave (km/s) = 3.73557 3.90735 3.82243
# Velocity P-wave (km/s) = 7.32191 7.51234 7.41774
#
# Compressibility (1/GPa) = 0.01666853
#
# Stress axis : x y z
#
# Youngs Moduli (GPa) = 82.92630 75.40727 70.28879
#
# Poissons Ratio (x) = 0.17318 0.41010
# Poissons Ratio (y) = 0.19045 0.23254
# Poissons Ratio (z) = 0.48383 0.24947
#
# Static dielectric constant tensor:
#      x y z
#    x 3.286730 0.000000 0.000000 
#    y 0.000000 3.062790 0.000000 
#    z 0.000000 0.000000 3.428460 
# 
# 
# High freq. dielectric constant tensor:
#      x y z
#    x 1.675840 0.000000 0.000000 
#    y 0.000000 1.636730 0.000000 
#    z 0.000000 0.000000 1.659070 
# 
# From -- ./inp_files/60639.got.cif
#   From: 2010.03.12/outbox.cif.g09.slc.cpg/sg65_31_cif.got.tgz:60639.got - 2010.04.10 20:52:16.
