data_PCOD8266098
_publ_section_title
;
Structure prediction by ZEFSAII (Michael W. Deem and Ramdas Pophale) SiO2 
 PCOD8266098
Probable space group: C M M M
;
_chemical_formula_sum "Si O2"
_cell_formula_units_Z 96
_cell_length_a 8.484717
_cell_length_b 27.519341
_cell_length_c 23.707542
_cell_angle_alpha 90.000000
_cell_angle_beta 90.000000
_cell_angle_gamma 90.000000
_cell_volume 5535.564554
_symmetry_space_group_name_H-M "C M M M"
_symmetry_group_IT_number 65
_symmetry_cell_setting 'orthorhombic'
loop_
_space_group_symop_operation_xyz
x,y,z
-x,-y,z
x,-y,-z
-x,y,-z
-x,-y,-z
x,y,-z
-x,y,z
x,-y,z
1/2+x,1/2+y,z
1/2-x,1/2-y,z
1/2+x,1/2-y,-z
1/2-x,1/2+y,-z
1/2-x,1/2-y,-z
1/2+x,1/2+y,-z
1/2-x,1/2+y,z
1/2+x,1/2-y,z
loop_
_atom_site_type_symbol
_atom_site_label
_atom_site_fract_x
_atom_site_fract_y
_atom_site_fract_z
Si Si1 0.812831 0.554336 0.562417
Si Si2 0.684723 0.111510 0.330757
Si Si3 0.684272 0.860426 0.836498
Si Si4 0.684483 0.697843 0.935067
Si Si5 0.315294 0.697892 0.265760
Si Si6 0.682770 0.555350 0.770554
O O1 0.759361 0.572015 0.500000
O O2 0.746549 0.500000 0.573770
O O3 0.748900 0.591460 0.609618
O O4 0.000000 0.552447 0.566119
O O5 0.500000 0.123155 0.333306
O O6 0.777664 0.160777 0.316482
O O7 0.714786 0.070785 0.283389
O O8 0.500000 0.869822 0.832657
O O9 0.731185 0.843705 0.898924
O O10 0.732135 0.819242 0.791645
O O11 0.772822 0.910994 0.823696
O O12 0.500000 0.697006 0.923127
O O13 0.750000 0.750000 0.916484
O O14 0.725210 0.687131 0.000000
O O15 0.500000 0.700379 0.254780
O O16 0.250000 0.750000 0.283810
O O17 0.500000 0.562706 0.755573
O O18 0.721797 0.500000 0.786573
#
# Coordination Sequence:
#
# PCOD8266098 Si02
#       6
#    16  16  16  16  16  16
#     4   8  14  25  43  69  99 128 157 191 232 279
#     4  10  18  29  48  73  98 125 159 197 238 284
#     4  11  21  33  51  74 100 128 160 197 238 284
#     4  10  20  34  52  74 101 131 162 196 236 282
#     4  11  21  34  50  69  96 126 159 197 239 287
#     4  10  20  33  49  70  98 130 162 197 239 285
#
# _framework density 17.342406
#
# number of rings (size 3 to 8) (size 9 to 14) (size 15 to 20)
#    0.000    2.000    0.000    8.000    0.000    3.000 
#    0.000    0.000    0.000    3.000    0.000    9.333 
#    0.000    0.000    0.000    0.000    0.000    0.000 
#
# Total GULP energy -595262.288142 kJ/mol
# GULP energy per Si atom -12401.297670 kJ/mol
# Density = 1.730293 g / cm^3
# Si number density = 17.342406 Si / 1000 Ang^3
#
#
#
# Elastic Constant Matrix: (Units=GPa)
#
#
# Indices 1 2 3 4 5 6 
#
# 1 53.7848 20.6580 10.9301 0.0000 0.0000 0.0000
# 2 20.6580 121.9465 55.9331 0.0000 0.0000 0.0000
# 3 10.9301 55.9331 99.1978 0.0000 0.0000 0.0000
# 4 0.0000 0.0000 0.0000 30.2341 0.0000 0.0000
# 5 0.0000 0.0000 0.0000 0.0000 19.6945 0.0000
# 6 0.0000 0.0000 0.0000 0.0000 0.0000 27.0563
#
#
#
# Elastic Compliance Matrix: (Units=1/GPa)
#
#
# Indices 1 2 3 4 5 6 
#
# 1 0.019898 -0.003190 -0.000394 0.000000 0.000000 0.000000
# 2 -0.003190 0.011572 -0.006174 0.000000 0.000000 0.000000
# 3 -0.000394 -0.006174 0.013605 0.000000 0.000000 0.000000
# 4 0.000000 0.000000 0.000000 0.033075 0.000000 0.000000
# 5 0.000000 0.000000 0.000000 0.000000 0.050776 0.000000
# 6 0.000000 0.000000 0.000000 0.000000 0.000000 0.036960
#
#
# Mechanical properties :
#
#
# Convention : Reuss Voigt Hill
#
# Bulk Modulus (GPa) = 39.12268 49.99684 44.55976
# Shear Modulus (GPa) = 25.78361 27.89083 26.83722
#
# Velocity S-wave (km/s) = 3.86001 4.01464 3.93808
# Velocity P-wave (km/s) = 6.51722 7.09800 6.81380
#
# Compressibility (1/GPa) = 0.02556062
#
# Stress axis : x y z
#
# Youngs Moduli (GPa) = 50.25653 86.41252 73.50096
#
# Poissons Ratio (x) = 0.27567 0.02893
# Poissons Ratio (y) = 0.16033 0.45377
# Poissons Ratio (z) = 0.01978 0.53348
#
# Static dielectric constant tensor:
#      x y z
#    x 3.217170 0.000000 0.000000 
#    y 0.000000 3.310040 0.000000 
#    z 0.000000 0.000000 3.302490 
# 
# 
# High freq. dielectric constant tensor:
#      x y z
#    x 1.673840 0.000000 0.000000 
#    y 0.000000 1.661120 0.000000 
#    z 0.000000 0.000000 1.658420 
# 
# From -- ./inp_files/68063.got.cif
#   From: 2010.03.12/outbox.cif.g09.slc.cpg/sg65_35_cif.got.tgz:68063.got - 2010.04.10 20:52:16.
