data_PCOD8266223
_publ_section_title
;
Structure prediction by ZEFSAII (Michael W. Deem and Ramdas Pophale) SiO2 
 PCOD8266223
Probable space group: C M M M
;
_chemical_formula_sum "Si O2"
_cell_formula_units_Z 84
_cell_length_a 31.118793
_cell_length_b 13.933648
_cell_length_c 11.854236
_cell_angle_alpha 90.000000
_cell_angle_beta 90.000000
_cell_angle_gamma 90.000000
_cell_volume 5139.976670
_symmetry_space_group_name_H-M "C M M M"
_symmetry_group_IT_number 65
_symmetry_cell_setting 'orthorhombic'
loop_
_space_group_symop_operation_xyz
x,y,z
-x,-y,z
x,-y,-z
-x,y,-z
-x,-y,-z
x,y,-z
-x,y,z
x,-y,z
1/2+x,1/2+y,z
1/2-x,1/2-y,z
1/2+x,1/2-y,-z
1/2-x,1/2+y,-z
1/2-x,1/2-y,-z
1/2+x,1/2+y,-z
1/2-x,1/2+y,z
1/2+x,1/2-y,z
loop_
_atom_site_type_symbol
_atom_site_label
_atom_site_fract_x
_atom_site_fract_y
_atom_site_fract_z
Si Si1 0.416015 0.612576 0.869449
Si Si2 0.000000 0.134047 0.500000
Si Si3 0.271935 0.610924 0.627495
Si Si4 0.500000 0.396744 0.754645
Si Si5 0.354660 0.300881 0.293914
Si Si6 0.593011 0.615332 0.500000
Si Si7 0.174529 0.606862 0.366126
O O1 0.408435 0.500000 0.846628
O O2 0.456812 0.654826 0.799046
O O3 0.374644 0.671379 0.826430
O O4 0.423038 0.635260 0.000000
O O5 0.000000 0.081677 0.621046
O O6 0.951723 0.179884 0.500000
O O7 0.276661 0.650204 0.500000
O O8 0.284397 0.500000 0.631205
O O9 0.304733 0.669012 0.705869
O O10 0.223608 0.627102 0.671545
O O11 0.500000 0.500000 0.816834
O O12 0.379963 0.358841 0.390215
O O13 0.356972 0.185672 0.310986
O O14 0.582252 0.500000 0.500000
O O15 0.171367 0.614016 0.500000
O O16 0.160445 0.500000 0.326417
#
# Coordination Sequence:
#
# PCOD8266223 Si02
#       7
#    16   4  16   8  16   8  16
#     4  10  21  34  47  66  95 131 167 197 229 276
#     4  12  21  30  44  72 111 134 145 176 238 300
#     4   9  16  26  43  69 101 127 150 187 239 297
#     4  10  18  30  47  67  98 133 156 184 229 286
#     4  12  19  28  48  71  95 128 162 200 233 279
#     4  12  21  28  42  72 105 127 149 186 239 290
#     4   9  18  31  45  68 100 130 157 191 242 294
#
# _framework density 16.342486999999998
#
# number of rings (size 3 to 8) (size 9 to 14) (size 15 to 20)
#    0.000    1.714    3.810    4.571    0.000    2.667 
#    0.000    0.000    0.000    2.857    0.000    6.000 
#    0.000    1.524    0.000    0.000    0.000    0.000 
#
# Total GULP energy -520333.195161 kJ/mol
# GULP energy per Si atom -12388.885599 kJ/mol
# Density = 1.630529 g / cm^3
# Si number density = 16.342487 Si / 1000 Ang^3
#
#
#
# Elastic Constant Matrix: (Units=GPa)
#
#
# Indices 1 2 3 4 5 6 
#
# 1 58.4446 47.3345 32.4370 0.0000 0.0000 0.0000
# 2 47.3345 79.5364 33.5626 0.0000 0.0000 0.0000
# 3 32.4370 33.5626 79.6301 0.0000 0.0000 0.0000
# 4 0.0000 0.0000 0.0000 16.2373 0.0000 0.0000
# 5 0.0000 0.0000 0.0000 0.0000 14.8672 0.0000
# 6 0.0000 0.0000 0.0000 0.0000 0.0000 12.9482
#
#
#
# Elastic Compliance Matrix: (Units=1/GPa)
#
#
# Indices 1 2 3 4 5 6 
#
# 1 0.035840 -0.018450 -0.006823 0.000000 0.000000 0.000000
# 2 -0.018450 0.024791 -0.002933 0.000000 0.000000 0.000000
# 3 -0.006823 -0.002933 0.016574 0.000000 0.000000 0.000000
# 4 0.000000 0.000000 0.000000 0.061587 0.000000 0.000000
# 5 0.000000 0.000000 0.000000 0.000000 0.067262 0.000000
# 6 0.000000 0.000000 0.000000 0.000000 0.000000 0.077231
#
#
# Mechanical properties :
#
#
# Convention : Reuss Voigt Hill
#
# Bulk Modulus (GPa) = 48.09602 49.36437 48.73020
# Shear Modulus (GPa) = 14.42469 15.76232 15.09351
#
# Velocity S-wave (km/s) = 2.97417 3.10901 3.04233
# Velocity P-wave (km/s) = 6.42559 6.56960 6.49799
#
# Compressibility (1/GPa) = 0.02079174
#
# Stress axis : x y z
#
# Youngs Moduli (GPa) = 27.90185 40.33722 60.33692
#
# Poissons Ratio (x) = 0.74424 0.41167
# Poissons Ratio (y) = 0.51480 0.17698
# Poissons Ratio (z) = 0.19037 0.11832
#
# Static dielectric constant tensor:
#      x y z
#    x 3.259210 0.000000 0.000000 
#    y 0.000000 3.007860 0.000000 
#    z 0.000000 0.000000 2.817010 
# 
# 
# High freq. dielectric constant tensor:
#      x y z
#    x 1.635320 0.000000 0.000000 
#    y 0.000000 1.597320 0.000000 
#    z 0.000000 0.000000 1.592700 
# 
# From -- ./inp_files/33855.got.cif
#   From: 2010.03.12/outbox.cif.g09.slc.cpg/sg65_17_cif.got.tgz:33855.got - 2010.04.10 20:52:16.
