data_PCOD8266279
_publ_section_title
;
Structure prediction by ZEFSAII (Michael W. Deem and Ramdas Pophale) SiO2 
 PCOD8266279
Probable space group: C M M M
;
_chemical_formula_sum "Si O2"
_cell_formula_units_Z 104
_cell_length_a 8.802933
_cell_length_b 28.594488
_cell_length_c 23.451273
_cell_angle_alpha 90.000000
_cell_angle_beta 90.000000
_cell_angle_gamma 90.000000
_cell_volume 5903.045673
_symmetry_space_group_name_H-M "C M M M"
_symmetry_group_IT_number 65
_symmetry_cell_setting 'orthorhombic'
loop_
_space_group_symop_operation_xyz
x,y,z
-x,-y,z
x,-y,-z
-x,y,-z
-x,-y,-z
x,y,-z
-x,y,z
x,-y,z
1/2+x,1/2+y,z
1/2-x,1/2-y,z
1/2+x,1/2-y,-z
1/2-x,1/2+y,-z
1/2-x,1/2-y,-z
1/2+x,1/2+y,-z
1/2-x,1/2+y,z
1/2+x,1/2-y,z
loop_
_atom_site_type_symbol
_atom_site_label
_atom_site_fract_x
_atom_site_fract_y
_atom_site_fract_z
Si Si1 0.320363 0.604217 0.387892
Si Si2 0.322886 0.894295 0.172019
Si Si3 0.679349 0.297697 0.343985
Si Si4 0.322676 0.796887 0.221530
Si Si5 0.819790 0.052761 0.723540
Si Si6 0.180347 0.447474 0.062773
Si Si7 0.681426 0.553442 0.500000
O O1 0.500000 0.598021 0.388062
O O2 0.276991 0.659222 0.385450
O O3 0.252677 0.578259 0.332444
O O4 0.252695 0.580418 0.444715
O O5 0.500000 0.905914 0.178771
O O6 0.292228 0.838940 0.177466
O O7 0.234988 0.921609 0.220397
O O8 0.259551 0.911483 0.110686
O O9 0.500000 0.291823 0.338589
O O10 0.750000 0.250000 0.369543
O O11 0.744547 0.308559 0.281579
O O12 0.500000 0.788940 0.232618
O O13 0.250000 0.750000 0.194696
O O14 0.000000 0.054183 0.722531
O O15 0.758093 0.000000 0.723680
O O16 0.236767 0.500000 0.077529
O O17 0.000000 0.446692 0.061557
O O18 0.242092 0.432616 0.000000
O O19 0.740055 0.500000 0.500000
O O20 0.500000 0.554395 0.500000
#
# Coordination Sequence:
#
# PCOD8266279 Si02
#       7
#    16  16  16  16  16  16   8
#     4   9  17  29  45  67  94 124 156 195 237 275
#     4  10  19  30  47  72  97 121 156 197 238 281
#     4  10  18  30  48  69  95 123 153 192 237 285
#     4  10  19  30  46  69  95 124 156 192 236 285
#     4  10  19  30  45  68  98 127 154 189 238 286
#     4   8  14  26  45  68  94 124 157 193 230 269
#     4   9  16  28  47  68  91 123 163 199 228 271
#
# _framework density 17.618023999999998
#
# number of rings (size 3 to 8) (size 9 to 14) (size 15 to 20)
#    0.000    2.538    1.538    3.231    0.000    3.385 
#    0.000    0.385    0.000    0.923    0.000    6.462 
#    0.000    6.769    0.000    0.000    0.000    0.615 
#
# Total GULP energy -644594.540798 kJ/mol
# GULP energy per Si atom -12396.048861 kJ/mol
# Density = 1.757792 g / cm^3
# Si number density = 17.618024 Si / 1000 Ang^3
#
#
#
# Elastic Constant Matrix: (Units=GPa)
#
#
# Indices 1 2 3 4 5 6 
#
# 1 36.1132 31.6637 15.4788 0.0000 0.0000 0.0000
# 2 31.6637 160.4364 85.7462 0.0000 0.0000 0.0000
# 3 15.4788 85.7462 134.2879 0.0000 0.0000 0.0000
# 4 0.0000 0.0000 0.0000 32.9993 0.0000 0.0000
# 5 0.0000 0.0000 0.0000 0.0000 13.0076 0.0000
# 6 0.0000 0.0000 0.0000 0.0000 0.0000 14.9203
#
#
#
# Elastic Compliance Matrix: (Units=1/GPa)
#
#
# Indices 1 2 3 4 5 6 
#
# 1 0.033512 -0.006906 0.000547 0.000000 0.000000 0.000000
# 2 -0.006906 0.010885 -0.006155 0.000000 0.000000 0.000000
# 3 0.000547 -0.006155 0.011313 0.000000 0.000000 0.000000
# 4 0.000000 0.000000 0.000000 0.030304 0.000000 0.000000
# 5 0.000000 0.000000 0.000000 0.000000 0.076878 0.000000
# 6 0.000000 0.000000 0.000000 0.000000 0.000000 0.067023
#
#
# Mechanical properties :
#
#
# Convention : Reuss Voigt Hill
#
# Bulk Modulus (GPa) = 32.59134 66.29053 49.44094
# Shear Modulus (GPa) = 18.85585 25.38204 22.11894
#
# Velocity S-wave (km/s) = 3.27503 3.79975 3.54711
# Velocity P-wave (km/s) = 5.73063 7.54712 6.70072
#
# Compressibility (1/GPa) = 0.03068299
#
# Stress axis : x y z
#
# Youngs Moduli (GPa) = 29.84046 91.86682 88.39050
#
# Poissons Ratio (x) = 0.63445 -0.04836
# Poissons Ratio (y) = 0.20608 0.54400
# Poissons Ratio (z) = -0.01632 0.56539
#
# Static dielectric constant tensor:
#      x y z
#    x 2.946750 0.000000 0.000000 
#    y 0.000000 3.505990 0.000000 
#    z 0.000000 0.000000 3.418010 
# 
# 
# High freq. dielectric constant tensor:
#      x y z
#    x 1.646310 0.000000 0.000000 
#    y 0.000000 1.693830 0.000000 
#    z 0.000000 0.000000 1.665820 
# 
# From -- ./inp_files/68463.got.cif
#   From: 2010.03.12/outbox.cif.g09.slc.cpg/sg65_35_cif.got.tgz:68463.got - 2010.04.10 20:52:16.
