data_PCOD8266579
_publ_section_title
;
Structure prediction by ZEFSAII (Michael W. Deem and Ramdas Pophale) SiO2 
 PCOD8266579
Probable space group: C M M M
;
_chemical_formula_sum "Si O2"
_cell_formula_units_Z 96
_cell_length_a 23.761087
_cell_length_b 25.782079
_cell_length_c 8.303867
_cell_angle_alpha 90.000000
_cell_angle_beta 90.000000
_cell_angle_gamma 90.000000
_cell_volume 5087.033808
_symmetry_space_group_name_H-M "C M M M"
_symmetry_group_IT_number 65
_symmetry_cell_setting 'orthorhombic'
loop_
_space_group_symop_operation_xyz
x,y,z
-x,-y,z
x,-y,-z
-x,y,-z
-x,-y,-z
x,y,-z
-x,y,z
x,-y,z
1/2+x,1/2+y,z
1/2-x,1/2-y,z
1/2+x,1/2-y,-z
1/2-x,1/2+y,-z
1/2-x,1/2-y,-z
1/2+x,1/2+y,-z
1/2-x,1/2+y,z
1/2+x,1/2-y,z
loop_
_atom_site_type_symbol
_atom_site_label
_atom_site_fract_x
_atom_site_fract_y
_atom_site_fract_z
Si Si1 0.249352 0.191577 0.308631
Si Si2 0.634478 0.151338 0.687528
Si Si3 0.127925 0.843318 0.691170
Si Si4 0.435375 0.755132 0.186782
Si Si5 0.936971 0.942828 0.691180
Si Si6 0.563159 0.057523 0.308234
O O1 0.253862 0.194284 0.500000
O O2 0.250000 0.250000 0.238466
O O3 0.303386 0.160801 0.237346
O O4 0.192726 0.162371 0.254233
O O5 0.641170 0.140833 0.500000
O O6 0.596415 0.201779 0.710344
O O7 0.605251 0.100567 0.766998
O O8 0.121517 0.836564 0.500000
O O9 0.090305 0.800762 0.777884
O O10 0.106506 0.899364 0.753171
O O11 0.500000 0.754668 0.241399
O O12 0.428832 0.768665 0.000000
O O13 0.937504 0.942776 0.500000
O O14 0.000000 0.930264 0.754376
O O15 0.918124 0.000000 0.753519
O O16 0.562814 0.060878 0.500000
O O17 0.500000 0.068641 0.244277
O O18 0.582701 0.000000 0.252980
#
# Coordination Sequence:
#
# PCOD8266579 Si02
#       6
#    16  16  16  16  16  16
#     4   9  16  28  45  69  97 122 155 202 233 257
#     4  10  18  31  51  70  92 127 163 189 229 285
#     4  10  18  31  51  70  92 127 163 189 229 285
#     4  11  23  34  45  68 100 123 148 199 248 277
#     4   8  14  25  43  69  96 119 151 197 237 270
#     4   8  14  25  43  69  96 119 151 197 237 270
#
# _framework density 18.871507000000001
#
# number of rings (size 3 to 8) (size 9 to 14) (size 15 to 20)
#    0.000    2.667    1.667    2.500    0.000    2.667 
#    0.000    2.500    0.000    6.000    0.000    4.667 
#    0.000    2.667    0.000    0.000    0.000    0.000 
#
# Total GULP energy -594974.342929 kJ/mol
# GULP energy per Si atom -12395.298811 kJ/mol
# Density = 1.882855 g / cm^3
# Si number density = 18.871507 Si / 1000 Ang^3
#
#
#
# Elastic Constant Matrix: (Units=GPa)
#
#
# Indices 1 2 3 4 5 6 
#
# 1 168.7066 94.8301 4.0579 0.0000 0.0000 0.0000
# 2 94.8301 166.1012 -2.5689 0.0000 0.0000 0.0000
# 3 4.0579 -2.5689 7.1810 0.0000 0.0000 0.0000
# 4 0.0000 0.0000 0.0000 2.5873 0.0000 0.0000
# 5 0.0000 0.0000 0.0000 0.0000 9.1709 0.0000
# 6 0.0000 0.0000 0.0000 0.0000 0.0000 30.0541
#
#
#
# Elastic Compliance Matrix: (Units=1/GPa)
#
#
# Indices 1 2 3 4 5 6 
#
# 1 0.009067 -0.005285 -0.007014 0.000000 0.000000 0.000000
# 2 -0.005285 0.009134 0.006254 0.000000 0.000000 0.000000
# 3 -0.007014 0.006254 0.145457 0.000000 0.000000 0.000000
# 4 0.000000 0.000000 0.000000 0.386504 0.000000 0.000000
# 5 0.000000 0.000000 0.000000 0.000000 0.109041 0.000000
# 6 0.000000 0.000000 0.000000 0.000000 0.000000 0.033273
#
#
# Mechanical properties :
#
#
# Convention : Reuss Voigt Hill
#
# Bulk Modulus (GPa) = 6.59770 59.40300 33.00035
# Shear Modulus (GPa) = 6.62174 24.74045 15.68110
#
# Velocity S-wave (km/s) = 1.87523 3.62469 2.88573
# Velocity P-wave (km/s) = 2.86223 7.00456 5.35052
#
# Compressibility (1/GPa) = 0.15156808
#
# Stress axis : x y z
#
# Youngs Moduli (GPa) = 110.29266 109.47654 6.87490
#
# Poissons Ratio (x) = 0.57857 0.04822
# Poissons Ratio (y) = 0.58288 -0.04300
# Poissons Ratio (z) = 0.77360 -0.68468
#
# Static dielectric constant tensor:
#      x y z
#    x 3.798610 0.000000 0.000000 
#    y 0.000000 3.797960 0.000000 
#    z 0.000000 0.000000 2.866030 
# 
# 
# High freq. dielectric constant tensor:
#      x y z
#    x 1.736520 0.000000 0.000000 
#    y 0.000000 1.737630 0.000000 
#    z 0.000000 0.000000 1.677950 
# 
# From -- ./inp_files/14306.got.cif
#   From: 2010.03.12/outbox.cif.g09.slc.cpg/sg65_8_cif.got.tgz:14306.got - 2010.04.10 20:52:16.
