data_PCOD8266851
_publ_section_title
;
Structure prediction by ZEFSAII (Michael W. Deem and Ramdas Pophale) SiO2 
 PCOD8266851
Probable space group: C M M M
;
_chemical_formula_sum "Si O2"
_cell_formula_units_Z 72
_cell_length_a 14.618341
_cell_length_b 27.894146
_cell_length_c 8.852327
_cell_angle_alpha 90.000000
_cell_angle_beta 90.000000
_cell_angle_gamma 90.000000
_cell_volume 3609.679194
_symmetry_space_group_name_H-M "C M M M"
_symmetry_group_IT_number 65
_symmetry_cell_setting 'orthorhombic'
loop_
_space_group_symop_operation_xyz
x,y,z
-x,-y,z
x,-y,-z
-x,y,-z
-x,-y,-z
x,y,-z
-x,y,z
x,-y,z
1/2+x,1/2+y,z
1/2-x,1/2-y,z
1/2+x,1/2-y,-z
1/2-x,1/2+y,-z
1/2-x,1/2-y,-z
1/2+x,1/2+y,-z
1/2-x,1/2+y,z
1/2+x,1/2-y,z
loop_
_atom_site_type_symbol
_atom_site_label
_atom_site_fract_x
_atom_site_fract_y
_atom_site_fract_z
Si Si1 0.394683 0.500000 0.679530
Si Si2 0.098063 0.170817 0.676921
Si Si3 0.773422 0.089301 0.320011
Si Si4 0.104300 0.630537 0.177782
Si Si5 0.351214 0.770363 0.670517
O O1 0.500000 0.500000 0.742888
O O2 0.400401 0.500000 0.500000
O O3 0.336030 0.454557 0.737709
O O4 0.118321 0.175241 0.500000
O O5 0.177583 0.137428 0.743929
O O6 0.092932 0.225196 0.739791
O O7 0.000000 0.145827 0.708016
O O8 0.766083 0.088068 0.500000
O O9 0.670887 0.090361 0.252251
O O10 0.133493 0.683814 0.225939
O O11 0.000000 0.619952 0.229034
O O12 0.114217 0.626421 0.000000
O O13 0.381388 0.784452 0.500000
O O14 0.250000 0.750000 0.671419
#
# Coordination Sequence:
#
# PCOD8266851 Si02
#       5
#     8  16  16  16  16
#     4   9  18  34  62  97 122 138 167 223 288 339
#     4   9  16  27  48  78 110 142 176 216 265 325
#     4  10  19  35  58  84 112 142 181 227 277 334
#     4  11  24  39  54  76 110 153 195 234 278 323
#     4  10  18  32  54  81 110 144 187 229 272 324
#
# _framework density 19.946370999999999
#
# number of rings (size 3 to 8) (size 9 to 14) (size 15 to 20)
#    0.000    2.111    2.222    2.000    0.000    5.778 
#    0.000    1.111    0.000    6.667    0.000    0.000 
#    0.000    0.000    0.000    0.000    0.000    0.000 
#
# Total GULP energy -446013.391488 kJ/mol
# GULP energy per Si atom -12389.260875 kJ/mol
# Density = 1.990097 g / cm^3
# Si number density = 19.946371 Si / 1000 Ang^3
#
#
#
# Elastic Constant Matrix: (Units=GPa)
#
#
# Indices 1 2 3 4 5 6 
#
# 1 164.8119 71.5804 31.5000 0.0000 0.0000 0.0000
# 2 71.5804 101.6932 23.9679 0.0000 0.0000 0.0000
# 3 31.5000 23.9679 32.1591 0.0000 0.0000 0.0000
# 4 0.0000 0.0000 0.0000 8.8466 0.0000 0.0000
# 5 0.0000 0.0000 0.0000 0.0000 14.3249 0.0000
# 6 0.0000 0.0000 0.0000 0.0000 0.0000 33.1542
#
#
#
# Elastic Compliance Matrix: (Units=1/GPa)
#
#
# Indices 1 2 3 4 5 6 
#
# 1 0.009403 -0.005395 -0.005189 0.000000 0.000000 0.000000
# 2 -0.005395 0.015025 -0.005913 0.000000 0.000000 0.000000
# 3 -0.005189 -0.005913 0.040585 0.000000 0.000000 0.000000
# 4 0.000000 0.000000 0.000000 0.113038 0.000000 0.000000
# 5 0.000000 0.000000 0.000000 0.000000 0.069809 0.000000
# 6 0.000000 0.000000 0.000000 0.000000 0.000000 0.030162
#
#
# Mechanical properties :
#
#
# Convention : Reuss Voigt Hill
#
# Bulk Modulus (GPa) = 31.23268 61.41788 46.32528
# Shear Modulus (GPa) = 15.54302 22.70619 19.12461
#
# Velocity S-wave (km/s) = 2.79452 3.37762 3.09981
# Velocity P-wave (km/s) = 5.10928 6.78745 6.00725
#
# Compressibility (1/GPa) = 0.03201775
#
# Stress axis : x y z
#
# Youngs Moduli (GPa) = 106.35446 66.55625 24.63984
#
# Poissons Ratio (x) = 0.35910 0.12785
# Poissons Ratio (y) = 0.57382 0.14570
# Poissons Ratio (z) = 0.55184 0.39355
#
# Static dielectric constant tensor:
#      x y z
#    x 4.128570 0.000000 0.000000 
#    y 0.000000 3.826260 0.000000 
#    z 0.000000 0.000000 3.120930 
# 
# 
# High freq. dielectric constant tensor:
#      x y z
#    x 1.801780 0.000000 0.000000 
#    y 0.000000 1.766990 0.000000 
#    z 0.000000 0.000000 1.718780 
# 
# From -- ./inp_files/7279.got.cif
#   From: 2010.03.12/outbox.cif.g09.slc.cpg/sg65_4_cif.got.tgz:7279.got - 2010.04.10 20:52:16.
