data_PCOD8266524
_publ_section_title
;
Structure prediction by ZEFSAII (Michael W. Deem and Ramdas Pophale) SiO2 
 PCOD8266524
Probable space group: C M M M
;
_chemical_formula_sum "Si O2"
_cell_formula_units_Z 88
_cell_length_a 15.125976
_cell_length_b 27.707882
_cell_length_c 12.534620
_cell_angle_alpha 90.000000
_cell_angle_beta 90.000000
_cell_angle_gamma 90.000000
_cell_volume 5253.369022
_symmetry_space_group_name_H-M "C M M M"
_symmetry_group_IT_number 65
_symmetry_cell_setting 'orthorhombic'
loop_
_space_group_symop_operation_xyz
x,y,z
-x,-y,z
x,-y,-z
-x,y,-z
-x,-y,-z
x,y,-z
-x,y,z
x,-y,z
1/2+x,1/2+y,z
1/2-x,1/2-y,z
1/2+x,1/2-y,-z
1/2-x,1/2+y,-z
1/2-x,1/2-y,-z
1/2+x,1/2+y,-z
1/2-x,1/2+y,z
1/2+x,1/2-y,z
loop_
_atom_site_type_symbol
_atom_site_label
_atom_site_fract_x
_atom_site_fract_y
_atom_site_fract_z
Si Si1 0.097874 0.554384 0.734876
Si Si2 0.000000 0.290211 0.126340
Si Si3 0.224218 0.944167 0.621699
Si Si4 0.898072 0.056879 0.000000
Si Si5 0.349583 0.860465 0.873908
Si Si6 0.000000 0.180032 0.128598
Si Si7 0.837796 0.882349 0.191886
O O1 0.107868 0.500000 0.778079
O O2 0.171899 0.564969 0.645501
O O3 0.111163 0.588490 0.836640
O O4 0.000000 0.562496 0.684749
O O5 0.912093 0.317247 0.168831
O O6 0.000000 0.235377 0.165669
O O7 0.000000 0.292269 0.000000
O O8 0.205783 0.929763 0.500000
O O9 0.162963 0.909768 0.694564
O O10 0.199122 0.000000 0.642725
O O11 0.847901 0.076230 0.103366
O O12 0.000000 0.074953 0.000000
O O13 0.892404 0.000000 0.000000
O O14 0.252266 0.852507 0.825779
O O15 0.344896 0.860761 0.000000
O O16 0.084540 0.156098 0.183167
O O17 0.000000 0.174106 0.000000
#
# Coordination Sequence:
#
# PCOD8266524 Si02
#       7
#    16   8  16   8  16   8  16
#     4   9  17  28  46  72 102 138 175 208 245 294
#     4   9  20  32  49  73 105 139 167 208 262 309
#     4   9  19  34  50  73 105 137 172 211 250 301
#     4  11  20  32  52  76 106 138 172 209 250 303
#     4  10  18  31  47  72 110 141 167 203 251 316
#     4  11  20  36  53  75 102 127 174 224 257 308
#     4  11  19  34  53  75 101 137 172 212 258 302
#
# _framework density 16.751155000000001
#
# number of rings (size 3 to 8) (size 9 to 14) (size 15 to 20)
#    0.000    2.091    3.636    0.545    0.000    2.182 
#    0.000    5.909    0.000    1.091    0.000   15.273 
#    0.000    0.000    0.000    0.000    0.000    0.000 
#
# Total GULP energy -545503.519953 kJ/mol
# GULP energy per Si atom -12397.807272 kJ/mol
# Density = 1.671303 g / cm^3
# Si number density = 16.751155 Si / 1000 Ang^3
#
#
#
# Elastic Constant Matrix: (Units=GPa)
#
#
# Indices 1 2 3 4 5 6 
#
# 1 122.2840 65.8533 39.0848 0.0000 0.0000 0.0000
# 2 65.8533 117.2600 51.1539 0.0000 0.0000 0.0000
# 3 39.0848 51.1539 89.0194 0.0000 0.0000 0.0000
# 4 0.0000 0.0000 0.0000 17.5559 0.0000 0.0000
# 5 0.0000 0.0000 0.0000 0.0000 13.3172 0.0000
# 6 0.0000 0.0000 0.0000 0.0000 0.0000 21.3976
#
#
#
# Elastic Compliance Matrix: (Units=1/GPa)
#
#
# Indices 1 2 3 4 5 6 
#
# 1 0.011948 -0.005901 -0.001855 0.000000 0.000000 0.000000
# 2 -0.005901 0.014295 -0.005624 0.000000 0.000000 0.000000
# 3 -0.001855 -0.005624 0.015280 0.000000 0.000000 0.000000
# 4 0.000000 0.000000 0.000000 0.056961 0.000000 0.000000
# 5 0.000000 0.000000 0.000000 0.000000 0.075091 0.000000
# 6 0.000000 0.000000 0.000000 0.000000 0.000000 0.046734
#
#
# Mechanical properties :
#
#
# Convention : Reuss Voigt Hill
#
# Bulk Modulus (GPa) = 67.73377 71.19415 69.46396
# Shear Modulus (GPa) = 19.84200 21.95224 20.89712
#
# Velocity S-wave (km/s) = 3.44541 3.62400 3.53583
# Velocity P-wave (km/s) = 7.50672 7.75271 7.63071
#
# Compressibility (1/GPa) = 0.01476368
#
# Stress axis : x y z
#
# Youngs Moduli (GPa) = 83.69264 69.95264 65.44639
#
# Poissons Ratio (x) = 0.41279 0.12141
# Poissons Ratio (y) = 0.49387 0.36806
# Poissons Ratio (z) = 0.15526 0.39340
#
# Static dielectric constant tensor:
#      x y z
#    x 3.389000 0.000000 0.000000 
#    y 0.000000 3.198480 0.000000 
#    z 0.000000 0.000000 2.861990 
# 
# 
# High freq. dielectric constant tensor:
#      x y z
#    x 1.657850 0.000000 0.000000 
#    y 0.000000 1.638300 0.000000 
#    z 0.000000 0.000000 1.611010 
# 
# From -- ./inp_files/25219.got.cif
#   From: 2010.03.12/outbox.cif.g09.slc.cpg/sg65_13_cif.got.tgz:25219.got - 2010.04.10 20:52:16.
