data_PCOD8266982
_publ_section_title
;
Structure prediction by ZEFSAII (Michael W. Deem and Ramdas Pophale) SiO2 
 PCOD8266982
Probable space group: C M M M
;
_chemical_formula_sum "Si O2"
_cell_formula_units_Z 96
_cell_length_a 25.204521
_cell_length_b 23.805364
_cell_length_c 8.590672
_cell_angle_alpha 90.000000
_cell_angle_beta 90.000000
_cell_angle_gamma 90.000000
_cell_volume 5154.427227
_symmetry_space_group_name_H-M "C M M M"
_symmetry_group_IT_number 65
_symmetry_cell_setting 'orthorhombic'
loop_
_space_group_symop_operation_xyz
x,y,z
-x,-y,z
x,-y,-z
-x,y,-z
-x,-y,-z
x,y,-z
-x,y,z
x,-y,z
1/2+x,1/2+y,z
1/2-x,1/2-y,z
1/2+x,1/2-y,-z
1/2-x,1/2+y,-z
1/2-x,1/2-y,-z
1/2+x,1/2+y,-z
1/2-x,1/2+y,z
1/2+x,1/2-y,z
loop_
_atom_site_type_symbol
_atom_site_label
_atom_site_fract_x
_atom_site_fract_y
_atom_site_fract_z
Si Si1 0.438681 0.317140 0.818557
Si Si2 0.311788 0.000000 0.684767
Si Si3 0.151458 0.111811 0.682787
Si Si4 0.560286 0.198230 0.317235
Si Si5 0.194456 0.000000 0.818181
Si Si6 0.848149 0.381662 0.685002
Si Si7 0.251428 0.687360 0.314961
O O1 0.500000 0.326677 0.775423
O O2 0.405979 0.363507 0.724042
O O3 0.421260 0.254601 0.769006
O O4 0.427735 0.324864 0.000000
O O5 0.250625 0.000000 0.732238
O O6 0.342663 0.945183 0.749946
O O7 0.312383 0.000000 0.500000
O O8 0.155897 0.100409 0.500000
O O9 0.195408 0.156345 0.740620
O O10 0.159859 0.053757 0.771759
O O11 0.567556 0.209224 0.500000
O O12 0.500000 0.182120 0.274759
O O13 0.596889 0.146627 0.259218
O O14 0.205424 0.000000 0.000000
O O15 0.845601 0.382665 0.500000
O O16 0.799130 0.345870 0.751954
O O17 0.249064 0.689762 0.500000
O O18 0.250000 0.750000 0.244650
#
# Coordination Sequence:
#
# PCOD8266982 Si02
#       7
#    16   8  16  16   8  16  16
#     4  10  21  37  56  80 112 146 176 215 272 326
#     4  10  18  34  55  73  99 146 194 225 268 328
#     4  11  21  36  59  82 106 140 185 225 263 321
#     4   9  17  31  53  80 108 142 184 226 269 321
#     4  12  24  38  55  78 113 147 178 222 274 321
#     4   9  16  28  49  76 105 138 182 230 272 316
#     4   9  16  26  47  78 105 131 168 217 270 318
#
# _framework density 18.624766999999999
#
# number of rings (size 3 to 8) (size 9 to 14) (size 15 to 20)
#    0.000    2.167    1.667    2.750    0.000    3.667 
#    0.000    1.667    0.000    7.000    0.000    0.000 
#    0.000    3.333    0.000    0.000    0.000    0.000 
#
# Total GULP energy -595235.915054 kJ/mol
# GULP energy per Si atom -12400.748230 kJ/mol
# Density = 1.858238 g / cm^3
# Si number density = 18.624767 Si / 1000 Ang^3
#
#
#
# Elastic Constant Matrix: (Units=GPa)
#
#
# Indices 1 2 3 4 5 6 
#
# 1 101.4678 66.2827 9.9009 0.0000 0.0000 0.0000
# 2 66.2827 160.5602 15.1416 0.0000 0.0000 0.0000
# 3 9.9009 15.1416 22.2684 0.0000 0.0000 0.0000
# 4 0.0000 0.0000 0.0000 7.3051 0.0000 0.0000
# 5 0.0000 0.0000 0.0000 0.0000 15.0135 0.0000
# 6 0.0000 0.0000 0.0000 0.0000 0.0000 33.3588
#
#
#
# Elastic Compliance Matrix: (Units=1/GPa)
#
#
# Indices 1 2 3 4 5 6 
#
# 1 0.013612 -0.005394 -0.002384 0.000000 0.000000 0.000000
# 2 -0.005394 0.008793 -0.003580 0.000000 0.000000 0.000000
# 3 -0.002384 -0.003580 0.048401 0.000000 0.000000 0.000000
# 4 0.000000 0.000000 0.000000 0.136892 0.000000 0.000000
# 5 0.000000 0.000000 0.000000 0.000000 0.066607 0.000000
# 6 0.000000 0.000000 0.000000 0.000000 0.000000 0.029977
#
#
# Mechanical properties :
#
#
# Convention : Reuss Voigt Hill
#
# Bulk Modulus (GPa) = 20.79514 51.88299 36.33906
# Shear Modulus (GPa) = 14.57608 24.00024 19.28816
#
# Velocity S-wave (km/s) = 2.80057 3.59363 3.22159
# Velocity P-wave (km/s) = 4.65265 6.71836 5.77856
#
# Compressibility (1/GPa) = 0.04808816
#
# Stress axis : x y z
#
# Youngs Moduli (GPa) = 73.46565 113.72989 20.66071
#
# Poissons Ratio (x) = 0.61351 0.04926
# Poissons Ratio (y) = 0.39630 0.07397
# Poissons Ratio (z) = 0.17514 0.40719
#
# Static dielectric constant tensor:
#      x y z
#    x 3.478820 0.000000 0.000000 
#    y 0.000000 3.717730 0.000000 
#    z 0.000000 0.000000 3.066900 
# 
# 
# High freq. dielectric constant tensor:
#      x y z
#    x 1.723050 0.000000 0.000000 
#    y 0.000000 1.729270 0.000000 
#    z 0.000000 0.000000 1.689750 
# 
# From -- ./inp_files/16680.got.cif
#   From: 2010.03.12/outbox.cif.g09.slc.cpg/sg65_9_cif.got.tgz:16680.got - 2010.04.10 20:52:16.
