data_PCOD8266171
_publ_section_title
;
Structure prediction by ZEFSAII (Michael W. Deem and Ramdas Pophale) SiO2 
 PCOD8266171
Probable space group: C M M M
;
_chemical_formula_sum "Si O2"
_cell_formula_units_Z 128
_cell_length_a 18.918924
_cell_length_b 22.941256
_cell_length_c 17.425430
_cell_angle_alpha 90.000000
_cell_angle_beta 90.000000
_cell_angle_gamma 90.000000
_cell_volume 7563.052717
_symmetry_space_group_name_H-M "C M M M"
_symmetry_group_IT_number 65
_symmetry_cell_setting 'orthorhombic'
loop_
_space_group_symop_operation_xyz
x,y,z
-x,-y,z
x,-y,-z
-x,y,-z
-x,-y,-z
x,y,-z
-x,y,z
x,-y,z
1/2+x,1/2+y,z
1/2-x,1/2-y,z
1/2+x,1/2-y,-z
1/2-x,1/2+y,-z
1/2-x,1/2-y,-z
1/2+x,1/2+y,-z
1/2-x,1/2+y,z
1/2+x,1/2-y,z
loop_
_atom_site_type_symbol
_atom_site_label
_atom_site_fract_x
_atom_site_fract_y
_atom_site_fract_z
Si Si1 0.578812 0.564760 0.158638
Si Si2 0.079883 0.184099 0.774545
Si Si3 0.330152 0.144783 0.176533
Si Si4 0.174916 0.267841 0.314744
Si Si5 0.081092 0.265899 0.913151
Si Si6 0.082312 0.564818 0.718827
Si Si7 0.724020 0.566249 0.087126
Si Si8 0.918470 0.651955 0.412355
O O1 0.500000 0.573135 0.121873
O O2 0.584449 0.500000 0.196432
O O3 0.590225 0.614175 0.223615
O O4 0.639105 0.572011 0.094468
O O5 0.132985 0.210816 0.712983
O O6 0.096091 0.210375 0.859071
O O7 0.000000 0.200618 0.750117
O O8 0.308756 0.188763 0.244242
O O9 0.370015 0.179631 0.109645
O O10 0.382469 0.096532 0.209618
O O11 0.261291 0.112748 0.142981
O O12 0.250000 0.250000 0.350340
O O13 0.129408 0.295432 0.382685
O O14 0.000000 0.286378 0.905434
O O15 0.099396 0.247166 0.000000
O O16 0.113177 0.500000 0.712715
O O17 0.098775 0.595000 0.637561
O O18 0.000000 0.564851 0.736624
O O19 0.747413 0.500000 0.108066
O O20 0.745081 0.580622 0.000000
O O21 0.899754 0.637409 0.500000
O O22 0.000000 0.670630 0.402740
#
# Coordination Sequence:
#
# PCOD8266171 Si02
#       8
#    16  16  16  16  16  16  16  16
#     4   9  18  32  48  64  82 106 140 186 236 279
#     4   9  17  30  47  66  89 115 145 183 224 267
#     4  10  18  30  45  62  89 120 151 186 222 260
#     4  10  19  30  47  69  92 119 148 178 214 257
#     4   9  17  28  43  63  86 116 153 190 227 263
#     4   9  17  29  47  70  93 120 152 181 212 252
#     4  10  20  31  43  60  83 114 151 190 231 270
#     4   9  18  32  49  70  96 122 146 175 212 254
#
# _framework density 16.924382999999999
#
# number of rings (size 3 to 8) (size 9 to 14) (size 15 to 20)
#    0.000    2.625    0.000    2.250    0.000    4.250 
#    0.000    3.750    0.000    4.125    0.000    5.250 
#    0.000    0.500    0.000    4.625    0.000    0.000 
#
# Total GULP energy -793388.457460 kJ/mol
# GULP energy per Si atom -12396.694648 kJ/mol
# Density = 1.688586 g / cm^3
# Si number density = 16.924383 Si / 1000 Ang^3
#
#
#
# Elastic Constant Matrix: (Units=GPa)
#
#
# Indices 1 2 3 4 5 6 
#
# 1 68.1025 41.1807 21.0960 0.0000 0.0000 0.0000
# 2 41.1807 103.3949 25.0669 0.0000 0.0000 0.0000
# 3 21.0960 25.0669 48.0887 0.0000 0.0000 0.0000
# 4 0.0000 0.0000 0.0000 12.1702 0.0000 0.0000
# 5 0.0000 0.0000 0.0000 0.0000 17.7547 0.0000
# 6 0.0000 0.0000 0.0000 0.0000 0.0000 25.2812
#
#
#
# Elastic Compliance Matrix: (Units=1/GPa)
#
#
# Indices 1 2 3 4 5 6 
#
# 1 0.020508 -0.006853 -0.005424 0.000000 0.000000 0.000000
# 2 -0.006853 0.013361 -0.003958 0.000000 0.000000 0.000000
# 3 -0.005424 -0.003958 0.025238 0.000000 0.000000 0.000000
# 4 0.000000 0.000000 0.000000 0.082168 0.000000 0.000000
# 5 0.000000 0.000000 0.000000 0.000000 0.056323 0.000000
# 6 0.000000 0.000000 0.000000 0.000000 0.000000 0.039555
#
#
# Mechanical properties :
#
#
# Convention : Reuss Voigt Hill
#
# Bulk Modulus (GPa) = 37.54400 43.80815 40.67608
# Shear Modulus (GPa) = 17.95321 19.85740 18.90530
#
# Velocity S-wave (km/s) = 3.26051 3.42906 3.34585
# Velocity P-wave (km/s) = 6.03375 6.45126 6.24600
#
# Compressibility (1/GPa) = 0.02663541
#
# Stress axis : x y z
#
# Youngs Moduli (GPa) = 48.76159 74.84647 39.62314
#
# Poissons Ratio (x) = 0.51292 0.21493
# Poissons Ratio (y) = 0.33416 0.15683
# Poissons Ratio (z) = 0.26450 0.29625
#
# Static dielectric constant tensor:
#      x y z
#    x 3.181240 0.000000 0.000000 
#    y 0.000000 3.319850 0.000000 
#    z 0.000000 0.000000 2.869620 
# 
# 
# High freq. dielectric constant tensor:
#      x y z
#    x 1.656810 0.000000 0.000000 
#    y 0.000000 1.659250 0.000000 
#    z 0.000000 0.000000 1.615450 
# 
# From -- ./inp_files/55123.got.cif
#   From: 2010.03.12/outbox.cif.g09.slc.cpg/sg65_28_cif.got.tgz:55123.got - 2010.04.10 20:52:16.
