data_PCOD8266806
_publ_section_title
;
Structure prediction by ZEFSAII (Michael W. Deem and Ramdas Pophale) SiO2 
 PCOD8266806
Probable space group: C M M M
;
_chemical_formula_sum "Si O2"
_cell_formula_units_Z 80
_cell_length_a 8.751388
_cell_length_b 18.628121
_cell_length_c 25.488258
_cell_angle_alpha 90.000000
_cell_angle_beta 90.000000
_cell_angle_gamma 90.000000
_cell_volume 4155.144619
_symmetry_space_group_name_H-M "C M M M"
_symmetry_group_IT_number 65
_symmetry_cell_setting 'orthorhombic'
loop_
_space_group_symop_operation_xyz
x,y,z
-x,-y,z
x,-y,-z
-x,y,-z
-x,-y,-z
x,y,-z
-x,y,z
x,-y,z
1/2+x,1/2+y,z
1/2-x,1/2-y,z
1/2+x,1/2-y,-z
1/2-x,1/2+y,-z
1/2-x,1/2-y,-z
1/2+x,1/2+y,-z
1/2-x,1/2+y,z
1/2+x,1/2-y,z
loop_
_atom_site_type_symbol
_atom_site_label
_atom_site_fract_x
_atom_site_fract_y
_atom_site_fract_z
Si Si1 0.679910 0.671907 0.598442
Si Si2 0.678678 0.672440 0.895533
Si Si3 0.827243 0.583805 0.808089
Si Si4 0.818193 0.080852 0.500000
Si Si5 0.178069 0.418103 0.687937
Si Si6 0.318419 0.170512 0.000000
O O1 0.500000 0.679989 0.595425
O O2 0.750000 0.750000 0.592871
O O3 0.742716 0.622192 0.551336
O O4 0.724289 0.636028 0.653277
O O5 0.500000 0.680683 0.905561
O O6 0.750000 0.750000 0.885270
O O7 0.707989 0.624383 0.844738
O O8 0.755497 0.633910 0.946645
O O9 0.811200 0.500000 0.818816
O O10 0.786117 0.601384 0.748064
O O11 0.000000 0.609214 0.820521
O O12 0.000000 0.078180 0.500000
O O13 0.751147 0.000000 0.500000
O O14 0.227327 0.500000 0.676002
O O15 0.000000 0.407719 0.675708
O O16 0.250000 0.250000 0.000000
O O17 0.500000 0.170008 0.000000
#
# Coordination Sequence:
#
# PCOD8266806 Si02
#       6
#    16  16  16   8  16   8
#     4  11  22  36  56  81 112 146 180 223 271 319
#     4  11  21  34  54  80 109 140 179 224 268 318
#     4   9  19  37  58  79 107 142 177 218 271 325
#     4   9  19  36  57  81 108 141 182 225 270 322
#     4   9  19  37  59  81 107 140 179 222 268 323
#     4  10  18  32  53  76 105 140 179 221 269 323
#
# _framework density 19.253242
#
# number of rings (size 3 to 8) (size 9 to 14) (size 15 to 20)
#    0.000    2.100    0.000    6.600    0.000    3.200 
#    0.000    4.000    0.000    6.600    0.000    0.000 
#    0.000    0.000    0.000    0.000    0.000    0.000 
#
# Total GULP energy -496037.816262 kJ/mol
# GULP energy per Si atom -12400.945407 kJ/mol
# Density = 1.920942 g / cm^3
# Si number density = 19.253242 Si / 1000 Ang^3
#
#
#
# Elastic Constant Matrix: (Units=GPa)
#
#
# Indices 1 2 3 4 5 6 
#
# 1 108.8198 42.9120 53.5783 0.0000 0.0000 0.0000
# 2 42.9120 105.1718 72.3951 0.0000 0.0000 0.0000
# 3 53.5783 72.3951 135.7832 0.0000 0.0000 0.0000
# 4 0.0000 0.0000 0.0000 31.4253 0.0000 0.0000
# 5 0.0000 0.0000 0.0000 0.0000 26.1846 0.0000
# 6 0.0000 0.0000 0.0000 0.0000 0.0000 18.6413
#
#
#
# Elastic Compliance Matrix: (Units=1/GPa)
#
#
# Indices 1 2 3 4 5 6 
#
# 1 0.011822 -0.002548 -0.003307 0.000000 0.000000 0.000000
# 2 -0.002548 0.015570 -0.007296 0.000000 0.000000 0.000000
# 3 -0.003307 -0.007296 0.012560 0.000000 0.000000 0.000000
# 4 0.000000 0.000000 0.000000 0.031821 0.000000 0.000000
# 5 0.000000 0.000000 0.000000 0.000000 0.038190 0.000000
# 6 0.000000 0.000000 0.000000 0.000000 0.000000 0.053644
#
#
# Mechanical properties :
#
#
# Convention : Reuss Voigt Hill
#
# Bulk Modulus (GPa) = 73.25469 76.39396 74.82432
# Shear Modulus (GPa) = 25.71238 27.30954 26.51096
#
# Velocity S-wave (km/s) = 3.65839 3.77030 3.71477
# Velocity P-wave (km/s) = 7.48169 7.66278 7.57278
#
# Compressibility (1/GPa) = 0.01365100
#
# Stress axis : x y z
#
# Youngs Moduli (GPa) = 84.58705 64.22587 79.62089
#
# Poissons Ratio (x) = 0.16362 0.26327
# Poissons Ratio (y) = 0.21549 0.58093
# Poissons Ratio (z) = 0.27969 0.46861
#
# Static dielectric constant tensor:
#      x y z
#    x 3.380840 0.000000 0.000000 
#    y 0.000000 3.351020 0.000000 
#    z 0.000000 0.000000 3.869470 
# 
# 
# High freq. dielectric constant tensor:
#      x y z
#    x 1.743320 0.000000 0.000000 
#    y 0.000000 1.734200 0.000000 
#    z 0.000000 0.000000 1.766540 
# 
# From -- ./inp_files/67353.got.cif
#   From: 2010.03.12/outbox.cif.g09.slc.cpg/sg65_34_cif.got.tgz:67353.got - 2010.04.10 20:52:16.
