data_PCOD8266132
_publ_section_title
;
Structure prediction by ZEFSAII (Michael W. Deem and Ramdas Pophale) SiO2 
 PCOD8266132
Probable space group: C M M M
;
_chemical_formula_sum "Si O2"
_cell_formula_units_Z 104
_cell_length_a 9.300451
_cell_length_b 26.570111
_cell_length_c 24.193615
_cell_angle_alpha 90.000000
_cell_angle_beta 90.000000
_cell_angle_gamma 90.000000
_cell_volume 5978.581350
_symmetry_space_group_name_H-M "C M M M"
_symmetry_group_IT_number 65
_symmetry_cell_setting 'orthorhombic'
loop_
_space_group_symop_operation_xyz
x,y,z
-x,-y,z
x,-y,-z
-x,y,-z
-x,-y,-z
x,y,-z
-x,y,z
x,-y,z
1/2+x,1/2+y,z
1/2-x,1/2-y,z
1/2+x,1/2-y,-z
1/2-x,1/2+y,-z
1/2-x,1/2-y,-z
1/2+x,1/2+y,-z
1/2-x,1/2+y,z
1/2+x,1/2-y,z
loop_
_atom_site_type_symbol
_atom_site_label
_atom_site_fract_x
_atom_site_fract_y
_atom_site_fract_z
Si Si1 0.832079 0.299965 0.935969
Si Si2 0.829261 0.500000 0.938333
Si Si3 0.167521 0.394173 0.436846
Si Si4 0.156089 0.058043 0.651968
Si Si5 0.668806 0.442192 0.773635
Si Si6 0.170581 0.598666 0.873522
Si Si7 0.160172 0.795921 0.434567
O O1 0.750000 0.250000 0.914678
O O2 0.780607 0.349232 0.902300
O O3 0.000000 0.290284 0.926961
O O4 0.796132 0.310313 0.000000
O O5 0.773981 0.449300 0.908678
O O6 0.000000 0.500000 0.940046
O O7 0.765322 0.500000 0.000000
O O8 0.201224 0.410060 0.500000
O O9 0.222668 0.436579 0.395173
O O10 0.255011 0.345560 0.418016
O O11 0.000000 0.383705 0.429028
O O12 0.202771 0.079390 0.711872
O O13 0.000000 0.080754 0.633142
O O14 0.133035 0.000000 0.662975
O O15 0.500000 0.438461 0.786153
O O16 0.722039 0.500000 0.781093
O O17 0.755724 0.405143 0.813802
O O18 0.000000 0.597189 0.866418
O O19 0.150579 0.790119 0.500000
O O20 0.250000 0.750000 0.408780
O O21 0.000000 0.796719 0.409050
#
# Coordination Sequence:
#
# PCOD8266132 Si02
#       7
#    16   8  16  16  16  16  16
#     4   9  18  32  49  71 100 135 175 213 247 290
#     4   9  16  26  43  71 105 133 156 191 242 295
#     4  10  20  32  47  71 101 128 157 198 248 298
#     4   9  19  35  52  69  92 127 167 202 242 296
#     4   9  18  33  51  71  97 127 160 201 249 299
#     4  10  18  29  49  75  99 128 167 207 247 296
#     4   9  16  27  45  68  94 124 156 189 228 280
#
# _framework density 17.395430999999999
#
# number of rings (size 3 to 8) (size 9 to 14) (size 15 to 20)
#    0.000    2.692    0.769    2.308    0.000    6.462 
#    0.000    3.077    0.000    2.769    0.000    2.154 
#    0.000    0.000    0.000    0.000    0.000    0.000 
#
# Total GULP energy -644563.166274 kJ/mol
# GULP energy per Si atom -12395.445505 kJ/mol
# Density = 1.735584 g / cm^3
# Si number density = 17.395431 Si / 1000 Ang^3
#
#
#
# Elastic Constant Matrix: (Units=GPa)
#
#
# Indices 1 2 3 4 5 6 
#
# 1 75.2218 38.2408 48.1194 0.0000 0.0000 0.0000
# 2 38.2408 94.8780 47.3772 0.0000 0.0000 0.0000
# 3 48.1194 47.3772 97.8902 0.0000 0.0000 0.0000
# 4 0.0000 0.0000 0.0000 20.8413 0.0000 0.0000
# 5 0.0000 0.0000 0.0000 0.0000 27.0188 0.0000
# 6 0.0000 0.0000 0.0000 0.0000 0.0000 28.7302
#
#
#
# Elastic Compliance Matrix: (Units=1/GPa)
#
#
# Indices 1 2 3 4 5 6 
#
# 1 0.020635 -0.004288 -0.008068 0.000000 0.000000 0.000000
# 2 -0.004288 0.014790 -0.005050 0.000000 0.000000 0.000000
# 3 -0.008068 -0.005050 0.016626 0.000000 0.000000 0.000000
# 4 0.000000 0.000000 0.000000 0.047982 0.000000 0.000000
# 5 0.000000 0.000000 0.000000 0.000000 0.037011 0.000000
# 6 0.000000 0.000000 0.000000 0.000000 0.000000 0.034807
#
#
# Mechanical properties :
#
#
# Convention : Reuss Voigt Hill
#
# Bulk Modulus (GPa) = 58.01172 59.49610 58.75391
# Shear Modulus (GPa) = 23.53943 24.26823 23.90383
#
# Velocity S-wave (km/s) = 3.68257 3.73915 3.71097
# Velocity P-wave (km/s) = 7.17656 7.27448 7.22568
#
# Compressibility (1/GPa) = 0.01723790
#
# Stress axis : x y z
#
# Youngs Moduli (GPa) = 48.46078 67.61311 60.14776
#
# Poissons Ratio (x) = 0.28994 0.48528
# Poissons Ratio (y) = 0.20781 0.30376
# Poissons Ratio (z) = 0.39099 0.34146
#
# Static dielectric constant tensor:
#      x y z
#    x 3.426420 0.000000 0.000000 
#    y 0.000000 3.185550 0.000000 
#    z 0.000000 0.000000 3.106330 
# 
# 
# High freq. dielectric constant tensor:
#      x y z
#    x 1.667300 0.000000 0.000000 
#    y 0.000000 1.660220 0.000000 
#    z 0.000000 0.000000 1.653750 
# 
# From -- ./inp_files/68474.got.cif
#   From: 2010.03.12/outbox.cif.g09.slc.cpg/sg65_35_cif.got.tgz:68474.got - 2010.04.10 20:52:16.
