data_PCOD8266358
_publ_section_title
;
Structure prediction by ZEFSAII (Michael W. Deem and Ramdas Pophale) SiO2 
 PCOD8266358
Probable space group: C M M M
;
_chemical_formula_sum "Si O2"
_cell_formula_units_Z 104
_cell_length_a 28.353242
_cell_length_b 8.885679
_cell_length_c 23.102147
_cell_angle_alpha 90.000000
_cell_angle_beta 90.000000
_cell_angle_gamma 90.000000
_cell_volume 5820.304253
_symmetry_space_group_name_H-M "C M M M"
_symmetry_group_IT_number 65
_symmetry_cell_setting 'orthorhombic'
loop_
_space_group_symop_operation_xyz
x,y,z
-x,-y,z
x,-y,-z
-x,y,-z
-x,-y,-z
x,y,-z
-x,y,z
x,-y,z
1/2+x,1/2+y,z
1/2-x,1/2-y,z
1/2+x,1/2-y,-z
1/2-x,1/2+y,-z
1/2-x,1/2-y,-z
1/2+x,1/2+y,-z
1/2-x,1/2+y,z
1/2+x,1/2-y,z
loop_
_atom_site_type_symbol
_atom_site_label
_atom_site_fract_x
_atom_site_fract_y
_atom_site_fract_z
Si Si1 0.702310 0.823406 0.225840
Si Si2 0.553009 0.821028 0.063853
Si Si3 0.607895 0.678342 0.606254
Si Si4 0.055618 0.325166 0.500000
Si Si5 0.554262 0.673478 0.278340
Si Si6 0.105498 0.678542 0.824904
Si Si7 0.701509 0.177866 0.359463
O O1 0.750000 0.750000 0.201228
O O2 0.658047 0.760701 0.188924
O O3 0.693946 0.777665 0.292407
O O4 0.707827 0.000000 0.219087
O O5 0.500000 0.761965 0.076403
O O6 0.588625 0.757838 0.112695
O O7 0.552763 0.000000 0.065645
O O8 0.569546 0.765728 0.000000
O O9 0.611095 0.500000 0.598794
O O10 0.576202 0.746018 0.556195
O O11 0.584441 0.725912 0.666743
O O12 0.659811 0.749865 0.602993
O O13 0.069471 0.500000 0.500000
O O14 0.000000 0.300924 0.500000
O O15 0.500000 0.704317 0.293074
O O16 0.563759 0.500000 0.263820
O O17 0.568545 0.770192 0.223130
O O18 0.105861 0.500000 0.824366
O O19 0.750000 0.250000 0.382303
O O20 0.702667 0.000000 0.368872
#
# Coordination Sequence:
#
# PCOD8266358 Si02
#       7
#    16  16  16   8  16  16  16
#     4   9  18  30  47  72 102 133 169 209 258 313
#     4   8  14  25  43  69 100 133 170 213 260 309
#     4  11  22  38  59  81 108 143 179 217 264 317
#     4  11  25  43  62  83 108 143 185 225 263 309
#     4  10  21  34  49  74 107 138 168 207 258 313
#     4  10  18  30  49  75 101 130 171 218 263 307
#     4  10  19  34  55  81 111 140 175 217 264 320
#
# _framework density 17.868480999999999
#
# number of rings (size 3 to 8) (size 9 to 14) (size 15 to 20)
#    0.000    2.231    1.538    2.538    0.000    4.000 
#    0.000    0.385    0.000    0.923    0.000    2.154 
#    0.000    0.000    0.000    0.000    0.000    0.000 
#
# Total GULP energy -644823.971415 kJ/mol
# GULP energy per Si atom -12400.460989 kJ/mol
# Density = 1.782781 g / cm^3
# Si number density = 17.868481 Si / 1000 Ang^3
#
#
#
# Elastic Constant Matrix: (Units=GPa)
#
#
# Indices 1 2 3 4 5 6 
#
# 1 118.3743 38.1979 48.1008 0.0000 0.0000 0.0000
# 2 38.1979 49.3632 33.4271 0.0000 0.0000 0.0000
# 3 48.1008 33.4271 97.9121 0.0000 0.0000 0.0000
# 4 0.0000 0.0000 0.0000 8.8612 0.0000 0.0000
# 5 0.0000 0.0000 0.0000 0.0000 29.9838 0.0000
# 6 0.0000 0.0000 0.0000 0.0000 0.0000 28.9522
#
#
#
# Elastic Compliance Matrix: (Units=1/GPa)
#
#
# Indices 1 2 3 4 5 6 
#
# 1 0.012158 -0.006976 -0.003591 0.000000 0.000000 0.000000
# 2 -0.006976 0.030353 -0.006935 0.000000 0.000000 0.000000
# 3 -0.003591 -0.006935 0.014345 0.000000 0.000000 0.000000
# 4 0.000000 0.000000 0.000000 0.112852 0.000000 0.000000
# 5 0.000000 0.000000 0.000000 0.000000 0.033351 0.000000
# 6 0.000000 0.000000 0.000000 0.000000 0.000000 0.034540
#
#
# Mechanical properties :
#
#
# Convention : Reuss Voigt Hill
#
# Bulk Modulus (GPa) = 45.76527 56.12234 50.94380
# Shear Modulus (GPa) = 17.86429 23.28768 20.57598
#
# Velocity S-wave (km/s) = 3.16534 3.61402 3.39709
# Velocity P-wave (km/s) = 6.24716 6.99225 6.63018
#
# Compressibility (1/GPa) = 0.02185063
#
# Stress axis : x y z
#
# Youngs Moduli (GPa) = 82.24891 32.94609 69.71019
#
# Poissons Ratio (x) = 0.22984 0.25034
# Poissons Ratio (y) = 0.57380 0.48345
# Poissons Ratio (z) = 0.29537 0.22848
#
# Static dielectric constant tensor:
#      x y z
#    x 3.518690 0.000000 0.000000 
#    y 0.000000 3.149980 0.000000 
#    z 0.000000 0.000000 3.507150 
# 
# 
# High freq. dielectric constant tensor:
#      x y z
#    x 1.701050 0.000000 0.000000 
#    y 0.000000 1.677580 0.000000 
#    z 0.000000 0.000000 1.676730 
# 
# From -- ./inp_files/66364.got.cif
#   From: 2010.03.12/outbox.cif.g09.slc.cpg/sg65_34_cif.got.tgz:66364.got - 2010.04.10 20:52:16.
