data_PCOD8266201
_publ_section_title
;
Structure prediction by ZEFSAII (Michael W. Deem and Ramdas Pophale) SiO2 
 PCOD8266201
Probable space group: C M M M
;
_chemical_formula_sum "Si O2"
_cell_formula_units_Z 56
_cell_length_a 8.614713
_cell_length_b 24.441972
_cell_length_c 14.304654
_cell_angle_alpha 90.000000
_cell_angle_beta 90.000000
_cell_angle_gamma 90.000000
_cell_volume 3011.996156
_symmetry_space_group_name_H-M "C M M M"
_symmetry_group_IT_number 65
_symmetry_cell_setting 'orthorhombic'
loop_
_space_group_symop_operation_xyz
x,y,z
-x,-y,z
x,-y,-z
-x,y,-z
-x,-y,-z
x,y,-z
-x,y,z
x,-y,z
1/2+x,1/2+y,z
1/2-x,1/2-y,z
1/2+x,1/2-y,-z
1/2-x,1/2+y,-z
1/2-x,1/2-y,-z
1/2+x,1/2+y,-z
1/2-x,1/2+y,z
1/2+x,1/2-y,z
loop_
_atom_site_type_symbol
_atom_site_label
_atom_site_fract_x
_atom_site_fract_y
_atom_site_fract_z
Si Si1 0.817614 0.809757 0.810141
Si Si2 0.180398 0.000000 0.609789
Si Si3 0.816317 0.500000 0.105636
Si Si4 0.316469 0.913792 0.258109
Si Si5 0.184034 0.310394 0.000000
O O1 0.750000 0.750000 0.786341
O O2 0.766751 0.854519 0.733954
O O3 0.000000 0.803188 0.817510
O O4 0.748817 0.836859 0.905453
O O5 0.262546 0.946295 0.650646
O O6 0.206683 0.000000 0.500000
O O7 0.000000 0.000000 0.637292
O O8 0.763664 0.446518 0.164236
O O9 0.000000 0.500000 0.097201
O O10 0.744250 0.500000 0.000000
O O11 0.500000 0.905697 0.260480
O O12 0.250000 0.250000 0.000000
O O13 0.000000 0.312619 0.000000
#
# Coordination Sequence:
#
# PCOD8266201 Si02
#       5
#    16   8   8  16   8
#     4  11  21  34  51  75 109 147 189 231 273 323
#     4  10  21  39  62  85 110 141 178 226 279 330
#     4   8  16  30  48  73 104 141 178 216 265 317
#     4  10  20  34  55  82 110 143 183 227 276 328
#     4  10  18  30  46  67  98 141 190 230 265 308
#
# _framework density 18.592321999999999
#
# number of rings (size 3 to 8) (size 9 to 14) (size 15 to 20)
#    0.000    2.000    0.000    7.714    2.000    1.143 
#    0.000    0.000    0.000    3.429    0.000    0.000 
#    0.000    0.000    0.000    0.000    0.000    0.000 
#
# Total GULP energy -347068.339780 kJ/mol
# GULP energy per Si atom -12395.297849 kJ/mol
# Density = 1.855000 g / cm^3
# Si number density = 18.592322 Si / 1000 Ang^3
#
#
#
# Elastic Constant Matrix: (Units=GPa)
#
#
# Indices 1 2 3 4 5 6 
#
# 1 141.2211 53.4500 31.9501 0.0000 0.0000 0.0000
# 2 53.4500 134.8577 40.6271 0.0000 0.0000 0.0000
# 3 31.9501 40.6271 77.1054 0.0000 0.0000 0.0000
# 4 0.0000 0.0000 0.0000 5.3501 0.0000 0.0000
# 5 0.0000 0.0000 0.0000 0.0000 25.8419 0.0000
# 6 0.0000 0.0000 0.0000 0.0000 0.0000 31.5406
#
#
#
# Elastic Compliance Matrix: (Units=1/GPa)
#
#
# Indices 1 2 3 4 5 6 
#
# 1 0.008608 -0.002778 -0.002103 0.000000 0.000000 0.000000
# 2 -0.002778 0.009711 -0.003966 0.000000 0.000000 0.000000
# 3 -0.002103 -0.003966 0.015930 0.000000 0.000000 0.000000
# 4 0.000000 0.000000 0.000000 0.186911 0.000000 0.000000
# 5 0.000000 0.000000 0.000000 0.000000 0.038697 0.000000
# 6 0.000000 0.000000 0.000000 0.000000 0.000000 0.031705
#
#
# Mechanical properties :
#
#
# Convention : Reuss Voigt Hill
#
# Bulk Modulus (GPa) = 60.40226 67.24871 63.82548
# Shear Modulus (GPa) = 15.88432 27.69031 21.78731
#
# Velocity S-wave (km/s) = 2.92610 3.86338 3.42694
# Velocity P-wave (km/s) = 6.63131 7.49331 7.07545
#
# Compressibility (1/GPa) = 0.01655567
#
# Stress axis : x y z
#
# Youngs Moduli (GPa) = 116.16468 102.97552 62.77378
#
# Poissons Ratio (x) = 0.28610 0.13202
# Poissons Ratio (y) = 0.32274 0.24893
# Poissons Ratio (z) = 0.24432 0.40835
#
# Static dielectric constant tensor:
#      x y z
#    x 3.381390 0.000000 0.000000 
#    y 0.000000 3.471310 0.000000 
#    z 0.000000 0.000000 3.703690 
# 
# 
# High freq. dielectric constant tensor:
#      x y z
#    x 1.727130 0.000000 0.000000 
#    y 0.000000 1.726220 0.000000 
#    z 0.000000 0.000000 1.687290 
# 
# From -- ./inp_files/35529.got.cif
#   From: 2010.03.12/outbox.cif.g09.slc.cpg/sg65_18_cif.got.tgz:35529.got - 2010.04.10 20:52:16.
