data_PCOD8266181
_publ_section_title
;
Structure prediction by ZEFSAII (Michael W. Deem and Ramdas Pophale) SiO2 
 PCOD8266181
Probable space group: C M M M
;
_chemical_formula_sum "Si O2"
_cell_formula_units_Z 64
_cell_length_a 7.785396
_cell_length_b 37.367928
_cell_length_c 12.879555
_cell_angle_alpha 90.000000
_cell_angle_beta 90.000000
_cell_angle_gamma 90.000000
_cell_volume 3746.973168
_symmetry_space_group_name_H-M "C M M M"
_symmetry_group_IT_number 65
_symmetry_cell_setting 'orthorhombic'
loop_
_space_group_symop_operation_xyz
x,y,z
-x,-y,z
x,-y,-z
-x,y,-z
-x,-y,-z
x,y,-z
-x,y,z
x,-y,z
1/2+x,1/2+y,z
1/2-x,1/2-y,z
1/2+x,1/2-y,-z
1/2-x,1/2+y,-z
1/2-x,1/2-y,-z
1/2+x,1/2+y,-z
1/2-x,1/2+y,z
1/2+x,1/2-y,z
loop_
_atom_site_type_symbol
_atom_site_label
_atom_site_fract_x
_atom_site_fract_y
_atom_site_fract_z
Si Si1 0.701522 0.791132 0.500000
Si Si2 0.693680 0.589779 0.619978
Si Si3 0.704900 0.835354 0.695244
Si Si4 0.702140 0.789469 0.114909
Si Si5 0.000000 0.460158 0.376911
O O1 0.500000 0.795287 0.500000
O O2 0.750000 0.750000 0.500000
O O3 0.776119 0.810545 0.602090
O O4 0.733835 0.599163 0.500000
O O5 0.500000 0.574784 0.633119
O O6 0.714287 0.625470 0.687249
O O7 0.828165 0.560216 0.661176
O O8 0.500000 0.838255 0.691656
O O9 0.773156 0.818295 0.802934
O O10 0.500000 0.792935 0.109232
O O11 0.750000 0.750000 0.154692
O O12 0.782171 0.796468 0.000000
O O13 0.000000 0.500000 0.328182
O O14 0.000000 0.462878 0.500000
#
# Coordination Sequence:
#
# PCOD8266181 Si02
#       5
#     8  16  16  16   8
#     4  10  20  28  40  60  86 121 160 199 243 289
#     4  10  19  30  48  72  97 130 165 195 239 289
#     4  10  18  30  46  62  91 129 160 201 246 291
#     4   9  18  31  46  64  88 123 165 208 253 293
#     4   9  18  32  50  70 101 135 163 199 236 285
#
# _framework density 17.080452999999999
#
# number of rings (size 3 to 8) (size 9 to 14) (size 15 to 20)
#    0.000    2.375    2.500    0.750    0.000    2.500 
#    0.000    2.500    0.000    0.000    0.000    0.000 
#    0.000    2.000    0.000    2.250    0.000    0.250 
#
# Total GULP energy -396735.864257 kJ/mol
# GULP energy per Si atom -12397.995758 kJ/mol
# Density = 1.704158 g / cm^3
# Si number density = 17.080453 Si / 1000 Ang^3
#
#
#
# Elastic Constant Matrix: (Units=GPa)
#
#
# Indices 1 2 3 4 5 6 
#
# 1 67.4163 45.3606 26.4215 0.0000 0.0000 0.0000
# 2 45.3606 143.3851 49.6559 0.0000 0.0000 0.0000
# 3 26.4215 49.6559 80.4034 0.0000 0.0000 0.0000
# 4 0.0000 0.0000 0.0000 17.9222 0.0000 0.0000
# 5 0.0000 0.0000 0.0000 0.0000 6.8537 0.0000
# 6 0.0000 0.0000 0.0000 0.0000 0.0000 22.8727
#
#
#
# Elastic Compliance Matrix: (Units=1/GPa)
#
#
# Indices 1 2 3 4 5 6 
#
# 1 0.019512 -0.005027 -0.003307 0.000000 0.000000 0.000000
# 2 -0.005027 0.010167 -0.004627 0.000000 0.000000 0.000000
# 3 -0.003307 -0.004627 0.016382 0.000000 0.000000 0.000000
# 4 0.000000 0.000000 0.000000 0.055797 0.000000 0.000000
# 5 0.000000 0.000000 0.000000 0.000000 0.145907 0.000000
# 6 0.000000 0.000000 0.000000 0.000000 0.000000 0.043720
#
#
# Mechanical properties :
#
#
# Convention : Reuss Voigt Hill
#
# Bulk Modulus (GPa) = 49.65787 59.34230 54.50009
# Shear Modulus (GPa) = 15.42641 20.84751 18.13696
#
# Velocity S-wave (km/s) = 3.00853 3.49742 3.26215
# Velocity P-wave (km/s) = 6.41906 7.15035 6.79455
#
# Compressibility (1/GPa) = 0.02013779
#
# Stress axis : x y z
#
# Youngs Moduli (GPa) = 51.25058 98.35694 61.04441
#
# Poissons Ratio (x) = 0.49449 0.20187
# Poissons Ratio (y) = 0.25766 0.28245
# Poissons Ratio (z) = 0.16948 0.45509
#
# Static dielectric constant tensor:
#      x y z
#    x 3.161420 0.000000 0.000000 
#    y 0.000000 3.132060 0.000000 
#    z 0.000000 0.000000 3.321610 
# 
# 
# High freq. dielectric constant tensor:
#      x y z
#    x 1.661340 0.000000 0.000000 
#    y 0.000000 1.643510 0.000000 
#    z 0.000000 0.000000 1.624520 
# 
# From -- ./inp_files/36831.got.cif
#   From: 2010.03.12/outbox.cif.g09.slc.cpg/sg65_19_cif.got.tgz:36831.got - 2010.04.10 20:52:16.
