data_PCOD8266688
_publ_section_title
;
Structure prediction by ZEFSAII (Michael W. Deem and Ramdas Pophale) SiO2 
 PCOD8266688
Probable space group: C M M M
;
_chemical_formula_sum "Si O2"
_cell_formula_units_Z 96
_cell_length_a 8.673486
_cell_length_b 28.820197
_cell_length_c 20.692449
_cell_angle_alpha 90.000000
_cell_angle_beta 90.000000
_cell_angle_gamma 90.000000
_cell_volume 5172.524071
_symmetry_space_group_name_H-M "C M M M"
_symmetry_group_IT_number 65
_symmetry_cell_setting 'orthorhombic'
loop_
_space_group_symop_operation_xyz
x,y,z
-x,-y,z
x,-y,-z
-x,y,-z
-x,-y,-z
x,y,-z
-x,y,z
x,-y,z
1/2+x,1/2+y,z
1/2-x,1/2-y,z
1/2+x,1/2-y,-z
1/2-x,1/2+y,-z
1/2-x,1/2-y,-z
1/2+x,1/2+y,-z
1/2-x,1/2+y,z
1/2+x,1/2-y,z
loop_
_atom_site_type_symbol
_atom_site_label
_atom_site_fract_x
_atom_site_fract_y
_atom_site_fract_z
Si Si1 0.681727 0.297824 0.377199
Si Si2 0.317076 0.611055 0.190577
Si Si3 0.182947 0.051816 0.928571
Si Si4 0.682207 0.797945 0.236577
Si Si5 0.823462 0.612261 0.572672
Si Si6 0.680522 0.446491 0.316368
O O1 0.500000 0.292811 0.371555
O O2 0.750000 0.250000 0.406029
O O3 0.749906 0.308262 0.306965
O O4 0.724825 0.340642 0.422619
O O5 0.500000 0.617980 0.188898
O O6 0.252612 0.585594 0.126669
O O7 0.233999 0.660640 0.189999
O O8 0.266599 0.581312 0.252894
O O9 0.000000 0.050056 0.923471
O O10 0.248245 0.000000 0.916963
O O11 0.233134 0.069572 0.000000
O O12 0.500000 0.794287 0.240791
O O13 0.750000 0.750000 0.208530
O O14 0.804178 0.592897 0.500000
O O15 0.767109 0.572610 0.621027
O O16 0.000000 0.624437 0.588405
O O17 0.500000 0.440088 0.328277
O O18 0.725253 0.500000 0.306294
#
# Coordination Sequence:
#
# PCOD8266688 Si02
#       6
#    16  16  16  16  16  16
#     4  11  21  36  58  82 108 138 173 218 271 327
#     4  10  18  31  54  83 113 144 180 223 268 314
#     4   8  14  26  48  81 118 152 185 220 260 311
#     4  11  21  34  54  80 110 141 177 220 269 323
#     4  11  24  40  56  76 105 142 182 225 273 323
#     4  10  21  36  55  79 106 139 181 227 272 321
#
# _framework density 18.559604
#
# number of rings (size 3 to 8) (size 9 to 14) (size 15 to 20)
#    0.000    1.833    1.667    5.500    0.000    4.333 
#    0.000    1.667    0.000    2.500    0.000    1.167 
#    0.000    0.000    0.000    0.000    0.000    0.000 
#
# Total GULP energy -595266.706920 kJ/mol
# GULP energy per Si atom -12401.389728 kJ/mol
# Density = 1.851736 g / cm^3
# Si number density = 18.559604 Si / 1000 Ang^3
#
#
#
# Elastic Constant Matrix: (Units=GPa)
#
#
# Indices 1 2 3 4 5 6 
#
# 1 93.7734 46.8108 40.8927 0.0000 0.0000 0.0000
# 2 46.8108 132.0796 69.6203 0.0000 0.0000 0.0000
# 3 40.8927 69.6203 122.1581 0.0000 0.0000 0.0000
# 4 0.0000 0.0000 0.0000 31.8454 0.0000 0.0000
# 5 0.0000 0.0000 0.0000 0.0000 13.4900 0.0000
# 6 0.0000 0.0000 0.0000 0.0000 0.0000 29.5931
#
#
#
# Elastic Compliance Matrix: (Units=1/GPa)
#
#
# Indices 1 2 3 4 5 6 
#
# 1 0.013494 -0.003433 -0.002561 0.000000 0.000000 0.000000
# 2 -0.003433 0.011696 -0.005516 0.000000 0.000000 0.000000
# 3 -0.002561 -0.005516 0.012187 0.000000 0.000000 0.000000
# 4 0.000000 0.000000 0.000000 0.031402 0.000000 0.000000
# 5 0.000000 0.000000 0.000000 0.000000 0.074129 0.000000
# 6 0.000000 0.000000 0.000000 0.000000 0.000000 0.033792
#
#
# Mechanical properties :
#
#
# Convention : Reuss Voigt Hill
#
# Bulk Modulus (GPa) = 69.65174 73.62874 71.64024
# Shear Modulus (GPa) = 24.44927 27.69818 26.07373
#
# Velocity S-wave (km/s) = 3.63345 3.86734 3.75222
# Velocity P-wave (km/s) = 7.43053 7.72654 7.57998
#
# Compressibility (1/GPa) = 0.01435714
#
# Stress axis : x y z
#
# Youngs Moduli (GPa) = 74.10513 85.50267 82.05275
#
# Poissons Ratio (x) = 0.29351 0.21013
# Poissons Ratio (y) = 0.25438 0.45264
# Poissons Ratio (z) = 0.18978 0.47167
#
# Static dielectric constant tensor:
#      x y z
#    x 3.272210 0.000000 0.000000 
#    y 0.000000 3.580330 0.000000 
#    z 0.000000 0.000000 3.440790 
# 
# 
# High freq. dielectric constant tensor:
#      x y z
#    x 1.708390 0.000000 0.000000 
#    y 0.000000 1.726380 0.000000 
#    z 0.000000 0.000000 1.704680 
# 
# From -- ./inp_files/60168.got.cif
#   From: 2010.03.12/outbox.cif.g09.slc.cpg/sg65_31_cif.got.tgz:60168.got - 2010.04.10 20:52:16.
