data_PCOD8266148
_publ_section_title
;
Structure prediction by ZEFSAII (Michael W. Deem and Ramdas Pophale) SiO2 
 PCOD8266148
Probable space group: C M M M
;
_chemical_formula_sum "Si O2"
_cell_formula_units_Z 80
_cell_length_a 28.176085
_cell_length_b 20.550818
_cell_length_c 7.773152
_cell_angle_alpha 90.000000
_cell_angle_beta 90.000000
_cell_angle_gamma 90.000000
_cell_volume 4500.978331
_symmetry_space_group_name_H-M "C M M M"
_symmetry_group_IT_number 65
_symmetry_cell_setting 'orthorhombic'
loop_
_space_group_symop_operation_xyz
x,y,z
-x,-y,z
x,-y,-z
-x,y,-z
-x,-y,-z
x,y,-z
-x,y,z
x,-y,z
1/2+x,1/2+y,z
1/2-x,1/2-y,z
1/2+x,1/2-y,-z
1/2-x,1/2+y,-z
1/2-x,1/2-y,-z
1/2+x,1/2+y,-z
1/2-x,1/2+y,z
1/2+x,1/2-y,z
loop_
_atom_site_type_symbol
_atom_site_label
_atom_site_fract_x
_atom_site_fract_y
_atom_site_fract_z
Si Si1 0.052853 0.878655 0.000000
Si Si2 0.719288 0.811269 0.796898
Si Si3 0.382630 0.376462 0.691380
Si Si4 0.714354 0.426756 0.801212
Si Si5 0.553104 0.223916 0.000000
Si Si6 0.381255 0.226230 0.307080
O O1 0.079767 0.903981 0.170683
O O2 0.050044 0.801272 0.000000
O O3 0.000000 0.908540 0.000000
O O4 0.750000 0.750000 0.731441
O O5 0.745159 0.877399 0.737223
O O6 0.668040 0.812127 0.708512
O O7 0.711727 0.807405 0.000000
O O8 0.404511 0.383906 0.500000
O O9 0.334080 0.416680 0.697744
O O10 0.370609 0.301629 0.733889
O O11 0.732934 0.500000 0.770567
O O12 0.702745 0.412803 0.000000
O O13 0.580321 0.199072 0.828961
O O14 0.500000 0.194213 0.000000
O O15 0.401625 0.216831 0.500000
#
# Coordination Sequence:
#
# PCOD8266148 Si02
#       6
#     8  16  16  16   8  16
#     4   9  18  32  50  70  96 126 161 212 264 299
#     4  10  18  29  51  74 100 135 169 203 242 293
#     4  10  19  31  50  72  96 129 168 206 247 297
#     4  10  20  33  50  73 102 135 168 204 245 291
#     4   9  18  32  48  70 103 135 163 203 257 301
#     4  10  19  30  49  76 101 129 170 208 244 293
#
# _framework density 17.773913
#
# number of rings (size 3 to 8) (size 9 to 14) (size 15 to 20)
#    0.000    2.200    4.000    0.000    0.000    2.400 
#    0.000    4.000    0.000    1.200    0.000    1.400 
#    0.000    1.600    0.000    1.800    0.000    0.200 
#
# Total GULP energy -496028.291624 kJ/mol
# GULP energy per Si atom -12400.707291 kJ/mol
# Density = 1.773346 g / cm^3
# Si number density = 17.773913 Si / 1000 Ang^3
#
#
#
# Elastic Constant Matrix: (Units=GPa)
#
#
# Indices 1 2 3 4 5 6 
#
# 1 129.0322 36.2603 59.1890 0.0000 0.0000 0.0000
# 2 36.2603 66.2768 26.7566 0.0000 0.0000 0.0000
# 3 59.1890 26.7566 110.5033 0.0000 0.0000 0.0000
# 4 0.0000 0.0000 0.0000 10.4147 0.0000 0.0000
# 5 0.0000 0.0000 0.0000 0.0000 11.6104 0.0000
# 6 0.0000 0.0000 0.0000 0.0000 0.0000 12.5713
#
#
#
# Elastic Compliance Matrix: (Units=1/GPa)
#
#
# Indices 1 2 3 4 5 6 
#
# 1 0.011200 -0.004107 -0.005004 0.000000 0.000000 0.000000
# 2 -0.004107 0.018229 -0.002214 0.000000 0.000000 0.000000
# 3 -0.005004 -0.002214 0.012266 0.000000 0.000000 0.000000
# 4 0.000000 0.000000 0.000000 0.096019 0.000000 0.000000
# 5 0.000000 0.000000 0.000000 0.000000 0.086130 0.000000
# 6 0.000000 0.000000 0.000000 0.000000 0.000000 0.079546
#
#
# Mechanical properties :
#
#
# Convention : Reuss Voigt Hill
#
# Bulk Modulus (GPa) = 52.51039 61.13600 56.82320
# Shear Modulus (GPa) = 15.04265 19.15971 17.10118
#
# Velocity S-wave (km/s) = 2.91234 3.28680 3.10522
# Velocity P-wave (km/s) = 6.39661 6.99108 6.70044
#
# Compressibility (1/GPa) = 0.01904385
#
# Stress axis : x y z
#
# Youngs Moduli (GPa) = 89.28733 54.85755 81.52518
#
# Poissons Ratio (x) = 0.22530 0.40799
# Poissons Ratio (y) = 0.36671 0.18050
# Poissons Ratio (z) = 0.44684 0.12145
#
# Static dielectric constant tensor:
#      x y z
#    x 3.275710 0.000000 0.000000 
#    y 0.000000 2.934920 0.000000 
#    z 0.000000 0.000000 3.352760 
# 
# 
# High freq. dielectric constant tensor:
#      x y z
#    x 1.674510 0.000000 0.000000 
#    y 0.000000 1.635820 0.000000 
#    z 0.000000 0.000000 1.697470 
# 
# From -- ./inp_files/16243.got.cif
#   From: 2010.03.12/outbox.cif.g09.slc.cpg/sg65_9_cif.got.tgz:16243.got - 2010.04.10 20:52:16.
