data_PCOD8266591
_publ_section_title
;
Structure prediction by ZEFSAII (Michael W. Deem and Ramdas Pophale) SiO2 
 PCOD8266591
Probable space group: C M M M
;
_chemical_formula_sum "Si O2"
_cell_formula_units_Z 96
_cell_length_a 25.321968
_cell_length_b 23.606440
_cell_length_c 8.911032
_cell_angle_alpha 90.000000
_cell_angle_beta 90.000000
_cell_angle_gamma 90.000000
_cell_volume 5326.672018
_symmetry_space_group_name_H-M "C M M M"
_symmetry_group_IT_number 65
_symmetry_cell_setting 'orthorhombic'
loop_
_space_group_symop_operation_xyz
x,y,z
-x,-y,z
x,-y,-z
-x,y,-z
-x,-y,-z
x,y,-z
-x,y,z
x,-y,z
1/2+x,1/2+y,z
1/2-x,1/2-y,z
1/2+x,1/2-y,-z
1/2-x,1/2+y,-z
1/2-x,1/2-y,-z
1/2+x,1/2+y,-z
1/2-x,1/2+y,z
1/2+x,1/2-y,z
loop_
_atom_site_type_symbol
_atom_site_label
_atom_site_fract_x
_atom_site_fract_y
_atom_site_fract_z
Si Si1 0.649557 0.112199 0.674531
Si Si2 0.941851 0.808598 0.178628
Si Si3 0.438677 0.180762 0.827490
Si Si4 0.310725 0.000000 0.177944
Si Si5 0.809072 0.000000 0.821491
Si Si6 0.748756 0.684719 0.673552
Si Si7 0.345182 0.619787 0.177971
O O1 0.647397 0.097310 0.500000
O O2 0.593951 0.138050 0.724759
O O3 0.659092 0.054971 0.764754
O O4 0.694820 0.157748 0.711313
O O5 0.928121 0.744815 0.230006
O O6 0.898467 0.852042 0.244894
O O7 0.000000 0.826209 0.239132
O O8 0.942469 0.810057 0.000000
O O9 0.500000 0.165319 0.809696
O O10 0.420761 0.174312 0.000000
O O11 0.250745 0.000000 0.241086
O O12 0.311297 0.000000 0.000000
O O13 0.839894 0.944558 0.761449
O O14 0.807042 0.000000 0.000000
O O15 0.733523 0.676844 0.500000
O O16 0.750000 0.750000 0.720043
O O17 0.705380 0.654976 0.774373
O O18 0.347543 0.620202 0.000000
#
# Coordination Sequence:
#
# PCOD8266591 Si02
#       7
#    16  16  16   8   8  16  16
#     4  11  22  35  53  78 106 135 173 214 258 310
#     4   8  15  29  51  78 106 136 172 216 261 305
#     4   9  18  34  55  78 104 136 173 211 257 311
#     4  11  21  37  56  73 103 141 176 216 259 303
#     4   9  18  31  48  74 103 133 173 218 252 291
#     4  10  21  34  48  72 106 135 162 207 263 312
#     4  10  18  31  51  74 101 135 177 215 251 301
#
# _framework density 18.02251
#
# number of rings (size 3 to 8) (size 9 to 14) (size 15 to 20)
#    0.000    2.333    1.667    2.750    0.000    1.333 
#    0.000    1.250    0.000    6.500    0.000    0.000 
#    0.000    1.333    0.000    0.000    0.000    0.000 
#
# Total GULP energy -595206.100377 kJ/mol
# GULP energy per Si atom -12400.127091 kJ/mol
# Density = 1.798149 g / cm^3
# Si number density = 18.022510 Si / 1000 Ang^3
#
#
#
# Elastic Constant Matrix: (Units=GPa)
#
#
# Indices 1 2 3 4 5 6 
#
# 1 106.8680 65.6305 30.3495 0.0000 0.0000 0.0000
# 2 65.6305 145.2107 32.3985 0.0000 0.0000 0.0000
# 3 30.3495 32.3985 36.9468 0.0000 0.0000 0.0000
# 4 0.0000 0.0000 0.0000 5.1874 0.0000 0.0000
# 5 0.0000 0.0000 0.0000 0.0000 18.2315 0.0000
# 6 0.0000 0.0000 0.0000 0.0000 0.0000 19.9937
#
#
#
# Elastic Compliance Matrix: (Units=1/GPa)
#
#
# Indices 1 2 3 4 5 6 
#
# 1 0.014513 -0.004848 -0.007670 0.000000 0.000000 0.000000
# 2 -0.004848 0.010181 -0.004945 0.000000 0.000000 0.000000
# 3 -0.007670 -0.004945 0.037703 0.000000 0.000000 0.000000
# 4 0.000000 0.000000 0.000000 0.192774 0.000000 0.000000
# 5 0.000000 0.000000 0.000000 0.000000 0.054850 0.000000
# 6 0.000000 0.000000 0.000000 0.000000 0.000000 0.050016
#
#
# Mechanical properties :
#
#
# Convention : Reuss Voigt Hill
#
# Bulk Modulus (GPa) = 36.40357 60.64251 48.52304
# Shear Modulus (GPa) = 12.37253 19.39233 15.88243
#
# Velocity S-wave (km/s) = 2.62297 3.28381 2.97181
# Velocity P-wave (km/s) = 5.42366 6.93535 6.22556
#
# Compressibility (1/GPa) = 0.02746983
#
# Stress axis : x y z
#
# Youngs Moduli (GPa) = 68.90415 98.22130 26.52297
#
# Poissons Ratio (x) = 0.47618 0.20344
# Poissons Ratio (y) = 0.33405 0.13117
# Poissons Ratio (z) = 0.52851 0.48574
#
# Static dielectric constant tensor:
#      x y z
#    x 3.498340 0.000000 0.000000 
#    y 0.000000 3.566180 0.000000 
#    z 0.000000 0.000000 3.039700 
# 
# 
# High freq. dielectric constant tensor:
#      x y z
#    x 1.699680 0.000000 0.000000 
#    y 0.000000 1.703410 0.000000 
#    z 0.000000 0.000000 1.670760 
# 
# From -- ./inp_files/14352.got.cif
#   From: 2010.03.12/outbox.cif.g09.slc.cpg/sg65_8_cif.got.tgz:14352.got - 2010.04.10 20:52:16.
