data_PCOD8266781
_publ_section_title
;
Structure prediction by ZEFSAII (Michael W. Deem and Ramdas Pophale) SiO2 
 PCOD8266781
Probable space group: C M M M
;
_chemical_formula_sum "Si O2"
_cell_formula_units_Z 40
_cell_length_a 9.001069
_cell_length_b 28.155808
_cell_length_c 10.002848
_cell_angle_alpha 90.000000
_cell_angle_beta 90.000000
_cell_angle_gamma 90.000000
_cell_volume 2535.045481
_symmetry_space_group_name_H-M "C M M M"
_symmetry_group_IT_number 65
_symmetry_cell_setting 'orthorhombic'
loop_
_space_group_symop_operation_xyz
x,y,z
-x,-y,z
x,-y,-z
-x,y,-z
-x,-y,-z
x,y,-z
-x,y,z
x,-y,z
1/2+x,1/2+y,z
1/2-x,1/2-y,z
1/2+x,1/2-y,-z
1/2-x,1/2+y,-z
1/2-x,1/2-y,-z
1/2+x,1/2+y,-z
1/2-x,1/2+y,z
1/2+x,1/2-y,z
loop_
_atom_site_type_symbol
_atom_site_label
_atom_site_fract_x
_atom_site_fract_y
_atom_site_fract_z
Si Si1 0.829510 0.445723 0.846125
Si Si2 0.823821 0.300954 0.500000
Si Si3 0.332419 0.622554 0.646205
O O1 0.780230 0.500000 0.823316
O O2 0.728212 0.412318 0.757603
O O3 0.000000 0.439043 0.803471
O O4 0.807085 0.431401 0.000000
O O5 0.750000 0.250000 0.500000
O O6 0.767598 0.329526 0.632750
O O7 0.000000 0.296434 0.500000
O O8 0.330579 0.596764 0.500000
O O9 0.500000 0.637209 0.685505
#
# Coordination Sequence:
#
# PCOD8266781 Si02
#       3
#    16   8  16
#     4   9  18  32  49  70  98 133 169 201 238 286
#     4  10  18  32  53  74  97 124 156 197 245 291
#     4   9  19  32  47  73 100 126 162 201 240 285
#
# _framework density 15.778810999999999
#
# number of rings (size 3 to 8) (size 9 to 14) (size 15 to 20)
#    1.200    1.600    0.000    3.600    0.000    2.400 
#    0.000    6.000    0.000    1.200    0.000    0.000 
#    0.000    0.000    0.000    0.000    0.000    0.000 
#
# Total GULP energy -247799.097857 kJ/mol
# GULP energy per Si atom -12389.954893 kJ/mol
# Density = 1.574290 g / cm^3
# Si number density = 15.778811 Si / 1000 Ang^3
#
#
#
# Elastic Constant Matrix: (Units=GPa)
#
#
# Indices 1 2 3 4 5 6 
#
# 1 139.2580 67.1163 46.8195 0.0000 0.0000 0.0000
# 2 67.1163 96.1475 46.7456 0.0000 0.0000 0.0000
# 3 46.8195 46.7456 57.2303 0.0000 0.0000 0.0000
# 4 0.0000 0.0000 0.0000 -22.3884 0.0000 0.0000
# 5 0.0000 0.0000 0.0000 0.0000 29.2213 0.0000
# 6 0.0000 0.0000 0.0000 0.0000 0.0000 33.5284
#
#
#
# Elastic Compliance Matrix: (Units=1/GPa)
#
#
# Indices 1 2 3 4 5 6 
#
# 1 0.011551 -0.005754 -0.004750 0.000000 0.000000 0.000000
# 2 -0.005754 0.020118 -0.011725 0.000000 0.000000 0.000000
# 3 -0.004750 -0.011725 0.030936 0.000000 0.000000 0.000000
# 4 0.000000 0.000000 0.000000 -0.044666 0.000000 0.000000
# 5 0.000000 0.000000 0.000000 0.000000 0.034222 0.000000
# 6 0.000000 0.000000 0.000000 0.000000 0.000000 0.029825
#
#
# Mechanical properties :
#
#
# Convention : Reuss Voigt Hill
#
# Bulk Modulus (GPa) = 55.10495 68.22208 61.66352
# Shear Modulus (GPa) = 37.73793 16.86921 27.30357
#
# Velocity S-wave (km/s) = 4.89579 3.27326 4.16431
# Velocity P-wave (km/s) = 8.18276 7.59052 7.89220
#
# Compressibility (1/GPa) = 0.01814719
#
# Stress axis : x y z
#
# Youngs Moduli (GPa) = 86.57247 49.70739 32.32470
#
# Poissons Ratio (x) = 0.28601 0.15354
# Poissons Ratio (y) = 0.49813 0.37901
# Poissons Ratio (z) = 0.41122 0.58282
#
# Static dielectric constant tensor:
#      x y z
#    x 3.082690 0.000000 0.000000 
#    y 0.000000 2.813060 0.000000 
#    z 0.000000 0.000000 2.796150 
# 
# 
# High freq. dielectric constant tensor:
#      x y z
#    x 1.620010 0.000000 0.000000 
#    y 0.000000 1.590020 0.000000 
#    z 0.000000 0.000000 1.585760 
# 
# From -- ./inp_files/2804.got.cif
#   From: 2010.03.12/outbox.cif.g09.slc.cpg/sg65_2_cif.got.tgz:2804.got - 2010.04.10 20:52:16.
