data_PCOD8266343
_publ_section_title
;
Structure prediction by ZEFSAII (Michael W. Deem and Ramdas Pophale) SiO2 
 PCOD8266343
Probable space group: C M M M
;
_chemical_formula_sum "Si O2"
_cell_formula_units_Z 88
_cell_length_a 13.914881
_cell_length_b 23.129648
_cell_length_c 14.157932
_cell_angle_alpha 90.000000
_cell_angle_beta 90.000000
_cell_angle_gamma 90.000000
_cell_volume 4556.678023
_symmetry_space_group_name_H-M "C M M M"
_symmetry_group_IT_number 65
_symmetry_cell_setting 'orthorhombic'
loop_
_space_group_symop_operation_xyz
x,y,z
-x,-y,z
x,-y,-z
-x,y,-z
-x,-y,-z
x,y,-z
-x,y,z
x,-y,z
1/2+x,1/2+y,z
1/2-x,1/2-y,z
1/2+x,1/2-y,-z
1/2-x,1/2+y,-z
1/2-x,1/2-y,-z
1/2+x,1/2+y,-z
1/2-x,1/2+y,z
1/2+x,1/2-y,z
loop_
_atom_site_type_symbol
_atom_site_label
_atom_site_fract_x
_atom_site_fract_y
_atom_site_fract_z
Si Si1 0.114628 0.346396 0.894476
Si Si2 0.885513 0.000000 0.893273
Si Si3 0.614087 0.610492 0.222626
Si Si4 0.109237 0.434615 0.260623
Si Si5 0.885725 0.782047 0.893930
Si Si6 0.221225 0.933471 0.393357
O O1 0.154389 0.392875 0.819527
O O2 0.154191 0.282052 0.868581
O O3 0.000000 0.346346 0.891074
O O4 0.148724 0.363416 0.000000
O O5 0.846929 0.056321 0.838226
O O6 0.000000 0.000000 0.895270
O O7 0.845054 0.000000 0.000000
O O8 0.500000 0.611713 0.223214
O O9 0.656184 0.669373 0.176572
O O10 0.650275 0.605077 0.329924
O O11 0.115632 0.500000 0.221567
O O12 0.169837 0.427290 0.356169
O O13 0.000000 0.417762 0.285597
O O14 0.000000 0.781040 0.887339
O O15 0.854159 0.798905 0.000000
O O16 0.217256 0.909736 0.500000
O O17 0.187202 0.000000 0.389229
#
# Coordination Sequence:
#
# PCOD8266343 Si02
#       6
#    16   8  16  16  16  16
#     4   8  14  27  49  76 104 133 163 195 238 296
#     4   9  16  26  43  69 100 131 161 195 233 275
#     4  10  18  30  49  73 102 135 167 198 239 288
#     4   9  18  33  54  76  97 124 161 205 256 304
#     4   8  14  26  47  74 103 137 170 196 230 285
#     4  10  21  36  52  71  98 127 164 216 259 294
#
# _framework density 19.312314000000001
#
# number of rings (size 3 to 8) (size 9 to 14) (size 15 to 20)
#    0.000    3.000    0.909    1.636    0.000    3.273 
#    0.000    7.273    0.000    4.364    0.000    5.091 
#    0.000    0.000    0.000    0.000    0.000    0.000 
#
# Total GULP energy -545515.285502 kJ/mol
# GULP energy per Si atom -12398.074670 kJ/mol
# Density = 1.926836 g / cm^3
# Si number density = 19.312314 Si / 1000 Ang^3
#
#
#
# Elastic Constant Matrix: (Units=GPa)
#
#
# Indices 1 2 3 4 5 6 
#
# 1 13.9803 22.9872 21.3807 0.0000 0.0000 0.0000
# 2 22.9872 113.6358 84.0643 0.0000 0.0000 0.0000
# 3 21.3807 84.0643 164.3054 0.0000 0.0000 0.0000
# 4 0.0000 0.0000 0.0000 26.2380 0.0000 0.0000
# 5 0.0000 0.0000 0.0000 0.0000 22.3966 0.0000
# 6 0.0000 0.0000 0.0000 0.0000 0.0000 21.0609
#
#
#
# Elastic Compliance Matrix: (Units=1/GPa)
#
#
# Indices 1 2 3 4 5 6 
#
# 1 0.109376 -0.018659 -0.004687 0.000000 0.000000 0.000000
# 2 -0.018659 0.017342 -0.006445 0.000000 0.000000 0.000000
# 3 -0.004687 -0.006445 0.009993 0.000000 0.000000 0.000000
# 4 0.000000 0.000000 0.000000 0.038113 0.000000 0.000000
# 5 0.000000 0.000000 0.000000 0.000000 0.044650 0.000000
# 6 0.000000 0.000000 0.000000 0.000000 0.000000 0.047481
#
#
# Mechanical properties :
#
#
# Convention : Reuss Voigt Hill
#
# Bulk Modulus (GPa) = 12.96483 60.97621 36.97052
# Shear Modulus (GPa) = 14.19464 24.83837 19.51650
#
# Velocity S-wave (km/s) = 2.71404 3.59017 3.18240
# Velocity P-wave (km/s) = 4.06806 6.98771 5.71740
#
# Compressibility (1/GPa) = 0.07713177
#
# Stress axis : x y z
#
# Youngs Moduli (GPa) = 9.14278 57.66299 100.06519
#
# Poissons Ratio (x) = 1.07591 0.46896
# Poissons Ratio (y) = 0.17059 0.64490
# Poissons Ratio (z) = 0.04285 0.37163
#
# Static dielectric constant tensor:
#      x y z
#    x 3.334500 0.000000 0.000000 
#    y 0.000000 3.798510 0.000000 
#    z 0.000000 0.000000 3.429460 
# 
# 
# High freq. dielectric constant tensor:
#      x y z
#    x 1.753200 0.000000 0.000000 
#    y 0.000000 1.745080 0.000000 
#    z 0.000000 0.000000 1.725070 
# 
# From -- ./inp_files/40216.got.cif
#   From: 2010.03.12/outbox.cif.g09.slc.cpg/sg65_21_cif.got.tgz:40216.got - 2010.04.10 20:52:16.
