data_PCOD8266137
_publ_section_title
;
Structure prediction by ZEFSAII (Michael W. Deem and Ramdas Pophale) SiO2 
 PCOD8266137
Probable space group: C M M M
;
_chemical_formula_sum "Si O2"
_cell_formula_units_Z 104
_cell_length_a 8.993710
_cell_length_b 28.362450
_cell_length_c 23.063325
_cell_angle_alpha 90.000000
_cell_angle_beta 90.000000
_cell_angle_gamma 90.000000
_cell_volume 5883.077127
_symmetry_space_group_name_H-M "C M M M"
_symmetry_group_IT_number 65
_symmetry_cell_setting 'orthorhombic'
loop_
_space_group_symop_operation_xyz
x,y,z
-x,-y,z
x,-y,-z
-x,y,-z
-x,-y,-z
x,y,-z
-x,y,z
x,-y,z
1/2+x,1/2+y,z
1/2-x,1/2-y,z
1/2+x,1/2-y,-z
1/2-x,1/2+y,-z
1/2-x,1/2-y,-z
1/2+x,1/2+y,-z
1/2-x,1/2+y,z
1/2+x,1/2-y,z
loop_
_atom_site_type_symbol
_atom_site_label
_atom_site_fract_x
_atom_site_fract_y
_atom_site_fract_z
Si Si1 0.326708 0.296744 0.849585
Si Si2 0.825588 0.897657 0.891406
Si Si3 0.175605 0.797617 0.282681
Si Si4 0.823647 0.552597 0.435715
Si Si5 0.176010 0.554140 0.000000
Si Si6 0.329996 0.944961 0.785838
Si Si7 0.673539 0.112543 0.328919
O O1 0.500000 0.286878 0.850599
O O2 0.250000 0.250000 0.875733
O O3 0.284862 0.342161 0.888088
O O4 0.273119 0.306209 0.783781
O O5 0.736019 0.920185 0.943563
O O6 0.781478 0.922615 0.831907
O O7 0.000000 0.904954 0.901707
O O8 0.250000 0.750000 0.306421
O O9 0.234012 0.839990 0.321700
O O10 0.000000 0.793658 0.288469
O O11 0.776179 0.570224 0.500000
O O12 0.759729 0.500000 0.424812
O O13 0.762852 0.588257 0.387188
O O14 0.000000 0.550312 0.430559
O O15 0.229929 0.500000 0.000000
O O16 0.000000 0.557198 0.000000
O O17 0.500000 0.935305 0.805169
O O18 0.296003 0.922989 0.723614
O O19 0.297151 0.000000 0.781457
O O20 0.500000 0.125190 0.333663
#
# Coordination Sequence:
#
# PCOD8266137 Si02
#       7
#    16  16  16  16   8  16  16
#     4   9  19  34  54  79 106 134 168 209 255 310
#     4  11  22  38  57  80 106 136 174 216 260 309
#     4  10  19  33  51  75 106 137 171 212 261 316
#     4   8  14  26  46  73 105 141 181 222 260 304
#     4  11  25  43  60  79 104 139 182 219 254 305
#     4  10  20  32  48  74 107 139 171 211 258 309
#     4  10  18  29  49  77 106 137 174 216 264 312
#
# _framework density 17.677824000000001
#
# number of rings (size 3 to 8) (size 9 to 14) (size 15 to 20)
#    0.000    2.231    1.538    2.538    0.000    6.462 
#    0.000    0.385    0.000    2.308    0.000    1.077 
#    0.000    0.000    0.000    0.000    0.000    0.000 
#
# Total GULP energy -644840.368152 kJ/mol
# GULP energy per Si atom -12400.776311 kJ/mol
# Density = 1.763759 g / cm^3
# Si number density = 17.677824 Si / 1000 Ang^3
#
#
#
# Elastic Constant Matrix: (Units=GPa)
#
#
# Indices 1 2 3 4 5 6 
#
# 1 50.9007 52.2515 36.8747 0.0000 0.0000 0.0000
# 2 52.2515 150.4393 65.3357 0.0000 0.0000 0.0000
# 3 36.8747 65.3357 100.5625 0.0000 0.0000 0.0000
# 4 0.0000 0.0000 0.0000 36.1173 0.0000 0.0000
# 5 0.0000 0.0000 0.0000 0.0000 6.0415 0.0000
# 6 0.0000 0.0000 0.0000 0.0000 0.0000 29.2774
#
#
#
# Elastic Compliance Matrix: (Units=1/GPa)
#
#
# Indices 1 2 3 4 5 6 
#
# 1 0.033371 -0.008743 -0.006556 0.000000 0.000000 0.000000
# 2 -0.008743 0.011551 -0.004299 0.000000 0.000000 0.000000
# 3 -0.006556 -0.004299 0.015141 0.000000 0.000000 0.000000
# 4 0.000000 0.000000 0.000000 0.027688 0.000000 0.000000
# 5 0.000000 0.000000 0.000000 0.000000 0.165522 0.000000
# 6 0.000000 0.000000 0.000000 0.000000 0.000000 0.034156
#
#
# Mechanical properties :
#
#
# Convention : Reuss Voigt Hill
#
# Bulk Modulus (GPa) = 47.92308 67.86959 57.89634
# Shear Modulus (GPa) = 14.98893 24.11663 19.55278
#
# Velocity S-wave (km/s) = 2.91502 3.69756 3.32936
# Velocity P-wave (km/s) = 6.20466 7.53028 6.89938
#
# Compressibility (1/GPa) = 0.02086677
#
# Stress axis : x y z
#
# Youngs Moduli (GPa) = 29.96623 86.57370 66.04650
#
# Poissons Ratio (x) = 0.75694 0.43300
# Poissons Ratio (y) = 0.26200 0.28391
# Poissons Ratio (z) = 0.19646 0.37214
#
# Static dielectric constant tensor:
#      x y z
#    x 3.170640 0.000000 0.000000 
#    y 0.000000 3.450720 0.000000 
#    z 0.000000 0.000000 3.677430 
# 
# 
# High freq. dielectric constant tensor:
#      x y z
#    x 1.669610 0.000000 0.000000 
#    y 0.000000 1.693630 0.000000 
#    z 0.000000 0.000000 1.668770 
# 
# From -- ./inp_files/68177.got.cif
#   From: 2010.03.12/outbox.cif.g09.slc.cpg/sg65_35_cif.got.tgz:68177.got - 2010.04.10 20:52:16.
