data_PCOD8266641
_publ_section_title
;
Structure prediction by ZEFSAII (Michael W. Deem and Ramdas Pophale) SiO2 
 PCOD8266641
Probable space group: C M M M
;
_chemical_formula_sum "Si O2"
_cell_formula_units_Z 104
_cell_length_a 23.047526
_cell_length_b 27.908061
_cell_length_c 9.180247
_cell_angle_alpha 90.000000
_cell_angle_beta 90.000000
_cell_angle_gamma 90.000000
_cell_volume 5904.842844
_symmetry_space_group_name_H-M "C M M M"
_symmetry_group_IT_number 65
_symmetry_cell_setting 'orthorhombic'
loop_
_space_group_symop_operation_xyz
x,y,z
-x,-y,z
x,-y,-z
-x,y,-z
-x,-y,-z
x,y,-z
-x,y,z
x,-y,z
1/2+x,1/2+y,z
1/2-x,1/2-y,z
1/2+x,1/2-y,-z
1/2-x,1/2+y,-z
1/2-x,1/2-y,-z
1/2+x,1/2+y,-z
1/2-x,1/2+y,z
1/2+x,1/2-y,z
loop_
_atom_site_type_symbol
_atom_site_label
_atom_site_fract_x
_atom_site_fract_y
_atom_site_fract_z
Si Si1 0.936776 0.943751 0.159187
Si Si2 0.165999 0.095917 0.671141
Si Si3 0.884664 0.612642 0.173374
Si Si4 0.213145 0.443814 0.666284
Si Si5 0.329412 0.199656 0.672557
Si Si6 0.696898 0.696978 0.671691
Si Si7 0.500000 0.944385 0.172411
O O1 0.891162 0.930394 0.280176
O O2 0.000000 0.922513 0.201202
O O3 0.941491 0.000000 0.152326
O O4 0.917817 0.924100 0.000000
O O5 0.168155 0.093828 0.500000
O O6 0.223523 0.069499 0.729208
O O7 0.161638 0.150819 0.726260
O O8 0.832813 0.579262 0.226192
O O9 0.875720 0.665426 0.245015
O O10 0.943987 0.586263 0.225255
O O11 0.883444 0.618291 0.000000
O O12 0.204880 0.424512 0.500000
O O13 0.204496 0.500000 0.670946
O O14 0.340314 0.194011 0.500000
O O15 0.335203 0.254955 0.729095
O O16 0.263456 0.187135 0.719109
O O17 0.698664 0.702957 0.500000
O O18 0.500000 0.000000 0.233689
O O19 0.500000 0.948015 0.000000
#
# Coordination Sequence:
#
# PCOD8266641 Si02
#       7
#    16  16  16  16  16  16   8
#     4   9  19  35  51  68  97 137 174 205 243 294
#     4  10  18  31  52  78 102 128 165 209 252 298
#     4  11  21  34  54  77 101 135 175 217 262 308
#     4  10  20  33  50  75 107 136 163 205 258 307
#     4   9  16  32  55  76 101 134 166 201 248 306
#     4   8  15  29  53  78 102 134 165 196 248 307
#     4   9  20  38  55  71  99 141 183 219 260 315
#
# _framework density 17.612662
#
# number of rings (size 3 to 8) (size 9 to 14) (size 15 to 20)
#    0.000    2.538    1.538    2.769    0.000    2.769 
#    0.000    4.615    1.692    2.769    0.000    0.000 
#    0.000    0.000    0.000    0.000    0.000    0.000 
#
# Total GULP energy -644271.159090 kJ/mol
# GULP energy per Si atom -12389.829982 kJ/mol
# Density = 1.757258 g / cm^3
# Si number density = 17.612662 Si / 1000 Ang^3
#
#
#
# Elastic Constant Matrix: (Units=GPa)
#
#
# Indices 1 2 3 4 5 6 
#
# 1 88.3077 31.7354 23.3678 0.0000 0.0000 0.0000
# 2 31.7354 63.8966 24.4752 0.0000 0.0000 0.0000
# 3 23.3678 24.4752 36.0596 0.0000 0.0000 0.0000
# 4 0.0000 0.0000 0.0000 22.5593 0.0000 0.0000
# 5 0.0000 0.0000 0.0000 0.0000 33.5795 0.0000
# 6 0.0000 0.0000 0.0000 0.0000 0.0000 30.2770
#
#
#
# Elastic Compliance Matrix: (Units=1/GPa)
#
#
# Indices 1 2 3 4 5 6 
#
# 1 0.014742 -0.004949 -0.006194 0.000000 0.000000 0.000000
# 2 -0.004949 0.022810 -0.012275 0.000000 0.000000 0.000000
# 3 -0.006194 -0.012275 0.040077 0.000000 0.000000 0.000000
# 4 0.000000 0.000000 0.000000 0.044328 0.000000 0.000000
# 5 0.000000 0.000000 0.000000 0.000000 0.029780 0.000000
# 6 0.000000 0.000000 0.000000 0.000000 0.000000 0.033028
#
#
# Mechanical properties :
#
#
# Convention : Reuss Voigt Hill
#
# Bulk Modulus (GPa) = 32.47489 38.60231 35.53860
# Shear Modulus (GPa) = 20.67261 24.52887 22.60074
#
# Velocity S-wave (km/s) = 3.42970 3.73592 3.58608
# Velocity P-wave (km/s) = 5.84484 6.36980 6.11296
#
# Compressibility (1/GPa) = 0.03079302
#
# Stress axis : x y z
#
# Youngs Moduli (GPa) = 67.83503 43.83985 24.95172
#
# Poissons Ratio (x) = 0.21697 0.15455
# Poissons Ratio (y) = 0.33573 0.30629
# Poissons Ratio (z) = 0.42016 0.53814
#
# Static dielectric constant tensor:
#      x y z
#    x 3.336530 0.000000 0.000000 
#    y 0.000000 3.633260 0.000000 
#    z 0.000000 0.000000 3.013750 
# 
# 
# High freq. dielectric constant tensor:
#      x y z
#    x 1.665760 0.000000 0.000000 
#    y 0.000000 1.693090 0.000000 
#    z 0.000000 0.000000 1.652270 
# 
# From -- ./inp_files/14801.got.cif
#   From: 2010.03.12/outbox.cif.g09.slc.cpg/sg65_8_cif.got.tgz:14801.got - 2010.04.10 20:52:16.
