data_PCOD8266024
_publ_section_title
;
Structure prediction by ZEFSAII (Michael W. Deem and Ramdas Pophale) SiO2 
 PCOD8266024
Probable space group: C M M M
;
_chemical_formula_sum "Si O2"
_cell_formula_units_Z 96
_cell_length_a 8.579810
_cell_length_b 25.975567
_cell_length_c 23.843352
_cell_angle_alpha 90.000000
_cell_angle_beta 90.000000
_cell_angle_gamma 90.000000
_cell_volume 5313.858884
_symmetry_space_group_name_H-M "C M M M"
_symmetry_group_IT_number 65
_symmetry_cell_setting 'orthorhombic'
loop_
_space_group_symop_operation_xyz
x,y,z
-x,-y,z
x,-y,-z
-x,y,-z
-x,-y,-z
x,y,-z
-x,y,z
x,-y,z
1/2+x,1/2+y,z
1/2-x,1/2-y,z
1/2+x,1/2-y,-z
1/2-x,1/2+y,-z
1/2-x,1/2-y,-z
1/2+x,1/2+y,-z
1/2-x,1/2+y,z
1/2+x,1/2-y,z
loop_
_atom_site_type_symbol
_atom_site_label
_atom_site_fract_x
_atom_site_fract_y
_atom_site_fract_z
Si Si1 0.185332 0.099136 0.437015
Si Si2 0.314901 0.000000 0.246234
Si Si3 0.814593 0.597808 0.823404
Si Si4 0.315123 0.304121 0.365831
Si Si5 0.185340 0.441788 0.938998
Si Si6 0.314784 0.500000 0.370383
Si Si7 0.315010 0.804108 0.243444
O O1 0.253202 0.097459 0.500000
O O2 0.243247 0.151424 0.407576
O O3 0.249397 0.050200 0.402727
O O4 0.000000 0.097534 0.438541
O O5 0.252071 0.050412 0.213899
O O6 0.248217 0.000000 0.308087
O O7 0.500000 0.000000 0.249078
O O8 0.750720 0.592616 0.887388
O O9 0.753509 0.651495 0.798202
O O10 0.000000 0.596614 0.823010
O O11 0.500000 0.301217 0.361997
O O12 0.250000 0.250000 0.388771
O O13 0.248696 0.316704 0.304805
O O14 0.245857 0.500000 0.930760
O O15 0.000000 0.442000 0.937579
O O16 0.242790 0.420543 0.000000
O O17 0.500000 0.500000 0.368757
O O18 0.500000 0.801724 0.246115
O O19 0.250000 0.750000 0.220695
#
# Coordination Sequence:
#
# PCOD8266024 Si02
#       7
#    16   8  16  16  16   8  16
#     4   9  18  32  50  70  90 116 150 186 223 265
#     4  10  18  29  46  69  98 122 141 178 232 280
#     4   9  16  26  42  66  94 122 151 183 227 275
#     4  10  19  32  50  70  92 116 147 188 230 272
#     4   8  12  20  37  62  93 123 149 182 225 269
#     4  10  19  32  50  69  91 119 153 186 216 262
#     4  10  19  31  47  66  91 123 155 186 222 268
#
# _framework density 18.065968000000002
#
# number of rings (size 3 to 8) (size 9 to 14) (size 15 to 20)
#    0.000    2.667    0.833    3.750    0.000    1.333 
#    0.000    1.667    0.000    5.000    0.000    0.000 
#    0.000    6.000    0.000    0.000    0.000    0.667 
#
# Total GULP energy -595002.444292 kJ/mol
# GULP energy per Si atom -12395.884256 kJ/mol
# Density = 1.802485 g / cm^3
# Si number density = 18.065968 Si / 1000 Ang^3
#
#
#
# Elastic Constant Matrix: (Units=GPa)
#
#
# Indices 1 2 3 4 5 6 
#
# 1 31.5476 22.0980 15.9986 0.0000 0.0000 0.0000
# 2 22.0980 164.2911 109.3362 0.0000 0.0000 0.0000
# 3 15.9986 109.3362 176.5777 0.0000 0.0000 0.0000
# 4 0.0000 0.0000 0.0000 23.1242 0.0000 0.0000
# 5 0.0000 0.0000 0.0000 0.0000 14.3525 0.0000
# 6 0.0000 0.0000 0.0000 0.0000 0.0000 14.9738
#
#
#
# Elastic Compliance Matrix: (Units=1/GPa)
#
#
# Indices 1 2 3 4 5 6 
#
# 1 0.035015 -0.004420 -0.000436 0.000000 0.000000 0.000000
# 2 -0.004420 0.010911 -0.006356 0.000000 0.000000 0.000000
# 3 -0.000436 -0.006356 0.009638 0.000000 0.000000 0.000000
# 4 0.000000 0.000000 0.000000 0.043245 0.000000 0.000000
# 5 0.000000 0.000000 0.000000 0.000000 0.069674 0.000000
# 6 0.000000 0.000000 0.000000 0.000000 0.000000 0.066783
#
#
# Mechanical properties :
#
#
# Convention : Reuss Voigt Hill
#
# Bulk Modulus (GPa) = 30.17335 74.14245 52.15790
# Shear Modulus (GPa) = 18.60567 25.48901 22.04734
#
# Velocity S-wave (km/s) = 3.21265 3.76025 3.49718
# Velocity P-wave (km/s) = 5.52263 7.74478 6.72611
#
# Compressibility (1/GPa) = 0.03314183
#
# Stress axis : x y z
#
# Youngs Moduli (GPa) = 28.55920 91.65204 103.75561
#
# Poissons Ratio (x) = 0.40507 0.04523
# Poissons Ratio (y) = 0.12622 0.65942
# Poissons Ratio (z) = 0.01245 0.58250
#
# Static dielectric constant tensor:
#      x y z
#    x 2.904280 0.000000 0.000000 
#    y 0.000000 3.592410 0.000000 
#    z 0.000000 0.000000 3.672350 
# 
# 
# High freq. dielectric constant tensor:
#      x y z
#    x 1.656850 0.000000 0.000000 
#    y 0.000000 1.699540 0.000000 
#    z 0.000000 0.000000 1.706080 
# 
# From -- ./inp_files/68092.got.cif
#   From: 2010.03.12/outbox.cif.g09.slc.cpg/sg65_35_cif.got.tgz:68092.got - 2010.04.10 20:52:16.
