data_PCOD8266302
_publ_section_title
;
Structure prediction by ZEFSAII (Michael W. Deem and Ramdas Pophale) SiO2 
 PCOD8266302
Probable space group: C M M M
;
_chemical_formula_sum "Si O2"
_cell_formula_units_Z 104
_cell_length_a 9.121876
_cell_length_b 28.372338
_cell_length_c 23.204759
_cell_angle_alpha 90.000000
_cell_angle_beta 90.000000
_cell_angle_gamma 90.000000
_cell_volume 6005.599290
_symmetry_space_group_name_H-M "C M M M"
_symmetry_group_IT_number 65
_symmetry_cell_setting 'orthorhombic'
loop_
_space_group_symop_operation_xyz
x,y,z
-x,-y,z
x,-y,-z
-x,y,-z
-x,-y,-z
x,y,-z
-x,y,z
x,-y,z
1/2+x,1/2+y,z
1/2-x,1/2-y,z
1/2+x,1/2-y,-z
1/2-x,1/2+y,-z
1/2-x,1/2-y,-z
1/2+x,1/2+y,-z
1/2-x,1/2+y,z
1/2+x,1/2-y,z
loop_
_atom_site_type_symbol
_atom_site_label
_atom_site_fract_x
_atom_site_fract_y
_atom_site_fract_z
Si Si1 0.673860 0.947237 0.000000
Si Si2 0.826875 0.610851 0.889539
Si Si3 0.168572 0.554500 0.223894
Si Si4 0.170721 0.796574 0.722222
Si Si5 0.674191 0.447094 0.436503
Si Si6 0.825934 0.894934 0.674914
Si Si7 0.172498 0.202496 0.855862
O O1 0.727988 0.919816 0.943459
O O2 0.500000 0.950647 0.000000
O O3 0.740811 0.000000 0.000000
O O4 0.781558 0.583173 0.832105
O O5 0.740489 0.659915 0.892163
O O6 0.000000 0.620763 0.892089
O O7 0.195658 0.500000 0.210280
O O8 0.265060 0.569433 0.277887
O O9 0.000000 0.564802 0.238799
O O10 0.250000 0.750000 0.698476
O O11 0.228191 0.841583 0.686214
O O12 0.209554 0.805803 0.788758
O O13 0.000000 0.788331 0.713245
O O14 0.729391 0.430716 0.500000
O O15 0.500000 0.447490 0.435553
O O16 0.731882 0.500000 0.423563
O O17 0.733157 0.411306 0.387771
O O18 0.000000 0.897485 0.679090
O O19 0.250000 0.250000 0.877736
O O20 0.000000 0.206062 0.867178
#
# Coordination Sequence:
#
# PCOD8266302 Si02
#       7
#     8  16  16  16  16  16  16
#     4   9  18  34  56  77  98 131 174 209 238 287
#     4  10  19  33  53  75  99 130 166 204 244 287
#     4  10  20  31  45  70 102 130 157 194 242 292
#     4   9  18  30  46  69  96 125 158 194 240 293
#     4   8  14  25  43  68  96 126 161 200 239 280
#     4  10  18  30  48  72  97 124 161 203 245 288
#     4  10  19  33  52  75 102 129 161 201 247 300
#
# _framework density 17.317173
#
# number of rings (size 3 to 8) (size 9 to 14) (size 15 to 20)
#    0.000    2.538    1.538    1.846    0.000    4.000 
#    0.000    0.769    0.000    2.769    0.000    2.154 
#    0.000    0.000    0.000    0.000    0.000    0.000 
#
# Total GULP energy -644780.321023 kJ/mol
# GULP energy per Si atom -12399.621558 kJ/mol
# Density = 1.727776 g / cm^3
# Si number density = 17.317173 Si / 1000 Ang^3
#
#
#
# Elastic Constant Matrix: (Units=GPa)
#
#
# Indices 1 2 3 4 5 6 
#
# 1 34.0776 38.9104 26.7073 0.0000 0.0000 0.0000
# 2 38.9104 148.3937 67.6513 0.0000 0.0000 0.0000
# 3 26.7073 67.6513 111.6708 0.0000 0.0000 0.0000
# 4 0.0000 0.0000 0.0000 30.4947 0.0000 0.0000
# 5 0.0000 0.0000 0.0000 0.0000 14.5955 0.0000
# 6 0.0000 0.0000 0.0000 0.0000 0.0000 26.7818
#
#
#
# Elastic Compliance Matrix: (Units=1/GPa)
#
#
# Indices 1 2 3 4 5 6 
#
# 1 0.043707 -0.009250 -0.004849 0.000000 0.000000 0.000000
# 2 -0.009250 0.011268 -0.004614 0.000000 0.000000 0.000000
# 3 -0.004849 -0.004614 0.012910 0.000000 0.000000 0.000000
# 4 0.000000 0.000000 0.000000 0.032793 0.000000 0.000000
# 5 0.000000 0.000000 0.000000 0.000000 0.068514 0.000000
# 6 0.000000 0.000000 0.000000 0.000000 0.000000 0.037339
#
#
# Mechanical properties :
#
#
# Convention : Reuss Voigt Hill
#
# Bulk Modulus (GPa) = 32.83174 62.29779 47.56477
# Shear Modulus (GPa) = 19.67666 25.09929 22.38797
#
# Velocity S-wave (km/s) = 3.37449 3.81121 3.59948
# Velocity P-wave (km/s) = 5.84663 7.44445 6.69339
#
# Compressibility (1/GPa) = 0.03045833
#
# Stress axis : x y z
#
# Youngs Moduli (GPa) = 22.87976 88.75012 77.46027
#
# Poissons Ratio (x) = 0.82090 0.37564
# Poissons Ratio (y) = 0.21163 0.35739
# Poissons Ratio (z) = 0.11096 0.40948
#
# Static dielectric constant tensor:
#      x y z
#    x 2.961330 0.000000 0.000000 
#    y 0.000000 3.393310 0.000000 
#    z 0.000000 0.000000 3.324060 
# 
# 
# High freq. dielectric constant tensor:
#      x y z
#    x 1.641680 0.000000 0.000000 
#    y 0.000000 1.677960 0.000000 
#    z 0.000000 0.000000 1.655280 
# 
# From -- ./inp_files/68196.got.cif
#   From: 2010.03.12/outbox.cif.g09.slc.cpg/sg65_35_cif.got.tgz:68196.got - 2010.04.10 20:52:16.
