data_PCOD8266144
_publ_section_title
;
Structure prediction by ZEFSAII (Michael W. Deem and Ramdas Pophale) SiO2 
 PCOD8266144
Probable space group: C M M M
;
_chemical_formula_sum "Si O2"
_cell_formula_units_Z 72
_cell_length_a 14.432267
_cell_length_b 14.188179
_cell_length_c 18.246032
_cell_angle_alpha 90.000000
_cell_angle_beta 90.000000
_cell_angle_gamma 90.000000
_cell_volume 3736.195955
_symmetry_space_group_name_H-M "C M M M"
_symmetry_group_IT_number 65
_symmetry_cell_setting 'orthorhombic'
loop_
_space_group_symop_operation_xyz
x,y,z
-x,-y,z
x,-y,-z
-x,y,-z
-x,-y,-z
x,y,-z
-x,y,z
x,-y,z
1/2+x,1/2+y,z
1/2-x,1/2-y,z
1/2+x,1/2-y,-z
1/2-x,1/2+y,-z
1/2-x,1/2-y,-z
1/2+x,1/2+y,-z
1/2-x,1/2+y,z
1/2+x,1/2-y,z
loop_
_atom_site_type_symbol
_atom_site_label
_atom_site_fract_x
_atom_site_fract_y
_atom_site_fract_z
Si Si1 0.209995 0.891821 0.779894
Si Si2 0.604399 0.388101 0.919393
Si Si3 0.110232 0.107318 0.500000
Si Si4 0.106178 0.796947 0.646960
Si Si5 0.896995 0.604742 0.710903
O O1 0.174646 0.849442 0.857284
O O2 0.164782 0.835248 0.714053
O O3 0.321400 0.880286 0.775361
O O4 0.178912 0.000000 0.772101
O O5 0.500000 0.355393 0.899795
O O6 0.609009 0.500000 0.921735
O O7 0.632761 0.348735 0.000000
O O8 0.147824 0.161787 0.428342
O O9 0.000000 0.109931 0.500000
O O10 0.147073 0.000000 0.500000
O O11 0.115229 0.682876 0.646959
O O12 0.000000 0.829350 0.656801
O O13 0.884154 0.500000 0.675977
O O14 0.000000 0.614640 0.746020
#
# Coordination Sequence:
#
# PCOD8266144 Si02
#       5
#    16  16   8  16  16
#     4  10  18  29  50  77 102 130 165 204 250 305
#     4   8  14  25  43  72 109 139 160 192 246 310
#     4   9  18  32  50  77 112 138 155 190 252 317
#     4  10  19  32  52  76 102 131 163 202 251 305
#     4   9  19  35  51  67  92 131 179 221 249 280
#
# _framework density 19.270938000000001
#
# number of rings (size 3 to 8) (size 9 to 14) (size 15 to 20)
#    0.000    2.778    0.000    2.667    0.000    2.222 
#    0.000    2.778    0.000    9.333    0.000    7.778 
#    0.000    0.000    0.000    0.000    0.000    0.000 
#
# Total GULP energy -446103.934883 kJ/mol
# GULP energy per Si atom -12391.775969 kJ/mol
# Density = 1.922708 g / cm^3
# Si number density = 19.270938 Si / 1000 Ang^3
#
#
#
# Elastic Constant Matrix: (Units=GPa)
#
#
# Indices 1 2 3 4 5 6 
#
# 1 96.8029 44.7051 69.5845 0.0000 0.0000 0.0000
# 2 44.7051 93.2750 62.9567 0.0000 0.0000 0.0000
# 3 69.5845 62.9567 161.2066 0.0000 0.0000 0.0000
# 4 0.0000 0.0000 0.0000 9.3206 0.0000 0.0000
# 5 0.0000 0.0000 0.0000 0.0000 7.0757 0.0000
# 6 0.0000 0.0000 0.0000 0.0000 0.0000 19.5548
#
#
#
# Elastic Compliance Matrix: (Units=1/GPa)
#
#
# Indices 1 2 3 4 5 6 
#
# 1 0.016053 -0.004097 -0.005329 0.000000 0.000000 0.000000
# 2 -0.004097 0.015604 -0.004326 0.000000 0.000000 0.000000
# 3 -0.005329 -0.004326 0.010193 0.000000 0.000000 0.000000
# 4 0.000000 0.000000 0.000000 0.107289 0.000000 0.000000
# 5 0.000000 0.000000 0.000000 0.000000 0.141328 0.000000
# 6 0.000000 0.000000 0.000000 0.000000 0.000000 0.051138
#
#
# Mechanical properties :
#
#
# Convention : Reuss Voigt Hill
#
# Bulk Modulus (GPa) = 69.70284 78.41966 74.06125
# Shear Modulus (GPa) = 13.37288 18.79279 16.08283
#
# Velocity S-wave (km/s) = 2.63713 3.12619 2.89202
# Velocity P-wave (km/s) = 6.74693 7.33569 7.04746
#
# Compressibility (1/GPa) = 0.01434662
#
# Stress axis : x y z
#
# Youngs Moduli (GPa) = 62.29303 64.08570 98.10782
#
# Poissons Ratio (x) = 0.26255 0.52285
# Poissons Ratio (y) = 0.25521 0.42437
# Poissons Ratio (z) = 0.33198 0.27720
#
# Static dielectric constant tensor:
#      x y z
#    x 3.677190 0.000000 0.000000 
#    y 0.000000 3.599720 0.000000 
#    z 0.000000 0.000000 3.658290 
# 
# 
# High freq. dielectric constant tensor:
#      x y z
#    x 1.747260 0.000000 0.000000 
#    y 0.000000 1.741260 0.000000 
#    z 0.000000 0.000000 1.723170 
# 
# From -- ./inp_files/52719.got.cif
#   From: 2010.03.12/outbox.cif.g09.slc.cpg/sg65_27_cif.got.tgz:52719.got - 2010.04.10 20:52:16.
