data_PCOD8266838
_publ_section_title
;
Structure prediction by ZEFSAII (Michael W. Deem and Ramdas Pophale) SiO2 
 PCOD8266838
Probable space group: C M M M
;
_chemical_formula_sum "Si O2"
_cell_formula_units_Z 104
_cell_length_a 23.847539
_cell_length_b 26.196051
_cell_length_c 9.144841
_cell_angle_alpha 90.000000
_cell_angle_beta 90.000000
_cell_angle_gamma 90.000000
_cell_volume 5712.885947
_symmetry_space_group_name_H-M "C M M M"
_symmetry_group_IT_number 65
_symmetry_cell_setting 'orthorhombic'
loop_
_space_group_symop_operation_xyz
x,y,z
-x,-y,z
x,-y,-z
-x,y,-z
-x,-y,-z
x,y,-z
-x,y,z
x,-y,z
1/2+x,1/2+y,z
1/2-x,1/2-y,z
1/2+x,1/2-y,-z
1/2-x,1/2+y,-z
1/2-x,1/2-y,-z
1/2+x,1/2+y,-z
1/2-x,1/2+y,z
1/2+x,1/2-y,z
loop_
_atom_site_type_symbol
_atom_site_label
_atom_site_fract_x
_atom_site_fract_y
_atom_site_fract_z
Si Si1 0.939003 0.559530 0.341610
Si Si2 0.435762 0.209771 0.171841
Si Si3 0.062056 0.000000 0.173750
Si Si4 0.130342 0.903155 0.173424
Si Si5 0.141987 0.381407 0.169831
Si Si6 0.935987 0.184263 0.672102
Si Si7 0.751840 0.558606 0.826167
O O1 0.914904 0.578315 0.500000
O O2 0.945633 0.500000 0.344408
O O3 0.900158 0.573087 0.205874
O O4 0.000000 0.584605 0.317110
O O5 0.500000 0.190630 0.199967
O O6 0.388298 0.169846 0.231687
O O7 0.423938 0.260549 0.261716
O O8 0.427233 0.220364 0.000000
O O9 0.092826 0.949787 0.230435
O O10 0.000000 0.000000 0.240177
O O11 0.061748 0.000000 0.000000
O O12 0.108728 0.853154 0.254540
O O13 0.193255 0.916671 0.222265
O O14 0.125600 0.894759 0.000000
O O15 0.201582 0.401039 0.235647
O O16 0.149306 0.374033 0.000000
O O17 0.925341 0.186090 0.500000
O O18 0.000000 0.167203 0.707753
O O19 0.758559 0.500000 0.765031
O O20 0.755732 0.555178 0.000000
#
# Coordination Sequence:
#
# PCOD8266838 Si02
#       7
#    16  16   8  16  16  16  16
#     4   9  18  31  45  65  97 134 170 211 261 316
#     4   9  18  33  52  75 102 132 170 215 261 311
#     4   9  16  26  47  79 105 127 164 207 244 294
#     4  10  18  32  54  78 105 138 173 208 248 301
#     4  10  19  31  51  77 102 131 172 220 264 303
#     4  10  21  36  54  77 104 133 166 209 264 317
#     4   9  17  31  51  77 108 140 173 211 255 303
#
# _framework density 18.204460000000001
#
# number of rings (size 3 to 8) (size 9 to 14) (size 15 to 20)
#    0.000    2.538    0.769    2.308    0.000    4.000 
#    0.000    4.231    0.000    6.923    0.000    0.000 
#    0.000    0.000    0.000    0.000    0.000    0.000 
#
# Total GULP energy -644211.234991 kJ/mol
# GULP energy per Si atom -12388.677596 kJ/mol
# Density = 1.816303 g / cm^3
# Si number density = 18.204460 Si / 1000 Ang^3
#
#
#
# Elastic Constant Matrix: (Units=GPa)
#
#
# Indices 1 2 3 4 5 6 
#
# 1 151.7240 90.8861 29.9540 0.0000 0.0000 0.0000
# 2 90.8861 120.3811 39.6377 0.0000 0.0000 0.0000
# 3 29.9540 39.6377 25.2726 0.0000 0.0000 0.0000
# 4 0.0000 0.0000 0.0000 11.3806 0.0000 0.0000
# 5 0.0000 0.0000 0.0000 0.0000 14.8107 0.0000
# 6 0.0000 0.0000 0.0000 0.0000 0.0000 23.7974
#
#
#
# Elastic Compliance Matrix: (Units=1/GPa)
#
#
# Indices 1 2 3 4 5 6 
#
# 1 0.012033 -0.009076 -0.000028 0.000000 0.000000 0.000000
# 2 -0.009076 0.024023 -0.026922 0.000000 0.000000 0.000000
# 3 -0.000028 -0.026922 0.081825 0.000000 0.000000 0.000000
# 4 0.000000 0.000000 0.000000 0.087869 0.000000 0.000000
# 5 0.000000 0.000000 0.000000 0.000000 0.067519 0.000000
# 6 0.000000 0.000000 0.000000 0.000000 0.000000 0.042021
#
#
# Mechanical properties :
#
#
# Convention : Reuss Voigt Hill
#
# Bulk Modulus (GPa) = 21.81884 68.70370 45.26127
# Shear Modulus (GPa) = 12.41873 19.12440 15.77157
#
# Velocity S-wave (km/s) = 2.61469 3.24471 2.94659
# Velocity P-wave (km/s) = 4.59641 7.20135 6.04096
#
# Compressibility (1/GPa) = 0.04583195
#
# Stress axis : x y z
#
# Youngs Moduli (GPa) = 83.10609 41.62623 12.22113
#
# Poissons Ratio (x) = 0.37778 0.00034
# Poissons Ratio (y) = 0.75423 0.32901
# Poissons Ratio (z) = 0.00229 1.12065
#
# Static dielectric constant tensor:
#      x y z
#    x 3.636620 0.000000 0.000000 
#    y 0.000000 3.363370 0.000000 
#    z 0.000000 0.000000 3.113680 
# 
# 
# High freq. dielectric constant tensor:
#      x y z
#    x 1.706610 0.000000 0.000000 
#    y 0.000000 1.704060 0.000000 
#    z 0.000000 0.000000 1.673840 
# 
# From -- ./inp_files/14772.got.cif
#   From: 2010.03.12/outbox.cif.g09.slc.cpg/sg65_8_cif.got.tgz:14772.got - 2010.04.10 20:52:16.
