data_PCOD8266820
_publ_section_title
;
Structure prediction by ZEFSAII (Michael W. Deem and Ramdas Pophale) SiO2 
 PCOD8266820
Probable space group: C M M M
;
_chemical_formula_sum "Si O2"
_cell_formula_units_Z 64
_cell_length_a 15.765236
_cell_length_b 8.618494
_cell_length_c 21.885011
_cell_angle_alpha 90.000000
_cell_angle_beta 90.000000
_cell_angle_gamma 90.000000
_cell_volume 2973.573168
_symmetry_space_group_name_H-M "C M M M"
_symmetry_group_IT_number 65
_symmetry_cell_setting 'orthorhombic'
loop_
_space_group_symop_operation_xyz
x,y,z
-x,-y,z
x,-y,-z
-x,y,-z
-x,-y,-z
x,y,-z
-x,y,z
x,-y,z
1/2+x,1/2+y,z
1/2-x,1/2-y,z
1/2+x,1/2-y,-z
1/2-x,1/2+y,-z
1/2-x,1/2-y,-z
1/2+x,1/2+y,-z
1/2-x,1/2+y,z
1/2+x,1/2-y,z
loop_
_atom_site_type_symbol
_atom_site_label
_atom_site_fract_x
_atom_site_fract_y
_atom_site_fract_z
Si Si1 0.844404 0.816020 0.500000
Si Si2 0.837897 0.683350 0.136286
Si Si3 0.843489 0.316919 0.376565
Si Si4 0.903752 0.823514 0.744205
Si Si5 0.000000 0.823167 0.927716
O O1 0.750000 0.750000 0.500000
O O2 0.887793 0.752700 0.562074
O O3 0.845583 0.000000 0.500000
O O4 0.835191 0.500000 0.135038
O O5 0.750000 0.750000 0.108858
O O6 0.845278 0.741456 0.205880
O O7 0.915712 0.740226 0.095693
O O8 0.838908 0.500000 0.382815
O O9 0.750000 0.250000 0.366751
O O10 0.900023 0.268362 0.319251
O O11 0.000000 0.818414 0.768378
O O12 0.872609 0.000000 0.734704
O O13 0.000000 0.000000 0.903997
O O14 0.000000 0.813906 0.000000
#
# Coordination Sequence:
#
# PCOD8266820 Si02
#       5
#     8  16  16  16   8
#     4  10  18  32  53  78 111 150 199 253 317 382
#     4  12  25  43  70 101 137 178 225 273 328 390
#     4  11  21  35  56  83 116 153 203 257 317 384
#     4  11  23  40  62  88 124 164 209 265 327 386
#     4  11  25  47  73 103 141 180 221 272 327 385
#
# _framework density 21.522928
#
# number of rings (size 3 to 8) (size 9 to 14) (size 15 to 20)
#    0.000    0.875    1.250    9.000    0.000    3.000 
#    0.000    0.625    0.000    3.750    0.000    0.000 
#    0.000    0.000    0.000    0.000    0.000    0.000 
#
# Total GULP energy -396935.521219 kJ/mol
# GULP energy per Si atom -12404.235038 kJ/mol
# Density = 2.147394 g / cm^3
# Si number density = 21.522928 Si / 1000 Ang^3
#
#
#
# Elastic Constant Matrix: (Units=GPa)
#
#
# Indices 1 2 3 4 5 6 
#
# 1 114.0810 52.7337 34.4188 0.0000 0.0000 0.0000
# 2 52.7337 227.5134 50.3942 0.0000 0.0000 0.0000
# 3 34.4188 50.3942 98.1244 0.0000 0.0000 0.0000
# 4 0.0000 0.0000 0.0000 39.0270 0.0000 0.0000
# 5 0.0000 0.0000 0.0000 0.0000 42.8766 0.0000
# 6 0.0000 0.0000 0.0000 0.0000 0.0000 31.3526
#
#
#
# Elastic Compliance Matrix: (Units=1/GPa)
#
#
# Indices 1 2 3 4 5 6 
#
# 1 0.010426 -0.001813 -0.002726 0.000000 0.000000 0.000000
# 2 -0.001813 0.005275 -0.002073 0.000000 0.000000 0.000000
# 3 -0.002726 -0.002073 0.012212 0.000000 0.000000 0.000000
# 4 0.000000 0.000000 0.000000 0.025623 0.000000 0.000000
# 5 0.000000 0.000000 0.000000 0.000000 0.023323 0.000000
# 6 0.000000 0.000000 0.000000 0.000000 0.000000 0.031895
#
#
# Mechanical properties :
#
#
# Convention : Reuss Voigt Hill
#
# Bulk Modulus (GPa) = 68.07863 79.42356 73.75109
# Shear Modulus (GPa) = 39.40900 42.79605 41.10253
#
# Velocity S-wave (km/s) = 4.28369 4.46398 4.37476
# Velocity P-wave (km/s) = 7.49440 7.97191 7.73684
#
# Compressibility (1/GPa) = 0.01468890
#
# Stress axis : x y z
#
# Youngs Moduli (GPa) = 95.91275 189.58414 81.88611
#
# Poissons Ratio (x) = 0.34367 0.22323
# Poissons Ratio (y) = 0.17387 0.16976
# Poissons Ratio (z) = 0.26147 0.39303
#
# Static dielectric constant tensor:
#      x y z
#    x 3.314010 0.000000 0.000000 
#    y 0.000000 4.029940 0.000000 
#    z 0.000000 0.000000 4.207000 
# 
# 
# High freq. dielectric constant tensor:
#      x y z
#    x 1.832470 0.000000 0.000000 
#    y 0.000000 1.864240 0.000000 
#    z 0.000000 0.000000 1.854870 
# 
# From -- ./inp_files/69531.got.cif
#   From: 2010.03.12/outbox.cif.g09.slc.cpg/sg65_35_cif.got.tgz:69531.got - 2010.04.10 20:52:16.
