data_PCOD8266759
_publ_section_title
;
Structure prediction by ZEFSAII (Michael W. Deem and Ramdas Pophale) SiO2 
 PCOD8266759
Probable space group: C M M M
;
_chemical_formula_sum "Si O2"
_cell_formula_units_Z 104
_cell_length_a 23.935361
_cell_length_b 8.829822
_cell_length_c 27.687562
_cell_angle_alpha 90.000000
_cell_angle_beta 90.000000
_cell_angle_gamma 90.000000
_cell_volume 5851.627158
_symmetry_space_group_name_H-M "C M M M"
_symmetry_group_IT_number 65
_symmetry_cell_setting 'orthorhombic'
loop_
_space_group_symop_operation_xyz
x,y,z
-x,-y,z
x,-y,-z
-x,y,-z
-x,-y,-z
x,y,-z
-x,y,z
x,-y,z
1/2+x,1/2+y,z
1/2-x,1/2-y,z
1/2+x,1/2-y,-z
1/2-x,1/2+y,-z
1/2-x,1/2-y,-z
1/2+x,1/2+y,-z
1/2-x,1/2+y,z
1/2+x,1/2-y,z
loop_
_atom_site_type_symbol
_atom_site_label
_atom_site_fract_x
_atom_site_fract_y
_atom_site_fract_z
Si Si1 0.308813 0.824482 0.944097
Si Si2 0.188871 0.319616 0.225746
Si Si3 0.500000 0.324854 0.842222
Si Si4 0.500000 0.167748 0.254280
Si Si5 0.066279 0.669756 0.500000
Si Si6 0.121242 0.180744 0.136881
Si Si7 0.563867 0.321991 0.597658
Si Si8 0.111796 0.672276 0.312865
O O1 0.250000 0.750000 0.931469
O O2 0.354760 0.735749 0.913842
O O3 0.306565 0.000000 0.929199
O O4 0.324243 0.803563 0.000000
O O5 0.191362 0.500000 0.220385
O O6 0.250000 0.250000 0.223951
O O7 0.153235 0.254841 0.181612
O O8 0.160639 0.272082 0.276690
O O9 0.500000 0.500000 0.852836
O O10 0.500000 0.297291 0.785326
O O11 0.557274 0.258058 0.864217
O O12 0.553599 0.190709 0.286418
O O13 0.500000 0.000000 0.230284
O O14 0.090175 0.500000 0.500000
O O15 0.087689 0.753679 0.547939
O O16 0.000000 0.671513 0.500000
O O17 0.125274 0.000000 0.141726
O O18 0.500000 0.265235 0.608074
O O19 0.564516 0.500000 0.592744
O O20 0.607478 0.273335 0.639217
O O21 0.122656 0.500000 0.328728
#
# Coordination Sequence:
#
# PCOD8266759 Si02
#       8
#    16  16   8   8   8  16  16  16
#     4  10  21  38  60  84 108 137 176 221 267 313
#     4  11  23  38  55  77 106 140 178 220 264 311
#     4  10  22  36  53  79 109 142 178 214 257 310
#     4  10  18  32  52  74 102 136 176 219 256 306
#     4   9  17  29  45  65  96 137 176 213 255 306
#     4  11  22  37  57  81 110 142 176 215 261 314
#     4  10  19  29  45  71 103 136 171 213 260 308
#     4  10  20  33  51  74 102 137 175 212 258 312
#
# _framework density 17.772832999999999
#
# number of rings (size 3 to 8) (size 9 to 14) (size 15 to 20)
#    0.000    1.769    2.308    2.538    0.000    4.923 
#    0.000    0.385    0.000    2.308    0.000    0.538 
#    0.000    0.000    0.000    0.000    0.000    0.000 
#
# Total GULP energy -644738.422541 kJ/mol
# GULP energy per Si atom -12398.815818 kJ/mol
# Density = 1.773238 g / cm^3
# Si number density = 17.772833 Si / 1000 Ang^3
#
#
#
# Elastic Constant Matrix: (Units=GPa)
#
#
# Indices 1 2 3 4 5 6 
#
# 1 122.9041 45.7670 63.0125 0.0000 0.0000 0.0000
# 2 45.7670 77.8278 49.4441 0.0000 0.0000 0.0000
# 3 63.0125 49.4441 115.0672 0.0000 0.0000 0.0000
# 4 0.0000 0.0000 0.0000 34.0375 0.0000 0.0000
# 5 0.0000 0.0000 0.0000 0.0000 22.6264 0.0000
# 6 0.0000 0.0000 0.0000 0.0000 0.0000 19.8309
#
#
#
# Elastic Compliance Matrix: (Units=1/GPa)
#
#
# Indices 1 2 3 4 5 6 
#
# 1 0.012162 -0.004017 -0.004934 0.000000 0.000000 0.000000
# 2 -0.004017 0.019001 -0.005964 0.000000 0.000000 0.000000
# 3 -0.004934 -0.005964 0.013955 0.000000 0.000000 0.000000
# 4 0.000000 0.000000 0.000000 0.029379 0.000000 0.000000
# 5 0.000000 0.000000 0.000000 0.000000 0.044196 0.000000
# 6 0.000000 0.000000 0.000000 0.000000 0.000000 0.050426
#
#
# Mechanical properties :
#
#
# Convention : Reuss Voigt Hill
#
# Bulk Modulus (GPa) = 65.41754 70.24957 67.83355
# Shear Modulus (GPa) = 24.50420 25.80400 25.15410
#
# Velocity S-wave (km/s) = 3.71717 3.81449 3.76614
# Velocity P-wave (km/s) = 7.43711 7.68197 7.56053
#
# Compressibility (1/GPa) = 0.01528642
#
# Stress axis : x y z
#
# Youngs Moduli (GPa) = 82.22345 52.62991 71.65730
#
# Poissons Ratio (x) = 0.21144 0.35354
# Poissons Ratio (y) = 0.33033 0.42740
# Poissons Ratio (z) = 0.40567 0.31391
#
# Static dielectric constant tensor:
#      x y z
#    x 3.204770 0.000000 0.000000 
#    y 0.000000 3.400270 0.000000 
#    z 0.000000 0.000000 3.336060 
# 
# 
# High freq. dielectric constant tensor:
#      x y z
#    x 1.665540 0.000000 0.000000 
#    y 0.000000 1.696740 0.000000 
#    z 0.000000 0.000000 1.689640 
# 
# From -- ./inp_files/75829.got.cif
#   From: 2010.03.12/outbox.cif.g09.slc.cpg/sg65_38_cif.got.tgz:75829.got - 2010.04.10 20:52:16.
