data_PCOD8266745
_publ_section_title
;
Structure prediction by ZEFSAII (Michael W. Deem and Ramdas Pophale) SiO2 
 PCOD8266745
Probable space group: C M M M
;
_chemical_formula_sum "Si O2"
_cell_formula_units_Z 88
_cell_length_a 20.173321
_cell_length_b 30.039682
_cell_length_c 8.684410
_cell_angle_alpha 90.000000
_cell_angle_beta 90.000000
_cell_angle_gamma 90.000000
_cell_volume 5262.753743
_symmetry_space_group_name_H-M "C M M M"
_symmetry_group_IT_number 65
_symmetry_cell_setting 'orthorhombic'
loop_
_space_group_symop_operation_xyz
x,y,z
-x,-y,z
x,-y,-z
-x,y,-z
-x,-y,-z
x,y,-z
-x,y,z
x,-y,z
1/2+x,1/2+y,z
1/2-x,1/2-y,z
1/2+x,1/2-y,-z
1/2-x,1/2+y,-z
1/2-x,1/2-y,-z
1/2+x,1/2+y,-z
1/2-x,1/2+y,z
1/2+x,1/2-y,z
loop_
_atom_site_type_symbol
_atom_site_label
_atom_site_fract_x
_atom_site_fract_y
_atom_site_fract_z
Si Si1 0.196870 0.368947 0.321834
Si Si2 0.926212 0.329106 0.826123
Si Si3 0.070879 0.776136 0.175599
Si Si4 0.286739 0.705454 0.183556
Si Si5 0.000000 0.552943 0.324674
Si Si6 0.637391 0.949658 0.182000
O O1 0.214554 0.371091 0.500000
O O2 0.124420 0.348300 0.297152
O O3 0.251554 0.339340 0.237350
O O4 0.195795 0.418939 0.252018
O O5 0.922936 0.276495 0.816507
O O6 0.000000 0.346256 0.784550
O O7 0.906441 0.344209 0.000000
O O8 0.137731 0.796360 0.251201
O O9 0.000000 0.790803 0.254371
O O10 0.068006 0.791977 0.000000
O O11 0.250000 0.750000 0.246480
O O12 0.287520 0.707289 0.000000
O O13 0.933774 0.569759 0.237855
O O14 0.000000 0.500000 0.318640
O O15 0.000000 0.570425 0.500000
O O16 0.648613 0.000000 0.241761
O O17 0.639559 0.947666 0.000000
#
# Coordination Sequence:
#
# PCOD8266745 Si02
#       6
#    16  16  16  16   8  16
#     4  12  24  33  46  69 100 131 161 203 253 300
#     4   9  17  31  49  67  90 124 169 210 242 285
#     4   8  14  27  49  72  92 121 163 208 245 278
#     4  10  18  32  52  71  96 130 168 205 242 287
#     4   9  17  31  51  73  97 123 153 199 257 299
#     4  10  21  37  54  69  88 121 167 209 244 290
#
# _framework density 16.721284000000001
#
# number of rings (size 3 to 8) (size 9 to 14) (size 15 to 20)
#    0.000    2.273    1.818    3.545    1.273    2.909 
#    0.000    0.000    0.000    0.545    0.000    0.000 
#    0.000    0.727    0.000    8.364    0.000    2.364 
#
# Total GULP energy -545297.556935 kJ/mol
# GULP energy per Si atom -12393.126294 kJ/mol
# Density = 1.668323 g / cm^3
# Si number density = 16.721284 Si / 1000 Ang^3
#
#
#
# Elastic Constant Matrix: (Units=GPa)
#
#
# Indices 1 2 3 4 5 6 
#
# 1 125.5175 54.0692 17.4421 0.0000 0.0000 0.0000
# 2 54.0692 68.2783 6.7185 0.0000 0.0000 0.0000
# 3 17.4421 6.7185 36.1253 0.0000 0.0000 0.0000
# 4 0.0000 0.0000 0.0000 14.5506 0.0000 0.0000
# 5 0.0000 0.0000 0.0000 0.0000 12.0603 0.0000
# 6 0.0000 0.0000 0.0000 0.0000 0.0000 29.8443
#
#
#
# Elastic Compliance Matrix: (Units=1/GPa)
#
#
# Indices 1 2 3 4 5 6 
#
# 1 0.012730 -0.009652 -0.004351 0.000000 0.000000 0.000000
# 2 -0.009652 0.022238 0.000525 0.000000 0.000000 0.000000
# 3 -0.004351 0.000525 0.029685 0.000000 0.000000 0.000000
# 4 0.000000 0.000000 0.000000 0.068726 0.000000 0.000000
# 5 0.000000 0.000000 0.000000 0.000000 0.082916 0.000000
# 6 0.000000 0.000000 0.000000 0.000000 0.000000 0.033507
#
#
# Mechanical properties :
#
#
# Convention : Reuss Voigt Hill
#
# Bulk Modulus (GPa) = 26.52898 42.93120 34.73009
# Shear Modulus (GPa) = 17.28167 21.40380 19.34274
#
# Velocity S-wave (km/s) = 3.21832 3.58164 3.40483
# Velocity P-wave (km/s) = 5.45068 6.54481 6.02264
#
# Compressibility (1/GPa) = 0.03769462
#
# Stress axis : x y z
#
# Youngs Moduli (GPa) = 78.55713 44.96810 33.68751
#
# Poissons Ratio (x) = 0.43405 0.14657
# Poissons Ratio (y) = 0.75826 -0.01767
# Poissons Ratio (z) = 0.34180 -0.02359
#
# Static dielectric constant tensor:
#      x y z
#    x 3.384810 0.000000 0.000000 
#    y 0.000000 3.139180 0.000000 
#    z 0.000000 0.000000 2.915680 
# 
# 
# High freq. dielectric constant tensor:
#      x y z
#    x 1.628410 0.000000 0.000000 
#    y 0.000000 1.626480 0.000000 
#    z 0.000000 0.000000 1.624300 
# 
# From -- ./inp_files/12625.got.cif
#   From: 2010.03.12/outbox.cif.g09.slc.cpg/sg65_7_cif.got.tgz:12625.got - 2010.04.10 20:52:16.
