data_PCOD8266966
_publ_section_title
;
Structure prediction by ZEFSAII (Michael W. Deem and Ramdas Pophale) SiO2 
 PCOD8266966
Probable space group: C M M M
;
_chemical_formula_sum "Si O2"
_cell_formula_units_Z 68
_cell_length_a 25.073288
_cell_length_b 14.692816
_cell_length_c 11.377699
_cell_angle_alpha 90.000000
_cell_angle_beta 90.000000
_cell_angle_gamma 90.000000
_cell_volume 4191.512535
_symmetry_space_group_name_H-M "C M M M"
_symmetry_group_IT_number 65
_symmetry_cell_setting 'orthorhombic'
loop_
_space_group_symop_operation_xyz
x,y,z
-x,-y,z
x,-y,-z
-x,y,-z
-x,-y,-z
x,y,-z
-x,y,z
x,-y,z
1/2+x,1/2+y,z
1/2-x,1/2-y,z
1/2+x,1/2-y,-z
1/2-x,1/2+y,-z
1/2-x,1/2-y,-z
1/2+x,1/2+y,-z
1/2-x,1/2+y,z
1/2+x,1/2-y,z
loop_
_atom_site_type_symbol
_atom_site_label
_atom_site_fract_x
_atom_site_fract_y
_atom_site_fract_z
Si Si1 0.806010 0.308517 0.242419
Si Si2 0.279969 0.000000 0.861430
Si Si3 0.000000 0.896650 0.862896
Si Si4 0.790818 0.000000 0.500000
Si Si5 0.212395 0.333152 0.500000
Si Si6 0.833690 0.000000 0.250761
Si Si7 0.886670 0.170408 0.138478
O O1 0.750000 0.250000 0.227234
O O2 0.807023 0.406202 0.179219
O O3 0.821194 0.327759 0.379116
O O4 0.856698 0.259519 0.184523
O O5 0.223627 0.000000 0.802927
O O6 0.275776 0.000000 0.000000
O O7 0.949371 0.833518 0.829186
O O8 0.000000 0.000000 0.805556
O O9 0.000000 0.914818 0.000000
O O10 0.751132 0.917257 0.500000
O O11 0.830576 0.000000 0.609165
O O12 0.250000 0.250000 0.500000
O O13 0.863502 0.087623 0.209152
O O14 0.876429 0.159569 0.000000
#
# Coordination Sequence:
#
# PCOD8266966 Si02
#       7
#    16   8   8   4   8   8  16
#     4  11  21  33  51  76 105 144 175 219 261 317
#     4  12  22  32  47  78 114 137 165 213 270 319
#     4   9  18  34  56  77 105 140 177 216 257 322
#     4  12  20  36  50  71 106 147 186 206 254 314
#     4  10  18  34  48  66 101 141 187 206 246 309
#     4  12  20  31  53  77 106 141 172 219 253 313
#     4  11  21  34  53  81 109 139 176 217 271 318
#
# _framework density 16.223261000000001
#
# number of rings (size 3 to 8) (size 9 to 14) (size 15 to 20)
#    0.000    1.059    5.882    3.176    0.000    0.941 
#    0.000    0.000    0.000    4.235    0.000    3.294 
#    0.000    2.824    0.000    0.000    0.000    0.000 
#
# Total GULP energy -421197.898765 kJ/mol
# GULP energy per Si atom -12388.173493 kJ/mol
# Density = 1.618634 g / cm^3
# Si number density = 16.223261 Si / 1000 Ang^3
#
#
#
# Elastic Constant Matrix: (Units=GPa)
#
#
# Indices 1 2 3 4 5 6 
#
# 1 113.5039 55.7365 44.5042 0.0000 0.0000 0.0000
# 2 55.7365 127.1210 43.6729 0.0000 0.0000 0.0000
# 3 44.5042 43.6729 138.6140 0.0000 0.0000 0.0000
# 4 0.0000 0.0000 0.0000 30.0845 0.0000 0.0000
# 5 0.0000 0.0000 0.0000 0.0000 25.7610 0.0000
# 6 0.0000 0.0000 0.0000 0.0000 0.0000 27.9840
#
#
#
# Elastic Compliance Matrix: (Units=1/GPa)
#
#
# Indices 1 2 3 4 5 6 
#
# 1 0.011924 -0.004388 -0.002446 0.000000 0.000000 0.000000
# 2 -0.004388 0.010436 -0.001879 0.000000 0.000000 0.000000
# 3 -0.002446 -0.001879 0.008592 0.000000 0.000000 0.000000
# 4 0.000000 0.000000 0.000000 0.033240 0.000000 0.000000
# 5 0.000000 0.000000 0.000000 0.000000 0.038818 0.000000
# 6 0.000000 0.000000 0.000000 0.000000 0.000000 0.035735
#
#
# Mechanical properties :
#
#
# Convention : Reuss Voigt Hill
#
# Bulk Modulus (GPa) = 73.93362 74.11847 74.02604
# Shear Modulus (GPa) = 31.11798 32.45427 31.78613
#
# Velocity S-wave (km/s) = 4.38437 4.47752 4.43119
# Velocity P-wave (km/s) = 8.44404 8.51567 8.47993
#
# Compressibility (1/GPa) = 0.01352565
#
# Stress axis : x y z
#
# Youngs Moduli (GPa) = 83.86503 95.82237 116.39167
#
# Poissons Ratio (x) = 0.42045 0.28468
# Poissons Ratio (y) = 0.36798 0.21873
# Poissons Ratio (z) = 0.20513 0.18008
#
# Static dielectric constant tensor:
#      x y z
#    x -0.214440 0.000000 0.000000 
#    y 0.000000 3.225540 0.000000 
#    z 0.000000 0.000000 3.454390 
# 
# 
# High freq. dielectric constant tensor:
#      x y z
#    x 1.591600 0.000000 0.000000 
#    y 0.000000 1.635860 0.000000 
#    z 0.000000 0.000000 1.632740 
# 
# From -- ./inp_files/30367.got.cif
#   From: 2010.03.12/outbox.cif.g09.slc.cpg/sg65_16_cif.got.tgz:30367.got - 2010.04.10 20:52:16.
