data_PCOD8266556
_publ_section_title
;
Structure prediction by ZEFSAII (Michael W. Deem and Ramdas Pophale) SiO2 
 PCOD8266556
Probable space group: C M M M
;
_chemical_formula_sum "Si O2"
_cell_formula_units_Z 104
_cell_length_a 29.561483
_cell_length_b 9.153728
_cell_length_c 23.107429
_cell_angle_alpha 90.000000
_cell_angle_beta 90.000000
_cell_angle_gamma 90.000000
_cell_volume 6252.818865
_symmetry_space_group_name_H-M "C M M M"
_symmetry_group_IT_number 65
_symmetry_cell_setting 'orthorhombic'
loop_
_space_group_symop_operation_xyz
x,y,z
-x,-y,z
x,-y,-z
-x,y,-z
-x,-y,-z
x,y,-z
-x,y,z
x,-y,z
1/2+x,1/2+y,z
1/2-x,1/2-y,z
1/2+x,1/2-y,-z
1/2-x,1/2+y,-z
1/2-x,1/2-y,-z
1/2+x,1/2+y,-z
1/2-x,1/2+y,z
1/2+x,1/2-y,z
loop_
_atom_site_type_symbol
_atom_site_label
_atom_site_fract_x
_atom_site_fract_y
_atom_site_fract_z
Si Si1 0.393640 0.673460 0.102194
Si Si2 0.294531 0.669848 0.067027
Si Si3 0.207972 0.337544 0.431482
Si Si4 0.053215 0.327136 0.000000
Si Si5 0.550596 0.326976 0.788561
Si Si6 0.381593 0.327775 0.565766
Si Si7 0.449799 0.673554 0.660859
O O1 0.398702 0.500000 0.091359
O O2 0.340694 0.718955 0.099274
O O3 0.412775 0.725053 0.164393
O O4 0.423545 0.757402 0.055725
O O5 0.285746 0.500000 0.075866
O O6 0.250000 0.750000 0.092586
O O7 0.301172 0.711044 0.000000
O O8 0.213157 0.347069 0.500000
O O9 0.206367 0.500000 0.404770
O O10 0.250000 0.250000 0.404316
O O11 0.163713 0.249960 0.413922
O O12 0.061372 0.500000 0.000000
O O13 0.000000 0.288961 0.000000
O O14 0.500000 0.265734 0.802504
O O15 0.547787 0.500000 0.788946
O O16 0.566529 0.273707 0.724659
O O17 0.395217 0.286546 0.500000
O O18 0.374207 0.500000 0.571774
O O19 0.419112 0.264508 0.609283
O O20 0.500000 0.733660 0.649597
O O21 0.449446 0.500000 0.658273
#
# Coordination Sequence:
#
# PCOD8266556 Si02
#       7
#    16  16  16   8  16  16  16
#     4  10  18  31  50  70  89 115 154 191 222 261
#     4   9  17  29  44  65  90 114 144 181 218 260
#     4   9  16  26  41  61  86 114 144 180 221 268
#     4  11  23  33  42  65 100 127 144 173 224 275
#     4   8  14  25  44  68  89 113 148 189 227 261
#     4   9  16  25  40  64  92 120 149 183 226 272
#     4   8  14  25  41  64  92 118 150 190 225 260
#
# _framework density 16.632497999999998
#
# number of rings (size 3 to 8) (size 9 to 14) (size 15 to 20)
#    0.000    3.000    0.769    2.077    0.000    4.000 
#    0.000    1.538    0.000    2.308    0.000    6.462 
#    0.000    0.000    0.000    0.000    0.000    0.000 
#
# Total GULP energy -644453.596730 kJ/mol
# GULP energy per Si atom -12393.338399 kJ/mol
# Density = 1.659464 g / cm^3
# Si number density = 16.632498 Si / 1000 Ang^3
#
#
#
# Elastic Constant Matrix: (Units=GPa)
#
#
# Indices 1 2 3 4 5 6 
#
# 1 160.1155 43.4330 88.3234 0.0000 0.0000 0.0000
# 2 43.4330 39.6211 29.5812 0.0000 0.0000 0.0000
# 3 88.3234 29.5812 107.0920 0.0000 0.0000 0.0000
# 4 0.0000 0.0000 0.0000 6.2244 0.0000 0.0000
# 5 0.0000 0.0000 0.0000 0.0000 14.3273 0.0000
# 6 0.0000 0.0000 0.0000 0.0000 0.0000 22.8760
#
#
#
# Elastic Compliance Matrix: (Units=1/GPa)
#
#
# Indices 1 2 3 4 5 6 
#
# 1 0.013201 -0.007991 -0.008681 0.000000 0.000000 0.000000
# 2 -0.007991 0.036633 -0.003529 0.000000 0.000000 0.000000
# 3 -0.008681 -0.003529 0.017472 0.000000 0.000000 0.000000
# 4 0.000000 0.000000 0.000000 0.160659 0.000000 0.000000
# 5 0.000000 0.000000 0.000000 0.000000 0.069797 0.000000
# 6 0.000000 0.000000 0.000000 0.000000 0.000000 0.043714
#
#
# Mechanical properties :
#
#
# Convention : Reuss Voigt Hill
#
# Bulk Modulus (GPa) = 37.16593 69.94487 53.55540
# Shear Modulus (GPa) = 12.79283 18.38495 15.58889
#
# Velocity S-wave (km/s) = 2.77636 3.32831 3.06478
# Velocity P-wave (km/s) = 5.71589 7.54418 6.69276
#
# Compressibility (1/GPa) = 0.02690636
#
# Stress axis : x y z
#
# Youngs Moduli (GPa) = 75.74929 27.29791 57.23528
#
# Poissons Ratio (x) = 0.21813 0.49684
# Poissons Ratio (y) = 0.60528 0.20196
# Poissons Ratio (z) = 0.65755 0.09632
#
# Static dielectric constant tensor:
#      x y z
#    x 3.363330 0.000000 0.000000 
#    y 0.000000 2.892770 0.000000 
#    z 0.000000 0.000000 3.219730 
# 
# 
# High freq. dielectric constant tensor:
#      x y z
#    x 1.648100 0.000000 0.000000 
#    y 0.000000 1.610640 0.000000 
#    z 0.000000 0.000000 1.615860 
# 
# From -- ./inp_files/72154.got.cif
#   From: 2010.03.12/outbox.cif.g09.slc.cpg/sg65_37_cif.got.tgz:72154.got - 2010.04.10 20:52:16.
