data_PCOD8266757
_publ_section_title
;
Structure prediction by ZEFSAII (Michael W. Deem and Ramdas Pophale) SiO2 
 PCOD8266757
Probable space group: C M M M
;
_chemical_formula_sum "Si O2"
_cell_formula_units_Z 80
_cell_length_a 24.976230
_cell_length_b 8.780702
_cell_length_c 20.472598
_cell_angle_alpha 90.000000
_cell_angle_beta 90.000000
_cell_angle_gamma 90.000000
_cell_volume 4489.821570
_symmetry_space_group_name_H-M "C M M M"
_symmetry_group_IT_number 65
_symmetry_cell_setting 'orthorhombic'
loop_
_space_group_symop_operation_xyz
x,y,z
-x,-y,z
x,-y,-z
-x,y,-z
-x,-y,-z
x,y,-z
-x,y,z
x,-y,z
1/2+x,1/2+y,z
1/2-x,1/2-y,z
1/2+x,1/2-y,-z
1/2-x,1/2+y,-z
1/2-x,1/2-y,-z
1/2+x,1/2+y,-z
1/2-x,1/2+y,z
1/2+x,1/2-y,z
loop_
_atom_site_type_symbol
_atom_site_label
_atom_site_fract_x
_atom_site_fract_y
_atom_site_fract_z
Si Si1 0.000000 0.819221 0.075329
Si Si2 0.091136 0.178636 0.824671
Si Si3 0.936331 0.829236 0.571391
Si Si4 0.061388 0.333944 0.696538
Si Si5 0.807890 0.679546 0.869669
Si Si6 0.691254 0.318705 0.000000
O O1 0.947272 0.764953 0.115575
O O2 0.000000 0.000000 0.072986
O O3 0.000000 0.755528 0.000000
O O4 0.064024 0.214483 0.755812
O O5 0.147006 0.272452 0.818355
O O6 0.102725 0.000000 0.831285
O O7 0.919745 0.762029 0.500000
O O8 0.910720 0.730997 0.630579
O O9 0.000000 0.833464 0.577151
O O10 0.913725 0.000000 0.578019
O O11 0.086703 0.500000 0.714007
O O12 0.000000 0.357639 0.679452
O O13 0.800583 0.500000 0.876510
O O14 0.750000 0.750000 0.852503
O O15 0.835145 0.752975 0.934810
O O16 0.750000 0.250000 0.000000
O O17 0.690299 0.500000 0.000000
#
# Coordination Sequence:
#
# PCOD8266757 Si02
#       6
#     8  16  16  16  16   8
#     4   9  20  36  53  75  98 129 173 216 256 303
#     4  11  21  35  55  75  99 135 173 214 259 308
#     4   8  14  25  42  64  91 125 165 205 244 292
#     4  10  19  30  45  67  99 134 169 208 248 298
#     4  11  22  37  54  76 101 127 162 210 262 312
#     4  10  18  32  52  73  94 121 154 196 248 305
#
# _framework density 17.818079999999998
#
# number of rings (size 3 to 8) (size 9 to 14) (size 15 to 20)
#    0.000    2.100    1.000    5.700    1.400    1.200 
#    0.000    2.000    0.000    2.400    0.000    0.000 
#    0.000    0.800    0.000    3.000    0.000    4.600 
#
# Total GULP energy -495554.772618 kJ/mol
# GULP energy per Si atom -12388.869315 kJ/mol
# Density = 1.777752 g / cm^3
# Si number density = 17.818080 Si / 1000 Ang^3
#
#
#
# Elastic Constant Matrix: (Units=GPa)
#
#
# Indices 1 2 3 4 5 6 
#
# 1 66.1664 30.0021 24.4118 0.0000 0.0000 0.0000
# 2 30.0021 113.1115 35.0769 0.0000 0.0000 0.0000
# 3 24.4118 35.0769 121.3386 0.0000 0.0000 0.0000
# 4 0.0000 0.0000 0.0000 27.4392 0.0000 0.0000
# 5 0.0000 0.0000 0.0000 0.0000 6.3025 0.0000
# 6 0.0000 0.0000 0.0000 0.0000 0.0000 20.7011
#
#
#
# Elastic Compliance Matrix: (Units=1/GPa)
#
#
# Indices 1 2 3 4 5 6 
#
# 1 0.017812 -0.003969 -0.002436 0.000000 0.000000 0.000000
# 2 -0.003969 0.010596 -0.002265 0.000000 0.000000 0.000000
# 3 -0.002436 -0.002265 0.009386 0.000000 0.000000 0.000000
# 4 0.000000 0.000000 0.000000 0.036444 0.000000 0.000000
# 5 0.000000 0.000000 0.000000 0.000000 0.158667 0.000000
# 6 0.000000 0.000000 0.000000 0.000000 0.000000 0.048307
#
#
# Mechanical properties :
#
#
# Convention : Reuss Voigt Hill
#
# Bulk Modulus (GPa) = 48.88908 53.28865 51.08887
# Shear Modulus (GPa) = 16.37361 24.96360 20.66860
#
# Velocity S-wave (km/s) = 3.03468 3.74709 3.40954
# Velocity P-wave (km/s) = 6.30686 6.97803 6.65092
#
# Compressibility (1/GPa) = 0.02045446
#
# Stress axis : x y z
#
# Youngs Moduli (GPa) = 56.14220 94.37654 106.53968
#
# Poissons Ratio (x) = 0.37458 0.25955
# Poissons Ratio (y) = 0.22283 0.24127
# Poissons Ratio (z) = 0.13677 0.21372
#
# Static dielectric constant tensor:
#      x y z
#    x 2.909350 0.000000 0.000000 
#    y 0.000000 3.424800 0.000000 
#    z 0.000000 0.000000 3.883890 
# 
# 
# High freq. dielectric constant tensor:
#      x y z
#    x 1.637100 0.000000 0.000000 
#    y 0.000000 1.693060 0.000000 
#    z 0.000000 0.000000 1.689740 
# 
# From -- ./inp_files/65684.got.cif
#   From: 2010.03.12/outbox.cif.g09.slc.cpg/sg65_33_cif.got.tgz:65684.got - 2010.04.10 20:52:16.
