data_PCOD8266179
_publ_section_title
;
Structure prediction by ZEFSAII (Michael W. Deem and Ramdas Pophale) SiO2 
 PCOD8266179
Probable space group: C M M M
;
_chemical_formula_sum "Si O2"
_cell_formula_units_Z 72
_cell_length_a 7.999524
_cell_length_b 37.127134
_cell_length_c 15.706832
_cell_angle_alpha 90.000000
_cell_angle_beta 90.000000
_cell_angle_gamma 90.000000
_cell_volume 4664.919672
_symmetry_space_group_name_H-M "C M M M"
_symmetry_group_IT_number 65
_symmetry_cell_setting 'orthorhombic'
loop_
_space_group_symop_operation_xyz
x,y,z
-x,-y,z
x,-y,-z
-x,y,-z
-x,-y,-z
x,y,-z
-x,y,z
x,-y,z
1/2+x,1/2+y,z
1/2-x,1/2-y,z
1/2+x,1/2-y,-z
1/2-x,1/2+y,-z
1/2-x,1/2-y,-z
1/2+x,1/2+y,-z
1/2-x,1/2+y,z
1/2+x,1/2-y,z
loop_
_atom_site_type_symbol
_atom_site_label
_atom_site_fract_x
_atom_site_fract_y
_atom_site_fract_z
Si Si1 0.693450 0.410664 0.399330
Si Si2 0.196115 0.290844 0.500000
Si Si3 0.304633 0.790981 0.000000
Si Si4 0.194913 0.166045 0.662536
Si Si5 0.500000 0.959763 0.399109
Si Si6 0.194208 0.208820 0.820540
O O1 0.704072 0.404055 0.500000
O O2 0.500000 0.421014 0.375021
O O3 0.759464 0.374423 0.353319
O O4 0.826878 0.440771 0.369004
O O5 0.250000 0.250000 0.500000
O O6 0.270212 0.308860 0.583084
O O7 0.000000 0.295430 0.500000
O O8 0.250000 0.750000 0.000000
O O9 0.236116 0.808651 0.912920
O O10 0.500000 0.794480 0.000000
O O11 0.278518 0.184066 0.746939
O O12 0.000000 0.162941 0.676207
O O13 0.500000 0.961135 0.500000
O O14 0.500000 0.000000 0.360463
O O15 0.250000 0.250000 0.812958
O O16 0.000000 0.208517 0.805690
#
# Coordination Sequence:
#
# PCOD8266179 Si02
#       6
#    16   8   8  16   8  16
#     4   9  17  30  47  65  90 122 153 185 230 274
#     4  12  24  32  44  60  84 119 156 197 235 265
#     4  10  18  30  46  62  82 108 142 187 236 283
#     4  10  20  33  47  63  87 117 153 194 229 274
#     4   9  18  30  46  68  92 115 155 195 223 274
#     4  10  19  31  46  63  84 112 150 193 236 275
#
# _framework density 15.434348999999999
#
# number of rings (size 3 to 8) (size 9 to 14) (size 15 to 20)
#    0.000    2.111    1.111    4.667    1.556    4.000 
#    0.000    2.222    0.000    0.000    0.000    0.000 
#    0.000    0.000    0.000    2.000    0.000   16.889 
#
# Total GULP energy -446110.862151 kJ/mol
# GULP energy per Si atom -12391.968393 kJ/mol
# Density = 1.539922 g / cm^3
# Si number density = 15.434349 Si / 1000 Ang^3
#
#
#
# Elastic Constant Matrix: (Units=GPa)
#
#
# Indices 1 2 3 4 5 6 
#
# 1 51.0097 39.1575 10.2121 0.0000 0.0000 0.0000
# 2 39.1575 112.8089 45.3789 0.0000 0.0000 0.0000
# 3 10.2121 45.3789 101.0218 0.0000 0.0000 0.0000
# 4 0.0000 0.0000 0.0000 7.0255 0.0000 0.0000
# 5 0.0000 0.0000 0.0000 0.0000 12.0522 0.0000
# 6 0.0000 0.0000 0.0000 0.0000 0.0000 23.0291
#
#
#
# Elastic Compliance Matrix: (Units=1/GPa)
#
#
# Indices 1 2 3 4 5 6 
#
# 1 0.026993 -0.010096 0.001807 0.000000 0.000000 0.000000
# 2 -0.010096 0.014596 -0.005536 0.000000 0.000000 0.000000
# 3 0.001807 -0.005536 0.012203 0.000000 0.000000 0.000000
# 4 0.000000 0.000000 0.000000 0.142339 0.000000 0.000000
# 5 0.000000 0.000000 0.000000 0.000000 0.082972 0.000000
# 6 0.000000 0.000000 0.000000 0.000000 0.000000 0.043423
#
#
# Mechanical properties :
#
#
# Convention : Reuss Voigt Hill
#
# Bulk Modulus (GPa) = 38.25470 50.48194 44.36832
# Shear Modulus (GPa) = 13.93181 19.76082 16.84631
#
# Velocity S-wave (km/s) = 3.00767 3.58203 3.30734
# Velocity P-wave (km/s) = 6.07459 7.06303 6.58738
#
# Compressibility (1/GPa) = 0.02614058
#
# Stress axis : x y z
#
# Youngs Moduli (GPa) = 37.04684 68.51181 81.94740
#
# Poissons Ratio (x) = 0.69172 -0.14805
# Poissons Ratio (y) = 0.37404 0.45365
# Poissons Ratio (z) = -0.06693 0.37927
#
# Static dielectric constant tensor:
#      x y z
#    x 3.098570 0.000000 0.000000 
#    y 0.000000 3.352070 0.000000 
#    z 0.000000 0.000000 3.198600 
# 
# 
# High freq. dielectric constant tensor:
#      x y z
#    x 1.606280 0.000000 0.000000 
#    y 0.000000 1.561740 0.000000 
#    z 0.000000 0.000000 1.571040 
# 
# From -- ./inp_files/37069.got.cif
#   From: 2010.03.12/outbox.cif.g09.slc.cpg/sg65_19_cif.got.tgz:37069.got - 2010.04.10 20:52:16.
