data_PCOD8266194
_publ_section_title
;
Structure prediction by ZEFSAII (Michael W. Deem and Ramdas Pophale) SiO2 
 PCOD8266194
Probable space group: C M M M
;
_chemical_formula_sum "Si O2"
_cell_formula_units_Z 88
_cell_length_a 27.719842
_cell_length_b 8.696182
_cell_length_c 21.570268
_cell_angle_alpha 90.000000
_cell_angle_beta 90.000000
_cell_angle_gamma 90.000000
_cell_volume 5199.659586
_symmetry_space_group_name_H-M "C M M M"
_symmetry_group_IT_number 65
_symmetry_cell_setting 'orthorhombic'
loop_
_space_group_symop_operation_xyz
x,y,z
-x,-y,z
x,-y,-z
-x,y,-z
-x,-y,-z
x,y,-z
-x,y,z
x,-y,z
1/2+x,1/2+y,z
1/2-x,1/2-y,z
1/2+x,1/2-y,-z
1/2-x,1/2+y,-z
1/2-x,1/2-y,-z
1/2+x,1/2+y,-z
1/2-x,1/2+y,z
1/2+x,1/2-y,z
loop_
_atom_site_type_symbol
_atom_site_label
_atom_site_fract_x
_atom_site_fract_y
_atom_site_fract_z
Si Si1 0.105651 0.683431 0.931555
Si Si2 0.199166 0.320347 0.864152
Si Si3 0.303340 0.817084 0.500000
Si Si4 0.353697 0.819291 0.739828
Si Si5 0.802886 0.818770 0.374707
Si Si6 0.446787 0.817200 0.811714
O O1 0.105162 0.500000 0.931895
O O2 0.158864 0.741845 0.911910
O O3 0.067500 0.744274 0.880422
O O4 0.092716 0.748076 0.000000
O O5 0.203946 0.500000 0.871209
O O6 0.250000 0.250000 0.882040
O O7 0.183835 0.278230 0.794189
O O8 0.250000 0.750000 0.500000
O O9 0.327304 0.752686 0.563038
O O10 0.303990 0.000000 0.500000
O O11 0.339254 0.720925 0.680408
O O12 0.407440 0.765739 0.760669
O O13 0.352342 0.000000 0.724056
O O14 0.750000 0.750000 0.361170
O O15 0.797482 0.000000 0.382305
O O16 0.500000 0.753294 0.794311
O O17 0.446797 0.000000 0.814072
#
# Coordination Sequence:
#
# PCOD8266194 Si02
#       6
#    16  16   8  16  16  16
#     4   8  14  24  37  56  83 111 140 178 225 272
#     4   9  17  27  39  56  81 113 146 181 219 261
#     4  10  18  30  46  66  95 128 157 182 212 249
#     4   9  17  29  43  62  88 116 148 185 225 268
#     4  11  20  30  45  67  95 125 156 185 215 252
#     4   8  14  25  42  63  85 110 143 185 230 274
#
# _framework density 16.924185000000001
#
# number of rings (size 3 to 8) (size 9 to 14) (size 15 to 20)
#    0.000    2.909    0.000    6.273    0.000    2.909 
#    0.000    1.818    0.000    0.545    0.000    0.636 
#    0.000    5.091    0.000    8.000    0.000    8.000 
#
# Total GULP energy -545272.847208 kJ/mol
# GULP energy per Si atom -12392.564709 kJ/mol
# Density = 1.688567 g / cm^3
# Si number density = 16.924185 Si / 1000 Ang^3
#
#
#
# Elastic Constant Matrix: (Units=GPa)
#
#
# Indices 1 2 3 4 5 6 
#
# 1 106.4749 19.8529 45.4903 0.0000 0.0000 0.0000
# 2 19.8529 60.7678 37.8748 0.0000 0.0000 0.0000
# 3 45.4903 37.8748 121.0596 0.0000 0.0000 0.0000
# 4 0.0000 0.0000 0.0000 16.5828 0.0000 0.0000
# 5 0.0000 0.0000 0.0000 0.0000 19.6661 0.0000
# 6 0.0000 0.0000 0.0000 0.0000 0.0000 15.0288
#
#
#
# Elastic Compliance Matrix: (Units=1/GPa)
#
#
# Indices 1 2 3 4 5 6 
#
# 1 0.011269 -0.001295 -0.003830 0.000000 0.000000 0.000000
# 2 -0.001295 0.020591 -0.005956 0.000000 0.000000 0.000000
# 3 -0.003830 -0.005956 0.011563 0.000000 0.000000 0.000000
# 4 0.000000 0.000000 0.000000 0.060303 0.000000 0.000000
# 5 0.000000 0.000000 0.000000 0.000000 0.050849 0.000000
# 6 0.000000 0.000000 0.000000 0.000000 0.000000 0.066539
#
#
# Mechanical properties :
#
#
# Convention : Reuss Voigt Hill
#
# Bulk Modulus (GPa) = 47.02969 54.97094 51.00031
# Shear Modulus (GPa) = 19.97106 22.59449 21.28278
#
# Velocity S-wave (km/s) = 3.43888 3.65779 3.55002
# Velocity P-wave (km/s) = 6.60429 7.09862 6.85591
#
# Compressibility (1/GPa) = 0.02126316
#
# Stress axis : x y z
#
# Youngs Moduli (GPa) = 88.73528 48.56480 86.48501
#
# Poissons Ratio (x) = 0.06288 0.33120
# Poissons Ratio (y) = 0.11490 0.51507
# Poissons Ratio (z) = 0.33982 0.28923
#
# Static dielectric constant tensor:
#      x y z
#    x -1.820100 0.000000 0.000000 
#    y 0.000000 2.811770 0.000000 
#    z 0.000000 0.000000 3.550930 
# 
# 
# High freq. dielectric constant tensor:
#      x y z
#    x 1.629770 0.000000 0.000000 
#    y 0.000000 1.621020 0.000000 
#    z 0.000000 0.000000 1.655440 
# 
# From -- ./inp_files/65763.got.cif
#   From: 2010.03.12/outbox.cif.g09.slc.cpg/sg65_33_cif.got.tgz:65763.got - 2010.04.10 20:52:16.
