data_PCOD8266391
_publ_section_title
;
Structure prediction by ZEFSAII (Michael W. Deem and Ramdas Pophale) SiO2 
 PCOD8266391
Probable space group: C M M M
;
_chemical_formula_sum "Si O2"
_cell_formula_units_Z 104
_cell_length_a 22.225415
_cell_length_b 13.863439
_cell_length_c 18.372803
_cell_angle_alpha 90.000000
_cell_angle_beta 90.000000
_cell_angle_gamma 90.000000
_cell_volume 5661.040648
_symmetry_space_group_name_H-M "C M M M"
_symmetry_group_IT_number 65
_symmetry_cell_setting 'orthorhombic'
loop_
_space_group_symop_operation_xyz
x,y,z
-x,-y,z
x,-y,-z
-x,y,-z
-x,-y,-z
x,y,-z
-x,y,z
x,-y,z
1/2+x,1/2+y,z
1/2-x,1/2-y,z
1/2+x,1/2-y,-z
1/2-x,1/2+y,-z
1/2-x,1/2-y,-z
1/2+x,1/2+y,-z
1/2-x,1/2+y,z
1/2+x,1/2-y,z
loop_
_atom_site_type_symbol
_atom_site_label
_atom_site_fract_x
_atom_site_fract_y
_atom_site_fract_z
Si Si1 0.375434 0.324013 0.662634
Si Si2 0.067973 0.000000 0.414471
Si Si3 0.159156 0.199455 0.916850
Si Si4 0.752272 0.105106 0.289385
Si Si5 0.431215 0.612014 0.803191
Si Si6 0.716523 0.887373 0.131688
Si Si7 0.807743 0.680576 0.419509
O O1 0.392981 0.409339 0.608987
O O2 0.308947 0.326294 0.698428
O O3 0.421614 0.323633 0.730049
O O4 0.369655 0.231181 0.609961
O O5 0.062005 0.000000 0.500000
O O6 0.000000 0.000000 0.380165
O O7 0.106277 0.155944 0.868714
O O8 0.218888 0.137822 0.901808
O O9 0.167742 0.314360 0.902567
O O10 0.140000 0.185308 0.000000
O O11 0.715917 0.136651 0.217772
O O12 0.708675 0.099968 0.359735
O O13 0.779776 0.000000 0.275139
O O14 0.500000 0.619704 0.826603
O O15 0.413073 0.500000 0.787496
O O16 0.700439 0.000000 0.115516
O O17 0.820909 0.636872 0.500000
O O18 0.750000 0.750000 0.425721
#
# Coordination Sequence:
#
# PCOD8266391 Si02
#       7
#    16   8  16  16  16  16  16
#     4  11  18  33  50  69  99 139 177 214 255 308
#     4  11  22  32  46  70  99 133 177 223 257 294
#     4  11  23  36  55  82 111 143 176 219 272 329
#     4  10  18  30  50  74 101 137 173 212 256 309
#     4  11  22  36  56  80 107 144 187 227 268 318
#     4  10  20  35  56  83 111 141 178 219 269 328
#     4   9  19  30  44  70 103 139 175 213 260 310
#
# _framework density 18.371179999999999
#
# number of rings (size 3 to 8) (size 9 to 14) (size 15 to 20)
#    0.000    1.615    3.077    3.231    4.308    3.385 
#    0.000    0.769    0.000    0.462    0.000    1.077 
#    0.000    1.846    0.000   12.462    0.000    0.000 
#
# Total GULP energy -644361.288695 kJ/mol
# GULP energy per Si atom -12391.563244 kJ/mol
# Density = 1.832937 g / cm^3
# Si number density = 18.371180 Si / 1000 Ang^3
#
#
#
# Elastic Constant Matrix: (Units=GPa)
#
#
# Indices 1 2 3 4 5 6 
#
# 1 69.6835 23.4739 28.7017 0.0000 0.0000 0.0000
# 2 23.4739 53.5270 16.7378 0.0000 0.0000 0.0000
# 3 28.7017 16.7378 125.2918 0.0000 0.0000 0.0000
# 4 0.0000 0.0000 0.0000 19.2584 0.0000 0.0000
# 5 0.0000 0.0000 0.0000 0.0000 7.9654 0.0000
# 6 0.0000 0.0000 0.0000 0.0000 0.0000 23.0850
#
#
#
# Elastic Compliance Matrix: (Units=1/GPa)
#
#
# Indices 1 2 3 4 5 6 
#
# 1 0.017989 -0.006888 -0.003201 0.000000 0.000000 0.000000
# 2 -0.006888 0.022134 -0.001379 0.000000 0.000000 0.000000
# 3 -0.003201 -0.001379 0.008899 0.000000 0.000000 0.000000
# 4 0.000000 0.000000 0.000000 0.051925 0.000000 0.000000
# 5 0.000000 0.000000 0.000000 0.000000 0.125543 0.000000
# 6 0.000000 0.000000 0.000000 0.000000 0.000000 0.043318
#
#
# Mechanical properties :
#
#
# Convention : Reuss Voigt Hill
#
# Bulk Modulus (GPa) = 38.33420 42.92546 40.62983
# Shear Modulus (GPa) = 16.58702 22.03435 19.31068
#
# Velocity S-wave (km/s) = 3.00806 3.46699 3.24565
# Velocity P-wave (km/s) = 5.74250 6.28037 6.01745
#
# Compressibility (1/GPa) = 0.02608637
#
# Stress axis : x y z
#
# Youngs Moduli (GPa) = 55.58841 45.17904 112.37448
#
# Poissons Ratio (x) = 0.31120 0.35969
# Poissons Ratio (y) = 0.38291 0.15496
# Poissons Ratio (z) = 0.17793 0.06230
#
# Static dielectric constant tensor:
#      x y z
#    x 3.156580 0.000000 0.000000 
#    y 0.000000 3.477990 0.000000 
#    z 0.000000 0.000000 3.743240 
# 
# 
# High freq. dielectric constant tensor:
#      x y z
#    x 1.669530 0.000000 0.000000 
#    y 0.000000 1.694160 0.000000 
#    z 0.000000 0.000000 1.736340 
# 
# From -- ./inp_files/56836.got.cif
#   From: 2010.03.12/outbox.cif.g09.slc.cpg/sg65_29_cif.got.tgz:56836.got - 2010.04.10 20:52:16.
