data_PCOD8266127
_publ_section_title
;
Structure prediction by ZEFSAII (Michael W. Deem and Ramdas Pophale) SiO2 
 PCOD8266127
Probable space group: C M M M
;
_chemical_formula_sum "Si O2"
_cell_formula_units_Z 96
_cell_length_a 18.451514
_cell_length_b 9.806830
_cell_length_c 29.239355
_cell_angle_alpha 90.000000
_cell_angle_beta 90.000000
_cell_angle_gamma 90.000000
_cell_volume 5290.886464
_symmetry_space_group_name_H-M "C M M M"
_symmetry_group_IT_number 65
_symmetry_cell_setting 'orthorhombic'
loop_
_space_group_symop_operation_xyz
x,y,z
-x,-y,z
x,-y,-z
-x,y,-z
-x,-y,-z
x,y,-z
-x,y,z
x,-y,z
1/2+x,1/2+y,z
1/2-x,1/2-y,z
1/2+x,1/2-y,-z
1/2-x,1/2+y,-z
1/2-x,1/2-y,-z
1/2+x,1/2+y,-z
1/2-x,1/2+y,z
1/2+x,1/2-y,z
loop_
_atom_site_type_symbol
_atom_site_label
_atom_site_fract_x
_atom_site_fract_y
_atom_site_fract_z
Si Si1 0.335785 0.249803 0.110129
Si Si2 0.415643 0.346107 0.553293
Si Si3 0.585077 0.155717 0.804677
Si Si4 0.579751 0.838940 0.296674
Si Si5 0.823495 0.334986 0.381596
Si Si6 0.835450 0.500000 0.050961
Si Si7 0.663306 0.500000 0.051188
O O1 0.250000 0.250000 0.117703
O O2 0.372569 0.250706 0.159776
O O3 0.364460 0.374277 0.080482
O O4 0.363880 0.126248 0.079651
O O5 0.398486 0.331157 0.500000
O O6 0.500000 0.323546 0.563298
O O7 0.392947 0.500000 0.569322
O O8 0.372759 0.224695 0.577997
O O9 0.500000 0.165835 0.813850
O O10 0.603576 0.211904 0.753759
O O11 0.612002 0.000000 0.810341
O O12 0.500000 0.778815 0.309481
O O13 0.638708 0.795164 0.333824
O O14 0.572474 0.000000 0.294480
O O15 0.813096 0.500000 0.387275
O O16 0.750000 0.250000 0.382944
O O17 0.749364 0.500000 0.046825
O O18 0.869206 0.500000 0.000000
O O19 0.629745 0.500000 0.000000
#
# Coordination Sequence:
#
# PCOD8266127 Si02
#       7
#    16  16  16  16  16   8   8
#     4  10  18  29  49  74  99 128 164 207 251 299
#     4   9  19  37  60  84 112 148 188 230 275 323
#     4   9  17  32  54  76  99 129 167 211 257 307
#     4   8  16  32  54  77  99 130 173 217 262 314
#     4  11  22  35  54  81 114 148 183 227 276 325
#     4   9  16  28  47  71  97 125 167 211 242 289
#     4   9  18  30  45  69  99 133 165 201 252 299
#
# _framework density 18.144407000000001
#
# number of rings (size 3 to 8) (size 9 to 14) (size 15 to 20)
#    0.000    2.667    0.833    3.000    0.000    4.333 
#    0.000    1.250    3.667    3.000    0.000    0.000 
#    0.000    0.000    0.000    0.000    0.000    0.000 
#
# Total GULP energy -594871.637062 kJ/mol
# GULP energy per Si atom -12393.159105 kJ/mol
# Density = 1.810311 g / cm^3
# Si number density = 18.144407 Si / 1000 Ang^3
#
#
#
# Elastic Constant Matrix: (Units=GPa)
#
#
# Indices 1 2 3 4 5 6 
#
# 1 65.1868 43.4876 59.9942 0.0000 0.0000 0.0000
# 2 43.4876 114.5315 62.6491 0.0000 0.0000 0.0000
# 3 59.9942 62.6491 136.0598 0.0000 0.0000 0.0000
# 4 0.0000 0.0000 0.0000 24.6229 0.0000 0.0000
# 5 0.0000 0.0000 0.0000 0.0000 8.7214 0.0000
# 6 0.0000 0.0000 0.0000 0.0000 0.0000 13.6055
#
#
#
# Elastic Compliance Matrix: (Units=1/GPa)
#
#
# Indices 1 2 3 4 5 6 
#
# 1 0.027936 -0.005172 -0.009937 0.000000 0.000000 0.000000
# 2 -0.005172 0.012628 -0.003534 0.000000 0.000000 0.000000
# 3 -0.009937 -0.003534 0.013359 0.000000 0.000000 0.000000
# 4 0.000000 0.000000 0.000000 0.040613 0.000000 0.000000
# 5 0.000000 0.000000 0.000000 0.000000 0.114660 0.000000
# 6 0.000000 0.000000 0.000000 0.000000 0.000000 0.073500
#
#
# Mechanical properties :
#
#
# Convention : Reuss Voigt Hill
#
# Bulk Modulus (GPa) = 60.10641 72.00441 66.05541
# Shear Modulus (GPa) = 15.35974 19.36644 17.36309
#
# Velocity S-wave (km/s) = 2.91267 3.27058 3.09680
# Velocity P-wave (km/s) = 6.67159 7.35068 7.01935
#
# Compressibility (1/GPa) = 0.01663716
#
# Stress axis : x y z
#
# Youngs Moduli (GPa) = 35.79621 79.18782 74.85866
#
# Poissons Ratio (x) = 0.40955 0.74384
# Poissons Ratio (y) = 0.18513 0.26457
# Poissons Ratio (z) = 0.35569 0.27987
#
# Static dielectric constant tensor:
#      x y z
#    x 3.140190 0.000000 0.000000 
#    y 0.000000 3.272420 0.000000 
#    z 0.000000 0.000000 3.571000 
# 
# 
# High freq. dielectric constant tensor:
#      x y z
#    x 1.678940 0.000000 0.000000 
#    y 0.000000 1.687260 0.000000 
#    z 0.000000 0.000000 1.717480 
# 
# From -- ./inp_files/75707.got.cif
#   From: 2010.03.12/outbox.cif.g09.slc.cpg/sg65_38_cif.got.tgz:75707.got - 2010.04.10 20:52:16.
