data_PCOD8266250
_publ_section_title
;
Structure prediction by ZEFSAII (Michael W. Deem and Ramdas Pophale) SiO2 
 PCOD8266250
Probable space group: C M M M
;
_chemical_formula_sum "Si O2"
_cell_formula_units_Z 80
_cell_length_a 8.980942
_cell_length_b 28.350570
_cell_length_c 18.285594
_cell_angle_alpha 90.000000
_cell_angle_beta 90.000000
_cell_angle_gamma 90.000000
_cell_volume 4655.783313
_symmetry_space_group_name_H-M "C M M M"
_symmetry_group_IT_number 65
_symmetry_cell_setting 'orthorhombic'
loop_
_space_group_symop_operation_xyz
x,y,z
-x,-y,z
x,-y,-z
-x,y,-z
-x,-y,-z
x,y,-z
-x,y,z
x,-y,z
1/2+x,1/2+y,z
1/2-x,1/2-y,z
1/2+x,1/2-y,-z
1/2-x,1/2+y,-z
1/2-x,1/2-y,-z
1/2+x,1/2+y,-z
1/2-x,1/2+y,z
1/2+x,1/2-y,z
loop_
_atom_site_type_symbol
_atom_site_label
_atom_site_fract_x
_atom_site_fract_y
_atom_site_fract_z
Si Si1 0.324995 0.945514 0.645579
Si Si2 0.678773 0.698380 0.000000
Si Si3 0.327082 0.799044 0.143992
Si Si4 0.325849 0.446260 0.918202
Si Si5 0.829343 0.606191 0.788102
Si Si6 0.832460 0.056052 0.500000
O O1 0.500000 0.939241 0.635046
O O2 0.261376 0.914694 0.713192
O O3 0.248768 0.925177 0.572597
O O4 0.282387 0.000000 0.659966
O O5 0.750000 0.750000 0.000000
O O6 0.743470 0.676138 0.074661
O O7 0.500000 0.697122 0.000000
O O8 0.500000 0.789151 0.124749
O O9 0.250000 0.750000 0.167742
O O10 0.312172 0.836813 0.209893
O O11 0.500000 0.443036 0.903672
O O12 0.270826 0.500000 0.911068
O O13 0.245735 0.415014 0.858975
O O14 0.289369 0.427148 0.000000
O O15 0.000000 0.590717 0.791605
O O16 0.000000 0.075273 0.500000
O O17 0.825787 0.000000 0.500000
#
# Coordination Sequence:
#
# PCOD8266250 Si02
#       6
#    16   8  16  16  16   8
#     4   9  17  31  50  72  99 129 158 189 231 282
#     4  10  18  30  48  66  85 114 153 198 248 295
#     4  10  20  34  49  68  94 122 158 204 251 295
#     4   9  19  34  48  65  93 128 164 200 239 285
#     4  10  21  33  49  72  96 124 163 205 242 284
#     4   9  17  29  47  73 102 129 156 187 226 275
#
# _framework density 17.182929000000001
#
# number of rings (size 3 to 8) (size 9 to 14) (size 15 to 20)
#    0.000    2.500    0.000    4.200    1.400    5.200 
#    0.000    3.000    0.000    0.000    0.000    0.700 
#    0.000    0.000    0.000    0.000    0.000    0.000 
#
# Total GULP energy -495806.543995 kJ/mol
# GULP energy per Si atom -12395.163600 kJ/mol
# Density = 1.714382 g / cm^3
# Si number density = 17.182929 Si / 1000 Ang^3
#
#
#
# Elastic Constant Matrix: (Units=GPa)
#
#
# Indices 1 2 3 4 5 6 
#
# 1 81.2256 37.0258 48.5072 0.0000 0.0000 0.0000
# 2 37.0258 63.5146 62.8523 0.0000 0.0000 0.0000
# 3 48.5072 62.8523 134.2190 0.0000 0.0000 0.0000
# 4 0.0000 0.0000 0.0000 17.9812 0.0000 0.0000
# 5 0.0000 0.0000 0.0000 0.0000 10.7692 0.0000
# 6 0.0000 0.0000 0.0000 0.0000 0.0000 20.0746
#
#
#
# Elastic Compliance Matrix: (Units=1/GPa)
#
#
# Indices 1 2 3 4 5 6 
#
# 1 0.017335 -0.007279 -0.002856 0.000000 0.000000 0.000000
# 2 -0.007279 0.032397 -0.012540 0.000000 0.000000 0.000000
# 3 -0.002856 -0.012540 0.014355 0.000000 0.000000 0.000000
# 4 0.000000 0.000000 0.000000 0.055614 0.000000 0.000000
# 5 0.000000 0.000000 0.000000 0.000000 0.092858 0.000000
# 6 0.000000 0.000000 0.000000 0.000000 0.000000 0.049814
#
#
# Mechanical properties :
#
#
# Convention : Reuss Voigt Hill
#
# Bulk Modulus (GPa) = 53.37244 63.96999 58.67122
# Shear Modulus (GPa) = 15.92507 18.46992 17.19750
#
# Velocity S-wave (km/s) = 3.04764 3.28212 3.16705
# Velocity P-wave (km/s) = 6.59643 7.18837 6.89875
#
# Compressibility (1/GPa) = 0.01873626
#
# Stress axis : x y z
#
# Youngs Moduli (GPa) = 57.68597 30.86675 69.66064
#
# Poissons Ratio (x) = 0.22468 0.19898
# Poissons Ratio (y) = 0.41989 0.87358
# Poissons Ratio (z) = 0.16478 0.38708
#
# Static dielectric constant tensor:
#      x y z
#    x 3.213120 0.000000 0.000000 
#    y 0.000000 3.115960 0.000000 
#    z 0.000000 0.000000 3.660220 
# 
# 
# High freq. dielectric constant tensor:
#      x y z
#    x 1.665890 0.000000 0.000000 
#    y 0.000000 1.643210 0.000000 
#    z 0.000000 0.000000 1.650730 
# 
# From -- ./inp_files/50249.got.cif
#   From: 2010.03.12/outbox.cif.g09.slc.cpg/sg65_26_cif.got.tgz:50249.got - 2010.04.10 20:52:16.
