data_PCOD8266832
_publ_section_title
;
Structure prediction by ZEFSAII (Michael W. Deem and Ramdas Pophale) SiO2 
 PCOD8266832
Probable space group: C M M M
;
_chemical_formula_sum "Si O2"
_cell_formula_units_Z 80
_cell_length_a 9.360076
_cell_length_b 23.635101
_cell_length_c 20.576155
_cell_angle_alpha 90.000000
_cell_angle_beta 90.000000
_cell_angle_gamma 90.000000
_cell_volume 4551.987495
_symmetry_space_group_name_H-M "C M M M"
_symmetry_group_IT_number 65
_symmetry_cell_setting 'orthorhombic'
loop_
_space_group_symop_operation_xyz
x,y,z
-x,-y,z
x,-y,-z
-x,y,-z
-x,-y,-z
x,y,-z
-x,y,z
x,-y,z
1/2+x,1/2+y,z
1/2-x,1/2-y,z
1/2+x,1/2-y,-z
1/2-x,1/2+y,-z
1/2-x,1/2-y,-z
1/2+x,1/2+y,-z
1/2-x,1/2+y,z
1/2+x,1/2-y,z
loop_
_atom_site_type_symbol
_atom_site_label
_atom_site_fract_x
_atom_site_fract_y
_atom_site_fract_z
Si Si1 0.341436 0.000000 0.906522
Si Si2 0.166501 0.192099 0.187348
Si Si3 0.166564 0.895599 0.294901
Si Si4 0.836886 0.110598 0.071982
Si Si5 0.341762 0.000000 0.754772
Si Si6 0.331423 0.563652 0.429326
O O1 0.257770 0.054886 0.930101
O O2 0.357364 0.000000 0.830638
O O3 0.500000 0.000000 0.937827
O O4 0.250000 0.250000 0.185852
O O5 0.200384 0.162167 0.256652
O O6 0.219656 0.153910 0.126857
O O7 0.000000 0.205514 0.180342
O O8 0.256307 0.944634 0.263135
O O9 0.211732 0.892740 0.371566
O O10 0.000000 0.911223 0.287941
O O11 0.000000 0.093596 0.088936
O O12 0.828175 0.138927 0.000000
O O13 0.500000 0.000000 0.722519
O O14 0.268784 0.583074 0.500000
O O15 0.500000 0.561439 0.435064
O O16 0.275658 0.500000 0.412401
#
# Coordination Sequence:
#
# PCOD8266832 Si02
#       6
#     8  16  16  16   8  16
#     4  11  22  34  51  79 111 137 163 200 251 305
#     4  10  22  37  54  74  96 129 174 216 255 296
#     4  10  18  32  54  75  99 135 172 206 247 300
#     4  10  21  37  56  77 102 133 167 205 251 304
#     4  11  21  30  47  78 108 134 163 204 254 297
#     4   8  13  22  43  77 107 128 159 204 245 286
#
# _framework density 17.574741
#
# number of rings (size 3 to 8) (size 9 to 14) (size 15 to 20)
#    0.000    2.200    3.000    1.500    0.000    4.400 
#    0.000    0.000    0.000    1.800    0.000    0.000 
#    0.000    0.000    0.000    0.000    0.000    0.000 
#
# Total GULP energy -495680.710180 kJ/mol
# GULP energy per Si atom -12392.017754 kJ/mol
# Density = 1.753474 g / cm^3
# Si number density = 17.574741 Si / 1000 Ang^3
#
#
#
# Elastic Constant Matrix: (Units=GPa)
#
#
# Indices 1 2 3 4 5 6 
#
# 1 60.2793 48.5058 28.7690 0.0000 0.0000 0.0000
# 2 48.5058 112.5681 64.7781 0.0000 0.0000 0.0000
# 3 28.7690 64.7781 153.9723 0.0000 0.0000 0.0000
# 4 0.0000 0.0000 0.0000 12.5603 0.0000 0.0000
# 5 0.0000 0.0000 0.0000 0.0000 9.6760 0.0000
# 6 0.0000 0.0000 0.0000 0.0000 0.0000 31.9129
#
#
#
# Elastic Compliance Matrix: (Units=1/GPa)
#
#
# Indices 1 2 3 4 5 6 
#
# 1 0.025399 -0.010837 -0.000186 0.000000 0.000000 0.000000
# 2 -0.010837 0.016345 -0.004852 0.000000 0.000000 0.000000
# 3 -0.000186 -0.004852 0.008571 0.000000 0.000000 0.000000
# 4 0.000000 0.000000 0.000000 0.079616 0.000000 0.000000
# 5 0.000000 0.000000 0.000000 0.000000 0.103348 0.000000
# 6 0.000000 0.000000 0.000000 0.000000 0.000000 0.031335
#
#
# Mechanical properties :
#
#
# Convention : Reuss Voigt Hill
#
# Bulk Modulus (GPa) = 53.86698 67.88061 60.87379
# Shear Modulus (GPa) = 16.52602 23.14763 19.83683
#
# Velocity S-wave (km/s) = 3.06980 3.63312 3.36328
# Velocity P-wave (km/s) = 6.57888 7.50381 7.05652
#
# Compressibility (1/GPa) = 0.01856425
#
# Stress axis : x y z
#
# Youngs Moduli (GPa) = 39.37177 61.17970 116.67674
#
# Poissons Ratio (x) = 0.66302 0.02174
# Poissons Ratio (y) = 0.42668 0.56609
# Poissons Ratio (z) = 0.00733 0.29683
#
# Static dielectric constant tensor:
#      x y z
#    x 3.229440 0.000000 0.000000 
#    y 0.000000 2.938200 0.000000 
#    z 0.000000 0.000000 3.944710 
# 
# 
# High freq. dielectric constant tensor:
#      x y z
#    x 1.659820 0.000000 0.000000 
#    y 0.000000 1.642760 0.000000 
#    z 0.000000 0.000000 1.702940 
# 
# From -- ./inp_files/59672.got.cif
#   From: 2010.03.12/outbox.cif.g09.slc.cpg/sg65_30_cif.got.tgz:59672.got - 2010.04.10 20:52:16.
