data_PCOD8266227
_publ_section_title
;
Structure prediction by ZEFSAII (Michael W. Deem and Ramdas Pophale) SiO2 
 PCOD8266227
Probable space group: C M M M
;
_chemical_formula_sum "Si O2"
_cell_formula_units_Z 80
_cell_length_a 8.761094
_cell_length_b 19.680439
_cell_length_c 25.993483
_cell_angle_alpha 90.000000
_cell_angle_beta 90.000000
_cell_angle_gamma 90.000000
_cell_volume 4481.852902
_symmetry_space_group_name_H-M "C M M M"
_symmetry_group_IT_number 65
_symmetry_cell_setting 'orthorhombic'
loop_
_space_group_symop_operation_xyz
x,y,z
-x,-y,z
x,-y,-z
-x,y,-z
-x,-y,-z
x,y,-z
-x,y,z
x,-y,z
1/2+x,1/2+y,z
1/2-x,1/2-y,z
1/2+x,1/2-y,-z
1/2-x,1/2+y,-z
1/2-x,1/2-y,-z
1/2+x,1/2+y,-z
1/2-x,1/2+y,z
1/2+x,1/2-y,z
loop_
_atom_site_type_symbol
_atom_site_label
_atom_site_fract_x
_atom_site_fract_y
_atom_site_fract_z
Si Si1 0.818857 0.424919 0.191965
Si Si2 0.182337 0.675483 0.896260
Si Si3 0.679097 0.323888 0.611065
Si Si4 0.317465 0.674830 0.000000
Si Si5 0.678523 0.322689 0.500000
Si Si6 0.176475 0.578919 0.692901
O O1 0.754553 0.500000 0.178175
O O2 0.758831 0.370426 0.150906
O O3 0.766258 0.403910 0.249292
O O4 0.000000 0.427952 0.190927
O O5 0.250000 0.750000 0.887372
O O6 0.251372 0.640584 0.948069
O O7 0.000000 0.679276 0.900312
O O8 0.500000 0.313709 0.614267
O O9 0.750000 0.250000 0.620800
O O10 0.727640 0.356321 0.554776
O O11 0.727243 0.376600 0.654062
O O12 0.250000 0.750000 0.000000
O O13 0.500000 0.674549 0.000000
O O14 0.500000 0.313502 0.500000
O O15 0.750000 0.250000 0.500000
O O16 0.204566 0.500000 0.680759
O O17 0.000000 0.597884 0.686462
#
# Coordination Sequence:
#
# PCOD8266227 Si02
#       6
#    16  16  16   8   8  16
#     4   8  16  32  52  71  93 125 162 197 234 278
#     4  10  18  30  50  73  96 122 156 195 233 277
#     4  10  19  32  51  74  99 127 163 203 244 290
#     4  10  18  30  47  68  97 127 155 189 233 280
#     4   8  16  30  47  68  95 127 159 197 243 288
#     4   9  18  34  53  72  98 131 164 200 244 290
#
# _framework density 17.849761000000001
#
# number of rings (size 3 to 8) (size 9 to 14) (size 15 to 20)
#    0.000    2.800    0.000    4.500    0.000    2.000 
#    0.000    5.000    0.000   10.800    0.000    0.000 
#    0.000    0.000    0.000    0.000    0.000    0.000 
#
# Total GULP energy -495570.306663 kJ/mol
# GULP energy per Si atom -12389.257667 kJ/mol
# Density = 1.780913 g / cm^3
# Si number density = 17.849761 Si / 1000 Ang^3
#
#
#
# Elastic Constant Matrix: (Units=GPa)
#
#
# Indices 1 2 3 4 5 6 
#
# 1 60.1469 28.9557 45.5726 0.0000 0.0000 0.0000
# 2 28.9557 72.4424 81.0088 0.0000 0.0000 0.0000
# 3 45.5726 81.0088 183.2405 0.0000 0.0000 0.0000
# 4 0.0000 0.0000 0.0000 -1.4199 0.0000 0.0000
# 5 0.0000 0.0000 0.0000 0.0000 27.0674 0.0000
# 6 0.0000 0.0000 0.0000 0.0000 0.0000 23.3478
#
#
#
# Elastic Compliance Matrix: (Units=1/GPa)
#
#
# Indices 1 2 3 4 5 6 
#
# 1 0.021416 -0.005150 -0.003049 0.000000 0.000000 0.000000
# 2 -0.005150 0.028539 -0.011336 0.000000 0.000000 0.000000
# 3 -0.003049 -0.011336 0.011227 0.000000 0.000000 0.000000
# 4 0.000000 0.000000 0.000000 -0.704273 0.000000 0.000000
# 5 0.000000 0.000000 0.000000 0.000000 0.036945 0.000000
# 6 0.000000 0.000000 0.000000 0.000000 0.000000 0.042831
#
#
# Mechanical properties :
#
#
# Convention : Reuss Voigt Hill
#
# Bulk Modulus (GPa) = 45.22591 69.65600 57.44095
# Shear Modulus (GPa) = -9.67352 20.48524 5.40586
#
# Velocity S-wave (km/s) = -2.33049 3.39137 1.74216
# Velocity P-wave (km/s) = 4.26033 7.37858 6.02469
#
# Compressibility (1/GPa) = 0.02211122
#
# Stress axis : x y z
#
# Youngs Moduli (GPa) = 46.69454 35.03972 89.06903
#
# Poissons Ratio (x) = 0.18045 0.27161
# Poissons Ratio (y) = 0.24048 1.00969
# Poissons Ratio (z) = 0.14239 0.39721
#
# Static dielectric constant tensor:
#      x y z
#    x 3.127320 0.000000 0.000000 
#    y 0.000000 3.141510 0.000000 
#    z 0.000000 0.000000 4.225130 
# 
# 
# High freq. dielectric constant tensor:
#      x y z
#    x 1.680090 0.000000 0.000000 
#    y 0.000000 1.659420 0.000000 
#    z 0.000000 0.000000 1.715070 
# 
# From -- ./inp_files/67322.got.cif
#   From: 2010.03.12/outbox.cif.g09.slc.cpg/sg65_34_cif.got.tgz:67322.got - 2010.04.10 20:52:16.
