data_PCOD8266562
_publ_section_title
;
Structure prediction by ZEFSAII (Michael W. Deem and Ramdas Pophale) SiO2 
 PCOD8266562
Probable space group: C M M M
;
_chemical_formula_sum "Si O2"
_cell_formula_units_Z 104
_cell_length_a 29.090193
_cell_length_b 9.784967
_cell_length_c 19.974396
_cell_angle_alpha 90.000000
_cell_angle_beta 90.000000
_cell_angle_gamma 90.000000
_cell_volume 5685.643480
_symmetry_space_group_name_H-M "C M M M"
_symmetry_group_IT_number 65
_symmetry_cell_setting 'orthorhombic'
loop_
_space_group_symop_operation_xyz
x,y,z
-x,-y,z
x,-y,-z
-x,y,-z
-x,-y,-z
x,y,-z
-x,y,z
x,-y,z
1/2+x,1/2+y,z
1/2-x,1/2-y,z
1/2+x,1/2-y,-z
1/2-x,1/2+y,-z
1/2-x,1/2-y,-z
1/2+x,1/2+y,-z
1/2-x,1/2+y,z
1/2+x,1/2-y,z
loop_
_atom_site_type_symbol
_atom_site_label
_atom_site_fract_x
_atom_site_fract_y
_atom_site_fract_z
Si Si1 0.790409 0.846350 0.712639
Si Si2 0.632102 0.341800 0.815100
Si Si3 0.590261 0.843341 0.632221
Si Si4 0.000000 0.649508 0.576725
Si Si5 0.707617 0.657159 0.076655
Si Si6 0.446224 0.155671 0.220734
Si Si7 0.168057 0.153532 0.575953
O O1 0.750000 0.750000 0.739533
O O2 0.838790 0.804124 0.747560
O O3 0.791692 0.837620 0.631396
O O4 0.778168 0.000000 0.735697
O O5 0.617507 0.500000 0.812843
O O6 0.663297 0.307535 0.879151
O O7 0.584798 0.255437 0.825059
O O8 0.545810 0.772571 0.598076
O O9 0.581387 0.831839 0.710348
O O10 0.631890 0.761015 0.602305
O O11 0.597732 0.000000 0.609763
O O12 0.000000 0.500000 0.614637
O O13 0.000000 0.622213 0.500000
O O14 0.722380 0.500000 0.086556
O O15 0.750000 0.750000 0.100560
O O16 0.694501 0.688967 0.000000
O O17 0.500000 0.202537 0.225426
O O18 0.444345 0.000000 0.194002
O O19 0.184996 0.189539 0.500000
O O20 0.147346 0.000000 0.576690
#
# Coordination Sequence:
#
# PCOD8266562 Si02
#       7
#    16  16  16   8  16  16  16
#     4  10  21  35  51  73  99 130 170 212 255 306
#     4  10  20  35  55  79 108 141 174 210 256 308
#     4  10  18  31  50  71  93 123 165 211 260 313
#     4   9  16  26  43  67  93 119 152 201 258 312
#     4   9  18  33  55  85 118 147 176 211 253 305
#     4  10  20  34  53  78 106 135 173 220 264 307
#     4  10  21  36  50  66  95 131 165 209 262 310
#
# _framework density 18.291685999999999
#
# number of rings (size 3 to 8) (size 9 to 14) (size 15 to 20)
#    0.000    2.231    2.308    0.923    0.000    3.385 
#    0.000    0.385    0.000    1.846    0.000    3.231 
#    0.000    0.000    0.000    0.000    0.000    0.000 
#
# Total GULP energy -644275.044672 kJ/mol
# GULP energy per Si atom -12389.904705 kJ/mol
# Density = 1.825005 g / cm^3
# Si number density = 18.291686 Si / 1000 Ang^3
#
#
#
# Elastic Constant Matrix: (Units=GPa)
#
#
# Indices 1 2 3 4 5 6 
#
# 1 91.2532 61.8580 23.3433 0.0000 0.0000 0.0000
# 2 61.8580 80.9020 24.3412 0.0000 0.0000 0.0000
# 3 23.3433 24.3412 75.5366 0.0000 0.0000 0.0000
# 4 0.0000 0.0000 0.0000 18.1042 0.0000 0.0000
# 5 0.0000 0.0000 0.0000 0.0000 25.7528 0.0000
# 6 0.0000 0.0000 0.0000 0.0000 0.0000 33.7200
#
#
#
# Elastic Compliance Matrix: (Units=1/GPa)
#
#
# Indices 1 2 3 4 5 6 
#
# 1 0.022921 -0.017047 -0.001590 0.000000 0.000000 0.000000
# 2 -0.017047 0.026366 -0.003228 0.000000 0.000000 0.000000
# 3 -0.001590 -0.003228 0.014770 0.000000 0.000000 0.000000
# 4 0.000000 0.000000 0.000000 0.055236 0.000000 0.000000
# 5 0.000000 0.000000 0.000000 0.000000 0.038831 0.000000
# 6 0.000000 0.000000 0.000000 0.000000 0.000000 0.029656
#
#
# Mechanical properties :
#
#
# Convention : Reuss Voigt Hill
#
# Bulk Modulus (GPa) = 49.19620 51.86408 50.53014
# Shear Modulus (GPa) = 20.98318 24.72535 22.85427
#
# Velocity S-wave (km/s) = 3.39062 3.68057 3.53857
# Velocity P-wave (km/s) = 6.50248 6.81745 6.66183
#
# Compressibility (1/GPa) = 0.02032677
#
# Stress axis : x y z
#
# Youngs Moduli (GPa) = 43.62818 37.92744 67.70359
#
# Poissons Ratio (x) = 0.64655 0.10765
# Poissons Ratio (y) = 0.74373 0.21856
# Poissons Ratio (z) = 0.06937 0.12244
#
# Static dielectric constant tensor:
#      x y z
#    x 3.257440 0.000000 0.000000 
#    y 0.000000 3.398750 0.000000 
#    z 0.000000 0.000000 3.371250 
# 
# 
# High freq. dielectric constant tensor:
#      x y z
#    x 1.697000 0.000000 0.000000 
#    y 0.000000 1.701090 0.000000 
#    z 0.000000 0.000000 1.699420 
# 
# From -- ./inp_files/66398.got.cif
#   From: 2010.03.12/outbox.cif.g09.slc.cpg/sg65_34_cif.got.tgz:66398.got - 2010.04.10 20:52:16.
