data_PCOD8266157
_publ_section_title
;
Structure prediction by ZEFSAII (Michael W. Deem and Ramdas Pophale) SiO2 
 PCOD8266157
Probable space group: C M M M
;
_chemical_formula_sum "Si O2"
_cell_formula_units_Z 88
_cell_length_a 23.421918
_cell_length_b 20.507157
_cell_length_c 9.114245
_cell_angle_alpha 90.000000
_cell_angle_beta 90.000000
_cell_angle_gamma 90.000000
_cell_volume 4377.726357
_symmetry_space_group_name_H-M "C M M M"
_symmetry_group_IT_number 65
_symmetry_cell_setting 'orthorhombic'
loop_
_space_group_symop_operation_xyz
x,y,z
-x,-y,z
x,-y,-z
-x,y,-z
-x,-y,-z
x,y,-z
-x,y,z
x,-y,z
1/2+x,1/2+y,z
1/2-x,1/2-y,z
1/2+x,1/2-y,-z
1/2-x,1/2+y,-z
1/2-x,1/2-y,-z
1/2+x,1/2+y,-z
1/2-x,1/2+y,z
1/2+x,1/2-y,z
loop_
_atom_site_type_symbol
_atom_site_label
_atom_site_fract_x
_atom_site_fract_y
_atom_site_fract_z
Si Si1 0.855134 0.131349 0.673600
Si Si2 0.935141 0.500000 0.825920
Si Si3 0.775942 0.640049 0.337267
Si Si4 0.935758 0.246935 0.667204
Si Si5 0.745053 0.000000 0.657901
Si Si6 0.885404 0.361868 0.173086
Si Si7 0.145761 0.000000 0.172216
O O1 0.859462 0.120012 0.500000
O O2 0.789278 0.148082 0.718241
O O3 0.894096 0.190648 0.727888
O O4 0.878507 0.066201 0.754103
O O5 0.901766 0.565155 0.772566
O O6 0.000000 0.500000 0.763083
O O7 0.937741 0.500000 0.000000
O O8 0.782415 0.671330 0.500000
O O9 0.793508 0.563787 0.339205
O O10 0.824160 0.667441 0.229161
O O11 0.919425 0.264557 0.500000
O O12 0.931989 0.311938 0.764443
O O13 0.000000 0.219988 0.677784
O O14 0.779895 0.000000 0.500000
O O15 0.786588 0.000000 0.797517
O O16 0.884928 0.358643 0.000000
O O17 0.132511 0.000000 0.000000
#
# Coordination Sequence:
#
# PCOD8266157 Si02
#       7
#    16   8  16  16   8  16   8
#     4   9  19  37  59  81 110 148 184 222 275 335
#     4   9  19  36  55  76 106 147 189 222 261 318
#     4   9  17  31  52  78 109 144 182 221 266 325
#     4  10  22  41  62  81 103 138 187 237 282 332
#     4   8  15  29  49  74 109 151 184 216 266 321
#     4  11  22  35  55  82 113 147 183 228 278 329
#     4  10  18  29  52  85 114 140 174 218 265 318
#
# _framework density 20.101759000000001
#
# number of rings (size 3 to 8) (size 9 to 14) (size 15 to 20)
#    0.000    2.455    0.000    3.545    0.000    5.455 
#    0.000    6.364    0.000    6.000    0.000    0.000 
#    0.000    0.000    0.000    0.000    0.000    0.000 
#
# Total GULP energy -545163.085076 kJ/mol
# GULP energy per Si atom -12390.070115 kJ/mol
# Density = 2.005601 g / cm^3
# Si number density = 20.101759 Si / 1000 Ang^3
#
#
#
# Elastic Constant Matrix: (Units=GPa)
#
#
# Indices 1 2 3 4 5 6 
#
# 1 109.5070 51.7102 33.7150 0.0000 0.0000 0.0000
# 2 51.7102 107.3063 43.4246 0.0000 0.0000 0.0000
# 3 33.7150 43.4246 70.5332 0.0000 0.0000 0.0000
# 4 0.0000 0.0000 0.0000 27.2260 0.0000 0.0000
# 5 0.0000 0.0000 0.0000 0.0000 13.9275 0.0000
# 6 0.0000 0.0000 0.0000 0.0000 0.0000 27.7259
#
#
#
# Elastic Compliance Matrix: (Units=1/GPa)
#
#
# Indices 1 2 3 4 5 6 
#
# 1 0.012270 -0.004714 -0.002963 0.000000 0.000000 0.000000
# 2 -0.004714 0.014222 -0.006503 0.000000 0.000000 0.000000
# 3 -0.002963 -0.006503 0.019598 0.000000 0.000000 0.000000
# 4 0.000000 0.000000 0.000000 0.036730 0.000000 0.000000
# 5 0.000000 0.000000 0.000000 0.000000 0.071800 0.000000
# 6 0.000000 0.000000 0.000000 0.000000 0.000000 0.036067
#
#
# Mechanical properties :
#
#
# Convention : Reuss Voigt Hill
#
# Bulk Modulus (GPa) = 56.39991 60.56070 58.48031
# Shear Modulus (GPa) = 22.22651 24.34231 23.28441
#
# Velocity S-wave (km/s) = 3.32881 3.48365 3.40711
# Velocity P-wave (km/s) = 6.54926 6.80981 6.68081
#
# Compressibility (1/GPa) = 0.01773052
#
# Stress axis : x y z
#
# Youngs Moduli (GPa) = 81.49979 70.31242 51.02656
#
# Poissons Ratio (x) = 0.33144 0.15119
# Poissons Ratio (y) = 0.38417 0.33182
# Poissons Ratio (z) = 0.24148 0.45724
#
# Static dielectric constant tensor:
#      x y z
#    x 3.497490 0.000000 0.000000 
#    y 0.000000 3.801440 0.000000 
#    z 0.000000 0.000000 3.416390 
# 
# 
# High freq. dielectric constant tensor:
#      x y z
#    x 1.769250 0.000000 0.000000 
#    y 0.000000 1.787240 0.000000 
#    z 0.000000 0.000000 1.760360 
# 
# From -- ./inp_files/14021.got.cif
#   From: 2010.03.12/outbox.cif.g09.slc.cpg/sg65_8_cif.got.tgz:14021.got - 2010.04.10 20:52:16.
