data_PCOD8266765
_publ_section_title
;
Structure prediction by ZEFSAII (Michael W. Deem and Ramdas Pophale) SiO2 
 PCOD8266765
Probable space group: C M M M
;
_chemical_formula_sum "Si O2"
_cell_formula_units_Z 80
_cell_length_a 28.033885
_cell_length_b 8.687010
_cell_length_c 18.266168
_cell_angle_alpha 90.000000
_cell_angle_beta 90.000000
_cell_angle_gamma 90.000000
_cell_volume 4448.371571
_symmetry_space_group_name_H-M "C M M M"
_symmetry_group_IT_number 65
_symmetry_cell_setting 'orthorhombic'
loop_
_space_group_symop_operation_xyz
x,y,z
-x,-y,z
x,-y,-z
-x,y,-z
-x,-y,-z
x,y,-z
-x,y,z
x,-y,z
1/2+x,1/2+y,z
1/2-x,1/2-y,z
1/2+x,1/2-y,-z
1/2-x,1/2+y,-z
1/2-x,1/2-y,-z
1/2+x,1/2+y,-z
1/2-x,1/2+y,z
1/2+x,1/2-y,z
loop_
_atom_site_type_symbol
_atom_site_label
_atom_site_fract_x
_atom_site_fract_y
_atom_site_fract_z
Si Si1 0.056334 0.675291 0.582462
Si Si2 0.051966 0.681642 0.000000
Si Si3 0.302908 0.316625 0.500000
Si Si4 0.556697 0.177257 0.841687
Si Si5 0.698318 0.819483 0.351526
Si Si6 0.611763 0.677498 0.711343
O O1 0.071255 0.723819 0.500000
O O2 0.072750 0.500000 0.598278
O O3 0.080363 0.787973 0.640028
O O4 0.000000 0.688603 0.591753
O O5 0.077206 0.725706 0.077202
O O6 0.044593 0.500000 0.000000
O O7 0.000000 0.760774 0.000000
O O8 0.303669 0.500000 0.500000
O O9 0.250000 0.250000 0.500000
O O10 0.326094 0.250785 0.425616
O O11 0.500000 0.203484 0.838459
O O12 0.582235 0.285059 0.783720
O O13 0.568735 0.000000 0.823705
O O14 0.750000 0.750000 0.333929
O O15 0.661060 0.775141 0.287938
O O16 0.704421 0.000000 0.359925
O O17 0.625692 0.500000 0.711575
#
# Coordination Sequence:
#
# PCOD8266765 Si02
#       6
#    16   8   8  16  16  16
#     4   9  19  36  54  70  93 130 176 220 260 303
#     4   7  12  26  51  79 104 133 170 211 253 301
#     4  10  18  32  52  74  97 122 157 204 258 310
#     4   9  17  32  54  79 107 139 175 213 255 304
#     4  11  22  38  56  74  98 130 169 216 266 313
#     4  12  24  34  48  74 106 138 173 213 258 308
#
# _framework density 17.984109
#
# number of rings (size 3 to 8) (size 9 to 14) (size 15 to 20)
#    0.000    2.100    0.000    8.100    1.400    3.600 
#    0.000    1.500    0.000    1.800    0.000    0.700 
#    0.000    0.000    0.000    0.000    0.000    0.000 
#
# Total GULP energy -495789.550812 kJ/mol
# GULP energy per Si atom -12394.738770 kJ/mol
# Density = 1.794318 g / cm^3
# Si number density = 17.984109 Si / 1000 Ang^3
#
#
#
# Elastic Constant Matrix: (Units=GPa)
#
#
# Indices 1 2 3 4 5 6 
#
# 1 50.9625 26.6831 43.2326 0.0000 0.0000 0.0000
# 2 26.6831 114.1929 38.4597 0.0000 0.0000 0.0000
# 3 43.2326 38.4597 115.2725 0.0000 0.0000 0.0000
# 4 0.0000 0.0000 0.0000 13.4081 0.0000 0.0000
# 5 0.0000 0.0000 0.0000 0.0000 11.9359 0.0000
# 6 0.0000 0.0000 0.0000 0.0000 0.0000 25.9414
#
#
#
# Elastic Compliance Matrix: (Units=1/GPa)
#
#
# Indices 1 2 3 4 5 6 
#
# 1 0.030061 -0.003636 -0.010061 0.000000 0.000000 0.000000
# 2 -0.003636 0.010305 -0.002075 0.000000 0.000000 0.000000
# 3 -0.010061 -0.002075 0.013141 0.000000 0.000000 0.000000
# 4 0.000000 0.000000 0.000000 0.074582 0.000000 0.000000
# 5 0.000000 0.000000 0.000000 0.000000 0.083781 0.000000
# 6 0.000000 0.000000 0.000000 0.000000 0.000000 0.038548
#
#
# Mechanical properties :
#
#
# Convention : Reuss Voigt Hill
#
# Bulk Modulus (GPa) = 45.52947 55.24206 50.38576
# Shear Modulus (GPa) = 17.28411 21.72724 19.50568
#
# Velocity S-wave (km/s) = 3.10349 3.47959 3.29691
# Velocity P-wave (km/s) = 6.18172 6.85035 6.52460
#
# Compressibility (1/GPa) = 0.02196380
#
# Stress axis : x y z
#
# Youngs Moduli (GPa) = 33.26566 97.03627 76.09894
#
# Poissons Ratio (x) = 0.35279 0.76565
# Poissons Ratio (y) = 0.12094 0.15789
# Poissons Ratio (z) = 0.33470 0.20133
#
# Static dielectric constant tensor:
#      x y z
#    x 3.171990 0.000000 0.000000 
#    y 0.000000 3.187390 0.000000 
#    z 0.000000 0.000000 3.664650 
# 
# 
# High freq. dielectric constant tensor:
#      x y z
#    x 1.677520 0.000000 0.000000 
#    y 0.000000 1.690140 0.000000 
#    z 0.000000 0.000000 1.687450 
# 
# From -- ./inp_files/57269.got.cif
#   From: 2010.03.12/outbox.cif.g09.slc.cpg/sg65_29_cif.got.tgz:57269.got - 2010.04.10 20:52:16.
