data_PCOD8266997
_publ_section_title
;
Structure prediction by ZEFSAII (Michael W. Deem and Ramdas Pophale) SiO2 
 PCOD8266997
Probable space group: C M M M
;
_chemical_formula_sum "Si O2"
_cell_formula_units_Z 72
_cell_length_a 25.897182
_cell_length_b 10.142522
_cell_length_c 14.900026
_cell_angle_alpha 90.000000
_cell_angle_beta 90.000000
_cell_angle_gamma 90.000000
_cell_volume 3913.681628
_symmetry_space_group_name_H-M "C M M M"
_symmetry_group_IT_number 65
_symmetry_cell_setting 'orthorhombic'
loop_
_space_group_symop_operation_xyz
x,y,z
-x,-y,z
x,-y,-z
-x,y,-z
-x,-y,-z
x,y,-z
-x,y,z
x,-y,z
1/2+x,1/2+y,z
1/2-x,1/2-y,z
1/2+x,1/2-y,-z
1/2-x,1/2+y,-z
1/2-x,1/2-y,-z
1/2+x,1/2+y,-z
1/2-x,1/2+y,z
1/2+x,1/2-y,z
loop_
_atom_site_type_symbol
_atom_site_label
_atom_site_fract_x
_atom_site_fract_y
_atom_site_fract_z
Si Si1 0.905666 0.500000 0.893450
Si Si2 0.342208 0.258555 0.313886
Si Si3 0.057837 0.747442 0.791850
Si Si4 0.192815 0.000000 0.802926
Si Si5 0.407513 0.500000 0.102758
Si Si6 0.692919 0.000000 0.226194
Si Si7 0.199473 0.157915 0.500000
O O1 0.936291 0.373150 0.860074
O O2 0.848340 0.500000 0.853016
O O3 0.901610 0.500000 0.000000
O O4 0.402953 0.238060 0.292223
O O5 0.318281 0.370421 0.252995
O O6 0.335821 0.302495 0.416011
O O7 0.311339 0.124843 0.292362
O O8 0.000000 0.748708 0.751987
O O9 0.067685 0.875801 0.849803
O O10 0.155204 0.000000 0.889382
O O11 0.253026 0.000000 0.827709
O O12 0.423550 0.500000 0.000000
O O13 0.250000 0.250000 0.500000
O O14 0.212624 0.000000 0.500000
#
# Coordination Sequence:
#
# PCOD8266997 Si02
#       7
#     8  16  16   8   8   8   8
#     4  10  21  35  55  85 112 141 192 240 275 328
#     4  10  22  36  55  82 111 142 185 228 270 330
#     4  10  21  38  57  77 109 148 184 230 282 326
#     4  10  18  35  53  73 110 149 180 219 278 335
#     4  10  21  33  51  81 108 139 186 232 273 330
#     4  10  20  35  55  79 112 153 184 221 280 335
#     4  12  24  38  61  89 118 146 181 227 275 329
#
# _framework density 18.396999000000001
#
# number of rings (size 3 to 8) (size 9 to 14) (size 15 to 20)
#    0.000    1.778    1.111    3.333    1.556    3.111 
#    0.000    0.556    0.000    8.667    0.000    4.667 
#    0.000    0.000    0.000    0.000    0.000    0.000 
#
# Total GULP energy -446367.671969 kJ/mol
# GULP energy per Si atom -12399.101999 kJ/mol
# Density = 1.835513 g / cm^3
# Si number density = 18.396999 Si / 1000 Ang^3
#
#
#
# Elastic Constant Matrix: (Units=GPa)
#
#
# Indices 1 2 3 4 5 6 
#
# 1 140.2185 29.9652 28.1830 0.0000 0.0000 0.0000
# 2 29.9652 149.9747 29.0111 0.0000 0.0000 0.0000
# 3 28.1830 29.0111 91.6672 0.0000 0.0000 0.0000
# 4 0.0000 0.0000 0.0000 25.8444 0.0000 0.0000
# 5 0.0000 0.0000 0.0000 0.0000 15.1913 0.0000
# 6 0.0000 0.0000 0.0000 0.0000 0.0000 13.5127
#
#
#
# Elastic Compliance Matrix: (Units=1/GPa)
#
#
# Indices 1 2 3 4 5 6 
#
# 1 0.007788 -0.001164 -0.002026 0.000000 0.000000 0.000000
# 2 -0.001164 0.007277 -0.001945 0.000000 0.000000 0.000000
# 3 -0.002026 -0.001945 0.012147 0.000000 0.000000 0.000000
# 4 0.000000 0.000000 0.000000 0.038693 0.000000 0.000000
# 5 0.000000 0.000000 0.000000 0.000000 0.065827 0.000000
# 6 0.000000 0.000000 0.000000 0.000000 0.000000 0.074004
#
#
# Mechanical properties :
#
#
# Convention : Reuss Voigt Hill
#
# Bulk Modulus (GPa) = 59.02590 61.79767 60.41178
# Shear Modulus (GPa) = 22.55770 30.55641 26.55705
#
# Velocity S-wave (km/s) = 3.50546 4.07989 3.80353
# Velocity P-wave (km/s) = 6.96696 7.47383 7.22484
#
# Compressibility (1/GPa) = 0.01694172
#
# Stress axis : x y z
#
# Youngs Moduli (GPa) = 128.40770 137.42630 82.32177
#
# Poissons Ratio (x) = 0.15998 0.16678
# Poissons Ratio (y) = 0.14948 0.16012
# Poissons Ratio (z) = 0.26014 0.26730
#
# Static dielectric constant tensor:
#      x y z
#    x 3.577520 0.000000 0.000000 
#    y 0.000000 3.437720 0.000000 
#    z 0.000000 0.000000 3.208130 
# 
# 
# High freq. dielectric constant tensor:
#      x y z
#    x 1.719310 0.000000 0.000000 
#    y 0.000000 1.742620 0.000000 
#    z 0.000000 0.000000 1.688290 
# 
# From -- ./inp_files/46611.got.cif
#   From: 2010.03.12/outbox.cif.g09.slc.cpg/sg65_24_cif.got.tgz:46611.got - 2010.04.10 20:52:16.
