data_PCOD8266643
_publ_section_title
;
Structure prediction by ZEFSAII (Michael W. Deem and Ramdas Pophale) SiO2 
 PCOD8266643
Probable space group: C M M M
;
_chemical_formula_sum "Si O2"
_cell_formula_units_Z 128
_cell_length_a 19.672473
_cell_length_b 19.410454
_cell_length_c 18.842778
_cell_angle_alpha 90.000000
_cell_angle_beta 90.000000
_cell_angle_gamma 90.000000
_cell_volume 7195.145535
_symmetry_space_group_name_H-M "C M M M"
_symmetry_group_IT_number 65
_symmetry_cell_setting 'orthorhombic'
loop_
_space_group_symop_operation_xyz
x,y,z
-x,-y,z
x,-y,-z
-x,y,-z
-x,-y,-z
x,y,-z
-x,y,z
x,-y,z
1/2+x,1/2+y,z
1/2-x,1/2-y,z
1/2+x,1/2-y,-z
1/2-x,1/2+y,-z
1/2-x,1/2-y,-z
1/2+x,1/2+y,-z
1/2-x,1/2+y,z
1/2+x,1/2-y,z
loop_
_atom_site_type_symbol
_atom_site_label
_atom_site_fract_x
_atom_site_fract_y
_atom_site_fract_z
Si Si1 0.575956 0.875541 0.418597
Si Si2 0.192273 0.425152 0.325357
Si Si3 0.165670 0.424528 0.839997
Si Si4 0.577588 0.201093 0.162303
Si Si5 0.924885 0.249891 0.680979
Si Si6 0.184512 0.921352 0.838040
Si Si7 0.292441 0.681003 0.709609
Si Si8 0.078142 0.838186 0.917148
O O1 0.598883 0.870619 0.500000
O O2 0.500000 0.906920 0.411923
O O3 0.627535 0.923992 0.376703
O O4 0.577090 0.799532 0.386051
O O5 0.227113 0.500000 0.335026
O O6 0.169375 0.415843 0.244580
O O7 0.245650 0.364260 0.343748
O O8 0.134876 0.500000 0.858905
O O9 0.118675 0.363638 0.869590
O O10 0.240916 0.418141 0.874265
O O11 0.500000 0.186831 0.142942
O O12 0.589035 0.207843 0.246613
O O13 0.603200 0.270131 0.123934
O O14 0.863296 0.196796 0.669784
O O15 0.000000 0.214109 0.685707
O O16 0.185211 0.866049 0.775195
O O17 0.125775 0.901561 0.893741
O O18 0.171149 0.000000 0.811156
O O19 0.250000 0.750000 0.732077
O O20 0.000000 0.855941 0.897515
O O21 0.086637 0.824913 0.000000
#
# Coordination Sequence:
#
# PCOD8266643 Si02
#       8
#    16  16  16  16  16  16  16  16
#     4  10  20  34  52  78 114 150 182 221 272 328
#     4  10  20  33  49  75 109 144 181 223 269 318
#     4   9  18  32  51  77 108 139 176 224 270 314
#     4  10  18  32  55  79 105 139 182 227 264 313
#     4  10  18  31  52  78 105 137 182 229 268 312
#     4  10  21  34  52  79 110 140 174 219 266 318
#     4  11  18  32  57  80 102 142 183 224 271 314
#     4  10  22  38  56  80 108 141 180 223 273 326
#
# _framework density 17.789771999999999
#
# number of rings (size 3 to 8) (size 9 to 14) (size 15 to 20)
#    0.000    2.000    3.750    1.875    0.000    1.250 
#    0.000    5.000    0.000    2.250    0.000    1.750 
#    0.000    0.000    0.000   13.625    0.000    0.000 
#
# Total GULP energy -793174.317959 kJ/mol
# GULP energy per Si atom -12393.348718 kJ/mol
# Density = 1.774928 g / cm^3
# Si number density = 17.789772 Si / 1000 Ang^3
#
#
#
# Elastic Constant Matrix: (Units=GPa)
#
#
# Indices 1 2 3 4 5 6 
#
# 1 106.3137 65.4662 25.9736 0.0000 0.0000 0.0000
# 2 65.4662 120.7338 23.4232 0.0000 0.0000 0.0000
# 3 25.9736 23.4232 50.3110 0.0000 0.0000 0.0000
# 4 0.0000 0.0000 0.0000 11.0624 0.0000 0.0000
# 5 0.0000 0.0000 0.0000 0.0000 21.4428 0.0000
# 6 0.0000 0.0000 0.0000 0.0000 0.0000 28.7606
#
#
#
# Elastic Compliance Matrix: (Units=1/GPa)
#
#
# Indices 1 2 3 4 5 6 
#
# 1 0.014933 -0.007257 -0.004331 0.000000 0.000000 0.000000
# 2 -0.007257 0.012632 -0.002134 0.000000 0.000000 0.000000
# 3 -0.004331 -0.002134 0.023106 0.000000 0.000000 0.000000
# 4 0.000000 0.000000 0.000000 0.090396 0.000000 0.000000
# 5 0.000000 0.000000 0.000000 0.000000 0.046636 0.000000
# 6 0.000000 0.000000 0.000000 0.000000 0.000000 0.034770
#
#
# Mechanical properties :
#
#
# Convention : Reuss Voigt Hill
#
# Bulk Modulus (GPa) = 43.05455 56.34271 49.69863
# Shear Modulus (GPa) = 19.40553 23.08619 21.24586
#
# Velocity S-wave (km/s) = 3.30635 3.60630 3.45958
# Velocity P-wave (km/s) = 6.23140 7.00576 6.62989
#
# Compressibility (1/GPa) = 0.02322635
#
# Stress axis : x y z
#
# Youngs Moduli (GPa) = 66.96643 79.16550 43.27907
#
# Poissons Ratio (x) = 0.57450 0.18743
# Poissons Ratio (y) = 0.48597 0.09238
# Poissons Ratio (z) = 0.29001 0.16898
#
# Static dielectric constant tensor:
#      x y z
#    x 3.610730 0.000000 0.000000 
#    y 0.000000 3.388510 0.000000 
#    z 0.000000 0.000000 2.952050 
# 
# 
# High freq. dielectric constant tensor:
#      x y z
#    x 1.697360 0.000000 0.000000 
#    y 0.000000 1.688350 0.000000 
#    z 0.000000 0.000000 1.646730 
# 
# From -- ./inp_files/64887.got.cif
#   From: 2010.03.12/outbox.cif.g09.slc.cpg/sg65_33_cif.got.tgz:64887.got - 2010.04.10 20:52:16.
