data_PCOD8266889
_publ_section_title
;
Structure prediction by ZEFSAII (Michael W. Deem and Ramdas Pophale) SiO2 
 PCOD8266889
Probable space group: C M M M
;
_chemical_formula_sum "Si O2"
_cell_formula_units_Z 104
_cell_length_a 23.403016
_cell_length_b 24.373372
_cell_length_c 9.705005
_cell_angle_alpha 90.000000
_cell_angle_beta 90.000000
_cell_angle_gamma 90.000000
_cell_volume 5535.835929
_symmetry_space_group_name_H-M "C M M M"
_symmetry_group_IT_number 65
_symmetry_cell_setting 'orthorhombic'
loop_
_space_group_symop_operation_xyz
x,y,z
-x,-y,z
x,-y,-z
-x,y,-z
-x,-y,-z
x,y,-z
-x,y,z
x,-y,z
1/2+x,1/2+y,z
1/2-x,1/2-y,z
1/2+x,1/2-y,-z
1/2-x,1/2+y,-z
1/2-x,1/2-y,-z
1/2+x,1/2+y,-z
1/2-x,1/2+y,z
1/2+x,1/2-y,z
loop_
_atom_site_type_symbol
_atom_site_label
_atom_site_fract_x
_atom_site_fract_y
_atom_site_fract_z
Si Si1 0.250000 0.250000 0.764767
Si Si2 0.661411 0.063814 0.162759
Si Si3 0.564127 0.144374 0.837425
Si Si4 0.252452 0.132016 0.345477
Si Si5 0.874712 0.755209 0.846237
Si Si6 0.932982 0.060355 0.149391
Si Si7 0.377820 0.643011 0.659086
O O1 0.260785 0.197235 0.669045
O O2 0.194005 0.246053 0.859372
O O3 0.601017 0.091126 0.207792
O O4 0.712614 0.095413 0.238017
O O5 0.660299 0.000000 0.205748
O O6 0.671661 0.070952 0.000000
O O7 0.500000 0.141728 0.772334
O O8 0.598223 0.198620 0.789117
O O9 0.558482 0.145183 0.000000
O O10 0.270748 0.115140 0.500000
O O11 0.185974 0.120741 0.318566
O O12 0.892834 0.801091 0.738090
O O13 0.898335 0.767962 0.000000
O O14 0.917882 0.096973 0.279096
O O15 0.000000 0.055765 0.143124
O O16 0.906411 0.000000 0.172560
O O17 0.910786 0.083392 0.000000
O O18 0.392180 0.652982 0.500000
#
# Coordination Sequence:
#
# PCOD8266889 Si02
#       7
#     8  16  16  16  16  16  16
#     4  10  18  32  56  84 108 138 182 230 272 326
#     4  10  21  37  57  83 112 144 188 237 281 330
#     4   9  18  34  55  81 111 143 183 231 284 336
#     4  10  21  36  55  80 113 149 183 224 278 335
#     4  10  19  32  54  82 110 145 182 226 278 331
#     4   9  19  37  59  80 104 140 187 234 278 327
#     4  10  22  36  52  81 116 149 185 226 277 338
#
# _framework density 18.786684000000001
#
# number of rings (size 3 to 8) (size 9 to 14) (size 15 to 20)
#    0.000    2.308    1.538    1.385    0.000    6.154 
#    0.000    6.923    0.000    1.385    0.000    1.077 
#    0.000    0.000    0.000    0.000    0.000    0.000 
#
# Total GULP energy -644523.327890 kJ/mol
# GULP energy per Si atom -12394.679382 kJ/mol
# Density = 1.874392 g / cm^3
# Si number density = 18.786684 Si / 1000 Ang^3
#
#
#
# Elastic Constant Matrix: (Units=GPa)
#
#
# Indices 1 2 3 4 5 6 
#
# 1 61.0728 58.4319 33.7141 0.0000 0.0000 0.0000
# 2 58.4319 145.0551 59.4051 0.0000 0.0000 0.0000
# 3 33.7141 59.4051 88.9177 0.0000 0.0000 0.0000
# 4 0.0000 0.0000 0.0000 13.5335 0.0000 0.0000
# 5 0.0000 0.0000 0.0000 0.0000 14.5079 0.0000
# 6 0.0000 0.0000 0.0000 0.0000 0.0000 30.7507
#
#
#
# Elastic Compliance Matrix: (Units=1/GPa)
#
#
# Indices 1 2 3 4 5 6 
#
# 1 0.027737 -0.009452 -0.004202 0.000000 0.000000 0.000000
# 2 -0.009452 0.012712 -0.004909 0.000000 0.000000 0.000000
# 3 -0.004202 -0.004909 0.016119 0.000000 0.000000 0.000000
# 4 0.000000 0.000000 0.000000 0.073891 0.000000 0.000000
# 5 0.000000 0.000000 0.000000 0.000000 0.068928 0.000000
# 6 0.000000 0.000000 0.000000 0.000000 0.000000 0.032520
#
#
# Mechanical properties :
#
#
# Convention : Reuss Voigt Hill
#
# Bulk Modulus (GPa) = 51.43452 66.46086 58.94769
# Shear Modulus (GPa) = 18.14801 21.32474 19.73637
#
# Velocity S-wave (km/s) = 3.11143 3.37278 3.24474
# Velocity P-wave (km/s) = 6.35182 7.11483 6.74413
#
# Compressibility (1/GPa) = 0.01944220
#
# Stress axis : x y z
#
# Youngs Moduli (GPa) = 36.05275 78.66636 62.03881
#
# Poissons Ratio (x) = 0.74359 0.26067
# Poissons Ratio (y) = 0.34079 0.30453
# Poissons Ratio (z) = 0.15148 0.38615
#
# Static dielectric constant tensor:
#      x y z
#    x 3.509960 0.000000 0.000000 
#    y 0.000000 3.527260 0.000000 
#    z 0.000000 0.000000 3.269860 
# 
# 
# High freq. dielectric constant tensor:
#      x y z
#    x 1.723280 0.000000 0.000000 
#    y 0.000000 1.732250 0.000000 
#    z 0.000000 0.000000 1.712440 
# 
# From -- ./inp_files/14721.got.cif
#   From: 2010.03.12/outbox.cif.g09.slc.cpg/sg65_8_cif.got.tgz:14721.got - 2010.04.10 20:52:16.
