data_PCOD8266255
_publ_section_title
;
Structure prediction by ZEFSAII (Michael W. Deem and Ramdas Pophale) SiO2 
 PCOD8266255
Probable space group: C M M M
;
_chemical_formula_sum "Si O2"
_cell_formula_units_Z 72
_cell_length_a 36.005358
_cell_length_b 14.632958
_cell_length_c 7.972508
_cell_angle_alpha 90.000000
_cell_angle_beta 90.000000
_cell_angle_gamma 90.000000
_cell_volume 4200.434562
_symmetry_space_group_name_H-M "C M M M"
_symmetry_group_IT_number 65
_symmetry_cell_setting 'orthorhombic'
loop_
_space_group_symop_operation_xyz
x,y,z
-x,-y,z
x,-y,-z
-x,y,-z
-x,-y,-z
x,y,-z
-x,y,z
x,-y,z
1/2+x,1/2+y,z
1/2-x,1/2-y,z
1/2+x,1/2-y,-z
1/2-x,1/2+y,-z
1/2-x,1/2-y,-z
1/2+x,1/2+y,-z
1/2-x,1/2+y,z
1/2+x,1/2-y,z
loop_
_atom_site_type_symbol
_atom_site_label
_atom_site_fract_x
_atom_site_fract_y
_atom_site_fract_z
Si Si1 0.590779 0.105765 0.311168
Si Si2 0.160291 0.710684 0.193527
Si Si3 0.041383 0.391779 0.000000
Si Si4 0.188427 0.097877 0.195296
Si Si5 0.264896 0.148992 0.315517
O O1 0.574205 0.117423 0.500000
O O2 0.627866 0.165611 0.301010
O O3 0.561860 0.141266 0.170393
O O4 0.600822 0.000000 0.276381
O O5 0.168296 0.812416 0.272754
O O6 0.197212 0.648324 0.208275
O O7 0.148184 0.714425 0.000000
O O8 0.038846 0.500000 0.000000
O O9 0.000000 0.349189 0.000000
O O10 0.232552 0.091688 0.227395
O O11 0.171687 0.000000 0.260636
O O12 0.181871 0.106948 0.000000
O O13 0.273156 0.108271 0.500000
O O14 0.250000 0.250000 0.331875
#
# Coordination Sequence:
#
# PCOD8266255 Si02
#       5
#    16  16   8  16  16
#     4  10  20  33  50  74 102 130 160 193 231 278
#     4  10  18  30  48  66  91 126 161 202 246 286
#     4   9  18  34  54  76 102 129 157 187 224 278
#     4   9  18  31  45  63  88 121 163 207 249 291
#     4   9  17  28  41  58  81 113 156 203 246 285
#
# _framework density 17.141083999999999
#
# number of rings (size 3 to 8) (size 9 to 14) (size 15 to 20)
#    0.000    2.556    1.111    1.333    0.000    5.333 
#    0.000    2.222    0.000    0.000    0.000    0.000 
#    0.000    1.778    0.000    2.000    0.000    0.222 
#
# Total GULP energy -446017.537727 kJ/mol
# GULP energy per Si atom -12389.376048 kJ/mol
# Density = 1.710207 g / cm^3
# Si number density = 17.141084 Si / 1000 Ang^3
#
#
#
# Elastic Constant Matrix: (Units=GPa)
#
#
# Indices 1 2 3 4 5 6 
#
# 1 95.5115 33.7390 39.1555 0.0000 0.0000 0.0000
# 2 33.7390 72.7046 22.8874 0.0000 0.0000 0.0000
# 3 39.1555 22.8874 76.4010 0.0000 0.0000 0.0000
# 4 0.0000 0.0000 0.0000 9.9041 0.0000 0.0000
# 5 0.0000 0.0000 0.0000 0.0000 16.4287 0.0000
# 6 0.0000 0.0000 0.0000 0.0000 0.0000 11.5472
#
#
#
# Elastic Compliance Matrix: (Units=1/GPa)
#
#
# Indices 1 2 3 4 5 6 
#
# 1 0.014687 -0.004909 -0.006056 0.000000 0.000000 0.000000
# 2 -0.004909 0.016827 -0.002525 0.000000 0.000000 0.000000
# 3 -0.006056 -0.002525 0.016949 0.000000 0.000000 0.000000
# 4 0.000000 0.000000 0.000000 0.100968 0.000000 0.000000
# 5 0.000000 0.000000 0.000000 0.000000 0.060869 0.000000
# 6 0.000000 0.000000 0.000000 0.000000 0.000000 0.086601
#
#
# Mechanical properties :
#
#
# Convention : Reuss Voigt Hill
#
# Bulk Modulus (GPa) = 46.54991 48.46454 47.50722
# Shear Modulus (GPa) = 15.10377 17.49836 16.30106
#
# Velocity S-wave (km/s) = 2.97163 3.19853 3.08716
# Velocity P-wave (km/s) = 6.24420 6.47889 6.36263
#
# Compressibility (1/GPa) = 0.02148232
#
# Stress axis : x y z
#
# Youngs Moduli (GPa) = 68.08796 59.42751 58.99989
#
# Poissons Ratio (x) = 0.29173 0.35733
# Poissons Ratio (y) = 0.33424 0.14898
# Poissons Ratio (z) = 0.41237 0.15006
#
# Static dielectric constant tensor:
#      x y z
#    x 3.083180 0.000000 0.000000 
#    y 0.000000 3.432380 0.000000 
#    z 0.000000 0.000000 3.319150 
# 
# 
# High freq. dielectric constant tensor:
#      x y z
#    x 1.619960 0.000000 0.000000 
#    y 0.000000 1.642050 0.000000 
#    z 0.000000 0.000000 1.669740 
# 
# From -- ./inp_files/18010.got.cif
#   From: 2010.03.12/outbox.cif.g09.slc.cpg/sg65_10_cif.got.tgz:18010.got - 2010.04.10 20:52:16.
