data_PCOD8266570
_publ_section_title
;
Structure prediction by ZEFSAII (Michael W. Deem and Ramdas Pophale) SiO2 
 PCOD8266570
Probable space group: C M M M
;
_chemical_formula_sum "Si O2"
_cell_formula_units_Z 88
_cell_length_a 28.831036
_cell_length_b 8.610499
_cell_length_c 18.245427
_cell_angle_alpha 90.000000
_cell_angle_beta 90.000000
_cell_angle_gamma 90.000000
_cell_volume 4529.420076
_symmetry_space_group_name_H-M "C M M M"
_symmetry_group_IT_number 65
_symmetry_cell_setting 'orthorhombic'
loop_
_space_group_symop_operation_xyz
x,y,z
-x,-y,z
x,-y,-z
-x,y,-z
-x,-y,-z
x,y,-z
-x,y,z
x,-y,z
1/2+x,1/2+y,z
1/2-x,1/2-y,z
1/2+x,1/2-y,-z
1/2-x,1/2+y,-z
1/2-x,1/2-y,-z
1/2+x,1/2+y,-z
1/2-x,1/2+y,z
1/2+x,1/2-y,z
loop_
_atom_site_type_symbol
_atom_site_label
_atom_site_fract_x
_atom_site_fract_y
_atom_site_fract_z
Si Si1 0.052187 0.815421 0.000000
Si Si2 0.201515 0.316591 0.814176
Si Si3 0.608397 0.315493 0.140982
Si Si4 0.552135 0.685237 0.282207
Si Si5 0.797562 0.183316 0.346093
Si Si6 0.108599 0.815969 0.580642
O O1 0.078941 0.755778 0.928176
O O2 0.000000 0.747232 0.000000
O O3 0.049963 0.000000 0.000000
O O4 0.204307 0.500000 0.814652
O O5 0.250000 0.250000 0.845252
O O6 0.159391 0.258685 0.864888
O O7 0.192243 0.256889 0.732479
O O8 0.613336 0.500000 0.141436
O O9 0.582425 0.254934 0.213965
O O10 0.500000 0.749765 0.274795
O O11 0.552190 0.500000 0.282705
O O12 0.573826 0.751491 0.357895
O O13 0.750000 0.250000 0.379942
O O14 0.838706 0.230845 0.400604
O O15 0.793764 0.000000 0.335284
O O16 0.096145 0.748449 0.500000
O O17 0.103976 0.000000 0.579741
#
# Coordination Sequence:
#
# PCOD8266570 Si02
#       6
#     8  16  16  16  16  16
#     4   9  18  32  56  89 118 143 176 221 266 309
#     4  11  21  34  55  81 107 139 178 218 263 315
#     4  10  18  33  55  82 112 141 174 215 262 311
#     4   9  16  27  47  73 101 136 176 216 258 306
#     4  10  18  31  50  74 103 137 173 217 266 314
#     4   9  17  28  43  69 105 138 171 216 265 309
#
# _framework density 19.428536000000001
#
# number of rings (size 3 to 8) (size 9 to 14) (size 15 to 20)
#    0.000    2.273    1.818    3.818    0.000    2.909 
#    0.000    2.727    0.000    4.364    0.000    0.000 
#    0.000    1.455    0.000    0.000    0.000    0.000 
#
# Total GULP energy -545536.271105 kJ/mol
# GULP energy per Si atom -12398.551616 kJ/mol
# Density = 1.938432 g / cm^3
# Si number density = 19.428536 Si / 1000 Ang^3
#
#
#
# Elastic Constant Matrix: (Units=GPa)
#
#
# Indices 1 2 3 4 5 6 
#
# 1 175.5960 33.9632 86.0515 0.0000 0.0000 0.0000
# 2 33.9632 56.9593 19.7638 0.0000 0.0000 0.0000
# 3 86.0515 19.7638 134.2969 0.0000 0.0000 0.0000
# 4 0.0000 0.0000 0.0000 9.4112 0.0000 0.0000
# 5 0.0000 0.0000 0.0000 0.0000 31.2072 0.0000
# 6 0.0000 0.0000 0.0000 0.0000 0.0000 23.7606
#
#
#
# Elastic Compliance Matrix: (Units=1/GPa)
#
#
# Indices 1 2 3 4 5 6 
#
# 1 0.008923 -0.003516 -0.005200 0.000000 0.000000 0.000000
# 2 -0.003516 0.019887 -0.000673 0.000000 0.000000 0.000000
# 3 -0.005200 -0.000673 0.010877 0.000000 0.000000 0.000000
# 4 0.000000 0.000000 0.000000 0.106256 0.000000 0.000000
# 5 0.000000 0.000000 0.000000 0.000000 0.032044 0.000000
# 6 0.000000 0.000000 0.000000 0.000000 0.000000 0.042086
#
#
# Mechanical properties :
#
#
# Convention : Reuss Voigt Hill
#
# Bulk Modulus (GPa) = 47.83006 71.82325 59.82666
# Shear Modulus (GPa) = 20.33978 28.01405 24.17691
#
# Velocity S-wave (km/s) = 3.23910 3.80136 3.53144
# Velocity P-wave (km/s) = 6.21779 7.50435 6.89116
#
# Compressibility (1/GPa) = 0.02090735
#
# Stress axis : x y z
#
# Youngs Moduli (GPa) = 112.06470 50.28465 91.93386
#
# Poissons Ratio (x) = 0.17682 0.47808
# Poissons Ratio (y) = 0.39406 0.06192
# Poissons Ratio (z) = 0.58276 0.03387
#
# Static dielectric constant tensor:
#      x y z
#    x 3.876390 0.000000 0.000000 
#    y 0.000000 3.067600 0.000000 
#    z 0.000000 0.000000 3.630850 
# 
# 
# High freq. dielectric constant tensor:
#      x y z
#    x 1.773690 0.000000 0.000000 
#    y 0.000000 1.707960 0.000000 
#    z 0.000000 0.000000 1.745750 
# 
# From -- ./inp_files/57974.got.cif
#   From: 2010.03.12/outbox.cif.g09.slc.cpg/sg65_29_cif.got.tgz:57974.got - 2010.04.10 20:52:16.
