data_PCOD8266545
_publ_section_title
;
Structure prediction by ZEFSAII (Michael W. Deem and Ramdas Pophale) SiO2 
 PCOD8266545
Probable space group: C M M M
;
_chemical_formula_sum "Si O2"
_cell_formula_units_Z 88
_cell_length_a 28.842511
_cell_length_b 17.304753
_cell_length_c 9.109079
_cell_angle_alpha 90.000000
_cell_angle_beta 90.000000
_cell_angle_gamma 90.000000
_cell_volume 4546.455454
_symmetry_space_group_name_H-M "C M M M"
_symmetry_group_IT_number 65
_symmetry_cell_setting 'orthorhombic'
loop_
_space_group_symop_operation_xyz
x,y,z
-x,-y,z
x,-y,-z
-x,y,-z
-x,-y,-z
x,y,-z
-x,y,z
x,-y,z
1/2+x,1/2+y,z
1/2-x,1/2-y,z
1/2+x,1/2-y,-z
1/2-x,1/2+y,-z
1/2-x,1/2-y,-z
1/2+x,1/2+y,-z
1/2-x,1/2+y,z
1/2+x,1/2-y,z
loop_
_atom_site_type_symbol
_atom_site_label
_atom_site_fract_x
_atom_site_fract_y
_atom_site_fract_z
Si Si1 0.551973 0.686555 0.325335
Si Si2 0.680817 0.916093 0.327078
Si Si3 0.231099 0.831539 0.674976
Si Si4 0.053356 0.500000 0.160003
Si Si5 0.086705 0.351119 0.327190
Si Si6 0.138051 0.912050 0.675109
O O1 0.553438 0.687982 0.500000
O O2 0.500000 0.664766 0.270213
O O3 0.565480 0.771512 0.265630
O O4 0.589550 0.624423 0.266936
O O5 0.684980 0.923298 0.500000
O O6 0.731004 0.892551 0.266207
O O7 0.641704 0.852483 0.289597
O O8 0.666774 0.000000 0.260675
O O9 0.228683 0.827361 0.500000
O O10 0.250000 0.750000 0.737104
O O11 0.180874 0.859477 0.734717
O O12 0.063860 0.423614 0.250871
O O13 0.000000 0.500000 0.128046
O O14 0.078839 0.500000 0.000000
O O15 0.077633 0.358919 0.500000
O O16 0.138924 0.912370 0.500000
O O17 0.142087 0.000000 0.734258
#
# Coordination Sequence:
#
# PCOD8266545 Si02
#       6
#    16  16  16   8  16  16
#     4   9  17  27  40  59  83 117 163 206 238 280
#     4   9  15  23  37  58  82 110 145 184 223 269
#     4   9  15  22  33  52  81 118 152 184 232 288
#     4  11  23  35  47  67  97 129 161 201 246 289
#     4  10  18  31  49  69  92 124 165 202 239 285
#     4   9  16  25  36  54  86 127 161 193 242 298
#
# _framework density 19.355739
#
# number of rings (size 3 to 8) (size 9 to 14) (size 15 to 20)
#    0.000    2.636    0.909    2.455    0.000    8.364 
#    0.000    1.818    0.000    0.000    0.000    0.000 
#    0.000    7.273    0.000    3.818    0.000    3.636 
#
# Total GULP energy -545157.578539 kJ/mol
# GULP energy per Si atom -12389.944967 kJ/mol
# Density = 1.931168 g / cm^3
# Si number density = 19.355739 Si / 1000 Ang^3
#
#
#
# Elastic Constant Matrix: (Units=GPa)
#
#
# Indices 1 2 3 4 5 6 
#
# 1 172.4949 79.3369 9.1989 0.0000 0.0000 0.0000
# 2 79.3369 148.0460 9.6639 0.0000 0.0000 0.0000
# 3 9.1989 9.6639 14.0935 0.0000 0.0000 0.0000
# 4 0.0000 0.0000 0.0000 -0.1949 0.0000 0.0000
# 5 0.0000 0.0000 0.0000 0.0000 2.5899 0.0000
# 6 0.0000 0.0000 0.0000 0.0000 0.0000 30.1509
#
#
#
# Elastic Compliance Matrix: (Units=1/GPa)
#
#
# Indices 1 2 3 4 5 6 
#
# 1 0.007765 -0.004010 -0.002319 0.000000 0.000000 0.000000
# 2 -0.004010 0.009142 -0.003651 0.000000 0.000000 0.000000
# 3 -0.002319 -0.003651 0.074972 0.000000 0.000000 0.000000
# 4 0.000000 0.000000 0.000000 -5.131899 0.000000 0.000000
# 5 0.000000 0.000000 0.000000 0.000000 0.386114 0.000000
# 6 0.000000 0.000000 0.000000 0.000000 0.000000 0.033166
#
#
# Mechanical properties :
#
#
# Convention : Reuss Voigt Hill
#
# Bulk Modulus (GPa) = 13.90459 59.00376 36.45417
# Shear Modulus (GPa) = -1.09246 22.27151 10.58952
#
# Velocity S-wave (km/s) = -0.75209 3.39579 2.34155
# Velocity P-wave (km/s) = 2.53872 6.77682 5.11714
#
# Compressibility (1/GPa) = 0.07191872
#
# Stress axis : x y z
#
# Youngs Moduli (GPa) = 128.77833 109.38603 13.33839
#
# Poissons Ratio (x) = 0.43864 0.03093
# Poissons Ratio (y) = 0.51640 0.04870
# Poissons Ratio (z) = 0.29861 0.39940
#
# Static dielectric constant tensor:
#      x y z
#    x 3.954580 0.000000 0.000000 
#    y 0.000000 3.792010 0.000000 
#    z 0.000000 0.000000 2.705030 
# 
# 
# High freq. dielectric constant tensor:
#      x y z
#    x 1.773900 0.000000 0.000000 
#    y 0.000000 1.761980 0.000000 
#    z 0.000000 0.000000 1.650980 
# 
# From -- ./inp_files/18275.got.cif
#   From: 2010.03.12/outbox.cif.g09.slc.cpg/sg65_10_cif.got.tgz:18275.got - 2010.04.10 20:52:16.
