data_PCOD8266299
_publ_section_title
;
Structure prediction by ZEFSAII (Michael W. Deem and Ramdas Pophale) SiO2 
 PCOD8266299
Probable space group: C M M M
;
_chemical_formula_sum "Si O2"
_cell_formula_units_Z 80
_cell_length_a 28.671938
_cell_length_b 13.636874
_cell_length_c 11.902119
_cell_angle_alpha 90.000000
_cell_angle_beta 90.000000
_cell_angle_gamma 90.000000
_cell_volume 4653.676229
_symmetry_space_group_name_H-M "C M M M"
_symmetry_group_IT_number 65
_symmetry_cell_setting 'orthorhombic'
loop_
_space_group_symop_operation_xyz
x,y,z
-x,-y,z
x,-y,-z
-x,y,-z
-x,-y,-z
x,y,-z
-x,y,z
x,-y,z
1/2+x,1/2+y,z
1/2-x,1/2-y,z
1/2+x,1/2-y,-z
1/2-x,1/2+y,-z
1/2-x,1/2-y,-z
1/2+x,1/2+y,-z
1/2-x,1/2+y,z
1/2+x,1/2-y,z
loop_
_atom_site_type_symbol
_atom_site_label
_atom_site_fract_x
_atom_site_fract_y
_atom_site_fract_z
Si Si1 0.411994 0.384009 0.000000
Si Si2 0.278791 0.384169 0.759805
Si Si3 0.192556 0.116786 0.000000
Si Si4 0.310351 0.110682 0.371445
Si Si5 0.946666 0.885736 0.761487
Si Si6 0.364655 0.703051 0.629626
O O1 0.439113 0.348393 0.889037
O O2 0.410068 0.500000 0.000000
O O3 0.359854 0.339959 0.000000
O O4 0.274873 0.500000 0.756280
O O5 0.231657 0.342782 0.702674
O O6 0.325228 0.357393 0.693440
O O7 0.281099 0.345518 0.888309
O O8 0.189932 0.000000 0.000000
O O9 0.292959 0.112105 0.500000
O O10 0.355211 0.180380 0.355412
O O11 0.324030 0.000000 0.334806
O O12 0.915222 0.821472 0.678621
O O13 0.000000 0.868124 0.726873
O O14 0.932904 0.000000 0.749898
O O15 0.363504 0.671895 0.500000
#
# Coordination Sequence:
#
# PCOD8266299 Si02
#       6
#     8  16   8  16  16  16
#     4   9  15  30  50  70  97 131 165 191 222 275
#     4  10  18  30  48  72 101 130 161 195 234 282
#     4   9  16  27  46  70 100 133 162 192 228 276
#     4   9  19  35  52  68  90 126 170 208 238 276
#     4  10  20  33  51  75 101 128 157 192 237 288
#     4  11  21  32  48  70  98 129 162 199 240 287
#
# _framework density 17.190709999999999
#
# number of rings (size 3 to 8) (size 9 to 14) (size 15 to 20)
#    0.000    2.200    2.000    2.100    0.000    5.600 
#    0.000    4.000    0.000    0.600    0.000    2.800 
#    0.000    1.600    0.000    0.000    0.000    0.000 
#
# Total GULP energy -495946.716937 kJ/mol
# GULP energy per Si atom -12398.667923 kJ/mol
# Density = 1.715158 g / cm^3
# Si number density = 17.190710 Si / 1000 Ang^3
#
#
#
# Elastic Constant Matrix: (Units=GPa)
#
#
# Indices 1 2 3 4 5 6 
#
# 1 104.2516 41.0081 57.6523 0.0000 0.0000 0.0000
# 2 41.0081 38.7455 34.0435 0.0000 0.0000 0.0000
# 3 57.6523 34.0435 129.2916 0.0000 0.0000 0.0000
# 4 0.0000 0.0000 0.0000 13.7914 0.0000 0.0000
# 5 0.0000 0.0000 0.0000 0.0000 25.5163 0.0000
# 6 0.0000 0.0000 0.0000 0.0000 0.0000 24.1572
#
#
#
# Elastic Compliance Matrix: (Units=1/GPa)
#
#
# Indices 1 2 3 4 5 6 
#
# 1 0.017811 -0.015446 -0.003875 0.000000 0.000000 0.000000
# 2 -0.015446 0.046973 -0.005481 0.000000 0.000000 0.000000
# 3 -0.003875 -0.005481 0.010905 0.000000 0.000000 0.000000
# 4 0.000000 0.000000 0.000000 0.072509 0.000000 0.000000
# 5 0.000000 0.000000 0.000000 0.000000 0.039191 0.000000
# 6 0.000000 0.000000 0.000000 0.000000 0.000000 0.041396
#
#
# Mechanical properties :
#
#
# Convention : Reuss Voigt Hill
#
# Bulk Modulus (GPa) = 38.33520 59.74405 49.03963
# Shear Modulus (GPa) = 17.41649 21.99864 19.70756
#
# Velocity S-wave (km/s) = 3.18643 3.58114 3.38954
# Velocity P-wave (km/s) = 5.99050 7.20615 6.62626
#
# Compressibility (1/GPa) = 0.02608568
#
# Stress axis : x y z
#
# Youngs Moduli (GPa) = 56.14507 21.28863 91.69721
#
# Poissons Ratio (x) = 0.32883 0.35532
# Poissons Ratio (y) = 0.86724 0.50257
# Poissons Ratio (z) = 0.21756 0.11668
#
# Static dielectric constant tensor:
#      x y z
#    x 3.084620 0.000000 0.000000 
#    y 0.000000 3.039850 0.000000 
#    z 0.000000 0.000000 3.501870 
# 
# 
# High freq. dielectric constant tensor:
#      x y z
#    x 1.646820 0.000000 0.000000 
#    y 0.000000 1.635750 0.000000 
#    z 0.000000 0.000000 1.676200 
# 
# From -- ./inp_files/24708.got.cif
#   From: 2010.03.12/outbox.cif.g09.slc.cpg/sg65_13_cif.got.tgz:24708.got - 2010.04.10 20:52:16.
