data_PCOD8266926
_publ_section_title
;
Structure prediction by ZEFSAII (Michael W. Deem and Ramdas Pophale) SiO2 
 PCOD8266926
Probable space group: C M M M
;
_chemical_formula_sum "Si O2"
_cell_formula_units_Z 128
_cell_length_a 19.198258
_cell_length_b 19.850207
_cell_length_c 19.406389
_cell_angle_alpha 90.000000
_cell_angle_beta 90.000000
_cell_angle_gamma 90.000000
_cell_volume 7395.569050
_symmetry_space_group_name_H-M "C M M M"
_symmetry_group_IT_number 65
_symmetry_cell_setting 'orthorhombic'
loop_
_space_group_symop_operation_xyz
x,y,z
-x,-y,z
x,-y,-z
-x,y,-z
-x,-y,-z
x,y,-z
-x,y,z
x,-y,z
1/2+x,1/2+y,z
1/2-x,1/2-y,z
1/2+x,1/2-y,-z
1/2-x,1/2+y,-z
1/2-x,1/2-y,-z
1/2+x,1/2+y,-z
1/2-x,1/2+y,z
1/2+x,1/2-y,z
loop_
_atom_site_type_symbol
_atom_site_label
_atom_site_fract_x
_atom_site_fract_y
_atom_site_fract_z
Si Si1 0.077915 0.752313 0.078569
Si Si2 0.418882 0.852654 0.578489
Si Si3 0.327981 0.276456 0.425328
Si Si4 0.204519 0.574749 0.077035
Si Si5 0.079377 0.615979 0.841477
Si Si6 0.298059 0.684406 0.854763
Si Si7 0.720505 0.674670 0.296195
Si Si8 0.851663 0.579131 0.701673
O O1 0.089218 0.692140 0.132355
O O2 0.132899 0.809964 0.098792
O O3 0.000000 0.781909 0.085480
O O4 0.091286 0.727996 0.000000
O O5 0.403983 0.875884 0.500000
O O6 0.500000 0.840098 0.591137
O O7 0.379294 0.783761 0.595875
O O8 0.391295 0.910760 0.629333
O O9 0.351022 0.307172 0.500000
O O10 0.250000 0.250000 0.433773
O O11 0.330168 0.332326 0.363515
O O12 0.236353 0.500000 0.075898
O O13 0.128381 0.569758 0.111557
O O14 0.254919 0.620489 0.121335
O O15 0.197693 0.604087 0.000000
O O16 0.101154 0.611223 0.761853
O O17 0.000000 0.591505 0.850277
O O18 0.250000 0.750000 0.862384
O O19 0.320768 0.670247 0.775847
O O20 0.750000 0.750000 0.301758
O O21 0.778073 0.616708 0.299178
O O22 0.839509 0.500000 0.714510
#
# Coordination Sequence:
#
# PCOD8266926 Si02
#       8
#    16  16  16  16  16  16  16  16
#     4  10  21  36  56  83 109 134 174 231 283 324
#     4  10  21  36  54  79 111 147 184 220 260 312
#     4   9  16  30  54  76  99 137 179 219 263 307
#     4  11  23  36  52  76 104 138 182 225 267 323
#     4  11  22  36  52  72 105 147 181 212 258 316
#     4  11  20  34  57  78 103 137 176 224 273 325
#     4  10  18  33  55  76  99 134 181 226 265 307
#     4  12  23  36  53  77 110 148 185 221 263 313
#
# _framework density 17.307661
#
# number of rings (size 3 to 8) (size 9 to 14) (size 15 to 20)
#    0.000    1.500    5.000    2.250    0.000    3.250 
#    0.000    1.250    0.000    0.375    0.000    1.750 
#    0.000    1.500    0.000    3.125    0.000    0.000 
#
# Total GULP energy -793295.539667 kJ/mol
# GULP energy per Si atom -12395.242807 kJ/mol
# Density = 1.726827 g / cm^3
# Si number density = 17.307661 Si / 1000 Ang^3
#
#
#
# Elastic Constant Matrix: (Units=GPa)
#
#
# Indices 1 2 3 4 5 6 
#
# 1 68.7973 40.4566 37.7963 0.0000 0.0000 0.0000
# 2 40.4566 68.4431 40.4917 0.0000 0.0000 0.0000
# 3 37.7963 40.4917 144.5959 0.0000 0.0000 0.0000
# 4 0.0000 0.0000 0.0000 -15.6138 0.0000 0.0000
# 5 0.0000 0.0000 0.0000 0.0000 27.8196 0.0000
# 6 0.0000 0.0000 0.0000 0.0000 0.0000 17.2221
#
#
#
# Elastic Compliance Matrix: (Units=1/GPa)
#
#
# Indices 1 2 3 4 5 6 
#
# 1 0.023100 -0.012084 -0.002654 0.000000 0.000000 0.000000
# 2 -0.012084 0.023833 -0.003515 0.000000 0.000000 0.000000
# 3 -0.002654 -0.003515 0.008594 0.000000 0.000000 0.000000
# 4 0.000000 0.000000 0.000000 -0.064046 0.000000 0.000000
# 5 0.000000 0.000000 0.000000 0.000000 0.035946 0.000000
# 6 0.000000 0.000000 0.000000 0.000000 0.000000 0.058065
#
#
# Mechanical properties :
#
#
# Convention : Reuss Voigt Hill
#
# Bulk Modulus (GPa) = 52.57668 57.70282 55.13975
# Shear Modulus (GPa) = 38.95934 16.75834 27.85884
#
# Velocity S-wave (km/s) = 4.74960 3.11507 4.01637
# Velocity P-wave (km/s) = 7.77959 6.80809 7.30999
#
# Compressibility (1/GPa) = 0.01901984
#
# Stress axis : x y z
#
# Youngs Moduli (GPa) = 43.29077 41.95822 116.35946
#
# Poissons Ratio (x) = 0.50702 0.30884
# Poissons Ratio (y) = 0.52312 0.40906
# Poissons Ratio (z) = 0.11490 0.14750
#
# Static dielectric constant tensor:
#      x y z
#    x 3.212510 0.000000 0.000000 
#    y 0.000000 2.920230 0.000000 
#    z 0.000000 0.000000 4.047260 
# 
# 
# High freq. dielectric constant tensor:
#      x y z
#    x 1.650050 0.000000 0.000000 
#    y 0.000000 1.629730 0.000000 
#    z 0.000000 0.000000 1.700400 
# 
# From -- ./inp_files/64151.got.cif
#   From: 2010.03.12/outbox.cif.g09.slc.cpg/sg65_33_cif.got.tgz:64151.got - 2010.04.10 20:52:16.
