data_PCOD8266092
_publ_section_title
;
Structure prediction by ZEFSAII (Michael W. Deem and Ramdas Pophale) SiO2 
 PCOD8266092
Probable space group: C M M M
;
_chemical_formula_sum "Si O2"
_cell_formula_units_Z 120
_cell_length_a 17.301995
_cell_length_b 17.763360
_cell_length_c 22.428464
_cell_angle_alpha 90.000000
_cell_angle_beta 90.000000
_cell_angle_gamma 90.000000
_cell_volume 6893.199247
_symmetry_space_group_name_H-M "C M M M"
_symmetry_group_IT_number 65
_symmetry_cell_setting 'orthorhombic'
loop_
_space_group_symop_operation_xyz
x,y,z
-x,-y,z
x,-y,-z
-x,y,-z
-x,-y,-z
x,y,-z
-x,y,z
x,-y,z
1/2+x,1/2+y,z
1/2-x,1/2-y,z
1/2+x,1/2-y,-z
1/2-x,1/2+y,-z
1/2-x,1/2-y,-z
1/2+x,1/2+y,-z
1/2-x,1/2+y,z
1/2+x,1/2-y,z
loop_
_atom_site_type_symbol
_atom_site_label
_atom_site_fract_x
_atom_site_fract_y
_atom_site_fract_z
Si Si1 0.911824 0.693462 0.627701
Si Si2 0.302584 0.914876 0.225608
Si Si3 0.348975 0.332521 0.569531
Si Si4 0.411027 0.585423 0.070023
Si Si5 0.500000 0.583282 0.429134
Si Si6 0.087756 0.717756 0.763479
Si Si7 0.307986 0.684623 0.152907
Si Si8 0.217427 0.584672 0.361233
O O1 0.864776 0.744843 0.581115
O O2 0.907343 0.732087 0.692720
O O3 0.870313 0.612369 0.627412
O O4 0.000000 0.682118 0.606853
O O5 0.380067 0.865178 0.221364
O O6 0.239337 0.884431 0.180024
O O7 0.264824 0.911411 0.291136
O O8 0.325133 0.000000 0.208292
O O9 0.334506 0.346880 0.500000
O O10 0.423855 0.375918 0.594692
O O11 0.275178 0.360328 0.605106
O O12 0.500000 0.600630 0.087347
O O13 0.388448 0.500000 0.089715
O O14 0.358673 0.649530 0.100169
O O15 0.398685 0.594116 0.000000
O O16 0.500000 0.500000 0.402328
O O17 0.500000 0.583259 0.500000
O O18 0.137631 0.781550 0.795664
O O19 0.000000 0.721619 0.786483
O O20 0.250000 0.750000 0.128664
O O21 0.225591 0.500000 0.385979
#
# Coordination Sequence:
#
# PCOD8266092 Si02
#       8
#    16  16  16  16   8  16  16  16
#     4  10  20  35  53  74  99 126 160 198 237 287
#     4   9  18  32  49  70  97 127 158 194 236 282
#     4  11  21  35  53  72  94 121 157 196 239 292
#     4   9  18  32  49  69  95 130 170 207 240 277
#     4   9  18  32  50  70  91 115 145 185 229 275
#     4   9  18  31  49  72  96 126 159 194 236 281
#     4  10  18  29  48  73 101 129 158 196 243 288
#     4  10  21  35  52  74  99 127 159 197 240 287
#
# _framework density 17.408463000000001
#
# number of rings (size 3 to 8) (size 9 to 14) (size 15 to 20)
#    0.000    2.333    0.667    2.800    0.000    4.800 
#    0.000    2.667    0.000    0.000    0.000    1.867 
#    0.000    0.000    0.000   24.800    0.000    0.267 
#
# Total GULP energy -743960.682223 kJ/mol
# GULP energy per Si atom -12399.344704 kJ/mol
# Density = 1.736884 g / cm^3
# Si number density = 17.408463 Si / 1000 Ang^3
#
#
#
# Elastic Constant Matrix: (Units=GPa)
#
#
# Indices 1 2 3 4 5 6 
#
# 1 91.4350 28.4585 22.9261 0.0000 0.0000 0.0000
# 2 28.4585 74.4024 17.6531 0.0000 0.0000 0.0000
# 3 22.9261 17.6531 37.3176 0.0000 0.0000 0.0000
# 4 0.0000 0.0000 0.0000 22.7582 0.0000 0.0000
# 5 0.0000 0.0000 0.0000 0.0000 24.1165 0.0000
# 6 0.0000 0.0000 0.0000 0.0000 0.0000 24.8734
#
#
#
# Elastic Compliance Matrix: (Units=1/GPa)
#
#
# Indices 1 2 3 4 5 6 
#
# 1 0.013764 -0.003670 -0.006720 0.000000 0.000000 0.000000
# 2 -0.003670 0.016118 -0.005370 0.000000 0.000000 0.000000
# 3 -0.006720 -0.005370 0.033466 0.000000 0.000000 0.000000
# 4 0.000000 0.000000 0.000000 0.043940 0.000000 0.000000
# 5 0.000000 0.000000 0.000000 0.000000 0.041465 0.000000
# 6 0.000000 0.000000 0.000000 0.000000 0.000000 0.040204
#
#
# Mechanical properties :
#
#
# Convention : Reuss Voigt Hill
#
# Bulk Modulus (GPa) = 31.41884 37.91448 34.66666
# Shear Modulus (GPa) = 21.63695 23.29077 22.46386
#
# Velocity S-wave (km/s) = 3.52930 3.66170 3.59611
# Velocity P-wave (km/s) = 5.89026 6.30111 6.09915
#
# Compressibility (1/GPa) = 0.03182803
#
# Stress axis : x y z
#
# Youngs Moduli (GPa) = 72.65362 62.04088 29.88151
#
# Poissons Ratio (x) = 0.22771 0.20079
# Poissons Ratio (y) = 0.26666 0.16046
# Poissons Ratio (z) = 0.48821 0.33316
#
# Static dielectric constant tensor:
#      x y z
#    x 3.320800 0.000000 0.000000 
#    y 0.000000 3.290620 0.000000 
#    z 0.000000 0.000000 2.955700 
# 
# 
# High freq. dielectric constant tensor:
#      x y z
#    x 1.679720 0.000000 0.000000 
#    y 0.000000 1.676970 0.000000 
#    z 0.000000 0.000000 1.645170 
# 
# From -- ./inp_files/64001.got.cif
#   From: 2010.03.12/outbox.cif.g09.slc.cpg/sg65_33_cif.got.tgz:64001.got - 2010.04.10 20:52:16.
