data_PCOD8266286
_publ_section_title
;
Structure prediction by ZEFSAII (Michael W. Deem and Ramdas Pophale) SiO2 
 PCOD8266286
Probable space group: C M M M
;
_chemical_formula_sum "Si O2"
_cell_formula_units_Z 72
_cell_length_a 13.223970
_cell_length_b 31.820075
_cell_length_c 9.634544
_cell_angle_alpha 90.000000
_cell_angle_beta 90.000000
_cell_angle_gamma 90.000000
_cell_volume 4054.097776
_symmetry_space_group_name_H-M "C M M M"
_symmetry_group_IT_number 65
_symmetry_cell_setting 'orthorhombic'
loop_
_space_group_symop_operation_xyz
x,y,z
-x,-y,z
x,-y,-z
-x,y,-z
-x,-y,-z
x,y,-z
-x,y,z
x,-y,z
1/2+x,1/2+y,z
1/2-x,1/2-y,z
1/2+x,1/2-y,-z
1/2-x,1/2+y,-z
1/2-x,1/2-y,-z
1/2+x,1/2+y,-z
1/2-x,1/2+y,z
1/2+x,1/2-y,z
loop_
_atom_site_type_symbol
_atom_site_label
_atom_site_fract_x
_atom_site_fract_y
_atom_site_fract_z
Si Si1 0.750000 0.750000 0.739518
Si Si2 0.116029 0.951155 0.339754
Si Si3 0.388507 0.680211 0.349524
Si Si4 0.888522 0.321996 0.840816
Si Si5 0.283946 0.617186 0.834273
O O1 0.686112 0.719467 0.643032
O O2 0.827119 0.721714 0.829563
O O3 0.141965 0.941787 0.500000
O O4 0.195845 0.927282 0.240186
O O5 0.000000 0.937475 0.308253
O O6 0.129678 0.000000 0.306652
O O7 0.379050 0.656957 0.500000
O O8 0.500000 0.698591 0.328033
O O9 0.369306 0.648757 0.222611
O O10 0.823290 0.362185 0.786210
O O11 0.000000 0.320290 0.766976
O O12 0.907444 0.330343 0.000000
O O13 0.293379 0.612606 0.000000
#
# Coordination Sequence:
#
# PCOD8266286 Si02
#       5
#     8  16  16  16  16
#     4  10  18  30  48  70  89 118 167 214 241 276
#     4   9  18  33  53  76 102 131 158 187 234 293
#     4  10  20  32  46  65  93 128 160 194 240 289
#     4   9  18  32  48  68  98 131 161 200 250 296
#     4  10  20  32  49  73  97 125 162 199 236 281
#
# _framework density 17.759808
#
# number of rings (size 3 to 8) (size 9 to 14) (size 15 to 20)
#    0.000    2.444    0.000    3.333    0.000    4.889 
#    0.000    1.111    0.000   14.000    0.000    4.667 
#    0.000    0.000    0.000    0.000    0.000    0.000 
#
# Total GULP energy -445990.651342 kJ/mol
# GULP energy per Si atom -12388.629204 kJ/mol
# Density = 1.771939 g / cm^3
# Si number density = 17.759808 Si / 1000 Ang^3
#
#
#
# Elastic Constant Matrix: (Units=GPa)
#
#
# Indices 1 2 3 4 5 6 
#
# 1 125.9065 56.4480 41.3270 0.0000 0.0000 0.0000
# 2 56.4480 100.7270 41.3611 0.0000 0.0000 0.0000
# 3 41.3270 41.3611 77.7831 0.0000 0.0000 0.0000
# 4 0.0000 0.0000 0.0000 29.3512 0.0000 0.0000
# 5 0.0000 0.0000 0.0000 0.0000 19.4761 0.0000
# 6 0.0000 0.0000 0.0000 0.0000 0.0000 21.0330
#
#
#
# Elastic Compliance Matrix: (Units=1/GPa)
#
#
# Indices 1 2 3 4 5 6 
#
# 1 0.011254 -0.004928 -0.003359 0.000000 0.000000 0.000000
# 2 -0.004928 0.014859 -0.005283 0.000000 0.000000 0.000000
# 3 -0.003359 -0.005283 0.017450 0.000000 0.000000 0.000000
# 4 0.000000 0.000000 0.000000 0.034070 0.000000 0.000000
# 5 0.000000 0.000000 0.000000 0.000000 0.051345 0.000000
# 6 0.000000 0.000000 0.000000 0.000000 0.000000 0.047544
#
#
# Mechanical properties :
#
#
# Convention : Reuss Voigt Hill
#
# Bulk Modulus (GPa) = 60.88832 64.74320 62.81576
# Shear Modulus (GPa) = 23.90783 24.99077 24.44930
#
# Velocity S-wave (km/s) = 3.67301 3.75527 3.71437
# Velocity P-wave (km/s) = 7.23510 7.43887 7.33770
#
# Compressibility (1/GPa) = 0.01642351
#
# Stress axis : x y z
#
# Youngs Moduli (GPa) = 88.85566 67.30125 57.30562
#
# Poissons Ratio (x) = 0.33163 0.19251
# Poissons Ratio (y) = 0.43784 0.30274
# Poissons Ratio (z) = 0.29849 0.35555
#
# Static dielectric constant tensor:
#      x y z
#    x 3.731320 0.000000 0.000000 
#    y 0.000000 3.262480 0.000000 
#    z 0.000000 0.000000 3.159610 
# 
# 
# High freq. dielectric constant tensor:
#      x y z
#    x 1.682850 0.000000 0.000000 
#    y 0.000000 1.677990 0.000000 
#    z 0.000000 0.000000 1.676520 
# 
# From -- ./inp_files/7696.got.cif
#   From: 2010.03.12/outbox.cif.g09.slc.cpg/sg65_4_cif.got.tgz:7696.got - 2010.04.10 20:52:16.
