data_PCOD8266849
_publ_section_title
;
Structure prediction by ZEFSAII (Michael W. Deem and Ramdas Pophale) SiO2 
 PCOD8266849
Probable space group: C M M M
;
_chemical_formula_sum "Si O2"
_cell_formula_units_Z 64
_cell_length_a 8.558633
_cell_length_b 28.190308
_cell_length_c 13.114597
_cell_angle_alpha 90.000000
_cell_angle_beta 90.000000
_cell_angle_gamma 90.000000
_cell_volume 3164.165380
_symmetry_space_group_name_H-M "C M M M"
_symmetry_group_IT_number 65
_symmetry_cell_setting 'orthorhombic'
loop_
_space_group_symop_operation_xyz
x,y,z
-x,-y,z
x,-y,-z
-x,y,-z
-x,-y,-z
x,y,-z
-x,y,z
x,-y,z
1/2+x,1/2+y,z
1/2-x,1/2-y,z
1/2+x,1/2-y,-z
1/2-x,1/2+y,-z
1/2-x,1/2-y,-z
1/2+x,1/2+y,-z
1/2-x,1/2+y,z
1/2+x,1/2-y,z
loop_
_atom_site_type_symbol
_atom_site_label
_atom_site_fract_x
_atom_site_fract_y
_atom_site_fract_z
Si Si1 0.186039 0.389053 0.303183
Si Si2 0.814816 0.446785 0.111768
Si Si3 0.314253 0.946237 0.500000
Si Si4 0.815925 0.802212 0.790291
Si Si5 0.314538 0.802801 0.000000
O O1 0.253642 0.415738 0.203462
O O2 0.246327 0.417933 0.401176
O O3 0.261341 0.336467 0.301868
O O4 0.000000 0.384472 0.303736
O O5 0.747811 0.500000 0.121466
O O6 0.000000 0.448390 0.122357
O O7 0.769148 0.425523 0.000000
O O8 0.500000 0.948608 0.500000
O O9 0.247071 0.000000 0.500000
O O10 0.750000 0.750000 0.769280
O O11 0.748378 0.825793 0.895224
O O12 0.000000 0.798544 0.797554
O O13 0.250000 0.750000 0.000000
O O14 0.500000 0.805012 0.000000
#
# Coordination Sequence:
#
# PCOD8266849 Si02
#       5
#    16  16   8  16   8
#     4  10  19  32  54  82 111 147 191 236 285 336
#     4   8  14  25  44  74 108 139 176 223 273 330
#     4   9  18  34  58  87 116 147 190 243 286 333
#     4  11  22  37  55  80 114 151 191 235 283 338
#     4  10  18  32  54  80 111 148 187 226 274 329
#
# _framework density 20.226502
#
# number of rings (size 3 to 8) (size 9 to 14) (size 15 to 20)
#    0.000    2.375    0.000    6.375    1.750    3.000 
#    0.000    1.250    0.000    3.750    0.000    1.750 
#    0.000    0.000    0.000    0.000    0.000    0.000 
#
# Total GULP energy -396653.797036 kJ/mol
# GULP energy per Si atom -12395.431157 kJ/mol
# Density = 2.018047 g / cm^3
# Si number density = 20.226502 Si / 1000 Ang^3
#
#
#
# Elastic Constant Matrix: (Units=GPa)
#
#
# Indices 1 2 3 4 5 6 
#
# 1 89.1072 34.6818 33.6339 0.0000 0.0000 0.0000
# 2 34.6818 125.8427 91.1979 0.0000 0.0000 0.0000
# 3 33.6339 91.1979 153.1727 0.0000 0.0000 0.0000
# 4 0.0000 0.0000 0.0000 38.1168 0.0000 0.0000
# 5 0.0000 0.0000 0.0000 0.0000 15.5382 0.0000
# 6 0.0000 0.0000 0.0000 0.0000 0.0000 19.2712
#
#
#
# Elastic Compliance Matrix: (Units=1/GPa)
#
#
# Indices 1 2 3 4 5 6 
#
# 1 0.012703 -0.002602 -0.001240 0.000000 0.000000 0.000000
# 2 -0.002602 0.014510 -0.008068 0.000000 0.000000 0.000000
# 3 -0.001240 -0.008068 0.011604 0.000000 0.000000 0.000000
# 4 0.000000 0.000000 0.000000 0.026235 0.000000 0.000000
# 5 0.000000 0.000000 0.000000 0.000000 0.064358 0.000000
# 6 0.000000 0.000000 0.000000 0.000000 0.000000 0.051891
#
#
# Mechanical properties :
#
#
# Convention : Reuss Voigt Hill
#
# Bulk Modulus (GPa) = 66.67739 76.34999 71.51369
# Shear Modulus (GPa) = 23.79569 28.49249 26.14409
#
# Velocity S-wave (km/s) = 3.43368 3.75730 3.59913
# Velocity P-wave (km/s) = 6.98263 7.52679 7.25981
#
# Compressibility (1/GPa) = 0.01499759
#
# Stress axis : x y z
#
# Youngs Moduli (GPa) = 78.71931 68.91561 86.17359
#
# Poissons Ratio (x) = 0.17935 0.10685
# Poissons Ratio (y) = 0.20486 0.69525
# Poissons Ratio (z) = 0.09761 0.55601
#
# Static dielectric constant tensor:
#      x y z
#    x 3.136280 0.000000 0.000000 
#    y 0.000000 3.855500 0.000000 
#    z 0.000000 0.000000 4.001870 
# 
# 
# High freq. dielectric constant tensor:
#      x y z
#    x 1.744990 0.000000 0.000000 
#    y 0.000000 1.799970 0.000000 
#    z 0.000000 0.000000 1.780940 
# 
# From -- ./inp_files/21018.got.cif
#   From: 2010.03.12/outbox.cif.g09.slc.cpg/sg65_11_cif.got.tgz:21018.got - 2010.04.10 20:52:16.
