data_PCOD8267386
_publ_section_title
;
Structure prediction by ZEFSAII (Michael W. Deem and Ramdas Pophale) SiO2 
 PCOD8267386
Probable space group: C M M M
;
_chemical_formula_sum "Si O2"
_cell_formula_units_Z 112
_cell_length_a 9.667798
_cell_length_b 19.156634
_cell_length_c 36.226511
_cell_angle_alpha 90.000000
_cell_angle_beta 90.000000
_cell_angle_gamma 90.000000
_cell_volume 6709.239240
_symmetry_space_group_name_H-M "C M M M"
_symmetry_group_IT_number 65
_symmetry_cell_setting 'orthorhombic'
loop_
_space_group_symop_operation_xyz
x,y,z
-x,-y,z
x,-y,-z
-x,y,-z
-x,-y,-z
x,y,-z
-x,y,z
x,-y,z
1/2+x,1/2+y,z
1/2-x,1/2-y,z
1/2+x,1/2-y,-z
1/2-x,1/2+y,-z
1/2-x,1/2-y,-z
1/2+x,1/2+y,-z
1/2-x,1/2+y,z
1/2+x,1/2-y,z
loop_
_atom_site_type_symbol
_atom_site_label
_atom_site_fract_x
_atom_site_fract_y
_atom_site_fract_z
Si Si1 0.163994 0.922296 0.458823
Si Si2 0.653496 0.417087 0.752029
Si Si3 0.835472 0.423001 0.897011
Si Si4 0.159801 0.317764 0.958406
Si Si5 0.664217 0.422380 0.329264
Si Si6 0.165280 0.821162 0.394388
Si Si7 0.153933 0.583342 0.816132
O O1 0.214818 0.901655 0.500000
O O2 0.216396 0.864412 0.430144
O O3 0.000000 0.924817 0.457419
O O4 0.219850 0.000000 0.448492
O O5 0.500000 0.385576 0.757167
O O6 0.647231 0.500000 0.755524
O O7 0.714274 0.397919 0.711494
O O8 0.749532 0.384778 0.784063
O O9 0.772400 0.500000 0.903573
O O10 0.780790 0.374435 0.929862
O O11 0.789814 0.393816 0.856661
O O12 0.000000 0.427640 0.897667
O O13 0.250000 0.250000 0.952234
O O14 0.000000 0.299599 0.950296
O O15 0.177263 0.346939 0.000000
O O16 0.500000 0.427485 0.328976
O O17 0.723083 0.500000 0.338818
O O18 0.713496 0.365999 0.359043
O O19 0.250000 0.750000 0.393808
O O20 0.000000 0.807165 0.394622
O O21 0.151271 0.500000 0.814663
O O22 0.000000 0.612887 0.809439
#
# Coordination Sequence:
#
# PCOD8267386 Si02
#       7
#    16  16  16  16  16  16  16
#     4   8  14  26  46  70  90 110 144 186 216 242
#     4   8  13  22  38  60  82 102 131 173 212 244
#     4   8  14  25  42  64  87 110 138 172 207 245
#     4   9  17  29  45  63  83 109 140 173 208 246
#     4   8  14  26  45  65  82 107 146 184 212 242
#     4  10  19  30  45  65  90 118 145 175 214 258
#     4   8  13  22  37  58  84 109 131 161 206 254
#
# _framework density 16.693397999999998
#
# number of rings (size 3 to 8) (size 9 to 14) (size 15 to 20)
#    0.000    3.571    0.000    2.571    0.000    2.286 
#    0.000    2.857    0.000    4.714    0.000    9.000 
#    0.000    0.000    0.000    0.000    0.000    0.000 
#
# Total GULP energy -693873.670550 kJ/mol
# GULP energy per Si atom -12390.601260 kJ/mol
# Density = 1.665540 g / cm^3
# Si number density = 16.693398 Si / 1000 Ang^3
#
#
#
# Elastic Constant Matrix: (Units=GPa)
#
#
# Indices 1 2 3 4 5 6 
#
# 1 38.4495 30.4195 45.0265 0.0000 0.0000 0.0000
# 2 30.4195 85.1987 79.9807 0.0000 0.0000 0.0000
# 3 45.0265 79.9807 170.7807 0.0000 0.0000 0.0000
# 4 0.0000 0.0000 0.0000 6.7071 0.0000 0.0000
# 5 0.0000 0.0000 0.0000 0.0000 19.8880 0.0000
# 6 0.0000 0.0000 0.0000 0.0000 0.0000 18.4366
#
#
#
# Elastic Compliance Matrix: (Units=1/GPa)
#
#
# Indices 1 2 3 4 5 6 
#
# 1 0.040398 -0.007897 -0.006953 0.000000 0.000000 0.000000
# 2 -0.007897 0.022490 -0.008450 0.000000 0.000000 0.000000
# 3 -0.006953 -0.008450 0.011646 0.000000 0.000000 0.000000
# 4 0.000000 0.000000 0.000000 0.149096 0.000000 0.000000
# 5 0.000000 0.000000 0.000000 0.000000 0.050281 0.000000
# 6 0.000000 0.000000 0.000000 0.000000 0.000000 0.054240
#
#
# Mechanical properties :
#
#
# Convention : Reuss Voigt Hill
#
# Bulk Modulus (GPa) = 35.79919 67.25361 51.52640
# Shear Modulus (GPa) = 13.01873 18.27316 15.64595
#
# Velocity S-wave (km/s) = 2.79565 3.31211 3.06478
# Velocity P-wave (km/s) = 5.64912 7.41632 6.59221
#
# Compressibility (1/GPa) = 0.02793359
#
# Stress axis : x y z
#
# Youngs Moduli (GPa) = 24.75392 44.46484 85.86592
#
# Poissons Ratio (x) = 0.35113 0.59699
# Poissons Ratio (y) = 0.19548 0.72560
# Poissons Ratio (z) = 0.17210 0.37575
#
# Static dielectric constant tensor:
#      x y z
#    x 2.833760 0.000000 0.000000 
#    y 0.000000 2.966730 0.000000 
#    z 0.000000 0.000000 3.672680 
# 
# 
# High freq. dielectric constant tensor:
#      x y z
#    x 1.595480 0.000000 0.000000 
#    y 0.000000 1.607790 0.000000 
#    z 0.000000 0.000000 1.663840 
# 
# From -- ./inp_files/77418.got.cif
#   From: 2010.03.12/outbox.cif.g09.slc.cpg/sg65_39_cif.got.tgz:77418.got - 2010.04.10 20:52:16.
