data_PCOD8267004
_publ_section_title
;
Structure prediction by ZEFSAII (Michael W. Deem and Ramdas Pophale) SiO2 
 PCOD8267004
Probable space group: C M M M
;
_chemical_formula_sum "Si O2"
_cell_formula_units_Z 88
_cell_length_a 23.586155
_cell_length_b 9.174075
_cell_length_c 22.529892
_cell_angle_alpha 90.000000
_cell_angle_beta 90.000000
_cell_angle_gamma 90.000000
_cell_volume 4875.044051
_symmetry_space_group_name_H-M "C M M M"
_symmetry_group_IT_number 65
_symmetry_cell_setting 'orthorhombic'
loop_
_space_group_symop_operation_xyz
x,y,z
-x,-y,z
x,-y,-z
-x,y,-z
-x,-y,-z
x,y,-z
-x,y,z
x,-y,z
1/2+x,1/2+y,z
1/2-x,1/2-y,z
1/2+x,1/2-y,-z
1/2-x,1/2+y,-z
1/2-x,1/2-y,-z
1/2+x,1/2+y,-z
1/2-x,1/2+y,z
1/2+x,1/2-y,z
loop_
_atom_site_type_symbol
_atom_site_label
_atom_site_fract_x
_atom_site_fract_y
_atom_site_fract_z
Si Si1 0.610329 0.164789 0.610865
Si Si2 0.434219 0.672670 0.500000
Si Si3 0.500000 0.328420 0.196065
Si Si4 0.693427 0.169251 0.933340
Si Si5 0.000000 0.340316 0.311165
Si Si6 0.613180 0.171080 0.172688
Si Si7 0.190266 0.671666 0.716232
O O1 0.601833 0.272611 0.556063
O O2 0.554461 0.173713 0.649185
O O3 0.662631 0.214292 0.652673
O O4 0.619927 0.000000 0.587435
O O5 0.434309 0.500000 0.500000
O O6 0.500000 0.730142 0.500000
O O7 0.500000 0.500000 0.186413
O O8 0.500000 0.291322 0.265498
O O9 0.555395 0.259537 0.166742
O O10 0.750000 0.250000 0.913758
O O11 0.645086 0.213773 0.887505
O O12 0.707262 0.000000 0.929123
O O13 0.674356 0.213691 0.000000
O O14 0.000000 0.500000 0.279067
O O15 0.648905 0.221540 0.230373
O O16 0.599907 0.000000 0.176997
O O17 0.200545 0.500000 0.720331
O O18 0.250000 0.750000 0.723086
#
# Coordination Sequence:
#
# PCOD8267004 Si02
#       7
#    16   8   8  16   8  16  16
#     4  10  20  36  58  80 105 142 184 216 260 328
#     4  11  23  35  52  83 116 139 170 222 279 316
#     4  12  24  34  52  84 114 141 180 228 281 326
#     4   9  18  33  56  84 112 146 187 230 274 321
#     4  10  18  35  59  79 108 144 179 219 269 328
#     4  10  20  37  57  78 111 149 185 221 268 332
#     4  10  21  36  56  81 107 141 181 223 269 319
#
# _framework density 18.051119
#
# number of rings (size 3 to 8) (size 9 to 14) (size 15 to 20)
#    0.000    1.909    2.727    1.636    0.000    3.273 
#    0.000    0.909    0.000    2.727    0.000    0.000 
#    0.000    0.000    0.000    0.000    0.000    0.000 
#
# Total GULP energy -545559.781756 kJ/mol
# GULP energy per Si atom -12399.085949 kJ/mol
# Density = 1.801003 g / cm^3
# Si number density = 18.051119 Si / 1000 Ang^3
#
#
#
# Elastic Constant Matrix: (Units=GPa)
#
#
# Indices 1 2 3 4 5 6 
#
# 1 141.0511 61.8814 68.2560 0.0000 0.0000 0.0000
# 2 61.8814 70.6388 52.7709 0.0000 0.0000 0.0000
# 3 68.2560 52.7709 114.5247 0.0000 0.0000 0.0000
# 4 0.0000 0.0000 0.0000 20.4484 0.0000 0.0000
# 5 0.0000 0.0000 0.0000 0.0000 4.9924 0.0000
# 6 0.0000 0.0000 0.0000 0.0000 0.0000 35.4510
#
#
#
# Elastic Compliance Matrix: (Units=1/GPa)
#
#
# Indices 1 2 3 4 5 6 
#
# 1 0.012441 -0.008173 -0.003649 0.000000 0.000000 0.000000
# 2 -0.008173 0.026956 -0.007550 0.000000 0.000000 0.000000
# 3 -0.003649 -0.007550 0.014385 0.000000 0.000000 0.000000
# 4 0.000000 0.000000 0.000000 0.048903 0.000000 0.000000
# 5 0.000000 0.000000 0.000000 0.000000 0.200305 0.000000
# 6 0.000000 0.000000 0.000000 0.000000 0.000000 0.028208
#
#
# Mechanical properties :
#
#
# Convention : Reuss Voigt Hill
#
# Bulk Modulus (GPa) = 66.49244 76.89234 71.69239
# Shear Modulus (GPa) = 13.33493 21.73212 17.53353
#
# Velocity S-wave (km/s) = 2.72091 3.47352 3.11999
# Velocity P-wave (km/s) = 6.84008 7.66659 7.26510
#
# Compressibility (1/GPa) = 0.01503930
#
# Stress axis : x y z
#
# Youngs Moduli (GPa) = 80.38077 37.09713 69.51483
#
# Poissons Ratio (x) = 0.30318 0.25365
# Poissons Ratio (y) = 0.65692 0.52485
# Poissons Ratio (z) = 0.29330 0.28009
#
# Static dielectric constant tensor:
#      x y z
#    x 3.341920 0.000000 0.000000 
#    y 0.000000 3.265180 0.000000 
#    z 0.000000 0.000000 3.501800 
# 
# 
# High freq. dielectric constant tensor:
#      x y z
#    x 1.698230 0.000000 0.000000 
#    y 0.000000 1.689400 0.000000 
#    z 0.000000 0.000000 1.701580 
# 
# From -- ./inp_files/65214.got.cif
#   From: 2010.03.12/outbox.cif.g09.slc.cpg/sg65_33_cif.got.tgz:65214.got - 2010.04.10 20:52:16.
