data_PCOD8267895
_publ_section_title
;
Structure prediction by ZEFSAII (Michael W. Deem and Ramdas Pophale) SiO2 
 PCOD8267895
Probable space group: C M M M
;
_chemical_formula_sum "Si O2"
_cell_formula_units_Z 80
_cell_length_a 8.658494
_cell_length_b 18.119647
_cell_length_c 26.201119
_cell_angle_alpha 90.000000
_cell_angle_beta 90.000000
_cell_angle_gamma 90.000000
_cell_volume 4110.663555
_symmetry_space_group_name_H-M "C M M M"
_symmetry_group_IT_number 65
_symmetry_cell_setting 'orthorhombic'
loop_
_space_group_symop_operation_xyz
x,y,z
-x,-y,z
x,-y,-z
-x,y,-z
-x,-y,-z
x,y,-z
-x,y,z
x,-y,z
1/2+x,1/2+y,z
1/2-x,1/2-y,z
1/2+x,1/2-y,-z
1/2-x,1/2+y,-z
1/2-x,1/2-y,-z
1/2+x,1/2+y,-z
1/2-x,1/2+y,z
1/2+x,1/2-y,z
loop_
_atom_site_type_symbol
_atom_site_label
_atom_site_fract_x
_atom_site_fract_y
_atom_site_fract_z
Si Si1 0.169436 0.587708 0.500000
Si Si2 0.816560 0.330241 0.706773
Si Si3 0.321694 0.412847 0.000000
Si Si4 0.816384 0.417155 0.194636
Si Si5 0.683087 0.831145 0.095477
Si Si6 0.184977 0.582962 0.609352
O O1 0.152768 0.500000 0.500000
O O2 0.252031 0.610324 0.553733
O O3 0.000000 0.624291 0.500000
O O4 0.750000 0.250000 0.715154
O O5 0.756463 0.381301 0.752860
O O6 0.752582 0.363596 0.653633
O O7 0.000000 0.326708 0.706346
O O8 0.239255 0.381350 0.950488
O O9 0.300894 0.500000 0.000000
O O10 0.500000 0.388948 0.000000
O O11 0.748986 0.500000 0.190277
O O12 0.755252 0.368202 0.147601
O O13 0.000000 0.419875 0.194056
O O14 0.500000 0.826466 0.094540
O O15 0.750000 0.750000 0.090127
O O16 0.242347 0.500000 0.621415
O O17 0.000000 0.583568 0.607073
#
# Coordination Sequence:
#
# PCOD8267895 Si02
#       6
#     8  16   8  16  16  16
#     4   7  10  18  35  62  91 115 150 203 250 282
#     4  10  19  31  48  70  98 129 161 200 246 297
#     4  11  24  41  60  83 111 141 176 217 256 297
#     4   9  18  33  54  78 100 127 168 213 252 294
#     4  11  22  37  58  82 110 141 173 210 254 305
#     4   8  13  23  42  66  90 120 160 204 245 285
#
# _framework density 19.461576999999998
#
# number of rings (size 3 to 8) (size 9 to 14) (size 15 to 20)
#    0.000    2.600    0.000    4.200    0.000    4.000 
#    0.000    1.500    0.000    4.800    0.000    0.000 
#    0.000    2.400    0.000    0.000    0.000    0.000 
#
# Total GULP energy -495782.935795 kJ/mol
# GULP energy per Si atom -12394.573395 kJ/mol
# Density = 1.941728 g / cm^3
# Si number density = 19.461577 Si / 1000 Ang^3
#
#
#
# Elastic Constant Matrix: (Units=GPa)
#
#
# Indices 1 2 3 4 5 6 
#
# 1 32.3101 21.3398 26.4892 0.0000 0.0000 0.0000
# 2 21.3398 105.8010 55.3162 0.0000 0.0000 0.0000
# 3 26.4892 55.3162 178.0835 0.0000 0.0000 0.0000
# 4 0.0000 0.0000 0.0000 20.3534 0.0000 0.0000
# 5 0.0000 0.0000 0.0000 0.0000 -19.9136 0.0000
# 6 0.0000 0.0000 0.0000 0.0000 0.0000 21.5315
#
#
#
# Elastic Compliance Matrix: (Units=1/GPa)
#
#
# Indices 1 2 3 4 5 6 
#
# 1 0.037836 -0.005598 -0.003889 0.000000 0.000000 0.000000
# 2 -0.005598 0.012113 -0.002930 0.000000 0.000000 0.000000
# 3 -0.003889 -0.002930 0.007104 0.000000 0.000000 0.000000
# 4 0.000000 0.000000 0.000000 0.049132 0.000000 0.000000
# 5 0.000000 0.000000 0.000000 0.000000 -0.050217 0.000000
# 6 0.000000 0.000000 0.000000 0.000000 0.000000 0.046444
#
#
# Mechanical properties :
#
#
# Convention : Reuss Voigt Hill
#
# Bulk Modulus (GPa) = 31.03800 58.05389 44.54594
# Shear Modulus (GPa) = 36.23606 18.59754 27.41680
#
# Velocity S-wave (km/s) = 4.31969 3.09464 3.75742
# Velocity P-wave (km/s) = 6.39238 6.53175 6.46244
#
# Compressibility (1/GPa) = 0.03221858
#
# Stress axis : x y z
#
# Youngs Moduli (GPa) = 26.42997 82.55886 140.76870
#
# Poissons Ratio (x) = 0.46217 0.54746
# Poissons Ratio (y) = 0.14796 0.41241
# Poissons Ratio (z) = 0.10279 0.24187
#
# Static dielectric constant tensor:
#      x y z
#    x 3.053380 0.000000 0.000000 
#    y 0.000000 3.540670 0.000000 
#    z 0.000000 0.000000 4.122820 
# 
# 
# High freq. dielectric constant tensor:
#      x y z
#    x 1.702640 0.000000 0.000000 
#    y 0.000000 1.754190 0.000000 
#    z 0.000000 0.000000 1.786760 
# 
# From -- ./inp_files/72905.got.cif
#   From: 2010.03.12/outbox.cif.g09.slc.cpg/sg65_37_cif.got.tgz:72905.got - 2010.04.10 20:52:16.
