data_PCOD8267157
_publ_section_title
;
Structure prediction by ZEFSAII (Michael W. Deem and Ramdas Pophale) SiO2 
 PCOD8267157
Probable space group: C M M M
;
_chemical_formula_sum "Si O2"
_cell_formula_units_Z 128
_cell_length_a 24.844206
_cell_length_b 18.365878
_cell_length_c 18.902565
_cell_angle_alpha 90.000000
_cell_angle_beta 90.000000
_cell_angle_gamma 90.000000
_cell_volume 8624.969279
_symmetry_space_group_name_H-M "C M M M"
_symmetry_group_IT_number 65
_symmetry_cell_setting 'orthorhombic'
loop_
_space_group_symop_operation_xyz
x,y,z
-x,-y,z
x,-y,-z
-x,y,-z
-x,-y,-z
x,y,-z
-x,y,z
x,-y,z
1/2+x,1/2+y,z
1/2-x,1/2-y,z
1/2+x,1/2-y,-z
1/2-x,1/2+y,-z
1/2-x,1/2-y,-z
1/2+x,1/2+y,-z
1/2-x,1/2+y,z
1/2+x,1/2-y,z
loop_
_atom_site_type_symbol
_atom_site_label
_atom_site_fract_x
_atom_site_fract_y
_atom_site_fract_z
Si Si1 0.437248 0.162230 0.300785
Si Si2 0.144579 0.324894 0.581692
Si Si3 0.936702 0.083163 0.315215
Si Si4 0.754245 0.417859 0.416003
Si Si5 0.645397 0.653940 0.418201
Si Si6 0.936880 0.202624 0.211678
Si Si7 0.063342 0.579581 0.162215
Si Si8 0.064293 0.282430 0.921621
O O1 0.500000 0.165003 0.320165
O O2 0.405743 0.146321 0.373089
O O3 0.415747 0.238540 0.268456
O O4 0.424164 0.099936 0.243482
O O5 0.132683 0.343765 0.500000
O O6 0.197213 0.366889 0.610208
O O7 0.153678 0.239454 0.592487
O O8 0.906973 0.123866 0.378641
O O9 0.922282 0.122176 0.240121
O O10 0.000000 0.089608 0.331196
O O11 0.917869 0.000000 0.308909
O O12 0.752226 0.416340 0.500000
O O13 0.762222 0.500000 0.387464
O O14 0.698095 0.385914 0.386768
O O15 0.636512 0.634511 0.500000
O O16 0.914564 0.219030 0.132331
O O17 0.000000 0.215473 0.206862
O O18 0.088847 0.500000 0.145998
O O19 0.086187 0.639997 0.107837
O O20 0.000000 0.576437 0.151383
O O21 0.000000 0.283222 0.924864
O O22 0.088231 0.268331 0.000000
#
# Coordination Sequence:
#
# PCOD8267157 Si02
#       8
#    16  16  16  16  16  16  16  16
#     4   9  16  27  41  56  80 114 145 172 208 248
#     4  10  19  29  44  63  80 105 145 184 213 250
#     4  10  19  29  43  63  85 111 140 169 208 256
#     4   9  18  32  46  59  78 104 135 174 220 262
#     4  10  19  31  46  62  82 108 138 175 218 258
#     4   8  14  26  39  53  79 110 138 165 197 245
#     4   8  14  23  35  53  78 108 139 171 208 248
#     4   8  13  21  36  56  76 104 140 172 201 235
#
# _framework density 14.840633
#
# number of rings (size 3 to 8) (size 9 to 14) (size 15 to 20)
#    0.000    3.000    1.250    2.250    0.000    3.500 
#    0.000    3.125    0.000    0.375    0.000    6.125 
#    0.000    0.000    0.000    9.000    0.000   16.750 
#
# Total GULP energy -793097.338431 kJ/mol
# GULP energy per Si atom -12392.145913 kJ/mol
# Density = 1.480685 g / cm^3
# Si number density = 14.840633 Si / 1000 Ang^3
#
#
#
# Elastic Constant Matrix: (Units=GPa)
#
#
# Indices 1 2 3 4 5 6 
#
# 1 45.8942 27.2217 34.2634 0.0000 0.0000 0.0000
# 2 27.2217 90.2302 40.4574 0.0000 0.0000 0.0000
# 3 34.2634 40.4574 90.7089 0.0000 0.0000 0.0000
# 4 0.0000 0.0000 0.0000 14.5592 0.0000 0.0000
# 5 0.0000 0.0000 0.0000 0.0000 2.0084 0.0000
# 6 0.0000 0.0000 0.0000 0.0000 0.0000 17.7200
#
#
#
# Elastic Compliance Matrix: (Units=1/GPa)
#
#
# Indices 1 2 3 4 5 6 
#
# 1 0.032282 -0.005340 -0.009812 0.000000 0.000000 0.000000
# 2 -0.005340 0.014736 -0.004556 0.000000 0.000000 0.000000
# 3 -0.009812 -0.004556 0.016763 0.000000 0.000000 0.000000
# 4 0.000000 0.000000 0.000000 0.068685 0.000000 0.000000
# 5 0.000000 0.000000 0.000000 0.000000 0.497904 0.000000
# 6 0.000000 0.000000 0.000000 0.000000 0.000000 0.056434
#
#
# Mechanical properties :
#
#
# Convention : Reuss Voigt Hill
#
# Bulk Modulus (GPa) = 41.04125 47.85759 44.44942
# Shear Modulus (GPa) = 6.80883 15.18357 10.99620
#
# Velocity S-wave (km/s) = 2.14428 3.20208 2.72500
# Velocity P-wave (km/s) = 5.81767 6.78150 6.31799
#
# Compressibility (1/GPa) = 0.02436573
#
# Stress axis : x y z
#
# Youngs Moduli (GPa) = 30.97707 67.85946 59.65668
#
# Poissons Ratio (x) = 0.36234 0.58537
# Poissons Ratio (y) = 0.16540 0.27178
# Poissons Ratio (z) = 0.30396 0.30915
#
# Static dielectric constant tensor:
#      x y z
#    x 2.554260 0.000000 0.000000 
#    y 0.000000 3.096560 0.000000 
#    z 0.000000 0.000000 2.897760 
# 
# 
# High freq. dielectric constant tensor:
#      x y z
#    x 1.522810 0.000000 0.000000 
#    y 0.000000 1.574810 0.000000 
#    z 0.000000 0.000000 1.548630 
# 
# From -- ./inp_files/55130.got.cif
#   From: 2010.03.12/outbox.cif.g09.slc.cpg/sg65_28_cif.got.tgz:55130.got - 2010.04.10 20:52:16.
