data_PCOD8267411
_publ_section_title
;
Structure prediction by ZEFSAII (Michael W. Deem and Ramdas Pophale) SiO2 
 PCOD8267411
Probable space group: C M M M
;
_chemical_formula_sum "Si O2"
_cell_formula_units_Z 104
_cell_length_a 27.074249
_cell_length_b 9.077540
_cell_length_c 26.299608
_cell_angle_alpha 90.000000
_cell_angle_beta 90.000000
_cell_angle_gamma 90.000000
_cell_volume 6463.590968
_symmetry_space_group_name_H-M "C M M M"
_symmetry_group_IT_number 65
_symmetry_cell_setting 'orthorhombic'
loop_
_space_group_symop_operation_xyz
x,y,z
-x,-y,z
x,-y,-z
-x,y,-z
-x,-y,-z
x,y,-z
-x,y,z
x,-y,z
1/2+x,1/2+y,z
1/2-x,1/2-y,z
1/2+x,1/2-y,-z
1/2-x,1/2+y,-z
1/2-x,1/2-y,-z
1/2+x,1/2+y,-z
1/2-x,1/2+y,z
1/2+x,1/2-y,z
loop_
_atom_site_type_symbol
_atom_site_label
_atom_site_fract_x
_atom_site_fract_y
_atom_site_fract_z
Si Si1 0.649555 0.167605 0.092311
Si Si2 0.699004 0.829307 0.199282
Si Si3 0.802979 0.826071 0.000000
Si Si4 0.944117 0.669285 0.153819
Si Si5 0.944108 0.172961 0.653488
Si Si6 0.893344 0.825648 0.242958
Si Si7 0.441324 0.833158 0.555400
O O1 0.684796 0.191237 0.140530
O O2 0.593040 0.205824 0.107509
O O3 0.653770 0.000000 0.072109
O O4 0.666103 0.280394 0.049315
O O5 0.750000 0.750000 0.210511
O O6 0.658534 0.754162 0.234998
O O7 0.703186 0.000000 0.213799
O O8 0.750000 0.750000 0.000000
O O9 0.795072 0.000000 0.000000
O O10 0.935252 0.500000 0.170864
O O11 0.933491 0.772891 0.201763
O O12 0.000000 0.695729 0.134824
O O13 0.912101 0.222372 0.701661
O O14 0.919695 0.238774 0.602146
O O15 0.000000 0.231302 0.661439
O O16 0.943984 0.000000 0.647217
O O17 0.886855 0.000000 0.237664
O O18 0.422385 0.775184 0.500000
O O19 0.500000 0.822344 0.556054
O O20 0.423660 0.000000 0.563067
#
# Coordination Sequence:
#
# PCOD8267411 Si02
#       7
#    16  16   8  16  16  16  16
#     4   9  19  35  53  73  96 120 149 184 221 266
#     4  10  20  34  52  72  93 119 150 184 226 274
#     4  12  24  36  53  74  95 119 148 185 229 274
#     4   9  18  33  52  72  94 123 158 191 224 265
#     4   9  17  27  39  59  88 121 155 188 223 263
#     4  10  19  30  45  67  95 124 154 189 227 269
#     4   8  14  24  37  54  78 111 151 191 229 267
#
# _framework density 16.090126999999999
#
# number of rings (size 3 to 8) (size 9 to 14) (size 15 to 20)
#    0.000    2.615    0.000    3.923    0.000    6.769 
#    0.000    3.462    0.000    2.308    0.000    0.000 
#    0.000    0.615    0.000    2.000    0.000    2.923 
#
# Total GULP energy -644710.006441 kJ/mol
# GULP energy per Si atom -12398.269355 kJ/mol
# Density = 1.605351 g / cm^3
# Si number density = 16.090127 Si / 1000 Ang^3
#
#
#
# Elastic Constant Matrix: (Units=GPa)
#
#
# Indices 1 2 3 4 5 6 
#
# 1 103.3136 46.0897 53.9466 0.0000 0.0000 0.0000
# 2 46.0897 85.1841 61.5168 0.0000 0.0000 0.0000
# 3 53.9466 61.5168 123.6524 0.0000 0.0000 0.0000
# 4 0.0000 0.0000 0.0000 30.6976 0.0000 0.0000
# 5 0.0000 0.0000 0.0000 0.0000 15.4129 0.0000
# 6 0.0000 0.0000 0.0000 0.0000 0.0000 23.3429
#
#
#
# Elastic Compliance Matrix: (Units=1/GPa)
#
#
# Indices 1 2 3 4 5 6 
#
# 1 0.013701 -0.004833 -0.003573 0.000000 0.000000 0.000000
# 2 -0.004833 0.020026 -0.007855 0.000000 0.000000 0.000000
# 3 -0.003573 -0.007855 0.013554 0.000000 0.000000 0.000000
# 4 0.000000 0.000000 0.000000 0.032576 0.000000 0.000000
# 5 0.000000 0.000000 0.000000 0.000000 0.064881 0.000000
# 6 0.000000 0.000000 0.000000 0.000000 0.000000 0.042840
#
#
# Mechanical properties :
#
#
# Convention : Reuss Voigt Hill
#
# Bulk Modulus (GPa) = 67.75031 70.58404 69.16718
# Shear Modulus (GPa) = 22.22041 23.93048 23.07544
#
# Velocity S-wave (km/s) = 3.72021 3.86071 3.79111
# Velocity P-wave (km/s) = 7.78790 7.98978 7.88949
#
# Compressibility (1/GPa) = 0.01476008
#
# Stress axis : x y z
#
# Youngs Moduli (GPa) = 72.98764 49.93401 73.78001
#
# Poissons Ratio (x) = 0.24131 0.26363
# Poissons Ratio (y) = 0.35272 0.57952
# Poissons Ratio (z) = 0.26080 0.39222
#
# Static dielectric constant tensor:
#      x y z
#    x 2.938590 0.000000 0.000000 
#    y 0.000000 3.093110 0.000000 
#    z 0.000000 0.000000 3.177980 
# 
# 
# High freq. dielectric constant tensor:
#      x y z
#    x 1.594320 0.000000 0.000000 
#    y 0.000000 1.624040 0.000000 
#    z 0.000000 0.000000 1.611960 
# 
# From -- ./inp_files/76009.got.cif
#   From: 2010.03.12/outbox.cif.g09.slc.cpg/sg65_39_cif.got.tgz:76009.got - 2010.04.10 20:52:16.
