data_PCOD8267708
_publ_section_title
;
Structure prediction by ZEFSAII (Michael W. Deem and Ramdas Pophale) SiO2 
 PCOD8267708
Probable space group: C M M M
;
_chemical_formula_sum "Si O2"
_cell_formula_units_Z 80
_cell_length_a 18.477560
_cell_length_b 31.162194
_cell_length_c 9.036544
_cell_angle_alpha 90.000000
_cell_angle_beta 90.000000
_cell_angle_gamma 90.000000
_cell_volume 5203.253867
_symmetry_space_group_name_H-M "C M M M"
_symmetry_group_IT_number 65
_symmetry_cell_setting 'orthorhombic'
loop_
_space_group_symop_operation_xyz
x,y,z
-x,-y,z
x,-y,-z
-x,y,-z
-x,-y,-z
x,y,-z
-x,y,z
x,-y,z
1/2+x,1/2+y,z
1/2-x,1/2-y,z
1/2+x,1/2-y,-z
1/2-x,1/2+y,-z
1/2-x,1/2-y,-z
1/2+x,1/2+y,-z
1/2-x,1/2+y,z
1/2+x,1/2-y,z
loop_
_atom_site_type_symbol
_atom_site_label
_atom_site_fract_x
_atom_site_fract_y
_atom_site_fract_z
Si Si1 0.582370 0.450551 0.829831
Si Si2 0.328792 0.290843 0.332491
Si Si3 0.082535 0.709708 0.325321
Si Si4 0.318061 0.384253 0.667708
Si Si5 0.792311 0.667224 0.175201
O O1 0.500000 0.442713 0.778381
O O2 0.603525 0.500000 0.807007
O O3 0.635408 0.422570 0.731965
O O4 0.591399 0.437162 0.000000
O O5 0.304535 0.280242 0.500000
O O6 0.387529 0.256575 0.276579
O O7 0.363213 0.339153 0.325199
O O8 0.255332 0.291710 0.232797
O O9 0.089642 0.702527 0.500000
O O10 0.127003 0.672805 0.239971
O O11 0.000000 0.706743 0.272606
O O12 0.297083 0.396010 0.500000
O O13 0.243501 0.376779 0.760842
O O14 0.794339 0.665448 0.000000
#
# Coordination Sequence:
#
# PCOD8267708 Si02
#       5
#    16  16  16  16  16
#     4   9  18  32  48  68  96 124 147 178 224 270
#     4   8  17  31  46  63  86 117 152 189 225 266
#     4  10  19  31  46  63  87 118 151 188 230 271
#     4   9  18  31  48  66  86 116 156 191 219 262
#     4  10  19  31  46  63  87 117 150 189 230 268
#
# _framework density 15.374995
#
# number of rings (size 3 to 8) (size 9 to 14) (size 15 to 20)
#    1.200    1.600    0.000    3.000    0.000    5.200 
#    0.000    3.000    0.000    0.000    0.000    0.000 
#    0.000    0.800    0.000    8.400    0.000    3.600 
#
# Total GULP energy -495579.963578 kJ/mol
# GULP energy per Si atom -12389.499089 kJ/mol
# Density = 1.534000 g / cm^3
# Si number density = 15.374995 Si / 1000 Ang^3
#
#
#
# Elastic Constant Matrix: (Units=GPa)
#
#
# Indices 1 2 3 4 5 6 
#
# 1 110.9394 42.7150 57.3099 0.0000 0.0000 0.0000
# 2 42.7150 50.9112 30.4054 0.0000 0.0000 0.0000
# 3 57.3099 30.4054 90.4953 0.0000 0.0000 0.0000
# 4 0.0000 0.0000 0.0000 22.4501 0.0000 0.0000
# 5 0.0000 0.0000 0.0000 0.0000 24.2892 0.0000
# 6 0.0000 0.0000 0.0000 0.0000 0.0000 25.5417
#
#
#
# Elastic Compliance Matrix: (Units=1/GPa)
#
#
# Indices 1 2 3 4 5 6 
#
# 1 0.016361 -0.009431 -0.007192 0.000000 0.000000 0.000000
# 2 -0.009431 0.030010 -0.004110 0.000000 0.000000 0.000000
# 3 -0.007192 -0.004110 0.016986 0.000000 0.000000 0.000000
# 4 0.000000 0.000000 0.000000 0.044543 0.000000 0.000000
# 5 0.000000 0.000000 0.000000 0.000000 0.041171 0.000000
# 6 0.000000 0.000000 0.000000 0.000000 0.000000 0.039152
#
#
# Mechanical properties :
#
#
# Convention : Reuss Voigt Hill
#
# Bulk Modulus (GPa) = 45.68513 57.02295 51.35404
# Shear Modulus (GPa) = 21.09829 22.58390 21.84110
#
# Velocity S-wave (km/s) = 3.70840 3.83674 3.77312
# Velocity P-wave (km/s) = 6.93648 7.53632 7.24261
#
# Compressibility (1/GPa) = 0.02188896
#
# Stress axis : x y z
#
# Youngs Moduli (GPa) = 61.12184 33.32248 58.87193
#
# Poissons Ratio (x) = 0.31428 0.42342
# Poissons Ratio (y) = 0.57647 0.24197
# Poissons Ratio (z) = 0.43960 0.13696
#
# Static dielectric constant tensor:
#      x y z
#    x 2.800150 0.000000 0.000000 
#    y 0.000000 2.731450 0.000000 
#    z 0.000000 0.000000 2.859640 
# 
# 
# High freq. dielectric constant tensor:
#      x y z
#    x 1.568270 0.000000 0.000000 
#    y 0.000000 1.561660 0.000000 
#    z 0.000000 0.000000 1.591570 
# 
# From -- ./inp_files/12535.got.cif
#   From: 2010.03.12/outbox.cif.g09.slc.cpg/sg65_7_cif.got.tgz:12535.got - 2010.04.10 20:52:16.
