data_PCOD8267608
_publ_section_title
;
Structure prediction by ZEFSAII (Michael W. Deem and Ramdas Pophale) SiO2 
 PCOD8267608
Probable space group: C M M M
;
_chemical_formula_sum "Si O2"
_cell_formula_units_Z 80
_cell_length_a 10.016140
_cell_length_b 26.655297
_cell_length_c 17.177612
_cell_angle_alpha 90.000000
_cell_angle_beta 90.000000
_cell_angle_gamma 90.000000
_cell_volume 4586.133588
_symmetry_space_group_name_H-M "C M M M"
_symmetry_group_IT_number 65
_symmetry_cell_setting 'orthorhombic'
loop_
_space_group_symop_operation_xyz
x,y,z
-x,-y,z
x,-y,-z
-x,y,-z
-x,-y,-z
x,y,-z
-x,y,z
x,-y,z
1/2+x,1/2+y,z
1/2-x,1/2-y,z
1/2+x,1/2-y,-z
1/2-x,1/2+y,-z
1/2-x,1/2-y,-z
1/2+x,1/2+y,-z
1/2-x,1/2+y,z
1/2+x,1/2-y,z
loop_
_atom_site_type_symbol
_atom_site_label
_atom_site_fract_x
_atom_site_fract_y
_atom_site_fract_z
Si Si1 0.762467 0.151465 0.326310
Si Si2 0.000000 0.801190 0.589916
Si Si3 0.153904 0.896085 0.084604
Si Si4 0.844047 0.795009 0.830123
Si Si5 0.842245 0.057116 0.240284
Si Si6 0.500000 0.812252 0.406237
O O1 0.784533 0.185714 0.250983
O O2 0.773161 0.092764 0.303792
O O3 0.623879 0.159501 0.368605
O O4 0.872353 0.166554 0.388575
O O5 0.000000 0.744975 0.625285
O O6 0.000000 0.791789 0.500000
O O7 0.169840 0.837631 0.104873
O O8 0.215311 0.930390 0.153698
O O9 0.000000 0.910453 0.077199
O O10 0.222807 0.906330 0.000000
O O11 0.750000 0.750000 0.859003
O O12 0.000000 0.779249 0.819910
O O13 0.000000 0.068689 0.241383
O O14 0.809066 0.000000 0.262010
O O15 0.500000 0.817037 0.500000
#
# Coordination Sequence:
#
# PCOD8267608 Si02
#       6
#    16   8  16  16  16   8
#     4  11  20  35  52  77 107 136 172 219 257 303
#     4  11  20  34  55  77 106 139 167 203 257 311
#     4   8  15  28  45  72 108 137 168 214 262 304
#     4  10  19  30  48  73 103 142 180 212 251 304
#     4   9  17  32  55  79 101 135 180 220 261 305
#     4  11  24  36  53  81 108 137 171 207 257 319
#
# _framework density 17.443887
#
# number of rings (size 3 to 8) (size 9 to 14) (size 15 to 20)
#    0.000    2.200    2.000    3.600    1.400    2.400 
#    0.000    2.500    0.000    3.600    0.000    0.000 
#    0.000    3.600    0.000    0.000    0.000    0.000 
#
# Total GULP energy -495785.314142 kJ/mol
# GULP energy per Si atom -12394.632854 kJ/mol
# Density = 1.740418 g / cm^3
# Si number density = 17.443887 Si / 1000 Ang^3
#
#
#
# Elastic Constant Matrix: (Units=GPa)
#
#
# Indices 1 2 3 4 5 6 
#
# 1 102.1838 48.2668 42.0887 0.0000 0.0000 0.0000
# 2 48.2668 121.6868 47.6042 0.0000 0.0000 0.0000
# 3 42.0887 47.6042 84.5897 0.0000 0.0000 0.0000
# 4 0.0000 0.0000 0.0000 17.4097 0.0000 0.0000
# 5 0.0000 0.0000 0.0000 0.0000 21.3375 0.0000
# 6 0.0000 0.0000 0.0000 0.0000 0.0000 18.3830
#
#
#
# Elastic Compliance Matrix: (Units=1/GPa)
#
#
# Indices 1 2 3 4 5 6 
#
# 1 0.013356 -0.003459 -0.004698 0.000000 0.000000 0.000000
# 2 -0.003459 0.011434 -0.004713 0.000000 0.000000 0.000000
# 3 -0.004698 -0.004713 0.016812 0.000000 0.000000 0.000000
# 4 0.000000 0.000000 0.000000 0.057439 0.000000 0.000000
# 5 0.000000 0.000000 0.000000 0.000000 0.046866 0.000000
# 6 0.000000 0.000000 0.000000 0.000000 0.000000 0.054398
#
#
# Mechanical properties :
#
#
# Convention : Reuss Voigt Hill
#
# Bulk Modulus (GPa) = 63.05492 64.93107 63.99300
# Shear Modulus (GPa) = 21.61383 22.79275 22.20329
#
# Velocity S-wave (km/s) = 3.52383 3.61866 3.57156
# Velocity P-wave (km/s) = 7.26514 7.40022 7.33299
#
# Compressibility (1/GPa) = 0.01585919
#
# Stress axis : x y z
#
# Youngs Moduli (GPa) = 74.87501 87.45962 59.48139
#
# Poissons Ratio (x) = 0.30256 0.27947
# Poissons Ratio (y) = 0.25903 0.28035
# Poissons Ratio (z) = 0.35179 0.41222
#
# Static dielectric constant tensor:
#      x y z
#    x 3.017840 0.000000 0.000000 
#    y 0.000000 3.200580 0.000000 
#    z 0.000000 0.000000 3.380510 
# 
# 
# High freq. dielectric constant tensor:
#      x y z
#    x 1.641940 0.000000 0.000000 
#    y 0.000000 1.666840 0.000000 
#    z 0.000000 0.000000 1.678780 
# 
# From -- ./inp_files/50230.got.cif
#   From: 2010.03.12/outbox.cif.g09.slc.cpg/sg65_26_cif.got.tgz:50230.got - 2010.04.10 20:52:16.
