data_PCOD8267715
_publ_section_title
;
Structure prediction by ZEFSAII (Michael W. Deem and Ramdas Pophale) SiO2 
 PCOD8267715
Probable space group: C M M M
;
_chemical_formula_sum "Si O2"
_cell_formula_units_Z 104
_cell_length_a 27.213513
_cell_length_b 8.749502
_cell_length_c 27.151517
_cell_angle_alpha 90.000000
_cell_angle_beta 90.000000
_cell_angle_gamma 90.000000
_cell_volume 6464.903441
_symmetry_space_group_name_H-M "C M M M"
_symmetry_group_IT_number 65
_symmetry_cell_setting 'orthorhombic'
loop_
_space_group_symop_operation_xyz
x,y,z
-x,-y,z
x,-y,-z
-x,y,-z
-x,-y,-z
x,y,-z
-x,y,z
x,-y,z
1/2+x,1/2+y,z
1/2-x,1/2-y,z
1/2+x,1/2-y,-z
1/2-x,1/2+y,-z
1/2-x,1/2-y,-z
1/2+x,1/2+y,-z
1/2-x,1/2+y,z
1/2+x,1/2-y,z
loop_
_atom_site_type_symbol
_atom_site_label
_atom_site_fract_x
_atom_site_fract_y
_atom_site_fract_z
Si Si1 0.695660 0.680882 0.796443
Si Si2 0.603462 0.320559 0.445131
Si Si3 0.303917 0.180634 0.105201
Si Si4 0.300119 0.680109 0.612454
Si Si5 0.554619 0.178648 0.644671
Si Si6 0.802847 0.677669 0.000000
Si Si7 0.851041 0.318959 0.296986
O O1 0.699819 0.500000 0.795401
O O2 0.750000 0.750000 0.788928
O O3 0.670824 0.737145 0.848057
O O4 0.658698 0.737844 0.754637
O O5 0.596345 0.252674 0.500000
O O6 0.595946 0.500000 0.445719
O O7 0.657938 0.277834 0.426708
O O8 0.562966 0.252451 0.408696
O O9 0.250000 0.250000 0.101931
O O10 0.330547 0.218525 0.051997
O O11 0.301856 0.000000 0.115279
O O12 0.295634 0.500000 0.621168
O O13 0.250000 0.750000 0.590910
O O14 0.310625 0.761880 0.664329
O O15 0.500000 0.222992 0.663419
O O16 0.594772 0.234327 0.684587
O O17 0.560374 0.000000 0.636911
O O18 0.750000 0.750000 0.000000
O O19 0.792211 0.500000 0.000000
O O20 0.847000 0.500000 0.290658
#
# Coordination Sequence:
#
# PCOD8267715 Si02
#       7
#    16  16  16  16  16   8  16
#     4  11  20  29  41  60  86 115 148 182 215 250
#     4   9  19  34  49  67  91 116 141 169 202 244
#     4   9  15  24  36  53  77 108 146 183 218 250
#     4  10  19  31  46  64  87 114 144 175 206 243
#     4   9  19  35  53  71  88 107 134 169 210 255
#     4   8  14  22  34  50  72 104 143 184 217 248
#     4  10  19  32  48  64  84 110 139 172 211 254
#
# _framework density 16.086860999999999
#
# number of rings (size 3 to 8) (size 9 to 14) (size 15 to 20)
#    0.000    2.462    0.000    4.154    0.000    3.077 
#    0.000    1.538    0.000    0.000    0.000    0.000 
#    0.000    0.000    0.000    0.692    0.000   15.923 
#
# Total GULP energy -644389.225799 kJ/mol
# GULP energy per Si atom -12392.100496 kJ/mol
# Density = 1.605025 g / cm^3
# Si number density = 16.086861 Si / 1000 Ang^3
#
#
#
# Elastic Constant Matrix: (Units=GPa)
#
#
# Indices 1 2 3 4 5 6 
#
# 1 63.5177 22.6179 34.9704 0.0000 0.0000 0.0000
# 2 22.6179 70.7777 42.3066 0.0000 0.0000 0.0000
# 3 34.9704 42.3066 148.2934 0.0000 0.0000 0.0000
# 4 0.0000 0.0000 0.0000 25.2013 0.0000 0.0000
# 5 0.0000 0.0000 0.0000 0.0000 12.3372 0.0000
# 6 0.0000 0.0000 0.0000 0.0000 0.0000 16.8847
#
#
#
# Elastic Compliance Matrix: (Units=1/GPa)
#
#
# Indices 1 2 3 4 5 6 
#
# 1 0.019030 -0.004098 -0.003319 0.000000 0.000000 0.000000
# 2 -0.004098 0.017916 -0.004145 0.000000 0.000000 0.000000
# 3 -0.003319 -0.004145 0.008708 0.000000 0.000000 0.000000
# 4 0.000000 0.000000 0.000000 0.039680 0.000000 0.000000
# 5 0.000000 0.000000 0.000000 0.000000 0.081056 0.000000
# 6 0.000000 0.000000 0.000000 0.000000 0.000000 0.059225
#
#
# Mechanical properties :
#
#
# Convention : Reuss Voigt Hill
#
# Bulk Modulus (GPa) = 44.38147 53.59762 48.98954
# Shear Modulus (GPa) = 19.51233 23.06424 21.28829
#
# Velocity S-wave (km/s) = 3.48650 3.79057 3.64171
# Velocity P-wave (km/s) = 6.62240 7.24899 6.94277
#
# Compressibility (1/GPa) = 0.02253193
#
# Stress axis : x y z
#
# Youngs Moduli (GPa) = 52.54907 55.81687 114.83076
#
# Poissons Ratio (x) = 0.22871 0.38108
# Poissons Ratio (y) = 0.21532 0.47596
# Poissons Ratio (z) = 0.17439 0.23135
#
# Static dielectric constant tensor:
#      x y z
#    x 2.843630 0.000000 0.000000 
#    y 0.000000 2.909710 0.000000 
#    z 0.000000 0.000000 3.737980 
# 
# 
# High freq. dielectric constant tensor:
#      x y z
#    x 1.567690 0.000000 0.000000 
#    y 0.000000 1.630320 0.000000 
#    z 0.000000 0.000000 1.628010 
# 
# From -- ./inp_files/76038.got.cif
#   From: 2010.03.12/outbox.cif.g09.slc.cpg/sg65_39_cif.got.tgz:76038.got - 2010.04.10 20:52:16.
