data_PCOD8267738
_publ_section_title
;
Structure prediction by ZEFSAII (Michael W. Deem and Ramdas Pophale) SiO2 
 PCOD8267738
Probable space group: C M M M
;
_chemical_formula_sum "Si O2"
_cell_formula_units_Z 88
_cell_length_a 27.543235
_cell_length_b 9.504915
_cell_length_c 22.386376
_cell_angle_alpha 90.000000
_cell_angle_beta 90.000000
_cell_angle_gamma 90.000000
_cell_volume 5860.666098
_symmetry_space_group_name_H-M "C M M M"
_symmetry_group_IT_number 65
_symmetry_cell_setting 'orthorhombic'
loop_
_space_group_symop_operation_xyz
x,y,z
-x,-y,z
x,-y,-z
-x,y,-z
-x,-y,-z
x,y,-z
-x,y,z
x,-y,z
1/2+x,1/2+y,z
1/2-x,1/2-y,z
1/2+x,1/2-y,-z
1/2-x,1/2+y,-z
1/2-x,1/2-y,-z
1/2+x,1/2+y,-z
1/2-x,1/2+y,z
1/2+x,1/2-y,z
loop_
_atom_site_type_symbol
_atom_site_label
_atom_site_fract_x
_atom_site_fract_y
_atom_site_fract_z
Si Si1 0.442167 0.838720 0.886499
Si Si2 0.865663 0.284632 0.429815
Si Si3 0.678868 0.500000 0.570429
Si Si4 0.055127 0.342085 0.663859
Si Si5 0.942237 0.838494 0.000000
Si Si6 0.713867 0.000000 0.429729
Si Si7 0.442223 0.660132 0.225600
O O1 0.500000 0.843587 0.886257
O O2 0.422200 0.755632 0.828582
O O3 0.422218 0.000000 0.888208
O O4 0.423194 0.748605 0.942861
O O5 0.876069 0.304383 0.500000
O O6 0.854347 0.128012 0.409490
O O7 0.913173 0.336671 0.395910
O O8 0.817051 0.365478 0.409828
O O9 0.686935 0.500000 0.500000
O O10 0.732648 0.500000 0.600578
O O11 0.057342 0.500000 0.690707
O O12 0.075278 0.233078 0.713054
O O13 0.000000 0.303292 0.645987
O O14 0.000000 0.844653 0.000000
O O15 0.922178 0.000000 0.000000
O O16 0.721279 0.000000 0.500000
O O17 0.500000 0.657869 0.222976
O O18 0.421996 0.500000 0.221698
#
# Coordination Sequence:
#
# PCOD8267738 Si02
#       7
#    16  16   8  16   8   8  16
#     4   9  15  23  35  51  71  95 126 165 208 248
#     4  10  19  31  46  66  86 106 134 168 209 256
#     4   9  18  30  47  67  87 105 124 159 209 258
#     4  10  20  32  44  58  79 109 143 177 210 246
#     4   9  15  21  31  49  73  97 123 161 208 249
#     4   9  16  30  49  67  85 105 128 159 203 256
#     4   9  17  28  41  54  70  97 134 173 209 243
#
# _framework density 15.015359
#
# number of rings (size 3 to 8) (size 9 to 14) (size 15 to 20)
#    0.000    2.636    0.909    1.909    1.273    8.000 
#    0.000    0.909    0.000    1.636    0.000    0.000 
#    0.000    0.000    0.000    0.000    0.000    0.000 
#
# Total GULP energy -545308.074716 kJ/mol
# GULP energy per Si atom -12393.365334 kJ/mol
# Density = 1.498118 g / cm^3
# Si number density = 15.015359 Si / 1000 Ang^3
#
#
#
# Elastic Constant Matrix: (Units=GPa)
#
#
# Indices 1 2 3 4 5 6 
#
# 1 35.7849 15.7431 22.6688 0.0000 0.0000 0.0000
# 2 15.7431 130.5441 41.5681 0.0000 0.0000 0.0000
# 3 22.6688 41.5681 77.9800 0.0000 0.0000 0.0000
# 4 0.0000 0.0000 0.0000 23.8881 0.0000 0.0000
# 5 0.0000 0.0000 0.0000 0.0000 1.1759 0.0000
# 6 0.0000 0.0000 0.0000 0.0000 0.0000 15.2184
#
#
#
# Elastic Compliance Matrix: (Units=1/GPa)
#
#
# Indices 1 2 3 4 5 6 
#
# 1 0.034398 -0.001161 -0.009380 0.000000 0.000000 0.000000
# 2 -0.001161 0.009266 -0.004601 0.000000 0.000000 0.000000
# 3 -0.009380 -0.004601 0.018004 0.000000 0.000000 0.000000
# 4 0.000000 0.000000 0.000000 0.041862 0.000000 0.000000
# 5 0.000000 0.000000 0.000000 0.000000 0.850394 0.000000
# 6 0.000000 0.000000 0.000000 0.000000 0.000000 0.065710
#
#
# Mechanical properties :
#
#
# Convention : Reuss Voigt Hill
#
# Bulk Modulus (GPa) = 31.86688 44.91877 38.39282
# Shear Modulus (GPa) = 4.71530 19.01174 11.86352
#
# Velocity S-wave (km/s) = 1.77402 3.56216 2.81391
# Velocity P-wave (km/s) = 5.04630 6.84827 6.01515
#
# Compressibility (1/GPa) = 0.03138054
#
# Stress axis : x y z
#
# Youngs Moduli (GPa) = 29.07152 107.92713 55.54461
#
# Poissons Ratio (x) = 0.12534 0.52103
# Poissons Ratio (y) = 0.03376 0.25559
# Poissons Ratio (z) = 0.27270 0.49662
#
# Static dielectric constant tensor:
#      x y z
#    x 2.437830 0.000000 0.000000 
#    y 0.000000 3.300400 0.000000 
#    z 0.000000 0.000000 2.777630 
# 
# 
# High freq. dielectric constant tensor:
#      x y z
#    x 1.508790 0.000000 0.000000 
#    y 0.000000 1.602370 0.000000 
#    z 0.000000 0.000000 1.555950 
# 
# From -- ./inp_files/65231.got.cif
#   From: 2010.03.12/outbox.cif.g09.slc.cpg/sg65_33_cif.got.tgz:65231.got - 2010.04.10 20:52:16.
