data_PCOD8267134
_publ_section_title
;
Structure prediction by ZEFSAII (Michael W. Deem and Ramdas Pophale) SiO2 
 PCOD8267134
Probable space group: C M M M
;
_chemical_formula_sum "Si O2"
_cell_formula_units_Z 104
_cell_length_a 9.146005
_cell_length_b 28.235663
_cell_length_c 20.415576
_cell_angle_alpha 90.000000
_cell_angle_beta 90.000000
_cell_angle_gamma 90.000000
_cell_volume 5272.190107
_symmetry_space_group_name_H-M "C M M M"
_symmetry_group_IT_number 65
_symmetry_cell_setting 'orthorhombic'
loop_
_space_group_symop_operation_xyz
x,y,z
-x,-y,z
x,-y,-z
-x,y,-z
-x,-y,-z
x,y,-z
-x,y,z
x,-y,z
1/2+x,1/2+y,z
1/2-x,1/2-y,z
1/2+x,1/2-y,-z
1/2-x,1/2+y,-z
1/2-x,1/2-y,-z
1/2+x,1/2+y,-z
1/2-x,1/2+y,z
1/2+x,1/2-y,z
loop_
_atom_site_type_symbol
_atom_site_label
_atom_site_fract_x
_atom_site_fract_y
_atom_site_fract_z
Si Si1 0.669947 0.601978 0.074062
Si Si2 0.338431 0.072807 0.193522
Si Si3 0.327416 0.800544 0.500000
Si Si4 0.339675 0.820537 0.237306
Si Si5 0.170085 0.794347 0.882641
Si Si6 0.327867 0.858577 0.372892
Si Si7 0.168478 0.052491 0.320516
O O1 0.500000 0.596408 0.091644
O O2 0.760496 0.568093 0.122664
O O3 0.715312 0.657120 0.081774
O O4 0.703588 0.586002 0.000000
O O5 0.500000 0.049279 0.190107
O O6 0.355022 0.127031 0.210636
O O7 0.241482 0.048254 0.249014
O O8 0.500000 0.791563 0.500000
O O9 0.250000 0.750000 0.500000
O O10 0.277323 0.831291 0.437687
O O11 0.500000 0.795829 0.231978
O O12 0.219941 0.793829 0.193780
O O13 0.286751 0.823648 0.312675
O O14 0.250000 0.750000 0.918004
O O15 0.000000 0.785050 0.886662
O O16 0.500000 0.869915 0.372667
O O17 0.246022 0.909023 0.367244
O O18 0.000000 0.067557 0.311604
O O19 0.181012 0.000000 0.352802
#
# Coordination Sequence:
#
# PCOD8267134 Si02
#       7
#    16  16   8  16  16  16  16
#     4   9  18  32  48  66  92 130 173 214 262 321
#     4   9  17  30  50  75 101 130 166 209 257 310
#     4  10  22  40  59  82 113 151 194 233 271 318
#     4   8  15  29  47  67  91 121 160 207 257 306
#     4  10  19  29  42  62  89 122 162 211 265 318
#     4   9  19  36  57  81 111 145 183 226 269 318
#     4  10  20  34  56  86 115 143 177 218 269 327
#
# _framework density 19.726147999999998
#
# number of rings (size 3 to 8) (size 9 to 14) (size 15 to 20)
#    0.000    2.769    0.000    2.308    0.000    7.385 
#    0.000    1.923    0.000    2.769    0.000    3.231 
#    0.000    0.000    0.000    0.000    0.000    0.000 
#
# Total GULP energy -644512.009805 kJ/mol
# GULP energy per Si atom -12394.461727 kJ/mol
# Density = 1.968125 g / cm^3
# Si number density = 19.726148 Si / 1000 Ang^3
#
#
#
# Elastic Constant Matrix: (Units=GPa)
#
#
# Indices 1 2 3 4 5 6 
#
# 1 90.7782 37.1617 33.3056 0.0000 0.0000 0.0000
# 2 37.1617 76.3345 27.6240 0.0000 0.0000 0.0000
# 3 33.3056 27.6240 115.4295 0.0000 0.0000 0.0000
# 4 0.0000 0.0000 0.0000 13.6947 0.0000 0.0000
# 5 0.0000 0.0000 0.0000 0.0000 26.8674 0.0000
# 6 0.0000 0.0000 0.0000 0.0000 0.0000 20.9238
#
#
#
# Elastic Compliance Matrix: (Units=1/GPa)
#
#
# Indices 1 2 3 4 5 6 
#
# 1 0.014504 -0.006072 -0.002732 0.000000 0.000000 0.000000
# 2 -0.006072 0.016885 -0.002289 0.000000 0.000000 0.000000
# 3 -0.002732 -0.002289 0.009999 0.000000 0.000000 0.000000
# 4 0.000000 0.000000 0.000000 0.073021 0.000000 0.000000
# 5 0.000000 0.000000 0.000000 0.000000 0.037220 0.000000
# 6 0.000000 0.000000 0.000000 0.000000 0.000000 0.047792
#
#
# Mechanical properties :
#
#
# Convention : Reuss Voigt Hill
#
# Bulk Modulus (GPa) = 52.07697 53.19164 52.63430
# Shear Modulus (GPa) = 21.92911 24.59390 23.26150
#
# Velocity S-wave (km/s) = 3.33780 3.53479 3.43771
# Velocity P-wave (km/s) = 6.42743 6.60933 6.51901
#
# Compressibility (1/GPa) = 0.01920235
#
# Stress axis : x y z
#
# Youngs Moduli (GPa) = 68.94681 59.22540 100.00797
#
# Poissons Ratio (x) = 0.35964 0.27319
# Poissons Ratio (y) = 0.41867 0.22888
# Poissons Ratio (z) = 0.18834 0.13555
#
# Static dielectric constant tensor:
#      x y z
#    x 3.725750 0.000000 0.000000 
#    y 0.000000 3.478440 0.000000 
#    z 0.000000 0.000000 3.667520 
# 
# 
# High freq. dielectric constant tensor:
#      x y z
#    x 1.769920 0.000000 0.000000 
#    y 0.000000 1.756380 0.000000 
#    z 0.000000 0.000000 1.751880 
# 
# From -- ./inp_files/60834.got.cif
#   From: 2010.03.12/outbox.cif.g09.slc.cpg/sg65_31_cif.got.tgz:60834.got - 2010.04.10 20:52:16.
