data_PCOD8267431
_publ_section_title
;
Structure prediction by ZEFSAII (Michael W. Deem and Ramdas Pophale) SiO2 
 PCOD8267431
Probable space group: C M M M
;
_chemical_formula_sum "Si O2"
_cell_formula_units_Z 72
_cell_length_a 35.525263
_cell_length_b 14.571224
_cell_length_c 8.617143
_cell_angle_alpha 90.000000
_cell_angle_beta 90.000000
_cell_angle_gamma 90.000000
_cell_volume 4460.634473
_symmetry_space_group_name_H-M "C M M M"
_symmetry_group_IT_number 65
_symmetry_cell_setting 'orthorhombic'
loop_
_space_group_symop_operation_xyz
x,y,z
-x,-y,z
x,-y,-z
-x,y,-z
-x,-y,-z
x,y,-z
-x,y,z
x,-y,z
1/2+x,1/2+y,z
1/2-x,1/2-y,z
1/2+x,1/2-y,-z
1/2-x,1/2+y,-z
1/2-x,1/2-y,-z
1/2+x,1/2+y,-z
1/2-x,1/2+y,z
1/2+x,1/2-y,z
loop_
_atom_site_type_symbol
_atom_site_label
_atom_site_fract_x
_atom_site_fract_y
_atom_site_fract_z
Si Si1 0.422129 0.605830 0.183025
Si Si2 0.213026 0.693841 0.816767
Si Si3 0.772307 0.500000 0.684247
Si Si4 0.500000 0.608569 0.326196
Si Si5 0.311666 0.500000 0.683774
Si Si6 0.849987 0.182441 0.316086
O O1 0.415433 0.500000 0.238624
O O2 0.463124 0.641624 0.234174
O O3 0.393305 0.677181 0.263177
O O4 0.418334 0.612999 0.000000
O O5 0.250000 0.750000 0.752641
O O6 0.209108 0.592150 0.748238
O O7 0.173674 0.738145 0.765387
O O8 0.215558 0.688504 0.000000
O O9 0.774767 0.500000 0.500000
O O10 0.730129 0.500000 0.749455
O O11 0.500000 0.500000 0.333605
O O12 0.500000 0.650006 0.500000
O O13 0.311860 0.500000 0.500000
O O14 0.332308 0.411311 0.748515
O O15 0.847128 0.194473 0.500000
#
# Coordination Sequence:
#
# PCOD8267431 Si02
#       6
#    16  16   8   8   8  16
#     4  10  19  30  45  68  98 130 162 202 248 293
#     4  11  23  36  50  72  99 128 162 206 255 299
#     4  11  21  37  55  71  92 127 168 209 251 296
#     4   9  17  29  45  65  91 128 167 200 237 289
#     4   9  18  29  47  70  94 123 162 208 246 282
#     4  11  20  33  50  71  96 129 170 208 245 292
#
# _framework density 16.141202
#
# number of rings (size 3 to 8) (size 9 to 14) (size 15 to 20)
#    0.000    1.667    3.333    2.667    0.000    3.111 
#    0.000    0.000    0.000    0.000    0.000    0.000 
#    0.000    0.889    0.000    8.889    0.000    5.333 
#
# Total GULP energy -446343.604552 kJ/mol
# GULP energy per Si atom -12398.433460 kJ/mol
# Density = 1.610446 g / cm^3
# Si number density = 16.141202 Si / 1000 Ang^3
#
#
#
# Elastic Constant Matrix: (Units=GPa)
#
#
# Indices 1 2 3 4 5 6 
#
# 1 115.5583 45.0421 23.4642 0.0000 0.0000 0.0000
# 2 45.0421 94.0149 26.0797 0.0000 0.0000 0.0000
# 3 23.4642 26.0797 65.5534 0.0000 0.0000 0.0000
# 4 0.0000 0.0000 0.0000 21.6539 0.0000 0.0000
# 5 0.0000 0.0000 0.0000 0.0000 28.9612 0.0000
# 6 0.0000 0.0000 0.0000 0.0000 0.0000 17.3863
#
#
#
# Elastic Compliance Matrix: (Units=1/GPa)
#
#
# Indices 1 2 3 4 5 6 
#
# 1 0.010880 -0.004645 -0.002046 0.000000 0.000000 0.000000
# 2 -0.004645 0.013939 -0.003883 0.000000 0.000000 0.000000
# 3 -0.002046 -0.003883 0.017532 0.000000 0.000000 0.000000
# 4 0.000000 0.000000 0.000000 0.046181 0.000000 0.000000
# 5 0.000000 0.000000 0.000000 0.000000 0.034529 0.000000
# 6 0.000000 0.000000 0.000000 0.000000 0.000000 0.057517
#
#
# Mechanical properties :
#
#
# Convention : Reuss Voigt Hill
#
# Bulk Modulus (GPa) = 47.16423 51.58872 49.37647
# Shear Modulus (GPa) = 23.94719 25.63631 24.79175
#
# Velocity S-wave (km/s) = 3.85594 3.98961 3.92335
# Velocity P-wave (km/s) = 7.00768 7.29746 7.15404
#
# Compressibility (1/GPa) = 0.02120251
#
# Stress axis : x y z
#
# Youngs Moduli (GPa) = 91.91547 71.74122 57.03847
#
# Poissons Ratio (x) = 0.33321 0.11672
# Poissons Ratio (y) = 0.42692 0.22148
# Poissons Ratio (z) = 0.18810 0.27857
#
# Static dielectric constant tensor:
#      x y z
#    x 3.166320 0.000000 0.000000 
#    y 0.000000 2.843160 0.000000 
#    z 0.000000 0.000000 3.020340 
# 
# 
# High freq. dielectric constant tensor:
#      x y z
#    x 1.619800 0.000000 0.000000 
#    y 0.000000 1.579080 0.000000 
#    z 0.000000 0.000000 1.630210 
# 
# From -- ./inp_files/18056.got.cif
#   From: 2010.03.12/outbox.cif.g09.slc.cpg/sg65_10_cif.got.tgz:18056.got - 2010.04.10 20:52:16.
