data_PCOD8267201
_publ_section_title
;
Structure prediction by ZEFSAII (Michael W. Deem and Ramdas Pophale) SiO2 
 PCOD8267201
Probable space group: C M M M
;
_chemical_formula_sum "Si O2"
_cell_formula_units_Z 104
_cell_length_a 9.117342
_cell_length_b 30.665282
_cell_length_c 22.359254
_cell_angle_alpha 90.000000
_cell_angle_beta 90.000000
_cell_angle_gamma 90.000000
_cell_volume 6251.331337
_symmetry_space_group_name_H-M "C M M M"
_symmetry_group_IT_number 65
_symmetry_cell_setting 'orthorhombic'
loop_
_space_group_symop_operation_xyz
x,y,z
-x,-y,z
x,-y,-z
-x,y,-z
-x,-y,-z
x,y,-z
-x,y,z
x,-y,z
1/2+x,1/2+y,z
1/2-x,1/2-y,z
1/2+x,1/2-y,-z
1/2-x,1/2+y,-z
1/2-x,1/2-y,-z
1/2+x,1/2+y,-z
1/2-x,1/2+y,z
1/2+x,1/2-y,z
loop_
_atom_site_type_symbol
_atom_site_label
_atom_site_fract_x
_atom_site_fract_y
_atom_site_fract_z
Si Si1 0.832320 0.050260 0.430660
Si Si2 0.834808 0.208114 0.216492
Si Si3 0.165698 0.207765 0.358894
Si Si4 0.824508 0.451311 0.871625
Si Si5 0.671625 0.121143 0.355987
Si Si6 0.328111 0.122121 0.217969
Si Si7 0.340076 0.948378 0.000000
O O1 0.803681 0.060027 0.500000
O O2 0.722568 0.079044 0.392037
O O3 0.000000 0.061480 0.413900
O O4 0.798365 0.000000 0.416159
O O5 0.750000 0.250000 0.190432
O O6 0.833349 0.209623 0.287748
O O7 0.754095 0.164793 0.193752
O O8 0.000000 0.208544 0.191674
O O9 0.250000 0.250000 0.384902
O O10 0.246474 0.163993 0.380883
O O11 0.000000 0.207751 0.383821
O O12 0.767960 0.500000 0.855626
O O13 0.769114 0.418717 0.820340
O O14 0.760531 0.435835 0.937028
O O15 0.000000 0.451546 0.875300
O O16 0.500000 0.128578 0.365420
O O17 0.710302 0.112725 0.286788
O O18 0.500000 0.130029 0.209110
O O19 0.500000 0.925818 0.000000
O O20 0.359954 0.000000 0.000000
#
# Coordination Sequence:
#
# PCOD8267201 Si02
#       7
#    16  16  16  16  16  16   8
#     4   9  19  36  54  68  84 112 151 190 225 261
#     4   9  16  26  41  60  84 114 147 181 216 256
#     4   9  16  27  44  65  90 119 149 180 215 258
#     4   8  13  22  37  58  86 118 149 181 215 252
#     4  10  19  29  44  68  95 120 146 178 219 267
#     4   9  17  27  40  63  94 121 144 174 217 264
#     4   7  10  18  34  56  80 109 148 187 216 245
#
# _framework density 16.636455999999999
#
# number of rings (size 3 to 8) (size 9 to 14) (size 15 to 20)
#    0.000    3.154    0.000    2.769    0.000    5.538 
#    0.000    2.308    0.000    0.923    0.000    1.077 
#    0.000    1.846    0.000    0.000    0.000    0.000 
#
# Total GULP energy -644505.019656 kJ/mol
# GULP energy per Si atom -12394.327301 kJ/mol
# Density = 1.659859 g / cm^3
# Si number density = 16.636456 Si / 1000 Ang^3
#
#
#
# Elastic Constant Matrix: (Units=GPa)
#
#
# Indices 1 2 3 4 5 6 
#
# 1 78.5993 56.1812 31.8896 0.0000 0.0000 0.0000
# 2 56.1812 131.9887 53.5570 0.0000 0.0000 0.0000
# 3 31.8896 53.5570 54.3348 0.0000 0.0000 0.0000
# 4 0.0000 0.0000 0.0000 1.7327 0.0000 0.0000
# 5 0.0000 0.0000 0.0000 0.0000 7.3681 0.0000
# 6 0.0000 0.0000 0.0000 0.0000 0.0000 30.5569
#
#
#
# Elastic Compliance Matrix: (Units=1/GPa)
#
#
# Indices 1 2 3 4 5 6 
#
# 1 0.019176 -0.005992 -0.005348 0.000000 0.000000 0.000000
# 2 -0.005992 0.014499 -0.010775 0.000000 0.000000 0.000000
# 3 -0.005348 -0.010775 0.032164 0.000000 0.000000 0.000000
# 4 0.000000 0.000000 0.000000 0.577144 0.000000 0.000000
# 5 0.000000 0.000000 0.000000 0.000000 0.135720 0.000000
# 6 0.000000 0.000000 0.000000 0.000000 0.000000 0.032726
#
#
# Mechanical properties :
#
#
# Convention : Reuss Voigt Hill
#
# Bulk Modulus (GPa) = 46.27764 60.90871 53.59318
# Shear Modulus (GPa) = 5.79468 16.15120 10.97294
#
# Velocity S-wave (km/s) = 1.86834 3.11920 2.57100
# Velocity P-wave (km/s) = 5.70365 7.04724 6.41074
#
# Compressibility (1/GPa) = 0.02160871
#
# Stress axis : x y z
#
# Youngs Moduli (GPa) = 52.14958 68.97063 31.09102
#
# Poissons Ratio (x) = 0.41327 0.16628
# Poissons Ratio (y) = 0.31248 0.33499
# Poissons Ratio (z) = 0.27890 0.74313
#
# Static dielectric constant tensor:
#      x y z
#    x 2.992060 0.000000 0.000000 
#    y 0.000000 3.206290 0.000000 
#    z 0.000000 0.000000 2.982530 
# 
# 
# High freq. dielectric constant tensor:
#      x y z
#    x 1.624750 0.000000 0.000000 
#    y 0.000000 1.642580 0.000000 
#    z 0.000000 0.000000 1.603850 
# 
# From -- ./inp_files/68501.got.cif
#   From: 2010.03.12/outbox.cif.g09.slc.cpg/sg65_35_cif.got.tgz:68501.got - 2010.04.10 20:52:16.
