data_PCOD8267338
_publ_section_title
;
Structure prediction by ZEFSAII (Michael W. Deem and Ramdas Pophale) SiO2 
 PCOD8267338
Probable space group: C M M M
;
_chemical_formula_sum "Si O2"
_cell_formula_units_Z 80
_cell_length_a 9.880987
_cell_length_b 32.838266
_cell_length_c 16.754189
_cell_angle_alpha 90.000000
_cell_angle_beta 90.000000
_cell_angle_gamma 90.000000
_cell_volume 5436.306754
_symmetry_space_group_name_H-M "C M M M"
_symmetry_group_IT_number 65
_symmetry_cell_setting 'orthorhombic'
loop_
_space_group_symop_operation_xyz
x,y,z
-x,-y,z
x,-y,-z
-x,y,-z
-x,-y,-z
x,y,-z
-x,y,z
x,-y,z
1/2+x,1/2+y,z
1/2-x,1/2-y,z
1/2+x,1/2-y,-z
1/2-x,1/2+y,-z
1/2-x,1/2-y,-z
1/2+x,1/2+y,-z
1/2-x,1/2+y,z
1/2+x,1/2-y,z
loop_
_atom_site_type_symbol
_atom_site_label
_atom_site_fract_x
_atom_site_fract_y
_atom_site_fract_z
Si Si1 0.655495 0.575620 0.190929
Si Si2 0.000000 0.780325 0.093700
Si Si3 0.339059 0.047431 0.326610
Si Si4 0.000000 0.690201 0.905721
Si Si5 0.281574 0.655262 0.094269
Si Si6 0.839817 0.000000 0.088073
Si Si7 0.647054 0.047998 0.500000
O O1 0.500000 0.567910 0.217420
O O2 0.753468 0.575949 0.267486
O O3 0.663063 0.617460 0.143342
O O4 0.710389 0.540063 0.133581
O O5 0.133109 0.805061 0.119246
O O6 0.000000 0.735423 0.133791
O O7 0.000000 0.774177 0.000000
O O8 0.500000 0.055744 0.318551
O O9 0.283195 0.059827 0.415646
O O10 0.308016 0.000000 0.308894
O O11 0.129087 0.664276 0.878732
O O12 0.000000 0.695645 0.000000
O O13 0.296370 0.645878 0.000000
O O14 0.000000 0.000000 0.080990
O O15 0.773930 0.000000 0.000000
O O16 0.500000 0.068957 0.500000
O O17 0.626380 0.000000 0.500000
#
# Coordination Sequence:
#
# PCOD8267338 Si02
#       7
#    16   8  16   8  16   8   8
#     4  11  20  30  43  62  88 118 154 189 218 253
#     4   9  16  30  48  63  81 110 147 183 227 278
#     4   9  17  30  48  66  86 113 146 183 221 264
#     4   9  18  30  46  65  83 106 143 191 235 274
#     4  10  19  30  44  63  87 116 151 189 225 262
#     4   9  18  30  43  54  75 118 164 193 211 239
#     4   7  12  26  47  67  83 107 142 175 216 270
#
# _framework density 14.715873
#
# number of rings (size 3 to 8) (size 9 to 14) (size 15 to 20)
#    0.000    2.600    2.000    2.400    1.400    3.200 
#    0.000    0.500    0.000    2.400    0.000    0.000 
#    0.000    0.000    0.000    5.400    0.000    0.100 
#
# Total GULP energy -495686.372782 kJ/mol
# GULP energy per Si atom -12392.159320 kJ/mol
# Density = 1.468238 g / cm^3
# Si number density = 14.715873 Si / 1000 Ang^3
#
#
#
# Elastic Constant Matrix: (Units=GPa)
#
#
# Indices 1 2 3 4 5 6 
#
# 1 70.5824 11.5766 27.3851 0.0000 0.0000 0.0000
# 2 11.5766 54.7102 24.5814 0.0000 0.0000 0.0000
# 3 27.3851 24.5814 85.1855 0.0000 0.0000 0.0000
# 4 0.0000 0.0000 0.0000 3.3624 0.0000 0.0000
# 5 0.0000 0.0000 0.0000 0.0000 14.2212 0.0000
# 6 0.0000 0.0000 0.0000 0.0000 0.0000 18.4268
#
#
#
# Elastic Compliance Matrix: (Units=1/GPa)
#
#
# Indices 1 2 3 4 5 6 
#
# 1 0.016261 -0.001255 -0.004866 0.000000 0.000000 0.000000
# 2 -0.001255 0.021098 -0.005685 0.000000 0.000000 0.000000
# 3 -0.004866 -0.005685 0.014944 0.000000 0.000000 0.000000
# 4 0.000000 0.000000 0.000000 0.297405 0.000000 0.000000
# 5 0.000000 0.000000 0.000000 0.000000 0.070318 0.000000
# 6 0.000000 0.000000 0.000000 0.000000 0.000000 0.054269
#
#
# Mechanical properties :
#
#
# Convention : Reuss Voigt Hill
#
# Bulk Modulus (GPa) = 34.85198 37.50717 36.17957
# Shear Modulus (GPa) = 9.85282 16.99774 13.42528
#
# Velocity S-wave (km/s) = 2.59035 3.40231 3.02371
# Velocity P-wave (km/s) = 5.71675 6.40134 6.06870
#
# Compressibility (1/GPa) = 0.02869278
#
# Stress axis : x y z
#
# Youngs Moduli (GPa) = 61.49525 47.39837 66.91808
#
# Poissons Ratio (x) = 0.05948 0.32559
# Poissons Ratio (y) = 0.07716 0.38041
# Poissons Ratio (z) = 0.29921 0.26944
#
# Static dielectric constant tensor:
#      x y z
#    x 2.852080 0.000000 0.000000 
#    y 0.000000 2.739570 0.000000 
#    z 0.000000 0.000000 2.815470 
# 
# 
# High freq. dielectric constant tensor:
#      x y z
#    x 1.559120 0.000000 0.000000 
#    y 0.000000 1.544380 0.000000 
#    z 0.000000 0.000000 1.533490 
# 
# From -- ./inp_files/50258.got.cif
#   From: 2010.03.12/outbox.cif.g09.slc.cpg/sg65_26_cif.got.tgz:50258.got - 2010.04.10 20:52:16.
