data_PCOD8267390
_publ_section_title
;
Structure prediction by ZEFSAII (Michael W. Deem and Ramdas Pophale) SiO2 
 PCOD8267390
Probable space group: C M M M
;
_chemical_formula_sum "Si O2"
_cell_formula_units_Z 72
_cell_length_a 25.506598
_cell_length_b 8.836840
_cell_length_c 19.416364
_cell_angle_alpha 90.000000
_cell_angle_beta 90.000000
_cell_angle_gamma 90.000000
_cell_volume 4376.404283
_symmetry_space_group_name_H-M "C M M M"
_symmetry_group_IT_number 65
_symmetry_cell_setting 'orthorhombic'
loop_
_space_group_symop_operation_xyz
x,y,z
-x,-y,z
x,-y,-z
-x,y,-z
-x,-y,-z
x,y,-z
-x,y,z
x,-y,z
1/2+x,1/2+y,z
1/2-x,1/2-y,z
1/2+x,1/2-y,-z
1/2-x,1/2+y,-z
1/2-x,1/2-y,-z
1/2+x,1/2+y,-z
1/2-x,1/2+y,z
1/2+x,1/2-y,z
loop_
_atom_site_type_symbol
_atom_site_label
_atom_site_fract_x
_atom_site_fract_y
_atom_site_fract_z
Si Si1 0.500000 0.672228 0.418536
Si Si2 0.694563 0.676751 0.579487
Si Si3 0.061908 0.826410 0.788323
Si Si4 0.437752 0.829912 0.075410
Si Si5 0.597827 0.821327 0.653545
O O1 0.500000 0.500000 0.390986
O O2 0.500000 0.677432 0.500000
O O3 0.448562 0.753615 0.391757
O O4 0.679663 0.705015 0.500000
O O5 0.696486 0.500000 0.596728
O O6 0.750000 0.750000 0.597538
O O7 0.652404 0.757137 0.627116
O O8 0.082696 0.779430 0.864109
O O9 0.091429 0.723434 0.733067
O O10 0.000000 0.798195 0.780817
O O11 0.076533 0.000000 0.775634
O O12 0.500000 0.828903 0.075271
O O13 0.417409 0.000000 0.089279
O O14 0.417632 0.773650 0.000000
O O15 0.597133 0.000000 0.645773
#
# Coordination Sequence:
#
# PCOD8267390 Si02
#       5
#     8  16  16  16  16
#     4  11  23  37  51  69  96 129 164 203 247 295
#     4  10  21  38  58  77  98 125 160 205 253 299
#     4  10  19  30  45  65  95 131 166 204 245 290
#     4   8  14  25  41  61  88 123 162 201 239 283
#     4  12  23  34  51  73  99 131 166 204 247 298
#
# _framework density 16.451861999999998
#
# number of rings (size 3 to 8) (size 9 to 14) (size 15 to 20)
#    0.000    1.889    1.111    5.000    0.000    6.222 
#    0.000    2.222    0.000    0.000    0.000    0.000 
#    0.000    0.889    0.000    3.333    0.000    5.111 
#
# Total GULP energy -446411.469822 kJ/mol
# GULP energy per Si atom -12400.318606 kJ/mol
# Density = 1.641442 g / cm^3
# Si number density = 16.451862 Si / 1000 Ang^3
#
#
#
# Elastic Constant Matrix: (Units=GPa)
#
#
# Indices 1 2 3 4 5 6 
#
# 1 71.8997 52.6005 47.8751 0.0000 0.0000 0.0000
# 2 52.6005 130.1875 60.5778 0.0000 0.0000 0.0000
# 3 47.8751 60.5778 110.3506 0.0000 0.0000 0.0000
# 4 0.0000 0.0000 0.0000 31.1334 0.0000 0.0000
# 5 0.0000 0.0000 0.0000 0.0000 14.8605 0.0000
# 6 0.0000 0.0000 0.0000 0.0000 0.0000 24.7996
#
#
#
# Elastic Compliance Matrix: (Units=1/GPa)
#
#
# Indices 1 2 3 4 5 6 
#
# 1 0.022736 -0.006173 -0.006475 0.000000 0.000000 0.000000
# 2 -0.006173 0.011993 -0.003905 0.000000 0.000000 0.000000
# 3 -0.006475 -0.003905 0.014015 0.000000 0.000000 0.000000
# 4 0.000000 0.000000 0.000000 0.032120 0.000000 0.000000
# 5 0.000000 0.000000 0.000000 0.000000 0.067293 0.000000
# 6 0.000000 0.000000 0.000000 0.000000 0.000000 0.040323
#
#
# Mechanical properties :
#
#
# Convention : Reuss Voigt Hill
#
# Bulk Modulus (GPa) = 63.95266 70.50498 67.22882
# Shear Modulus (GPa) = 22.04603 24.25100 23.14852
#
# Velocity S-wave (km/s) = 3.66462 3.84351 3.75513
# Velocity P-wave (km/s) = 7.54075 7.91487 7.73007
#
# Compressibility (1/GPa) = 0.01563657
#
# Stress axis : x y z
#
# Youngs Moduli (GPa) = 43.98320 83.38493 71.35227
#
# Poissons Ratio (x) = 0.51476 0.46201
# Poissons Ratio (y) = 0.27152 0.27864
# Poissons Ratio (z) = 0.28479 0.32563
#
# Static dielectric constant tensor:
#      x y z
#    x 2.800740 0.000000 0.000000 
#    y 0.000000 3.274420 0.000000 
#    z 0.000000 0.000000 3.409570 
# 
# 
# High freq. dielectric constant tensor:
#      x y z
#    x 1.585150 0.000000 0.000000 
#    y 0.000000 1.649260 0.000000 
#    z 0.000000 0.000000 1.643550 
# 
# From -- ./inp_files/49473.got.cif
#   From: 2010.03.12/outbox.cif.g09.slc.cpg/sg65_25_cif.got.tgz:49473.got - 2010.04.10 20:52:16.
