data_PCOD8267836
_publ_section_title
;
Structure prediction by ZEFSAII (Michael W. Deem and Ramdas Pophale) SiO2 
 PCOD8267836
Probable space group: C M M M
;
_chemical_formula_sum "Si O2"
_cell_formula_units_Z 88
_cell_length_a 27.538804
_cell_length_b 8.700660
_cell_length_c 21.630633
_cell_angle_alpha 90.000000
_cell_angle_beta 90.000000
_cell_angle_gamma 90.000000
_cell_volume 5182.824484
_symmetry_space_group_name_H-M "C M M M"
_symmetry_group_IT_number 65
_symmetry_cell_setting 'orthorhombic'
loop_
_space_group_symop_operation_xyz
x,y,z
-x,-y,z
x,-y,-z
-x,y,-z
-x,-y,-z
x,y,-z
-x,y,z
x,-y,z
1/2+x,1/2+y,z
1/2-x,1/2-y,z
1/2+x,1/2-y,-z
1/2-x,1/2+y,-z
1/2-x,1/2-y,-z
1/2+x,1/2+y,-z
1/2-x,1/2+y,z
1/2+x,1/2-y,z
loop_
_atom_site_type_symbol
_atom_site_label
_atom_site_fract_x
_atom_site_fract_y
_atom_site_fract_z
Si Si1 0.351684 0.681901 0.069963
Si Si2 0.057259 0.667048 0.500000
Si Si3 0.890099 0.819178 0.253238
Si Si4 0.552952 0.680974 0.133757
Si Si5 0.301375 0.181515 0.184797
Si Si6 0.055391 0.683631 0.633646
O O1 0.347852 0.500000 0.080845
O O2 0.406590 0.739277 0.085106
O O3 0.314070 0.763104 0.115493
O O4 0.338815 0.728385 0.000000
O O5 0.082586 0.500000 0.500000
O O6 0.070873 0.748913 0.565175
O O7 0.000000 0.642621 0.500000
O O8 0.930769 0.773867 0.202867
O O9 0.839937 0.738171 0.235290
O O10 0.907634 0.760888 0.319280
O O11 0.880906 0.000000 0.254694
O O12 0.500000 0.756573 0.120251
O O13 0.548106 0.500000 0.127674
O O14 0.250000 0.250000 0.204701
O O15 0.298884 0.000000 0.185298
O O16 0.060171 0.500000 0.635602
O O17 0.000000 0.732523 0.649177
#
# Coordination Sequence:
#
# PCOD8267836 Si02
#       6
#    16   8  16  16  16  16
#     4   9  18  32  49  71  98 125 155 191 232 282
#     4   7  12  24  41  63  96 137 174 203 231 269
#     4  10  19  31  47  70  98 126 159 198 241 288
#     4   8  14  25  42  65  93 124 156 189 225 266
#     4  11  22  37  55  72  91 116 150 195 246 295
#     4   9  16  27  45  70 101 137 173 204 235 272
#
# _framework density 16.979158999999999
#
# number of rings (size 3 to 8) (size 9 to 14) (size 15 to 20)
#    0.000    2.818    0.000    4.909    0.000    2.182 
#    0.000    2.273    0.000    6.545    0.000    5.727 
#    0.000    0.000    0.000    0.000    0.000    0.000 
#
# Total GULP energy -545272.461740 kJ/mol
# GULP energy per Si atom -12392.555949 kJ/mol
# Density = 1.694051 g / cm^3
# Si number density = 16.979159 Si / 1000 Ang^3
#
#
#
# Elastic Constant Matrix: (Units=GPa)
#
#
# Indices 1 2 3 4 5 6 
#
# 1 96.9327 34.5157 43.2802 0.0000 0.0000 0.0000
# 2 34.5157 65.6862 40.7711 0.0000 0.0000 0.0000
# 3 43.2802 40.7711 126.5355 0.0000 0.0000 0.0000
# 4 0.0000 0.0000 0.0000 18.3371 0.0000 0.0000
# 5 0.0000 0.0000 0.0000 0.0000 36.5079 0.0000
# 6 0.0000 0.0000 0.0000 0.0000 0.0000 19.2974
#
#
#
# Elastic Compliance Matrix: (Units=1/GPa)
#
#
# Indices 1 2 3 4 5 6 
#
# 1 0.013499 -0.005284 -0.002915 0.000000 0.000000 0.000000
# 2 -0.005284 0.021098 -0.004991 0.000000 0.000000 0.000000
# 3 -0.002915 -0.004991 0.010508 0.000000 0.000000 0.000000
# 4 0.000000 0.000000 0.000000 0.054534 0.000000 0.000000
# 5 0.000000 0.000000 0.000000 0.000000 0.027391 0.000000
# 6 0.000000 0.000000 0.000000 0.000000 0.000000 0.051820
#
#
# Mechanical properties :
#
#
# Convention : Reuss Voigt Hill
#
# Bulk Modulus (GPa) = 53.40078 58.47650 55.93864
# Shear Modulus (GPa) = 23.64367 26.20098 24.92232
#
# Velocity S-wave (km/s) = 3.73568 3.93253 3.83537
# Velocity P-wave (km/s) = 7.07998 7.42527 7.25468
#
# Compressibility (1/GPa) = 0.01872632
#
# Stress axis : x y z
#
# Youngs Moduli (GPa) = 74.07686 47.39719 95.16647
#
# Poissons Ratio (x) = 0.25046 0.27738
# Poissons Ratio (y) = 0.39145 0.47494
# Poissons Ratio (z) = 0.21591 0.23654
#
# Static dielectric constant tensor:
#      x y z
#    x 3.166650 0.000000 0.000000 
#    y 0.000000 2.924090 0.000000 
#    z 0.000000 0.000000 3.403900 
# 
# 
# High freq. dielectric constant tensor:
#      x y z
#    x 1.638150 0.000000 0.000000 
#    y 0.000000 1.632570 0.000000 
#    z 0.000000 0.000000 1.653600 
# 
# From -- ./inp_files/60288.got.cif
#   From: 2010.03.12/outbox.cif.g09.slc.cpg/sg65_31_cif.got.tgz:60288.got - 2010.04.10 20:52:16.
