data_PCOD8267485
_publ_section_title
;
Structure prediction by ZEFSAII (Michael W. Deem and Ramdas Pophale) SiO2 
 PCOD8267485
Probable space group: C M M M
;
_chemical_formula_sum "Si O2"
_cell_formula_units_Z 92
_cell_length_a 8.853549
_cell_length_b 23.309174
_cell_length_c 25.009364
_cell_angle_alpha 90.000000
_cell_angle_beta 90.000000
_cell_angle_gamma 90.000000
_cell_volume 5161.155292
_symmetry_space_group_name_H-M "C M M M"
_symmetry_group_IT_number 65
_symmetry_cell_setting 'orthorhombic'
loop_
_space_group_symop_operation_xyz
x,y,z
-x,-y,z
x,-y,-z
-x,y,-z
-x,-y,-z
x,y,-z
-x,y,z
x,-y,z
1/2+x,1/2+y,z
1/2-x,1/2-y,z
1/2+x,1/2-y,-z
1/2-x,1/2+y,-z
1/2-x,1/2-y,-z
1/2+x,1/2+y,-z
1/2-x,1/2+y,z
1/2+x,1/2-y,z
loop_
_atom_site_type_symbol
_atom_site_label
_atom_site_fract_x
_atom_site_fract_y
_atom_site_fract_z
Si Si1 0.673246 0.401625 0.180566
Si Si2 0.829537 0.431522 0.500000
Si Si3 0.680523 0.000000 0.114513
Si Si4 0.669756 0.568189 0.606217
Si Si5 0.162571 0.371176 0.000000
Si Si6 0.709057 0.000000 0.000000
Si Si7 0.824291 0.567413 0.714581
Si Si8 0.827572 0.188934 0.094903
O O1 0.500000 0.423431 0.179678
O O2 0.781186 0.444633 0.148888
O O3 0.732098 0.397200 0.241080
O O4 0.686911 0.339150 0.153565
O O5 0.827645 0.500000 0.500000
O O6 0.745887 0.407210 0.447516
O O7 0.000000 0.408318 0.500000
O O8 0.500000 0.000000 0.100602
O O9 0.784590 0.000000 0.059569
O O10 0.500000 0.592352 0.610690
O O11 0.668214 0.500000 0.603674
O O12 0.766111 0.588754 0.657089
O O13 0.253778 0.353828 0.052439
O O14 0.124263 0.438946 0.000000
O O15 0.000000 0.339544 0.000000
O O16 0.792902 0.500000 0.722858
O O17 0.000000 0.581819 0.719353
O O18 0.750000 0.250000 0.095146
O O19 0.000000 0.197551 0.078021
#
# Coordination Sequence:
#
# PCOD8267485 Si02
#       8
#    16   8   8  16   8   4  16  16
#     4  11  23  37  54  77 103 131 166 209 257 305
#     4   9  15  23  35  53  81 119 166 213 250 293
#     4  12  22  37  56  79 106 134 167 201 251 310
#     4   9  16  25  38  57  85 123 165 209 253 295
#     4  12  23  40  62  84 110 137 166 205 249 304
#     4  12  25  38  59  88 113 138 167 202 255 308
#     4  10  19  30  46  69  96 129 167 205 251 304
#     4  11  25  43  60  80 102 133 171 210 255 305
#
# _framework density 17.825465999999999
#
# number of rings (size 3 to 8) (size 9 to 14) (size 15 to 20)
#    0.000    1.478    2.609    3.913    0.000    5.913 
#    0.000    1.739    0.000    0.000    0.000    0.000 
#    0.000    0.000    0.000    0.783    0.000   10.696 
#
# Total GULP energy -570145.639518 kJ/mol
# GULP energy per Si atom -12394.470424 kJ/mol
# Density = 1.778489 g / cm^3
# Si number density = 17.825466 Si / 1000 Ang^3
#
#
#
# Elastic Constant Matrix: (Units=GPa)
#
#
# Indices 1 2 3 4 5 6 
#
# 1 130.3917 35.8624 57.5568 0.0000 0.0000 0.0000
# 2 35.8624 65.1581 30.3409 0.0000 0.0000 0.0000
# 3 57.5568 30.3409 153.4071 0.0000 0.0000 0.0000
# 4 0.0000 0.0000 0.0000 6.6154 0.0000 0.0000
# 5 0.0000 0.0000 0.0000 0.0000 29.9568 0.0000
# 6 0.0000 0.0000 0.0000 0.0000 0.0000 11.3104
#
#
#
# Elastic Compliance Matrix: (Units=1/GPa)
#
#
# Indices 1 2 3 4 5 6 
#
# 1 0.010135 -0.004194 -0.002973 0.000000 0.000000 0.000000
# 2 -0.004194 0.018639 -0.002113 0.000000 0.000000 0.000000
# 3 -0.002973 -0.002113 0.008052 0.000000 0.000000 0.000000
# 4 0.000000 0.000000 0.000000 0.151162 0.000000 0.000000
# 5 0.000000 0.000000 0.000000 0.000000 0.033381 0.000000
# 6 0.000000 0.000000 0.000000 0.000000 0.000000 0.088414
#
#
# Mechanical properties :
#
#
# Convention : Reuss Voigt Hill
#
# Bulk Modulus (GPa) = 54.74478 66.27524 60.51001
# Shear Modulus (GPa) = 14.95067 24.58964 19.77016
#
# Velocity S-wave (km/s) = 2.89922 3.71815 3.33392
# Velocity P-wave (km/s) = 6.47962 7.46282 6.98853
#
# Compressibility (1/GPa) = 0.01826658
#
# Stress axis : x y z
#
# Youngs Moduli (GPa) = 98.66791 53.64966 124.19274
#
# Poissons Ratio (x) = 0.22499 0.36924
# Poissons Ratio (y) = 0.41379 0.26243
# Poissons Ratio (z) = 0.29335 0.11336
#
# Static dielectric constant tensor:
#      x y z
#    x 3.417870 0.000000 0.000000 
#    y 0.000000 2.831140 0.000000 
#    z 0.000000 0.000000 3.555190 
# 
# 
# High freq. dielectric constant tensor:
#      x y z
#    x 1.703710 0.000000 0.000000 
#    y 0.000000 1.625430 0.000000 
#    z 0.000000 0.000000 1.704370 
# 
# From -- ./inp_files/73274.got.cif
#   From: 2010.03.12/outbox.cif.g09.slc.cpg/sg65_37_cif.got.tgz:73274.got - 2010.04.10 20:52:16.
