data_PCOD8267809
_publ_section_title
;
Structure prediction by ZEFSAII (Michael W. Deem and Ramdas Pophale) SiO2 
 PCOD8267809
Probable space group: C M M M
;
_chemical_formula_sum "Si O2"
_cell_formula_units_Z 88
_cell_length_a 8.937104
_cell_length_b 27.538321
_cell_length_c 21.501000
_cell_angle_alpha 90.000000
_cell_angle_beta 90.000000
_cell_angle_gamma 90.000000
_cell_volume 5291.672146
_symmetry_space_group_name_H-M "C M M M"
_symmetry_group_IT_number 65
_symmetry_cell_setting 'orthorhombic'
loop_
_space_group_symop_operation_xyz
x,y,z
-x,-y,z
x,-y,-z
-x,y,-z
-x,-y,-z
x,y,-z
-x,y,z
x,-y,z
1/2+x,1/2+y,z
1/2-x,1/2-y,z
1/2+x,1/2-y,-z
1/2-x,1/2+y,-z
1/2-x,1/2-y,-z
1/2+x,1/2+y,-z
1/2-x,1/2+y,z
1/2+x,1/2-y,z
loop_
_atom_site_type_symbol
_atom_site_label
_atom_site_fract_x
_atom_site_fract_y
_atom_site_fract_z
Si Si1 0.324536 0.054312 0.367385
Si Si2 0.662451 0.557201 0.000000
Si Si3 0.676150 0.112056 0.245378
Si Si4 0.325658 0.639564 0.569260
Si Si5 0.177423 0.801728 0.688053
Si Si6 0.178524 0.944162 0.865197
O O1 0.500000 0.054738 0.378202
O O2 0.283130 0.073689 0.299063
O O3 0.252915 0.087978 0.420035
O O4 0.259565 0.000000 0.373813
O O5 0.741280 0.570843 0.065624
O O6 0.638050 0.500000 0.000000
O O7 0.500000 0.582563 0.000000
O O8 0.500000 0.121651 0.240909
O O9 0.759429 0.162527 0.259249
O O10 0.736677 0.091223 0.181163
O O11 0.285287 0.658501 0.500000
O O12 0.500000 0.630076 0.577013
O O13 0.271997 0.679239 0.619668
O O14 0.250000 0.750000 0.699314
O O15 0.000000 0.797977 0.694104
O O16 0.000000 0.936975 0.861161
O O17 0.220163 0.000000 0.850056
#
# Coordination Sequence:
#
# PCOD8267809 Si02
#       6
#    16   8  16  16  16  16
#     4   9  18  31  45  63  90 123 156 189 225 266
#     4   7  12  24  41  63  94 131 166 195 223 261
#     4  10  19  31  47  68  94 123 156 194 234 275
#     4   9  19  34  49  67  91 117 147 184 226 275
#     4  10  20  35  53  71  91 115 146 187 235 284
#     4   9  16  27  45  69  98 132 166 196 227 265
#
# _framework density 16.629904
#
# number of rings (size 3 to 8) (size 9 to 14) (size 15 to 20)
#    0.000    2.818    0.000    2.727    0.000    4.000 
#    0.000    2.273    0.000    1.636    0.000    0.636 
#    0.000    0.000    0.000    0.000    0.000    0.000 
#
# Total GULP energy -545384.627799 kJ/mol
# GULP energy per Si atom -12395.105177 kJ/mol
# Density = 1.659205 g / cm^3
# Si number density = 16.629904 Si / 1000 Ang^3
#
#
#
# Elastic Constant Matrix: (Units=GPa)
#
#
# Indices 1 2 3 4 5 6 
#
# 1 48.2590 38.4053 34.9349 0.0000 0.0000 0.0000
# 2 38.4053 111.3496 49.4471 0.0000 0.0000 0.0000
# 3 34.9349 49.4471 116.5836 0.0000 0.0000 0.0000
# 4 0.0000 0.0000 0.0000 15.1255 0.0000 0.0000
# 5 0.0000 0.0000 0.0000 0.0000 17.3092 0.0000
# 6 0.0000 0.0000 0.0000 0.0000 0.0000 27.3763
#
#
#
# Elastic Compliance Matrix: (Units=1/GPa)
#
#
# Indices 1 2 3 4 5 6 
#
# 1 0.031611 -0.008250 -0.005973 0.000000 0.000000 0.000000
# 2 -0.008250 0.013218 -0.003134 0.000000 0.000000 0.000000
# 3 -0.005973 -0.003134 0.011697 0.000000 0.000000 0.000000
# 4 0.000000 0.000000 0.000000 0.066113 0.000000 0.000000
# 5 0.000000 0.000000 0.000000 0.000000 0.057773 0.000000
# 6 0.000000 0.000000 0.000000 0.000000 0.000000 0.036528
#
#
# Mechanical properties :
#
#
# Convention : Reuss Voigt Hill
#
# Bulk Modulus (GPa) = 45.84873 57.97409 51.91141
# Shear Modulus (GPa) = 19.31056 22.18920 20.74988
#
# Velocity S-wave (km/s) = 3.41133 3.65676 3.53618
# Velocity P-wave (km/s) = 6.56857 7.26404 6.92504
#
# Compressibility (1/GPa) = 0.02181086
#
# Stress axis : x y z
#
# Youngs Moduli (GPa) = 31.63416 75.65409 85.49454
#
# Poissons Ratio (x) = 0.62418 0.51068
# Poissons Ratio (y) = 0.26100 0.26793
# Poissons Ratio (z) = 0.18896 0.23709
#
# Static dielectric constant tensor:
#      x y z
#    x 3.013380 0.000000 0.000000 
#    y 0.000000 3.016010 0.000000 
#    z 0.000000 0.000000 3.343620 
# 
# 
# High freq. dielectric constant tensor:
#      x y z
#    x 1.633640 0.000000 0.000000 
#    y 0.000000 1.618840 0.000000 
#    z 0.000000 0.000000 1.640490 
# 
# From -- ./inp_files/59781.got.cif
#   From: 2010.03.12/outbox.cif.g09.slc.cpg/sg65_30_cif.got.tgz:59781.got - 2010.04.10 20:52:16.
