data_PCOD8267310
_publ_section_title
;
Structure prediction by ZEFSAII (Michael W. Deem and Ramdas Pophale) SiO2 
 PCOD8267310
Probable space group: C M M M
;
_chemical_formula_sum "Si O2"
_cell_formula_units_Z 88
_cell_length_a 23.485818
_cell_length_b 17.641071
_cell_length_c 13.507947
_cell_angle_alpha 90.000000
_cell_angle_beta 90.000000
_cell_angle_gamma 90.000000
_cell_volume 5596.544829
_symmetry_space_group_name_H-M "C M M M"
_symmetry_group_IT_number 65
_symmetry_cell_setting 'orthorhombic'
loop_
_space_group_symop_operation_xyz
x,y,z
-x,-y,z
x,-y,-z
-x,y,-z
-x,-y,-z
x,y,-z
-x,y,z
x,-y,z
1/2+x,1/2+y,z
1/2-x,1/2-y,z
1/2+x,1/2-y,-z
1/2-x,1/2+y,-z
1/2-x,1/2-y,-z
1/2+x,1/2+y,-z
1/2-x,1/2+y,z
1/2+x,1/2-y,z
loop_
_atom_site_type_symbol
_atom_site_label
_atom_site_fract_x
_atom_site_fract_y
_atom_site_fract_z
Si Si1 0.755004 0.339480 0.614221
Si Si2 0.936450 0.000000 0.618123
Si Si3 0.135757 0.590174 0.294975
Si Si4 0.870995 0.144785 0.382318
Si Si5 0.437001 0.210789 0.614824
Si Si6 0.063603 0.589722 0.109708
O O1 0.769881 0.360497 0.500000
O O2 0.750000 0.250000 0.626133
O O3 0.801231 0.376862 0.686967
O O4 0.693995 0.370825 0.649040
O O5 0.906567 0.074776 0.660582
O O6 0.934542 0.000000 0.500000
O O7 0.000000 0.000000 0.659049
O O8 0.135225 0.500000 0.311056
O O9 0.092280 0.628992 0.371677
O O10 0.112507 0.615512 0.186650
O O11 0.873696 0.149519 0.500000
O O12 0.897250 0.222861 0.338148
O O13 0.443578 0.226957 0.500000
O O14 0.500000 0.212285 0.663655
O O15 0.061700 0.500000 0.108254
O O16 0.000000 0.619209 0.139687
O O17 0.079620 0.620391 0.000000
#
# Coordination Sequence:
#
# PCOD8267310 Si02
#       6
#    16   8  16  16  16  16
#     4  10  19  32  45  58  85 127 166 190 216 264
#     4   9  16  26  42  62  80 102 146 207 246 260
#     4  11  21  30  45  70  94 119 155 193 227 270
#     4   9  17  29  43  59  80 115 159 195 228 267
#     4  10  19  30  43  61  90 125 155 187 231 276
#     4   8  15  30  50  69  91 119 151 190 236 284
#
# _framework density 15.723986999999999
#
# number of rings (size 3 to 8) (size 9 to 14) (size 15 to 20)
#    0.000    2.455    1.818    2.182    1.273    4.727 
#    0.000    0.909    0.000    0.545    0.000    0.000 
#    0.000    0.000    0.000    0.182    0.000    9.909 
#
# Total GULP energy -545233.073083 kJ/mol
# GULP energy per Si atom -12391.660752 kJ/mol
# Density = 1.568820 g / cm^3
# Si number density = 15.723987 Si / 1000 Ang^3
#
#
#
# Elastic Constant Matrix: (Units=GPa)
#
#
# Indices 1 2 3 4 5 6 
#
# 1 158.0777 59.2347 45.8861 0.0000 0.0000 0.0000
# 2 59.2347 83.2503 22.3305 0.0000 0.0000 0.0000
# 3 45.8861 22.3305 42.8864 0.0000 0.0000 0.0000
# 4 0.0000 0.0000 0.0000 7.4610 0.0000 0.0000
# 5 0.0000 0.0000 0.0000 0.0000 19.6281 0.0000
# 6 0.0000 0.0000 0.0000 0.0000 0.0000 30.6381
#
#
#
# Elastic Compliance Matrix: (Units=1/GPa)
#
#
# Indices 1 2 3 4 5 6 
#
# 1 0.010924 -0.005390 -0.008881 0.000000 0.000000 0.000000
# 2 -0.005390 0.016622 -0.002887 0.000000 0.000000 0.000000
# 3 -0.008881 -0.002887 0.034323 0.000000 0.000000 0.000000
# 4 0.000000 0.000000 0.000000 0.134030 0.000000 0.000000
# 5 0.000000 0.000000 0.000000 0.000000 0.050947 0.000000
# 6 0.000000 0.000000 0.000000 0.000000 0.000000 0.032639
#
#
# Mechanical properties :
#
#
# Convention : Reuss Voigt Hill
#
# Bulk Modulus (GPa) = 36.29634 59.90188 48.09911
# Shear Modulus (GPa) = 15.48046 21.99630 18.73838
#
# Velocity S-wave (km/s) = 3.14110 3.74425 3.45586
# Velocity P-wave (km/s) = 6.02402 7.54129 6.82495
#
# Compressibility (1/GPa) = 0.02755098
#
# Stress axis : x y z
#
# Youngs Moduli (GPa) = 91.54240 60.16175 29.13471
#
# Poissons Ratio (x) = 0.32430 0.25875
# Poissons Ratio (y) = 0.49345 0.08412
# Poissons Ratio (z) = 0.81301 0.17371
#
# Static dielectric constant tensor:
#      x y z
#    x 3.385790 0.000000 0.000000 
#    y 0.000000 2.979090 0.000000 
#    z 0.000000 0.000000 2.748200 
# 
# 
# High freq. dielectric constant tensor:
#      x y z
#    x 1.621670 0.000000 0.000000 
#    y 0.000000 1.597990 0.000000 
#    z 0.000000 0.000000 1.538600 
# 
# From -- ./inp_files/45881.got.cif
#   From: 2010.03.12/outbox.cif.g09.slc.cpg/sg65_23_cif.got.tgz:45881.got - 2010.04.10 20:52:16.
