data_PCOD8267265
_publ_section_title
;
Structure prediction by ZEFSAII (Michael W. Deem and Ramdas Pophale) SiO2 
 PCOD8267265
Probable space group: C M M M
;
_chemical_formula_sum "Si O2"
_cell_formula_units_Z 88
_cell_length_a 9.195217
_cell_length_b 26.887151
_cell_length_c 19.258300
_cell_angle_alpha 90.000000
_cell_angle_beta 90.000000
_cell_angle_gamma 90.000000
_cell_volume 4761.290904
_symmetry_space_group_name_H-M "C M M M"
_symmetry_group_IT_number 65
_symmetry_cell_setting 'orthorhombic'
loop_
_space_group_symop_operation_xyz
x,y,z
-x,-y,z
x,-y,-z
-x,y,-z
-x,-y,-z
x,y,-z
-x,y,z
x,-y,z
1/2+x,1/2+y,z
1/2-x,1/2-y,z
1/2+x,1/2-y,-z
1/2-x,1/2+y,-z
1/2-x,1/2-y,-z
1/2+x,1/2+y,-z
1/2-x,1/2+y,z
1/2+x,1/2-y,z
loop_
_atom_site_type_symbol
_atom_site_label
_atom_site_fract_x
_atom_site_fract_y
_atom_site_fract_z
Si Si1 0.170909 0.100867 0.847993
Si Si2 0.659764 0.057894 0.424116
Si Si3 0.668345 0.392020 0.687932
Si Si4 0.834619 0.298827 0.143465
Si Si5 0.337690 0.796214 0.691473
Si Si6 0.827427 0.000000 0.078813
O O1 0.204075 0.092630 0.766787
O O2 0.253647 0.149680 0.877883
O O3 0.000000 0.109338 0.861764
O O4 0.229932 0.050675 0.884971
O O5 0.704671 0.080319 0.500000
O O6 0.500000 0.079115 0.402048
O O7 0.781378 0.065991 0.365314
O O8 0.646031 0.000000 0.432905
O O9 0.500000 0.380234 0.679556
O O10 0.758053 0.344482 0.663491
O O11 0.750000 0.250000 0.113598
O O12 0.837272 0.295092 0.225736
O O13 0.000000 0.299328 0.114115
O O14 0.500000 0.794559 0.661834
O O15 0.250000 0.750000 0.660835
O O16 0.000000 0.000000 0.083393
O O17 0.771184 0.000000 0.000000
#
# Coordination Sequence:
#
# PCOD8267265 Si02
#       6
#    16  16  16  16  16   8
#     4   9  18  31  49  75 104 133 170 212 253 296
#     4   9  19  35  51  67  92 128 166 203 246 295
#     4  10  19  29  47  74 102 128 160 204 250 292
#     4   9  16  27  46  72 102 132 164 205 255 303
#     4   9  16  27  44  67  98 130 163 199 243 294
#     4   9  18  34  55  75 100 139 178 208 245 299
#
# _framework density 18.482382000000001
#
# number of rings (size 3 to 8) (size 9 to 14) (size 15 to 20)
#    0.000    2.818    0.000    2.182    1.273    5.818 
#    0.000    1.364    0.000    2.182    0.000    0.000 
#    0.000    0.000    0.000    0.000    0.000    0.000 
#
# Total GULP energy -545311.774108 kJ/mol
# GULP energy per Si atom -12393.449412 kJ/mol
# Density = 1.844032 g / cm^3
# Si number density = 18.482382 Si / 1000 Ang^3
#
#
#
# Elastic Constant Matrix: (Units=GPa)
#
#
# Indices 1 2 3 4 5 6 
#
# 1 110.2173 60.9397 37.3953 0.0000 0.0000 0.0000
# 2 60.9397 134.1317 43.4005 0.0000 0.0000 0.0000
# 3 37.3953 43.4005 62.5111 0.0000 0.0000 0.0000
# 4 0.0000 0.0000 0.0000 4.1642 0.0000 0.0000
# 5 0.0000 0.0000 0.0000 0.0000 72.8407 0.0000
# 6 0.0000 0.0000 0.0000 0.0000 0.0000 34.4655
#
#
#
# Elastic Compliance Matrix: (Units=1/GPa)
#
#
# Indices 1 2 3 4 5 6 
#
# 1 0.013143 -0.004420 -0.004794 0.000000 0.000000 0.000000
# 2 -0.004420 0.011102 -0.005064 0.000000 0.000000 0.000000
# 3 -0.004794 -0.005064 0.022380 0.000000 0.000000 0.000000
# 4 0.000000 0.000000 0.000000 0.240143 0.000000 0.000000
# 5 0.000000 0.000000 0.000000 0.000000 0.013729 0.000000
# 6 0.000000 0.000000 0.000000 0.000000 0.000000 0.029015
#
#
# Mechanical properties :
#
#
# Convention : Reuss Voigt Hill
#
# Bulk Modulus (GPa) = 55.33853 65.59234 60.46544
# Shear Modulus (GPa) = 13.73282 33.30240 23.51761
#
# Velocity S-wave (km/s) = 2.72880 4.24942 3.57099
# Velocity P-wave (km/s) = 6.31939 7.72288 7.05612
#
# Compressibility (1/GPa) = 0.01807059
#
# Stress axis : x y z
#
# Youngs Moduli (GPa) = 76.08352 90.07323 44.68195
#
# Poissons Ratio (x) = 0.39816 0.21419
# Poissons Ratio (y) = 0.33632 0.22625
# Poissons Ratio (z) = 0.36472 0.45610
#
# Static dielectric constant tensor:
#      x y z
#    x 3.524970 0.000000 0.000000 
#    y 0.000000 3.516900 0.000000 
#    z 0.000000 0.000000 3.044440 
# 
# 
# High freq. dielectric constant tensor:
#      x y z
#    x 1.714320 0.000000 0.000000 
#    y 0.000000 1.720900 0.000000 
#    z 0.000000 0.000000 1.675100 
# 
# From -- ./inp_files/59813.got.cif
#   From: 2010.03.12/outbox.cif.g09.slc.cpg/sg65_30_cif.got.tgz:59813.got - 2010.04.10 20:52:16.
