data_PCOD8267706
_publ_section_title
;
Structure prediction by ZEFSAII (Michael W. Deem and Ramdas Pophale) SiO2 
 PCOD8267706
Probable space group: C M M M
;
_chemical_formula_sum "Si O2"
_cell_formula_units_Z 104
_cell_length_a 27.198887
_cell_length_b 9.159117
_cell_length_c 26.918802
_cell_angle_alpha 90.000000
_cell_angle_beta 90.000000
_cell_angle_gamma 90.000000
_cell_volume 6705.952418
_symmetry_space_group_name_H-M "C M M M"
_symmetry_group_IT_number 65
_symmetry_cell_setting 'orthorhombic'
loop_
_space_group_symop_operation_xyz
x,y,z
-x,-y,z
x,-y,-z
-x,y,-z
-x,-y,-z
x,y,-z
-x,y,z
x,-y,z
1/2+x,1/2+y,z
1/2-x,1/2-y,z
1/2+x,1/2-y,-z
1/2-x,1/2+y,-z
1/2-x,1/2-y,-z
1/2+x,1/2+y,-z
1/2-x,1/2+y,z
1/2+x,1/2-y,z
loop_
_atom_site_type_symbol
_atom_site_label
_atom_site_fract_x
_atom_site_fract_y
_atom_site_fract_z
Si Si1 0.302199 0.172711 0.500000
Si Si2 0.387400 0.671221 0.254643
Si Si3 0.058449 0.836141 0.947417
Si Si4 0.698781 0.828642 0.302783
Si Si5 0.944352 0.829563 0.353798
Si Si6 0.641502 0.830119 0.598183
Si Si7 0.555110 0.325370 0.158797
O O1 0.250000 0.250000 0.500000
O O2 0.333026 0.224086 0.547785
O O3 0.293120 0.000000 0.500000
O O4 0.374557 0.500000 0.253223
O O5 0.338106 0.763454 0.262056
O O6 0.426220 0.705635 0.298190
O O7 0.410101 0.728622 0.203033
O O8 0.075854 0.764442 0.894848
O O9 0.000000 0.840821 0.944624
O O10 0.079272 0.000000 0.949863
O O11 0.074653 0.756990 0.000000
O O12 0.750000 0.750000 0.295474
O O13 0.678805 0.791995 0.357522
O O14 0.705016 0.000000 0.294057
O O15 0.910206 0.751396 0.394491
O O16 0.000000 0.771251 0.359164
O O17 0.941669 0.000000 0.364821
O O18 0.629265 0.000000 0.596182
O O19 0.500000 0.266522 0.168816
O O20 0.553952 0.500000 0.157086
#
# Coordination Sequence:
#
# PCOD8267706 Si02
#       7
#     8  16  16  16  16  16  16
#     4  10  20  34  51  70  89 107 132 167 207 248
#     4   9  16  26  41  61  84 109 138 171 204 238
#     4   7   9  13  22  40  70 106 138 166 197 231
#     4  10  19  31  46  63  83 106 132 162 200 245
#     4   9  17  29  45  64  86 113 144 174 201 232
#     4   9  19  33  48  67  88 109 134 164 199 243
#     4   8  12  18  31  52  78 109 142 171 198 231
#
# _framework density 15.508609999999999
#
# number of rings (size 3 to 8) (size 9 to 14) (size 15 to 20)
#    0.000    3.231    0.000    2.769    0.000    3.385 
#    0.000    0.385    0.000    3.692    0.000    0.000 
#    0.000    1.231    0.000    4.923    0.000    4.615 
#
# Total GULP energy -644316.791099 kJ/mol
# GULP energy per Si atom -12390.707521 kJ/mol
# Density = 1.547331 g / cm^3
# Si number density = 15.508610 Si / 1000 Ang^3
#
#
#
# Elastic Constant Matrix: (Units=GPa)
#
#
# Indices 1 2 3 4 5 6 
#
# 1 122.6801 41.7256 70.7038 0.0000 0.0000 0.0000
# 2 41.7256 33.7963 31.9376 0.0000 0.0000 0.0000
# 3 70.7038 31.9376 146.6602 0.0000 0.0000 0.0000
# 4 0.0000 0.0000 0.0000 10.0322 0.0000 0.0000
# 5 0.0000 0.0000 0.0000 0.0000 15.9698 0.0000
# 6 0.0000 0.0000 0.0000 0.0000 0.0000 22.8410
#
#
#
# Elastic Compliance Matrix: (Units=1/GPa)
#
#
# Indices 1 2 3 4 5 6 
#
# 1 0.015932 -0.015627 -0.004277 0.000000 0.000000 0.000000
# 2 -0.015627 0.052585 -0.003917 0.000000 0.000000 0.000000
# 3 -0.004277 -0.003917 0.009734 0.000000 0.000000 0.000000
# 4 0.000000 0.000000 0.000000 0.099679 0.000000 0.000000
# 5 0.000000 0.000000 0.000000 0.000000 0.062618 0.000000
# 6 0.000000 0.000000 0.000000 0.000000 0.000000 0.043781
#
#
# Mechanical properties :
#
#
# Convention : Reuss Voigt Hill
#
# Bulk Modulus (GPa) = 32.67350 65.76341 49.21845
# Shear Modulus (GPa) = 14.61246 20.35324 17.48285
#
# Velocity S-wave (km/s) = 3.07288 3.62661 3.36117
# Velocity P-wave (km/s) = 5.80550 7.74809 6.84605
#
# Compressibility (1/GPa) = 0.03060585
#
# Stress axis : x y z
#
# Youngs Moduli (GPa) = 62.76845 19.01693 102.73626
#
# Poissons Ratio (x) = 0.29718 0.43944
# Poissons Ratio (y) = 0.98090 0.40246
# Poissons Ratio (z) = 0.26849 0.07450
#
# Static dielectric constant tensor:
#      x y z
#    x 2.820020 0.000000 0.000000 
#    y 0.000000 2.677270 0.000000 
#    z 0.000000 0.000000 3.389000 
# 
# 
# High freq. dielectric constant tensor:
#      x y z
#    x 1.569650 0.000000 0.000000 
#    y 0.000000 1.563010 0.000000 
#    z 0.000000 0.000000 1.601500 
# 
# From -- ./inp_files/76242.got.cif
#   From: 2010.03.12/outbox.cif.g09.slc.cpg/sg65_39_cif.got.tgz:76242.got - 2010.04.10 20:52:16.
