data_PCOD8267217
_publ_section_title
;
Structure prediction by ZEFSAII (Michael W. Deem and Ramdas Pophale) SiO2 
 PCOD8267217
Probable space group: C M M M
;
_chemical_formula_sum "Si O2"
_cell_formula_units_Z 104
_cell_length_a 18.810554
_cell_length_b 25.690193
_cell_length_c 12.174056
_cell_angle_alpha 90.000000
_cell_angle_beta 90.000000
_cell_angle_gamma 90.000000
_cell_volume 5883.073151
_symmetry_space_group_name_H-M "C M M M"
_symmetry_group_IT_number 65
_symmetry_cell_setting 'orthorhombic'
loop_
_space_group_symop_operation_xyz
x,y,z
-x,-y,z
x,-y,-z
-x,y,-z
-x,-y,-z
x,y,-z
-x,y,z
x,-y,z
1/2+x,1/2+y,z
1/2-x,1/2-y,z
1/2+x,1/2-y,-z
1/2-x,1/2+y,-z
1/2-x,1/2-y,-z
1/2+x,1/2+y,-z
1/2-x,1/2+y,z
1/2+x,1/2-y,z
loop_
_atom_site_type_symbol
_atom_site_label
_atom_site_fract_x
_atom_site_fract_y
_atom_site_fract_z
Si Si1 0.667241 0.121081 0.177540
Si Si2 0.583689 0.363321 0.806120
Si Si3 0.416676 0.171988 0.629027
Si Si4 0.191506 0.295102 0.000000
Si Si5 0.199744 0.939512 0.129018
Si Si6 0.583942 0.059199 0.000000
Si Si7 0.415740 0.288937 0.380484
Si Si8 0.418236 0.711690 0.000000
O O1 0.631767 0.135441 0.294160
O O2 0.735821 0.084927 0.198832
O O3 0.609768 0.088907 0.108188
O O4 0.696400 0.170822 0.110367
O O5 0.500000 0.376344 0.807512
O O6 0.625150 0.416427 0.828672
O O7 0.610923 0.336165 0.694745
O O8 0.605466 0.321148 0.895809
O O9 0.401113 0.160921 0.500000
O O10 0.500000 0.162132 0.653841
O O11 0.394604 0.231201 0.660364
O O12 0.250000 0.250000 0.000000
O O13 0.114985 0.268455 0.000000
O O14 0.195691 0.000000 0.153894
O O15 0.212076 0.927866 0.000000
O O16 0.500000 0.058796 0.000000
O O17 0.614182 0.000000 0.000000
O O18 0.382190 0.299078 0.500000
O O19 0.500000 0.290213 0.386289
O O20 0.500000 0.724139 0.000000
#
# Coordination Sequence:
#
# PCOD8267217 Si02
#       8
#    16  16  16   8  16   8  16   8
#     4  11  21  34  53  76 105 142 179 216 268 323
#     4  10  19  33  54  79 106 136 175 220 266 321
#     4   9  18  34  56  83 113 145 182 219 255 309
#     4  11  21  31  47  73 109 146 175 211 259 322
#     4  11  22  38  56  73 101 139 179 226 279 325
#     4  10  20  34  54  78 101 129 173 223 267 319
#     4   8  15  30  53  79 108 142 174 207 253 309
#     4  10  19  29  44  73 109 136 160 205 265 317
#
# _framework density 17.677835000000002
#
# number of rings (size 3 to 8) (size 9 to 14) (size 15 to 20)
#    0.000    2.077    2.308    3.692    0.000    3.385 
#    0.000    1.538    0.000    5.538    0.000    7.538 
#    0.000    0.000    0.000    0.000    0.000    0.000 
#
# Total GULP energy -644656.064023 kJ/mol
# GULP energy per Si atom -12397.232000 kJ/mol
# Density = 1.763760 g / cm^3
# Si number density = 17.677835 Si / 1000 Ang^3
#
#
#
# Elastic Constant Matrix: (Units=GPa)
#
#
# Indices 1 2 3 4 5 6 
#
# 1 68.2740 53.8240 39.9142 0.0000 0.0000 0.0000
# 2 53.8240 121.0867 54.7630 0.0000 0.0000 0.0000
# 3 39.9142 54.7630 95.0579 0.0000 0.0000 0.0000
# 4 0.0000 0.0000 0.0000 23.1899 0.0000 0.0000
# 5 0.0000 0.0000 0.0000 0.0000 -60.2290 0.0000
# 6 0.0000 0.0000 0.0000 0.0000 0.0000 33.5176
#
#
#
# Elastic Compliance Matrix: (Units=1/GPa)
#
#
# Indices 1 2 3 4 5 6 
#
# 1 0.024450 -0.008419 -0.005417 0.000000 0.000000 0.000000
# 2 -0.008419 0.014067 -0.004569 0.000000 0.000000 0.000000
# 3 -0.005417 -0.004569 0.015427 0.000000 0.000000 0.000000
# 4 0.000000 0.000000 0.000000 0.043122 0.000000 0.000000
# 5 0.000000 0.000000 0.000000 0.000000 -0.016603 0.000000
# 6 0.000000 0.000000 0.000000 0.000000 0.000000 0.029835
#
#
# Mechanical properties :
#
#
# Convention : Reuss Voigt Hill
#
# Bulk Modulus (GPa) = 58.35891 64.60233 61.48062
# Shear Modulus (GPa) = 32.71850 8.35685 20.53767
#
# Velocity S-wave (km/s) = 4.30678 2.17659 3.41218
# Velocity P-wave (km/s) = 7.60364 6.55289 7.09773
#
# Compressibility (1/GPa) = 0.01713534
#
# Stress axis : x y z
#
# Youngs Moduli (GPa) = 40.89920 71.08737 64.82318
#
# Poissons Ratio (x) = 0.59846 0.35112
# Poissons Ratio (y) = 0.34432 0.29619
# Poissons Ratio (z) = 0.22153 0.32481
#
# Static dielectric constant tensor:
#      x y z
#    x 3.180990 0.000000 0.000000 
#    y 0.000000 3.320410 0.000000 
#    z 0.000000 0.000000 6.330140 
# 
# 
# High freq. dielectric constant tensor:
#      x y z
#    x 1.678140 0.000000 0.000000 
#    y 0.000000 1.678900 0.000000 
#    z 0.000000 0.000000 1.671330 
# 
# From -- ./inp_files/27561.got.cif
#   From: 2010.03.12/outbox.cif.g09.slc.cpg/sg65_14_cif.got.tgz:27561.got - 2010.04.10 20:52:16.
