data_PCOD8267998
_publ_section_title
;
Structure prediction by ZEFSAII (Michael W. Deem and Ramdas Pophale) SiO2 
 PCOD8267998
Probable space group: C M M M
;
_chemical_formula_sum "Si O2"
_cell_formula_units_Z 104
_cell_length_a 27.541898
_cell_length_b 8.003722
_cell_length_c 23.607584
_cell_angle_alpha 90.000000
_cell_angle_beta 90.000000
_cell_angle_gamma 90.000000
_cell_volume 5204.001400
_symmetry_space_group_name_H-M "C M M M"
_symmetry_group_IT_number 65
_symmetry_cell_setting 'orthorhombic'
loop_
_space_group_symop_operation_xyz
x,y,z
-x,-y,z
x,-y,-z
-x,y,-z
-x,-y,-z
x,y,-z
-x,y,z
x,-y,z
1/2+x,1/2+y,z
1/2-x,1/2-y,z
1/2+x,1/2-y,-z
1/2-x,1/2+y,-z
1/2-x,1/2-y,-z
1/2+x,1/2+y,-z
1/2-x,1/2+y,z
1/2+x,1/2-y,z
loop_
_atom_site_type_symbol
_atom_site_label
_atom_site_fract_x
_atom_site_fract_y
_atom_site_fract_z
Si Si1 0.697317 0.805905 0.871626
Si Si2 0.194499 0.802122 0.651747
Si Si3 0.395032 0.197059 0.938017
Si Si4 0.945537 0.000000 0.432792
Si Si5 0.856411 0.809036 0.764657
Si Si6 0.053060 0.304987 0.171610
Si Si7 0.119195 0.310645 0.565931
O O1 0.750000 0.750000 0.892217
O O2 0.660731 0.761384 0.922498
O O3 0.682567 0.710045 0.814658
O O4 0.695237 0.000000 0.856654
O O5 0.250000 0.750000 0.655392
O O6 0.166569 0.733541 0.707505
O O7 0.170145 0.714070 0.597759
O O8 0.190236 0.000000 0.646153
O O9 0.428984 0.274352 0.888443
O O10 0.402839 0.000000 0.940849
O O11 0.406880 0.275537 0.000000
O O12 0.918837 0.170007 0.411743
O O13 0.947901 0.000000 0.500000
O O14 0.000000 0.000000 0.407356
O O15 0.908012 0.724149 0.778821
O O16 0.868359 0.000000 0.754579
O O17 0.048261 0.500000 0.162468
O O18 0.000000 0.228905 0.187104
O O19 0.129928 0.282324 0.500000
O O20 0.099216 0.500000 0.576482
#
# Coordination Sequence:
#
# PCOD8267998 Si02
#       7
#    16  16  16   8  16  16  16
#     4  10  19  31  49  72 100 135 174 218 269 325
#     4  11  23  38  58  84 114 152 194 240 292 348
#     4   8  15  28  46  71 102 134 171 216 265 322
#     4   9  18  36  62  88 120 160 200 248 294 340
#     4  10  21  36  55  78 105 139 181 229 276 328
#     4   9  18  33  54  78 104 137 175 220 277 333
#     4  10  21  38  61  90 125 162 201 247 297 352
#
# _framework density 19.984622000000002
#
# number of rings (size 3 to 8) (size 9 to 14) (size 15 to 20)
#    0.000    2.385    0.769    2.769    0.000    5.231 
#    0.000    3.846    0.000   11.077    0.000    4.308 
#    0.000    0.000    0.000    0.000    0.000    0.000 
#
# Total GULP energy -644569.098038 kJ/mol
# GULP energy per Si atom -12395.559578 kJ/mol
# Density = 1.993914 g / cm^3
# Si number density = 19.984622 Si / 1000 Ang^3
#
#
#
# Elastic Constant Matrix: (Units=GPa)
#
#
# Indices 1 2 3 4 5 6 
#
# 1 169.8265 38.5558 54.4499 0.0000 0.0000 0.0000
# 2 38.5558 73.6643 31.3027 0.0000 0.0000 0.0000
# 3 54.4499 31.3027 90.4665 0.0000 0.0000 0.0000
# 4 0.0000 0.0000 0.0000 18.2559 0.0000 0.0000
# 5 0.0000 0.0000 0.0000 0.0000 19.7008 0.0000
# 6 0.0000 0.0000 0.0000 0.0000 0.0000 24.9422
#
#
#
# Elastic Compliance Matrix: (Units=1/GPa)
#
#
# Indices 1 2 3 4 5 6 
#
# 1 0.007641 -0.002398 -0.003770 0.000000 0.000000 0.000000
# 2 -0.002398 0.016668 -0.004324 0.000000 0.000000 0.000000
# 3 -0.003770 -0.004324 0.014819 0.000000 0.000000 0.000000
# 4 0.000000 0.000000 0.000000 0.054777 0.000000 0.000000
# 5 0.000000 0.000000 0.000000 0.000000 0.050759 0.000000
# 6 0.000000 0.000000 0.000000 0.000000 0.000000 0.040093
#
#
# Mechanical properties :
#
#
# Convention : Reuss Voigt Hill
#
# Bulk Modulus (GPa) = 55.11136 64.73045 59.92090
# Shear Modulus (GPa) = 23.60856 26.55635 25.08246
#
# Velocity S-wave (km/s) = 3.44079 3.64928 3.54657
# Velocity P-wave (km/s) = 6.58954 7.08638 6.84247
#
# Compressibility (1/GPa) = 0.01814508
#
# Stress axis : x y z
#
# Youngs Moduli (GPa) = 130.86813 59.99699 67.48176
#
# Poissons Ratio (x) = 0.14385 0.25437
# Poissons Ratio (y) = 0.31377 0.29180
# Poissons Ratio (z) = 0.49331 0.25943
#
# Static dielectric constant tensor:
#      x y z
#    x 3.994820 0.000000 0.000000 
#    y 0.000000 3.555700 0.000000 
#    z 0.000000 0.000000 3.678610 
# 
# 
# High freq. dielectric constant tensor:
#      x y z
#    x 1.778480 0.000000 0.000000 
#    y 0.000000 1.770000 0.000000 
#    z 0.000000 0.000000 1.767530 
# 
# From -- ./inp_files/71804.got.cif
#   From: 2010.03.12/outbox.cif.g09.slc.cpg/sg65_36_cif.got.tgz:71804.got - 2010.04.10 20:52:16.
