data_PCOD8267576
_publ_section_title
;
Structure prediction by ZEFSAII (Michael W. Deem and Ramdas Pophale) SiO2 
 PCOD8267576
Probable space group: C M M M
;
_chemical_formula_sum "Si O2"
_cell_formula_units_Z 104
_cell_length_a 23.886607
_cell_length_b 8.834985
_cell_length_c 27.731332
_cell_angle_alpha 90.000000
_cell_angle_beta 90.000000
_cell_angle_gamma 90.000000
_cell_volume 5852.359700
_symmetry_space_group_name_H-M "C M M M"
_symmetry_group_IT_number 65
_symmetry_cell_setting 'orthorhombic'
loop_
_space_group_symop_operation_xyz
x,y,z
-x,-y,z
x,-y,-z
-x,y,-z
-x,-y,-z
x,y,-z
-x,y,z
x,-y,z
1/2+x,1/2+y,z
1/2-x,1/2-y,z
1/2+x,1/2-y,-z
1/2-x,1/2+y,-z
1/2-x,1/2-y,-z
1/2+x,1/2+y,-z
1/2-x,1/2+y,z
1/2+x,1/2-y,z
loop_
_atom_site_type_symbol
_atom_site_label
_atom_site_fract_x
_atom_site_fract_y
_atom_site_fract_z
Si Si1 0.308006 0.822745 0.944857
Si Si2 0.189024 0.179743 0.230792
Si Si3 0.500000 0.675838 0.840545
Si Si4 0.500000 0.167987 0.255776
Si Si5 0.066218 0.669714 0.500000
Si Si6 0.120562 0.179675 0.135898
Si Si7 0.564686 0.320875 0.598431
Si Si8 0.114113 0.674410 0.311099
O O1 0.250000 0.750000 0.928265
O O2 0.355944 0.755960 0.911740
O O3 0.303013 0.000000 0.937027
O O4 0.322151 0.780505 0.000000
O O5 0.250000 0.250000 0.224551
O O6 0.152804 0.230987 0.184287
O O7 0.160812 0.241666 0.279371
O O8 0.193492 0.000000 0.234201
O O9 0.500000 0.500000 0.850094
O O10 0.500000 0.702598 0.783787
O O11 0.443014 0.743510 0.862653
O O12 0.553941 0.192919 0.287655
O O13 0.500000 0.000000 0.232298
O O14 0.091530 0.500000 0.500000
O O15 0.086353 0.759703 0.547145
O O16 0.000000 0.661785 0.500000
O O17 0.123335 0.000000 0.130679
O O18 0.500000 0.271176 0.608184
O O19 0.569799 0.500000 0.599303
O O20 0.607992 0.251399 0.636887
O O21 0.131942 0.500000 0.316801
#
# Coordination Sequence:
#
# PCOD8267576 Si02
#       8
#    16  16   8   8   8  16  16  16
#     4  10  21  37  58  82 107 137 176 222 269 315
#     4  11  23  38  55  78 107 140 177 220 267 315
#     4  10  20  36  55  79 109 142 178 214 257 312
#     4  10  20  32  50  76 106 140 178 217 260 310
#     4   9  17  29  45  67 100 139 178 221 267 316
#     4  10  21  36  57  82 109 141 176 215 261 315
#     4  10  19  30  47  72 104 141 179 219 266 319
#     4  11  21  34  52  77 107 141 180 219 264 318
#
# _framework density 17.770610000000001
#
# number of rings (size 3 to 8) (size 9 to 14) (size 15 to 20)
#    0.000    1.769    2.308    2.538    0.000    6.154 
#    0.000    0.385    0.000    2.308    0.000    0.538 
#    0.000    0.000    0.000    0.000    0.000    0.000 
#
# Total GULP energy -644820.165305 kJ/mol
# GULP energy per Si atom -12400.387794 kJ/mol
# Density = 1.773016 g / cm^3
# Si number density = 17.770610 Si / 1000 Ang^3
#
#
#
# Elastic Constant Matrix: (Units=GPa)
#
#
# Indices 1 2 3 4 5 6 
#
# 1 120.7137 47.1923 64.5043 0.0000 0.0000 0.0000
# 2 47.1923 68.0571 46.4416 0.0000 0.0000 0.0000
# 3 64.5043 46.4416 123.4146 0.0000 0.0000 0.0000
# 4 0.0000 0.0000 0.0000 36.0518 0.0000 0.0000
# 5 0.0000 0.0000 0.0000 0.0000 26.1773 0.0000
# 6 0.0000 0.0000 0.0000 0.0000 0.0000 25.4540
#
#
#
# Elastic Compliance Matrix: (Units=1/GPa)
#
#
# Indices 1 2 3 4 5 6 
#
# 1 0.013052 -0.005914 -0.004596 0.000000 0.000000 0.000000
# 2 -0.005914 0.022450 -0.005357 0.000000 0.000000 0.000000
# 3 -0.004596 -0.005357 0.012521 0.000000 0.000000 0.000000
# 4 0.000000 0.000000 0.000000 0.027738 0.000000 0.000000
# 5 0.000000 0.000000 0.000000 0.000000 0.038201 0.000000
# 6 0.000000 0.000000 0.000000 0.000000 0.000000 0.039287
#
#
# Mechanical properties :
#
#
# Convention : Reuss Voigt Hill
#
# Bulk Modulus (GPa) = 61.39390 69.82910 65.61150
# Shear Modulus (GPa) = 26.25862 27.80642 27.03252
#
# Velocity S-wave (km/s) = 3.84818 3.95997 3.90448
# Velocity P-wave (km/s) = 7.37344 7.76457 7.57153
#
# Compressibility (1/GPa) = 0.01628826
#
# Stress axis : x y z
#
# Youngs Moduli (GPa) = 76.61468 44.54311 79.86575
#
# Poissons Ratio (x) = 0.26344 0.36710
# Poissons Ratio (y) = 0.45312 0.42784
# Poissons Ratio (z) = 0.35215 0.23862
#
# Static dielectric constant tensor:
#      x y z
#    x 3.275340 0.000000 0.000000 
#    y 0.000000 3.386570 0.000000 
#    z 0.000000 0.000000 3.342180 
# 
# 
# High freq. dielectric constant tensor:
#      x y z
#    x 1.665580 0.000000 0.000000 
#    y 0.000000 1.697280 0.000000 
#    z 0.000000 0.000000 1.689480 
# 
# From -- ./inp_files/75827.got.cif
#   From: 2010.03.12/outbox.cif.g09.slc.cpg/sg65_38_cif.got.tgz:75827.got - 2010.04.10 20:52:16.
