data_PCOD8267415
_publ_section_title
;
Structure prediction by ZEFSAII (Michael W. Deem and Ramdas Pophale) SiO2 
 PCOD8267415
Probable space group: C M M M
;
_chemical_formula_sum "Si O2"
_cell_formula_units_Z 104
_cell_length_a 8.911411
_cell_length_b 27.528342
_cell_length_c 26.305406
_cell_angle_alpha 90.000000
_cell_angle_beta 90.000000
_cell_angle_gamma 90.000000
_cell_volume 6453.146704
_symmetry_space_group_name_H-M "C M M M"
_symmetry_group_IT_number 65
_symmetry_cell_setting 'orthorhombic'
loop_
_space_group_symop_operation_xyz
x,y,z
-x,-y,z
x,-y,-z
-x,y,-z
-x,-y,-z
x,y,-z
-x,y,z
x,-y,z
1/2+x,1/2+y,z
1/2-x,1/2-y,z
1/2+x,1/2-y,-z
1/2-x,1/2+y,-z
1/2-x,1/2-y,-z
1/2+x,1/2+y,-z
1/2-x,1/2+y,z
1/2+x,1/2-y,z
loop_
_atom_site_type_symbol
_atom_site_label
_atom_site_fract_x
_atom_site_fract_y
_atom_site_fract_z
Si Si1 0.677387 0.697675 0.250801
Si Si2 0.176416 0.056696 0.396867
Si Si3 0.323710 0.300713 0.056911
Si Si4 0.822391 0.388964 0.303895
Si Si5 0.668867 0.942497 0.500000
Si Si6 0.676503 0.945692 0.796377
Si Si7 0.175667 0.861212 0.848655
O O1 0.500000 0.701333 0.258181
O O2 0.750000 0.750000 0.256833
O O3 0.746013 0.663144 0.294337
O O4 0.721162 0.676604 0.195488
O O5 0.259338 0.088348 0.355002
O O6 0.240621 0.075187 0.450621
O O7 0.000000 0.066624 0.395239
O O8 0.212842 0.000000 0.387862
O O9 0.500000 0.293028 0.061660
O O10 0.250000 0.250000 0.071399
O O11 0.267887 0.340687 0.097199
O O12 0.277562 0.317455 0.000000
O O13 0.776486 0.425107 0.258432
O O14 0.000000 0.382180 0.308114
O O15 0.500000 0.920732 0.500000
O O16 0.660930 0.000000 0.500000
O O17 0.500000 0.945417 0.803041
O O18 0.745390 0.912887 0.840892
O O19 0.741645 0.000000 0.801304
O O20 0.000000 0.870659 0.848370
#
# Coordination Sequence:
#
# PCOD8267415 Si02
#       7
#    16  16  16  16   8  16  16
#     4  10  19  31  46  66  92 119 149 184 224 270
#     4  10  19  30  45  67  96 126 155 190 230 270
#     4   9  17  29  45  66  91 116 144 180 222 268
#     4  10  19  31  47  67  91 120 153 187 226 271
#     4   9  17  29  45  65  90 123 160 193 227 269
#     4   9  18  31  46  65  89 117 150 187 224 264
#     4   9  18  30  45  66  90 117 148 182 221 267
#
# _framework density 16.116167999999998
#
# number of rings (size 3 to 8) (size 9 to 14) (size 15 to 20)
#    0.000    2.538    0.000    2.538    0.000    4.615 
#    0.000    0.000    0.000    0.462    0.000    3.769 
#    0.000    0.000    0.000    0.000    0.000    0.000 
#
# Total GULP energy -644837.104506 kJ/mol
# GULP energy per Si atom -12400.713548 kJ/mol
# Density = 1.607949 g / cm^3
# Si number density = 16.116168 Si / 1000 Ang^3
#
#
#
# Elastic Constant Matrix: (Units=GPa)
#
#
# Indices 1 2 3 4 5 6 
#
# 1 59.2906 44.7097 38.3666 0.0000 0.0000 0.0000
# 2 44.7097 126.9664 66.4863 0.0000 0.0000 0.0000
# 3 38.3666 66.4863 115.9140 0.0000 0.0000 0.0000
# 4 0.0000 0.0000 0.0000 16.2193 0.0000 0.0000
# 5 0.0000 0.0000 0.0000 0.0000 24.9568 0.0000
# 6 0.0000 0.0000 0.0000 0.0000 0.0000 28.9050
#
#
#
# Elastic Compliance Matrix: (Units=1/GPa)
#
#
# Indices 1 2 3 4 5 6 
#
# 1 0.024516 -0.006266 -0.004521 0.000000 0.000000 0.000000
# 2 -0.006266 0.012859 -0.005302 0.000000 0.000000 0.000000
# 3 -0.004521 -0.005302 0.013164 0.000000 0.000000 0.000000
# 4 0.000000 0.000000 0.000000 0.061655 0.000000 0.000000
# 5 0.000000 0.000000 0.000000 0.000000 0.040069 0.000000
# 6 0.000000 0.000000 0.000000 0.000000 0.000000 0.034596
#
#
# Mechanical properties :
#
#
# Convention : Reuss Voigt Hill
#
# Bulk Modulus (GPa) = 54.45720 66.81067 60.63394
# Shear Modulus (GPa) = 22.20671 24.19012 23.19841
#
# Velocity S-wave (km/s) = 3.71605 3.87846 3.79812
# Velocity P-wave (km/s) = 7.23020 7.84871 7.54580
#
# Compressibility (1/GPa) = 0.01836305
#
# Stress axis : x y z
#
# Youngs Moduli (GPa) = 40.78911 77.76804 75.96287
#
# Poissons Ratio (x) = 0.48728 0.34341
# Poissons Ratio (y) = 0.25558 0.40273
# Poissons Ratio (z) = 0.18440 0.41230
#
# Static dielectric constant tensor:
#      x y z
#    x 3.107180 0.000000 0.000000 
#    y 0.000000 3.038290 0.000000 
#    z 0.000000 0.000000 3.144040 
# 
# 
# High freq. dielectric constant tensor:
#      x y z
#    x 1.629080 0.000000 0.000000 
#    y 0.000000 1.600260 0.000000 
#    z 0.000000 0.000000 1.613900 
# 
# From -- ./inp_files/68234.got.cif
#   From: 2010.03.12/outbox.cif.g09.slc.cpg/sg65_35_cif.got.tgz:68234.got - 2010.04.10 20:52:16.
