data_PCOD8267736
_publ_section_title
;
Structure prediction by ZEFSAII (Michael W. Deem and Ramdas Pophale) SiO2 
 PCOD8267736
Probable space group: C M M M
;
_chemical_formula_sum "Si O2"
_cell_formula_units_Z 96
_cell_length_a 9.633662
_cell_length_b 27.483166
_cell_length_c 24.917964
_cell_angle_alpha 90.000000
_cell_angle_beta 90.000000
_cell_angle_gamma 90.000000
_cell_volume 6597.368157
_symmetry_space_group_name_H-M "C M M M"
_symmetry_group_IT_number 65
_symmetry_cell_setting 'orthorhombic'
loop_
_space_group_symop_operation_xyz
x,y,z
-x,-y,z
x,-y,-z
-x,y,-z
-x,-y,-z
x,y,-z
-x,y,z
x,-y,z
1/2+x,1/2+y,z
1/2-x,1/2-y,z
1/2+x,1/2-y,-z
1/2-x,1/2+y,-z
1/2-x,1/2-y,-z
1/2+x,1/2+y,-z
1/2-x,1/2+y,z
1/2+x,1/2-y,z
loop_
_atom_site_type_symbol
_atom_site_label
_atom_site_fract_x
_atom_site_fract_y
_atom_site_fract_z
Si Si1 0.500000 0.286842 0.436797
Si Si2 0.217423 0.865162 0.563147
Si Si3 0.342014 0.441942 0.156044
Si Si4 0.158203 0.442128 0.254905
Si Si5 0.655540 0.942156 0.059805
Si Si6 0.000000 0.320844 0.563367
Si Si7 0.156486 0.944510 0.353135
O O1 0.500000 0.279973 0.500000
O O2 0.366472 0.317366 0.418698
O O3 0.500000 0.233157 0.409920
O O4 0.200206 0.875305 0.500000
O O5 0.371852 0.853302 0.581689
O O6 0.166432 0.913218 0.592938
O O7 0.500000 0.421796 0.159490
O O8 0.344991 0.500000 0.156760
O O9 0.248769 0.422036 0.205186
O O10 0.269101 0.422006 0.101745
O O11 0.155194 0.500000 0.252635
O O12 0.235232 0.424669 0.309010
O O13 0.000000 0.421729 0.253048
O O14 0.500000 0.924149 0.075273
O O15 0.656722 0.000000 0.061136
O O16 0.694893 0.923707 0.000000
O O17 0.000000 0.313421 0.500000
O O18 0.000000 0.941037 0.329669
O O19 0.192064 0.000000 0.368702
#
# Coordination Sequence:
#
# PCOD8267736 Si02
#       7
#     8  16  16  16  16   8  16
#     4   9  16  30  49  67  85 105 128 154 190 237
#     4  10  19  31  46  66  86 106 131 158 195 242
#     4   9  15  22  33  48  65  85 114 153 194 235
#     4   9  17  28  41  53  66  90 125 162 198 233
#     4   8  13  20  29  42  62  87 113 144 187 236
#     4   9  18  30  47  67  87 105 124 156 194 235
#     4  10  20  32  44  58  79 106 135 167 200 237
#
# _framework density 14.551257
#
# number of rings (size 3 to 8) (size 9 to 14) (size 15 to 20)
#    0.000    2.833    0.833    2.000    1.167    6.667 
#    0.000    2.500    0.000    1.500    0.000    0.000 
#    0.000    0.000    0.000    0.000    0.000    0.000 
#
# Total GULP energy -594879.391254 kJ/mol
# GULP energy per Si atom -12393.320651 kJ/mol
# Density = 1.451814 g / cm^3
# Si number density = 14.551257 Si / 1000 Ang^3
#
#
#
# Elastic Constant Matrix: (Units=GPa)
#
#
# Indices 1 2 3 4 5 6 
#
# 1 122.2210 16.6125 46.0287 0.0000 0.0000 0.0000
# 2 16.6125 31.8722 20.6932 0.0000 0.0000 0.0000
# 3 46.0287 20.6932 77.0758 0.0000 0.0000 0.0000
# 4 0.0000 0.0000 0.0000 0.9938 0.0000 0.0000
# 5 0.0000 0.0000 0.0000 0.0000 23.9342 0.0000
# 6 0.0000 0.0000 0.0000 0.0000 0.0000 15.1647
#
#
#
# Elastic Compliance Matrix: (Units=1/GPa)
#
#
# Indices 1 2 3 4 5 6 
#
# 1 0.010633 -0.001719 -0.005888 0.000000 0.000000 0.000000
# 2 -0.001719 0.038277 -0.009250 0.000000 0.000000 0.000000
# 3 -0.005888 -0.009250 0.018974 0.000000 0.000000 0.000000
# 4 0.000000 0.000000 0.000000 1.006189 0.000000 0.000000
# 5 0.000000 0.000000 0.000000 0.000000 0.041781 0.000000
# 6 0.000000 0.000000 0.000000 0.000000 0.000000 0.065943
#
#
# Mechanical properties :
#
#
# Convention : Reuss Voigt Hill
#
# Bulk Modulus (GPa) = 29.26608 44.20420 36.73514
# Shear Modulus (GPa) = 4.07531 17.87419 10.97475
#
# Velocity S-wave (km/s) = 1.67533 3.50860 2.74927
# Velocity P-wave (km/s) = 4.88860 6.84528 5.94795
#
# Compressibility (1/GPa) = 0.03416924
#
# Stress axis : x y z
#
# Youngs Moduli (GPa) = 94.04534 26.12547 52.70335
#
# Poissons Ratio (x) = 0.04491 0.31034
# Poissons Ratio (y) = 0.16168 0.48750
# Poissons Ratio (z) = 0.55378 0.24166
#
# Static dielectric constant tensor:
#      x y z
#    x 3.176480 0.000000 0.000000 
#    y 0.000000 2.339130 0.000000 
#    z 0.000000 0.000000 2.797360 
# 
# 
# High freq. dielectric constant tensor:
#      x y z
#    x 1.579470 0.000000 0.000000 
#    y 0.000000 1.484560 0.000000 
#    z 0.000000 0.000000 1.541220 
# 
# From -- ./inp_files/73510.got.cif
#   From: 2010.03.12/outbox.cif.g09.slc.cpg/sg65_37_cif.got.tgz:73510.got - 2010.04.10 20:52:16.
