data_PCOD8267078
_publ_section_title
;
Structure prediction by ZEFSAII (Michael W. Deem and Ramdas Pophale) SiO2 
 PCOD8267078
Probable space group: C M M M
;
_chemical_formula_sum "Si O2"
_cell_formula_units_Z 104
_cell_length_a 8.929423
_cell_length_b 23.481700
_cell_length_c 28.067115
_cell_angle_alpha 90.000000
_cell_angle_beta 90.000000
_cell_angle_gamma 90.000000
_cell_volume 5885.057439
_symmetry_space_group_name_H-M "C M M M"
_symmetry_group_IT_number 65
_symmetry_cell_setting 'orthorhombic'
loop_
_space_group_symop_operation_xyz
x,y,z
-x,-y,z
x,-y,-z
-x,y,-z
-x,-y,-z
x,y,-z
-x,y,z
x,-y,z
1/2+x,1/2+y,z
1/2-x,1/2-y,z
1/2+x,1/2-y,-z
1/2-x,1/2+y,-z
1/2-x,1/2-y,-z
1/2+x,1/2+y,-z
1/2-x,1/2+y,z
1/2+x,1/2-y,z
loop_
_atom_site_type_symbol
_atom_site_label
_atom_site_fract_x
_atom_site_fract_y
_atom_site_fract_z
Si Si1 0.332291 0.432528 0.447833
Si Si2 0.825318 0.188799 0.819207
Si Si3 0.176649 0.500000 0.890287
Si Si4 0.322876 0.000000 0.214946
Si Si5 0.822319 0.375851 0.093597
Si Si6 0.674747 0.066811 0.353618
Si Si7 0.826169 0.104995 0.736154
Si Si8 0.822862 0.689286 0.000000
O O1 0.279631 0.409555 0.500000
O O2 0.500000 0.410245 0.436641
O O3 0.333596 0.500000 0.449412
O O4 0.219486 0.412297 0.406580
O O5 0.750000 0.250000 0.821298
O O6 0.755672 0.148008 0.859255
O O7 0.798526 0.162493 0.766559
O O8 0.000000 0.195666 0.830388
O O9 0.246216 0.500000 0.837675
O O10 0.227305 0.441619 0.915954
O O11 0.000000 0.500000 0.886103
O O12 0.268640 0.944284 0.240578
O O13 0.500000 0.000000 0.215509
O O14 0.000000 0.370525 0.100973
O O15 0.766267 0.342722 0.047115
O O16 0.500000 0.076643 0.346242
O O17 0.764794 0.108548 0.317768
O O18 0.716759 0.000000 0.345303
O O19 0.000000 0.088822 0.735594
O O20 0.750000 0.750000 0.000000
O O21 0.000000 0.694751 0.000000
#
# Coordination Sequence:
#
# PCOD8267078 Si02
#       8
#    16  16   8   8  16  16  16   8
#     4   8  14  25  40  58  86 128 172 211 254 301
#     4  11  24  39  56  78 101 133 172 211 255 305
#     4   9  18  32  55  82 107 134 166 205 254 303
#     4  11  19  31  52  77 102 133 168 204 250 301
#     4  10  20  37  58  82 108 137 169 209 255 305
#     4  10  19  28  42  67  97 131 171 211 254 301
#     4  11  22  34  50  73 102 134 169 210 254 304
#     4  10  22  37  57  79 105 138 177 218 257 302
#
# _framework density 17.671873999999999
#
# number of rings (size 3 to 8) (size 9 to 14) (size 15 to 20)
#    0.000    2.000    2.308    2.538    0.000    4.923 
#    0.000    3.462    0.000    0.000    0.000    1.615 
#    0.000    0.615    0.000    2.000    0.000    2.462 
#
# Total GULP energy -644564.783909 kJ/mol
# GULP energy per Si atom -12395.476614 kJ/mol
# Density = 1.763165 g / cm^3
# Si number density = 17.671874 Si / 1000 Ang^3
#
#
#
# Elastic Constant Matrix: (Units=GPa)
#
#
# Indices 1 2 3 4 5 6 
#
# 1 68.4880 31.3208 41.0453 0.0000 0.0000 0.0000
# 2 31.3208 100.1188 45.4384 0.0000 0.0000 0.0000
# 3 41.0453 45.4384 129.9527 0.0000 0.0000 0.0000
# 4 0.0000 0.0000 0.0000 32.4063 0.0000 0.0000
# 5 0.0000 0.0000 0.0000 0.0000 27.5648 0.0000
# 6 0.0000 0.0000 0.0000 0.0000 0.0000 -34.1972
#
#
#
# Elastic Compliance Matrix: (Units=1/GPa)
#
#
# Indices 1 2 3 4 5 6 
#
# 1 0.019192 -0.003866 -0.004710 0.000000 0.000000 0.000000
# 2 -0.003866 0.012651 -0.003202 0.000000 0.000000 0.000000
# 3 -0.004710 -0.003202 0.010302 0.000000 0.000000 0.000000
# 4 0.000000 0.000000 0.000000 0.030858 0.000000 0.000000
# 5 0.000000 0.000000 0.000000 0.000000 0.036278 0.000000
# 6 0.000000 0.000000 0.000000 0.000000 0.000000 -0.029242
#
#
# Mechanical properties :
#
#
# Convention : Reuss Voigt Hill
#
# Bulk Modulus (GPa) = 53.79728 59.35207 56.57467
# Shear Modulus (GPa) = 45.54038 17.20510 31.37274
#
# Velocity S-wave (km/s) = 5.08192 3.12362 4.21799
# Velocity P-wave (km/s) = 8.05872 6.83139 7.47030
#
# Compressibility (1/GPa) = 0.01858830
#
# Stress axis : x y z
#
# Youngs Moduli (GPa) = 52.10531 79.04493 97.06485
#
# Poissons Ratio (x) = 0.30562 0.45716
# Poissons Ratio (y) = 0.20146 0.31083
# Poissons Ratio (z) = 0.24541 0.25312
#
# Static dielectric constant tensor:
#      x y z
#    x 3.259720 0.000000 0.000000 
#    y 0.000000 2.967980 0.000000 
#    z 0.000000 0.000000 3.730150 
# 
# 
# High freq. dielectric constant tensor:
#      x y z
#    x 1.681650 0.000000 0.000000 
#    y 0.000000 1.646110 0.000000 
#    z 0.000000 0.000000 1.695050 
# 
# From -- ./inp_files/73658.got.cif
#   From: 2010.03.12/outbox.cif.g09.slc.cpg/sg65_37_cif.got.tgz:73658.got - 2010.04.10 20:52:16.
