data_PCOD8267387
_publ_section_title
;
Structure prediction by ZEFSAII (Michael W. Deem and Ramdas Pophale) SiO2 
 PCOD8267387
Probable space group: C M M M
;
_chemical_formula_sum "Si O2"
_cell_formula_units_Z 80
_cell_length_a 27.485061
_cell_length_b 9.309150
_cell_length_c 18.622652
_cell_angle_alpha 90.000000
_cell_angle_beta 90.000000
_cell_angle_gamma 90.000000
_cell_volume 4764.839333
_symmetry_space_group_name_H-M "C M M M"
_symmetry_group_IT_number 65
_symmetry_cell_setting 'orthorhombic'
loop_
_space_group_symop_operation_xyz
x,y,z
-x,-y,z
x,-y,-z
-x,y,-z
-x,-y,-z
x,y,-z
-x,y,z
x,-y,z
1/2+x,1/2+y,z
1/2-x,1/2-y,z
1/2+x,1/2-y,-z
1/2-x,1/2+y,-z
1/2-x,1/2-y,-z
1/2+x,1/2+y,-z
1/2-x,1/2+y,z
1/2+x,1/2-y,z
loop_
_atom_site_type_symbol
_atom_site_label
_atom_site_fract_x
_atom_site_fract_y
_atom_site_fract_z
Si Si1 0.699790 0.832855 0.345233
Si Si2 0.380814 0.335177 0.419096
Si Si3 0.701601 0.832635 0.081599
Si Si4 0.865517 0.334938 0.208608
Si Si5 0.445079 0.331735 0.286162
O O1 0.750000 0.750000 0.346387
O O2 0.665393 0.766731 0.406563
O O3 0.675533 0.807478 0.268093
O O4 0.708424 0.000000 0.361707
O O5 0.400059 0.311804 0.500000
O O6 0.364672 0.500000 0.406407
O O7 0.424203 0.293138 0.364906
O O8 0.750000 0.750000 0.105172
O O9 0.656891 0.786010 0.132346
O O10 0.713023 0.000000 0.091620
O O11 0.686836 0.794759 0.000000
O O12 0.881728 0.500000 0.207318
O O13 0.913531 0.242659 0.223968
O O14 0.500000 0.272884 0.282461
O O15 0.443357 0.500000 0.271596
#
# Coordination Sequence:
#
# PCOD8267387 Si02
#       5
#    16  16  16  16  16
#     4  10  19  30  45  65  90 120 153 186 220 262
#     4   9  18  32  48  66  89 116 146 182 226 274
#     4   9  17  29  46  70  99 127 154 184 219 261
#     4   9  18  31  47  68  93 121 152 186 223 265
#     4   9  18  32  50  71  91 113 146 188 231 272
#
# _framework density 16.789652
#
# number of rings (size 3 to 8) (size 9 to 14) (size 15 to 20)
#    0.000    2.800    0.000    1.200    0.000    3.200 
#    0.000    2.000    0.000    0.600    0.000    9.800 
#    0.000    0.000    0.000    0.000    0.000    0.000 
#
# Total GULP energy -496029.295791 kJ/mol
# GULP energy per Si atom -12400.732395 kJ/mol
# Density = 1.675144 g / cm^3
# Si number density = 16.789652 Si / 1000 Ang^3
#
#
#
# Elastic Constant Matrix: (Units=GPa)
#
#
# Indices 1 2 3 4 5 6 
#
# 1 146.7846 61.9316 61.9283 0.0000 0.0000 0.0000
# 2 61.9316 64.9111 37.7642 0.0000 0.0000 0.0000
# 3 61.9283 37.7642 98.2522 0.0000 0.0000 0.0000
# 4 0.0000 0.0000 0.0000 22.9629 0.0000 0.0000
# 5 0.0000 0.0000 0.0000 0.0000 19.1548 0.0000
# 6 0.0000 0.0000 0.0000 0.0000 0.0000 28.9580
#
#
#
# Elastic Compliance Matrix: (Units=1/GPa)
#
#
# Indices 1 2 3 4 5 6 
#
# 1 0.012674 -0.009589 -0.004303 0.000000 0.000000 0.000000
# 2 -0.009589 0.027097 -0.004371 0.000000 0.000000 0.000000
# 3 -0.004303 -0.004371 0.014570 0.000000 0.000000 0.000000
# 4 0.000000 0.000000 0.000000 0.043548 0.000000 0.000000
# 5 0.000000 0.000000 0.000000 0.000000 0.052206 0.000000
# 6 0.000000 0.000000 0.000000 0.000000 0.000000 0.034533
#
#
# Mechanical properties :
#
#
# Convention : Reuss Voigt Hill
#
# Bulk Modulus (GPa) = 56.13067 70.35511 63.24289
# Shear Modulus (GPa) = 22.01741 24.10339 23.06040
#
# Velocity S-wave (km/s) = 3.62521 3.79305 3.71008
# Velocity P-wave (km/s) = 7.14333 7.82163 7.49016
#
# Compressibility (1/GPa) = 0.01781557
#
# Stress axis : x y z
#
# Youngs Moduli (GPa) = 78.90363 36.90386 68.63381
#
# Poissons Ratio (x) = 0.35386 0.29531
# Poissons Ratio (y) = 0.75658 0.30003
# Poissons Ratio (z) = 0.33950 0.16132
#
# Static dielectric constant tensor:
#      x y z
#    x 3.084200 0.000000 0.000000 
#    y 0.000000 3.190620 0.000000 
#    z 0.000000 0.000000 3.227390 
# 
# 
# High freq. dielectric constant tensor:
#      x y z
#    x 1.633720 0.000000 0.000000 
#    y 0.000000 1.648250 0.000000 
#    z 0.000000 0.000000 1.641570 
# 
# From -- ./inp_files/45340.got.cif
#   From: 2010.03.12/outbox.cif.g09.slc.cpg/sg65_23_cif.got.tgz:45340.got - 2010.04.10 20:52:16.
