data_PCOD8267625
_publ_section_title
;
Structure prediction by ZEFSAII (Michael W. Deem and Ramdas Pophale) SiO2 
 PCOD8267625
Probable space group: C M M M
;
_chemical_formula_sum "Si O2"
_cell_formula_units_Z 96
_cell_length_a 10.878959
_cell_length_b 17.997852
_cell_length_c 28.380400
_cell_angle_alpha 90.000000
_cell_angle_beta 90.000000
_cell_angle_gamma 90.000000
_cell_volume 5556.822551
_symmetry_space_group_name_H-M "C M M M"
_symmetry_group_IT_number 65
_symmetry_cell_setting 'orthorhombic'
loop_
_space_group_symop_operation_xyz
x,y,z
-x,-y,z
x,-y,-z
-x,y,-z
-x,-y,-z
x,y,-z
-x,y,z
x,-y,z
1/2+x,1/2+y,z
1/2-x,1/2-y,z
1/2+x,1/2-y,-z
1/2-x,1/2+y,-z
1/2-x,1/2-y,-z
1/2+x,1/2+y,-z
1/2-x,1/2+y,z
1/2+x,1/2-y,z
loop_
_atom_site_type_symbol
_atom_site_label
_atom_site_fract_x
_atom_site_fract_y
_atom_site_fract_z
Si Si1 0.355233 0.418762 0.722400
Si Si2 0.745494 0.837897 0.914268
Si Si3 0.359505 0.418992 0.000000
Si Si4 0.000000 0.413900 0.944037
Si Si5 0.852400 0.813173 0.637063
Si Si6 0.856779 0.914092 0.172960
Si Si7 0.145084 0.082177 0.551981
O O1 0.500000 0.426744 0.725622
O O2 0.301070 0.500000 0.708456
O O3 0.318874 0.359057 0.683606
O O4 0.307317 0.395617 0.774321
O O5 0.750000 0.750000 0.919884
O O6 0.833125 0.872855 0.953381
O O7 0.612045 0.870377 0.921901
O O8 0.786691 0.859882 0.862132
O O9 0.288721 0.500000 0.000000
O O10 0.500000 0.438182 0.000000
O O11 0.000000 0.500000 0.928604
O O12 0.000000 0.405624 0.000000
O O13 0.750000 0.750000 0.637303
O O14 0.813721 0.860226 0.591424
O O15 0.000000 0.790051 0.636170
O O16 0.000000 0.896543 0.168677
O O17 0.830299 0.000000 0.160298
O O18 0.190312 0.108751 0.500000
O O19 0.000000 0.076074 0.552433
O O20 0.199432 0.000000 0.562956
#
# Coordination Sequence:
#
# PCOD8267625 Si02
#       7
#    16  16   8   8  16  16  16
#     4   8  15  30  54  78  95 125 172 217 253 298
#     4  12  25  36  57  81 111 137 169 213 256 303
#     4  11  23  39  61  81 101 131 169 211 255 305
#     4  11  24  42  60  76 106 152 184 202 245 319
#     4  10  19  30  48  74 105 138 170 211 262 317
#     4   9  18  35  58  79 102 129 165 214 263 308
#     4   8  14  26  46  72  99 130 176 229 266 297
#
# _framework density 17.276060999999999
#
# number of rings (size 3 to 8) (size 9 to 14) (size 15 to 20)
#    0.000    2.333    0.833    4.250    2.333    4.333 
#    0.000    0.000    1.833    2.000    0.000    1.167 
#    0.000    0.000    0.000    0.000    0.000    0.000 
#
# Total GULP energy -594780.085303 kJ/mol
# GULP energy per Si atom -12391.251777 kJ/mol
# Density = 1.723674 g / cm^3
# Si number density = 17.276061 Si / 1000 Ang^3
#
#
#
# Elastic Constant Matrix: (Units=GPa)
#
#
# Indices 1 2 3 4 5 6 
#
# 1 65.9096 53.5780 39.0830 0.0000 0.0000 0.0000
# 2 53.5780 147.1852 85.5930 0.0000 0.0000 0.0000
# 3 39.0830 85.5930 143.4751 0.0000 0.0000 0.0000
# 4 0.0000 0.0000 0.0000 12.7686 0.0000 0.0000
# 5 0.0000 0.0000 0.0000 0.0000 11.4814 0.0000
# 6 0.0000 0.0000 0.0000 0.0000 0.0000 26.2358
#
#
#
# Elastic Compliance Matrix: (Units=1/GPa)
#
#
# Indices 1 2 3 4 5 6 
#
# 1 0.021865 -0.006884 -0.001849 0.000000 0.000000 0.000000
# 2 -0.006884 0.012571 -0.005624 0.000000 0.000000 0.000000
# 3 -0.001849 -0.005624 0.010829 0.000000 0.000000 0.000000
# 4 0.000000 0.000000 0.000000 0.078317 0.000000 0.000000
# 5 0.000000 0.000000 0.000000 0.000000 0.087097 0.000000
# 6 0.000000 0.000000 0.000000 0.000000 0.000000 0.038116
#
#
# Mechanical properties :
#
#
# Convention : Reuss Voigt Hill
#
# Bulk Modulus (GPa) = 60.42396 79.23090 69.82743
# Shear Modulus (GPa) = 17.66626 21.98487 19.82556
#
# Velocity S-wave (km/s) = 3.20126 3.57117 3.39126
# Velocity P-wave (km/s) = 6.97965 7.93508 7.47265
#
# Compressibility (1/GPa) = 0.01654973
#
# Stress axis : x y z
#
# Youngs Moduli (GPa) = 45.73582 79.55125 92.34632
#
# Poissons Ratio (x) = 0.54760 0.17079
# Poissons Ratio (y) = 0.31483 0.51936
# Poissons Ratio (z) = 0.08459 0.44740
#
# Static dielectric constant tensor:
#      x y z
#    x 2.903540 0.000000 0.000000 
#    y 0.000000 3.439650 0.000000 
#    z 0.000000 0.000000 3.835840 
# 
# 
# High freq. dielectric constant tensor:
#      x y z
#    x 1.629390 0.000000 0.000000 
#    y 0.000000 1.667920 0.000000 
#    z 0.000000 0.000000 1.683290 
# 
# From -- ./inp_files/77346.got.cif
#   From: 2010.03.12/outbox.cif.g09.slc.cpg/sg65_39_cif.got.tgz:77346.got - 2010.04.10 20:52:16.
