data_PCOD8267362
_publ_section_title
;
Structure prediction by ZEFSAII (Michael W. Deem and Ramdas Pophale) SiO2 
 PCOD8267362
Probable space group: C M M M
;
_chemical_formula_sum "Si O2"
_cell_formula_units_Z 96
_cell_length_a 27.639528
_cell_length_b 22.260912
_cell_length_c 8.970917
_cell_angle_alpha 90.000000
_cell_angle_beta 90.000000
_cell_angle_gamma 90.000000
_cell_volume 5519.635685
_symmetry_space_group_name_H-M "C M M M"
_symmetry_group_IT_number 65
_symmetry_cell_setting 'orthorhombic'
loop_
_space_group_symop_operation_xyz
x,y,z
-x,-y,z
x,-y,-z
-x,y,-z
-x,-y,-z
x,y,-z
-x,y,z
x,-y,z
1/2+x,1/2+y,z
1/2-x,1/2-y,z
1/2+x,1/2-y,-z
1/2-x,1/2+y,-z
1/2-x,1/2-y,-z
1/2+x,1/2+y,-z
1/2-x,1/2+y,z
1/2+x,1/2-y,z
loop_
_atom_site_type_symbol
_atom_site_label
_atom_site_fract_x
_atom_site_fract_y
_atom_site_fract_z
Si Si1 0.391078 0.128728 0.825997
Si Si2 0.233102 0.500000 0.177083
Si Si3 0.875579 0.500000 0.174006
Si Si4 0.696401 0.184907 0.672517
Si Si5 0.280947 0.623385 0.176544
Si Si6 0.554744 0.753869 0.175110
Si Si7 0.641442 0.692605 0.672440
O O1 0.406452 0.060040 0.784509
O O2 0.342875 0.138219 0.731858
O O3 0.432132 0.176935 0.782316
O O4 0.377869 0.135026 0.000000
O O5 0.178605 0.500000 0.245088
O O6 0.262015 0.558768 0.233296
O O7 0.231574 0.500000 0.000000
O O8 0.866099 0.500000 0.000000
O O9 0.707299 0.172702 0.500000
O O10 0.745468 0.175538 0.763923
O O11 0.676896 0.251522 0.699158
O O12 0.334273 0.635666 0.245158
O O13 0.284333 0.627085 0.000000
O O14 0.500000 0.742476 0.227684
O O15 0.588894 0.706698 0.258811
O O16 0.560819 0.743592 0.000000
O O17 0.634134 0.677525 0.500000
#
# Coordination Sequence:
#
# PCOD8267362 Si02
#       7
#    16   8   8  16  16  16  16
#     4   9  16  28  47  67  92 129 167 203 240 283
#     4   9  18  30  46  69  97 131 167 199 229 274
#     4   9  14  26  45  66  93 129 171 204 234 275
#     4  10  19  30  44  66  98 129 159 200 240 281
#     4  11  20  32  49  69  96 130 165 196 233 282
#     4   9  18  33  52  74  96 120 158 205 249 294
#     4  10  21  34  48  70  98 126 158 198 245 292
#
# _framework density 17.392453
#
# number of rings (size 3 to 8) (size 9 to 14) (size 15 to 20)
#    0.000    2.333    1.667    2.000    0.000    4.333 
#    0.000    3.333    0.000    2.500    0.000    0.583 
#    0.000   10.000    0.000    0.000    0.000    0.000 
#
# Total GULP energy -594979.171986 kJ/mol
# GULP energy per Si atom -12395.399416 kJ/mol
# Density = 1.735287 g / cm^3
# Si number density = 17.392453 Si / 1000 Ang^3
#
#
#
# Elastic Constant Matrix: (Units=GPa)
#
#
# Indices 1 2 3 4 5 6 
#
# 1 106.1876 30.2471 38.1051 0.0000 0.0000 0.0000
# 2 30.2471 35.3166 14.7747 0.0000 0.0000 0.0000
# 3 38.1051 14.7747 54.3833 0.0000 0.0000 0.0000
# 4 0.0000 0.0000 0.0000 13.5141 0.0000 0.0000
# 5 0.0000 0.0000 0.0000 0.0000 17.7929 0.0000
# 6 0.0000 0.0000 0.0000 0.0000 0.0000 18.1113
#
#
#
# Elastic Compliance Matrix: (Units=1/GPa)
#
#
# Indices 1 2 3 4 5 6 
#
# 1 0.014960 -0.009508 -0.007899 0.000000 0.000000 0.000000
# 2 -0.009508 0.037989 -0.003659 0.000000 0.000000 0.000000
# 3 -0.007899 -0.003659 0.024917 0.000000 0.000000 0.000000
# 4 0.000000 0.000000 0.000000 0.073997 0.000000 0.000000
# 5 0.000000 0.000000 0.000000 0.000000 0.056202 0.000000
# 6 0.000000 0.000000 0.000000 0.000000 0.000000 0.055214
#
#
# Mechanical properties :
#
#
# Convention : Reuss Voigt Hill
#
# Bulk Modulus (GPa) = 27.98436 40.23793 34.11114
# Shear Modulus (GPa) = 15.75684 17.40104 16.57894
#
# Velocity S-wave (km/s) = 3.01318 3.16649 3.09078
# Velocity P-wave (km/s) = 5.31324 6.04602 5.69144
#
# Compressibility (1/GPa) = 0.03573425
#
# Stress axis : x y z
#
# Youngs Moduli (GPa) = 66.84384 26.32326 40.13375
#
# Poissons Ratio (x) = 0.25029 0.31702
# Poissons Ratio (y) = 0.63556 0.14683
# Poissons Ratio (z) = 0.52801 0.09631
#
# Static dielectric constant tensor:
#      x y z
#    x 3.123930 0.000000 0.000000 
#    y 0.000000 3.339210 0.000000 
#    z 0.000000 0.000000 3.112230 
# 
# 
# High freq. dielectric constant tensor:
#      x y z
#    x 1.648300 0.000000 0.000000 
#    y 0.000000 1.658780 0.000000 
#    z 0.000000 0.000000 1.660520 
# 
# From -- ./inp_files/16708.got.cif
#   From: 2010.03.12/outbox.cif.g09.slc.cpg/sg65_9_cif.got.tgz:16708.got - 2010.04.10 20:52:16.
