data_PCOD8267347
_publ_section_title
;
Structure prediction by ZEFSAII (Michael W. Deem and Ramdas Pophale) SiO2 
 PCOD8267347
Probable space group: C M M M
;
_chemical_formula_sum "Si O2"
_cell_formula_units_Z 72
_cell_length_a 28.267682
_cell_length_b 8.983153
_cell_length_c 18.467490
_cell_angle_alpha 90.000000
_cell_angle_beta 90.000000
_cell_angle_gamma 90.000000
_cell_volume 4689.503520
_symmetry_space_group_name_H-M "C M M M"
_symmetry_group_IT_number 65
_symmetry_cell_setting 'orthorhombic'
loop_
_space_group_symop_operation_xyz
x,y,z
-x,-y,z
x,-y,-z
-x,y,-z
-x,-y,-z
x,y,-z
-x,y,z
x,-y,z
1/2+x,1/2+y,z
1/2-x,1/2-y,z
1/2+x,1/2-y,-z
1/2-x,1/2+y,-z
1/2-x,1/2-y,-z
1/2+x,1/2+y,-z
1/2-x,1/2+y,z
1/2+x,1/2-y,z
loop_
_atom_site_type_symbol
_atom_site_label
_atom_site_fract_x
_atom_site_fract_y
_atom_site_fract_z
Si Si1 0.800505 0.675004 0.500000
Si Si2 0.198774 0.175982 0.233790
Si Si3 0.299783 0.672845 0.923632
Si Si4 0.946356 0.171763 0.583692
Si Si5 0.641634 0.175340 0.640853
O O1 0.793005 0.500000 0.500000
O O2 0.750000 0.750000 0.500000
O O3 0.829012 0.727263 0.429375
O O4 0.250000 0.250000 0.244651
O O5 0.176432 0.214253 0.153647
O O6 0.161959 0.242648 0.289661
O O7 0.204169 0.000000 0.246548
O O8 0.289002 0.500000 0.922345
O O9 0.250000 0.750000 0.926354
O O10 0.327627 0.713473 0.000000
O O11 0.941159 0.216909 0.500000
O O12 0.912642 0.275646 0.631505
O O13 0.000000 0.199641 0.609687
O O14 0.932284 0.000000 0.594827
O O15 0.644286 0.000000 0.652782
#
# Coordination Sequence:
#
# PCOD8267347 Si02
#       5
#     8  16  16  16  16
#     4  10  22  34  43  58  81 115 154 187 215 250
#     4  10  19  30  44  64  90 121 154 187 224 262
#     4   8  14  25  41  60  83 112 146 182 219 260
#     4   9  18  33  52  71  88 109 141 182 229 274
#     4  11  21  33  46  64  89 118 153 186 223 264
#
# _framework density 15.353437
#
# number of rings (size 3 to 8) (size 9 to 14) (size 15 to 20)
#    0.000    2.444    1.111    2.667    0.000    4.889 
#    0.000    1.111    0.000    0.000    0.000    0.000 
#    0.000    0.889    0.000   10.222    0.000    2.889 
#
# Total GULP energy -446012.752232 kJ/mol
# GULP energy per Si atom -12389.243118 kJ/mol
# Density = 1.531849 g / cm^3
# Si number density = 15.353437 Si / 1000 Ang^3
#
#
#
# Elastic Constant Matrix: (Units=GPa)
#
#
# Indices 1 2 3 4 5 6 
#
# 1 75.7570 31.7547 48.7865 0.0000 0.0000 0.0000
# 2 31.7547 53.2760 46.3189 0.0000 0.0000 0.0000
# 3 48.7865 46.3189 140.7548 0.0000 0.0000 0.0000
# 4 0.0000 0.0000 0.0000 17.9898 0.0000 0.0000
# 5 0.0000 0.0000 0.0000 0.0000 6.1440 0.0000
# 6 0.0000 0.0000 0.0000 0.0000 0.0000 25.1544
#
#
#
# Elastic Compliance Matrix: (Units=1/GPa)
#
#
# Indices 1 2 3 4 5 6 
#
# 1 0.019096 -0.007883 -0.004025 0.000000 0.000000 0.000000
# 2 -0.007883 0.029547 -0.006991 0.000000 0.000000 0.000000
# 3 -0.004025 -0.006991 0.010800 0.000000 0.000000 0.000000
# 4 0.000000 0.000000 0.000000 0.055587 0.000000 0.000000
# 5 0.000000 0.000000 0.000000 0.000000 0.162761 0.000000
# 6 0.000000 0.000000 0.000000 0.000000 0.000000 0.039754
#
#
# Mechanical properties :
#
#
# Convention : Reuss Voigt Hill
#
# Bulk Modulus (GPa) = 46.19814 58.16756 52.18285
# Shear Modulus (GPa) = 13.79091 19.38616 16.58854
#
# Velocity S-wave (km/s) = 3.00030 3.55725 3.29058
# Velocity P-wave (km/s) = 6.49288 7.40540 6.96410
#
# Compressibility (1/GPa) = 0.02164589
#
# Stress axis : x y z
#
# Youngs Moduli (GPa) = 52.36620 33.84481 92.59201
#
# Poissons Ratio (x) = 0.26680 0.37266
# Poissons Ratio (y) = 0.41280 0.64729
# Poissons Ratio (z) = 0.21076 0.23660
#
# Static dielectric constant tensor:
#      x y z
#    x 2.651310 0.000000 0.000000 
#    y 0.000000 2.971520 0.000000 
#    z 0.000000 0.000000 3.528630 
# 
# 
# High freq. dielectric constant tensor:
#      x y z
#    x 1.547110 0.000000 0.000000 
#    y 0.000000 1.598810 0.000000 
#    z 0.000000 0.000000 1.595480 
# 
# From -- ./inp_files/49477.got.cif
#   From: 2010.03.12/outbox.cif.g09.slc.cpg/sg65_25_cif.got.tgz:49477.got - 2010.04.10 20:52:16.
