data_PCOD8267335
_publ_section_title
;
Structure prediction by ZEFSAII (Michael W. Deem and Ramdas Pophale) SiO2 
 PCOD8267335
Probable space group: C M M M
;
_chemical_formula_sum "Si O2"
_cell_formula_units_Z 104
_cell_length_a 9.292597
_cell_length_b 27.155619
_cell_length_c 26.523789
_cell_angle_alpha 90.000000
_cell_angle_beta 90.000000
_cell_angle_gamma 90.000000
_cell_volume 6693.177991
_symmetry_space_group_name_H-M "C M M M"
_symmetry_group_IT_number 65
_symmetry_cell_setting 'orthorhombic'
loop_
_space_group_symop_operation_xyz
x,y,z
-x,-y,z
x,-y,-z
-x,y,-z
-x,-y,-z
x,y,-z
-x,y,z
x,-y,z
1/2+x,1/2+y,z
1/2-x,1/2-y,z
1/2+x,1/2-y,-z
1/2-x,1/2+y,-z
1/2-x,1/2-y,-z
1/2+x,1/2+y,-z
1/2-x,1/2+y,z
1/2+x,1/2-y,z
loop_
_atom_site_type_symbol
_atom_site_label
_atom_site_fract_x
_atom_site_fract_y
_atom_site_fract_z
Si Si1 0.669414 0.701281 0.244031
Si Si2 0.167159 0.943010 0.403019
Si Si3 0.333265 0.200898 0.055908
Si Si4 0.666457 0.398079 0.298410
Si Si5 0.662282 0.941477 0.500000
Si Si6 0.666359 0.945543 0.789044
Si Si7 0.667293 0.849368 0.843857
O O1 0.500000 0.711279 0.237535
O O2 0.750000 0.750000 0.263801
O O3 0.700436 0.658719 0.285126
O O4 0.735050 0.686210 0.190065
O O5 0.212772 0.909506 0.355553
O O6 0.257091 0.922249 0.450177
O O7 0.000000 0.936897 0.416289
O O8 0.203492 0.000000 0.391172
O O9 0.500000 0.214624 0.057254
O O10 0.250000 0.250000 0.070601
O O11 0.296431 0.159365 0.097320
O O12 0.288637 0.181726 0.000000
O O13 0.500000 0.410159 0.290386
O O14 0.750054 0.434895 0.262139
O O15 0.500000 0.921044 0.500000
O O16 0.666136 0.000000 0.500000
O O17 0.500000 0.941880 0.774942
O O18 0.706295 0.906221 0.832437
O O19 0.706901 0.000000 0.809071
O O20 0.500000 0.837968 0.831968
#
# Coordination Sequence:
#
# PCOD8267335 Si02
#       7
#    16  16  16  16   8  16  16
#     4  10  19  30  44  63  87 112 139 171 208 250
#     4   9  16  27  43  61  83 111 140 169 202 240
#     4   9  17  28  42  60  81 105 134 170 211 252
#     4   9  18  30  44  63  85 111 143 175 206 244
#     4   9  17  27  39  59  86 113 140 169 202 241
#     4   9  17  28  42  61  85 112 140 170 206 247
#     4   9  17  29  44  61  83 111 140 170 206 249
#
# _framework density 15.538209999999999
#
# number of rings (size 3 to 8) (size 9 to 14) (size 15 to 20)
#    0.000    2.846    0.000    1.615    0.000    4.923 
#    0.000    1.538    0.000    0.462    0.000    3.769 
#    0.000    0.000    0.000   11.538    0.000   12.000 
#
# Total GULP energy -644693.402535 kJ/mol
# GULP energy per Si atom -12397.950049 kJ/mol
# Density = 1.550284 g / cm^3
# Si number density = 15.538210 Si / 1000 Ang^3
#
#
#
# Elastic Constant Matrix: (Units=GPa)
#
#
# Indices 1 2 3 4 5 6 
#
# 1 58.5894 39.9556 50.2929 0.0000 0.0000 0.0000
# 2 39.9556 91.9867 62.2465 0.0000 0.0000 0.0000
# 3 50.2929 62.2465 134.1718 0.0000 0.0000 0.0000
# 4 0.0000 0.0000 0.0000 21.1238 0.0000 0.0000
# 5 0.0000 0.0000 0.0000 0.0000 22.7971 0.0000
# 6 0.0000 0.0000 0.0000 0.0000 0.0000 19.0545
#
#
#
# Elastic Compliance Matrix: (Units=1/GPa)
#
#
# Indices 1 2 3 4 5 6 
#
# 1 0.028281 -0.007449 -0.007145 0.000000 0.000000 0.000000
# 2 -0.007449 0.017808 -0.005469 0.000000 0.000000 0.000000
# 3 -0.007145 -0.005469 0.012669 0.000000 0.000000 0.000000
# 4 0.000000 0.000000 0.000000 0.047340 0.000000 0.000000
# 5 0.000000 0.000000 0.000000 0.000000 0.043865 0.000000
# 6 0.000000 0.000000 0.000000 0.000000 0.000000 0.052481
#
#
# Mechanical properties :
#
#
# Convention : Reuss Voigt Hill
#
# Bulk Modulus (GPa) = 53.67515 65.52646 59.60081
# Shear Modulus (GPa) = 20.09795 21.41195 20.75495
#
# Velocity S-wave (km/s) = 3.60036 3.71620 3.65874
# Velocity P-wave (km/s) = 7.20434 7.78949 7.50262
#
# Compressibility (1/GPa) = 0.01863059
#
# Stress axis : x y z
#
# Youngs Moduli (GPa) = 35.35901 56.15477 78.93457
#
# Poissons Ratio (x) = 0.41832 0.56398
# Poissons Ratio (y) = 0.26341 0.43172
# Poissons Ratio (z) = 0.25264 0.30713
#
# Static dielectric constant tensor:
#      x y z
#    x 3.040560 0.000000 0.000000 
#    y 0.000000 2.974450 0.000000 
#    z 0.000000 0.000000 3.028330 
# 
# 
# High freq. dielectric constant tensor:
#      x y z
#    x 1.601510 0.000000 0.000000 
#    y 0.000000 1.574450 0.000000 
#    z 0.000000 0.000000 1.588330 
# 
# From -- ./inp_files/73800.got.cif
#   From: 2010.03.12/outbox.cif.g09.slc.cpg/sg65_37_cif.got.tgz:73800.got - 2010.04.10 20:52:16.
