data_PCOD8267543
_publ_section_title
;
Structure prediction by ZEFSAII (Michael W. Deem and Ramdas Pophale) SiO2 
 PCOD8267543
Probable space group: C M M M
;
_chemical_formula_sum "Si O2"
_cell_formula_units_Z 88
_cell_length_a 20.520642
_cell_length_b 26.152350
_cell_length_c 9.477526
_cell_angle_alpha 90.000000
_cell_angle_beta 90.000000
_cell_angle_gamma 90.000000
_cell_volume 5086.237648
_symmetry_space_group_name_H-M "C M M M"
_symmetry_group_IT_number 65
_symmetry_cell_setting 'orthorhombic'
loop_
_space_group_symop_operation_xyz
x,y,z
-x,-y,z
x,-y,-z
-x,y,-z
-x,-y,-z
x,y,-z
-x,y,z
x,-y,z
1/2+x,1/2+y,z
1/2-x,1/2-y,z
1/2+x,1/2-y,-z
1/2-x,1/2+y,-z
1/2-x,1/2-y,-z
1/2+x,1/2+y,-z
1/2-x,1/2+y,z
1/2+x,1/2-y,z
loop_
_atom_site_type_symbol
_atom_site_label
_atom_site_fract_x
_atom_site_fract_y
_atom_site_fract_z
Si Si1 0.256275 0.896416 0.337877
Si Si2 0.616643 0.558125 0.341803
Si Si3 0.708107 0.800015 0.165189
Si Si4 0.500000 0.438906 0.158225
Si Si5 0.636090 0.943068 0.163700
Si Si6 0.571148 0.161293 0.834653
O O1 0.279645 0.892336 0.500000
O O2 0.181485 0.910133 0.327179
O O3 0.259885 0.842753 0.260139
O O4 0.299004 0.938967 0.257887
O O5 0.588353 0.561210 0.500000
O O6 0.632326 0.500000 0.300171
O O7 0.563801 0.582445 0.236355
O O8 0.750000 0.750000 0.201832
O O9 0.630159 0.799356 0.206652
O O10 0.714628 0.813677 0.000000
O O11 0.500000 0.500000 0.165302
O O12 0.500000 0.417723 0.000000
O O13 0.587764 0.897327 0.211587
O O14 0.605532 0.000000 0.187622
O O15 0.655327 0.935718 0.000000
O O16 0.500000 0.176172 0.766871
O O17 0.562482 0.162579 0.000000
#
# Coordination Sequence:
#
# PCOD8267543 Si02
#       6
#    16  16  16   8  16  16
#     4  10  19  30  47  70  93 122 159 198 236 282
#     4   9  17  29  44  62  88 123 157 187 226 279
#     4   9  18  33  52  71  92 120 153 198 250 293
#     4   9  17  27  41  63  87 115 153 193 231 269
#     4   9  17  28  43  67  99 131 160 193 233 274
#     4   8  14  26  46  71  95 122 159 197 234 283
#
# _framework density 17.301590000000001
#
# number of rings (size 3 to 8) (size 9 to 14) (size 15 to 20)
#    0.000    3.000    0.000    2.455    0.000    4.364 
#    0.000    3.636    2.000    8.727    0.000    5.091 
#    0.000    0.000    0.000    0.000    0.000    0.000 
#
# Total GULP energy -545091.729006 kJ/mol
# GULP energy per Si atom -12388.448386 kJ/mol
# Density = 1.726221 g / cm^3
# Si number density = 17.301590 Si / 1000 Ang^3
#
#
#
# Elastic Constant Matrix: (Units=GPa)
#
#
# Indices 1 2 3 4 5 6 
#
# 1 125.2586 53.2349 42.3902 0.0000 0.0000 0.0000
# 2 53.2349 75.0245 21.7827 0.0000 0.0000 0.0000
# 3 42.3902 21.7827 72.7714 0.0000 0.0000 0.0000
# 4 0.0000 0.0000 0.0000 18.4719 0.0000 0.0000
# 5 0.0000 0.0000 0.0000 0.0000 23.2940 0.0000
# 6 0.0000 0.0000 0.0000 0.0000 0.0000 3.1079
#
#
#
# Elastic Compliance Matrix: (Units=1/GPa)
#
#
# Indices 1 2 3 4 5 6 
#
# 1 0.013060 -0.007730 -0.005294 0.000000 0.000000 0.000000
# 2 -0.007730 0.019173 -0.001236 0.000000 0.000000 0.000000
# 3 -0.005294 -0.001236 0.017195 0.000000 0.000000 0.000000
# 4 0.000000 0.000000 0.000000 0.054136 0.000000 0.000000
# 5 0.000000 0.000000 0.000000 0.000000 0.042930 0.000000
# 6 0.000000 0.000000 0.000000 0.000000 0.000000 0.321761
#
#
# Mechanical properties :
#
#
# Convention : Reuss Voigt Hill
#
# Bulk Modulus (GPa) = 47.82790 56.42999 52.12895
# Shear Modulus (GPa) = 9.92564 19.35122 14.63843
#
# Velocity S-wave (km/s) = 2.39777 3.34797 2.91189
# Velocity P-wave (km/s) = 5.94722 6.90156 6.44209
#
# Compressibility (1/GPa) = 0.02090830
#
# Stress axis : x y z
#
# Youngs Moduli (GPa) = 76.56748 52.15682 58.15490
#
# Poissons Ratio (x) = 0.40318 0.30787
# Poissons Ratio (y) = 0.59188 0.07189
# Poissons Ratio (z) = 0.40534 0.06447
#
# Static dielectric constant tensor:
#      x y z
#    x 3.558640 0.000000 0.000000 
#    y 0.000000 3.027480 0.000000 
#    z 0.000000 0.000000 3.209550 
# 
# 
# High freq. dielectric constant tensor:
#      x y z
#    x 1.672120 0.000000 0.000000 
#    y 0.000000 1.636930 0.000000 
#    z 0.000000 0.000000 1.654330 
# 
# From -- ./inp_files/12661.got.cif
#   From: 2010.03.12/outbox.cif.g09.slc.cpg/sg65_7_cif.got.tgz:12661.got - 2010.04.10 20:52:16.
