data_PCOD8267880
_publ_section_title
;
Structure prediction by ZEFSAII (Michael W. Deem and Ramdas Pophale) SiO2 
 PCOD8267880
Probable space group: C M M M
;
_chemical_formula_sum "Si O2"
_cell_formula_units_Z 56
_cell_length_a 13.530149
_cell_length_b 32.082887
_cell_length_c 7.858021
_cell_angle_alpha 90.000000
_cell_angle_beta 90.000000
_cell_angle_gamma 90.000000
_cell_volume 3411.058801
_symmetry_space_group_name_H-M "C M M M"
_symmetry_group_IT_number 65
_symmetry_cell_setting 'orthorhombic'
loop_
_space_group_symop_operation_xyz
x,y,z
-x,-y,z
x,-y,-z
-x,y,-z
-x,-y,-z
x,y,-z
-x,y,z
x,-y,z
1/2+x,1/2+y,z
1/2-x,1/2-y,z
1/2+x,1/2-y,-z
1/2-x,1/2+y,-z
1/2-x,1/2-y,-z
1/2+x,1/2+y,-z
1/2-x,1/2+y,z
1/2+x,1/2-y,z
loop_
_atom_site_type_symbol
_atom_site_label
_atom_site_fract_x
_atom_site_fract_y
_atom_site_fract_z
Si Si1 0.697481 0.812680 0.306253
Si Si2 0.882781 0.546475 0.500000
Si Si3 0.385578 0.103134 0.809113
Si Si4 0.610733 0.727402 0.197131
O O1 0.664028 0.818912 0.500000
O O2 0.677234 0.854740 0.203918
O O3 0.633967 0.775983 0.222912
O O4 0.813870 0.801609 0.300950
O O5 0.836977 0.500000 0.500000
O O6 0.846010 0.569943 0.670699
O O7 0.000000 0.543639 0.500000
O O8 0.500000 0.113737 0.773059
O O9 0.371644 0.084814 0.000000
O O10 0.500000 0.718017 0.261907
O O11 0.622351 0.716564 0.000000
#
# Coordination Sequence:
#
# PCOD8267880 Si02
#       4
#    16   8  16  16
#     4  11  20  30  46  66  91 124 161 197 230 272
#     4   9  18  32  48  69  95 121 153 189 230 282
#     4  10  19  31  48  69  95 126 158 192 229 273
#     4  10  20  32  45  63  90 124 161 198 234 273
#
# _framework density 16.417190999999999
#
# number of rings (size 3 to 8) (size 9 to 14) (size 15 to 20)
#    0.000    1.857    1.429    6.000    0.000    6.286 
#    0.000    2.857    0.000    0.000    0.000    0.000 
#    0.000    2.286    0.000    6.000    0.000    0.286 
#
# Total GULP energy -347229.280766 kJ/mol
# GULP energy per Si atom -12401.045742 kJ/mol
# Density = 1.637982 g / cm^3
# Si number density = 16.417191 Si / 1000 Ang^3
#
#
#
# Elastic Constant Matrix: (Units=GPa)
#
#
# Indices 1 2 3 4 5 6 
#
# 1 62.0157 22.3601 18.5206 0.0000 0.0000 0.0000
# 2 22.3601 108.0514 41.5714 0.0000 0.0000 0.0000
# 3 18.5206 41.5714 93.9101 0.0000 0.0000 0.0000
# 4 0.0000 0.0000 0.0000 19.2798 0.0000 0.0000
# 5 0.0000 0.0000 0.0000 0.0000 18.1779 0.0000
# 6 0.0000 0.0000 0.0000 0.0000 0.0000 14.9226
#
#
#
# Elastic Compliance Matrix: (Units=1/GPa)
#
#
# Indices 1 2 3 4 5 6 
#
# 1 0.017817 -0.002815 -0.002268 0.000000 0.000000 0.000000
# 2 -0.002815 0.011599 -0.004580 0.000000 0.000000 0.000000
# 3 -0.002268 -0.004580 0.013123 0.000000 0.000000 0.000000
# 4 0.000000 0.000000 0.000000 0.051868 0.000000 0.000000
# 5 0.000000 0.000000 0.000000 0.000000 0.055012 0.000000
# 6 0.000000 0.000000 0.000000 0.000000 0.000000 0.067012
#
#
# Mechanical properties :
#
#
# Convention : Reuss Voigt Hill
#
# Bulk Modulus (GPa) = 43.07511 47.65351 45.36431
# Shear Modulus (GPa) = 20.53441 22.57773 21.55607
#
# Velocity S-wave (km/s) = 3.54048 3.71246 3.62749
# Velocity P-wave (km/s) = 6.55806 6.88956 6.72585
#
# Compressibility (1/GPa) = 0.02321526
#
# Stress axis : x y z
#
# Youngs Moduli (GPa) = 56.12602 86.21261 76.20205
#
# Poissons Ratio (x) = 0.24265 0.17282
# Poissons Ratio (y) = 0.15797 0.34897
# Poissons Ratio (z) = 0.12729 0.39482
#
# Static dielectric constant tensor:
#      x y z
#    x 2.964010 0.000000 0.000000 
#    y 0.000000 2.964790 0.000000 
#    z 0.000000 0.000000 3.271910 
# 
# 
# High freq. dielectric constant tensor:
#      x y z
#    x 1.598980 0.000000 0.000000 
#    y 0.000000 1.604740 0.000000 
#    z 0.000000 0.000000 1.654180 
# 
# From -- ./inp_files/7008.got.cif
#   From: 2010.03.12/outbox.cif.g09.slc.cpg/sg65_4_cif.got.tgz:7008.got - 2010.04.10 20:52:16.
