data_PCOD8267428
_publ_section_title
;
Structure prediction by ZEFSAII (Michael W. Deem and Ramdas Pophale) SiO2 
 PCOD8267428
Probable space group: C M M M
;
_chemical_formula_sum "Si O2"
_cell_formula_units_Z 64
_cell_length_a 33.789247
_cell_length_b 9.140392
_cell_length_c 12.682050
_cell_angle_alpha 90.000000
_cell_angle_beta 90.000000
_cell_angle_gamma 90.000000
_cell_volume 3916.812627
_symmetry_space_group_name_H-M "C M M M"
_symmetry_group_IT_number 65
_symmetry_cell_setting 'orthorhombic'
loop_
_space_group_symop_operation_xyz
x,y,z
-x,-y,z
x,-y,-z
-x,y,-z
-x,-y,-z
x,y,-z
-x,y,z
x,-y,z
1/2+x,1/2+y,z
1/2-x,1/2-y,z
1/2+x,1/2-y,-z
1/2-x,1/2+y,-z
1/2-x,1/2-y,-z
1/2+x,1/2+y,-z
1/2-x,1/2+y,z
1/2+x,1/2-y,z
loop_
_atom_site_type_symbol
_atom_site_label
_atom_site_fract_x
_atom_site_fract_y
_atom_site_fract_z
Si Si1 0.078131 0.328594 0.123005
Si Si2 0.710615 0.329863 0.619108
Si Si3 0.654202 0.328947 0.805372
Si Si4 0.708450 0.670984 0.000000
Si Si5 0.000000 0.834621 0.874736
O O1 0.073894 0.500000 0.143979
O O2 0.114542 0.265002 0.188647
O O3 0.038702 0.250164 0.166116
O O4 0.084939 0.293964 0.000000
O O5 0.699625 0.281873 0.500000
O O6 0.720180 0.500000 0.626396
O O7 0.750000 0.250000 0.659296
O O8 0.673956 0.289328 0.693668
O O9 0.643510 0.500000 0.815431
O O10 0.684011 0.280868 0.897432
O O11 0.750000 0.750000 0.000000
O O12 0.717070 0.500000 0.000000
O O13 0.000000 0.000000 0.830303
O O14 0.000000 0.834793 0.000000
#
# Coordination Sequence:
#
# PCOD8267428 Si02
#       5
#    16  16  16   8   8
#     4  10  19  30  45  68  96 124 155 192 228 270
#     4   9  18  32  49  68  90 119 157 200 240 276
#     4  10  19  31  46  65  92 124 156 190 230 279
#     4  10  20  30  42  61  88 121 154 186 225 274
#     4   9  17  29  47  67  92 127 158 185 223 273
#
# _framework density 16.339817
#
# number of rings (size 3 to 8) (size 9 to 14) (size 15 to 20)
#    0.000    2.375    1.250    1.875    0.000    4.500 
#    0.000    0.000    0.000    0.000    0.000    0.875 
#    0.000    7.000    0.000    0.000    0.000    0.000 
#
# Total GULP energy -396874.875636 kJ/mol
# GULP energy per Si atom -12402.339864 kJ/mol
# Density = 1.630263 g / cm^3
# Si number density = 16.339817 Si / 1000 Ang^3
#
#
#
# Elastic Constant Matrix: (Units=GPa)
#
#
# Indices 1 2 3 4 5 6 
#
# 1 155.6506 72.8316 50.4634 0.0000 0.0000 0.0000
# 2 72.8316 79.9899 33.9407 0.0000 0.0000 0.0000
# 3 50.4634 33.9407 65.9504 0.0000 0.0000 0.0000
# 4 0.0000 0.0000 0.0000 13.3247 0.0000 0.0000
# 5 0.0000 0.0000 0.0000 0.0000 18.7815 0.0000
# 6 0.0000 0.0000 0.0000 0.0000 0.0000 38.1251
#
#
#
# Elastic Compliance Matrix: (Units=1/GPa)
#
#
# Indices 1 2 3 4 5 6 
#
# 1 0.012208 -0.009150 -0.004632 0.000000 0.000000 0.000000
# 2 -0.009150 0.022852 -0.004759 0.000000 0.000000 0.000000
# 3 -0.004632 -0.004759 0.021157 0.000000 0.000000 0.000000
# 4 0.000000 0.000000 0.000000 0.075049 0.000000 0.000000
# 5 0.000000 0.000000 0.000000 0.000000 0.053244 0.000000
# 6 0.000000 0.000000 0.000000 0.000000 0.000000 0.026229
#
#
# Mechanical properties :
#
#
# Convention : Reuss Voigt Hill
#
# Bulk Modulus (GPa) = 52.26373 68.45137 60.35755
# Shear Modulus (GPa) = 19.66960 23.66994 21.66977
#
# Velocity S-wave (km/s) = 3.47332 3.81018 3.64565
# Velocity P-wave (km/s) = 6.93832 7.83198 7.39866
#
# Compressibility (1/GPa) = 0.01913373
#
# Stress axis : x y z
#
# Youngs Moduli (GPa) = 81.91469 43.75971 47.26631
#
# Poissons Ratio (x) = 0.40039 0.21895
# Poissons Ratio (y) = 0.74951 0.22496
# Poissons Ratio (z) = 0.37945 0.20827
#
# Static dielectric constant tensor:
#      x y z
#    x 3.091770 0.000000 0.000000 
#    y 0.000000 3.101480 0.000000 
#    z 0.000000 0.000000 2.985170 
# 
# 
# High freq. dielectric constant tensor:
#      x y z
#    x 1.632020 0.000000 0.000000 
#    y 0.000000 1.634190 0.000000 
#    z 0.000000 0.000000 1.594990 
# 
# From -- ./inp_files/33223.got.cif
#   From: 2010.03.12/outbox.cif.g09.slc.cpg/sg65_17_cif.got.tgz:33223.got - 2010.04.10 20:52:16.
