data_PCOD8267113
_publ_section_title
;
Structure prediction by ZEFSAII (Michael W. Deem and Ramdas Pophale) SiO2 
 PCOD8267113
Probable space group: C M M M
;
_chemical_formula_sum "Si O2"
_cell_formula_units_Z 104
_cell_length_a 24.124572
_cell_length_b 27.262131
_cell_length_c 9.369084
_cell_angle_alpha 90.000000
_cell_angle_beta 90.000000
_cell_angle_gamma 90.000000
_cell_volume 6161.927018
_symmetry_space_group_name_H-M "C M M M"
_symmetry_group_IT_number 65
_symmetry_cell_setting 'orthorhombic'
loop_
_space_group_symop_operation_xyz
x,y,z
-x,-y,z
x,-y,-z
-x,y,-z
-x,-y,-z
x,y,-z
-x,y,z
x,-y,z
1/2+x,1/2+y,z
1/2-x,1/2-y,z
1/2+x,1/2-y,-z
1/2-x,1/2+y,-z
1/2-x,1/2-y,-z
1/2+x,1/2+y,-z
1/2-x,1/2+y,z
1/2+x,1/2-y,z
loop_
_atom_site_type_symbol
_atom_site_label
_atom_site_fract_x
_atom_site_fract_y
_atom_site_fract_z
Si Si1 0.500000 0.558230 0.661585
Si Si2 0.500000 0.808270 0.838156
Si Si3 0.682521 0.643838 0.160134
Si Si4 0.098454 0.808636 0.344210
Si Si5 0.607017 0.444391 0.165146
Si Si6 0.214215 0.297940 0.837657
Si Si7 0.396321 0.195573 0.659150
Si Si8 0.500000 0.308976 0.158330
O O1 0.500000 0.500000 0.663573
O O2 0.500000 0.578731 0.500000
O O3 0.555563 0.576150 0.742577
O O4 0.554746 0.828327 0.755192
O O5 0.500000 0.749612 0.845800
O O6 0.500000 0.829308 0.000000
O O7 0.657246 0.682675 0.270654
O O8 0.661720 0.588806 0.197022
O O9 0.748454 0.652395 0.172882
O O10 0.663107 0.657876 0.000000
O O11 0.096067 0.833854 0.500000
O O12 0.087335 0.751632 0.361341
O O13 0.052204 0.831646 0.241232
O O14 0.622855 0.500000 0.208497
O O15 0.589573 0.441817 0.000000
O O16 0.250000 0.250000 0.791546
O O17 0.162878 0.308514 0.735153
O O18 0.192770 0.290145 0.000000
O O19 0.393741 0.171338 0.500000
O O20 0.500000 0.330957 0.000000
#
# Coordination Sequence:
#
# PCOD8267113 Si02
#       8
#     8   8  16  16  16  16  16   8
#     4   9  17  30  49  70  89 112 145 187 238 289
#     4   9  17  29  46  64  83 112 150 185 221 263
#     4  10  20  32  46  64  85 113 149 184 223 272
#     4  10  19  29  41  59  83 109 141 182 224 264
#     4   9  18  33  51  68  87 113 148 191 236 279
#     4  10  19  31  47  64  87 119 153 186 221 267
#     4  10  19  30  45  64  88 115 146 185 225 261
#     4   9  17  28  42  57  78 109 144 181 223 266
#
# _framework density 16.877837
#
# number of rings (size 3 to 8) (size 9 to 14) (size 15 to 20)
#    0.000    2.385    1.538    1.615    0.000    6.154 
#    0.000    0.769    0.000    0.000    0.000    0.000 
#    0.000    0.000    0.000    0.692    0.000   16.308 
#
# Total GULP energy -644451.559346 kJ/mol
# GULP energy per Si atom -12393.299218 kJ/mol
# Density = 1.683942 g / cm^3
# Si number density = 16.877837 Si / 1000 Ang^3
#
#
#
# Elastic Constant Matrix: (Units=GPa)
#
#
# Indices 1 2 3 4 5 6 
#
# 1 118.5312 23.4980 71.5865 0.0000 0.0000 0.0000
# 2 23.4980 36.1765 14.7290 0.0000 0.0000 0.0000
# 3 71.5865 14.7290 137.1506 0.0000 0.0000 0.0000
# 4 0.0000 0.0000 0.0000 10.4432 0.0000 0.0000
# 5 0.0000 0.0000 0.0000 0.0000 14.3353 0.0000
# 6 0.0000 0.0000 0.0000 0.0000 0.0000 15.3006
#
#
#
# Elastic Compliance Matrix: (Units=1/GPa)
#
#
# Indices 1 2 3 4 5 6 
#
# 1 0.013524 -0.006181 -0.006395 0.000000 0.000000 0.000000
# 2 -0.006181 0.031731 -0.000182 0.000000 0.000000 0.000000
# 3 -0.006395 -0.000182 0.010649 0.000000 0.000000 0.000000
# 4 0.000000 0.000000 0.000000 0.095756 0.000000 0.000000
# 5 0.000000 0.000000 0.000000 0.000000 0.069758 0.000000
# 6 0.000000 0.000000 0.000000 0.000000 0.000000 0.065357
#
#
# Mechanical properties :
#
#
# Convention : Reuss Voigt Hill
#
# Bulk Modulus (GPa) = 32.90703 56.83168 44.86935
# Shear Modulus (GPa) = 15.50774 20.15214 17.82994
#
# Velocity S-wave (km/s) = 3.03450 3.45918 3.25377
# Velocity P-wave (km/s) = 5.64066 7.04983 6.38424
#
# Compressibility (1/GPa) = 0.03038865
#
# Stress axis : x y z
#
# Youngs Moduli (GPa) = 73.94082 31.51512 93.90697
#
# Poissons Ratio (x) = 0.19479 0.60057
# Poissons Ratio (y) = 0.45701 0.01705
# Poissons Ratio (z) = 0.47288 0.00572
#
# Static dielectric constant tensor:
#      x y z
#    x 3.121560 0.000000 0.000000 
#    y 0.000000 2.763690 0.000000 
#    z 0.000000 0.000000 3.471670 
# 
# 
# High freq. dielectric constant tensor:
#      x y z
#    x 1.640630 0.000000 0.000000 
#    y 0.000000 1.588650 0.000000 
#    z 0.000000 0.000000 1.667290 
# 
# From -- ./inp_files/15086.got.cif
#   From: 2010.03.12/outbox.cif.g09.slc.cpg/sg65_8_cif.got.tgz:15086.got - 2010.04.10 20:52:16.
