data_PCOD8267207
_publ_section_title
;
Structure prediction by ZEFSAII (Michael W. Deem and Ramdas Pophale) SiO2 
 PCOD8267207
Probable space group: C M M M
;
_chemical_formula_sum "Si O2"
_cell_formula_units_Z 104
_cell_length_a 15.987995
_cell_length_b 28.861811
_cell_length_c 13.284746
_cell_angle_alpha 90.000000
_cell_angle_beta 90.000000
_cell_angle_gamma 90.000000
_cell_volume 6130.146273
_symmetry_space_group_name_H-M "C M M M"
_symmetry_group_IT_number 65
_symmetry_cell_setting 'orthorhombic'
loop_
_space_group_symop_operation_xyz
x,y,z
-x,-y,z
x,-y,-z
-x,y,-z
-x,-y,-z
x,y,-z
-x,y,z
x,-y,z
1/2+x,1/2+y,z
1/2-x,1/2-y,z
1/2+x,1/2-y,-z
1/2-x,1/2+y,-z
1/2-x,1/2-y,-z
1/2+x,1/2+y,-z
1/2-x,1/2+y,z
1/2+x,1/2-y,z
loop_
_atom_site_type_symbol
_atom_site_label
_atom_site_fract_x
_atom_site_fract_y
_atom_site_fract_z
Si Si1 0.591990 0.553077 0.716879
Si Si2 0.840773 0.397818 0.795963
Si Si3 0.166396 0.889287 0.115775
Si Si4 0.738723 0.053926 0.384609
Si Si5 0.407569 0.294446 0.118629
Si Si6 0.000000 0.445360 0.112809
Si Si7 0.400693 0.192854 0.885658
O O1 0.500000 0.563148 0.669793
O O2 0.600549 0.500000 0.748708
O O3 0.600882 0.581803 0.819314
O O4 0.663797 0.565946 0.636321
O O5 0.759616 0.407868 0.864252
O O6 0.820499 0.412622 0.681435
O O7 0.862605 0.343602 0.806464
O O8 0.917197 0.428704 0.832101
O O9 0.157213 0.835043 0.148094
O O10 0.142269 0.896348 0.000000
O O11 0.718816 0.065102 0.500000
O O12 0.720186 0.000000 0.359562
O O13 0.500000 0.304914 0.164515
O O14 0.374217 0.243970 0.154405
O O15 0.417229 0.290557 0.000000
O O16 0.000000 0.500000 0.111946
O O17 0.000000 0.424779 0.000000
O O18 0.500000 0.188021 0.886015
O O19 0.366965 0.183380 0.000000
#
# Coordination Sequence:
#
# PCOD8267207 Si02
#       7
#    16  16  16  16  16   8  16
#     4   9  18  31  48  72  98 127 164 197 232 287
#     4  11  20  32  49  70  93 123 166 204 248 293
#     4  10  19  29  44  69 104 138 165 197 236 285
#     4   9  19  36  54  71  94 121 153 204 259 296
#     4   8  15  27  43  66  97 134 167 194 231 280
#     4  11  22  34  49  69  97 133 168 200 236 288
#     4   9  16  28  47  69  97 129 162 201 238 280
#
# _framework density 16.965337000000002
#
# number of rings (size 3 to 8) (size 9 to 14) (size 15 to 20)
#    0.000    2.538    0.769    3.231    0.000    2.769 
#    0.000    5.000    0.000    1.385    0.000    8.615 
#    0.000    4.923    0.000    0.000    0.000    0.000 
#
# Total GULP energy -644527.834862 kJ/mol
# GULP energy per Si atom -12394.766055 kJ/mol
# Density = 1.692672 g / cm^3
# Si number density = 16.965337 Si / 1000 Ang^3
#
#
#
# Elastic Constant Matrix: (Units=GPa)
#
#
# Indices 1 2 3 4 5 6 
#
# 1 87.0325 39.3465 37.4676 0.0000 0.0000 0.0000
# 2 39.3465 81.8158 46.8400 0.0000 0.0000 0.0000
# 3 37.4676 46.8400 88.1341 0.0000 0.0000 0.0000
# 4 0.0000 0.0000 0.0000 15.8751 0.0000 0.0000
# 5 0.0000 0.0000 0.0000 0.0000 15.7354 0.0000
# 6 0.0000 0.0000 0.0000 0.0000 0.0000 19.3988
#
#
#
# Elastic Compliance Matrix: (Units=1/GPa)
#
#
# Indices 1 2 3 4 5 6 
#
# 1 0.015511 -0.005296 -0.003780 0.000000 0.000000 0.000000
# 2 -0.005296 0.019376 -0.008046 0.000000 0.000000 0.000000
# 3 -0.003780 -0.008046 0.017229 0.000000 0.000000 0.000000
# 4 0.000000 0.000000 0.000000 0.062992 0.000000 0.000000
# 5 0.000000 0.000000 0.000000 0.000000 0.063551 0.000000
# 6 0.000000 0.000000 0.000000 0.000000 0.000000 0.051550
#
#
# Mechanical properties :
#
#
# Convention : Reuss Voigt Hill
#
# Bulk Modulus (GPa) = 55.94935 56.03229 55.99082
# Shear Modulus (GPa) = 18.49044 19.09040 18.79042
#
# Velocity S-wave (km/s) = 3.30494 3.35813 3.33164
# Velocity P-wave (km/s) = 6.90027 6.93796 6.91914
#
# Compressibility (1/GPa) = 0.01787331
#
# Stress axis : x y z
#
# Youngs Moduli (GPa) = 64.46925 51.61043 58.04011
#
# Poissons Ratio (x) = 0.27332 0.21937
# Poissons Ratio (y) = 0.34141 0.46701
# Poissons Ratio (z) = 0.24367 0.41527
#
# Static dielectric constant tensor:
#      x y z
#    x 3.258350 0.000000 0.000000 
#    y 0.000000 3.483340 0.000000 
#    z 0.000000 0.000000 2.832040 
# 
# 
# High freq. dielectric constant tensor:
#      x y z
#    x 1.661790 0.000000 0.000000 
#    y 0.000000 1.660300 0.000000 
#    z 0.000000 0.000000 1.603430 
# 
# From -- ./inp_files/25542.got.cif
#   From: 2010.03.12/outbox.cif.g09.slc.cpg/sg65_13_cif.got.tgz:25542.got - 2010.04.10 20:52:16.
