data_PCOD8267916
_publ_section_title
;
Structure prediction by ZEFSAII (Michael W. Deem and Ramdas Pophale) SiO2 
 PCOD8267916
Probable space group: C M M M
;
_chemical_formula_sum "Si O2"
_cell_formula_units_Z 104
_cell_length_a 28.297025
_cell_length_b 15.294042
_cell_length_c 13.817602
_cell_angle_alpha 90.000000
_cell_angle_beta 90.000000
_cell_angle_gamma 90.000000
_cell_volume 5979.924987
_symmetry_space_group_name_H-M "C M M M"
_symmetry_group_IT_number 65
_symmetry_cell_setting 'orthorhombic'
loop_
_space_group_symop_operation_xyz
x,y,z
-x,-y,z
x,-y,-z
-x,y,-z
-x,-y,-z
x,y,-z
-x,y,z
x,-y,z
1/2+x,1/2+y,z
1/2-x,1/2-y,z
1/2+x,1/2-y,-z
1/2-x,1/2+y,-z
1/2-x,1/2-y,-z
1/2+x,1/2+y,-z
1/2-x,1/2+y,z
1/2+x,1/2-y,z
loop_
_atom_site_type_symbol
_atom_site_label
_atom_site_fract_x
_atom_site_fract_y
_atom_site_fract_z
Si Si1 0.554166 0.100335 0.261175
Si Si2 0.000000 0.897013 0.892239
Si Si3 0.868382 0.397154 0.892070
Si Si4 0.944998 0.763929 0.609988
Si Si5 0.412067 0.395740 0.237326
Si Si6 0.768242 0.656670 0.113456
Si Si7 0.829343 0.097282 0.893564
O O1 0.500000 0.108372 0.226023
O O2 0.587102 0.130667 0.172534
O O3 0.564501 0.166542 0.348936
O O4 0.565058 0.000000 0.293846
O O5 0.954051 0.866658 0.833893
O O6 0.000000 0.000000 0.902420
O O7 0.000000 0.855020 0.000000
O O8 0.864489 0.500000 0.899313
O O9 0.819356 0.364653 0.840657
O O10 0.875716 0.357674 0.000000
O O11 0.927036 0.763639 0.500000
O O12 0.916441 0.840634 0.664394
O O13 0.000000 0.787678 0.616803
O O14 0.412159 0.500000 0.260681
O O15 0.364171 0.360641 0.185369
O O16 0.750000 0.750000 0.148197
O O17 0.724927 0.593400 0.143989
O O18 0.776871 0.649191 0.000000
O O19 0.848523 0.000000 0.908150
O O20 0.831698 0.145334 0.000000
#
# Coordination Sequence:
#
# PCOD8267916 Si02
#       7
#    16   8  16  16  16  16  16
#     4   9  19  35  54  76 101 129 165 208 254 306
#     4   9  16  28  45  67 100 135 165 195 229 279
#     4   9  17  30  49  72 102 138 168 199 243 297
#     4  10  21  36  53  72  97 128 165 213 259 299
#     4  10  19  31  48  72 100 133 168 201 244 297
#     4   9  17  27  41  67  99 133 170 205 237 277
#     4   9  17  29  45  66  97 135 169 202 239 284
#
# _framework density 17.391521999999998
#
# number of rings (size 3 to 8) (size 9 to 14) (size 15 to 20)
#    0.000    2.692    0.769    0.923    2.154    4.615 
#    0.000    4.615    0.000    0.000    0.000    2.154 
#    0.000    4.923    0.000    0.000    0.000    0.000 
#
# Total GULP energy -644345.015275 kJ/mol
# GULP energy per Si atom -12391.250294 kJ/mol
# Density = 1.735194 g / cm^3
# Si number density = 17.391522 Si / 1000 Ang^3
#
#
#
# Elastic Constant Matrix: (Units=GPa)
#
#
# Indices 1 2 3 4 5 6 
#
# 1 114.1689 38.1418 66.7200 0.0000 0.0000 0.0000
# 2 38.1418 53.0748 40.9301 0.0000 0.0000 0.0000
# 3 66.7200 40.9301 111.4221 0.0000 0.0000 0.0000
# 4 0.0000 0.0000 0.0000 23.3387 0.0000 0.0000
# 5 0.0000 0.0000 0.0000 0.0000 7.5115 0.0000
# 6 0.0000 0.0000 0.0000 0.0000 0.0000 22.2005
#
#
#
# Elastic Compliance Matrix: (Units=1/GPa)
#
#
# Indices 1 2 3 4 5 6 
#
# 1 0.014424 -0.005169 -0.006738 0.000000 0.000000 0.000000
# 2 -0.005169 0.028141 -0.007242 0.000000 0.000000 0.000000
# 3 -0.006738 -0.007242 0.015670 0.000000 0.000000 0.000000
# 4 0.000000 0.000000 0.000000 0.042847 0.000000 0.000000
# 5 0.000000 0.000000 0.000000 0.000000 0.133128 0.000000
# 6 0.000000 0.000000 0.000000 0.000000 0.000000 0.045044
#
#
# Mechanical properties :
#
#
# Convention : Reuss Voigt Hill
#
# Bulk Modulus (GPa) = 50.16050 63.36108 56.76079
# Shear Modulus (GPa) = 15.42266 19.46841 17.44553
#
# Velocity S-wave (km/s) = 2.98114 3.34940 3.17062
# Velocity P-wave (km/s) = 6.38389 7.17421 6.79056
#
# Compressibility (1/GPa) = 0.01993601
#
# Stress axis : x y z
#
# Youngs Moduli (GPa) = 69.33094 35.53524 63.81630
#
# Poissons Ratio (x) = 0.18369 0.43000
# Poissons Ratio (y) = 0.35838 0.46216
# Poissons Ratio (z) = 0.46715 0.25735
#
# Static dielectric constant tensor:
#      x y z
#    x 3.431890 0.000000 0.000000 
#    y 0.000000 3.215650 0.000000 
#    z 0.000000 0.000000 3.045020 
# 
# 
# High freq. dielectric constant tensor:
#      x y z
#    x 1.675800 0.000000 0.000000 
#    y 0.000000 1.672140 0.000000 
#    z 0.000000 0.000000 1.623300 
# 
# From -- ./inp_files/34126.got.cif
#   From: 2010.03.12/outbox.cif.g09.slc.cpg/sg65_18_cif.got.tgz:34126.got - 2010.04.10 20:52:16.
