data_PCOD8267866
_publ_section_title
;
Structure prediction by ZEFSAII (Michael W. Deem and Ramdas Pophale) SiO2 
 PCOD8267866
Probable space group: C M M M
;
_chemical_formula_sum "Si O2"
_cell_formula_units_Z 88
_cell_length_a 18.121165
_cell_length_b 30.886475
_cell_length_c 8.808824
_cell_angle_alpha 90.000000
_cell_angle_beta 90.000000
_cell_angle_gamma 90.000000
_cell_volume 4930.289189
_symmetry_space_group_name_H-M "C M M M"
_symmetry_group_IT_number 65
_symmetry_cell_setting 'orthorhombic'
loop_
_space_group_symop_operation_xyz
x,y,z
-x,-y,z
x,-y,-z
-x,y,-z
-x,-y,-z
x,y,-z
-x,y,z
x,-y,z
1/2+x,1/2+y,z
1/2-x,1/2-y,z
1/2+x,1/2-y,-z
1/2-x,1/2+y,-z
1/2-x,1/2-y,-z
1/2+x,1/2+y,-z
1/2-x,1/2+y,z
1/2+x,1/2-y,z
loop_
_atom_site_type_symbol
_atom_site_label
_atom_site_fract_x
_atom_site_fract_y
_atom_site_fract_z
Si Si1 0.698102 0.615069 0.821401
Si Si2 0.655903 0.913947 0.677643
Si Si3 0.914798 0.048847 0.321400
Si Si4 0.419738 0.000000 0.320600
Si Si5 0.733234 0.796638 0.178326
Si Si6 0.582116 0.162051 0.175114
O O1 0.771955 0.590253 0.779088
O O2 0.629771 0.588941 0.750506
O O3 0.712077 0.664856 0.760645
O O4 0.685934 0.615471 0.000000
O O5 0.675961 0.912205 0.500000
O O6 0.593288 0.878923 0.716243
O O7 0.624794 0.958957 0.734222
O O8 0.903183 0.051577 0.500000
O O9 0.000000 0.055852 0.277182
O O10 0.890223 0.000000 0.267087
O O11 0.500000 0.000000 0.243365
O O12 0.428586 0.000000 0.500000
O O13 0.750000 0.750000 0.254509
O O14 0.646890 0.804316 0.216459
O O15 0.746340 0.794237 0.000000
O O16 0.500000 0.181662 0.205033
O O17 0.590306 0.147633 0.000000
#
# Coordination Sequence:
#
# PCOD8267866 Si02
#       6
#    16  16  16   8  16  16
#     4  10  20  33  51  77 103 128 164 210 256 300
#     4  10  19  31  48  68  93 129 167 200 237 288
#     4   9  19  36  56  76 101 137 177 211 250 308
#     4   9  18  30  43  63  90 121 160 199 229 266
#     4   8  15  30  50  71  98 131 166 207 255 307
#     4   9  17  30  48  70  95 123 160 207 255 298
#
# _framework density 17.848852999999998
#
# number of rings (size 3 to 8) (size 9 to 14) (size 15 to 20)
#    0.000    2.818    0.000    3.273    1.273    1.818 
#    0.000    3.182    0.000   20.182    0.000    0.000 
#    0.000    0.000    0.000    0.000    0.000    0.000 
#
# Total GULP energy -545090.375044 kJ/mol
# GULP energy per Si atom -12388.417615 kJ/mol
# Density = 1.780823 g / cm^3
# Si number density = 17.848853 Si / 1000 Ang^3
#
#
#
# Elastic Constant Matrix: (Units=GPa)
#
#
# Indices 1 2 3 4 5 6 
#
# 1 115.4641 84.4602 22.9357 0.0000 0.0000 0.0000
# 2 84.4602 167.6041 28.3227 0.0000 0.0000 0.0000
# 3 22.9357 28.3227 24.4582 0.0000 0.0000 0.0000
# 4 0.0000 0.0000 0.0000 35.9272 0.0000 0.0000
# 5 0.0000 0.0000 0.0000 0.0000 27.7853 0.0000
# 6 0.0000 0.0000 0.0000 0.0000 0.0000 403.4524
#
#
#
# Elastic Compliance Matrix: (Units=1/GPa)
#
#
# Indices 1 2 3 4 5 6 
#
# 1 0.014474 -0.006217 -0.006374 0.000000 0.000000 0.000000
# 2 -0.006217 0.010088 -0.005852 0.000000 0.000000 0.000000
# 3 -0.006374 -0.005852 0.053640 0.000000 0.000000 0.000000
# 4 0.000000 0.000000 0.000000 0.027834 0.000000 0.000000
# 5 0.000000 0.000000 0.000000 0.000000 0.035990 0.000000
# 6 0.000000 0.000000 0.000000 0.000000 0.000000 0.002479
#
#
# Mechanical properties :
#
#
# Convention : Reuss Voigt Hill
#
# Bulk Modulus (GPa) = 24.20355 64.32929 44.26642
# Shear Modulus (GPa) = 25.61934 104.88684 65.25309
#
# Velocity S-wave (km/s) = 3.79271 7.67408 6.05294
# Velocity P-wave (km/s) = 5.72444 10.70707 8.58518
#
# Compressibility (1/GPa) = 0.04131626
#
# Stress axis : x y z
#
# Youngs Moduli (GPa) = 69.08732 99.12507 18.64265
#
# Poissons Ratio (x) = 0.61625 0.11883
# Poissons Ratio (y) = 0.42951 0.10910
# Poissons Ratio (z) = 0.44038 0.58011
#
# Static dielectric constant tensor:
#      x y z
#    x 3.405490 0.000000 0.000000 
#    y 0.000000 3.645280 0.000000 
#    z 0.000000 0.000000 3.075820 
# 
# 
# High freq. dielectric constant tensor:
#      x y z
#    x 1.691870 0.000000 0.000000 
#    y 0.000000 1.687150 0.000000 
#    z 0.000000 0.000000 1.666060 
# 
# From -- ./inp_files/10029.got.cif
#   From: 2010.03.12/outbox.cif.g09.slc.cpg/sg65_6_cif.got.tgz:10029.got - 2010.04.10 20:52:16.
