data_PCOD8267463
_publ_section_title
;
Structure prediction by ZEFSAII (Michael W. Deem and Ramdas Pophale) SiO2 
 PCOD8267463
Probable space group: C M M M
;
_chemical_formula_sum "Si O2"
_cell_formula_units_Z 72
_cell_length_a 18.246328
_cell_length_b 8.865567
_cell_length_c 23.418469
_cell_angle_alpha 90.000000
_cell_angle_beta 90.000000
_cell_angle_gamma 90.000000
_cell_volume 3788.266235
_symmetry_space_group_name_H-M "C M M M"
_symmetry_group_IT_number 65
_symmetry_cell_setting 'orthorhombic'
loop_
_space_group_symop_operation_xyz
x,y,z
-x,-y,z
x,-y,-z
-x,y,-z
-x,-y,-z
x,y,-z
-x,y,z
x,-y,z
1/2+x,1/2+y,z
1/2-x,1/2-y,z
1/2+x,1/2-y,-z
1/2-x,1/2+y,-z
1/2-x,1/2-y,-z
1/2+x,1/2+y,-z
1/2-x,1/2+y,z
1/2+x,1/2-y,z
loop_
_atom_site_type_symbol
_atom_site_label
_atom_site_fract_x
_atom_site_fract_y
_atom_site_fract_z
Si Si1 0.328582 0.320801 0.670183
Si Si2 0.417925 0.320820 0.436868
Si Si3 0.917580 0.820795 0.000000
Si Si4 0.082183 0.179138 0.220127
Si Si5 0.829579 0.179281 0.110332
O O1 0.321336 0.500000 0.669407
O O2 0.250000 0.250000 0.679358
O O3 0.363089 0.257498 0.611157
O O4 0.380005 0.265295 0.721702
O O5 0.391137 0.268845 0.500000
O O6 0.500000 0.259133 0.425432
O O7 0.419833 0.500000 0.433412
O O8 0.875111 0.762600 0.944175
O O9 0.000000 0.754390 0.000000
O O10 0.921193 0.000000 0.000000
O O11 0.128560 0.239123 0.166441
O O12 0.000000 0.246026 0.217380
O O13 0.078631 0.000000 0.218404
O O14 0.750000 0.250000 0.108382
O O15 0.822152 0.000000 0.110519
#
# Coordination Sequence:
#
# PCOD8267463 Si02
#       5
#    16  16   8  16  16
#     4  10  19  30  46  68  93 119 147 183 226 269
#     4   8  14  26  45  67  88 113 150 191 223 255
#     4   9  17  30  49  71  92 119 158 194 220 255
#     4   9  17  30  49  70  89 115 155 194 222 256
#     4  10  19  31  49  71  95 121 149 186 229 270
#
# _framework density 19.006056999999998
#
# number of rings (size 3 to 8) (size 9 to 14) (size 15 to 20)
#    0.000    2.778    0.000    3.000    0.000    5.778 
#    0.000    0.000    0.000    7.333    0.000    1.556 
#    0.000    0.000    0.000    0.000    0.000    0.000 
#
# Total GULP energy -446324.501709 kJ/mol
# GULP energy per Si atom -12397.902825 kJ/mol
# Density = 1.896280 g / cm^3
# Si number density = 19.006057 Si / 1000 Ang^3
#
#
#
# Elastic Constant Matrix: (Units=GPa)
#
#
# Indices 1 2 3 4 5 6 
#
# 1 190.3311 19.6700 106.8762 0.0000 0.0000 0.0000
# 2 19.6700 10.3672 18.3634 0.0000 0.0000 0.0000
# 3 106.8762 18.3634 191.6542 0.0000 0.0000 0.0000
# 4 0.0000 0.0000 0.0000 6.5258 0.0000 0.0000
# 5 0.0000 0.0000 0.0000 0.0000 37.0687 0.0000
# 6 0.0000 0.0000 0.0000 0.0000 0.0000 26.1631
#
#
#
# Elastic Compliance Matrix: (Units=1/GPa)
#
#
# Indices 1 2 3 4 5 6 
#
# 1 0.008306 -0.009099 -0.003760 0.000000 0.000000 0.000000
# 2 -0.009099 0.126143 -0.007012 0.000000 0.000000 0.000000
# 3 -0.003760 -0.007012 0.007986 0.000000 0.000000 0.000000
# 4 0.000000 0.000000 0.000000 0.153238 0.000000 0.000000
# 5 0.000000 0.000000 0.000000 0.000000 0.026977 0.000000
# 6 0.000000 0.000000 0.000000 0.000000 0.000000 0.038222
#
#
# Mechanical properties :
#
#
# Convention : Reuss Voigt Hill
#
# Bulk Modulus (GPa) = 9.73777 75.79685 42.76731
# Shear Modulus (GPa) = 11.49835 30.44771 20.97303
#
# Velocity S-wave (km/s) = 2.46231 4.00684 3.32549
# Velocity P-wave (km/s) = 3.63574 7.83411 6.10704
#
# Compressibility (1/GPa) = 0.10269290
#
# Stress axis : x y z
#
# Youngs Moduli (GPa) = 120.40128 7.92751 125.21449
#
# Poissons Ratio (x) = 0.07213 0.47078
# Poissons Ratio (y) = 1.09550 0.87807
# Poissons Ratio (z) = 0.45269 0.05559
#
# Static dielectric constant tensor:
#      x y z
#    x 3.606870 0.000000 0.000000 
#    y 0.000000 2.812390 0.000000 
#    z 0.000000 0.000000 3.942970 
# 
# 
# High freq. dielectric constant tensor:
#      x y z
#    x 1.751050 0.000000 0.000000 
#    y 0.000000 1.667680 0.000000 
#    z 0.000000 0.000000 1.761900 
# 
# From -- ./inp_files/63465.got.cif
#   From: 2010.03.12/outbox.cif.g09.slc.cpg/sg65_32_cif.got.tgz:63465.got - 2010.04.10 20:52:16.
