data_PCOD8267110
_publ_section_title
;
Structure prediction by ZEFSAII (Michael W. Deem and Ramdas Pophale) SiO2 
 PCOD8267110
Probable space group: C M M M
;
_chemical_formula_sum "Si O2"
_cell_formula_units_Z 104
_cell_length_a 9.187321
_cell_length_b 27.259727
_cell_length_c 27.045374
_cell_angle_alpha 90.000000
_cell_angle_beta 90.000000
_cell_angle_gamma 90.000000
_cell_volume 6773.347922
_symmetry_space_group_name_H-M "C M M M"
_symmetry_group_IT_number 65
_symmetry_cell_setting 'orthorhombic'
loop_
_space_group_symop_operation_xyz
x,y,z
-x,-y,z
x,-y,-z
-x,y,-z
-x,-y,-z
x,y,-z
-x,y,z
x,-y,z
1/2+x,1/2+y,z
1/2-x,1/2-y,z
1/2+x,1/2-y,-z
1/2-x,1/2+y,-z
1/2-x,1/2-y,-z
1/2+x,1/2+y,-z
1/2-x,1/2+y,z
1/2+x,1/2-y,z
loop_
_atom_site_type_symbol
_atom_site_label
_atom_site_fract_x
_atom_site_fract_y
_atom_site_fract_z
Si Si1 0.830040 0.650376 0.705907
Si Si2 0.828444 0.798999 0.206574
Si Si3 0.831737 0.699644 0.500000
Si Si4 0.329504 0.603207 0.847569
Si Si5 0.172852 0.944758 0.054152
Si Si6 0.668266 0.054623 0.760471
Si Si7 0.169852 0.698628 0.606428
O O1 0.736094 0.686071 0.740385
O O2 0.792037 0.593599 0.717468
O O3 0.784431 0.660533 0.649210
O O4 0.000000 0.661508 0.715455
O O5 0.750000 0.750000 0.187443
O O6 0.791880 0.840768 0.166164
O O7 0.000000 0.790200 0.212198
O O8 0.750000 0.750000 0.500000
O O9 0.792439 0.673333 0.447470
O O10 0.000000 0.712532 0.500000
O O11 0.500000 0.593355 0.843690
O O12 0.270247 0.591710 0.902839
O O13 0.256374 0.565562 0.809953
O O14 0.000000 0.944470 0.053525
O O15 0.228389 0.000000 0.064938
O O16 0.230531 0.927306 0.000000
O O17 0.500000 0.058889 0.774653
O O18 0.707323 0.000000 0.741249
O O19 0.250000 0.750000 0.614055
O O20 0.000000 0.710478 0.610228
#
# Coordination Sequence:
#
# PCOD8267110 Si02
#       7
#    16  16   8  16  16  16  16
#     4   9  17  28  41  58  79 104 133 162 193 230
#     4  10  19  29  41  58  80 106 134 163 195 230
#     4   8  14  24  36  52  73  97 125 155 190 230
#     4   9  17  28  43  62  81 103 132 163 194 229
#     4   8  13  22  39  63  85 101 121 155 197 234
#     4   9  17  28  41  58  81 107 132 158 192 234
#     4   9  16  25  38  55  76 101 127 157 192 229
#
# _framework density 15.354298
#
# number of rings (size 3 to 8) (size 9 to 14) (size 15 to 20)
#    0.000    3.077    0.000    1.846    0.000    3.385 
#    0.000    0.000    0.000    0.923    0.000    2.692 
#    0.000    4.308    0.000    0.000    0.000   42.077 
#
# Total GULP energy -644295.123536 kJ/mol
# GULP energy per Si atom -12390.290837 kJ/mol
# Density = 1.531935 g / cm^3
# Si number density = 15.354298 Si / 1000 Ang^3
#
#
#
# Elastic Constant Matrix: (Units=GPa)
#
#
# Indices 1 2 3 4 5 6 
#
# 1 30.2461 27.5926 29.1116 0.0000 0.0000 0.0000
# 2 27.5926 97.1910 69.5820 0.0000 0.0000 0.0000
# 3 29.1116 69.5820 160.2949 0.0000 0.0000 0.0000
# 4 0.0000 0.0000 0.0000 21.0824 0.0000 0.0000
# 5 0.0000 0.0000 0.0000 0.0000 15.4519 0.0000
# 6 0.0000 0.0000 0.0000 0.0000 0.0000 16.9868
#
#
#
# Elastic Compliance Matrix: (Units=1/GPa)
#
#
# Indices 1 2 3 4 5 6 
#
# 1 0.046253 -0.010327 -0.003917 0.000000 0.000000 0.000000
# 2 -0.010327 0.017234 -0.005606 0.000000 0.000000 0.000000
# 3 -0.003917 -0.005606 0.009383 0.000000 0.000000 0.000000
# 4 0.000000 0.000000 0.000000 0.047433 0.000000 0.000000
# 5 0.000000 0.000000 0.000000 0.000000 0.064717 0.000000
# 6 0.000000 0.000000 0.000000 0.000000 0.000000 0.058869
#
#
# Mechanical properties :
#
#
# Convention : Reuss Voigt Hill
#
# Bulk Modulus (GPa) = 30.14677 60.03382 45.09029
# Shear Modulus (GPa) = 16.96948 21.46727 19.21837
#
# Velocity S-wave (km/s) = 3.32805 3.74321 3.54172
# Velocity P-wave (km/s) = 5.86895 7.60698 6.79377
#
# Compressibility (1/GPa) = 0.03317105
#
# Stress axis : x y z
#
# Youngs Moduli (GPa) = 21.62002 58.02478 106.57243
#
# Poissons Ratio (x) = 0.59921 0.41750
# Poissons Ratio (y) = 0.22326 0.59740
# Poissons Ratio (z) = 0.08470 0.32526
#
# Static dielectric constant tensor:
#      x y z
#    x 2.803350 0.000000 0.000000 
#    y 0.000000 2.908960 0.000000 
#    z 0.000000 0.000000 3.423390 
# 
# 
# High freq. dielectric constant tensor:
#      x y z
#    x 1.578230 0.000000 0.000000 
#    y 0.000000 1.565260 0.000000 
#    z 0.000000 0.000000 1.589740 
# 
# From -- ./inp_files/77107.got.cif
#   From: 2010.03.12/outbox.cif.g09.slc.cpg/sg65_39_cif.got.tgz:77107.got - 2010.04.10 20:52:16.
