data_PCOD8267087
_publ_section_title
;
Structure prediction by ZEFSAII (Michael W. Deem and Ramdas Pophale) SiO2 
 PCOD8267087
Probable space group: C M M M
;
_chemical_formula_sum "Si O2"
_cell_formula_units_Z 88
_cell_length_a 21.690967
_cell_length_b 17.186301
_cell_length_c 14.228918
_cell_angle_alpha 90.000000
_cell_angle_beta 90.000000
_cell_angle_gamma 90.000000
_cell_volume 5304.362596
_symmetry_space_group_name_H-M "C M M M"
_symmetry_group_IT_number 65
_symmetry_cell_setting 'orthorhombic'
loop_
_space_group_symop_operation_xyz
x,y,z
-x,-y,z
x,-y,-z
-x,y,-z
-x,-y,-z
x,y,-z
-x,y,z
x,-y,z
1/2+x,1/2+y,z
1/2-x,1/2-y,z
1/2+x,1/2-y,-z
1/2-x,1/2+y,-z
1/2-x,1/2-y,-z
1/2+x,1/2+y,-z
1/2-x,1/2+y,z
1/2+x,1/2-y,z
loop_
_atom_site_type_symbol
_atom_site_label
_atom_site_fract_x
_atom_site_fract_y
_atom_site_fract_z
Si Si1 0.764128 0.411086 0.607396
Si Si2 0.500000 0.909385 0.611602
Si Si3 0.203592 0.088500 0.893633
Si Si4 0.191497 0.801892 0.267444
Si Si5 0.880026 0.345137 0.707357
Si Si6 0.151493 0.411133 0.104277
O O1 0.776711 0.388070 0.500000
O O2 0.743143 0.500000 0.618027
O O3 0.709105 0.357765 0.646178
O O4 0.826675 0.399192 0.664886
O O5 0.500000 0.902014 0.500000
O O6 0.441753 0.864273 0.652509
O O7 0.500000 0.000000 0.642225
O O8 0.169505 0.146799 0.821883
O O9 0.276146 0.095169 0.874175
O O10 0.181836 0.000000 0.875324
O O11 0.187489 0.113270 0.000000
O O12 0.250000 0.750000 0.236417
O O13 0.136115 0.746433 0.302568
O O14 0.886685 0.363142 0.818473
O O15 0.129938 0.500000 0.109245
O O16 0.137266 0.377628 0.000000
#
# Coordination Sequence:
#
# PCOD8267087 Si02
#       6
#    16   8  16  16  16  16
#     4  10  19  31  48  69  95 125 156 195 247 304
#     4  11  24  40  57  71  88 127 177 213 239 276
#     4   9  16  27  45  71 104 137 164 189 227 289
#     4  10  19  28  44  71 101 128 155 196 248 296
#     4  11  21  33  49  72  97 127 163 207 246 282
#     4   9  16  27  46  70  98 132 162 191 231 281
#
# _framework density 16.590118
#
# number of rings (size 3 to 8) (size 9 to 14) (size 15 to 20)
#    0.000    2.091    3.636    3.818    0.000    6.545 
#    0.000    0.455    0.000    1.636    0.000    2.545 
#    0.000    5.818    0.000    0.000    0.000    0.000 
#
# Total GULP energy -545550.558037 kJ/mol
# GULP energy per Si atom -12398.876319 kJ/mol
# Density = 1.655236 g / cm^3
# Si number density = 16.590118 Si / 1000 Ang^3
#
#
#
# Elastic Constant Matrix: (Units=GPa)
#
#
# Indices 1 2 3 4 5 6 
#
# 1 61.2630 41.0820 34.3666 0.0000 0.0000 0.0000
# 2 41.0820 103.1940 55.7729 0.0000 0.0000 0.0000
# 3 34.3666 55.7729 115.2897 0.0000 0.0000 0.0000
# 4 0.0000 0.0000 0.0000 19.4575 0.0000 0.0000
# 5 0.0000 0.0000 0.0000 0.0000 18.3639 0.0000
# 6 0.0000 0.0000 0.0000 0.0000 0.0000 16.3046
#
#
#
# Elastic Compliance Matrix: (Units=1/GPa)
#
#
# Indices 1 2 3 4 5 6 
#
# 1 0.023164 -0.007433 -0.003309 0.000000 0.000000 0.000000
# 2 -0.007433 0.015506 -0.005286 0.000000 0.000000 0.000000
# 3 -0.003309 -0.005286 0.012217 0.000000 0.000000 0.000000
# 4 0.000000 0.000000 0.000000 0.051394 0.000000 0.000000
# 5 0.000000 0.000000 0.000000 0.000000 0.054455 0.000000
# 6 0.000000 0.000000 0.000000 0.000000 0.000000 0.061332
#
#
# Mechanical properties :
#
#
# Convention : Reuss Voigt Hill
#
# Bulk Modulus (GPa) = 53.10191 60.24331 56.67261
# Shear Modulus (GPa) = 19.50062 20.72685 20.11374
#
# Velocity S-wave (km/s) = 3.43218 3.53845 3.48572
# Velocity P-wave (km/s) = 6.91261 7.28600 7.10176
#
# Compressibility (1/GPa) = 0.01883172
#
# Stress axis : x y z
#
# Youngs Moduli (GPa) = 43.17056 64.48938 81.85192
#
# Poissons Ratio (x) = 0.47937 0.27085
# Poissons Ratio (y) = 0.32090 0.43264
# Poissons Ratio (z) = 0.14285 0.34087
#
# Static dielectric constant tensor:
#      x y z
#    x 2.637930 0.000000 0.000000 
#    y 0.000000 3.277410 0.000000 
#    z 0.000000 0.000000 3.368980 
# 
# 
# High freq. dielectric constant tensor:
#      x y z
#    x 1.564520 0.000000 0.000000 
#    y 0.000000 1.643090 0.000000 
#    z 0.000000 0.000000 1.660640 
# 
# From -- ./inp_files/44316.got.cif
#   From: 2010.03.12/outbox.cif.g09.slc.cpg/sg65_23_cif.got.tgz:44316.got - 2010.04.10 20:52:16.
