data_PCOD8267632
_publ_section_title
;
Structure prediction by ZEFSAII (Michael W. Deem and Ramdas Pophale) SiO2 
 PCOD8267632
Probable space group: C M M M
;
_chemical_formula_sum "Si O2"
_cell_formula_units_Z 80
_cell_length_a 28.414819
_cell_length_b 14.934016
_cell_length_c 9.794247
_cell_angle_alpha 90.000000
_cell_angle_beta 90.000000
_cell_angle_gamma 90.000000
_cell_volume 4156.162873
_symmetry_space_group_name_H-M "C M M M"
_symmetry_group_IT_number 65
_symmetry_cell_setting 'orthorhombic'
loop_
_space_group_symop_operation_xyz
x,y,z
-x,-y,z
x,-y,-z
-x,y,-z
-x,-y,-z
x,y,-z
-x,y,z
x,-y,z
1/2+x,1/2+y,z
1/2-x,1/2-y,z
1/2+x,1/2-y,-z
1/2-x,1/2+y,-z
1/2-x,1/2-y,-z
1/2+x,1/2+y,-z
1/2-x,1/2+y,z
1/2+x,1/2-y,z
loop_
_atom_site_type_symbol
_atom_site_label
_atom_site_fract_x
_atom_site_fract_y
_atom_site_fract_z
Si Si1 0.588941 0.896331 0.839381
Si Si2 0.871812 0.100897 0.661897
Si Si3 0.308763 0.899740 0.854585
Si Si4 0.731806 0.350092 0.653434
Si Si5 0.053164 0.755316 0.343235
O O1 0.641734 0.858922 0.802673
O O2 0.555502 0.834158 0.748017
O O3 0.580351 0.000000 0.797470
O O4 0.578286 0.882714 0.000000
O O5 0.873745 0.097580 0.500000
O O6 0.821135 0.139959 0.709792
O O7 0.912832 0.166375 0.715972
O O8 0.878511 0.000000 0.720824
O O9 0.266995 0.904819 0.747104
O O10 0.323994 0.000000 0.887867
O O11 0.292776 0.854938 0.000000
O O12 0.734911 0.388322 0.500000
O O13 0.750000 0.250000 0.661120
O O14 0.066849 0.731825 0.500000
O O15 0.000000 0.792277 0.335634
#
# Coordination Sequence:
#
# PCOD8267632 Si02
#       5
#    16  16  16  16  16
#     4   9  19  36  56  78 107 143 176 206 254 325
#     4   9  18  33  52  75 106 143 181 220 263 314
#     4   9  18  32  49  71 100 132 166 202 240 291
#     4  10  19  30  48  75 105 137 172 209 253 306
#     4  10  21  36  55  79 103 130 173 229 278 314
#
# _framework density 19.248524
#
# number of rings (size 3 to 8) (size 9 to 14) (size 15 to 20)
#    0.000    2.600    0.000    3.000    0.000    5.600 
#    0.000    7.000    0.000    1.800    0.000    1.400 
#    0.000    0.000    0.000    0.000    0.000    0.000 
#
# Total GULP energy -495625.088497 kJ/mol
# GULP energy per Si atom -12390.627212 kJ/mol
# Density = 1.920471 g / cm^3
# Si number density = 19.248524 Si / 1000 Ang^3
#
#
#
# Elastic Constant Matrix: (Units=GPa)
#
#
# Indices 1 2 3 4 5 6 
#
# 1 114.4965 45.4959 36.2351 0.0000 0.0000 0.0000
# 2 45.4959 101.3467 29.1447 0.0000 0.0000 0.0000
# 3 36.2351 29.1447 53.5405 0.0000 0.0000 0.0000
# 4 0.0000 0.0000 0.0000 3.7709 0.0000 0.0000
# 5 0.0000 0.0000 0.0000 0.0000 5.0004 0.0000
# 6 0.0000 0.0000 0.0000 0.0000 0.0000 27.8104
#
#
#
# Elastic Compliance Matrix: (Units=1/GPa)
#
#
# Indices 1 2 3 4 5 6 
#
# 1 0.012165 -0.003668 -0.006237 0.000000 0.000000 0.000000
# 2 -0.003668 0.012804 -0.004488 0.000000 0.000000 0.000000
# 3 -0.006237 -0.004488 0.025341 0.000000 0.000000 0.000000
# 4 0.000000 0.000000 0.000000 0.265187 0.000000 0.000000
# 5 0.000000 0.000000 0.000000 0.000000 0.199982 0.000000
# 6 0.000000 0.000000 0.000000 0.000000 0.000000 0.035958
#
#
# Mechanical properties :
#
#
# Convention : Reuss Voigt Hill
#
# Bulk Modulus (GPa) = 46.45451 54.57054 50.51253
# Shear Modulus (GPa) = 8.51215 17.88356 13.19785
#
# Velocity S-wave (km/s) = 2.10519 3.05140 2.62134
# Velocity P-wave (km/s) = 5.48594 6.38958 5.95493
#
# Compressibility (1/GPa) = 0.02152643
#
# Stress axis : x y z
#
# Youngs Moduli (GPa) = 82.20368 78.10010 39.46154
#
# Poissons Ratio (x) = 0.28643 0.24610
# Poissons Ratio (y) = 0.30148 0.17709
# Poissons Ratio (z) = 0.51267 0.35050
#
# Static dielectric constant tensor:
#      x y z
#    x 3.556820 0.000000 0.000000 
#    y 0.000000 3.296680 0.000000 
#    z 0.000000 0.000000 3.319880 
# 
# 
# High freq. dielectric constant tensor:
#      x y z
#    x 1.753680 0.000000 0.000000 
#    y 0.000000 1.740470 0.000000 
#    z 0.000000 0.000000 1.722360 
# 
# From -- ./inp_files/9632.got.cif
#   From: 2010.03.12/outbox.cif.g09.slc.cpg/sg65_5_cif.got.tgz:9632.got - 2010.04.10 20:52:16.
