data_PCOD8267512
_publ_section_title
;
Structure prediction by ZEFSAII (Michael W. Deem and Ramdas Pophale) SiO2 
 PCOD8267512
Probable space group: C M M M
;
_chemical_formula_sum "Si O2"
_cell_formula_units_Z 104
_cell_length_a 28.618978
_cell_length_b 9.025377
_cell_length_c 20.523001
_cell_angle_alpha 90.000000
_cell_angle_beta 90.000000
_cell_angle_gamma 90.000000
_cell_volume 5301.030940
_symmetry_space_group_name_H-M "C M M M"
_symmetry_group_IT_number 65
_symmetry_cell_setting 'orthorhombic'
loop_
_space_group_symop_operation_xyz
x,y,z
-x,-y,z
x,-y,-z
-x,y,-z
-x,-y,-z
x,y,-z
-x,y,z
x,-y,z
1/2+x,1/2+y,z
1/2-x,1/2-y,z
1/2+x,1/2-y,-z
1/2-x,1/2+y,-z
1/2-x,1/2-y,-z
1/2+x,1/2+y,-z
1/2-x,1/2+y,z
1/2+x,1/2-y,z
loop_
_atom_site_type_symbol
_atom_site_label
_atom_site_fract_x
_atom_site_fract_y
_atom_site_fract_z
Si Si1 0.053676 0.325689 0.000000
Si Si2 0.294048 0.174348 0.368313
Si Si3 0.053935 0.169828 0.749641
Si Si4 0.395846 0.326637 0.118642
Si Si5 0.801272 0.163184 0.500000
Si Si6 0.704194 0.672555 0.925747
Si Si7 0.591107 0.337531 0.500000
Si Si8 0.599962 0.174861 0.632114
O O1 0.076882 0.262513 0.064395
O O2 0.060310 0.500000 0.000000
O O3 0.000000 0.277668 0.000000
O O4 0.250000 0.250000 0.328332
O O5 0.287125 0.232749 0.440856
O O6 0.346785 0.221750 0.347458
O O7 0.287493 0.000000 0.363319
O O8 0.084710 0.219417 0.811182
O O9 0.066197 0.274843 0.689669
O O10 0.000000 0.191334 0.768386
O O11 0.064701 0.000000 0.730449
O O12 0.403143 0.500000 0.104242
O O13 0.341045 0.284091 0.116674
O O14 0.855063 0.129409 0.500000
O O15 0.776510 0.000000 0.500000
O O16 0.713916 0.500000 0.923374
O O17 0.750000 0.750000 0.895626
O O18 0.695506 0.726049 0.000000
O O19 0.565510 0.500000 0.500000
O O20 0.579586 0.246870 0.565784
O O21 0.597475 0.000000 0.621864
#
# Coordination Sequence:
#
# PCOD8267512 Si02
#       8
#     8  16  16  16   8  16   8  16
#     4  11  23  35  52  85 122 151 186 237 292 337
#     4  10  19  30  46  71 103 140 179 217 263 322
#     4  10  22  40  62  85 109 144 190 236 287 347
#     4  10  20  38  61  85 114 153 197 237 278 334
#     4   9  16  26  43  70 104 140 174 213 265 320
#     4   9  17  31  53  83 117 154 195 235 277 327
#     4   9  17  32  57  84 110 142 185 236 285 338
#     4  10  21  37  57  82 113 148 185 232 290 349
#
# _framework density 19.618824
#
# number of rings (size 3 to 8) (size 9 to 14) (size 15 to 20)
#    0.000    2.231    0.769    2.308    0.000    6.462 
#    0.000    1.154    0.000    6.000    0.000    0.000 
#    0.000    0.000    0.000    0.000    0.000    0.000 
#
# Total GULP energy -644458.112043 kJ/mol
# GULP energy per Si atom -12393.425232 kJ/mol
# Density = 1.957417 g / cm^3
# Si number density = 19.618824 Si / 1000 Ang^3
#
#
#
# Elastic Constant Matrix: (Units=GPa)
#
#
# Indices 1 2 3 4 5 6 
#
# 1 117.0030 41.5514 56.2907 0.0000 0.0000 0.0000
# 2 41.5514 72.2649 39.3221 0.0000 0.0000 0.0000
# 3 56.2907 39.3221 101.5578 0.0000 0.0000 0.0000
# 4 0.0000 0.0000 0.0000 11.5861 0.0000 0.0000
# 5 0.0000 0.0000 0.0000 0.0000 40.1997 0.0000
# 6 0.0000 0.0000 0.0000 0.0000 0.0000 31.5413
#
#
#
# Elastic Compliance Matrix: (Units=1/GPa)
#
#
# Indices 1 2 3 4 5 6 
#
# 1 0.012665 -0.004387 -0.005321 0.000000 0.000000 0.000000
# 2 -0.004387 0.019051 -0.004945 0.000000 0.000000 0.000000
# 3 -0.005321 -0.004945 0.014711 0.000000 0.000000 0.000000
# 4 0.000000 0.000000 0.000000 0.086310 0.000000 0.000000
# 5 0.000000 0.000000 0.000000 0.000000 0.024876 0.000000
# 6 0.000000 0.000000 0.000000 0.000000 0.000000 0.031704
#
#
# Mechanical properties :
#
#
# Convention : Reuss Voigt Hill
#
# Bulk Modulus (GPa) = 58.40870 62.79492 60.60181
# Shear Modulus (GPa) = 22.28866 26.90951 24.59908
#
# Velocity S-wave (km/s) = 3.37424 3.70755 3.54482
# Velocity P-wave (km/s) = 6.70948 7.09964 6.90731
#
# Compressibility (1/GPa) = 0.01712074
#
# Stress axis : x y z
#
# Youngs Moduli (GPa) = 78.95987 52.49082 67.97778
#
# Poissons Ratio (x) = 0.23025 0.36173
# Poissons Ratio (y) = 0.34636 0.33615
# Poissons Ratio (z) = 0.42017 0.25957
#
# Static dielectric constant tensor:
#      x y z
#    x 3.869640 0.000000 0.000000 
#    y 0.000000 3.590840 0.000000 
#    z 0.000000 0.000000 3.456250 
# 
# 
# High freq. dielectric constant tensor:
#      x y z
#    x 1.776160 0.000000 0.000000 
#    y 0.000000 1.766550 0.000000 
#    z 0.000000 0.000000 1.734100 
# 
# From -- ./inp_files/65966.got.cif
#   From: 2010.03.12/outbox.cif.g09.slc.cpg/sg65_33_cif.got.tgz:65966.got - 2010.04.10 20:52:16.
