data_PCOD8267013
_publ_section_title
;
Structure prediction by ZEFSAII (Michael W. Deem and Ramdas Pophale) SiO2 
 PCOD8267013
Probable space group: C M M M
;
_chemical_formula_sum "Si O2"
_cell_formula_units_Z 48
_cell_length_a 18.583660
_cell_length_b 16.333605
_cell_length_c 7.711174
_cell_angle_alpha 90.000000
_cell_angle_beta 90.000000
_cell_angle_gamma 90.000000
_cell_volume 2340.635582
_symmetry_space_group_name_H-M "C M M M"
_symmetry_group_IT_number 65
_symmetry_cell_setting 'orthorhombic'
loop_
_space_group_symop_operation_xyz
x,y,z
-x,-y,z
x,-y,-z
-x,y,-z
-x,-y,-z
x,y,-z
-x,y,z
x,-y,z
1/2+x,1/2+y,z
1/2-x,1/2-y,z
1/2+x,1/2-y,-z
1/2-x,1/2+y,-z
1/2-x,1/2-y,-z
1/2+x,1/2+y,-z
1/2-x,1/2+y,z
1/2+x,1/2-y,z
loop_
_atom_site_type_symbol
_atom_site_label
_atom_site_fract_x
_atom_site_fract_y
_atom_site_fract_z
Si Si1 0.083945 0.410363 0.000000
Si Si2 0.582154 0.500000 0.205998
Si Si3 0.322242 0.651837 0.203531
Si Si4 0.664421 0.833269 0.305270
O O1 0.103975 0.363332 0.174759
O O2 0.120421 0.500000 0.000000
O O3 0.000000 0.418774 0.000000
O O4 0.500000 0.500000 0.277508
O O5 0.624306 0.419253 0.272075
O O6 0.582189 0.500000 0.000000
O O7 0.337656 0.734859 0.306370
O O8 0.239905 0.627912 0.242118
O O9 0.332648 0.667667 0.000000
O O10 0.647725 0.863632 0.500000
#
# Coordination Sequence:
#
# PCOD8267013 Si02
#       4
#     8   8  16  16
#     4  11  26  45  64  89 121 158 207 264 324 378
#     4   9  20  34  57  95 131 167 207 248 305 374
#     4  10  18  36  63  94 129 167 210 255 302 361
#     4  11  22  40  66  94 123 161 212 261 309 367
#
# _framework density 20.507249999999999
#
# number of rings (size 3 to 8) (size 9 to 14) (size 15 to 20)
#    0.000    1.667    3.333    3.000    2.333    2.667 
#    0.000    4.167    0.000    7.000    0.000    0.000 
#    0.000    0.000    0.000    0.000    0.000    0.000 
#
# Total GULP energy -297602.576403 kJ/mol
# GULP energy per Si atom -12400.107350 kJ/mol
# Density = 2.046057 g / cm^3
# Si number density = 20.507250 Si / 1000 Ang^3
#
#
#
# Elastic Constant Matrix: (Units=GPa)
#
#
# Indices 1 2 3 4 5 6 
#
# 1 111.8274 64.0051 24.0384 0.0000 0.0000 0.0000
# 2 64.0051 95.3093 14.8610 0.0000 0.0000 0.0000
# 3 24.0384 14.8610 112.7770 0.0000 0.0000 0.0000
# 4 0.0000 0.0000 0.0000 3.8911 0.0000 0.0000
# 5 0.0000 0.0000 0.0000 0.0000 -7.6897 0.0000
# 6 0.0000 0.0000 0.0000 0.0000 0.0000 31.4315
#
#
#
# Elastic Compliance Matrix: (Units=1/GPa)
#
#
# Indices 1 2 3 4 5 6 
#
# 1 0.014913 -0.009719 -0.001898 0.000000 0.000000 0.000000
# 2 -0.009719 0.017046 -0.000175 0.000000 0.000000 0.000000
# 3 -0.001898 -0.000175 0.009295 0.000000 0.000000 0.000000
# 4 0.000000 0.000000 0.000000 0.256996 0.000000 0.000000
# 5 0.000000 0.000000 0.000000 0.000000 -0.130044 0.000000
# 6 0.000000 0.000000 0.000000 0.000000 0.000000 0.031815
#
#
# Mechanical properties :
#
#
# Convention : Reuss Voigt Hill
#
# Bulk Modulus (GPa) = 56.59104 58.41365 57.50234
# Shear Modulus (GPa) = 21.78709 19.99388 20.89048
#
# Velocity S-wave (km/s) = 3.26300 3.12583 3.19515
# Velocity P-wave (km/s) = 6.46929 6.44779 6.45855
#
# Compressibility (1/GPa) = 0.01767064
#
# Stress axis : x y z
#
# Youngs Moduli (GPa) = 67.05547 58.66434 107.58902
#
# Poissons Ratio (x) = 0.57015 0.20421
# Poissons Ratio (y) = 0.65171 0.01879
# Poissons Ratio (z) = 0.12727 0.01025
#
# Static dielectric constant tensor:
#      x y z
#    x 3.723980 0.000000 0.000000 
#    y 0.000000 3.902730 0.000000 
#    z 0.000000 0.000000 3.560410 
# 
# 
# High freq. dielectric constant tensor:
#      x y z
#    x 1.790480 0.000000 0.000000 
#    y 0.000000 1.801820 0.000000 
#    z 0.000000 0.000000 1.799370 
# 
# From -- ./inp_files/8320.got.cif
#   From: 2010.03.12/outbox.cif.g09.slc.cpg/sg65_5_cif.got.tgz:8320.got - 2010.04.10 20:52:16.
