data_PCOD8267041
_publ_section_title
;
Structure prediction by ZEFSAII (Michael W. Deem and Ramdas Pophale) SiO2 
 PCOD8267041
Probable space group: C M M M
;
_chemical_formula_sum "Si O2"
_cell_formula_units_Z 96
_cell_length_a 22.627841
_cell_length_b 17.867150
_cell_length_c 17.281058
_cell_angle_alpha 90.000000
_cell_angle_beta 90.000000
_cell_angle_gamma 90.000000
_cell_volume 6986.645851
_symmetry_space_group_name_H-M "C M M M"
_symmetry_group_IT_number 65
_symmetry_cell_setting 'orthorhombic'
loop_
_space_group_symop_operation_xyz
x,y,z
-x,-y,z
x,-y,-z
-x,y,-z
-x,-y,-z
x,y,-z
-x,y,z
x,-y,z
1/2+x,1/2+y,z
1/2-x,1/2-y,z
1/2+x,1/2-y,-z
1/2-x,1/2+y,-z
1/2-x,1/2-y,-z
1/2+x,1/2+y,-z
1/2-x,1/2+y,z
1/2+x,1/2-y,z
loop_
_atom_site_type_symbol
_atom_site_label
_atom_site_fract_x
_atom_site_fract_y
_atom_site_fract_z
Si Si1 0.135793 0.643010 0.908492
Si Si2 0.433028 0.000000 0.092408
Si Si3 0.067028 0.784732 0.911253
Si Si4 0.070178 0.081970 0.500000
Si Si5 0.121495 0.912948 0.177811
Si Si6 0.238757 0.913333 0.911798
Si Si7 0.433965 0.411407 0.335030
O O1 0.099526 0.573232 0.873464
O O2 0.109730 0.720730 0.875083
O O3 0.204954 0.636331 0.887364
O O4 0.126897 0.642075 0.000000
O O5 0.500000 0.000000 0.122539
O O6 0.430322 0.000000 0.000000
O O7 0.075002 0.863759 0.869260
O O8 0.000000 0.756954 0.901369
O O9 0.083199 0.798409 0.000000
O O10 0.087838 0.123056 0.418507
O O11 0.000000 0.074129 0.500000
O O12 0.100090 0.000000 0.500000
O O13 0.187266 0.893589 0.148681
O O14 0.113392 0.891512 0.268243
O O15 0.106490 0.000000 0.162660
O O16 0.257274 0.000000 0.906684
O O17 0.218562 0.894570 0.000000
O O18 0.500000 0.381525 0.313139
O O19 0.437943 0.500000 0.345936
#
# Coordination Sequence:
#
# PCOD8267041 Si02
#       7
#    16   8  16   8  16  16  16
#     4   9  16  27  41  55  71  91 119 161 206 240
#     4   9  14  22  40  60  72  86 111 150 207 262
#     4  10  20  30  38  52  74  98 129 167 199 225
#     4   7  10  18  34  54  72  89 114 153 193 224
#     4  10  19  28  38  52  74 107 138 158 176 208
#     4   9  16  27  41  55  72  96 130 165 192 222
#     4   8  13  22  36  53  72  95 124 156 189 220
#
# _framework density 13.740499
#
# number of rings (size 3 to 8) (size 9 to 14) (size 15 to 20)
#    0.000    3.000    0.833    2.500    0.000    4.667 
#    0.000    3.333    0.000    0.000    0.000    0.000 
#    0.000    2.667    0.000    0.167    0.000    0.500 
#
# Total GULP energy -594720.432003 kJ/mol
# GULP energy per Si atom -12390.009000 kJ/mol
# Density = 1.370922 g / cm^3
# Si number density = 13.740499 Si / 1000 Ang^3
#
#
#
# Elastic Constant Matrix: (Units=GPa)
#
#
# Indices 1 2 3 4 5 6 
#
# 1 73.8511 27.6449 50.1484 0.0000 0.0000 0.0000
# 2 27.6449 52.5313 29.1309 0.0000 0.0000 0.0000
# 3 50.1484 29.1309 83.0421 0.0000 0.0000 0.0000
# 4 0.0000 0.0000 0.0000 4.5300 0.0000 0.0000
# 5 0.0000 0.0000 0.0000 0.0000 4.9199 0.0000
# 6 0.0000 0.0000 0.0000 0.0000 0.0000 20.2566
#
#
#
# Elastic Compliance Matrix: (Units=1/GPa)
#
#
# Indices 1 2 3 4 5 6 
#
# 1 0.024285 -0.005770 -0.012641 0.000000 0.000000 0.000000
# 2 -0.005770 0.025005 -0.005287 0.000000 0.000000 0.000000
# 3 -0.012641 -0.005287 0.021531 0.000000 0.000000 0.000000
# 4 0.000000 0.000000 0.000000 0.220752 0.000000 0.000000
# 5 0.000000 0.000000 0.000000 0.000000 0.203255 0.000000
# 6 0.000000 0.000000 0.000000 0.000000 0.000000 0.049367
#
#
# Mechanical properties :
#
#
# Convention : Reuss Voigt Hill
#
# Bulk Modulus (GPa) = 42.69214 47.03031 44.86123
# Shear Modulus (GPa) = 8.34171 12.77465 10.55818
#
# Velocity S-wave (km/s) = 2.46659 3.05242 2.77501
# Velocity P-wave (km/s) = 6.26497 6.83556 6.55647
#
# Compressibility (1/GPa) = 0.02342351
#
# Stress axis : x y z
#
# Youngs Moduli (GPa) = 41.17838 39.99257 46.44514
#
# Poissons Ratio (x) = 0.23075 0.58712
# Poissons Ratio (y) = 0.23759 0.24557
# Poissons Ratio (z) = 0.52055 0.21145
#
# Static dielectric constant tensor:
#      x y z
#    x 2.675100 0.000000 0.000000 
#    y 0.000000 2.624800 0.000000 
#    z 0.000000 0.000000 2.721430 
# 
# 
# High freq. dielectric constant tensor:
#      x y z
#    x 1.518140 0.000000 0.000000 
#    y 0.000000 1.502570 0.000000 
#    z 0.000000 0.000000 1.482420 
# 
# From -- ./inp_files/55987.got.cif
#   From: 2010.03.12/outbox.cif.g09.slc.cpg/sg65_28_cif.got.tgz:55987.got - 2010.04.10 20:52:16.
