data_PCOD8267774
_publ_section_title
;
Structure prediction by ZEFSAII (Michael W. Deem and Ramdas Pophale) SiO2 
 PCOD8267774
Probable space group: C M M M
;
_chemical_formula_sum "Si O2"
_cell_formula_units_Z 120
_cell_length_a 23.681638
_cell_length_b 15.150732
_cell_length_c 20.366718
_cell_angle_alpha 90.000000
_cell_angle_beta 90.000000
_cell_angle_gamma 90.000000
_cell_volume 7307.459287
_symmetry_space_group_name_H-M "C M M M"
_symmetry_group_IT_number 65
_symmetry_cell_setting 'orthorhombic'
loop_
_space_group_symop_operation_xyz
x,y,z
-x,-y,z
x,-y,-z
-x,y,-z
-x,-y,-z
x,y,-z
-x,y,z
x,-y,z
1/2+x,1/2+y,z
1/2-x,1/2-y,z
1/2+x,1/2-y,-z
1/2-x,1/2+y,-z
1/2-x,1/2-y,-z
1/2+x,1/2+y,-z
1/2-x,1/2+y,z
1/2+x,1/2-y,z
loop_
_atom_site_type_symbol
_atom_site_label
_atom_site_fract_x
_atom_site_fract_y
_atom_site_fract_z
Si Si1 0.632488 0.834894 0.423144
Si Si2 0.564337 0.901399 0.309847
Si Si3 0.434019 0.214812 0.809851
Si Si4 0.559558 0.500000 0.427739
Si Si5 0.432848 0.099387 0.072782
Si Si6 0.870384 0.146750 0.630543
Si Si7 0.255804 0.398078 0.425992
Si Si8 0.565071 0.600367 0.760261
O O1 0.616368 0.846394 0.500000
O O2 0.599441 0.904426 0.377964
O O3 0.612109 0.743032 0.392607
O O4 0.699572 0.842240 0.413208
O O5 0.500000 0.875762 0.326993
O O6 0.590046 0.831704 0.256575
O O7 0.567568 0.000000 0.279416
O O8 0.500000 0.193854 0.810242
O O9 0.407021 0.168741 0.874419
O O10 0.422524 0.320996 0.812729
O O11 0.500000 0.500000 0.385217
O O12 0.537380 0.500000 0.500000
O O13 0.597892 0.584394 0.419232
O O14 0.500000 0.104292 0.072267
O O15 0.413518 0.000000 0.091282
O O16 0.410093 0.124340 0.000000
O O17 0.803055 0.131741 0.625880
O O18 0.891622 0.120222 0.702264
O O19 0.278147 0.379666 0.500000
O O20 0.240024 0.500000 0.416658
O O21 0.500000 0.609012 0.736641
O O22 0.575745 0.500000 0.787657
#
# Coordination Sequence:
#
# PCOD8267774 Si02
#       8
#    16  16  16   8  16  16  16  16
#     4  11  23  35  48  66  88 116 154 199 246 296
#     4  10  20  33  48  65  88 122 160 194 234 285
#     4   9  16  28  45  64  90 123 156 191 230 275
#     4  11  22  32  46  68  90 112 142 194 260 308
#     4   8  13  22  40  68  97 123 154 190 225 264
#     4  12  20  33  50  65  86 113 150 198 249 298
#     4  10  20  35  52  66  83 110 148 195 249 303
#     4  10  19  31  47  66  90 121 157 195 238 288
#
# _framework density 16.421576000000002
#
# number of rings (size 3 to 8) (size 9 to 14) (size 15 to 20)
#    0.000    1.933    2.667    3.200    0.000    4.267 
#    0.000    0.667    0.000    0.400    0.000    2.800 
#    0.000    0.000    0.000    2.400    0.000   10.400 
#
# Total GULP energy -743431.331897 kJ/mol
# GULP energy per Si atom -12390.522198 kJ/mol
# Density = 1.638420 g / cm^3
# Si number density = 16.421576 Si / 1000 Ang^3
#
#
#
# Elastic Constant Matrix: (Units=GPa)
#
#
# Indices 1 2 3 4 5 6 
#
# 1 44.5489 17.3616 24.1718 0.0000 0.0000 0.0000
# 2 17.3616 113.8850 50.3653 0.0000 0.0000 0.0000
# 3 24.1718 50.3653 97.2888 0.0000 0.0000 0.0000
# 4 0.0000 0.0000 0.0000 24.4204 0.0000 0.0000
# 5 0.0000 0.0000 0.0000 0.0000 12.3742 0.0000
# 6 0.0000 0.0000 0.0000 0.0000 0.0000 7.6594
#
#
#
# Elastic Compliance Matrix: (Units=1/GPa)
#
#
# Indices 1 2 3 4 5 6 
#
# 1 0.026126 -0.001442 -0.005744 0.000000 0.000000 0.000000
# 2 -0.001442 0.011468 -0.005578 0.000000 0.000000 0.000000
# 3 -0.005744 -0.005578 0.014594 0.000000 0.000000 0.000000
# 4 0.000000 0.000000 0.000000 0.040949 0.000000 0.000000
# 5 0.000000 0.000000 0.000000 0.000000 0.080814 0.000000
# 6 0.000000 0.000000 0.000000 0.000000 0.000000 0.130558
#
#
# Mechanical properties :
#
#
# Convention : Reuss Voigt Hill
#
# Bulk Modulus (GPa) = 37.51320 48.83557 43.17438
# Shear Modulus (GPa) = 14.75253 19.81240 17.28246
#
# Velocity S-wave (km/s) = 3.00052 3.47722 3.24763
# Velocity P-wave (km/s) = 5.90742 6.77677 6.35697
#
# Compressibility (1/GPa) = 0.02665728
#
# Stress axis : x y z
#
# Youngs Moduli (GPa) = 38.27568 87.20175 68.52266
#
# Poissons Ratio (x) = 0.12578 0.39362
# Poissons Ratio (y) = 0.05521 0.38224
# Poissons Ratio (z) = 0.21987 0.48644
#
# Static dielectric constant tensor:
#      x y z
#    x 2.784740 0.000000 0.000000 
#    y 0.000000 3.384940 0.000000 
#    z 0.000000 0.000000 3.053320 
# 
# 
# High freq. dielectric constant tensor:
#      x y z
#    x 1.593780 0.000000 0.000000 
#    y 0.000000 1.651890 0.000000 
#    z 0.000000 0.000000 1.598550 
# 
# From -- ./inp_files/66132.got.cif
#   From: 2010.03.12/outbox.cif.g09.slc.cpg/sg65_34_cif.got.tgz:66132.got - 2010.04.10 20:52:16.
