data_PCOD8267622
_publ_section_title
;
Structure prediction by ZEFSAII (Michael W. Deem and Ramdas Pophale) SiO2 
 PCOD8267622
Probable space group: C M M M
;
_chemical_formula_sum "Si O2"
_cell_formula_units_Z 104
_cell_length_a 13.962970
_cell_length_b 25.724807
_cell_length_c 17.245623
_cell_angle_alpha 90.000000
_cell_angle_beta 90.000000
_cell_angle_gamma 90.000000
_cell_volume 6194.536525
_symmetry_space_group_name_H-M "C M M M"
_symmetry_group_IT_number 65
_symmetry_cell_setting 'orthorhombic'
loop_
_space_group_symop_operation_xyz
x,y,z
-x,-y,z
x,-y,-z
-x,y,-z
-x,-y,-z
x,y,-z
-x,y,z
x,-y,z
1/2+x,1/2+y,z
1/2-x,1/2-y,z
1/2+x,1/2-y,-z
1/2-x,1/2+y,-z
1/2-x,1/2-y,-z
1/2+x,1/2+y,-z
1/2-x,1/2+y,z
1/2+x,1/2-y,z
loop_
_atom_site_type_symbol
_atom_site_label
_atom_site_fract_x
_atom_site_fract_y
_atom_site_fract_z
Si Si1 0.386930 0.828612 0.211679
Si Si2 0.112360 0.218338 0.500000
Si Si3 0.614235 0.166453 0.500000
Si Si4 0.606987 0.645866 0.638797
Si Si5 0.394926 0.711578 0.792098
Si Si6 0.806714 0.393813 0.646374
Si Si7 0.251008 0.311547 0.914641
Si Si8 0.386230 0.000000 0.590196
O O1 0.500000 0.838159 0.211628
O O2 0.355413 0.768976 0.231514
O O3 0.339110 0.867551 0.273073
O O4 0.344025 0.836839 0.124870
O O5 0.159159 0.275587 0.500000
O O6 0.143450 0.186290 0.574797
O O7 0.000000 0.227814 0.500000
O O8 0.500000 0.164659 0.500000
O O9 0.650861 0.139072 0.576550
O O10 0.500000 0.622602 0.619653
O O11 0.601294 0.676711 0.717421
O O12 0.690194 0.602399 0.643271
O O13 0.500000 0.720603 0.827447
O O14 0.338280 0.678257 0.856118
O O15 0.846640 0.451501 0.638333
O O16 0.250000 0.250000 0.925372
O O17 0.264323 0.337290 0.000000
O O18 0.500000 0.000000 0.592615
O O19 0.351444 0.000000 0.500000
#
# Coordination Sequence:
#
# PCOD8267622 Si02
#       8
#    16   8   8  16  16  16  16   8
#     4  10  19  30  48  74 102 137 178 212 252 307
#     4   9  19  31  45  73 107 136 168 203 240 293
#     4  11  21  32  49  75 103 135 174 208 248 300
#     4  10  20  34  50  73 105 136 167 206 250 299
#     4   9  17  30  47  72 108 141 171 211 248 292
#     4  12  22  35  56  73  97 135 174 217 266 305
#     4   9  17  29  45  69 104 142 175 206 246 301
#     4  11  24  42  57  75 102 128 168 225 272 306
#
# _framework density 16.788986999999999
#
# number of rings (size 3 to 8) (size 9 to 14) (size 15 to 20)
#    0.000    1.923    2.308    2.769    0.000    5.538 
#    0.000    3.462    0.000    0.462    0.000    0.538 
#    0.000    1.846    0.000    3.385    0.000    0.154 
#
# Total GULP energy -644349.124348 kJ/mol
# GULP energy per Si atom -12391.329314 kJ/mol
# Density = 1.675077 g / cm^3
# Si number density = 16.788987 Si / 1000 Ang^3
#
#
#
# Elastic Constant Matrix: (Units=GPa)
#
#
# Indices 1 2 3 4 5 6 
#
# 1 101.0699 42.7072 40.0260 0.0000 0.0000 0.0000
# 2 42.7072 65.9694 27.5660 0.0000 0.0000 0.0000
# 3 40.0260 27.5660 110.9447 0.0000 0.0000 0.0000
# 4 0.0000 0.0000 0.0000 446.3250 0.0000 0.0000
# 5 0.0000 0.0000 0.0000 0.0000 23.3325 0.0000
# 6 0.0000 0.0000 0.0000 0.0000 0.0000 19.8695
#
#
#
# Elastic Compliance Matrix: (Units=1/GPa)
#
#
# Indices 1 2 3 4 5 6 
#
# 1 0.014604 -0.008093 -0.003258 0.000000 0.000000 0.000000
# 2 -0.008093 0.021399 -0.002397 0.000000 0.000000 0.000000
# 3 -0.003258 -0.002397 0.010785 0.000000 0.000000 0.000000
# 4 0.000000 0.000000 0.000000 0.002241 0.000000 0.000000
# 5 0.000000 0.000000 0.000000 0.000000 0.042859 0.000000
# 6 0.000000 0.000000 0.000000 0.000000 0.000000 0.050328
#
#
# Mechanical properties :
#
#
# Convention : Reuss Voigt Hill
#
# Bulk Modulus (GPa) = 51.83595 55.39803 53.61699
# Shear Modulus (GPa) = 28.38610 109.08441 68.73525
#
# Velocity S-wave (km/s) = 4.11634 8.06938 6.40543
# Velocity P-wave (km/s) = 7.31672 10.94934 9.31189
#
# Compressibility (1/GPa) = 0.01929163
#
# Stress axis : x y z
#
# Youngs Moduli (GPa) = 68.47415 46.73007 92.72543
#
# Poissons Ratio (x) = 0.37819 0.30209
# Poissons Ratio (y) = 0.55416 0.22229
# Poissons Ratio (z) = 0.22308 0.11203
#
# Static dielectric constant tensor:
#      x y z
#    x 3.692580 0.000000 0.000000 
#    y 0.000000 2.826550 0.000000 
#    z 0.000000 0.000000 4.011760 
# 
# 
# High freq. dielectric constant tensor:
#      x y z
#    x 1.668670 0.000000 0.000000 
#    y 0.000000 1.589280 0.000000 
#    z 0.000000 0.000000 1.646810 
# 
# From -- ./inp_files/53525.got.cif
#   From: 2010.03.12/outbox.cif.g09.slc.cpg/sg65_27_cif.got.tgz:53525.got - 2010.04.10 20:52:16.
