data_PCOD8267305
_publ_section_title
;
Structure prediction by ZEFSAII (Michael W. Deem and Ramdas Pophale) SiO2 
 PCOD8267305
Probable space group: C M M M
;
_chemical_formula_sum "Si O2"
_cell_formula_units_Z 80
_cell_length_a 8.826176
_cell_length_b 33.828955
_cell_length_c 18.461216
_cell_angle_alpha 90.000000
_cell_angle_beta 90.000000
_cell_angle_gamma 90.000000
_cell_volume 5512.155610
_symmetry_space_group_name_H-M "C M M M"
_symmetry_group_IT_number 65
_symmetry_cell_setting 'orthorhombic'
loop_
_space_group_symop_operation_xyz
x,y,z
-x,-y,z
x,-y,-z
-x,y,-z
-x,-y,-z
x,y,-z
-x,y,z
x,-y,z
1/2+x,1/2+y,z
1/2-x,1/2-y,z
1/2+x,1/2-y,-z
1/2-x,1/2+y,-z
1/2-x,1/2-y,-z
1/2+x,1/2+y,-z
1/2-x,1/2+y,z
1/2+x,1/2-y,z
loop_
_atom_site_type_symbol
_atom_site_label
_atom_site_fract_x
_atom_site_fract_y
_atom_site_fract_z
Si Si1 0.179696 0.658079 0.361401
Si Si2 0.678130 0.580303 0.584227
Si Si3 0.676733 0.707737 0.076366
Si Si4 0.321236 0.792749 0.500000
Si Si5 0.829132 0.500000 0.586010
Si Si6 0.820488 0.793373 0.766094
O O1 0.241543 0.613956 0.369145
O O2 0.235792 0.683934 0.429453
O O3 0.247833 0.676255 0.289142
O O4 0.000000 0.656975 0.356410
O O5 0.719888 0.586225 0.500000
O O6 0.500000 0.581695 0.597171
O O7 0.741072 0.538678 0.613854
O O8 0.500000 0.715006 0.077516
O O9 0.750000 0.750000 0.073709
O O10 0.721002 0.688343 0.153773
O O11 0.721412 0.684874 0.000000
O O12 0.500000 0.788258 0.500000
O O13 0.250000 0.750000 0.500000
O O14 0.829928 0.500000 0.500000
O O15 0.000000 0.500000 0.616740
O O16 0.750000 0.750000 0.755028
O O17 0.000000 0.790360 0.753169
#
# Coordination Sequence:
#
# PCOD8267305 Si02
#       6
#    16  16  16   8   8  16
#     4  11  21  33  45  59  81 111 145 180 218 255
#     4  10  19  31  47  66  85 107 137 175 214 255
#     4   8  14  25  41  59  79 103 132 168 209 254
#     4  10  22  34  44  55  72 103 144 184 217 250
#     4   9  17  29  47  67  87 109 132 165 208 257
#     4  10  19  30  43  61  83 109 143 179 217 256
#
# _framework density 14.513377
#
# number of rings (size 3 to 8) (size 9 to 14) (size 15 to 20)
#    0.000    2.300    1.000    2.700    0.000    6.000 
#    0.000    0.000    0.000    0.000    0.000    0.000 
#    0.000    0.000    0.000    0.900    0.000   18.600 
#
# Total GULP energy -495631.085428 kJ/mol
# GULP energy per Si atom -12390.777136 kJ/mol
# Density = 1.448034 g / cm^3
# Si number density = 14.513377 Si / 1000 Ang^3
#
#
#
# Elastic Constant Matrix: (Units=GPa)
#
#
# Indices 1 2 3 4 5 6 
#
# 1 61.2685 37.5958 41.3990 0.0000 0.0000 0.0000
# 2 37.5958 101.7702 55.7549 0.0000 0.0000 0.0000
# 3 41.3990 55.7549 122.1161 0.0000 0.0000 0.0000
# 4 0.0000 0.0000 0.0000 4.8267 0.0000 0.0000
# 5 0.0000 0.0000 0.0000 0.0000 14.9072 0.0000
# 6 0.0000 0.0000 0.0000 0.0000 0.0000 26.5434
#
#
#
# Elastic Compliance Matrix: (Units=1/GPa)
#
#
# Indices 1 2 3 4 5 6 
#
# 1 0.023444 -0.005743 -0.005326 0.000000 0.000000 0.000000
# 2 -0.005743 0.014511 -0.004678 0.000000 0.000000 0.000000
# 3 -0.005326 -0.004678 0.012130 0.000000 0.000000 0.000000
# 4 0.000000 0.000000 0.000000 0.207179 0.000000 0.000000
# 5 0.000000 0.000000 0.000000 0.000000 0.067082 0.000000
# 6 0.000000 0.000000 0.000000 0.000000 0.000000 0.037674
#
#
# Mechanical properties :
#
#
# Convention : Reuss Voigt Hill
#
# Bulk Modulus (GPa) = 53.78880 61.62823 57.70852
# Shear Modulus (GPa) = 12.50902 19.28248 15.89575
#
# Velocity S-wave (km/s) = 2.93899 3.64895 3.31304
# Velocity P-wave (km/s) = 6.97559 7.76585 7.38130
#
# Compressibility (1/GPa) = 0.01859123
#
# Stress axis : x y z
#
# Youngs Moduli (GPa) = 42.65434 68.91528 82.43764
#
# Poissons Ratio (x) = 0.39578 0.43905
# Poissons Ratio (y) = 0.24496 0.38566
# Poissons Ratio (z) = 0.22717 0.32240
#
# Static dielectric constant tensor:
#      x y z
#    x 2.888070 0.000000 0.000000 
#    y 0.000000 2.762670 0.000000 
#    z 0.000000 0.000000 3.249340 
# 
# 
# High freq. dielectric constant tensor:
#      x y z
#    x 1.571670 0.000000 0.000000 
#    y 0.000000 1.523200 0.000000 
#    z 0.000000 0.000000 1.543060 
# 
# From -- ./inp_files/50224.got.cif
#   From: 2010.03.12/outbox.cif.g09.slc.cpg/sg65_26_cif.got.tgz:50224.got - 2010.04.10 20:52:16.
