data_PCOD8267787
_publ_section_title
;
Structure prediction by ZEFSAII (Michael W. Deem and Ramdas Pophale) SiO2 
 PCOD8267787
Probable space group: C M M M
;
_chemical_formula_sum "Si O2"
_cell_formula_units_Z 88
_cell_length_a 27.204141
_cell_length_b 9.243557
_cell_length_c 21.141836
_cell_angle_alpha 90.000000
_cell_angle_beta 90.000000
_cell_angle_gamma 90.000000
_cell_volume 5316.390097
_symmetry_space_group_name_H-M "C M M M"
_symmetry_group_IT_number 65
_symmetry_cell_setting 'orthorhombic'
loop_
_space_group_symop_operation_xyz
x,y,z
-x,-y,z
x,-y,-z
-x,y,-z
-x,-y,-z
x,y,-z
-x,y,z
x,-y,z
1/2+x,1/2+y,z
1/2-x,1/2-y,z
1/2+x,1/2-y,-z
1/2-x,1/2+y,-z
1/2-x,1/2-y,-z
1/2+x,1/2+y,-z
1/2-x,1/2+y,z
1/2+x,1/2-y,z
loop_
_atom_site_type_symbol
_atom_site_label
_atom_site_fract_x
_atom_site_fract_y
_atom_site_fract_z
Si Si1 0.700260 0.668217 0.429079
Si Si2 0.138838 0.168032 0.688899
Si Si3 0.198416 0.171024 0.186607
Si Si4 0.387426 0.168705 0.875969
Si Si5 0.055479 0.328363 0.000000
Si Si6 0.555175 0.167517 0.749447
O O1 0.681316 0.703512 0.500000
O O2 0.711848 0.500000 0.420556
O O3 0.750000 0.750000 0.413517
O O4 0.659636 0.718841 0.378820
O O5 0.177985 0.206897 0.743527
O O6 0.087970 0.251021 0.698007
O O7 0.126433 0.000000 0.690003
O O8 0.250000 0.250000 0.178350
O O9 0.161400 0.236120 0.134325
O O10 0.204519 0.000000 0.175601
O O11 0.414505 0.224766 0.938851
O O12 0.425588 0.196689 0.819755
O O13 0.372490 0.000000 0.880475
O O14 0.051479 0.500000 0.000000
O O15 0.000000 0.263328 0.000000
O O16 0.500000 0.228073 0.745158
O O17 0.557170 0.000000 0.732428
#
# Coordination Sequence:
#
# PCOD8267787 Si02
#       6
#    16  16  16  16   8  16
#     4   9  17  29  45  66  92 119 147 180 219 264
#     4   9  18  30  45  67  92 118 148 183 222 264
#     4  10  19  31  47  67  92 120 151 185 221 262
#     4   9  17  30  48  70  94 118 146 181 222 266
#     4   9  16  28  50  75  94 115 146 183 222 267
#     4   9  17  29  46  68  92 117 147 184 223 262
#
# _framework density 16.552584
#
# number of rings (size 3 to 8) (size 9 to 14) (size 15 to 20)
#    0.000    2.818    0.000    1.636    0.000    4.000 
#    0.000    0.909    0.000    2.727    0.000    3.818 
#    0.000    0.000    0.000    0.000    0.000    0.000 
#
# Total GULP energy -545602.975585 kJ/mol
# GULP energy per Si atom -12400.067627 kJ/mol
# Density = 1.651491 g / cm^3
# Si number density = 16.552584 Si / 1000 Ang^3
#
#
#
# Elastic Constant Matrix: (Units=GPa)
#
#
# Indices 1 2 3 4 5 6 
#
# 1 160.3353 61.2082 78.3738 0.0000 0.0000 0.0000
# 2 61.2082 53.0057 41.2044 0.0000 0.0000 0.0000
# 3 78.3738 41.2044 116.7802 0.0000 0.0000 0.0000
# 4 0.0000 0.0000 0.0000 20.0122 0.0000 0.0000
# 5 0.0000 0.0000 0.0000 0.0000 22.8298 0.0000
# 6 0.0000 0.0000 0.0000 0.0000 0.0000 29.5826
#
#
#
# Elastic Compliance Matrix: (Units=1/GPa)
#
#
# Indices 1 2 3 4 5 6 
#
# 1 0.012744 -0.011117 -0.004631 0.000000 0.000000 0.000000
# 2 -0.011117 0.035693 -0.005133 0.000000 0.000000 0.000000
# 3 -0.004631 -0.005133 0.013482 0.000000 0.000000 0.000000
# 4 0.000000 0.000000 0.000000 0.049969 0.000000 0.000000
# 5 0.000000 0.000000 0.000000 0.000000 0.043802 0.000000
# 6 0.000000 0.000000 0.000000 0.000000 0.000000 0.033804
#
#
# Mechanical properties :
#
#
# Convention : Reuss Voigt Hill
#
# Bulk Modulus (GPa) = 49.60697 76.85489 63.23093
# Shear Modulus (GPa) = 21.01055 24.44058 22.72557
#
# Velocity S-wave (km/s) = 3.56662 3.84675 3.70933
# Velocity P-wave (km/s) = 6.85532 8.14012 7.52519
#
# Compressibility (1/GPa) = 0.02015846
#
# Stress axis : x y z
#
# Youngs Moduli (GPa) = 78.46686 28.01639 74.17333
#
# Poissons Ratio (x) = 0.31145 0.34346
# Poissons Ratio (y) = 0.87230 0.38075
# Poissons Ratio (z) = 0.36334 0.14381
#
# Static dielectric constant tensor:
#      x y z
#    x 3.157720 0.000000 0.000000 
#    y 0.000000 3.031290 0.000000 
#    z 0.000000 0.000000 3.192920 
# 
# 
# High freq. dielectric constant tensor:
#      x y z
#    x 1.634550 0.000000 0.000000 
#    y 0.000000 1.628190 0.000000 
#    z 0.000000 0.000000 1.630030 
# 
# From -- ./inp_files/65171.got.cif
#   From: 2010.03.12/outbox.cif.g09.slc.cpg/sg65_33_cif.got.tgz:65171.got - 2010.04.10 20:52:16.
