data_PCOD8267832
_publ_section_title
;
Structure prediction by ZEFSAII (Michael W. Deem and Ramdas Pophale) SiO2 
 PCOD8267832
Probable space group: C M M M
;
_chemical_formula_sum "Si O2"
_cell_formula_units_Z 128
_cell_length_a 18.435840
_cell_length_b 20.184776
_cell_length_c 19.585557
_cell_angle_alpha 90.000000
_cell_angle_beta 90.000000
_cell_angle_gamma 90.000000
_cell_volume 7288.242118
_symmetry_space_group_name_H-M "C M M M"
_symmetry_group_IT_number 65
_symmetry_cell_setting 'orthorhombic'
loop_
_space_group_symop_operation_xyz
x,y,z
-x,-y,z
x,-y,-z
-x,y,-z
-x,-y,-z
x,y,-z
-x,y,z
x,-y,z
1/2+x,1/2+y,z
1/2-x,1/2-y,z
1/2+x,1/2-y,-z
1/2-x,1/2+y,-z
1/2-x,1/2-y,-z
1/2+x,1/2+y,-z
1/2-x,1/2+y,z
1/2+x,1/2-y,z
loop_
_atom_site_type_symbol
_atom_site_label
_atom_site_fract_x
_atom_site_fract_y
_atom_site_fract_z
Si Si1 0.585521 0.185654 0.816625
Si Si2 0.722151 0.427140 0.663210
Si Si3 0.419577 0.407971 0.738222
Si Si4 0.919848 0.766406 0.688944
Si Si5 0.300148 0.075802 0.197405
Si Si6 0.082908 0.202974 0.076521
Si Si7 0.846731 0.072618 0.877584
Si Si8 0.191665 0.193660 0.424578
O O1 0.500000 0.170725 0.826687
O O2 0.603451 0.206743 0.738601
O O3 0.631970 0.119425 0.827453
O O4 0.611939 0.241527 0.870686
O O5 0.747829 0.500000 0.637446
O O6 0.637292 0.434161 0.682591
O O7 0.769790 0.403643 0.727962
O O8 0.729877 0.372778 0.603997
O O9 0.500000 0.434257 0.719129
O O10 0.418586 0.328631 0.739899
O O11 0.397921 0.433764 0.811934
O O12 0.869711 0.777212 0.624154
O O13 0.000000 0.753941 0.659225
O O14 0.236218 0.086064 0.143123
O O15 0.326570 0.000000 0.198996
O O16 0.127933 0.134348 0.077067
O O17 0.000000 0.185566 0.094978
O O18 0.089592 0.232220 0.000000
O O19 0.852158 0.000000 0.914755
O O20 0.159630 0.177979 0.500000
O O21 0.250000 0.250000 0.431277
#
# Coordination Sequence:
#
# PCOD8267832 Si02
#       8
#    16  16  16  16  16  16  16  16
#     4  10  19  34  56  77  98 129 170 215 262 310
#     4   9  18  31  47  70  98 128 163 203 247 291
#     4   9  15  26  44  68  97 125 158 198 234 277
#     4   9  17  30  49  71  95 126 166 206 245 291
#     4   9  19  34  52  77 103 127 164 213 260 307
#     4  10  21  36  52  75 106 135 170 213 253 298
#     4  10  19  31  47  70 102 136 167 200 245 297
#     4  10  20  32  47  70  99 130 165 201 243 299
#
# _framework density 17.562533999999999
#
# number of rings (size 3 to 8) (size 9 to 14) (size 15 to 20)
#    0.000    2.500    1.250    2.250    0.000    3.250 
#    0.000    1.875    0.000    1.125    0.000    5.250 
#    0.000    0.000    0.000   23.250    0.000    0.000 
#
# Total GULP energy -793158.070237 kJ/mol
# GULP energy per Si atom -12393.094847 kJ/mol
# Density = 1.752256 g / cm^3
# Si number density = 17.562534 Si / 1000 Ang^3
#
#
#
# Elastic Constant Matrix: (Units=GPa)
#
#
# Indices 1 2 3 4 5 6 
#
# 1 73.8936 51.2170 30.1633 0.0000 0.0000 0.0000
# 2 51.2170 99.6179 38.4789 0.0000 0.0000 0.0000
# 3 30.1633 38.4789 78.6488 0.0000 0.0000 0.0000
# 4 0.0000 0.0000 0.0000 12.9362 0.0000 0.0000
# 5 0.0000 0.0000 0.0000 0.0000 17.6237 0.0000
# 6 0.0000 0.0000 0.0000 0.0000 0.0000 23.3451
#
#
#
# Elastic Compliance Matrix: (Units=1/GPa)
#
#
# Indices 1 2 3 4 5 6 
#
# 1 0.021800 -0.009838 -0.003548 0.000000 0.000000 0.000000
# 2 -0.009838 0.016817 -0.004455 0.000000 0.000000 0.000000
# 3 -0.003548 -0.004455 0.016255 0.000000 0.000000 0.000000
# 4 0.000000 0.000000 0.000000 0.077303 0.000000 0.000000
# 5 0.000000 0.000000 0.000000 0.000000 0.056742 0.000000
# 6 0.000000 0.000000 0.000000 0.000000 0.000000 0.042836
#
#
# Mechanical properties :
#
#
# Convention : Reuss Voigt Hill
#
# Bulk Modulus (GPa) = 52.10629 54.65318 53.37973
# Shear Modulus (GPa) = 18.25960 19.60108 18.93034
#
# Velocity S-wave (km/s) = 3.22792 3.34439 3.28667
# Velocity P-wave (km/s) = 6.60500 6.78970 6.69799
#
# Compressibility (1/GPa) = 0.01919154
#
# Stress axis : x y z
#
# Youngs Moduli (GPa) = 45.87200 59.46376 61.52042
#
# Poissons Ratio (x) = 0.58499 0.21825
# Poissons Ratio (y) = 0.45128 0.27406
# Poissons Ratio (z) = 0.16273 0.26489
#
# Static dielectric constant tensor:
#      x y z
#    x 3.155520 0.000000 0.000000 
#    y 0.000000 3.319890 0.000000 
#    z 0.000000 0.000000 3.136360 
# 
# 
# High freq. dielectric constant tensor:
#      x y z
#    x 1.665610 0.000000 0.000000 
#    y 0.000000 1.682100 0.000000 
#    z 0.000000 0.000000 1.654940 
# 
# From -- ./inp_files/64143.got.cif
#   From: 2010.03.12/outbox.cif.g09.slc.cpg/sg65_33_cif.got.tgz:64143.got - 2010.04.10 20:52:16.
