data_PCOD8267158
_publ_section_title
;
Structure prediction by ZEFSAII (Michael W. Deem and Ramdas Pophale) SiO2 
 PCOD8267158
Probable space group: C M M M
;
_chemical_formula_sum "Si O2"
_cell_formula_units_Z 64
_cell_length_a 20.703224
_cell_length_b 13.596327
_cell_length_c 13.417396
_cell_angle_alpha 90.000000
_cell_angle_beta 90.000000
_cell_angle_gamma 90.000000
_cell_volume 3776.833328
_symmetry_space_group_name_H-M "C M M M"
_symmetry_group_IT_number 65
_symmetry_cell_setting 'orthorhombic'
loop_
_space_group_symop_operation_xyz
x,y,z
-x,-y,z
x,-y,-z
-x,y,-z
-x,-y,-z
x,y,-z
-x,y,z
x,-y,z
1/2+x,1/2+y,z
1/2-x,1/2-y,z
1/2+x,1/2-y,-z
1/2-x,1/2+y,-z
1/2-x,1/2-y,-z
1/2+x,1/2+y,-z
1/2-x,1/2+y,z
1/2+x,1/2-y,z
loop_
_atom_site_type_symbol
_atom_site_label
_atom_site_fract_x
_atom_site_fract_y
_atom_site_fract_z
Si Si1 0.806326 0.883967 0.390665
Si Si2 0.427427 0.384921 0.732356
Si Si3 0.349032 0.718929 0.884949
Si Si4 0.769914 0.614578 0.800430
O O1 0.793086 0.837011 0.500000
O O2 0.876592 0.848703 0.351280
O O3 0.749825 0.855077 0.312939
O O4 0.808313 0.000000 0.400079
O O5 0.500000 0.361189 0.696008
O O6 0.418533 0.500000 0.755048
O O7 0.412851 0.326140 0.834272
O O8 0.289738 0.642492 0.872404
O O9 0.332290 0.823208 0.832518
O O10 0.363926 0.736973 0.000000
O O11 0.786134 0.500000 0.810865
#
# Coordination Sequence:
#
# PCOD8267158 Si02
#       4
#    16  16  16  16
#     4   8  14  26  45  67  90 116 143 173 214 262
#     4   9  18  31  45  63  88 116 147 183 220 259
#     4  10  19  29  43  64  88 115 148 184 220 259
#     4   9  17  29  44  64  90 116 143 176 216 262
#
# _framework density 16.945412999999999
#
# number of rings (size 3 to 8) (size 9 to 14) (size 15 to 20)
#    0.000    3.000    0.000    3.750    0.000    4.500 
#    0.000   13.750    0.000    0.750    0.000    1.750 
#    0.000    0.000    0.000   26.500    0.000    2.250 
#
# Total GULP energy -396601.697187 kJ/mol
# GULP energy per Si atom -12393.803037 kJ/mol
# Density = 1.690684 g / cm^3
# Si number density = 16.945413 Si / 1000 Ang^3
#
#
#
# Elastic Constant Matrix: (Units=GPa)
#
#
# Indices 1 2 3 4 5 6 
#
# 1 33.5216 14.6334 21.8369 0.0000 0.0000 0.0000
# 2 14.6334 70.2539 25.3940 0.0000 0.0000 0.0000
# 3 21.8369 25.3940 139.2610 0.0000 0.0000 0.0000
# 4 0.0000 0.0000 0.0000 17.1473 0.0000 0.0000
# 5 0.0000 0.0000 0.0000 0.0000 12.5733 0.0000
# 6 0.0000 0.0000 0.0000 0.0000 0.0000 24.0522
#
#
#
# Elastic Compliance Matrix: (Units=1/GPa)
#
#
# Indices 1 2 3 4 5 6 
#
# 1 0.035250 -0.005722 -0.004484 0.000000 0.000000 0.000000
# 2 -0.005722 0.016167 -0.002051 0.000000 0.000000 0.000000
# 3 -0.004484 -0.002051 0.008258 0.000000 0.000000 0.000000
# 4 0.000000 0.000000 0.000000 0.058318 0.000000 0.000000
# 5 0.000000 0.000000 0.000000 0.000000 0.079533 0.000000
# 6 0.000000 0.000000 0.000000 0.000000 0.000000 0.041576
#
#
# Mechanical properties :
#
#
# Convention : Reuss Voigt Hill
#
# Bulk Modulus (GPa) = 28.43966 40.75168 34.59567
# Shear Modulus (GPa) = 18.15957 22.83271 20.49614
#
# Velocity S-wave (km/s) = 3.27716 3.67471 3.48162
# Velocity P-wave (km/s) = 5.58025 6.48889 6.05165
#
# Compressibility (1/GPa) = 0.03516217
#
# Stress axis : x y z
#
# Youngs Moduli (GPa) = 28.36863 61.85382 121.09658
#
# Poissons Ratio (x) = 0.35390 0.54301
# Poissons Ratio (y) = 0.16231 0.24836
# Poissons Ratio (z) = 0.12721 0.12686
#
# Static dielectric constant tensor:
#      x y z
#    x 2.929600 0.000000 0.000000 
#    y 0.000000 3.069500 0.000000 
#    z 0.000000 0.000000 3.515140 
# 
# 
# High freq. dielectric constant tensor:
#      x y z
#    x 1.616310 0.000000 0.000000 
#    y 0.000000 1.638760 0.000000 
#    z 0.000000 0.000000 1.657150 
# 
# From -- ./inp_files/24135.got.cif
#   From: 2010.03.12/outbox.cif.g09.slc.cpg/sg65_13_cif.got.tgz:24135.got - 2010.04.10 20:52:16.
