data_PCOD8267741
_publ_section_title
;
Structure prediction by ZEFSAII (Michael W. Deem and Ramdas Pophale) SiO2 
 PCOD8267741
Probable space group: C M M M
;
_chemical_formula_sum "Si O2"
_cell_formula_units_Z 120
_cell_length_a 22.711791
_cell_length_b 22.104528
_cell_length_c 14.764308
_cell_angle_alpha 90.000000
_cell_angle_beta 90.000000
_cell_angle_gamma 90.000000
_cell_volume 7412.176040
_symmetry_space_group_name_H-M "C M M M"
_symmetry_group_IT_number 65
_symmetry_cell_setting 'orthorhombic'
loop_
_space_group_symop_operation_xyz
x,y,z
-x,-y,z
x,-y,-z
-x,y,-z
-x,-y,-z
x,y,-z
-x,y,z
x,-y,z
1/2+x,1/2+y,z
1/2-x,1/2-y,z
1/2+x,1/2-y,-z
1/2-x,1/2+y,-z
1/2-x,1/2-y,-z
1/2+x,1/2+y,-z
1/2-x,1/2+y,z
1/2+x,1/2-y,z
loop_
_atom_site_type_symbol
_atom_site_label
_atom_site_fract_x
_atom_site_fract_y
_atom_site_fract_z
Si Si1 0.156372 0.273388 0.750524
Si Si2 0.613774 0.138518 0.396308
Si Si3 0.000000 0.567967 0.607859
Si Si4 0.746461 0.430973 0.896660
Si Si5 0.232247 0.431043 0.396677
Si Si6 0.879430 0.564857 0.107072
Si Si7 0.567360 0.188223 0.106210
Si Si8 0.224235 0.844489 0.749656
O O1 0.124977 0.301305 0.662282
O O2 0.111942 0.271097 0.835942
O O3 0.173213 0.204032 0.730479
O O4 0.214498 0.311489 0.773306
O O5 0.606184 0.159977 0.500000
O O6 0.556549 0.104816 0.357658
O O7 0.664951 0.089254 0.387038
O O8 0.000000 0.500000 0.648227
O O9 0.000000 0.564146 0.500000
O O10 0.724411 0.500000 0.887680
O O11 0.812992 0.425014 0.857433
O O12 0.706897 0.386470 0.835505
O O13 0.741887 0.408928 0.000000
O O14 0.253632 0.425859 0.500000
O O15 0.237498 0.500000 0.361650
O O16 0.273159 0.386800 0.338592
O O17 0.903663 0.500000 0.143511
O O18 0.922344 0.618590 0.137806
O O19 0.875126 0.561772 0.000000
O O20 0.500000 0.205815 0.127027
O O21 0.581806 0.196641 0.000000
#
# Coordination Sequence:
#
# PCOD8267741 Si02
#       8
#    16  16   8  16  16  16  16  16
#     4  10  21  32  45  64  90 124 164 198 232 269
#     4   9  18  31  46  66  94 127 160 195 232 267
#     4   9  16  28  48  70  91 121 162 201 233 261
#     4   9  16  27  45  67  91 117 145 187 240 282
#     4   9  17  30  48  69  95 124 152 188 235 282
#     4   8  14  26  43  62  85 115 152 190 228 265
#     4  10  20  33  47  62  88 125 161 197 231 269
#     4  10  19  31  46  66  90 122 159 198 229 276
#
# _framework density 16.189578000000001
#
# number of rings (size 3 to 8) (size 9 to 14) (size 15 to 20)
#    0.000    2.733    1.333    1.600    0.933    2.933 
#    0.000    6.000    0.000    0.000    0.000    0.000 
#    0.000    2.133    0.000    8.800    0.000    0.000 
#
# Total GULP energy -743785.907460 kJ/mol
# GULP energy per Si atom -12396.431791 kJ/mol
# Density = 1.615273 g / cm^3
# Si number density = 16.189578 Si / 1000 Ang^3
#
#
#
# Elastic Constant Matrix: (Units=GPa)
#
#
# Indices 1 2 3 4 5 6 
#
# 1 62.9164 55.5560 37.3113 0.0000 0.0000 0.0000
# 2 55.5560 114.6193 58.6833 0.0000 0.0000 0.0000
# 3 37.3113 58.6833 76.2365 0.0000 0.0000 0.0000
# 4 0.0000 0.0000 0.0000 26.1103 0.0000 0.0000
# 5 0.0000 0.0000 0.0000 0.0000 19.7577 0.0000
# 6 0.0000 0.0000 0.0000 0.0000 0.0000 24.6207
#
#
#
# Elastic Compliance Matrix: (Units=1/GPa)
#
#
# Indices 1 2 3 4 5 6 
#
# 1 0.029166 -0.011270 -0.005599 0.000000 0.000000 0.000000
# 2 -0.011270 0.018754 -0.008920 0.000000 0.000000 0.000000
# 3 -0.005599 -0.008920 0.022724 0.000000 0.000000 0.000000
# 4 0.000000 0.000000 0.000000 0.038299 0.000000 0.000000
# 5 0.000000 0.000000 0.000000 0.000000 0.050613 0.000000
# 6 0.000000 0.000000 0.000000 0.000000 0.000000 0.040616
#
#
# Mechanical properties :
#
#
# Convention : Reuss Voigt Hill
#
# Bulk Modulus (GPa) = 52.45210 61.87482 57.16346
# Shear Modulus (GPa) = 19.37177 20.91252 20.14214
#
# Velocity S-wave (km/s) = 3.46288 3.59796 3.53107
# Velocity P-wave (km/s) = 6.96116 7.45401 7.21180
#
# Compressibility (1/GPa) = 0.01906501
#
# Stress axis : x y z
#
# Youngs Moduli (GPa) = 34.28604 53.32105 44.00662
#
# Poissons Ratio (x) = 0.60094 0.24640
# Poissons Ratio (y) = 0.38641 0.39255
# Poissons Ratio (z) = 0.19197 0.47564
#
# Static dielectric constant tensor:
#      x y z
#    x 2.754340 0.000000 0.000000 
#    y 0.000000 3.084520 0.000000 
#    z 0.000000 0.000000 3.088750 
# 
# 
# High freq. dielectric constant tensor:
#      x y z
#    x 1.573940 0.000000 0.000000 
#    y 0.000000 1.610590 0.000000 
#    z 0.000000 0.000000 1.628430 
# 
# From -- ./inp_files/46093.got.cif
#   From: 2010.03.12/outbox.cif.g09.slc.cpg/sg65_24_cif.got.tgz:46093.got - 2010.04.10 20:52:16.
