data_PCOD8267942
_publ_section_title
;
Structure prediction by ZEFSAII (Michael W. Deem and Ramdas Pophale) SiO2 
 PCOD8267942
Probable space group: C M M M
;
_chemical_formula_sum "Si O2"
_cell_formula_units_Z 88
_cell_length_a 14.426005
_cell_length_b 17.463772
_cell_length_c 17.815097
_cell_angle_alpha 90.000000
_cell_angle_beta 90.000000
_cell_angle_gamma 90.000000
_cell_volume 4488.201251
_symmetry_space_group_name_H-M "C M M M"
_symmetry_group_IT_number 65
_symmetry_cell_setting 'orthorhombic'
loop_
_space_group_symop_operation_xyz
x,y,z
-x,-y,z
x,-y,-z
-x,y,-z
-x,-y,-z
x,y,-z
-x,y,z
x,-y,z
1/2+x,1/2+y,z
1/2-x,1/2-y,z
1/2+x,1/2-y,-z
1/2-x,1/2+y,-z
1/2-x,1/2-y,-z
1/2+x,1/2+y,-z
1/2-x,1/2+y,z
1/2+x,1/2-y,z
loop_
_atom_site_type_symbol
_atom_site_label
_atom_site_fract_x
_atom_site_fract_y
_atom_site_fract_z
Si Si1 0.223208 0.000000 0.414101
Si Si2 0.207663 0.090080 0.851838
Si Si3 0.893210 0.852893 0.416437
Si Si4 0.604237 0.866607 0.803529
Si Si5 0.606351 0.700306 0.258349
Si Si6 0.604195 0.590907 0.000000
Si Si7 0.601149 0.000000 0.313992
O O1 0.164238 0.926538 0.392032
O O2 0.248008 0.000000 0.500000
O O3 0.321962 0.000000 0.376089
O O4 0.317451 0.107700 0.863315
O O5 0.169644 0.135174 0.779512
O O6 0.190719 0.000000 0.838614
O O7 0.156215 0.120900 0.926020
O O8 0.864291 0.821180 0.500000
O O9 0.875373 0.793010 0.348604
O O10 0.000000 0.877501 0.419165
O O11 0.500000 0.869711 0.838731
O O12 0.630237 0.782277 0.775633
O O13 0.611813 0.923897 0.734527
O O14 0.500000 0.677651 0.242728
O O15 0.603609 0.500000 0.000000
O O16 0.500000 0.624053 0.000000
O O17 0.500000 0.000000 0.352815
#
# Coordination Sequence:
#
# PCOD8267942 Si02
#       7
#     8  16  16  16  16   8   8
#     4  10  19  31  48  73 106 142 183 232 283 336
#     4  11  21  36  61  87 114 153 188 227 280 340
#     4   9  18  32  51  79 115 150 182 225 285 346
#     4  10  21  38  57  81 111 146 192 240 279 326
#     4  10  21  35  56  86 116 147 189 237 285 342
#     4   9  20  38  58  87 125 154 183 224 276 340
#     4  10  20  36  57  73  97 144 194 239 281 322
#
# _framework density 19.606963
#
# number of rings (size 3 to 8) (size 9 to 14) (size 15 to 20)
#    0.000    2.091    0.909    2.455    1.273    2.364 
#    0.000    3.182    0.000   11.455    0.000    0.000 
#    0.000    0.000    0.000    0.000    0.000    0.000 
#
# Total GULP energy -545387.029958 kJ/mol
# GULP energy per Si atom -12395.159772 kJ/mol
# Density = 1.956234 g / cm^3
# Si number density = 19.606963 Si / 1000 Ang^3
#
#
#
# Elastic Constant Matrix: (Units=GPa)
#
#
# Indices 1 2 3 4 5 6 
#
# 1 118.1517 29.7561 47.3637 0.0000 0.0000 0.0000
# 2 29.7561 81.1762 24.7691 0.0000 0.0000 0.0000
# 3 47.3637 24.7691 89.3174 0.0000 0.0000 0.0000
# 4 0.0000 0.0000 0.0000 14.9215 0.0000 0.0000
# 5 0.0000 0.0000 0.0000 0.0000 37.1949 0.0000
# 6 0.0000 0.0000 0.0000 0.0000 0.0000 29.2472
#
#
#
# Elastic Compliance Matrix: (Units=1/GPa)
#
#
# Indices 1 2 3 4 5 6 
#
# 1 0.011196 -0.002504 -0.005243 0.000000 0.000000 0.000000
# 2 -0.002504 0.014018 -0.002559 0.000000 0.000000 0.000000
# 3 -0.005243 -0.002559 0.014686 0.000000 0.000000 0.000000
# 4 0.000000 0.000000 0.000000 0.067018 0.000000 0.000000
# 5 0.000000 0.000000 0.000000 0.000000 0.026885 0.000000
# 6 0.000000 0.000000 0.000000 0.000000 0.000000 0.034191
#
#
# Mechanical properties :
#
#
# Convention : Reuss Voigt Hill
#
# Bulk Modulus (GPa) = 51.84815 54.71369 53.28092
# Shear Modulus (GPa) = 25.63636 28.72315 27.17975
#
# Velocity S-wave (km/s) = 3.61988 3.83161 3.72725
# Velocity P-wave (km/s) = 6.63118 6.89499 6.76437
#
# Compressibility (1/GPa) = 0.01928709
#
# Stress axis : x y z
#
# Youngs Moduli (GPa) = 89.31752 71.33780 68.09286
#
# Poissons Ratio (x) = 0.17866 0.35698
# Poissons Ratio (y) = 0.22368 0.17427
# Poissons Ratio (z) = 0.46825 0.18258
#
# Static dielectric constant tensor:
#      x y z
#    x 3.937170 0.000000 0.000000 
#    y 0.000000 3.475800 0.000000 
#    z 0.000000 0.000000 3.511790 
# 
# 
# High freq. dielectric constant tensor:
#      x y z
#    x 1.782120 0.000000 0.000000 
#    y 0.000000 1.750820 0.000000 
#    z 0.000000 0.000000 1.745960 
# 
# From -- ./inp_files/53073.got.cif
#   From: 2010.03.12/outbox.cif.g09.slc.cpg/sg65_27_cif.got.tgz:53073.got - 2010.04.10 20:52:16.
