data_PCOD8267472
_publ_section_title
;
Structure prediction by ZEFSAII (Michael W. Deem and Ramdas Pophale) SiO2 
 PCOD8267472
Probable space group: C M M M
;
_chemical_formula_sum "Si O2"
_cell_formula_units_Z 96
_cell_length_a 18.273463
_cell_length_b 9.210090
_cell_length_c 31.360339
_cell_angle_alpha 90.000000
_cell_angle_beta 90.000000
_cell_angle_gamma 90.000000
_cell_volume 5277.952544
_symmetry_space_group_name_H-M "C M M M"
_symmetry_group_IT_number 65
_symmetry_cell_setting 'orthorhombic'
loop_
_space_group_symop_operation_xyz
x,y,z
-x,-y,z
x,-y,-z
-x,y,-z
-x,-y,-z
x,y,-z
-x,y,z
x,-y,z
1/2+x,1/2+y,z
1/2-x,1/2-y,z
1/2+x,1/2-y,-z
1/2-x,1/2+y,-z
1/2-x,1/2-y,-z
1/2+x,1/2+y,-z
1/2-x,1/2+y,z
1/2+x,1/2-y,z
loop_
_atom_site_type_symbol
_atom_site_label
_atom_site_fract_x
_atom_site_fract_y
_atom_site_fract_z
Si Si1 0.084427 0.331203 0.417477
Si Si2 0.581848 0.172159 0.746863
Si Si3 0.913149 0.341013 0.000000
Si Si4 0.417912 0.826304 0.091407
Si Si5 0.587058 0.663873 0.500000
Si Si6 0.826491 0.672327 0.828348
Si Si7 0.326865 0.171535 0.666083
O O1 0.093549 0.500000 0.427925
O O2 0.116478 0.243554 0.457752
O O3 0.129960 0.283943 0.376353
O O4 0.000000 0.292383 0.408488
O O5 0.500000 0.238347 0.746050
O O6 0.621589 0.222987 0.789891
O O7 0.626590 0.229691 0.706165
O O8 0.576954 0.000000 0.745112
O O9 0.891130 0.263010 0.044897
O O10 0.876368 0.500000 0.000000
O O11 0.000000 0.357862 0.000000
O O12 0.500000 0.771032 0.102039
O O13 0.363079 0.771617 0.127825
O O14 0.418720 0.000000 0.089264
O O15 0.616710 0.500000 0.500000
O O16 0.500000 0.670674 0.500000
O O17 0.814998 0.500000 0.828346
O O18 0.750000 0.750000 0.822307
O O19 0.250000 0.250000 0.666248
O O20 0.314327 0.000000 0.668877
#
# Coordination Sequence:
#
# PCOD8267472 Si02
#       7
#    16  16   8  16   8  16  16
#     4   9  17  31  51  72  94 124 162 197 227 267
#     4   9  17  31  52  74  92 116 156 199 231 266
#     4   7  10  18  35  60  87 111 144 197 244 268
#     4   8  13  23  41  64  87 115 155 198 235 271
#     4   9  17  29  48  75 102 125 153 195 242 277
#     4  10  19  30  46  68  95 124 152 187 232 281
#     4  10  20  33  50  72  98 126 154 188 232 279
#
# _framework density 18.188872
#
# number of rings (size 3 to 8) (size 9 to 14) (size 15 to 20)
#    0.000    3.000    0.000    2.750    0.000    5.667 
#    0.000    0.833    0.000    4.500    0.000    0.000 
#    0.000    2.000    0.000    0.000    0.000    0.000 
#
# Total GULP energy -594939.226989 kJ/mol
# GULP energy per Si atom -12394.567229 kJ/mol
# Density = 1.814747 g / cm^3
# Si number density = 18.188872 Si / 1000 Ang^3
#
#
#
# Elastic Constant Matrix: (Units=GPa)
#
#
# Indices 1 2 3 4 5 6 
#
# 1 125.1725 32.2655 87.0036 0.0000 0.0000 0.0000
# 2 32.2655 28.6463 41.9121 0.0000 0.0000 0.0000
# 3 87.0036 41.9121 199.7678 0.0000 0.0000 0.0000
# 4 0.0000 0.0000 0.0000 7.9728 0.0000 0.0000
# 5 0.0000 0.0000 0.0000 0.0000 9.4854 0.0000
# 6 0.0000 0.0000 0.0000 0.0000 0.0000 23.3923
#
#
#
# Elastic Compliance Matrix: (Units=1/GPa)
#
#
# Indices 1 2 3 4 5 6 
#
# 1 0.012921 -0.009120 -0.003714 0.000000 0.000000 0.000000
# 2 -0.009120 0.056807 -0.007946 0.000000 0.000000 0.000000
# 3 -0.003714 -0.007946 0.008291 0.000000 0.000000 0.000000
# 4 0.000000 0.000000 0.000000 0.125427 0.000000 0.000000
# 5 0.000000 0.000000 0.000000 0.000000 0.105425 0.000000
# 6 0.000000 0.000000 0.000000 0.000000 0.000000 0.042749
#
#
# Mechanical properties :
#
#
# Convention : Reuss Voigt Hill
#
# Bulk Modulus (GPa) = 27.42879 75.10544 51.26711
# Shear Modulus (GPa) = 12.33555 20.99714 16.66634
#
# Velocity S-wave (km/s) = 2.60704 3.40132 3.03032
# Velocity P-wave (km/s) = 4.91680 7.53704 6.36325
#
# Compressibility (1/GPa) = 0.03645805
#
# Stress axis : x y z
#
# Youngs Moduli (GPa) = 77.39129 17.60359 120.61785
#
# Poissons Ratio (x) = 0.16054 0.44800
# Poissons Ratio (y) = 0.70578 0.95849
# Poissons Ratio (z) = 0.28745 0.13989
#
# Static dielectric constant tensor:
#      x y z
#    x 3.218930 0.000000 0.000000 
#    y 0.000000 2.878420 0.000000 
#    z 0.000000 0.000000 3.831730 
# 
# 
# High freq. dielectric constant tensor:
#      x y z
#    x 1.689380 0.000000 0.000000 
#    y 0.000000 1.649620 0.000000 
#    z 0.000000 0.000000 1.731520 
# 
# From -- ./inp_files/77644.got.cif
#   From: 2010.03.12/outbox.cif.g09.slc.cpg/sg65_39_cif.got.tgz:77644.got - 2010.04.10 20:52:16.
