data_PCOD8267307
_publ_section_title
;
Structure prediction by ZEFSAII (Michael W. Deem and Ramdas Pophale) SiO2 
 PCOD8267307
Probable space group: C M M M
;
_chemical_formula_sum "Si O2"
_cell_formula_units_Z 104
_cell_length_a 8.000000
_cell_length_b 27.676236
_cell_length_c 28.222704
_cell_angle_alpha 90.000000
_cell_angle_beta 90.000000
_cell_angle_gamma 90.000000
_cell_volume 6248.785732
_symmetry_space_group_name_H-M "C M M M"
_symmetry_group_IT_number 65
_symmetry_cell_setting 'orthorhombic'
loop_
_space_group_symop_operation_xyz
x,y,z
-x,-y,z
x,-y,-z
-x,y,-z
-x,-y,-z
x,y,-z
-x,y,z
x,-y,z
1/2+x,1/2+y,z
1/2-x,1/2-y,z
1/2+x,1/2-y,-z
1/2-x,1/2+y,-z
1/2-x,1/2-y,-z
1/2+x,1/2+y,-z
1/2-x,1/2+y,z
1/2+x,1/2-y,z
loop_
_atom_site_type_symbol
_atom_site_label
_atom_site_fract_x
_atom_site_fract_y
_atom_site_fract_z
Si Si1 0.805297 0.697578 0.766635
Si Si2 0.806764 0.947520 0.806672
Si Si3 0.806123 0.398141 0.283364
Si Si4 0.000000 0.057082 0.447314
Si Si5 0.307888 0.056555 0.617256
Si Si6 0.194780 0.145135 0.856562
Si Si7 0.302031 0.303919 0.052163
O O1 0.750000 0.750000 0.747819
O O2 0.754177 0.657576 0.727152
O O3 0.719207 0.686179 0.816860
O O4 0.000000 0.696823 0.775926
O O5 0.791732 0.933849 0.751514
O O6 0.721868 0.905550 0.839118
O O7 0.000000 0.951069 0.819443
O O8 0.722159 0.000000 0.816196
O O9 0.761790 0.411799 0.336925
O O10 0.000000 0.406402 0.273128
O O11 0.172236 0.073503 0.421704
O O12 0.000000 0.079932 0.500000
O O13 0.000000 0.000000 0.450752
O O14 0.500000 0.066731 0.600303
O O15 0.287193 0.000000 0.629434
O O16 0.274224 0.161362 0.906947
O O17 0.000000 0.137035 0.863752
O O18 0.500000 0.307105 0.052353
O O19 0.250000 0.250000 0.064901
O O20 0.232463 0.318870 0.000000
#
# Coordination Sequence:
#
# PCOD8267307 Si02
#       7
#    16  16  16   8  16  16  16
#     4  10  19  30  43  61  87 116 142 172 211 258
#     4   9  17  27  41  61  83 109 141 175 209 248
#     4   9  18  30  43  61  86 116 146 179 212 254
#     4   9  18  30  44  66  94 124 158 190 223 269
#     4   9  17  29  45  65  91 123 154 188 227 264
#     4   9  17  29  43  59  81 109 140 170 210 257
#     4   9  17  28  42  59  78 101 131 171 214 257
#
# _framework density 16.643234
#
# number of rings (size 3 to 8) (size 9 to 14) (size 15 to 20)
#    0.000    2.846    0.000    1.385    1.077    3.692 
#    0.000    1.538    0.000    0.462    0.000    3.231 
#    0.000    0.615    0.308   11.538    0.000   12.000 
#
# Total GULP energy -644388.135587 kJ/mol
# GULP energy per Si atom -12392.079531 kJ/mol
# Density = 1.660535 g / cm^3
# Si number density = 16.643234 Si / 1000 Ang^3
#
#
#
# Elastic Constant Matrix: (Units=GPa)
#
#
# Indices 1 2 3 4 5 6 
#
# 1 42.2588 20.3172 39.0736 0.0000 0.0000 0.0000
# 2 20.3172 108.3915 61.8349 0.0000 0.0000 0.0000
# 3 39.0736 61.8349 133.9880 0.0000 0.0000 0.0000
# 4 0.0000 0.0000 0.0000 6.4969 0.0000 0.0000
# 5 0.0000 0.0000 0.0000 0.0000 15.0343 0.0000
# 6 0.0000 0.0000 0.0000 0.0000 0.0000 14.3173
#
#
#
# Elastic Compliance Matrix: (Units=1/GPa)
#
#
# Indices 1 2 3 4 5 6 
#
# 1 0.032469 -0.000929 -0.009040 0.000000 0.000000 0.000000
# 2 -0.000929 0.012549 -0.005521 0.000000 0.000000 0.000000
# 3 -0.009040 -0.005521 0.012647 0.000000 0.000000 0.000000
# 4 0.000000 0.000000 0.000000 0.153919 0.000000 0.000000
# 5 0.000000 0.000000 0.000000 0.000000 0.066515 0.000000
# 6 0.000000 0.000000 0.000000 0.000000 0.000000 0.069845
#
#
# Mechanical properties :
#
#
# Convention : Reuss Voigt Hill
#
# Bulk Modulus (GPa) = 37.47196 58.56550 48.01873
# Shear Modulus (GPa) = 12.89264 18.06388 15.47826
#
# Velocity S-wave (km/s) = 2.78627 3.29805 3.05290
# Velocity P-wave (km/s) = 5.73714 7.05465 6.42973
#
# Compressibility (1/GPa) = 0.02668662
#
# Stress axis : x y z
#
# Youngs Moduli (GPa) = 30.79879 79.68574 79.06860
#
# Poissons Ratio (x) = 0.07403 0.71476
# Poissons Ratio (y) = 0.02861 0.43650
# Poissons Ratio (z) = 0.27842 0.43991
#
# Static dielectric constant tensor:
#      x y z
#    x 3.117760 0.000000 0.000000 
#    y 0.000000 3.927240 0.000000 
#    z 0.000000 0.000000 3.267250 
# 
# 
# High freq. dielectric constant tensor:
#      x y z
#    x 1.639660 0.000000 0.000000 
#    y 0.000000 1.622300 0.000000 
#    z 0.000000 0.000000 1.621300 
# 
# From -- ./inp_files/68537.got.cif
#   From: 2010.03.12/outbox.cif.g09.slc.cpg/sg65_35_cif.got.tgz:68537.got - 2010.04.10 20:52:16.
