data_PCOD8267833
_publ_section_title
;
Structure prediction by ZEFSAII (Michael W. Deem and Ramdas Pophale) SiO2 
 PCOD8267833
Probable space group: C M M M
;
_chemical_formula_sum "Si O2"
_cell_formula_units_Z 104
_cell_length_a 9.118661
_cell_length_b 26.607445
_cell_length_c 24.008237
_cell_angle_alpha 90.000000
_cell_angle_beta 90.000000
_cell_angle_gamma 90.000000
_cell_volume 5824.981001
_symmetry_space_group_name_H-M "C M M M"
_symmetry_group_IT_number 65
_symmetry_cell_setting 'orthorhombic'
loop_
_space_group_symop_operation_xyz
x,y,z
-x,-y,z
x,-y,-z
-x,y,-z
-x,-y,-z
x,y,-z
-x,y,z
x,-y,z
1/2+x,1/2+y,z
1/2-x,1/2-y,z
1/2+x,1/2-y,-z
1/2-x,1/2+y,-z
1/2-x,1/2-y,-z
1/2+x,1/2+y,-z
1/2-x,1/2+y,z
1/2+x,1/2-y,z
loop_
_atom_site_type_symbol
_atom_site_label
_atom_site_fract_x
_atom_site_fract_y
_atom_site_fract_z
Si Si1 0.168973 0.104721 0.661651
Si Si2 0.672565 0.056573 0.437472
Si Si3 0.174060 0.500000 0.062999
Si Si4 0.670155 0.701091 0.270966
Si Si5 0.826442 0.400779 0.871790
Si Si6 0.664844 0.442799 0.772918
Si Si7 0.826891 0.801460 0.141599
O O1 0.257610 0.095227 0.605606
O O2 0.224613 0.155610 0.690687
O O3 0.198351 0.061028 0.707136
O O4 0.000000 0.107811 0.644657
O O5 0.716505 0.073122 0.500000
O O6 0.500000 0.058198 0.429933
O O7 0.730195 0.000000 0.426204
O O8 0.230293 0.448518 0.091989
O O9 0.000000 0.500000 0.065539
O O10 0.233108 0.500000 0.000000
O O11 0.500000 0.710484 0.277903
O O12 0.750000 0.750000 0.293898
O O13 0.708930 0.690581 0.206684
O O14 0.782742 0.411582 0.807911
O O15 0.744919 0.349295 0.890777
O O16 0.000000 0.392935 0.876873
O O17 0.500000 0.420805 0.784120
O O18 0.674165 0.500000 0.791746
O O19 0.750000 0.750000 0.120495
O O20 0.000000 0.798643 0.129041
#
# Coordination Sequence:
#
# PCOD8267833 Si02
#       7
#    16  16   8  16  16  16  16
#     4  10  19  32  49  72  99 131 168 205 253 309
#     4   9  19  35  51  69  96 129 165 208 256 301
#     4   9  20  38  57  79 111 149 188 229 268 309
#     4   9  18  31  47  69 100 133 165 201 248 303
#     4  11  20  32  53  80 107 141 182 221 264 317
#     4  10  19  31  47  70 106 143 167 204 265 316
#     4  10  19  34  53  77 110 145 178 218 268 321
#
# _framework density 17.854136
#
# number of rings (size 3 to 8) (size 9 to 14) (size 15 to 20)
#    0.000    2.231    2.308    1.846    0.000    3.077 
#    0.000    0.769    0.000    4.615    0.000    0.000 
#    0.000    0.000    0.000    0.000    0.000    0.000 
#
# Total GULP energy -644649.418652 kJ/mol
# GULP energy per Si atom -12397.104205 kJ/mol
# Density = 1.781350 g / cm^3
# Si number density = 17.854136 Si / 1000 Ang^3
#
#
#
# Elastic Constant Matrix: (Units=GPa)
#
#
# Indices 1 2 3 4 5 6 
#
# 1 59.0383 50.8069 25.1518 0.0000 0.0000 0.0000
# 2 50.8069 135.4964 40.8987 0.0000 0.0000 0.0000
# 3 25.1518 40.8987 64.7199 0.0000 0.0000 0.0000
# 4 0.0000 0.0000 0.0000 18.4089 0.0000 0.0000
# 5 0.0000 0.0000 0.0000 0.0000 16.4086 0.0000
# 6 0.0000 0.0000 0.0000 0.0000 0.0000 33.3554
#
#
#
# Elastic Compliance Matrix: (Units=1/GPa)
#
#
# Indices 1 2 3 4 5 6 
#
# 1 0.026214 -0.008346 -0.004913 0.000000 0.000000 0.000000
# 2 -0.008346 0.011777 -0.004199 0.000000 0.000000 0.000000
# 3 -0.004913 -0.004199 0.020014 0.000000 0.000000 0.000000
# 4 0.000000 0.000000 0.000000 0.054322 0.000000 0.000000
# 5 0.000000 0.000000 0.000000 0.000000 0.060944 0.000000
# 6 0.000000 0.000000 0.000000 0.000000 0.000000 0.029980
#
#
# Mechanical properties :
#
#
# Convention : Reuss Voigt Hill
#
# Bulk Modulus (GPa) = 43.31143 54.77438 49.04290
# Shear Modulus (GPa) = 20.33649 23.12772 21.73211
#
# Velocity S-wave (km/s) = 3.37862 3.60303 3.49263
# Velocity P-wave (km/s) = 6.28739 6.93214 6.61762
#
# Compressibility (1/GPa) = 0.02308859
#
# Stress axis : x y z
#
# Youngs Moduli (GPa) = 38.14753 84.90883 49.96527
#
# Poissons Ratio (x) = 0.70869 0.24548
# Poissons Ratio (y) = 0.31840 0.20980
# Poissons Ratio (z) = 0.18742 0.35652
#
# Static dielectric constant tensor:
#      x y z
#    x 3.161880 0.000000 0.000000 
#    y 0.000000 3.531670 0.000000 
#    z 0.000000 0.000000 3.074700 
# 
# 
# High freq. dielectric constant tensor:
#      x y z
#    x 1.682310 0.000000 0.000000 
#    y 0.000000 1.699110 0.000000 
#    z 0.000000 0.000000 1.658570 
# 
# From -- ./inp_files/68280.got.cif
#   From: 2010.03.12/outbox.cif.g09.slc.cpg/sg65_35_cif.got.tgz:68280.got - 2010.04.10 20:52:16.
