data_PCOD8267051
_publ_section_title
;
Structure prediction by ZEFSAII (Michael W. Deem and Ramdas Pophale) SiO2 
 PCOD8267051
Probable space group: C M M M
;
_chemical_formula_sum "Si O2"
_cell_formula_units_Z 104
_cell_length_a 16.814226
_cell_length_b 26.852502
_cell_length_c 16.460922
_cell_angle_alpha 90.000000
_cell_angle_beta 90.000000
_cell_angle_gamma 90.000000
_cell_volume 7432.172741
_symmetry_space_group_name_H-M "C M M M"
_symmetry_group_IT_number 65
_symmetry_cell_setting 'orthorhombic'
loop_
_space_group_symop_operation_xyz
x,y,z
-x,-y,z
x,-y,-z
-x,y,-z
-x,-y,-z
x,y,-z
-x,y,z
x,-y,z
1/2+x,1/2+y,z
1/2-x,1/2-y,z
1/2+x,1/2-y,-z
1/2-x,1/2+y,-z
1/2-x,1/2-y,-z
1/2+x,1/2+y,-z
1/2-x,1/2+y,z
1/2+x,1/2-y,z
loop_
_atom_site_type_symbol
_atom_site_label
_atom_site_fract_x
_atom_site_fract_y
_atom_site_fract_z
Si Si1 0.093544 0.441431 0.823545
Si Si2 0.822713 0.591763 0.668897
Si Si3 0.827867 0.775724 0.594626
Si Si4 0.000000 0.943986 0.403895
Si Si5 0.412419 0.000000 0.405048
Si Si6 0.158960 0.887783 0.402622
Si Si7 0.587915 0.179311 0.594538
Si Si8 0.086782 0.441252 0.000000
O O1 0.102765 0.500000 0.806786
O O2 0.153279 0.412825 0.763295
O O3 0.126942 0.426290 0.913915
O O4 0.000000 0.426466 0.813298
O O5 0.868251 0.549778 0.619597
O O6 0.729506 0.585888 0.648532
O O7 0.847504 0.646769 0.640997
O O8 0.811434 0.782777 0.500000
O O9 0.750000 0.750000 0.634647
O O10 0.847486 0.830563 0.628183
O O11 0.900624 0.738114 0.612106
O O12 0.078426 0.914916 0.374598
O O13 0.000000 0.946272 0.500000
O O14 0.000000 0.000000 0.367713
O O15 0.500000 0.000000 0.364020
O O16 0.421336 0.000000 0.500000
O O17 0.173417 0.892684 0.500000
O O18 0.599987 0.168321 0.500000
O O19 0.500000 0.164119 0.623496
O O20 0.076057 0.500000 0.000000
O O21 0.000000 0.416362 0.000000
#
# Coordination Sequence:
#
# PCOD8267051 Si02
#       8
#    16  16  16   8   8  16  16   8
#     4   9  16  27  41  59  83 111 141 169 198 241
#     4  12  20  28  41  59  84 113 142 172 205 250
#     4   9  16  29  43  56  74 101 142 184 217 250
#     4   9  20  34  46  58  74 101 147 198 230 259
#     4  11  22  30  36  50  82 122 152 167 184 228
#     4  10  20  32  45  59  78 108 146 186 227 255
#     4  10  19  28  40  58  82 110 141 175 212 248
#     4   7  12  24  42  58  76 106 139 169 201 235
#
# _framework density 13.993216
#
# number of rings (size 3 to 8) (size 9 to 14) (size 15 to 20)
#    0.000    2.231    2.308    3.692    2.154    1.231 
#    0.000    0.000    0.000    0.000    0.000    0.000 
#    0.000    3.077    0.000    3.538    0.000    0.000 
#
# Total GULP energy -644310.191516 kJ/mol
# GULP energy per Si atom -12390.580606 kJ/mol
# Density = 1.396137 g / cm^3
# Si number density = 13.993216 Si / 1000 Ang^3
#
#
#
# Elastic Constant Matrix: (Units=GPa)
#
#
# Indices 1 2 3 4 5 6 
#
# 1 101.1938 42.4128 34.5979 0.0000 0.0000 0.0000
# 2 42.4128 84.5218 20.8596 0.0000 0.0000 0.0000
# 3 34.5979 20.8596 65.5138 0.0000 0.0000 0.0000
# 4 0.0000 0.0000 0.0000 4.3459 0.0000 0.0000
# 5 0.0000 0.0000 0.0000 0.0000 11.9740 0.0000
# 6 0.0000 0.0000 0.0000 0.0000 0.0000 89.0480
#
#
#
# Elastic Compliance Matrix: (Units=1/GPa)
#
#
# Indices 1 2 3 4 5 6 
#
# 1 0.014232 -0.005737 -0.005689 0.000000 0.000000 0.000000
# 2 -0.005737 0.015153 -0.001795 0.000000 0.000000 0.000000
# 3 -0.005689 -0.001795 0.018840 0.000000 0.000000 0.000000
# 4 0.000000 0.000000 0.000000 0.230104 0.000000 0.000000
# 5 0.000000 0.000000 0.000000 0.000000 0.083515 0.000000
# 6 0.000000 0.000000 0.000000 0.000000 0.000000 0.011230
#
#
# Mechanical properties :
#
#
# Convention : Reuss Voigt Hill
#
# Bulk Modulus (GPa) = 45.90895 49.66333 47.78614
# Shear Modulus (GPa) = 12.29176 31.29751 21.79463
#
# Velocity S-wave (km/s) = 2.96701 4.73442 3.95082
# Velocity P-wave (km/s) = 6.67958 8.09039 7.41860
#
# Compressibility (1/GPa) = 0.02178224
#
# Stress axis : x y z
#
# Youngs Moduli (GPa) = 70.26523 65.99237 53.07906
#
# Poissons Ratio (x) = 0.37863 0.30197
# Poissons Ratio (y) = 0.40314 0.09527
# Poissons Ratio (z) = 0.39974 0.11845
#
# Static dielectric constant tensor:
#      x y z
#    x 2.763140 0.000000 0.000000 
#    y 0.000000 2.784150 0.000000 
#    z 0.000000 0.000000 2.598900 
# 
# 
# High freq. dielectric constant tensor:
#      x y z
#    x 1.526450 0.000000 0.000000 
#    y 0.000000 1.532240 0.000000 
#    z 0.000000 0.000000 1.482840 
# 
# From -- ./inp_files/43137.got.cif
#   From: 2010.03.12/outbox.cif.g09.slc.cpg/sg65_22_cif.got.tgz:43137.got - 2010.04.10 20:52:16.
