data_PCOD8267538
_publ_section_title
;
Structure prediction by ZEFSAII (Michael W. Deem and Ramdas Pophale) SiO2 
 PCOD8267538
Probable space group: C M M M
;
_chemical_formula_sum "Si O2"
_cell_formula_units_Z 104
_cell_length_a 18.047553
_cell_length_b 27.891769
_cell_length_c 12.028963
_cell_angle_alpha 90.000000
_cell_angle_beta 90.000000
_cell_angle_gamma 90.000000
_cell_volume 6055.117494
_symmetry_space_group_name_H-M "C M M M"
_symmetry_group_IT_number 65
_symmetry_cell_setting 'orthorhombic'
loop_
_space_group_symop_operation_xyz
x,y,z
-x,-y,z
x,-y,-z
-x,y,-z
-x,-y,-z
x,y,-z
-x,y,z
x,-y,z
1/2+x,1/2+y,z
1/2-x,1/2-y,z
1/2+x,1/2-y,-z
1/2-x,1/2+y,-z
1/2-x,1/2-y,-z
1/2+x,1/2+y,-z
1/2-x,1/2+y,z
1/2+x,1/2-y,z
loop_
_atom_site_type_symbol
_atom_site_label
_atom_site_fract_x
_atom_site_fract_y
_atom_site_fract_z
Si Si1 0.414960 0.641085 0.369839
Si Si2 0.669893 0.556064 0.000000
Si Si3 0.913877 0.054718 0.785354
Si Si4 0.912613 0.326472 0.375916
Si Si5 0.341640 0.943184 0.000000
Si Si6 0.912026 0.587313 0.772759
Si Si7 0.829017 0.766765 0.630972
Si Si8 0.588008 0.000000 0.624322
O O1 0.402807 0.634605 0.500000
O O2 0.500000 0.655646 0.343555
O O3 0.394942 0.589795 0.316581
O O4 0.360553 0.682794 0.321522
O O5 0.631283 0.576323 0.110514
O O6 0.755629 0.569302 0.000000
O O7 0.655625 0.500000 0.000000
O O8 0.000000 0.056083 0.816622
O O9 0.890060 0.000000 0.754400
O O10 0.881154 0.338592 0.500000
O O11 0.883311 0.363933 0.284498
O O12 0.888189 0.273924 0.338003
O O13 0.000000 0.328638 0.380572
O O14 0.376842 0.918315 0.893122
O O15 0.357968 0.000000 0.000000
O O16 0.883203 0.545881 0.691029
O O17 0.000000 0.585666 0.786572
O O18 0.820705 0.772916 0.500000
O O19 0.750000 0.750000 0.682501
O O20 0.500000 0.000000 0.616492
O O21 0.621865 0.000000 0.500000
#
# Coordination Sequence:
#
# PCOD8267538 Si02
#       8
#    16   8  16  16   8  16  16   8
#     4   9  17  29  48  76 106 132 158 194 244 300
#     4   9  19  33  49  68  91 126 167 207 236 277
#     4   9  17  31  52  76 100 127 160 200 244 293
#     4   9  17  30  48  70  95 123 158 201 246 288
#     4  11  21  33  47  66  93 132 171 207 247 291
#     4  10  19  30  47  69  94 126 164 203 243 287
#     4   9  17  29  46  69  96 130 167 199 235 284
#     4   9  16  27  45  69  95 120 153 198 240 281
#
# _framework density 17.175554999999999
#
# number of rings (size 3 to 8) (size 9 to 14) (size 15 to 20)
#    0.000    2.692    0.769    1.385    0.000    6.462 
#    0.000    1.538    0.000    1.846    0.000    6.462 
#    0.000    0.000    0.000    0.000    0.000    0.000 
#
# Total GULP energy -644576.803735 kJ/mol
# GULP energy per Si atom -12395.707764 kJ/mol
# Density = 1.713646 g / cm^3
# Si number density = 17.175555 Si / 1000 Ang^3
#
#
#
# Elastic Constant Matrix: (Units=GPa)
#
#
# Indices 1 2 3 4 5 6 
#
# 1 51.8941 41.0773 34.4475 0.0000 0.0000 0.0000
# 2 41.0773 123.6948 59.2667 0.0000 0.0000 0.0000
# 3 34.4475 59.2667 100.8850 0.0000 0.0000 0.0000
# 4 0.0000 0.0000 0.0000 1.2449 0.0000 0.0000
# 5 0.0000 0.0000 0.0000 0.0000 10.4059 0.0000
# 6 0.0000 0.0000 0.0000 0.0000 0.0000 18.9905
#
#
#
# Elastic Compliance Matrix: (Units=1/GPa)
#
#
# Indices 1 2 3 4 5 6 
#
# 1 0.028373 -0.006653 -0.005780 0.000000 0.000000 0.000000
# 2 -0.006653 0.012811 -0.005255 0.000000 0.000000 0.000000
# 3 -0.005780 -0.005255 0.014973 0.000000 0.000000 0.000000
# 4 0.000000 0.000000 0.000000 0.803308 0.000000 0.000000
# 5 0.000000 0.000000 0.000000 0.000000 0.096099 0.000000
# 6 0.000000 0.000000 0.000000 0.000000 0.000000 0.052658
#
#
# Mechanical properties :
#
#
# Convention : Reuss Voigt Hill
#
# Bulk Modulus (GPa) = 48.11737 60.67298 54.39518
# Shear Modulus (GPa) = 4.75953 15.57375 10.16664
#
# Velocity S-wave (km/s) = 1.66647 3.01448 2.43559
# Velocity P-wave (km/s) = 5.63726 6.89333 6.29669
#
# Compressibility (1/GPa) = 0.02078251
#
# Stress axis : x y z
#
# Youngs Moduli (GPa) = 35.24509 78.05498 66.78843
#
# Poissons Ratio (x) = 0.51930 0.38601
# Poissons Ratio (y) = 0.23449 0.35095
# Poissons Ratio (z) = 0.20370 0.41015
#
# Static dielectric constant tensor:
#      x y z
#    x 3.168570 0.000000 0.000000 
#    y 0.000000 3.314360 0.000000 
#    z 0.000000 0.000000 3.121410 
# 
# 
# High freq. dielectric constant tensor:
#      x y z
#    x 1.651280 0.000000 0.000000 
#    y 0.000000 1.659850 0.000000 
#    z 0.000000 0.000000 1.641240 
# 
# From -- ./inp_files/27544.got.cif
#   From: 2010.03.12/outbox.cif.g09.slc.cpg/sg65_14_cif.got.tgz:27544.got - 2010.04.10 20:52:16.
