data_PCOD8267753
_publ_section_title
;
Structure prediction by ZEFSAII (Michael W. Deem and Ramdas Pophale) SiO2 
 PCOD8267753
Probable space group: C M M M
;
_chemical_formula_sum "Si O2"
_cell_formula_units_Z 112
_cell_length_a 19.219260
_cell_length_b 18.464929
_cell_length_c 18.489402
_cell_angle_alpha 90.000000
_cell_angle_beta 90.000000
_cell_angle_gamma 90.000000
_cell_volume 6561.560977
_symmetry_space_group_name_H-M "C M M M"
_symmetry_group_IT_number 65
_symmetry_cell_setting 'orthorhombic'
loop_
_space_group_symop_operation_xyz
x,y,z
-x,-y,z
x,-y,-z
-x,y,-z
-x,-y,-z
x,y,-z
-x,y,z
x,-y,z
1/2+x,1/2+y,z
1/2-x,1/2-y,z
1/2+x,1/2-y,-z
1/2-x,1/2+y,-z
1/2-x,1/2-y,-z
1/2+x,1/2+y,-z
1/2-x,1/2+y,z
1/2+x,1/2-y,z
loop_
_atom_site_type_symbol
_atom_site_label
_atom_site_fract_x
_atom_site_fract_y
_atom_site_fract_z
Si Si1 0.123816 0.917889 0.578593
Si Si2 0.797240 0.676648 0.284727
Si Si3 0.711637 0.081847 0.581192
Si Si4 0.425186 0.614597 0.273112
Si Si5 0.078268 0.733616 0.803227
Si Si6 0.298575 0.420298 0.186994
Si Si7 0.821304 0.791667 0.915794
O O1 0.098757 0.888709 0.500000
O O2 0.206021 0.914702 0.582667
O O3 0.091491 0.870323 0.642462
O O4 0.097952 0.000000 0.589356
O O5 0.750000 0.750000 0.289062
O O6 0.815310 0.643159 0.363288
O O7 0.871713 0.685146 0.246309
O O8 0.757067 0.617282 0.238293
O O9 0.684510 0.100172 0.500000
O O10 0.687429 0.000000 0.602703
O O11 0.500000 0.575835 0.265445
O O12 0.428019 0.691407 0.236470
O O13 0.367685 0.565881 0.234432
O O14 0.115104 0.746602 0.880890
O O15 0.000000 0.700104 0.813540
O O16 0.272110 0.500000 0.162451
O O17 0.314700 0.372268 0.116547
O O18 0.750000 0.750000 0.898805
O O19 0.836875 0.798741 0.000000
#
# Coordination Sequence:
#
# PCOD8267753 Si02
#       7
#    16  16  16  16  16  16  16
#     4   9  16  26  40  62  94 131 169 206 249 305
#     4  12  18  33  55  78 103 137 182 225 264 315
#     4   9  18  31  49  75 104 134 174 225 275 319
#     4  10  19  31  46  68 100 139 173 209 258 311
#     4  10  20  35  54  77 104 134 173 220 263 307
#     4  11  20  32  52  79 106 139 174 216 264 307
#     4  10  19  36  58  81 108 138 173 209 250 310
#
# _framework density 17.069109999999998
#
# number of rings (size 3 to 8) (size 9 to 14) (size 15 to 20)
#    0.000    1.857    5.714    1.714    0.000    2.286 
#    0.000    1.429    0.000    3.000    0.000    5.000 
#    0.000    2.286    0.000    0.000    0.000    0.000 
#
# Total GULP energy -693937.000976 kJ/mol
# GULP energy per Si atom -12391.732160 kJ/mol
# Density = 1.703026 g / cm^3
# Si number density = 17.069110 Si / 1000 Ang^3
#
#
#
# Elastic Constant Matrix: (Units=GPa)
#
#
# Indices 1 2 3 4 5 6 
#
# 1 97.7213 37.7522 53.0606 0.0000 0.0000 0.0000
# 2 37.7522 71.3313 40.7544 0.0000 0.0000 0.0000
# 3 53.0606 40.7544 131.5833 0.0000 0.0000 0.0000
# 4 0.0000 0.0000 0.0000 14.8772 0.0000 0.0000
# 5 0.0000 0.0000 0.0000 0.0000 24.2217 0.0000
# 6 0.0000 0.0000 0.0000 0.0000 0.0000 82.5110
#
#
#
# Elastic Compliance Matrix: (Units=1/GPa)
#
#
# Indices 1 2 3 4 5 6 
#
# 1 0.014581 -0.005294 -0.004240 0.000000 0.000000 0.000000
# 2 -0.005294 0.018956 -0.003736 0.000000 0.000000 0.000000
# 3 -0.004240 -0.003736 0.010467 0.000000 0.000000 0.000000
# 4 0.000000 0.000000 0.000000 0.067217 0.000000 0.000000
# 5 0.000000 0.000000 0.000000 0.000000 0.041285 0.000000
# 6 0.000000 0.000000 0.000000 0.000000 0.000000 0.012120
#
#
# Mechanical properties :
#
#
# Convention : Reuss Voigt Hill
#
# Bulk Modulus (GPa) = 57.26606 62.64116 59.95361
# Shear Modulus (GPa) = 25.38250 35.59324 30.48787
#
# Velocity S-wave (km/s) = 3.86040 4.57140 4.23086
# Velocity P-wave (km/s) = 7.31387 8.04001 7.68552
#
# Compressibility (1/GPa) = 0.01746235
#
# Stress axis : x y z
#
# Youngs Moduli (GPa) = 68.58384 52.75445 95.54218
#
# Poissons Ratio (x) = 0.27931 0.40508
# Poissons Ratio (y) = 0.36312 0.35695
# Poissons Ratio (z) = 0.29078 0.19709
#
# Static dielectric constant tensor:
#      x y z
#    x 3.621520 0.000000 0.000000 
#    y 0.000000 3.018490 0.000000 
#    z 0.000000 0.000000 3.465250 
# 
# 
# High freq. dielectric constant tensor:
#      x y z
#    x 1.639370 0.000000 0.000000 
#    y 0.000000 1.637840 0.000000 
#    z 0.000000 0.000000 1.664840 
# 
# From -- ./inp_files/54834.got.cif
#   From: 2010.03.12/outbox.cif.g09.slc.cpg/sg65_28_cif.got.tgz:54834.got - 2010.04.10 20:52:16.
