data_PCOD8267396
_publ_section_title
;
Structure prediction by ZEFSAII (Michael W. Deem and Ramdas Pophale) SiO2 
 PCOD8267396
Probable space group: C M M M
;
_chemical_formula_sum "Si O2"
_cell_formula_units_Z 104
_cell_length_a 9.439104
_cell_length_b 18.459968
_cell_length_c 33.832791
_cell_angle_alpha 90.000000
_cell_angle_beta 90.000000
_cell_angle_gamma 90.000000
_cell_volume 5895.213539
_symmetry_space_group_name_H-M "C M M M"
_symmetry_group_IT_number 65
_symmetry_cell_setting 'orthorhombic'
loop_
_space_group_symop_operation_xyz
x,y,z
-x,-y,z
x,-y,-z
-x,y,-z
-x,-y,-z
x,y,-z
-x,y,z
x,-y,z
1/2+x,1/2+y,z
1/2-x,1/2-y,z
1/2+x,1/2-y,-z
1/2-x,1/2+y,-z
1/2-x,1/2-y,-z
1/2+x,1/2+y,-z
1/2-x,1/2+y,z
1/2+x,1/2-y,z
loop_
_atom_site_type_symbol
_atom_site_label
_atom_site_fract_x
_atom_site_fract_y
_atom_site_fract_z
Si Si1 0.167783 0.081540 0.000000
Si Si2 0.831686 0.419642 0.310721
Si Si3 0.831054 0.324270 0.616221
Si Si4 0.667506 0.674963 0.925403
Si Si5 0.842456 0.586245 0.224475
Si Si6 0.665241 0.416924 0.849251
Si Si7 0.667964 0.080765 0.543663
O O1 0.219458 0.124994 0.961537
O O2 0.000000 0.075294 0.000000
O O3 0.232416 0.000000 0.000000
O O4 0.768071 0.500000 0.317922
O O5 0.778081 0.367722 0.345338
O O6 0.784507 0.388538 0.267621
O O7 0.000000 0.425043 0.311209
O O8 0.750000 0.250000 0.617084
O O9 0.775231 0.365788 0.577279
O O10 0.000000 0.312845 0.615952
O O11 0.500000 0.690176 0.927562
O O12 0.750000 0.750000 0.927113
O O13 0.710567 0.632439 0.885893
O O14 0.846228 0.500000 0.224918
O O15 0.741930 0.614756 0.189599
O O16 0.000000 0.617172 0.216734
O O17 0.500000 0.411881 0.840920
O O18 0.709869 0.500000 0.858194
O O19 0.715956 0.108038 0.500000
O O20 0.500000 0.077586 0.546016
O O21 0.728196 0.000000 0.551297
#
# Coordination Sequence:
#
# PCOD8267396 Si02
#       7
#     8  16  16  16  16  16  16
#     4   9  17  32  55  77  94 119 158 196 228 267
#     4   8  14  27  48  69  86 112 155 197 227 262
#     4  10  19  30  45  66  93 122 149 182 226 272
#     4  10  20  33  50  72  98 127 156 188 227 271
#     4   8  14  26  46  70  91 113 148 194 236 269
#     4   9  17  30  48  70  95 122 154 190 227 270
#     4   8  14  26  46  70  90 111 148 193 226 257
#
# _framework density 17.641431000000001
#
# number of rings (size 3 to 8) (size 9 to 14) (size 15 to 20)
#    0.000    3.154    0.000    2.538    0.000    4.615 
#    0.000    1.538    0.000    8.308    0.000    1.077 
#    0.000    0.000    0.000    0.000    0.000    0.000 
#
# Total GULP energy -644507.107030 kJ/mol
# GULP energy per Si atom -12394.367443 kJ/mol
# Density = 1.760128 g / cm^3
# Si number density = 17.641431 Si / 1000 Ang^3
#
#
#
# Elastic Constant Matrix: (Units=GPa)
#
#
# Indices 1 2 3 4 5 6 
#
# 1 27.3006 34.4308 42.4987 0.0000 0.0000 0.0000
# 2 34.4308 120.1570 93.6051 0.0000 0.0000 0.0000
# 3 42.4987 93.6051 198.2785 0.0000 0.0000 0.0000
# 4 0.0000 0.0000 0.0000 8.9850 0.0000 0.0000
# 5 0.0000 0.0000 0.0000 0.0000 18.2625 0.0000
# 6 0.0000 0.0000 0.0000 0.0000 0.0000 26.0647
#
#
#
# Elastic Compliance Matrix: (Units=1/GPa)
#
#
# Indices 1 2 3 4 5 6 
#
# 1 0.064624 -0.012222 -0.008081 0.000000 0.000000 0.000000
# 2 -0.012222 0.015475 -0.004686 0.000000 0.000000 0.000000
# 3 -0.008081 -0.004686 0.008988 0.000000 0.000000 0.000000
# 4 0.000000 0.000000 0.000000 0.111296 0.000000 0.000000
# 5 0.000000 0.000000 0.000000 0.000000 0.054757 0.000000
# 6 0.000000 0.000000 0.000000 0.000000 0.000000 0.038366
#
#
# Mechanical properties :
#
#
# Convention : Reuss Voigt Hill
#
# Bulk Modulus (GPa) = 25.57053 76.31169 50.94111
# Shear Modulus (GPa) = 14.02442 22.34255 18.18348
#
# Velocity S-wave (km/s) = 2.82258 3.56263 3.21398
# Velocity P-wave (km/s) = 5.01485 7.76364 6.53539
#
# Compressibility (1/GPa) = 0.03910752
#
# Stress axis : x y z
#
# Youngs Moduli (GPa) = 15.47417 64.61943 111.26261
#
# Poissons Ratio (x) = 0.78980 0.89915
# Poissons Ratio (y) = 0.18913 0.52137
# Poissons Ratio (z) = 0.12505 0.30280
#
# Static dielectric constant tensor:
#      x y z
#    x 2.874580 0.000000 0.000000 
#    y 0.000000 3.187740 0.000000 
#    z 0.000000 0.000000 3.791900 
# 
# 
# High freq. dielectric constant tensor:
#      x y z
#    x 1.633330 0.000000 0.000000 
#    y 0.000000 1.665710 0.000000 
#    z 0.000000 0.000000 1.705050 
# 
# From -- ./inp_files/77436.got.cif
#   From: 2010.03.12/outbox.cif.g09.slc.cpg/sg65_39_cif.got.tgz:77436.got - 2010.04.10 20:52:16.
