data_PCOD8267948
_publ_section_title
;
Structure prediction by ZEFSAII (Michael W. Deem and Ramdas Pophale) SiO2 
 PCOD8267948
Probable space group: C M M M
;
_chemical_formula_sum "Si O2"
_cell_formula_units_Z 88
_cell_length_a 28.476999
_cell_length_b 14.880804
_cell_length_c 12.245566
_cell_angle_alpha 90.000000
_cell_angle_beta 90.000000
_cell_angle_gamma 90.000000
_cell_volume 5189.188893
_symmetry_space_group_name_H-M "C M M M"
_symmetry_group_IT_number 65
_symmetry_cell_setting 'orthorhombic'
loop_
_space_group_symop_operation_xyz
x,y,z
-x,-y,z
x,-y,-z
-x,y,-z
-x,-y,-z
x,y,-z
-x,y,z
x,-y,z
1/2+x,1/2+y,z
1/2-x,1/2-y,z
1/2+x,1/2-y,-z
1/2-x,1/2+y,-z
1/2-x,1/2-y,-z
1/2+x,1/2+y,-z
1/2-x,1/2+y,z
1/2+x,1/2-y,z
loop_
_atom_site_type_symbol
_atom_site_label
_atom_site_fract_x
_atom_site_fract_y
_atom_site_fract_z
Si Si1 0.744962 0.000000 0.223180
Si Si2 0.166418 0.000000 0.623426
Si Si3 0.903520 0.320896 0.626663
Si Si4 0.156423 0.500000 0.375622
Si Si5 0.500000 0.901780 0.371744
Si Si6 0.719134 0.671047 0.125784
Si Si7 0.055896 0.000000 0.130357
Si Si8 0.121532 0.144660 0.754983
O O1 0.748859 0.084300 0.143737
O O2 0.786161 0.000000 0.310008
O O3 0.697030 0.000000 0.288068
O O4 0.135304 0.912945 0.649187
O O5 0.181990 0.000000 0.500000
O O6 0.900086 0.289633 0.500000
O O7 0.872912 0.409847 0.645324
O O8 0.955564 0.344852 0.663865
O O9 0.891949 0.241913 0.710538
O O10 0.175578 0.500000 0.500000
O O11 0.500000 0.917627 0.500000
O O12 0.500000 0.000000 0.314842
O O13 0.750000 0.750000 0.182381
O O14 0.667037 0.658185 0.170762
O O15 0.712389 0.692733 0.000000
O O16 0.080662 0.090581 0.178860
O O17 0.000000 0.000000 0.159902
O O18 0.062949 0.000000 0.000000
#
# Coordination Sequence:
#
# PCOD8267948 Si02
#       8
#     8   8  16   8   8  16   8  16
#     4  10  19  31  50  72  98 133 169 205 245 298
#     4   9  18  32  47  68 100 135 164 197 245 294
#     4  10  19  31  50  75 106 140 170 207 246 295
#     4  10  19  31  48  75 110 142 175 206 241 291
#     4   9  16  30  48  69  99 136 174 205 243 289
#     4  10  20  34  52  74  99 126 163 212 261 308
#     4  10  22  39  56  75  99 128 171 222 267 314
#     4  10  20  33  54  75 100 132 169 211 253 308
#
# _framework density 16.958334000000001
#
# number of rings (size 3 to 8) (size 9 to 14) (size 15 to 20)
#    0.000    2.182    0.909    3.273    1.273    0.000 
#    0.000    0.000    0.000   10.364    0.000    0.000 
#    0.000    4.364    0.000    0.000    0.000    0.000 
#
# Total GULP energy -545253.220710 kJ/mol
# GULP energy per Si atom -12392.118652 kJ/mol
# Density = 1.691974 g / cm^3
# Si number density = 16.958334 Si / 1000 Ang^3
#
#
#
# Elastic Constant Matrix: (Units=GPa)
#
#
# Indices 1 2 3 4 5 6 
#
# 1 113.9490 51.1348 25.6615 0.0000 0.0000 0.0000
# 2 51.1348 137.2217 36.8306 0.0000 0.0000 0.0000
# 3 25.6615 36.8306 54.3439 0.0000 0.0000 0.0000
# 4 0.0000 0.0000 0.0000 25.0184 0.0000 0.0000
# 5 0.0000 0.0000 0.0000 0.0000 18.2514 0.0000
# 6 0.0000 0.0000 0.0000 0.0000 0.0000 61.8523
#
#
#
# Elastic Compliance Matrix: (Units=1/GPa)
#
#
# Indices 1 2 3 4 5 6 
#
# 1 0.010906 -0.003278 -0.002928 0.000000 0.000000 0.000000
# 2 -0.003278 0.009893 -0.005157 0.000000 0.000000 0.000000
# 3 -0.002928 -0.005157 0.023279 0.000000 0.000000 0.000000
# 4 0.000000 0.000000 0.000000 0.039971 0.000000 0.000000
# 5 0.000000 0.000000 0.000000 0.000000 0.054790 0.000000
# 6 0.000000 0.000000 0.000000 0.000000 0.000000 0.016168
#
#
# Mechanical properties :
#
#
# Convention : Reuss Voigt Hill
#
# Bulk Modulus (GPa) = 46.83452 59.19648 53.01550
# Shear Modulus (GPa) = 27.04873 33.81693 30.43283
#
# Velocity S-wave (km/s) = 3.99809 4.47040 4.24083
# Velocity P-wave (km/s) = 6.99931 7.85040 7.43704
#
# Compressibility (1/GPa) = 0.02135177
#
# Stress axis : x y z
#
# Youngs Moduli (GPa) = 91.68900 101.07921 42.95697
#
# Poissons Ratio (x) = 0.33136 0.12579
# Poissons Ratio (y) = 0.30058 0.22153
# Poissons Ratio (z) = 0.26849 0.52126
#
# Static dielectric constant tensor:
#      x y z
#    x 2.676050 0.000000 0.000000 
#    y 0.000000 3.405460 0.000000 
#    z 0.000000 0.000000 2.969120 
# 
# 
# High freq. dielectric constant tensor:
#      x y z
#    x 1.661180 0.000000 0.000000 
#    y 0.000000 1.669090 0.000000 
#    z 0.000000 0.000000 1.636250 
# 
# From -- ./inp_files/32306.got.cif
#   From: 2010.03.12/outbox.cif.g09.slc.cpg/sg65_17_cif.got.tgz:32306.got - 2010.04.10 20:52:16.
