data_PCOD8267345
_publ_section_title
;
Structure prediction by ZEFSAII (Michael W. Deem and Ramdas Pophale) SiO2 
 PCOD8267345
Probable space group: C M M M
;
_chemical_formula_sum "Si O2"
_cell_formula_units_Z 104
_cell_length_a 8.766690
_cell_length_b 27.401352
_cell_length_c 26.663450
_cell_angle_alpha 90.000000
_cell_angle_beta 90.000000
_cell_angle_gamma 90.000000
_cell_volume 6405.071523
_symmetry_space_group_name_H-M "C M M M"
_symmetry_group_IT_number 65
_symmetry_cell_setting 'orthorhombic'
loop_
_space_group_symop_operation_xyz
x,y,z
-x,-y,z
x,-y,-z
-x,y,-z
-x,-y,-z
x,y,-z
-x,y,z
x,-y,z
1/2+x,1/2+y,z
1/2-x,1/2-y,z
1/2+x,1/2-y,-z
1/2-x,1/2+y,-z
1/2-x,1/2-y,-z
1/2+x,1/2+y,-z
1/2-x,1/2+y,z
1/2+x,1/2-y,z
loop_
_atom_site_type_symbol
_atom_site_label
_atom_site_fract_x
_atom_site_fract_y
_atom_site_fract_z
Si Si1 0.680999 0.801613 0.653403
Si Si2 0.322953 0.054853 0.384403
Si Si3 0.820186 0.353467 0.554849
Si Si4 0.821016 0.107564 0.704732
Si Si5 0.827948 0.558278 0.000000
Si Si6 0.670810 0.442143 0.100100
Si Si7 0.321855 0.056755 0.202574
O O1 0.500000 0.799226 0.655192
O O2 0.750000 0.750000 0.668760
O O3 0.740085 0.816167 0.597338
O O4 0.736850 0.841645 0.692984
O O5 0.500000 0.062185 0.369884
O O6 0.276416 0.091308 0.429236
O O7 0.225680 0.066098 0.335018
O O8 0.289100 0.000000 0.402632
O O9 0.746468 0.342340 0.500000
O O10 0.000000 0.348414 0.550697
O O11 0.773564 0.089563 0.759372
O O12 0.000000 0.116604 0.702665
O O13 0.743876 0.579223 0.950756
O O14 0.826012 0.500000 0.000000
O O15 0.000000 0.578003 0.000000
O O16 0.500000 0.421197 0.106423
O O17 0.666152 0.500000 0.096235
O O18 0.773972 0.426145 0.147065
O O19 0.500000 0.066304 0.210287
O O20 0.281067 0.000000 0.211166
#
# Coordination Sequence:
#
# PCOD8267345 Si02
#       7
#    16  16  16  16   8  16  16
#     4  10  20  35  53  71  90 112 140 175 218 268
#     4   9  17  29  45  65  90 120 151 182 217 257
#     4   8  15  28  46  69  94 117 143 176 213 257
#     4  11  21  32  47  66  88 115 147 183 222 265
#     4   9  15  23  35  51  75 111 154 195 232 267
#     4   9  16  25  37  55  80 112 152 194 231 266
#     4  10  19  30  44  63  89 120 153 189 228 268
#
# _framework density 16.237134000000001
#
# number of rings (size 3 to 8) (size 9 to 14) (size 15 to 20)
#    0.000    2.538    0.000    4.385    0.000    6.462 
#    0.000    1.538    0.000   11.077    0.000    4.308 
#    0.000    0.000    0.000    0.692    0.000    9.769 
#
# Total GULP energy -644701.760676 kJ/mol
# GULP energy per Si atom -12398.110782 kJ/mol
# Density = 1.620018 g / cm^3
# Si number density = 16.237134 Si / 1000 Ang^3
#
#
#
# Elastic Constant Matrix: (Units=GPa)
#
#
# Indices 1 2 3 4 5 6 
#
# 1 77.4094 24.8535 27.6980 0.0000 0.0000 0.0000
# 2 24.8535 69.8751 26.0619 0.0000 0.0000 0.0000
# 3 27.6980 26.0619 104.0435 0.0000 0.0000 0.0000
# 4 0.0000 0.0000 0.0000 8.5098 0.0000 0.0000
# 5 0.0000 0.0000 0.0000 0.0000 18.3257 0.0000
# 6 0.0000 0.0000 0.0000 0.0000 0.0000 18.8700
#
#
#
# Elastic Compliance Matrix: (Units=1/GPa)
#
#
# Indices 1 2 3 4 5 6 
#
# 1 0.015392 -0.004353 -0.003007 0.000000 0.000000 0.000000
# 2 -0.004353 0.017017 -0.003104 0.000000 0.000000 0.000000
# 3 -0.003007 -0.003104 0.011189 0.000000 0.000000 0.000000
# 4 0.000000 0.000000 0.000000 0.117512 0.000000 0.000000
# 5 0.000000 0.000000 0.000000 0.000000 0.054568 0.000000
# 6 0.000000 0.000000 0.000000 0.000000 0.000000 0.052994
#
#
# Mechanical properties :
#
#
# Convention : Reuss Voigt Hill
#
# Bulk Modulus (GPa) = 44.11021 45.39497 44.75259
# Shear Modulus (GPa) = 16.82609 20.65540 18.74074
#
# Velocity S-wave (km/s) = 3.22261 3.57053 3.40102
# Velocity P-wave (km/s) = 6.40876 6.70943 6.56082
#
# Compressibility (1/GPa) = 0.02267049
#
# Stress axis : x y z
#
# Youngs Moduli (GPa) = 64.96906 58.76398 89.37038
#
# Poissons Ratio (x) = 0.25580 0.26875
# Poissons Ratio (y) = 0.28281 0.27739
# Poissons Ratio (z) = 0.19537 0.18239
#
# Static dielectric constant tensor:
#      x y z
#    x 3.057810 0.000000 0.000000 
#    y 0.000000 2.792860 0.000000 
#    z 0.000000 0.000000 3.225230 
# 
# 
# High freq. dielectric constant tensor:
#      x y z
#    x 1.625090 0.000000 0.000000 
#    y 0.000000 1.579120 0.000000 
#    z 0.000000 0.000000 1.624920 
# 
# From -- ./inp_files/73793.got.cif
#   From: 2010.03.12/outbox.cif.g09.slc.cpg/sg65_37_cif.got.tgz:73793.got - 2010.04.10 20:52:16.
