data_PCOD8267711
_publ_section_title
;
Structure prediction by ZEFSAII (Michael W. Deem and Ramdas Pophale) SiO2 
 PCOD8267711
Probable space group: C M M M
;
_chemical_formula_sum "Si O2"
_cell_formula_units_Z 72
_cell_length_a 8.227113
_cell_length_b 36.613066
_cell_length_c 15.684668
_cell_angle_alpha 90.000000
_cell_angle_beta 90.000000
_cell_angle_gamma 90.000000
_cell_volume 4724.533048
_symmetry_space_group_name_H-M "C M M M"
_symmetry_group_IT_number 65
_symmetry_cell_setting 'orthorhombic'
loop_
_space_group_symop_operation_xyz
x,y,z
-x,-y,z
x,-y,-z
-x,y,-z
-x,-y,-z
x,y,-z
-x,y,z
x,-y,z
1/2+x,1/2+y,z
1/2-x,1/2-y,z
1/2+x,1/2-y,-z
1/2-x,1/2+y,-z
1/2-x,1/2-y,-z
1/2+x,1/2+y,-z
1/2-x,1/2+y,z
1/2+x,1/2-y,z
loop_
_atom_site_type_symbol
_atom_site_label
_atom_site_fract_x
_atom_site_fract_y
_atom_site_fract_z
Si Si1 0.685447 0.413303 0.399822
Si Si2 0.181943 0.289885 0.500000
Si Si3 0.309236 0.790559 0.000000
Si Si4 0.184571 0.166892 0.655642
Si Si5 0.500000 0.959144 0.399023
Si Si6 0.307483 0.208530 0.815347
O O1 0.702383 0.404956 0.500000
O O2 0.500000 0.428312 0.381429
O O3 0.716749 0.376299 0.347807
O O4 0.830368 0.440253 0.368800
O O5 0.250000 0.250000 0.500000
O O6 0.215040 0.312650 0.584368
O O7 0.000000 0.279820 0.500000
O O8 0.250000 0.750000 0.000000
O O9 0.250451 0.807175 0.909096
O O10 0.500000 0.791024 0.000000
O O11 0.228768 0.180947 0.748987
O O12 0.000000 0.175924 0.634600
O O13 0.500000 0.960359 0.500000
O O14 0.500000 0.000000 0.360795
O O15 0.500000 0.207714 0.805301
O O16 0.250000 0.250000 0.799652
#
# Coordination Sequence:
#
# PCOD8267711 Si02
#       6
#    16   8   8  16   8  16
#     4   9  18  31  47  65  90 122 153 185 229 273
#     4  12  24  34  46  60  82 117 156 199 235 267
#     4   8  16  30  46  62  82 108 144 189 238 283
#     4  11  21  33  46  63  88 118 153 193 228 274
#     4   9  18  30  48  70  92 115 153 193 223 274
#     4  10  19  31  46  64  85 114 152 195 237 278
#
# _framework density 15.239602
#
# number of rings (size 3 to 8) (size 9 to 14) (size 15 to 20)
#    0.000    2.111    1.111    3.000    3.111    1.333 
#    0.000    2.222    0.000    0.000    0.000    0.000 
#    0.000    0.000    0.000    2.000    0.000    8.889 
#
# Total GULP energy -445975.628494 kJ/mol
# GULP energy per Si atom -12388.211903 kJ/mol
# Density = 1.520492 g / cm^3
# Si number density = 15.239602 Si / 1000 Ang^3
#
#
#
# Elastic Constant Matrix: (Units=GPa)
#
#
# Indices 1 2 3 4 5 6 
#
# 1 97.8361 55.4194 19.5359 0.0000 0.0000 0.0000
# 2 55.4194 85.6398 38.2504 0.0000 0.0000 0.0000
# 3 19.5359 38.2504 81.8553 0.0000 0.0000 0.0000
# 4 0.0000 0.0000 0.0000 -4.1172 0.0000 0.0000
# 5 0.0000 0.0000 0.0000 0.0000 27.8667 0.0000
# 6 0.0000 0.0000 0.0000 0.0000 0.0000 25.0806
#
#
#
# Elastic Compliance Matrix: (Units=1/GPa)
#
#
# Indices 1 2 3 4 5 6 
#
# 1 0.016246 -0.011098 0.001309 0.000000 0.000000 0.000000
# 2 -0.011098 0.022338 -0.007790 0.000000 0.000000 0.000000
# 3 0.001309 -0.007790 0.015544 0.000000 0.000000 0.000000
# 4 0.000000 0.000000 0.000000 -0.242881 0.000000 0.000000
# 5 0.000000 0.000000 0.000000 0.000000 0.035885 0.000000
# 6 0.000000 0.000000 0.000000 0.000000 0.000000 0.039871
#
#
# Mechanical properties :
#
#
# Convention : Reuss Voigt Hill
#
# Bulk Modulus (GPa) = 52.71310 54.63806 53.67558
# Shear Modulus (GPa) = -69.91534 19.90771 -25.00382
#
# Velocity S-wave (km/s) = -6.78063 3.61822 -4.05497
# Velocity P-wave (km/s) = 5.16120 7.30656 3.65704
#
# Compressibility (1/GPa) = 0.01897062
#
# Stress axis : x y z
#
# Youngs Moduli (GPa) = 61.55276 44.76763 64.33186
#
# Poissons Ratio (x) = 0.49682 -0.08418
# Poissons Ratio (y) = 0.68310 0.50112
# Poissons Ratio (z) = -0.08054 0.34872
#
# Static dielectric constant tensor:
#      x y z
#    x 3.237050 0.000000 0.000000 
#    y 0.000000 2.765520 0.000000 
#    z 0.000000 0.000000 7.297300 
# 
# 
# High freq. dielectric constant tensor:
#      x y z
#    x 1.607790 0.000000 0.000000 
#    y 0.000000 1.551540 0.000000 
#    z 0.000000 0.000000 1.563180 
# 
# From -- ./inp_files/37070.got.cif
#   From: 2010.03.12/outbox.cif.g09.slc.cpg/sg65_19_cif.got.tgz:37070.got - 2010.04.10 20:52:16.
