data_PCOD8267688
_publ_section_title
;
Structure prediction by ZEFSAII (Michael W. Deem and Ramdas Pophale) SiO2 
 PCOD8267688
Probable space group: C M M M
;
_chemical_formula_sum "Si O2"
_cell_formula_units_Z 104
_cell_length_a 10.116858
_cell_length_b 27.148048
_cell_length_c 27.768162
_cell_angle_alpha 90.000000
_cell_angle_beta 90.000000
_cell_angle_gamma 90.000000
_cell_volume 7626.607515
_symmetry_space_group_name_H-M "C M M M"
_symmetry_group_IT_number 65
_symmetry_cell_setting 'orthorhombic'
loop_
_space_group_symop_operation_xyz
x,y,z
-x,-y,z
x,-y,-z
-x,y,-z
-x,-y,-z
x,y,-z
-x,y,z
x,-y,z
1/2+x,1/2+y,z
1/2-x,1/2-y,z
1/2+x,1/2-y,-z
1/2-x,1/2+y,-z
1/2-x,1/2-y,-z
1/2+x,1/2+y,-z
1/2-x,1/2+y,z
1/2+x,1/2-y,z
loop_
_atom_site_type_symbol
_atom_site_label
_atom_site_fract_x
_atom_site_fract_y
_atom_site_fract_z
Si Si1 0.148043 0.058541 0.318231
Si Si2 0.000000 0.818852 0.942918
Si Si3 0.848308 0.557088 0.130777
Si Si4 0.648833 0.059093 0.603561
Si Si5 0.500000 0.209135 0.943068
Si Si6 0.843716 0.553671 0.500000
Si Si7 0.226387 0.363837 0.056903
Si Si8 0.852155 0.941499 0.210901
O O1 0.252397 0.080967 0.356229
O O2 0.182345 0.078054 0.264548
O O3 0.000000 0.075309 0.332679
O O4 0.157248 0.000000 0.318777
O O5 0.000000 0.763845 0.920199
O O6 0.127733 0.848907 0.925750
O O7 0.000000 0.813700 0.000000
O O8 0.817545 0.500000 0.120641
O O9 0.816131 0.585455 0.081662
O O10 0.756062 0.578801 0.173371
O O11 0.000000 0.564877 0.146341
O O12 0.500000 0.076478 0.616293
O O13 0.694259 0.080341 0.550674
O O14 0.653767 0.000000 0.601654
O O15 0.630051 0.180034 0.926102
O O16 0.500000 0.213773 0.000000
O O17 0.775018 0.500000 0.500000
O O18 0.000000 0.546547 0.500000
O O19 0.217276 0.372845 0.000000
O O20 0.000000 0.923988 0.196018
O O21 0.846935 0.000000 0.211424
#
# Coordination Sequence:
#
# PCOD8267688 Si02
#       8
#    16   8  16  16   8   8  16  16
#     4   8  13  21  31  43  57  73  98 134 174 211
#     4   9  18  30  47  67  83  99 122 150 179 216
#     4  10  20  31  42  57  77 102 129 155 183 219
#     4   8  12  17  26  38  52  72  97 126 161 204
#     4   9  16  30  49  65  83 103 120 146 183 216
#     4   7  10  16  23  33  51  73  95 119 155 205
#     4  10  19  31  45  64  84 102 125 150 179 219
#     4   8  15  27  40  50  63  87 116 147 183 217
#
# _framework density 13.636469999999999
#
# number of rings (size 3 to 8) (size 9 to 14) (size 15 to 20)
#    0.000    3.308    0.769    2.308    1.077    2.769 
#    0.000    4.231    0.000    3.692    0.000    0.000 
#    0.000    0.000    0.000    0.000    0.000    0.000 
#
# Total GULP energy -644285.645565 kJ/mol
# GULP energy per Si atom -12390.108569 kJ/mol
# Density = 1.360543 g / cm^3
# Si number density = 13.636470 Si / 1000 Ang^3
#
#
#
# Elastic Constant Matrix: (Units=GPa)
#
#
# Indices 1 2 3 4 5 6 
#
# 1 102.0135 23.1725 51.6866 0.0000 0.0000 0.0000
# 2 23.1725 29.3682 22.0291 0.0000 0.0000 0.0000
# 3 51.6866 22.0291 80.7793 0.0000 0.0000 0.0000
# 4 0.0000 0.0000 0.0000 0.9241 0.0000 0.0000
# 5 0.0000 0.0000 0.0000 0.0000 23.1610 0.0000
# 6 0.0000 0.0000 0.0000 0.0000 0.0000 10.0689
#
#
#
# Elastic Compliance Matrix: (Units=1/GPa)
#
#
# Indices 1 2 3 4 5 6 
#
# 1 0.015287 -0.005940 -0.008162 0.000000 0.000000 0.000000
# 2 -0.005940 0.045115 -0.008502 0.000000 0.000000 0.000000
# 3 -0.008162 -0.008502 0.019920 0.000000 0.000000 0.000000
# 4 0.000000 0.000000 0.000000 1.082108 0.000000 0.000000
# 5 0.000000 0.000000 0.000000 0.000000 0.043176 0.000000
# 6 0.000000 0.000000 0.000000 0.000000 0.000000 0.099316
#
#
# Mechanical properties :
#
#
# Convention : Reuss Voigt Hill
#
# Bulk Modulus (GPa) = 28.47841 45.10415 36.79128
# Shear Modulus (GPa) = 3.67152 14.51565 9.09358
#
# Velocity S-wave (km/s) = 1.64264 3.26617 2.58516
# Velocity P-wave (km/s) = 4.95248 6.88271 5.99578
#
# Compressibility (1/GPa) = 0.03511432
#
# Stress axis : x y z
#
# Youngs Moduli (GPa) = 65.41477 22.16553 50.20021
#
# Poissons Ratio (x) = 0.13166 0.40971
# Poissons Ratio (y) = 0.38857 0.42682
# Poissons Ratio (z) = 0.53388 0.18846
#
# Static dielectric constant tensor:
#      x y z
#    x 2.929380 0.000000 0.000000 
#    y 0.000000 2.222190 0.000000 
#    z 0.000000 0.000000 2.890890 
# 
# 
# High freq. dielectric constant tensor:
#      x y z
#    x 1.530600 0.000000 0.000000 
#    y 0.000000 1.448200 0.000000 
#    z 0.000000 0.000000 1.511030 
# 
# From -- ./inp_files/77074.got.cif
#   From: 2010.03.12/outbox.cif.g09.slc.cpg/sg65_39_cif.got.tgz:77074.got - 2010.04.10 20:52:16.
