data_PCOD8267258
_publ_section_title
;
Structure prediction by ZEFSAII (Michael W. Deem and Ramdas Pophale) SiO2 
 PCOD8267258
Probable space group: C M M M
;
_chemical_formula_sum "Si O2"
_cell_formula_units_Z 104
_cell_length_a 17.558160
_cell_length_b 27.083675
_cell_length_c 13.330180
_cell_angle_alpha 90.000000
_cell_angle_beta 90.000000
_cell_angle_gamma 90.000000
_cell_volume 6339.027119
_symmetry_space_group_name_H-M "C M M M"
_symmetry_group_IT_number 65
_symmetry_cell_setting 'orthorhombic'
loop_
_space_group_symop_operation_xyz
x,y,z
-x,-y,z
x,-y,-z
-x,y,-z
-x,-y,-z
x,y,-z
-x,y,z
x,-y,z
1/2+x,1/2+y,z
1/2-x,1/2-y,z
1/2+x,1/2-y,-z
1/2-x,1/2+y,-z
1/2-x,1/2-y,-z
1/2+x,1/2+y,-z
1/2-x,1/2+y,z
1/2+x,1/2-y,z
loop_
_atom_site_type_symbol
_atom_site_label
_atom_site_fract_x
_atom_site_fract_y
_atom_site_fract_z
Si Si1 0.341324 0.617278 0.115905
Si Si2 0.264247 0.441890 0.613074
Si Si3 0.587065 0.177773 0.116115
Si Si4 0.911470 0.500000 0.881325
Si Si5 0.584496 0.443052 0.278540
Si Si6 0.317451 0.907944 0.802559
Si Si7 0.673733 0.727006 0.882996
O O1 0.404570 0.587093 0.176097
O O2 0.258526 0.592406 0.130061
O O3 0.342750 0.672945 0.161724
O O4 0.364624 0.615842 0.000000
O O5 0.248138 0.424125 0.500000
O O6 0.250896 0.500000 0.624790
O O7 0.351706 0.428077 0.639921
O O8 0.205385 0.414101 0.686051
O O9 0.500000 0.167450 0.142569
O O10 0.638814 0.143710 0.186157
O O11 0.604367 0.235393 0.137430
O O12 0.604964 0.165048 0.000000
O O13 0.872124 0.451655 0.837209
O O14 0.000000 0.500000 0.849614
O O15 0.902686 0.500000 0.000000
O O16 0.500000 0.432162 0.322336
O O17 0.593480 0.500000 0.249451
O O18 0.750000 0.750000 0.833927
O O19 0.688929 0.718617 0.000000
#
# Coordination Sequence:
#
# PCOD8267258 Si02
#       7
#    16  16  16   8  16  16  16
#     4  10  19  29  47  70  99 138 168 196 236 286
#     4   9  18  34  54  72  91 122 163 208 251 287
#     4  10  19  30  47  71  99 130 164 202 238 277
#     4  11  22  32  45  69 104 139 165 191 227 281
#     4   9  19  33  47  71 102 128 161 200 240 291
#     4  11  19  32  48  71  97 127 166 202 241 288
#     4   9  16  29  45  65  94 129 169 203 235 275
#
# _framework density 16.406303000000001
#
# number of rings (size 3 to 8) (size 9 to 14) (size 15 to 20)
#    0.000    2.231    2.308    1.846    1.077    2.769 
#    0.000    3.846    0.000    2.308    0.000    8.615 
#    0.000    0.000    0.000    0.000    0.000    0.000 
#
# Total GULP energy -644731.630682 kJ/mol
# GULP energy per Si atom -12398.685205 kJ/mol
# Density = 1.636896 g / cm^3
# Si number density = 16.406303 Si / 1000 Ang^3
#
#
#
# Elastic Constant Matrix: (Units=GPa)
#
#
# Indices 1 2 3 4 5 6 
#
# 1 94.7044 35.9425 39.6911 0.0000 0.0000 0.0000
# 2 35.9425 71.9055 34.0400 0.0000 0.0000 0.0000
# 3 39.6911 34.0400 87.3160 0.0000 0.0000 0.0000
# 4 0.0000 0.0000 0.0000 9.4937 0.0000 0.0000
# 5 0.0000 0.0000 0.0000 0.0000 15.8834 0.0000
# 6 0.0000 0.0000 0.0000 0.0000 0.0000 24.8049
#
#
#
# Elastic Compliance Matrix: (Units=1/GPa)
#
#
# Indices 1 2 3 4 5 6 
#
# 1 0.014385 -0.005022 -0.004581 0.000000 0.000000 0.000000
# 2 -0.005022 0.018808 -0.005049 0.000000 0.000000 0.000000
# 3 -0.004581 -0.005049 0.015504 0.000000 0.000000 0.000000
# 4 0.000000 0.000000 0.000000 0.105333 0.000000 0.000000
# 5 0.000000 0.000000 0.000000 0.000000 0.062959 0.000000
# 6 0.000000 0.000000 0.000000 0.000000 0.000000 0.040315
#
#
# Mechanical properties :
#
#
# Convention : Reuss Voigt Hill
#
# Bulk Modulus (GPa) = 51.56885 52.58592 52.07739
# Shear Modulus (GPa) = 17.06068 19.65322 18.35695
#
# Velocity S-wave (km/s) = 3.22822 3.46483 3.34862
# Velocity P-wave (km/s) = 6.73764 6.93748 6.83829
#
# Compressibility (1/GPa) = 0.01939155
#
# Stress axis : x y z
#
# Youngs Moduli (GPa) = 69.51655 53.16974 64.50079
#
# Poissons Ratio (x) = 0.26700 0.29550
# Poissons Ratio (y) = 0.34909 0.32569
# Poissons Ratio (z) = 0.31848 0.26848
#
# Static dielectric constant tensor:
#      x y z
#    x 3.175460 0.000000 0.000000 
#    y 0.000000 3.206870 0.000000 
#    z 0.000000 0.000000 2.810220 
# 
# 
# High freq. dielectric constant tensor:
#      x y z
#    x 1.637500 0.000000 0.000000 
#    y 0.000000 1.634550 0.000000 
#    z 0.000000 0.000000 1.585890 
# 
# From -- ./inp_files/27475.got.cif
#   From: 2010.03.12/outbox.cif.g09.slc.cpg/sg65_14_cif.got.tgz:27475.got - 2010.04.10 20:52:16.
