data_PCOD8267261
_publ_section_title
;
Structure prediction by ZEFSAII (Michael W. Deem and Ramdas Pophale) SiO2 
 PCOD8267261
Probable space group: C M M M
;
_chemical_formula_sum "Si O2"
_cell_formula_units_Z 80
_cell_length_a 16.390313
_cell_length_b 27.043681
_cell_length_c 10.403289
_cell_angle_alpha 90.000000
_cell_angle_beta 90.000000
_cell_angle_gamma 90.000000
_cell_volume 4611.303585
_symmetry_space_group_name_H-M "C M M M"
_symmetry_group_IT_number 65
_symmetry_cell_setting 'orthorhombic'
loop_
_space_group_symop_operation_xyz
x,y,z
-x,-y,z
x,-y,-z
-x,y,-z
-x,-y,-z
x,y,-z
-x,y,z
x,-y,z
1/2+x,1/2+y,z
1/2-x,1/2-y,z
1/2+x,1/2-y,-z
1/2-x,1/2+y,-z
1/2-x,1/2-y,-z
1/2+x,1/2+y,-z
1/2-x,1/2+y,z
1/2+x,1/2-y,z
loop_
_atom_site_type_symbol
_atom_site_label
_atom_site_fract_x
_atom_site_fract_y
_atom_site_fract_z
Si Si1 0.500000 0.728002 0.346642
Si Si2 0.904498 0.554426 0.860052
Si Si3 0.831336 0.726638 0.647513
Si Si4 0.000000 0.114868 0.653221
Si Si5 0.680830 0.889549 0.646690
Si Si6 0.655209 0.555799 0.347921
O O1 0.500000 0.731979 0.500000
O O2 0.417602 0.754693 0.291416
O O3 0.500000 0.671384 0.297762
O O4 0.867505 0.500000 0.830541
O O5 0.886628 0.590906 0.743515
O O6 0.000000 0.550129 0.869856
O O7 0.870997 0.573069 0.000000
O O8 0.833116 0.744003 0.500000
O O9 0.750000 0.750000 0.713662
O O10 0.819685 0.668687 0.661155
O O11 0.078209 0.085684 0.708136
O O12 0.000000 0.115106 0.500000
O O13 0.660191 0.905205 0.500000
O O14 0.765991 0.912893 0.692319
O O15 0.647891 0.552660 0.500000
O O16 0.658348 0.500000 0.290793
#
# Coordination Sequence:
#
# PCOD8267261 Si02
#       6
#     8  16  16   8  16  16
#     4   9  16  25  38  55  82 120 158 189 224 275
#     4   9  19  35  51  67  92 127 162 193 232 290
#     4   9  17  28  41  62  94 127 157 192 236 286
#     4   9  15  24  39  58  87 127 161 188 228 281
#     4  10  19  29  47  72  99 124 155 199 244 281
#     4   9  16  25  38  61  92 123 154 190 233 280
#
# _framework density 17.348673999999999
#
# number of rings (size 3 to 8) (size 9 to 14) (size 15 to 20)
#    0.000    2.800    0.000    2.700    1.400    7.600 
#    0.000    1.000    0.000    0.600    0.000    0.700 
#    0.000    3.200    0.000    0.000    0.000    0.000 
#
# Total GULP energy -495660.843401 kJ/mol
# GULP energy per Si atom -12391.521085 kJ/mol
# Density = 1.730919 g / cm^3
# Si number density = 17.348674 Si / 1000 Ang^3
#
#
#
# Elastic Constant Matrix: (Units=GPa)
#
#
# Indices 1 2 3 4 5 6 
#
# 1 115.7586 62.3804 19.0966 0.0000 0.0000 0.0000
# 2 62.3804 112.9636 25.6651 0.0000 0.0000 0.0000
# 3 19.0966 25.6651 48.7499 0.0000 0.0000 0.0000
# 4 0.0000 0.0000 0.0000 5.8629 0.0000 0.0000
# 5 0.0000 0.0000 0.0000 0.0000 5.1195 0.0000
# 6 0.0000 0.0000 0.0000 0.0000 0.0000 36.8045
#
#
#
# Elastic Compliance Matrix: (Units=1/GPa)
#
#
# Indices 1 2 3 4 5 6 
#
# 1 0.012384 -0.006516 -0.001421 0.000000 0.000000 0.000000
# 2 -0.006516 0.013484 -0.004546 0.000000 0.000000 0.000000
# 3 -0.001421 -0.004546 0.023463 0.000000 0.000000 0.000000
# 4 0.000000 0.000000 0.000000 0.170565 0.000000 0.000000
# 5 0.000000 0.000000 0.000000 0.000000 0.195330 0.000000
# 6 0.000000 0.000000 0.000000 0.000000 0.000000 0.027171
#
#
# Mechanical properties :
#
#
# Convention : Reuss Voigt Hill
#
# Bulk Modulus (GPa) = 41.04285 54.63960 47.84123
# Shear Modulus (GPa) = 10.51558 20.91272 15.71415
#
# Velocity S-wave (km/s) = 2.46465 3.47571 3.01289
# Velocity P-wave (km/s) = 5.63988 6.90440 6.30393
#
# Compressibility (1/GPa) = 0.02436478
#
# Stress axis : x y z
#
# Youngs Moduli (GPa) = 80.74623 74.16423 42.62070
#
# Poissons Ratio (x) = 0.48326 0.06056
# Poissons Ratio (y) = 0.52615 0.19376
# Poissons Ratio (z) = 0.11473 0.33716
#
# Static dielectric constant tensor:
#      x y z
#    x 3.432730 0.000000 0.000000 
#    y 0.000000 3.414570 0.000000 
#    z 0.000000 0.000000 2.672290 
# 
# 
# High freq. dielectric constant tensor:
#      x y z
#    x 1.680850 0.000000 0.000000 
#    y 0.000000 1.682770 0.000000 
#    z 0.000000 0.000000 1.591080 
# 
# From -- ./inp_files/25045.got.cif
#   From: 2010.03.12/outbox.cif.g09.slc.cpg/sg65_13_cif.got.tgz:25045.got - 2010.04.10 20:52:16.
