data_PCOD8267123
_publ_section_title
;
Structure prediction by ZEFSAII (Michael W. Deem and Ramdas Pophale) SiO2 
 PCOD8267123
Probable space group: C M M M
;
_chemical_formula_sum "Si O2"
_cell_formula_units_Z 96
_cell_length_a 26.518203
_cell_length_b 28.487876
_cell_length_c 8.967362
_cell_angle_alpha 90.000000
_cell_angle_beta 90.000000
_cell_angle_gamma 90.000000
_cell_volume 6774.369221
_symmetry_space_group_name_H-M "C M M M"
_symmetry_group_IT_number 65
_symmetry_cell_setting 'orthorhombic'
loop_
_space_group_symop_operation_xyz
x,y,z
-x,-y,z
x,-y,-z
-x,y,-z
-x,-y,-z
x,y,-z
-x,y,z
x,-y,z
1/2+x,1/2+y,z
1/2-x,1/2-y,z
1/2+x,1/2-y,-z
1/2-x,1/2+y,-z
1/2-x,1/2-y,-z
1/2+x,1/2+y,-z
1/2-x,1/2+y,z
1/2+x,1/2-y,z
loop_
_atom_site_type_symbol
_atom_site_label
_atom_site_fract_x
_atom_site_fract_y
_atom_site_fract_z
Si Si1 0.147730 0.307378 0.323863
Si Si2 0.758396 0.642440 0.824444
Si Si3 0.283311 0.052877 0.326067
Si Si4 0.387342 0.947920 0.830553
Si Si5 0.942764 0.644846 0.173222
Si Si6 0.298803 0.717616 0.335696
O O1 0.153830 0.315398 0.500000
O O2 0.188911 0.339514 0.242311
O O3 0.092215 0.320958 0.269858
O O4 0.155872 0.252082 0.283650
O O5 0.748715 0.589735 0.764248
O O6 0.710784 0.674735 0.777243
O O7 0.762708 0.642440 0.000000
O O8 0.278106 0.063398 0.500000
O O9 0.341309 0.060015 0.281050
O O10 0.265401 0.000000 0.287026
O O11 0.430064 0.909707 0.794910
O O12 0.410719 0.000000 0.808079
O O13 0.367155 0.941908 0.000000
O O14 0.000000 0.653641 0.223750
O O15 0.935022 0.656906 0.000000
O O16 0.309793 0.696606 0.500000
O O17 0.250000 0.750000 0.342602
#
# Coordination Sequence:
#
# PCOD8267123 Si02
#       6
#    16  16  16  16  16  16
#     4  10  19  31  45  59  78 104 132 165 204 244
#     4  11  19  27  43  64  83 103 128 161 202 245
#     4  10  19  29  42  59  80 107 136 166 201 240
#     4   9  17  29  43  57  74  99 132 170 212 253
#     4  10  20  31  43  60  80 104 134 170 214 256
#     4   8  16  29  43  60  80 101 127 159 197 241
#
# _framework density 14.171061
#
# number of rings (size 3 to 8) (size 9 to 14) (size 15 to 20)
#    0.000    2.333    1.667    3.500    0.000    5.333 
#    0.000    1.667    0.000    0.000    0.000    3.500 
#    0.000    0.000    0.000    0.000    0.000    0.833 
#
# Total GULP energy -595024.079513 kJ/mol
# GULP energy per Si atom -12396.334990 kJ/mol
# Density = 1.413881 g / cm^3
# Si number density = 14.171061 Si / 1000 Ang^3
#
#
#
# Elastic Constant Matrix: (Units=GPa)
#
#
# Indices 1 2 3 4 5 6 
#
# 1 51.2277 52.2019 30.3276 0.0000 0.0000 0.0000
# 2 52.2019 104.3950 59.4643 0.0000 0.0000 0.0000
# 3 30.3276 59.4643 88.7818 0.0000 0.0000 0.0000
# 4 0.0000 0.0000 0.0000 21.5698 0.0000 0.0000
# 5 0.0000 0.0000 0.0000 0.0000 15.0601 0.0000
# 6 0.0000 0.0000 0.0000 0.0000 0.0000 20.8159
#
#
#
# Elastic Compliance Matrix: (Units=1/GPa)
#
#
# Indices 1 2 3 4 5 6 
#
# 1 0.039812 -0.019663 -0.000430 0.000000 0.000000 0.000000
# 2 -0.019663 0.025199 -0.010161 0.000000 0.000000 0.000000
# 3 -0.000430 -0.010161 0.018216 0.000000 0.000000 0.000000
# 4 0.000000 0.000000 0.000000 0.046361 0.000000 0.000000
# 5 0.000000 0.000000 0.000000 0.000000 0.066400 0.000000
# 6 0.000000 0.000000 0.000000 0.000000 0.000000 0.048040
#
#
# Mechanical properties :
#
#
# Convention : Reuss Voigt Hill
#
# Bulk Modulus (GPa) = 44.01489 58.71024 51.36257
# Shear Modulus (GPa) = 16.02003 18.31657 17.16830
#
# Velocity S-wave (km/s) = 3.36590 3.59908 3.48444
# Velocity P-wave (km/s) = 6.79947 7.66752 7.24650
#
# Compressibility (1/GPa) = 0.02271958
#
# Stress axis : x y z
#
# Youngs Moduli (GPa) = 25.11817 39.68403 54.89641
#
# Poissons Ratio (x) = 0.78030 0.02360
# Poissons Ratio (y) = 0.49389 0.55781
# Poissons Ratio (z) = 0.01080 0.40323
#
# Static dielectric constant tensor:
#      x y z
#    x 2.498900 0.000000 0.000000 
#    y 0.000000 3.079120 0.000000 
#    z 0.000000 0.000000 2.830940 
# 
# 
# High freq. dielectric constant tensor:
#      x y z
#    x 1.482370 0.000000 0.000000 
#    y 0.000000 1.541350 0.000000 
#    z 0.000000 0.000000 1.551280 
# 
# From -- ./inp_files/16914.got.cif
#   From: 2010.03.12/outbox.cif.g09.slc.cpg/sg65_9_cif.got.tgz:16914.got - 2010.04.10 20:52:16.
