data_PCOD8267006
_publ_section_title
;
Structure prediction by ZEFSAII (Michael W. Deem and Ramdas Pophale) SiO2 
 PCOD8267006
Probable space group: C M M M
;
_chemical_formula_sum "Si O2"
_cell_formula_units_Z 72
_cell_length_a 14.449352
_cell_length_b 29.777067
_cell_length_c 8.698307
_cell_angle_alpha 90.000000
_cell_angle_beta 90.000000
_cell_angle_gamma 90.000000
_cell_volume 3742.527678
_symmetry_space_group_name_H-M "C M M M"
_symmetry_group_IT_number 65
_symmetry_cell_setting 'orthorhombic'
loop_
_space_group_symop_operation_xyz
x,y,z
-x,-y,z
x,-y,-z
-x,y,-z
-x,-y,-z
x,y,-z
-x,y,z
x,-y,z
1/2+x,1/2+y,z
1/2-x,1/2-y,z
1/2+x,1/2-y,-z
1/2-x,1/2+y,-z
1/2-x,1/2-y,-z
1/2+x,1/2+y,-z
1/2-x,1/2+y,z
1/2+x,1/2-y,z
loop_
_atom_site_type_symbol
_atom_site_label
_atom_site_fract_x
_atom_site_fract_y
_atom_site_fract_z
Si Si1 0.310117 0.052478 0.179119
Si Si2 0.000000 0.159600 0.181831
Si Si3 0.000000 0.446648 0.672952
Si Si4 0.187177 0.875245 0.317891
Si Si5 0.000000 0.258748 0.681887
Si Si6 0.194535 0.292226 0.317871
O O1 0.408500 0.070883 0.241080
O O2 0.226306 0.076658 0.266804
O O3 0.299341 0.000000 0.214427
O O4 0.304425 0.063096 0.000000
O O5 0.911434 0.132672 0.241391
O O6 0.000000 0.210280 0.241237
O O7 0.000000 0.159900 0.000000
O O8 0.000000 0.500000 0.672238
O O9 0.000000 0.427147 0.500000
O O10 0.175208 0.873395 0.500000
O O11 0.259772 0.837866 0.256004
O O12 0.911799 0.287886 0.735278
O O13 0.000000 0.249993 0.500000
O O14 0.201657 0.291435 0.500000
O O15 0.250000 0.250000 0.248218
#
# Coordination Sequence:
#
# PCOD8267006 Si02
#       6
#    16   8   8  16   8  16
#     4  10  21  38  59  86 123 160 191 236 298 351
#     4  12  24  38  56  82 114 151 193 237 297 357
#     4   9  17  32  57  86 114 150 196 237 276 335
#     4  11  22  38  61  86 113 150 199 246 288 344
#     4  10  18  35  59  81 113 152 193 233 282 345
#     4   9  17  31  55  85 112 144 186 234 284 334
#
# _framework density 19.238334999999999
#
# number of rings (size 3 to 8) (size 9 to 14) (size 15 to 20)
#    0.000    1.889    2.222    2.667    0.000    3.556 
#    0.000    6.111    0.000    3.333    0.000    0.000 
#    0.000    0.000    0.000    0.000    0.000    0.000 
#
# Total GULP energy -446448.249677 kJ/mol
# GULP energy per Si atom -12401.340269 kJ/mol
# Density = 1.919455 g / cm^3
# Si number density = 19.238335 Si / 1000 Ang^3
#
#
#
# Elastic Constant Matrix: (Units=GPa)
#
#
# Indices 1 2 3 4 5 6 
#
# 1 181.7840 57.5005 48.2371 0.0000 0.0000 0.0000
# 2 57.5005 67.5641 27.7807 0.0000 0.0000 0.0000
# 3 48.2371 27.7807 73.9215 0.0000 0.0000 0.0000
# 4 0.0000 0.0000 0.0000 21.8256 0.0000 0.0000
# 5 0.0000 0.0000 0.0000 0.0000 27.5461 0.0000
# 6 0.0000 0.0000 0.0000 0.0000 0.0000 21.2545
#
#
#
# Elastic Compliance Matrix: (Units=1/GPa)
#
#
# Indices 1 2 3 4 5 6 
#
# 1 0.008119 -0.005596 -0.003195 0.000000 0.000000 0.000000
# 2 -0.005596 0.021363 -0.004377 0.000000 0.000000 0.000000
# 3 -0.003195 -0.004377 0.017258 0.000000 0.000000 0.000000
# 4 0.000000 0.000000 0.000000 0.045818 0.000000 0.000000
# 5 0.000000 0.000000 0.000000 0.000000 0.036303 0.000000
# 6 0.000000 0.000000 0.000000 0.000000 0.000000 0.047049
#
#
# Mechanical properties :
#
#
# Convention : Reuss Voigt Hill
#
# Bulk Modulus (GPa) = 49.01018 65.58956 57.29987
# Shear Modulus (GPa) = 23.91826 26.77533 25.34679
#
# Velocity S-wave (km/s) = 3.52982 3.73469 3.63370
# Velocity P-wave (km/s) = 6.49179 7.26391 6.88868
#
# Compressibility (1/GPa) = 0.02040392
#
# Stress axis : x y z
#
# Youngs Moduli (GPa) = 123.16983 46.81028 57.94555
#
# Poissons Ratio (x) = 0.26195 0.18513
# Poissons Ratio (y) = 0.68925 0.25362
# Poissons Ratio (z) = 0.39352 0.20488
#
# Static dielectric constant tensor:
#      x y z
#    x 3.805420 0.000000 0.000000 
#    y 0.000000 3.421810 0.000000 
#    z 0.000000 0.000000 3.356860 
# 
# 
# High freq. dielectric constant tensor:
#      x y z
#    x 1.760380 0.000000 0.000000 
#    y 0.000000 1.736550 0.000000 
#    z 0.000000 0.000000 1.733750 
# 
# From -- ./inp_files/7399.got.cif
#   From: 2010.03.12/outbox.cif.g09.slc.cpg/sg65_4_cif.got.tgz:7399.got - 2010.04.10 20:52:16.
