data_PCOD8267669
_publ_section_title
;
Structure prediction by ZEFSAII (Michael W. Deem and Ramdas Pophale) SiO2 
 PCOD8267669
Probable space group: C M M M
;
_chemical_formula_sum "Si O2"
_cell_formula_units_Z 72
_cell_length_a 14.970367
_cell_length_b 10.342672
_cell_length_c 25.567361
_cell_angle_alpha 90.000000
_cell_angle_beta 90.000000
_cell_angle_gamma 90.000000
_cell_volume 3958.686434
_symmetry_space_group_name_H-M "C M M M"
_symmetry_group_IT_number 65
_symmetry_cell_setting 'orthorhombic'
loop_
_space_group_symop_operation_xyz
x,y,z
-x,-y,z
x,-y,-z
-x,y,-z
-x,-y,-z
x,y,-z
-x,y,z
x,-y,z
1/2+x,1/2+y,z
1/2-x,1/2-y,z
1/2+x,1/2-y,-z
1/2-x,1/2+y,-z
1/2-x,1/2-y,-z
1/2+x,1/2+y,-z
1/2-x,1/2+y,z
1/2+x,1/2-y,z
loop_
_atom_site_type_symbol
_atom_site_label
_atom_site_fract_x
_atom_site_fract_y
_atom_site_fract_z
Si Si1 0.500000 0.851927 0.718629
Si Si2 0.599854 0.347289 0.941751
Si Si3 0.750000 0.750000 0.135133
Si Si4 0.000000 0.852277 0.625990
Si Si5 0.322922 0.353215 0.439169
Si Si6 0.811450 0.358706 0.235856
O O1 0.500000 0.750244 0.672203
O O2 0.585326 0.825391 0.755040
O O3 0.500000 0.000000 0.697245
O O4 0.500000 0.300760 0.926317
O O5 0.603745 0.500000 0.941932
O O6 0.669382 0.296243 0.900198
O O7 0.623561 0.295397 0.000000
O O8 0.790160 0.639445 0.173524
O O9 0.913781 0.825898 0.591074
O O10 0.000000 0.000000 0.647518
O O11 0.343178 0.331006 0.500000
O O12 0.288463 0.500000 0.429080
O O13 0.250000 0.250000 0.418932
O O14 0.787639 0.500000 0.258965
O O15 0.750000 0.250000 0.264539
#
# Coordination Sequence:
#
# PCOD8267669 Si02
#       6
#     8  16   8   8  16  16
#     4  10  22  41  55  75 109 145 174 223 281 320
#     4   9  18  32  50  76 109 140 171 210 257 313
#     4  10  19  30  58  76 104 130 181 212 266 308
#     4  10  21  36  56  82 108 145 185 222 265 321
#     4   9  18  34  56  82 113 145 181 223 268 317
#     4   9  21  37  56  77 103 134 176 222 268 315
#
# _framework density 18.187851999999999
#
# number of rings (size 3 to 8) (size 9 to 14) (size 15 to 20)
#    0.667    2.000    0.000    2.000    1.556    4.000 
#    0.000    4.444    0.000    3.333    0.000    4.667 
#    0.000    0.000    0.000    0.000    0.000    0.000 
#
# Total GULP energy -446085.439998 kJ/mol
# GULP energy per Si atom -12391.262222 kJ/mol
# Density = 1.814646 g / cm^3
# Si number density = 18.187852 Si / 1000 Ang^3
#
#
#
# Elastic Constant Matrix: (Units=GPa)
#
#
# Indices 1 2 3 4 5 6 
#
# 1 149.7428 82.1549 51.9180 0.0000 0.0000 0.0000
# 2 82.1549 107.9845 45.1073 0.0000 0.0000 0.0000
# 3 51.9180 45.1073 63.1344 0.0000 0.0000 0.0000
# 4 0.0000 0.0000 0.0000 26.6369 0.0000 0.0000
# 5 0.0000 0.0000 0.0000 0.0000 32.4466 0.0000
# 6 0.0000 0.0000 0.0000 0.0000 0.0000 31.9668
#
#
#
# Elastic Compliance Matrix: (Units=1/GPa)
#
#
# Indices 1 2 3 4 5 6 
#
# 1 0.012462 -0.007412 -0.004952 0.000000 0.000000 0.000000
# 2 -0.007412 0.017609 -0.006486 0.000000 0.000000 0.000000
# 3 -0.004952 -0.006486 0.024545 0.000000 0.000000 0.000000
# 4 0.000000 0.000000 0.000000 0.037542 0.000000 0.000000
# 5 0.000000 0.000000 0.000000 0.000000 0.030820 0.000000
# 6 0.000000 0.000000 0.000000 0.000000 0.000000 0.031282
#
#
# Mechanical properties :
#
#
# Convention : Reuss Voigt Hill
#
# Bulk Modulus (GPa) = 59.11493 75.46912 67.29203
# Shear Modulus (GPa) = 25.30379 27.65549 26.47964
#
# Velocity S-wave (km/s) = 3.73399 3.90365 3.81976
# Velocity P-wave (km/s) = 7.15285 7.86780 7.51883
#
# Compressibility (1/GPa) = 0.01691620
#
# Stress axis : x y z
#
# Youngs Moduli (GPa) = 80.24537 56.78856 40.74136
#
# Poissons Ratio (x) = 0.42094 0.20175
# Poissons Ratio (y) = 0.59482 0.26423
# Poissons Ratio (z) = 0.39737 0.36831
#
# Static dielectric constant tensor:
#      x y z
#    x 3.819970 0.000000 0.000000 
#    y 0.000000 3.371600 0.000000 
#    z 0.000000 0.000000 5.374380 
# 
# 
# High freq. dielectric constant tensor:
#      x y z
#    x 1.715570 0.000000 0.000000 
#    y 0.000000 1.699240 0.000000 
#    z 0.000000 0.000000 1.693130 
# 
# From -- ./inp_files/77573.got.cif
#   From: 2010.03.12/outbox.cif.g09.slc.cpg/sg65_39_cif.got.tgz:77573.got - 2010.04.10 20:52:16.
