data_PCOD8267177
_publ_section_title
;
Structure prediction by ZEFSAII (Michael W. Deem and Ramdas Pophale) SiO2 
 PCOD8267177
Probable space group: C M M M
;
_chemical_formula_sum "Si O2"
_cell_formula_units_Z 112
_cell_length_a 26.234378
_cell_length_b 13.656845
_cell_length_c 18.752139
_cell_angle_alpha 90.000000
_cell_angle_beta 90.000000
_cell_angle_gamma 90.000000
_cell_volume 6718.494496
_symmetry_space_group_name_H-M "C M M M"
_symmetry_group_IT_number 65
_symmetry_cell_setting 'orthorhombic'
loop_
_space_group_symop_operation_xyz
x,y,z
-x,-y,z
x,-y,-z
-x,y,-z
-x,-y,-z
x,y,-z
-x,y,z
x,-y,z
1/2+x,1/2+y,z
1/2-x,1/2-y,z
1/2+x,1/2-y,-z
1/2-x,1/2+y,-z
1/2-x,1/2-y,-z
1/2+x,1/2+y,-z
1/2-x,1/2+y,z
1/2+x,1/2-y,z
loop_
_atom_site_type_symbol
_atom_site_label
_atom_site_fract_x
_atom_site_fract_y
_atom_site_fract_z
Si Si1 0.808217 0.776734 0.077478
Si Si2 0.387155 0.887654 0.081334
Si Si3 0.863797 0.257570 0.309979
Si Si4 0.182876 0.890366 0.211186
Si Si5 0.331537 0.386786 0.417393
Si Si6 0.234072 0.609502 0.322196
Si Si7 0.941636 0.613821 0.773437
O O1 0.750000 0.750000 0.078303
O O2 0.838755 0.679266 0.099560
O O3 0.816602 0.869535 0.127674
O O4 0.826301 0.812340 0.000000
O O5 0.428107 0.863997 0.143451
O O6 0.369043 0.000000 0.087301
O O7 0.408344 0.868161 0.000000
O O8 0.856982 0.184943 0.243992
O O9 0.872218 0.187289 0.379460
O O10 0.813201 0.318851 0.327400
O O11 0.910341 0.326931 0.287157
O O12 0.238886 0.875564 0.245503
O O13 0.163392 0.000000 0.225531
O O14 0.329139 0.360054 0.500000
O O15 0.348118 0.500000 0.405141
O O16 0.275739 0.368740 0.383455
O O17 0.212691 0.500000 0.330237
O O18 0.932220 0.500000 0.757077
O O19 0.000000 0.643982 0.762914
#
# Coordination Sequence:
#
# PCOD8267177 Si02
#       7
#    16  16  16  16  16  16  16
#     4  10  19  30  43  65  97 132 168 200 236 288
#     4   9  18  33  52  73  98 128 164 208 256 301
#     4  11  18  31  51  71  99 133 165 196 247 298
#     4  10  19  29  43  66  95 127 166 202 235 284
#     4   9  18  32  51  78 109 135 163 200 236 278
#     4   9  18  29  45  71 102 134 164 196 237 288
#     4  10  21  35  53  77 100 124 162 213 261 301
#
# _framework density 16.670400999999998
#
# number of rings (size 3 to 8) (size 9 to 14) (size 15 to 20)
#    0.000    2.286    1.429    4.286    0.000    2.286 
#    0.000    2.857    0.000    3.429    0.000    2.000 
#    0.000    2.286    0.000    0.000    0.000    0.000 
#
# Total GULP energy -693893.426548 kJ/mol
# GULP energy per Si atom -12390.954046 kJ/mol
# Density = 1.663246 g / cm^3
# Si number density = 16.670401 Si / 1000 Ang^3
#
#
#
# Elastic Constant Matrix: (Units=GPa)
#
#
# Indices 1 2 3 4 5 6 
#
# 1 76.3854 44.8945 40.4699 0.0000 0.0000 0.0000
# 2 44.8945 92.7284 54.1156 0.0000 0.0000 0.0000
# 3 40.4699 54.1156 123.2445 0.0000 0.0000 0.0000
# 4 0.0000 0.0000 0.0000 30.5874 0.0000 0.0000
# 5 0.0000 0.0000 0.0000 0.0000 -4.7448 0.0000
# 6 0.0000 0.0000 0.0000 0.0000 0.0000 20.4009
#
#
#
# Elastic Compliance Matrix: (Units=1/GPa)
#
#
# Indices 1 2 3 4 5 6 
#
# 1 0.019074 -0.007502 -0.002969 0.000000 0.000000 0.000000
# 2 -0.007502 0.017450 -0.005199 0.000000 0.000000 0.000000
# 3 -0.002969 -0.005199 0.011372 0.000000 0.000000 0.000000
# 4 0.000000 0.000000 0.000000 0.032693 0.000000 0.000000
# 5 0.000000 0.000000 0.000000 0.000000 -0.210756 0.000000
# 6 0.000000 0.000000 0.000000 0.000000 0.000000 0.049017
#
#
# Mechanical properties :
#
#
# Convention : Reuss Voigt Hill
#
# Bulk Modulus (GPa) = 60.40155 63.47982 61.94068
# Shear Modulus (GPa) = -112.88975 19.44059 -46.72458
#
# Velocity S-wave (km/s) = -8.23806 3.41863 -5.29994
# Velocity P-wave (km/s) = 7.36044 7.33108 0.46441
#
# Compressibility (1/GPa) = 0.01655587
#
# Stress axis : x y z
#
# Youngs Moduli (GPa) = 52.42826 57.30618 87.93706
#
# Poissons Ratio (x) = 0.42989 0.26111
# Poissons Ratio (y) = 0.39330 0.45717
# Poissons Ratio (z) = 0.15568 0.29793
#
# Static dielectric constant tensor:
#      x y z
#    x 2.749240 0.000000 0.000000 
#    y 0.000000 3.356110 0.000000 
#    z 0.000000 0.000000 3.393970 
# 
# 
# High freq. dielectric constant tensor:
#      x y z
#    x 1.589720 0.000000 0.000000 
#    y 0.000000 1.654840 0.000000 
#    z 0.000000 0.000000 1.646470 
# 
# From -- ./inp_files/65419.got.cif
#   From: 2010.03.12/outbox.cif.g09.slc.cpg/sg65_33_cif.got.tgz:65419.got - 2010.04.10 20:52:16.
