data_PCOD8267067
_publ_section_title
;
Structure prediction by ZEFSAII (Michael W. Deem and Ramdas Pophale) SiO2 
 PCOD8267067
Probable space group: C M M M
;
_chemical_formula_sum "Si O2"
_cell_formula_units_Z 80
_cell_length_a 26.851152
_cell_length_b 16.820492
_cell_length_c 11.872916
_cell_angle_alpha 90.000000
_cell_angle_beta 90.000000
_cell_angle_gamma 90.000000
_cell_volume 5362.397613
_symmetry_space_group_name_H-M "C M M M"
_symmetry_group_IT_number 65
_symmetry_cell_setting 'orthorhombic'
loop_
_space_group_symop_operation_xyz
x,y,z
-x,-y,z
x,-y,-z
-x,y,-z
-x,-y,-z
x,y,-z
-x,y,z
x,-y,z
1/2+x,1/2+y,z
1/2-x,1/2-y,z
1/2+x,1/2-y,-z
1/2-x,1/2+y,-z
1/2-x,1/2-y,-z
1/2+x,1/2+y,-z
1/2-x,1/2+y,z
1/2+x,1/2-y,z
loop_
_atom_site_type_symbol
_atom_site_label
_atom_site_fract_x
_atom_site_fract_y
_atom_site_fract_z
Si Si1 0.834047 0.408586 0.000000
Si Si2 0.715600 0.408294 0.000000
Si Si3 0.557335 0.908370 0.370173
Si Si4 0.143846 0.339807 0.236388
Si Si5 0.294715 0.307233 0.789265
Si Si6 0.266084 0.908403 0.628993
O O1 0.774842 0.398687 0.000000
O O2 0.857972 0.366482 0.892556
O O3 0.849873 0.500000 0.000000
O O4 0.692198 0.367208 0.889985
O O5 0.699621 0.500000 0.000000
O O6 0.570177 0.891267 0.500000
O O7 0.500000 0.888843 0.345129
O O8 0.589984 0.851177 0.291740
O O9 0.569104 0.000000 0.341555
O O10 0.157696 0.246363 0.242828
O O11 0.183407 0.393745 0.302968
O O12 0.250000 0.250000 0.830248
O O13 0.278827 0.356103 0.678581
O O14 0.274558 0.883849 0.500000
O O15 0.251076 0.000000 0.641557
#
# Coordination Sequence:
#
# PCOD8267067 Si02
#       6
#     8   8  16  16  16  16
#     4  11  19  27  44  64  85 119 155 181 210 254
#     4  11  18  30  46  60  87 124 158 183 210 252
#     4   9  18  33  51  68  87 115 152 188 219 258
#     4  11  20  29  45  64  90 116 148 185 224 260
#     4  10  19  28  41  62  89 116 148 186 218 255
#     4  10  19  29  41  59  86 119 151 180 215 262
#
# _framework density 14.918699
#
# number of rings (size 3 to 8) (size 9 to 14) (size 15 to 20)
#    0.000    1.800    4.000    4.500    0.000    6.000 
#    0.000    0.500    0.000    1.800    0.000    0.000 
#    0.000    4.000    0.000   11.000    0.000    0.000 
#
# Total GULP energy -496104.803179 kJ/mol
# GULP energy per Si atom -12402.620079 kJ/mol
# Density = 1.488474 g / cm^3
# Si number density = 14.918699 Si / 1000 Ang^3
#
#
#
# Elastic Constant Matrix: (Units=GPa)
#
#
# Indices 1 2 3 4 5 6 
#
# 1 71.5936 39.9442 44.2146 0.0000 0.0000 0.0000
# 2 39.9442 91.4187 50.1466 0.0000 0.0000 0.0000
# 3 44.2146 50.1466 119.1268 0.0000 0.0000 0.0000
# 4 0.0000 0.0000 0.0000 23.9085 0.0000 0.0000
# 5 0.0000 0.0000 0.0000 0.0000 9.8472 0.0000
# 6 0.0000 0.0000 0.0000 0.0000 0.0000 20.3676
#
#
#
# Elastic Compliance Matrix: (Units=1/GPa)
#
#
# Indices 1 2 3 4 5 6 
#
# 1 0.020529 -0.006229 -0.004998 0.000000 0.000000 0.000000
# 2 -0.006229 0.016113 -0.004471 0.000000 0.000000 0.000000
# 3 -0.004998 -0.004471 0.012131 0.000000 0.000000 0.000000
# 4 0.000000 0.000000 0.000000 0.041826 0.000000 0.000000
# 5 0.000000 0.000000 0.000000 0.000000 0.101552 0.000000
# 6 0.000000 0.000000 0.000000 0.000000 0.000000 0.049097
#
#
# Mechanical properties :
#
#
# Convention : Reuss Voigt Hill
#
# Bulk Modulus (GPa) = 57.54047 61.19441 59.36744
# Shear Modulus (GPa) = 17.95744 20.68024 19.31884
#
# Velocity S-wave (km/s) = 3.47318 3.72720 3.60243
# Velocity P-wave (km/s) = 7.39845 7.72207 7.56199
#
# Compressibility (1/GPa) = 0.01737907
#
# Stress axis : x y z
#
# Youngs Moduli (GPa) = 48.71094 62.06313 82.43129
#
# Poissons Ratio (x) = 0.38657 0.41196
# Poissons Ratio (y) = 0.30340 0.36854
# Poissons Ratio (z) = 0.24344 0.27747
#
# Static dielectric constant tensor:
#      x y z
#    x 2.554650 0.000000 0.000000 
#    y 0.000000 2.977610 0.000000 
#    z 0.000000 0.000000 3.025100 
# 
# 
# High freq. dielectric constant tensor:
#      x y z
#    x 1.520130 0.000000 0.000000 
#    y 0.000000 1.569140 0.000000 
#    z 0.000000 0.000000 1.586620 
# 
# From -- ./inp_files/27303.got.cif
#   From: 2010.03.12/outbox.cif.g09.slc.cpg/sg65_14_cif.got.tgz:27303.got - 2010.04.10 20:52:16.
