data_PCOD8267269
_publ_section_title
;
Structure prediction by ZEFSAII (Michael W. Deem and Ramdas Pophale) SiO2 
 PCOD8267269
Probable space group: C M M M
;
_chemical_formula_sum "Si O2"
_cell_formula_units_Z 104
_cell_length_a 14.360035
_cell_length_b 20.438962
_cell_length_c 20.158447
_cell_angle_alpha 90.000000
_cell_angle_beta 90.000000
_cell_angle_gamma 90.000000
_cell_volume 5916.589055
_symmetry_space_group_name_H-M "C M M M"
_symmetry_group_IT_number 65
_symmetry_cell_setting 'orthorhombic'
loop_
_space_group_symop_operation_xyz
x,y,z
-x,-y,z
x,-y,-z
-x,y,-z
-x,-y,-z
x,y,-z
-x,y,z
x,-y,z
1/2+x,1/2+y,z
1/2-x,1/2-y,z
1/2+x,1/2-y,-z
1/2-x,1/2+y,-z
1/2-x,1/2-y,-z
1/2+x,1/2+y,-z
1/2-x,1/2+y,z
1/2+x,1/2-y,z
loop_
_atom_site_type_symbol
_atom_site_label
_atom_site_fract_x
_atom_site_fract_y
_atom_site_fract_z
Si Si1 0.606268 0.072567 0.726809
Si Si2 0.101759 0.924126 0.072562
Si Si3 0.724221 0.610195 0.806302
Si Si4 0.892378 0.293967 0.668714
Si Si5 0.390954 0.425156 0.323397
Si Si6 0.889744 0.816178 0.573492
Si Si7 0.750000 0.250000 0.227273
O O1 0.500000 0.081236 0.751610
O O2 0.673106 0.081193 0.790686
O O3 0.629561 0.127567 0.670032
O O4 0.621012 0.000000 0.695739
O O5 0.183962 0.914650 0.124992
O O6 0.000000 0.895109 0.095152
O O7 0.088392 0.000000 0.063804
O O8 0.129115 0.894352 0.000000
O O9 0.658649 0.590077 0.745493
O O10 0.731100 0.687580 0.817829
O O11 0.860967 0.256086 0.601613
O O12 0.841359 0.259564 0.728944
O O13 0.000000 0.280410 0.680888
O O14 0.500000 0.414626 0.311858
O O15 0.369684 0.500000 0.345529
O O16 0.352365 0.374902 0.379381
O O17 0.845899 0.823403 0.500000
O O18 0.000000 0.822124 0.568744
#
# Coordination Sequence:
#
# PCOD8267269 Si02
#       7
#    16  16  16  16  16  16   8
#     4   9  18  31  49  71  92 119 162 216 262 289
#     4   9  18  32  51  78 109 137 162 188 231 295
#     4  11  19  31  51  73  99 131 163 205 245 287
#     4   9  17  31  48  67  95 125 158 201 246 295
#     4  10  19  29  47  76 103 127 159 199 245 298
#     4   9  17  30  47  67  97 135 164 191 237 299
#     4  10  20  30  48  74  96 122 166 204 242 290
#
# _framework density 17.577696
#
# number of rings (size 3 to 8) (size 9 to 14) (size 15 to 20)
#    0.000    2.462    1.538    2.308    0.000    2.154 
#    0.000    2.308    0.000    0.923    0.000    5.385 
#    0.000    0.000    0.000    0.000    0.000    0.000 
#
# Total GULP energy -644195.574532 kJ/mol
# GULP energy per Si atom -12388.376433 kJ/mol
# Density = 1.753769 g / cm^3
# Si number density = 17.577696 Si / 1000 Ang^3
#
#
#
# Elastic Constant Matrix: (Units=GPa)
#
#
# Indices 1 2 3 4 5 6 
#
# 1 64.4872 33.2353 41.0197 0.0000 0.0000 0.0000
# 2 33.2353 127.7136 49.1813 0.0000 0.0000 0.0000
# 3 41.0197 49.1813 114.0794 0.0000 0.0000 0.0000
# 4 0.0000 0.0000 0.0000 20.2526 0.0000 0.0000
# 5 0.0000 0.0000 0.0000 0.0000 -0.4791 0.0000
# 6 0.0000 0.0000 0.0000 0.0000 0.0000 19.0700
#
#
#
# Elastic Compliance Matrix: (Units=1/GPa)
#
#
# Indices 1 2 3 4 5 6 
#
# 1 0.021067 -0.003076 -0.006249 0.000000 0.000000 0.000000
# 2 -0.003076 0.009838 -0.003135 0.000000 0.000000 0.000000
# 3 -0.006249 -0.003135 0.012364 0.000000 0.000000 0.000000
# 4 0.000000 0.000000 0.000000 0.049376 0.000000 0.000000
# 5 0.000000 0.000000 0.000000 0.000000 -2.087365 0.000000
# 6 0.000000 0.000000 0.000000 0.000000 0.000000 0.052438
#
#
# Mechanical properties :
#
#
# Convention : Reuss Voigt Hill
#
# Bulk Modulus (GPa) = 54.49882 61.46142 57.98012
# Shear Modulus (GPa) = -2.61610 19.95829 8.67110
#
# Velocity S-wave (km/s) = -1.22128 3.37327 2.22345
# Velocity P-wave (km/s) = 5.39288 7.08614 6.29669
#
# Compressibility (1/GPa) = 0.01834902
#
# Stress axis : x y z
#
# Youngs Moduli (GPa) = 47.46715 101.64860 80.87697
#
# Poissons Ratio (x) = 0.31266 0.50541
# Poissons Ratio (y) = 0.14601 0.25357
# Poissons Ratio (z) = 0.29663 0.31869
#
# Static dielectric constant tensor:
#      x y z
#    x 3.399880 0.000000 0.000000 
#    y 0.000000 3.688690 0.000000 
#    z 0.000000 0.000000 3.122560 
# 
# 
# High freq. dielectric constant tensor:
#      x y z
#    x 1.683550 0.000000 0.000000 
#    y 0.000000 1.687540 0.000000 
#    z 0.000000 0.000000 1.638520 
# 
# From -- ./inp_files/62827.got.cif
#   From: 2010.03.12/outbox.cif.g09.slc.cpg/sg65_32_cif.got.tgz:62827.got - 2010.04.10 20:52:16.
