data_PCOD8267794
_publ_section_title
;
Structure prediction by ZEFSAII (Michael W. Deem and Ramdas Pophale) SiO2 
 PCOD8267794
Probable space group: C M M M
;
_chemical_formula_sum "Si O2"
_cell_formula_units_Z 80
_cell_length_a 18.581870
_cell_length_b 9.387701
_cell_length_c 25.931807
_cell_angle_alpha 90.000000
_cell_angle_beta 90.000000
_cell_angle_gamma 90.000000
_cell_volume 4523.571371
_symmetry_space_group_name_H-M "C M M M"
_symmetry_group_IT_number 65
_symmetry_cell_setting 'orthorhombic'
loop_
_space_group_symop_operation_xyz
x,y,z
-x,-y,z
x,-y,-z
-x,y,-z
-x,-y,-z
x,y,-z
-x,y,z
x,-y,z
1/2+x,1/2+y,z
1/2-x,1/2-y,z
1/2+x,1/2-y,-z
1/2-x,1/2+y,-z
1/2-x,1/2-y,-z
1/2+x,1/2+y,-z
1/2-x,1/2+y,z
1/2+x,1/2-y,z
loop_
_atom_site_type_symbol
_atom_site_label
_atom_site_fract_x
_atom_site_fract_y
_atom_site_fract_z
Si Si1 0.675894 0.166836 0.500000
Si Si2 0.585688 0.660235 0.302685
Si Si3 0.416914 0.165459 0.401407
Si Si4 0.414232 0.840989 0.792195
Si Si5 0.079829 0.669159 0.905473
Si Si6 0.324308 0.830255 0.000000
O O1 0.750000 0.250000 0.500000
O O2 0.629834 0.211331 0.549674
O O3 0.692584 0.000000 0.500000
O O4 0.500000 0.660883 0.300632
O O5 0.616107 0.500000 0.304832
O O6 0.612153 0.744539 0.353058
O O7 0.617117 0.736393 0.251564
O O8 0.500000 0.200268 0.413889
O O9 0.407478 0.000000 0.387723
O O10 0.500000 0.846104 0.789924
O O11 0.391033 0.783729 0.848916
O O12 0.383757 0.000000 0.782266
O O13 0.074523 0.500000 0.906744
O O14 0.000000 0.732664 0.915623
O O15 0.133039 0.723839 0.949631
O O16 0.250000 0.750000 0.000000
O O17 0.313156 0.000000 0.000000
#
# Coordination Sequence:
#
# PCOD8267794 Si02
#       6
#     8  16  16  16  16   8
#     4  10  21  35  51  71  95 124 156 192 234 276
#     4   9  16  25  40  67  99 124 147 182 231 278
#     4   9  17  31  51  72  94 123 159 193 223 264
#     4   8  13  23  41  65  90 115 147 188 230 270
#     4   8  14  26  47  71  90 115 156 197 226 261
#     4  10  19  31  47  67  93 122 152 190 234 278
#
# _framework density 17.685141999999999
#
# number of rings (size 3 to 8) (size 9 to 14) (size 15 to 20)
#    0.000    3.200    0.000    2.400    0.000    5.600 
#    0.000    1.000    0.000    6.600    0.000    2.800 
#    0.000    0.000    0.000    0.000    0.000    0.000 
#
# Total GULP energy -495831.499462 kJ/mol
# GULP energy per Si atom -12395.787487 kJ/mol
# Density = 1.764489 g / cm^3
# Si number density = 17.685142 Si / 1000 Ang^3
#
#
#
# Elastic Constant Matrix: (Units=GPa)
#
#
# Indices 1 2 3 4 5 6 
#
# 1 65.6995 34.2010 64.4915 0.0000 0.0000 0.0000
# 2 34.2010 76.4231 76.5225 0.0000 0.0000 0.0000
# 3 64.4915 76.5225 198.9384 0.0000 0.0000 0.0000
# 4 0.0000 0.0000 0.0000 16.1903 0.0000 0.0000
# 5 0.0000 0.0000 0.0000 0.0000 2.2798 0.0000
# 6 0.0000 0.0000 0.0000 0.0000 0.0000 20.4394
#
#
#
# Elastic Compliance Matrix: (Units=1/GPa)
#
#
# Indices 1 2 3 4 5 6 
#
# 1 0.023302 -0.004659 -0.005762 0.000000 0.000000 0.000000
# 2 -0.004659 0.022213 -0.007034 0.000000 0.000000 0.000000
# 3 -0.005762 -0.007034 0.009600 0.000000 0.000000 0.000000
# 4 0.000000 0.000000 0.000000 0.061765 0.000000 0.000000
# 5 0.000000 0.000000 0.000000 0.000000 0.438636 0.000000
# 6 0.000000 0.000000 0.000000 0.000000 0.000000 0.048925
#
#
# Mechanical properties :
#
#
# Convention : Reuss Voigt Hill
#
# Bulk Modulus (GPa) = 49.49050 76.83233 63.16141
# Shear Modulus (GPa) = 7.73889 18.83829 13.28859
#
# Velocity S-wave (km/s) = 2.09414 3.26729 2.74414
# Velocity P-wave (km/s) = 5.82170 7.60082 6.76996
#
# Compressibility (1/GPa) = 0.02020590
#
# Stress axis : x y z
#
# Youngs Moduli (GPa) = 42.91467 45.01826 104.16284
#
# Poissons Ratio (x) = 0.20972 0.60019
# Poissons Ratio (y) = 0.19992 0.73270
# Poissons Ratio (z) = 0.24728 0.31667
#
# Static dielectric constant tensor:
#      x y z
#    x 2.863290 0.000000 0.000000 
#    y 0.000000 3.162940 0.000000 
#    z 0.000000 0.000000 3.699360 
# 
# 
# High freq. dielectric constant tensor:
#      x y z
#    x 1.632830 0.000000 0.000000 
#    y 0.000000 1.660370 0.000000 
#    z 0.000000 0.000000 1.704970 
# 
# From -- ./inp_files/75284.got.cif
#   From: 2010.03.12/outbox.cif.g09.slc.cpg/sg65_38_cif.got.tgz:75284.got - 2010.04.10 20:52:16.
