data_PCOD8267379
_publ_section_title
;
Structure prediction by ZEFSAII (Michael W. Deem and Ramdas Pophale) SiO2 
 PCOD8267379
Probable space group: C M M M
;
_chemical_formula_sum "Si O2"
_cell_formula_units_Z 80
_cell_length_a 27.318909
_cell_length_b 9.276746
_cell_length_c 18.890799
_cell_angle_alpha 90.000000
_cell_angle_beta 90.000000
_cell_angle_gamma 90.000000
_cell_volume 4787.506143
_symmetry_space_group_name_H-M "C M M M"
_symmetry_group_IT_number 65
_symmetry_cell_setting 'orthorhombic'
loop_
_space_group_symop_operation_xyz
x,y,z
-x,-y,z
x,-y,-z
-x,y,-z
-x,-y,-z
x,y,-z
-x,y,z
x,-y,z
1/2+x,1/2+y,z
1/2-x,1/2-y,z
1/2+x,1/2-y,-z
1/2-x,1/2+y,-z
1/2-x,1/2-y,-z
1/2+x,1/2+y,-z
1/2-x,1/2+y,z
1/2+x,1/2-y,z
loop_
_atom_site_type_symbol
_atom_site_label
_atom_site_fract_x
_atom_site_fract_y
_atom_site_fract_z
Si Si1 0.445441 0.832602 0.200799
Si Si2 0.105097 0.832734 0.919858
Si Si3 0.201315 0.667027 0.578827
Si Si4 0.201953 0.168502 0.836607
Si Si5 0.148707 0.667428 0.717268
O O1 0.500000 0.790095 0.226503
O O2 0.433469 0.750683 0.128429
O O3 0.407293 0.791121 0.263183
O O4 0.441886 0.000000 0.182704
O O5 0.160390 0.803367 0.894855
O O6 0.092163 0.000000 0.913867
O O7 0.099924 0.776966 0.000000
O O8 0.183848 0.713958 0.500000
O O9 0.215079 0.500000 0.580372
O O10 0.250000 0.750000 0.601898
O O11 0.157769 0.701040 0.634327
O O12 0.250000 0.250000 0.864500
O O13 0.185972 0.235505 0.761762
O O14 0.212849 0.000000 0.825941
O O15 0.159131 0.500000 0.734747
#
# Coordination Sequence:
#
# PCOD8267379 Si02
#       5
#    16  16  16  16  16
#     4   9  18  32  49  68  88 112 145 184 225 266
#     4   9  19  34  48  64  88 116 146 181 221 265
#     4   9  17  28  43  65  92 120 148 177 211 253
#     4  10  19  30  45  65  89 117 149 182 216 258
#     4   9  17  30  47  65  88 118 149 182 219 259
#
# _framework density 16.710160999999999
#
# number of rings (size 3 to 8) (size 9 to 14) (size 15 to 20)
#    0.000    2.800    0.000    1.200    0.000    4.800 
#    0.000    2.000    0.000    0.600    0.000    4.200 
#    0.000    0.000    0.000   15.000    0.000   15.600 
#
# Total GULP energy -495935.878642 kJ/mol
# GULP energy per Si atom -12398.396966 kJ/mol
# Density = 1.667213 g / cm^3
# Si number density = 16.710161 Si / 1000 Ang^3
#
#
#
# Elastic Constant Matrix: (Units=GPa)
#
#
# Indices 1 2 3 4 5 6 
#
# 1 108.3018 37.2563 59.4625 0.0000 0.0000 0.0000
# 2 37.2563 49.3589 33.2868 0.0000 0.0000 0.0000
# 3 59.4625 33.2868 124.2407 0.0000 0.0000 0.0000
# 4 0.0000 0.0000 0.0000 21.9394 0.0000 0.0000
# 5 0.0000 0.0000 0.0000 0.0000 17.5752 0.0000
# 6 0.0000 0.0000 0.0000 0.0000 0.0000 23.7444
#
#
#
# Elastic Compliance Matrix: (Units=1/GPa)
#
#
# Indices 1 2 3 4 5 6 
#
# 1 0.014578 -0.007687 -0.004917 0.000000 0.000000 0.000000
# 2 -0.007687 0.028781 -0.004032 0.000000 0.000000 0.000000
# 3 -0.004917 -0.004032 0.011483 0.000000 0.000000 0.000000
# 4 0.000000 0.000000 0.000000 0.045580 0.000000 0.000000
# 5 0.000000 0.000000 0.000000 0.000000 0.056898 0.000000
# 6 0.000000 0.000000 0.000000 0.000000 0.000000 0.042115
#
#
# Mechanical properties :
#
#
# Convention : Reuss Voigt Hill
#
# Bulk Modulus (GPa) = 46.36401 60.21252 53.28826
# Shear Modulus (GPa) = 20.84221 22.77819 21.81020
#
# Velocity S-wave (km/s) = 3.53551 3.69607 3.61668
# Velocity P-wave (km/s) = 6.66879 7.37064 7.02848
#
# Compressibility (1/GPa) = 0.02156845
#
# Stress axis : x y z
#
# Youngs Moduli (GPa) = 68.59759 34.74498 87.08757
#
# Poissons Ratio (x) = 0.26709 0.42825
# Poissons Ratio (y) = 0.52732 0.35114
# Poissons Ratio (z) = 0.33733 0.14009
#
# Static dielectric constant tensor:
#      x y z
#    x 3.199210 0.000000 0.000000 
#    y 0.000000 3.185110 0.000000 
#    z 0.000000 0.000000 3.209110 
# 
# 
# High freq. dielectric constant tensor:
#      x y z
#    x 1.633880 0.000000 0.000000 
#    y 0.000000 1.645670 0.000000 
#    z 0.000000 0.000000 1.634920 
# 
# From -- ./inp_files/49856.got.cif
#   From: 2010.03.12/outbox.cif.g09.slc.cpg/sg65_25_cif.got.tgz:49856.got - 2010.04.10 20:52:16.
