data_PCOD8267637
_publ_section_title
;
Structure prediction by ZEFSAII (Michael W. Deem and Ramdas Pophale) SiO2 
 PCOD8267637
Probable space group: C M M M
;
_chemical_formula_sum "Si O2"
_cell_formula_units_Z 80
_cell_length_a 28.671140
_cell_length_b 18.922238
_cell_length_c 7.859425
_cell_angle_alpha 90.000000
_cell_angle_beta 90.000000
_cell_angle_gamma 90.000000
_cell_volume 4263.912029
_symmetry_space_group_name_H-M "C M M M"
_symmetry_group_IT_number 65
_symmetry_cell_setting 'orthorhombic'
loop_
_space_group_symop_operation_xyz
x,y,z
-x,-y,z
x,-y,-z
-x,y,-z
-x,-y,-z
x,y,-z
-x,y,z
x,-y,z
1/2+x,1/2+y,z
1/2-x,1/2-y,z
1/2+x,1/2-y,-z
1/2-x,1/2+y,-z
1/2-x,1/2-y,-z
1/2+x,1/2+y,-z
1/2-x,1/2+y,z
1/2+x,1/2-y,z
loop_
_atom_site_type_symbol
_atom_site_label
_atom_site_fract_x
_atom_site_fract_y
_atom_site_fract_z
Si Si1 0.729199 0.916088 0.186772
Si Si2 0.368578 0.921446 0.693499
Si Si3 0.947629 0.680310 0.801733
Si Si4 0.054720 0.157802 0.806345
Si Si5 0.105579 0.083664 0.500000
Si Si6 0.288726 0.415685 0.500000
O O1 0.675816 0.889329 0.206299
O O2 0.763229 0.884745 0.331536
O O3 0.728369 0.000000 0.205044
O O4 0.747531 0.892669 0.000000
O O5 0.352211 0.926738 0.500000
O O6 0.412936 0.871067 0.704773
O O7 0.381887 0.000000 0.761621
O O8 0.933497 0.760968 0.764776
O O9 0.000000 0.666138 0.734492
O O10 0.944829 0.663804 0.000000
O O11 0.081341 0.109480 0.672358
O O12 0.000000 0.143941 0.786431
O O13 0.070258 0.139128 0.000000
O O14 0.158464 0.112019 0.500000
O O15 0.103407 0.000000 0.500000
O O16 0.287538 0.500000 0.500000
#
# Coordination Sequence:
#
# PCOD8267637 Si02
#       6
#    16  16  16  16   8   8
#     4   9  16  29  50  72 101 143 181 215 260 310
#     4  10  19  30  48  78 112 142 181 231 270 303
#     4   9  19  35  53  74 103 144 189 224 260 311
#     4   9  20  39  59  80 109 145 182 214 252 316
#     4  11  23  36  58  88 112 134 166 215 277 328
#     4   9  18  33  49  75 108 132 167 215 260 320
#
# _framework density 18.762115000000001
#
# number of rings (size 3 to 8) (size 9 to 14) (size 15 to 20)
#    0.000    2.600    1.000    2.100    1.400    4.000 
#    0.000    5.000    0.000    2.400    0.000    4.200 
#    0.000    0.000    0.000    0.000    0.000    0.000 
#
# Total GULP energy -495874.900925 kJ/mol
# GULP energy per Si atom -12396.872523 kJ/mol
# Density = 1.871941 g / cm^3
# Si number density = 18.762115 Si / 1000 Ang^3
#
#
#
# Elastic Constant Matrix: (Units=GPa)
#
#
# Indices 1 2 3 4 5 6 
#
# 1 113.7385 48.7488 67.9158 0.0000 0.0000 0.0000
# 2 48.7488 57.0988 38.2089 0.0000 0.0000 0.0000
# 3 67.9158 38.2089 129.3561 0.0000 0.0000 0.0000
# 4 0.0000 0.0000 0.0000 23.1488 0.0000 0.0000
# 5 0.0000 0.0000 0.0000 0.0000 21.6671 0.0000
# 6 0.0000 0.0000 0.0000 0.0000 0.0000 -4.3477
#
#
#
# Elastic Compliance Matrix: (Units=1/GPa)
#
#
# Indices 1 2 3 4 5 6 
#
# 1 0.016634 -0.010417 -0.005657 0.000000 0.000000 0.000000
# 2 -0.010417 0.028351 -0.002905 0.000000 0.000000 0.000000
# 3 -0.005657 -0.002905 0.011559 0.000000 0.000000 0.000000
# 4 0.000000 0.000000 0.000000 0.043199 0.000000 0.000000
# 5 0.000000 0.000000 0.000000 0.000000 0.046153 0.000000
# 6 0.000000 0.000000 0.000000 0.000000 0.000000 -0.230006
#
#
# Mechanical properties :
#
#
# Convention : Reuss Voigt Hill
#
# Bulk Modulus (GPa) = 53.80115 67.77116 60.78615
# Shear Modulus (GPa) = -125.13284 17.78162 -53.67561
#
# Velocity S-wave (km/s) = -8.17553 3.08188 -5.35449
# Velocity P-wave (km/s) = 7.77054 6.99026 2.39975
#
# Compressibility (1/GPa) = 0.01858696
#
# Stress axis : x y z
#
# Youngs Moduli (GPa) = 60.11624 35.27234 86.51492
#
# Poissons Ratio (x) = 0.36741 0.48939
# Poissons Ratio (y) = 0.62620 0.25135
# Poissons Ratio (z) = 0.34006 0.10247
#
# Static dielectric constant tensor:
#      x y z
#    x 3.448070 0.000000 0.000000 
#    y 0.000000 3.071070 0.000000 
#    z 0.000000 0.000000 3.543630 
# 
# 
# High freq. dielectric constant tensor:
#      x y z
#    x 1.727000 0.000000 0.000000 
#    y 0.000000 1.687000 0.000000 
#    z 0.000000 0.000000 1.742910 
# 
# From -- ./inp_files/16093.got.cif
#   From: 2010.03.12/outbox.cif.g09.slc.cpg/sg65_9_cif.got.tgz:16093.got - 2010.04.10 20:52:16.
