data_PCOD8267653
_publ_section_title
;
Structure prediction by ZEFSAII (Michael W. Deem and Ramdas Pophale) SiO2 
 PCOD8267653
Probable space group: C M M M
;
_chemical_formula_sum "Si O2"
_cell_formula_units_Z 88
_cell_length_a 18.791501
_cell_length_b 10.191834
_cell_length_c 25.651395
_cell_angle_alpha 90.000000
_cell_angle_beta 90.000000
_cell_angle_gamma 90.000000
_cell_volume 4912.751548
_symmetry_space_group_name_H-M "C M M M"
_symmetry_group_IT_number 65
_symmetry_cell_setting 'orthorhombic'
loop_
_space_group_symop_operation_xyz
x,y,z
-x,-y,z
x,-y,-z
-x,y,-z
-x,-y,-z
x,y,-z
-x,y,z
x,-y,z
1/2+x,1/2+y,z
1/2-x,1/2-y,z
1/2+x,1/2-y,-z
1/2-x,1/2+y,-z
1/2-x,1/2-y,-z
1/2+x,1/2+y,-z
1/2-x,1/2+y,z
1/2+x,1/2-y,z
loop_
_atom_site_type_symbol
_atom_site_label
_atom_site_fract_x
_atom_site_fract_y
_atom_site_fract_z
Si Si1 0.082140 0.000000 0.722312
Si Si2 0.182261 0.153565 0.886555
Si Si3 0.083646 0.500000 0.734873
Si Si4 0.666394 0.500000 0.382673
Si Si5 0.334441 0.755667 0.441706
Si Si6 0.582531 0.261215 0.795586
Si Si7 0.810059 0.144669 0.000000
Si Si8 0.835337 0.500000 0.374217
O O1 0.102808 0.127625 0.754641
O O2 0.129737 0.000000 0.672211
O O3 0.000000 0.000000 0.706054
O O4 0.250000 0.250000 0.881965
O O5 0.123563 0.212521 0.848699
O O6 0.201076 0.000000 0.873294
O O7 0.147682 0.161284 0.945216
O O8 0.104904 0.624398 0.769667
O O9 0.130215 0.500000 0.682670
O O10 0.000000 0.500000 0.720047
O O11 0.638563 0.377179 0.415624
O O12 0.750225 0.500000 0.370977
O O13 0.365981 0.770679 0.500000
O O14 0.250000 0.750000 0.444857
O O15 0.362267 0.874076 0.406096
O O16 0.500000 0.263977 0.810148
O O17 0.750000 0.250000 0.000000
O O18 0.774472 0.000000 0.000000
#
# Coordination Sequence:
#
# PCOD8267653 Si02
#       8
#     8  16   8   8  16  16   8   8
#     4  10  20  35  53  72  99 138 173 209 262 313
#     4  10  20  34  56  83 111 141 177 219 264 312
#     4  10  22  37  53  74 103 140 175 217 270 319
#     4  10  19  30  50  76  99 127 164 209 253 305
#     4   9  17  30  49  74 101 128 160 203 255 308
#     4  10  21  37  55  74 103 142 182 220 264 318
#     4   8  16  32  51  77 110 142 172 209 262 317
#     4  10  19  32  52  74  97 127 170 211 251 303
#
# _framework density 17.912569000000001
#
# number of rings (size 3 to 8) (size 9 to 14) (size 15 to 20)
#    0.000    2.364    0.909    1.636    1.273    3.636 
#    0.000    0.455    0.000    4.909    0.000    1.909 
#    0.000    0.000    0.000    0.000    0.000    0.000 
#
# Total GULP energy -545316.359355 kJ/mol
# GULP energy per Si atom -12393.553622 kJ/mol
# Density = 1.787180 g / cm^3
# Si number density = 17.912569 Si / 1000 Ang^3
#
#
#
# Elastic Constant Matrix: (Units=GPa)
#
#
# Indices 1 2 3 4 5 6 
#
# 1 36.0800 34.1646 62.9215 0.0000 0.0000 0.0000
# 2 34.1646 171.4117 93.5202 0.0000 0.0000 0.0000
# 3 62.9215 93.5202 184.9206 0.0000 0.0000 0.0000
# 4 0.0000 0.0000 0.0000 99.4569 0.0000 0.0000
# 5 0.0000 0.0000 0.0000 0.0000 -29.4130 0.0000
# 6 0.0000 0.0000 0.0000 0.0000 0.0000 13.2177
#
#
#
# Elastic Compliance Matrix: (Units=1/GPa)
#
#
# Indices 1 2 3 4 5 6 
#
# 1 0.068372 -0.001291 -0.022612 0.000000 0.000000 0.000000
# 2 -0.001291 0.008081 -0.003648 0.000000 0.000000 0.000000
# 3 -0.022612 -0.003648 0.014946 0.000000 0.000000 0.000000
# 4 0.000000 0.000000 0.000000 0.010055 0.000000 0.000000
# 5 0.000000 0.000000 0.000000 0.000000 -0.033999 0.000000
# 6 0.000000 0.000000 0.000000 0.000000 0.000000 0.075656
#
#
# Mechanical properties :
#
#
# Convention : Reuss Voigt Hill
#
# Bulk Modulus (GPa) = 27.54872 85.95833 56.75353
# Shear Modulus (GPa) = 23.77417 30.10604 26.94011
#
# Velocity S-wave (km/s) = 3.64707 4.10411 3.88232
# Velocity P-wave (km/s) = 5.75741 8.39941 7.20062
#
# Compressibility (1/GPa) = 0.03629933
#
# Stress axis : x y z
#
# Youngs Moduli (GPa) = 14.62588 123.74137 66.90571
#
# Poissons Ratio (x) = 0.15973 1.51285
# Poissons Ratio (y) = 0.01888 0.24406
# Poissons Ratio (z) = 0.33071 0.45138
#
# Static dielectric constant tensor:
#      x y z
#    x 2.919620 0.000000 0.000000 
#    y 0.000000 3.566280 0.000000 
#    z 0.000000 0.000000 3.621620 
# 
# 
# High freq. dielectric constant tensor:
#      x y z
#    x 1.646000 0.000000 0.000000 
#    y 0.000000 1.719140 0.000000 
#    z 0.000000 0.000000 1.711950 
# 
# From -- ./inp_files/71121.got.cif
#   From: 2010.03.12/outbox.cif.g09.slc.cpg/sg65_36_cif.got.tgz:71121.got - 2010.04.10 20:52:16.
