data_PCOD8267243
_publ_section_title
;
Structure prediction by ZEFSAII (Michael W. Deem and Ramdas Pophale) SiO2 
 PCOD8267243
Probable space group: C M M M
;
_chemical_formula_sum "Si O2"
_cell_formula_units_Z 72
_cell_length_a 15.899113
_cell_length_b 8.787230
_cell_length_c 26.148320
_cell_angle_alpha 90.000000
_cell_angle_beta 90.000000
_cell_angle_gamma 90.000000
_cell_volume 3653.159894
_symmetry_space_group_name_H-M "C M M M"
_symmetry_group_IT_number 65
_symmetry_cell_setting 'orthorhombic'
loop_
_space_group_symop_operation_xyz
x,y,z
-x,-y,z
x,-y,-z
-x,y,-z
-x,-y,-z
x,y,-z
-x,y,z
x,-y,z
1/2+x,1/2+y,z
1/2-x,1/2-y,z
1/2+x,1/2-y,-z
1/2-x,1/2+y,-z
1/2-x,1/2-y,-z
1/2+x,1/2+y,-z
1/2-x,1/2+y,z
1/2+x,1/2-y,z
loop_
_atom_site_type_symbol
_atom_site_label
_atom_site_fract_x
_atom_site_fract_y
_atom_site_fract_z
Si Si1 0.500000 0.180300 0.387937
Si Si2 0.407441 0.819593 0.106725
Si Si3 0.162592 0.823237 0.439910
Si Si4 0.163674 0.680397 0.788447
Si Si5 0.000000 0.319821 0.729218
Si Si6 0.840164 0.681430 0.000000
O O1 0.583775 0.244280 0.413517
O O2 0.500000 0.232879 0.329262
O O3 0.500000 0.000000 0.393931
O O4 0.500000 0.760679 0.120959
O O5 0.346195 0.765749 0.152351
O O6 0.383896 0.753372 0.051140
O O7 0.406240 0.000000 0.103565
O O8 0.152589 0.796598 0.500000
O O9 0.250000 0.750000 0.420232
O O10 0.163465 0.000000 0.425510
O O11 0.168479 0.500000 0.783780
O O12 0.250000 0.750000 0.766501
O O13 0.084504 0.744132 0.756095
O O14 0.000000 0.500000 0.734933
O O15 0.750000 0.750000 0.000000
O O16 0.838571 0.500000 0.000000
#
# Coordination Sequence:
#
# PCOD8267243 Si02
#       6
#     8  16  16  16   8   8
#     4  11  22  36  57  84 115 152 193 236 285 334
#     4   9  16  29  51  74  97 131 173 215 257 315
#     4  10  21  38  60  87 119 154 191 231 277 332
#     4  10  19  35  57  77 101 137 179 222 271 323
#     4   9  20  38  56  76 106 145 185 224 269 326
#     4  10  19  29  45  73 103 128 166 211 259 317
#
# _framework density 19.708966
#
# number of rings (size 3 to 8) (size 9 to 14) (size 15 to 20)
#    0.000    2.222    1.111    2.333    0.000    4.889 
#    0.000    5.000    0.000    2.667    0.000    0.000 
#    0.000    0.000    0.000    0.000    0.000    0.000 
#
# Total GULP energy -446285.071333 kJ/mol
# GULP energy per Si atom -12396.807537 kJ/mol
# Density = 1.966411 g / cm^3
# Si number density = 19.708966 Si / 1000 Ang^3
#
#
#
# Elastic Constant Matrix: (Units=GPa)
#
#
# Indices 1 2 3 4 5 6 
#
# 1 191.6038 44.2652 71.6502 0.0000 0.0000 0.0000
# 2 44.2652 51.3678 42.3543 0.0000 0.0000 0.0000
# 3 71.6502 42.3543 100.4576 0.0000 0.0000 0.0000
# 4 0.0000 0.0000 0.0000 14.9527 0.0000 0.0000
# 5 0.0000 0.0000 0.0000 0.0000 6.1686 0.0000
# 6 0.0000 0.0000 0.0000 0.0000 0.0000 36.6814
#
#
#
# Elastic Compliance Matrix: (Units=1/GPa)
#
#
# Indices 1 2 3 4 5 6 
#
# 1 0.007429 -0.003116 -0.003985 0.000000 0.000000 0.000000
# 2 -0.003116 0.031148 -0.010910 0.000000 0.000000 0.000000
# 3 -0.003985 -0.010910 0.017396 0.000000 0.000000 0.000000
# 4 0.000000 0.000000 0.000000 0.066877 0.000000 0.000000
# 5 0.000000 0.000000 0.000000 0.000000 0.162111 0.000000
# 6 0.000000 0.000000 0.000000 0.000000 0.000000 0.027262
#
#
# Mechanical properties :
#
#
# Convention : Reuss Voigt Hill
#
# Bulk Modulus (GPa) = 50.12089 73.32985 61.72537
# Shear Modulus (GPa) = 14.08858 23.90452 18.99655
#
# Velocity S-wave (km/s) = 2.67653 3.48641 3.10797
# Velocity P-wave (km/s) = 5.91925 7.31395 6.65325
#
# Compressibility (1/GPa) = 0.01995176
#
# Stress axis : x y z
#
# Youngs Moduli (GPa) = 134.60393 32.10429 57.48297
#
# Poissons Ratio (x) = 0.10005 0.22907
# Poissons Ratio (y) = 0.41946 0.62714
# Poissons Ratio (z) = 0.53639 0.35026
#
# Static dielectric constant tensor:
#      x y z
#    x 3.769060 0.000000 0.000000 
#    y 0.000000 3.214950 0.000000 
#    z 0.000000 0.000000 4.664440 
# 
# 
# High freq. dielectric constant tensor:
#      x y z
#    x 1.786180 0.000000 0.000000 
#    y 0.000000 1.729680 0.000000 
#    z 0.000000 0.000000 1.772090 
# 
# From -- ./inp_files/74658.got.cif
#   From: 2010.03.12/outbox.cif.g09.slc.cpg/sg65_38_cif.got.tgz:74658.got - 2010.04.10 20:52:16.
