data_PCOD8267357
_publ_section_title
;
Structure prediction by ZEFSAII (Michael W. Deem and Ramdas Pophale) SiO2 
 PCOD8267357
Probable space group: C M M M
;
_chemical_formula_sum "Si O2"
_cell_formula_units_Z 96
_cell_length_a 14.417368
_cell_length_b 23.701960
_cell_length_c 15.474454
_cell_angle_alpha 90.000000
_cell_angle_beta 90.000000
_cell_angle_gamma 90.000000
_cell_volume 5287.928558
_symmetry_space_group_name_H-M "C M M M"
_symmetry_group_IT_number 65
_symmetry_cell_setting 'orthorhombic'
loop_
_space_group_symop_operation_xyz
x,y,z
-x,-y,z
x,-y,-z
-x,y,-z
-x,-y,-z
x,y,-z
-x,y,z
x,-y,z
1/2+x,1/2+y,z
1/2-x,1/2-y,z
1/2+x,1/2-y,-z
1/2-x,1/2+y,-z
1/2-x,1/2-y,-z
1/2+x,1/2+y,-z
1/2-x,1/2+y,z
1/2+x,1/2-y,z
loop_
_atom_site_type_symbol
_atom_site_label
_atom_site_fract_x
_atom_site_fract_y
_atom_site_fract_z
Si Si1 0.706840 0.565464 0.172285
Si Si2 0.642318 0.260596 0.596951
Si Si3 0.605616 0.566825 0.000000
Si Si4 0.105713 0.876862 0.328057
Si Si5 0.610498 0.436091 0.500000
Si Si6 0.605207 0.935332 0.249149
Si Si7 0.102930 0.363425 0.405559
O O1 0.680443 0.500000 0.188019
O O2 0.663268 0.587967 0.083030
O O3 0.664275 0.603479 0.246922
O O4 0.819692 0.572839 0.171732
O O5 0.611459 0.278338 0.500000
O O6 0.750000 0.250000 0.602671
O O7 0.611124 0.309109 0.662930
O O8 0.595454 0.201717 0.623379
O O9 0.601254 0.500000 0.000000
O O10 0.500000 0.591173 0.000000
O O11 0.148518 0.904979 0.414469
O O12 0.000000 0.895984 0.313353
O O13 0.647470 0.500000 0.500000
O O14 0.500000 0.433644 0.500000
O O15 0.500000 0.915677 0.221891
O O16 0.648793 0.900303 0.329829
O O17 0.602099 0.000000 0.278276
O O18 0.154184 0.368855 0.500000
O O19 0.000000 0.387800 0.415781
#
# Coordination Sequence:
#
# PCOD8267357 Si02
#       7
#    16  16   8  16   8  16  16
#     4  10  20  34  52  76 103 133 169 212 260 312
#     4  10  19  30  44  65  95 133 174 218 253 294
#     4   9  18  34  55  77 102 131 164 206 258 314
#     4  11  20  31  49  72 101 136 173 210 254 306
#     4   9  18  30  43  64  99 139 171 202 246 302
#     4   9  18  33  51  73 102 134 170 216 263 308
#     4   9  17  29  46  66  93 132 175 214 252 294
#
# _framework density 18.154557
#
# number of rings (size 3 to 8) (size 9 to 14) (size 15 to 20)
#    0.000    2.333    0.833    2.500    0.000    2.667 
#    1.500    2.083    0.000    2.500    0.000    5.250 
#    0.000    5.333    0.000    0.000    0.000    0.000 
#
# Total GULP energy -594888.505217 kJ/mol
# GULP energy per Si atom -12393.510525 kJ/mol
# Density = 1.811324 g / cm^3
# Si number density = 18.154557 Si / 1000 Ang^3
#
#
#
# Elastic Constant Matrix: (Units=GPa)
#
#
# Indices 1 2 3 4 5 6 
#
# 1 95.0355 22.3868 56.8370 0.0000 0.0000 0.0000
# 2 22.3868 60.0118 40.6181 0.0000 0.0000 0.0000
# 3 56.8370 40.6181 118.1261 0.0000 0.0000 0.0000
# 4 0.0000 0.0000 0.0000 8.9650 0.0000 0.0000
# 5 0.0000 0.0000 0.0000 0.0000 26.3765 0.0000
# 6 0.0000 0.0000 0.0000 0.0000 0.0000 15.3823
#
#
#
# Elastic Compliance Matrix: (Units=1/GPa)
#
#
# Indices 1 2 3 4 5 6 
#
# 1 0.014812 -0.000915 -0.006812 0.000000 0.000000 0.000000
# 2 -0.000915 0.021774 -0.007047 0.000000 0.000000 0.000000
# 3 -0.006812 -0.007047 0.014167 0.000000 0.000000 0.000000
# 4 0.000000 0.000000 0.000000 0.111545 0.000000 0.000000
# 5 0.000000 0.000000 0.000000 0.000000 0.037913 0.000000
# 6 0.000000 0.000000 0.000000 0.000000 0.000000 0.065010
#
#
# Mechanical properties :
#
#
# Convention : Reuss Voigt Hill
#
# Bulk Modulus (GPa) = 47.15949 56.98416 52.07183
# Shear Modulus (GPa) = 16.56526 20.36684 18.46605
#
# Velocity S-wave (km/s) = 3.02397 3.35305 3.19275
# Velocity P-wave (km/s) = 6.18268 6.81521 6.50664
#
# Compressibility (1/GPa) = 0.02120464
#
# Stress axis : x y z
#
# Youngs Moduli (GPa) = 67.51249 45.92563 70.58885
#
# Poissons Ratio (x) = 0.04200 0.48088
# Poissons Ratio (y) = 0.06175 0.49745
# Poissons Ratio (z) = 0.45992 0.32364
#
# Static dielectric constant tensor:
#      x y z
#    x 3.482990 0.000000 0.000000 
#    y 0.000000 3.446380 0.000000 
#    z 0.000000 0.000000 3.224860 
# 
# 
# High freq. dielectric constant tensor:
#      x y z
#    x 1.716500 0.000000 0.000000 
#    y 0.000000 1.687750 0.000000 
#    z 0.000000 0.000000 1.662960 
# 
# From -- ./inp_files/40664.got.cif
#   From: 2010.03.12/outbox.cif.g09.slc.cpg/sg65_21_cif.got.tgz:40664.got - 2010.04.10 20:52:16.
