data_PCOD8267191
_publ_section_title
;
Structure prediction by ZEFSAII (Michael W. Deem and Ramdas Pophale) SiO2 
 PCOD8267191
Probable space group: C M M M
;
_chemical_formula_sum "Si O2"
_cell_formula_units_Z 72
_cell_length_a 17.012577
_cell_length_b 28.081913
_cell_length_c 9.129560
_cell_angle_alpha 90.000000
_cell_angle_beta 90.000000
_cell_angle_gamma 90.000000
_cell_volume 4361.608099
_symmetry_space_group_name_H-M "C M M M"
_symmetry_group_IT_number 65
_symmetry_cell_setting 'orthorhombic'
loop_
_space_group_symop_operation_xyz
x,y,z
-x,-y,z
x,-y,-z
-x,y,-z
-x,-y,-z
x,y,-z
-x,y,z
x,-y,z
1/2+x,1/2+y,z
1/2-x,1/2-y,z
1/2+x,1/2-y,-z
1/2-x,1/2+y,-z
1/2-x,1/2-y,-z
1/2+x,1/2+y,-z
1/2-x,1/2+y,z
1/2+x,1/2-y,z
loop_
_atom_site_type_symbol
_atom_site_label
_atom_site_fract_x
_atom_site_fract_y
_atom_site_fract_z
Si Si1 0.267516 0.140901 0.827874
Si Si2 0.911411 0.707346 0.169196
Si Si3 0.325002 0.716266 0.665205
Si Si4 0.000000 0.554484 0.328413
Si Si5 0.670055 0.944580 0.326569
O O1 0.349791 0.166470 0.786228
O O2 0.194283 0.168854 0.757169
O O3 0.267610 0.087895 0.759277
O O4 0.253908 0.137625 0.000000
O O5 0.897047 0.755497 0.261232
O O6 0.000000 0.688935 0.201548
O O7 0.900018 0.720890 0.000000
O O8 0.348042 0.701993 0.500000
O O9 0.250000 0.750000 0.668183
O O10 0.083521 0.574223 0.269856
O O11 0.000000 0.500000 0.285293
O O12 0.000000 0.561276 0.500000
O O13 0.678937 0.936995 0.500000
O O14 0.683823 0.000000 0.286958
#
# Coordination Sequence:
#
# PCOD8267191 Si02
#       5
#    16  16  16   8  16
#     4  10  19  29  44  63  87 118 149 180 219 264
#     4   9  18  31  45  63  89 117 144 177 219 265
#     4   9  17  30  46  63  84 110 144 182 219 259
#     4   7  12  24  39  53  73 105 141 177 217 251
#     4   9  17  29  43  59  82 113 149 187 222 254
#
# _framework density 16.507674000000002
#
# number of rings (size 3 to 8) (size 9 to 14) (size 15 to 20)
#    0.000    3.000    0.000    2.667    1.556    4.444 
#    0.000    0.000    0.000    2.000    0.000    0.000 
#    0.000    0.889    0.000    9.333    0.000    4.000 
#
# Total GULP energy -446076.853370 kJ/mol
# GULP energy per Si atom -12391.023705 kJ/mol
# Density = 1.647010 g / cm^3
# Si number density = 16.507674 Si / 1000 Ang^3
#
#
#
# Elastic Constant Matrix: (Units=GPa)
#
#
# Indices 1 2 3 4 5 6 
#
# 1 21.6675 12.5389 12.4139 0.0000 0.0000 0.0000
# 2 12.5389 84.1972 42.8621 0.0000 0.0000 0.0000
# 3 12.4139 42.8621 74.2736 0.0000 0.0000 0.0000
# 4 0.0000 0.0000 0.0000 27.7146 0.0000 0.0000
# 5 0.0000 0.0000 0.0000 0.0000 19.1821 0.0000
# 6 0.0000 0.0000 0.0000 0.0000 0.0000 24.8569
#
#
#
# Elastic Compliance Matrix: (Units=1/GPa)
#
#
# Indices 1 2 3 4 5 6 
#
# 1 0.052338 -0.004731 -0.006017 0.000000 0.000000 0.000000
# 2 -0.004731 0.017245 -0.009161 0.000000 0.000000 0.000000
# 3 -0.006017 -0.009161 0.019756 0.000000 0.000000 0.000000
# 4 0.000000 0.000000 0.000000 0.036082 0.000000 0.000000
# 5 0.000000 0.000000 0.000000 0.000000 0.052132 0.000000
# 6 0.000000 0.000000 0.000000 0.000000 0.000000 0.040230
#
#
# Mechanical properties :
#
#
# Convention : Reuss Voigt Hill
#
# Bulk Modulus (GPa) = 20.19395 35.08533 27.63964
# Shear Modulus (GPa) = 18.24093 21.83893 20.03993
#
# Velocity S-wave (km/s) = 3.32776 3.64119 3.48800
# Velocity P-wave (km/s) = 5.19855 6.24322 5.74468
#
# Compressibility (1/GPa) = 0.04951979
#
# Stress axis : x y z
#
# Youngs Moduli (GPa) = 19.10675 57.98759 50.61698
#
# Poissons Ratio (x) = 0.27434 0.30458
# Poissons Ratio (y) = 0.09039 0.46371
# Poissons Ratio (z) = 0.11497 0.53123
#
# Static dielectric constant tensor:
#      x y z
#    x 2.905570 0.000000 0.000000 
#    y 0.000000 2.969450 0.000000 
#    z 0.000000 0.000000 3.035350 
# 
# 
# High freq. dielectric constant tensor:
#      x y z
#    x 1.591890 0.000000 0.000000 
#    y 0.000000 1.620730 0.000000 
#    z 0.000000 0.000000 1.634180 
# 
# From -- ./inp_files/7252.got.cif
#   From: 2010.03.12/outbox.cif.g09.slc.cpg/sg65_4_cif.got.tgz:7252.got - 2010.04.10 20:52:16.
