data_PCOD8267419
_publ_section_title
;
Structure prediction by ZEFSAII (Michael W. Deem and Ramdas Pophale) SiO2 
 PCOD8267419
Probable space group: C M M M
;
_chemical_formula_sum "Si O2"
_cell_formula_units_Z 80
_cell_length_a 19.431378
_cell_length_b 20.836419
_cell_length_c 11.842474
_cell_angle_alpha 90.000000
_cell_angle_beta 90.000000
_cell_angle_gamma 90.000000
_cell_volume 4794.784826
_symmetry_space_group_name_H-M "C M M M"
_symmetry_group_IT_number 65
_symmetry_cell_setting 'orthorhombic'
loop_
_space_group_symop_operation_xyz
x,y,z
-x,-y,z
x,-y,-z
-x,y,-z
-x,-y,-z
x,y,-z
-x,y,z
x,-y,z
1/2+x,1/2+y,z
1/2-x,1/2-y,z
1/2+x,1/2-y,-z
1/2-x,1/2+y,-z
1/2-x,1/2-y,-z
1/2+x,1/2+y,-z
1/2-x,1/2+y,z
1/2+x,1/2-y,z
loop_
_atom_site_type_symbol
_atom_site_label
_atom_site_fract_x
_atom_site_fract_y
_atom_site_fract_z
Si Si1 0.077532 0.500000 0.134842
Si Si2 0.420936 0.247090 0.869972
Si Si3 0.420492 0.376205 0.738975
Si Si4 0.080209 0.927868 0.500000
Si Si5 0.300613 0.572600 0.126267
Si Si6 0.840762 0.622069 0.134230
O O1 0.114646 0.436589 0.183883
O O2 0.000000 0.500000 0.180933
O O3 0.078661 0.500000 0.000000
O O4 0.500000 0.224789 0.861931
O O5 0.405786 0.304828 0.783995
O O6 0.372971 0.189360 0.826553
O O7 0.403845 0.266728 0.000000
O O8 0.500000 0.395469 0.760990
O O9 0.399580 0.384730 0.608119
O O10 0.371181 0.424319 0.805161
O O11 0.000000 0.939881 0.500000
O O12 0.114509 0.000000 0.500000
O O13 0.272966 0.500000 0.127436
O O14 0.238574 0.616459 0.176462
O O15 0.317955 0.595287 0.000000
O O16 0.842112 0.617253 0.000000
#
# Coordination Sequence:
#
# PCOD8267419 Si02
#       6
#     8  16  16   8  16  16
#     4   9  14  22  40  64  91 126 163 198 229 256
#     4   9  17  29  46  70  99 128 158 190 227 278
#     4  10  20  33  49  69  92 119 153 193 236 282
#     4   9  18  34  54  71  86 111 155 204 243 279
#     4  10  19  30  45  67  97 129 159 192 229 274
#     4   9  16  27  42  64  96 130 161 191 226 271
#
# _framework density 16.684795000000001
#
# number of rings (size 3 to 8) (size 9 to 14) (size 15 to 20)
#    0.000    2.600    1.000    1.800    0.000    5.600 
#    0.000    4.000    0.000    2.400    0.000    0.000 
#    0.000    0.000    0.000    8.400    0.000    2.400 
#
# Total GULP energy -495763.616828 kJ/mol
# GULP energy per Si atom -12394.090421 kJ/mol
# Density = 1.664682 g / cm^3
# Si number density = 16.684795 Si / 1000 Ang^3
#
#
#
# Elastic Constant Matrix: (Units=GPa)
#
#
# Indices 1 2 3 4 5 6 
#
# 1 91.7846 43.7518 41.8305 0.0000 0.0000 0.0000
# 2 43.7518 102.8404 48.6333 0.0000 0.0000 0.0000
# 3 41.8305 48.6333 78.0153 0.0000 0.0000 0.0000
# 4 0.0000 0.0000 0.0000 -9.7389 0.0000 0.0000
# 5 0.0000 0.0000 0.0000 0.0000 8.2024 0.0000
# 6 0.0000 0.0000 0.0000 0.0000 0.0000 29.7133
#
#
#
# Elastic Compliance Matrix: (Units=1/GPa)
#
#
# Indices 1 2 3 4 5 6 
#
# 1 0.015373 -0.003747 -0.005907 0.000000 0.000000 0.000000
# 2 -0.003747 0.014702 -0.007156 0.000000 0.000000 0.000000
# 3 -0.005907 -0.007156 0.020446 0.000000 0.000000 0.000000
# 4 0.000000 0.000000 0.000000 -0.102681 0.000000 0.000000
# 5 0.000000 0.000000 0.000000 0.000000 0.121916 0.000000
# 6 0.000000 0.000000 0.000000 0.000000 0.000000 0.033655
#
#
# Mechanical properties :
#
#
# Convention : Reuss Voigt Hill
#
# Bulk Modulus (GPa) = 59.16625 60.11906 59.64265
# Shear Modulus (GPa) = 35.04720 14.86367 24.95543
#
# Velocity S-wave (km/s) = 4.58814 2.98795 3.87162
# Velocity P-wave (km/s) = 7.97535 6.92923 7.47063
#
# Compressibility (1/GPa) = 0.01690153
#
# Stress axis : x y z
#
# Youngs Moduli (GPa) = 65.04794 68.01874 48.90888
#
# Poissons Ratio (x) = 0.25485 0.28892
# Poissons Ratio (y) = 0.24372 0.34999
# Poissons Ratio (z) = 0.38425 0.48673
#
# Static dielectric constant tensor:
#      x y z
#    x 3.195510 0.000000 0.000000 
#    y 0.000000 3.155550 0.000000 
#    z 0.000000 0.000000 2.868780 
# 
# 
# High freq. dielectric constant tensor:
#      x y z
#    x 1.646970 0.000000 0.000000 
#    y 0.000000 1.647390 0.000000 
#    z 0.000000 0.000000 1.584130 
# 
# From -- ./inp_files/26702.got.cif
#   From: 2010.03.12/outbox.cif.g09.slc.cpg/sg65_14_cif.got.tgz:26702.got - 2010.04.10 20:52:16.
