data_PCOD8267671
_publ_section_title
;
Structure prediction by ZEFSAII (Michael W. Deem and Ramdas Pophale) SiO2 
 PCOD8267671
Probable space group: C M M M
;
_chemical_formula_sum "Si O2"
_cell_formula_units_Z 88
_cell_length_a 28.499886
_cell_length_b 9.098104
_cell_length_c 23.744074
_cell_angle_alpha 90.000000
_cell_angle_beta 90.000000
_cell_angle_gamma 90.000000
_cell_volume 6156.717930
_symmetry_space_group_name_H-M "C M M M"
_symmetry_group_IT_number 65
_symmetry_cell_setting 'orthorhombic'
loop_
_space_group_symop_operation_xyz
x,y,z
-x,-y,z
x,-y,-z
-x,y,-z
-x,-y,-z
x,y,-z
-x,y,z
x,-y,z
1/2+x,1/2+y,z
1/2-x,1/2-y,z
1/2+x,1/2-y,-z
1/2-x,1/2+y,-z
1/2-x,1/2-y,-z
1/2+x,1/2+y,-z
1/2-x,1/2+y,z
1/2+x,1/2-y,z
loop_
_atom_site_type_symbol
_atom_site_label
_atom_site_fract_x
_atom_site_fract_y
_atom_site_fract_z
Si Si1 0.200068 0.328455 0.665197
Si Si2 0.447169 0.671884 0.064169
Si Si3 0.200161 0.673380 0.000000
Si Si4 0.700747 0.170670 0.789194
Si Si5 0.800174 0.171766 0.561280
Si Si6 0.140000 0.673229 0.107120
O O1 0.205287 0.500000 0.651584
O O2 0.250000 0.250000 0.667727
O O3 0.177572 0.303340 0.727117
O O4 0.171516 0.249493 0.613434
O O5 0.500000 0.708824 0.084088
O O6 0.437392 0.500000 0.068528
O O7 0.411315 0.755699 0.104587
O O8 0.440085 0.725529 0.000000
O O9 0.250000 0.750000 0.000000
O O10 0.171630 0.725698 0.054793
O O11 0.208253 0.500000 0.000000
O O12 0.750000 0.250000 0.797112
O O13 0.664137 0.229176 0.835382
O O14 0.711355 0.000000 0.798925
O O15 0.825197 0.194227 0.500000
O O16 0.750000 0.250000 0.558497
O O17 0.793998 0.000000 0.574227
O O18 0.133258 0.500000 0.106541
#
# Coordination Sequence:
#
# PCOD8267671 Si02
#       6
#    16  16   8  16  16  16
#     4   9  15  23  34  47  65  92 123 156 191 222
#     4   9  18  32  48  65  82  98 120 153 194 240
#     4  10  20  30  41  58  79 103 130 161 193 228
#     4   9  18  29  40  55  77 103 133 166 194 227
#     4   9  15  21  30  45  64  86 115 154 194 226
#     4  10  19  31  44  61  81 101 129 161 195 234
#
# _framework density 14.293329999999999
#
# number of rings (size 3 to 8) (size 9 to 14) (size 15 to 20)
#    0.000    2.727    0.909    3.273    0.000    3.636 
#    0.000    0.909    0.000    0.000    0.000    0.000 
#    0.000    0.000    0.000    0.000    0.000    0.909 
#
# Total GULP energy -545148.784753 kJ/mol
# GULP energy per Si atom -12389.745108 kJ/mol
# Density = 1.426080 g / cm^3
# Si number density = 14.293330 Si / 1000 Ang^3
#
#
#
# Elastic Constant Matrix: (Units=GPa)
#
#
# Indices 1 2 3 4 5 6 
#
# 1 65.0173 27.9090 43.9822 0.0000 0.0000 0.0000
# 2 27.9090 59.8121 47.0816 0.0000 0.0000 0.0000
# 3 43.9822 47.0816 141.5170 0.0000 0.0000 0.0000
# 4 0.0000 0.0000 0.0000 21.3134 0.0000 0.0000
# 5 0.0000 0.0000 0.0000 0.0000 4.0628 0.0000
# 6 0.0000 0.0000 0.0000 0.0000 0.0000 19.5455
#
#
#
# Elastic Compliance Matrix: (Units=1/GPa)
#
#
# Indices 1 2 3 4 5 6 
#
# 1 0.021117 -0.006350 -0.004450 0.000000 0.000000 0.000000
# 2 -0.006350 0.024561 -0.006197 0.000000 0.000000 0.000000
# 3 -0.004450 -0.006197 0.010511 0.000000 0.000000 0.000000
# 4 0.000000 0.000000 0.000000 0.046919 0.000000 0.000000
# 5 0.000000 0.000000 0.000000 0.000000 0.246137 0.000000
# 6 0.000000 0.000000 0.000000 0.000000 0.000000 0.051163
#
#
# Mechanical properties :
#
#
# Convention : Reuss Voigt Hill
#
# Bulk Modulus (GPa) = 45.06012 56.03245 50.54629
# Shear Modulus (GPa) = 11.31733 18.80925 15.06329
#
# Velocity S-wave (km/s) = 2.81693 3.63153 3.24986
# Velocity P-wave (km/s) = 6.49414 7.54128 7.03722
#
# Compressibility (1/GPa) = 0.02219257
#
# Stress axis : x y z
#
# Youngs Moduli (GPa) = 47.35545 40.71569 95.13645
#
# Poissons Ratio (x) = 0.25856 0.42338
# Poissons Ratio (y) = 0.30072 0.58960
# Poissons Ratio (z) = 0.21074 0.25233
#
# Static dielectric constant tensor:
#      x y z
#    x 2.381410 0.000000 0.000000 
#    y 0.000000 2.832100 0.000000 
#    z 0.000000 0.000000 3.822000 
# 
# 
# High freq. dielectric constant tensor:
#      x y z
#    x 1.480770 0.000000 0.000000 
#    y 0.000000 1.555210 0.000000 
#    z 0.000000 0.000000 1.559160 
# 
# From -- ./inp_files/72036.got.cif
#   From: 2010.03.12/outbox.cif.g09.slc.cpg/sg65_37_cif.got.tgz:72036.got - 2010.04.10 20:52:16.
