data_PCOD8267788
_publ_section_title
;
Structure prediction by ZEFSAII (Michael W. Deem and Ramdas Pophale) SiO2 
 PCOD8267788
Probable space group: C M M M
;
_chemical_formula_sum "Si O2"
_cell_formula_units_Z 88
_cell_length_a 27.563048
_cell_length_b 7.898413
_cell_length_c 23.072994
_cell_angle_alpha 90.000000
_cell_angle_beta 90.000000
_cell_angle_gamma 90.000000
_cell_volume 5023.090853
_symmetry_space_group_name_H-M "C M M M"
_symmetry_group_IT_number 65
_symmetry_cell_setting 'orthorhombic'
loop_
_space_group_symop_operation_xyz
x,y,z
-x,-y,z
x,-y,-z
-x,y,-z
-x,-y,-z
x,y,-z
-x,y,z
x,-y,z
1/2+x,1/2+y,z
1/2-x,1/2-y,z
1/2+x,1/2-y,-z
1/2-x,1/2+y,-z
1/2-x,1/2-y,-z
1/2+x,1/2+y,-z
1/2-x,1/2+y,z
1/2+x,1/2-y,z
loop_
_atom_site_type_symbol
_atom_site_label
_atom_site_fract_x
_atom_site_fract_y
_atom_site_fract_z
Si Si1 0.647393 0.201852 0.063695
Si Si2 0.601330 0.692991 0.766573
Si Si3 0.303746 0.198631 0.821417
Si Si4 0.947335 0.306582 0.878250
Si Si5 0.057377 0.500000 0.435532
Si Si6 0.556835 0.305554 0.354731
O O1 0.685445 0.263715 0.112674
O O2 0.594023 0.275308 0.080539
O O3 0.645517 0.000000 0.063106
O O4 0.662315 0.271731 0.000000
O O5 0.586791 0.500000 0.777174
O O6 0.658927 0.718428 0.776138
O O7 0.570281 0.801704 0.811791
O O8 0.587239 0.746765 0.701873
O O9 0.250000 0.250000 0.802944
O O10 0.311045 0.000000 0.817953
O O11 0.953511 0.500000 0.895986
O O12 0.000000 0.215803 0.885947
O O13 0.080279 0.500000 0.500000
O O14 0.074169 0.673028 0.403729
O O15 0.000000 0.500000 0.439729
O O16 0.500000 0.284410 0.340855
O O17 0.567949 0.500000 0.374158
#
# Coordination Sequence:
#
# PCOD8267788 Si02
#       6
#    16  16  16  16   8  16
#     4   8  15  28  44  63  87 115 151 190 231 284
#     4  10  19  31  47  67  92 122 154 195 238 284
#     4  10  20  33  49  68  89 116 146 188 245 294
#     4   9  17  27  42  65  90 119 153 190 236 283
#     4   9  18  30  46  70 102 142 177 205 237 269
#     4   9  18  30  46  71 101 136 173 205 238 279
#
# _framework density 17.519095
#
# number of rings (size 3 to 8) (size 9 to 14) (size 15 to 20)
#    0.000    2.818    0.000    2.727    2.545    2.182 
#    0.000    3.636    0.000   13.091    0.000    5.091 
#    0.000    0.727    0.364    0.000    0.000    0.000 
#
# Total GULP energy -545297.390155 kJ/mol
# GULP energy per Si atom -12393.122504 kJ/mol
# Density = 1.747922 g / cm^3
# Si number density = 17.519095 Si / 1000 Ang^3
#
#
#
# Elastic Constant Matrix: (Units=GPa)
#
#
# Indices 1 2 3 4 5 6 
#
# 1 78.2953 3.0422 25.9452 0.0000 0.0000 0.0000
# 2 3.0422 49.8418 35.1765 0.0000 0.0000 0.0000
# 3 25.9452 35.1765 116.8328 0.0000 0.0000 0.0000
# 4 0.0000 0.0000 0.0000 9.0215 0.0000 0.0000
# 5 0.0000 0.0000 0.0000 0.0000 15.3742 0.0000
# 6 0.0000 0.0000 0.0000 0.0000 0.0000 16.0666
#
#
#
# Elastic Compliance Matrix: (Units=1/GPa)
#
#
# Indices 1 2 3 4 5 6 
#
# 1 0.013898 0.001689 -0.003595 0.000000 0.000000 0.000000
# 2 0.001689 0.025682 -0.008108 0.000000 0.000000 0.000000
# 3 -0.003595 -0.008108 0.011799 0.000000 0.000000 0.000000
# 4 0.000000 0.000000 0.000000 0.110846 0.000000 0.000000
# 5 0.000000 0.000000 0.000000 0.000000 0.065044 0.000000
# 6 0.000000 0.000000 0.000000 0.000000 0.000000 0.062241
#
#
# Mechanical properties :
#
#
# Convention : Reuss Voigt Hill
#
# Bulk Modulus (GPa) = 31.89626 41.47752 36.68689
# Shear Modulus (GPa) = 15.62562 20.14620 17.88591
#
# Velocity S-wave (km/s) = 2.98974 3.39478 3.19868
# Velocity P-wave (km/s) = 5.49219 6.25244 5.88461
#
# Compressibility (1/GPa) = 0.03135164
#
# Stress axis : x y z
#
# Youngs Moduli (GPa) = 71.95403 38.93709 84.75581
#
# Poissons Ratio (x) = -0.06576 0.30468
# Poissons Ratio (y) = -0.12151 0.68717
# Poissons Ratio (z) = 0.25866 0.31569
#
# Static dielectric constant tensor:
#      x y z
#    x 3.576950 0.000000 0.000000 
#    y 0.000000 3.190510 0.000000 
#    z 0.000000 0.000000 3.279960 
# 
# 
# High freq. dielectric constant tensor:
#      x y z
#    x 1.655450 0.000000 0.000000 
#    y 0.000000 1.671550 0.000000 
#    z 0.000000 0.000000 1.652200 
# 
# From -- ./inp_files/66187.got.cif
#   From: 2010.03.12/outbox.cif.g09.slc.cpg/sg65_34_cif.got.tgz:66187.got - 2010.04.10 20:52:16.
