data_PCOD8267198
_publ_section_title
;
Structure prediction by ZEFSAII (Michael W. Deem and Ramdas Pophale) SiO2 
 PCOD8267198
Probable space group: C M M M
;
_chemical_formula_sum "Si O2"
_cell_formula_units_Z 88
_cell_length_a 7.453260
_cell_length_b 18.566456
_cell_length_c 30.297804
_cell_angle_alpha 90.000000
_cell_angle_beta 90.000000
_cell_angle_gamma 90.000000
_cell_volume 4192.629019
_symmetry_space_group_name_H-M "C M M M"
_symmetry_group_IT_number 65
_symmetry_cell_setting 'orthorhombic'
loop_
_space_group_symop_operation_xyz
x,y,z
-x,-y,z
x,-y,-z
-x,y,-z
-x,-y,-z
x,y,-z
-x,y,z
x,-y,z
1/2+x,1/2+y,z
1/2-x,1/2-y,z
1/2+x,1/2-y,-z
1/2-x,1/2+y,-z
1/2-x,1/2-y,-z
1/2+x,1/2+y,-z
1/2-x,1/2+y,z
1/2+x,1/2-y,z
loop_
_atom_site_type_symbol
_atom_site_label
_atom_site_fract_x
_atom_site_fract_y
_atom_site_fract_z
Si Si1 0.210204 0.165859 0.894442
Si Si2 0.287497 0.419487 0.810035
Si Si3 0.500000 0.916868 0.052151
Si Si4 0.712837 0.418710 0.286988
Si Si5 0.290357 0.333067 0.630798
Si Si6 0.286781 0.418818 0.451536
O O1 0.250000 0.250000 0.897499
O O2 0.278335 0.137046 0.846785
O O3 0.320775 0.123027 0.931252
O O4 0.000000 0.150287 0.902178
O O5 0.500000 0.421535 0.808818
O O6 0.216029 0.500000 0.821316
O O7 0.215182 0.395352 0.761630
O O8 0.500000 0.000000 0.067782
O O9 0.500000 0.911265 0.000000
O O10 0.500000 0.413309 0.287147
O O11 0.774251 0.500000 0.297144
O O12 0.795973 0.367754 0.324988
O O13 0.500000 0.349076 0.630824
O O14 0.250000 0.250000 0.630638
O O15 0.204479 0.368123 0.586691
O O16 0.217500 0.393413 0.500000
O O17 0.500000 0.415653 0.451015
O O18 0.221498 0.500000 0.442341
#
# Coordination Sequence:
#
# PCOD8267198 Si02
#       6
#    16  16   8  16  16  16
#     4  11  22  40  63  94 128 166 205 250 309 365
#     4   8  15  29  53  81 109 143 185 233 281 334
#     4  11  26  46  68  96 127 163 211 261 307 363
#     4   8  14  27  48  73  97 130 178 222 260 310
#     4  10  19  29  44  67  95 127 161 202 258 314
#     4   8  14  26  45  67  87 112 156 211 254 295
#
# _framework density 20.989217
#
# number of rings (size 3 to 8) (size 9 to 14) (size 15 to 20)
#    0.000    2.818    0.909    2.727    0.000    5.091 
#    0.000    0.909    2.000    2.182    0.000    1.273 
#    0.000    0.000    0.000    0.000    0.000    0.000 
#
# Total GULP energy -545302.497802 kJ/mol
# GULP energy per Si atom -12393.238586 kJ/mol
# Density = 2.094144 g / cm^3
# Si number density = 20.989217 Si / 1000 Ang^3
#
#
#
# Elastic Constant Matrix: (Units=GPa)
#
#
# Indices 1 2 3 4 5 6 
#
# 1 57.8007 20.0953 27.3048 0.0000 0.0000 0.0000
# 2 20.0953 161.1867 102.4925 0.0000 0.0000 0.0000
# 3 27.3048 102.4925 172.4672 0.0000 0.0000 0.0000
# 4 0.0000 0.0000 0.0000 25.9284 0.0000 0.0000
# 5 0.0000 0.0000 0.0000 0.0000 -4.7451 0.0000
# 6 0.0000 0.0000 0.0000 0.0000 0.0000 9.8326
#
#
#
# Elastic Compliance Matrix: (Units=1/GPa)
#
#
# Indices 1 2 3 4 5 6 
#
# 1 0.018752 -0.000723 -0.002539 0.000000 0.000000 0.000000
# 2 -0.000723 0.010000 -0.005828 0.000000 0.000000 0.000000
# 3 -0.002539 -0.005828 0.009664 0.000000 0.000000 0.000000
# 4 0.000000 0.000000 0.000000 0.038568 0.000000 0.000000
# 5 0.000000 0.000000 0.000000 0.000000 -0.210745 0.000000
# 6 0.000000 0.000000 0.000000 0.000000 0.000000 0.101703
#
#
# Mechanical properties :
#
#
# Convention : Reuss Voigt Hill
#
# Bulk Modulus (GPa) = 49.42063 76.80442 63.11253
# Shear Modulus (GPa) = -700.97843 22.30730 -339.33557
#
# Velocity S-wave (km/s) = -18.29469 3.26360 -12.72880
# Velocity P-wave (km/s) = 20.55880 7.13254 13.63435
#
# Compressibility (1/GPa) = 0.02023447
#
# Stress axis : x y z
#
# Youngs Moduli (GPa) = 53.32859 99.99830 103.47958
#
# Poissons Ratio (x) = 0.07234 0.26272
# Poissons Ratio (y) = 0.03858 0.60311
# Poissons Ratio (z) = 0.13539 0.58282
#
# Static dielectric constant tensor:
#      x y z
#    x 3.496830 0.000000 0.000000 
#    y 0.000000 3.674340 0.000000 
#    z 0.000000 0.000000 4.357470 
# 
# 
# High freq. dielectric constant tensor:
#      x y z
#    x 1.795850 0.000000 0.000000 
#    y 0.000000 1.811620 0.000000 
#    z 0.000000 0.000000 1.834330 
# 
# From -- ./inp_files/76553.got.cif
#   From: 2010.03.12/outbox.cif.g09.slc.cpg/sg65_39_cif.got.tgz:76553.got - 2010.04.10 20:52:16.
