data_PCOD8267532
_publ_section_title
;
Structure prediction by ZEFSAII (Michael W. Deem and Ramdas Pophale) SiO2 
 PCOD8267532
Probable space group: C M M M
;
_chemical_formula_sum "Si O2"
_cell_formula_units_Z 104
_cell_length_a 25.825605
_cell_length_b 16.659711
_cell_length_c 13.770959
_cell_angle_alpha 90.000000
_cell_angle_beta 90.000000
_cell_angle_gamma 90.000000
_cell_volume 5924.915390
_symmetry_space_group_name_H-M "C M M M"
_symmetry_group_IT_number 65
_symmetry_cell_setting 'orthorhombic'
loop_
_space_group_symop_operation_xyz
x,y,z
-x,-y,z
x,-y,-z
-x,y,-z
-x,-y,-z
x,y,-z
-x,y,z
x,-y,z
1/2+x,1/2+y,z
1/2-x,1/2-y,z
1/2+x,1/2-y,-z
1/2-x,1/2+y,-z
1/2-x,1/2-y,-z
1/2+x,1/2+y,-z
1/2-x,1/2+y,z
1/2+x,1/2-y,z
loop_
_atom_site_type_symbol
_atom_site_label
_atom_site_fract_x
_atom_site_fract_y
_atom_site_fract_z
Si Si1 0.198906 0.870102 0.109386
Si Si2 0.305462 0.095066 0.799963
Si Si3 0.247530 0.595290 0.393253
Si Si4 0.351127 0.411162 0.302651
Si Si5 0.559980 0.500000 0.895480
Si Si6 0.128421 0.721184 0.110424
Si Si7 0.440061 0.661800 0.219226
O O1 0.260203 0.875448 0.128135
O O2 0.169735 0.921652 0.191424
O O3 0.178314 0.778948 0.118431
O O4 0.187781 0.902389 0.000000
O O5 0.293192 0.122319 0.688840
O O6 0.358103 0.139346 0.832389
O O7 0.313822 0.000000 0.808204
O O8 0.230966 0.627573 0.500000
O O9 0.251007 0.500000 0.392212
O O10 0.305235 0.627223 0.367534
O O11 0.366899 0.500000 0.339454
O O12 0.400925 0.350822 0.310818
O O13 0.500000 0.500000 0.915027
O O14 0.573741 0.581038 0.839559
O O15 0.588709 0.500000 0.000000
O O16 0.076841 0.760914 0.157266
O O17 0.114327 0.700471 0.000000
O O18 0.500000 0.668991 0.250564
#
# Coordination Sequence:
#
# PCOD8267532 Si02
#       7
#    16  16  16  16   8  16  16
#     4   9  17  28  42  61  91 126 152 181 225 275
#     4  10  19  30  47  69  92 121 160 197 230 276
#     4   8  15  29  49  71  96 122 149 188 237 288
#     4   9  16  26  42  69  95 118 151 186 228 282
#     4   9  16  26  42  64  87 113 151 195 232 270
#     4  10  20  31  44  64  95 131 162 194 234 279
#     4  10  19  31  46  64  91 126 161 201 240 275
#
# _framework density 17.552994000000002
#
# number of rings (size 3 to 8) (size 9 to 14) (size 15 to 20)
#    0.000    2.692    0.769    2.769    0.000    4.923 
#    0.000    0.000    0.000   17.538    0.000    3.231 
#    0.000    0.000    0.000    3.846    0.000    0.000 
#
# Total GULP energy -644243.002663 kJ/mol
# GULP energy per Si atom -12389.288513 kJ/mol
# Density = 1.751304 g / cm^3
# Si number density = 17.552994 Si / 1000 Ang^3
#
#
#
# Elastic Constant Matrix: (Units=GPa)
#
#
# Indices 1 2 3 4 5 6 
#
# 1 62.2380 24.7526 7.7054 0.0000 0.0000 0.0000
# 2 24.7526 51.9398 13.1197 0.0000 0.0000 0.0000
# 3 7.7054 13.1197 63.3402 0.0000 0.0000 0.0000
# 4 0.0000 0.0000 0.0000 13.7765 0.0000 0.0000
# 5 0.0000 0.0000 0.0000 0.0000 13.9519 0.0000
# 6 0.0000 0.0000 0.0000 0.0000 0.0000 20.4674
#
#
#
# Elastic Compliance Matrix: (Units=1/GPa)
#
#
# Indices 1 2 3 4 5 6 
#
# 1 0.019839 -0.009333 -0.000480 0.000000 0.000000 0.000000
# 2 -0.009333 0.024707 -0.003982 0.000000 0.000000 0.000000
# 3 -0.000480 -0.003982 0.016671 0.000000 0.000000 0.000000
# 4 0.000000 0.000000 0.000000 0.072587 0.000000 0.000000
# 5 0.000000 0.000000 0.000000 0.000000 0.071675 0.000000
# 6 0.000000 0.000000 0.000000 0.000000 0.000000 0.048858
#
#
# Mechanical properties :
#
#
# Convention : Reuss Voigt Hill
#
# Bulk Modulus (GPa) = 29.73934 29.85261 29.79598
# Shear Modulus (GPa) = 17.05694 18.43520 17.74607
#
# Velocity S-wave (km/s) = 3.12066 3.24429 3.18307
# Velocity P-wave (km/s) = 5.47394 5.57476 5.52458
#
# Compressibility (1/GPa) = 0.03362549
#
# Stress axis : x y z
#
# Youngs Moduli (GPa) = 50.40664 40.47478 59.98433
#
# Poissons Ratio (x) = 0.37775 0.02881
# Poissons Ratio (y) = 0.47045 0.23887
# Poissons Ratio (z) = 0.02421 0.16118
#
# Static dielectric constant tensor:
#      x y z
#    x 3.104200 0.000000 0.000000 
#    y 0.000000 2.946960 0.000000 
#    z 0.000000 0.000000 3.469380 
# 
# 
# High freq. dielectric constant tensor:
#      x y z
#    x 1.652780 0.000000 0.000000 
#    y 0.000000 1.651170 0.000000 
#    z 0.000000 0.000000 1.657710 
# 
# From -- ./inp_files/45944.got.cif
#   From: 2010.03.12/outbox.cif.g09.slc.cpg/sg65_23_cif.got.tgz:45944.got - 2010.04.10 20:52:16.
