data_PCOD8267698
_publ_section_title
;
Structure prediction by ZEFSAII (Michael W. Deem and Ramdas Pophale) SiO2 
 PCOD8267698
Probable space group: C M M M
;
_chemical_formula_sum "Si O2"
_cell_formula_units_Z 80
_cell_length_a 23.920447
_cell_length_b 25.870083
_cell_length_c 8.952649
_cell_angle_alpha 90.000000
_cell_angle_beta 90.000000
_cell_angle_gamma 90.000000
_cell_volume 5540.113611
_symmetry_space_group_name_H-M "C M M M"
_symmetry_group_IT_number 65
_symmetry_cell_setting 'orthorhombic'
loop_
_space_group_symop_operation_xyz
x,y,z
-x,-y,z
x,-y,-z
-x,y,-z
-x,-y,-z
x,y,-z
-x,y,z
x,-y,z
1/2+x,1/2+y,z
1/2-x,1/2-y,z
1/2+x,1/2-y,-z
1/2-x,1/2+y,-z
1/2-x,1/2-y,-z
1/2+x,1/2+y,-z
1/2-x,1/2+y,z
1/2+x,1/2-y,z
loop_
_atom_site_type_symbol
_atom_site_label
_atom_site_fract_x
_atom_site_fract_y
_atom_site_fract_z
Si Si1 0.500000 0.719855 0.176214
Si Si2 0.220170 0.305076 0.165794
Si Si3 0.379451 0.258368 0.176851
Si Si4 0.500000 0.396013 0.177372
Si Si5 0.116917 0.940277 0.174680
Si Si6 0.682593 0.353062 0.323854
O O1 0.556010 0.750447 0.226474
O O2 0.500000 0.662029 0.243867
O O3 0.500000 0.714180 0.000000
O O4 0.250000 0.250000 0.161463
O O5 0.156652 0.292618 0.221846
O O6 0.252717 0.343548 0.276114
O O7 0.219680 0.329786 0.000000
O O8 0.357793 0.309803 0.256277
O O9 0.373644 0.268299 0.000000
O O10 0.555192 0.425522 0.234769
O O11 0.500000 0.395884 0.000000
O O12 0.163770 0.908665 0.263977
O O13 0.128084 0.000000 0.207722
O O14 0.122275 0.927202 0.000000
O O15 0.678735 0.351318 0.500000
#
# Coordination Sequence:
#
# PCOD8267698 Si02
#       6
#     8  16  16   8  16  16
#     4   9  14  23  44  64  81 103 132 171 204 233
#     4   8  15  27  43  59  76  99 131 166 199 238
#     4   9  16  28  44  61  79 103 134 166 199 239
#     4   9  15  26  45  62  76  98 136 179 209 237
#     4  10  19  31  46  60  75 101 139 177 210 243
#     4  11  20  28  40  57  80 105 132 168 208 245
#
# _framework density 14.440136000000001
#
# number of rings (size 3 to 8) (size 9 to 14) (size 15 to 20)
#    0.000    2.600    2.000    3.300    0.000    5.200 
#    0.000    2.000    0.000    1.200    0.000    0.000 
#    0.000    0.000    0.000    0.900    0.000   20.600 
#
# Total GULP energy -495736.186776 kJ/mol
# GULP energy per Si atom -12393.404669 kJ/mol
# Density = 1.440727 g / cm^3
# Si number density = 14.440136 Si / 1000 Ang^3
#
#
#
# Elastic Constant Matrix: (Units=GPa)
#
#
# Indices 1 2 3 4 5 6 
#
# 1 127.4366 57.3962 38.5298 0.0000 0.0000 0.0000
# 2 57.3962 56.9711 29.3782 0.0000 0.0000 0.0000
# 3 38.5298 29.3782 52.9127 0.0000 0.0000 0.0000
# 4 0.0000 0.0000 0.0000 7.7064 0.0000 0.0000
# 5 0.0000 0.0000 0.0000 0.0000 4.7577 0.0000
# 6 0.0000 0.0000 0.0000 0.0000 0.0000 22.2955
#
#
#
# Elastic Compliance Matrix: (Units=1/GPa)
#
#
# Indices 1 2 3 4 5 6 
#
# 1 0.014815 -0.013118 -0.003504 0.000000 0.000000 0.000000
# 2 -0.013118 0.036211 -0.010552 0.000000 0.000000 0.000000
# 3 -0.003504 -0.010552 0.027310 0.000000 0.000000 0.000000
# 4 0.000000 0.000000 0.000000 0.129763 0.000000 0.000000
# 5 0.000000 0.000000 0.000000 0.000000 0.210184 0.000000
# 6 0.000000 0.000000 0.000000 0.000000 0.000000 0.044852
#
#
# Mechanical properties :
#
#
# Convention : Reuss Voigt Hill
#
# Bulk Modulus (GPa) = 41.69250 54.21432 47.95341
# Shear Modulus (GPa) = 9.51512 14.41966 11.96739
#
# Velocity S-wave (km/s) = 2.56976 3.16346 2.88194
# Velocity P-wave (km/s) = 6.14331 7.13926 6.65993
#
# Compressibility (1/GPa) = 0.02398513
#
# Stress axis : x y z
#
# Youngs Moduli (GPa) = 67.49929 27.61624 36.61706
#
# Poissons Ratio (x) = 0.36228 0.12832
# Poissons Ratio (y) = 0.88549 0.38639
# Poissons Ratio (z) = 0.23654 0.29141
#
# Static dielectric constant tensor:
#      x y z
#    x 3.356940 0.000000 0.000000 
#    y 0.000000 2.582230 0.000000 
#    z 0.000000 0.000000 2.600300 
# 
# 
# High freq. dielectric constant tensor:
#      x y z
#    x 1.552770 0.000000 0.000000 
#    y 0.000000 1.506720 0.000000 
#    z 0.000000 0.000000 1.531700 
# 
# From -- ./inp_files/14539.got.cif
#   From: 2010.03.12/outbox.cif.g09.slc.cpg/sg65_8_cif.got.tgz:14539.got - 2010.04.10 20:52:16.
