data_PCOD8267718
_publ_section_title
;
Structure prediction by ZEFSAII (Michael W. Deem and Ramdas Pophale) SiO2 
 PCOD8267718
Probable space group: C M M M
;
_chemical_formula_sum "Si O2"
_cell_formula_units_Z 96
_cell_length_a 27.219475
_cell_length_b 8.745489
_cell_length_c 24.309528
_cell_angle_alpha 90.000000
_cell_angle_beta 90.000000
_cell_angle_gamma 90.000000
_cell_volume 5786.825264
_symmetry_space_group_name_H-M "C M M M"
_symmetry_group_IT_number 65
_symmetry_cell_setting 'orthorhombic'
loop_
_space_group_symop_operation_xyz
x,y,z
-x,-y,z
x,-y,-z
-x,y,-z
-x,-y,-z
x,y,-z
-x,y,z
x,-y,z
1/2+x,1/2+y,z
1/2-x,1/2-y,z
1/2+x,1/2-y,-z
1/2-x,1/2+y,-z
1/2-x,1/2-y,-z
1/2+x,1/2+y,-z
1/2-x,1/2+y,z
1/2+x,1/2-y,z
loop_
_atom_site_type_symbol
_atom_site_label
_atom_site_fract_x
_atom_site_fract_y
_atom_site_fract_z
Si Si1 0.603487 0.679592 0.938706
Si Si2 0.699868 0.319797 0.874432
Si Si3 0.696630 0.821131 0.559570
Si Si4 0.695604 0.680881 0.331083
Si Si5 0.148930 0.681122 0.773310
Si Si6 0.445399 0.821213 0.838405
O O1 0.596142 0.500000 0.939323
O O2 0.657905 0.722810 0.918083
O O3 0.562934 0.747590 0.898056
O O4 0.596345 0.747376 0.000000
O O5 0.704318 0.500000 0.864910
O O6 0.750000 0.250000 0.898469
O O7 0.689411 0.238666 0.816360
O O8 0.669726 0.795502 0.500000
O O9 0.750000 0.750000 0.554767
O O10 0.670912 0.736152 0.611016
O O11 0.700742 0.000000 0.573095
O O12 0.699545 0.500000 0.329299
O O13 0.750000 0.750000 0.323029
O O14 0.658660 0.738904 0.284551
O O15 0.152913 0.500000 0.766594
O O16 0.094778 0.734736 0.793889
O O17 0.500000 0.776700 0.817479
O O18 0.439683 0.000000 0.846949
#
# Coordination Sequence:
#
# PCOD8267718 Si02
#       6
#    16  16  16  16  16  16
#     4   9  19  34  49  67  91 117 145 177 214 261
#     4  10  19  31  46  64  88 117 149 182 217 258
#     4   9  16  26  40  59  86 121 159 193 223 255
#     4  11  20  29  43  64  92 124 158 190 221 258
#     4  10  19  32  48  65  88 115 146 183 222 266
#     4   9  19  35  53  71  89 111 140 178 225 271
#
# _framework density 16.589407999999999
#
# number of rings (size 3 to 8) (size 9 to 14) (size 15 to 20)
#    0.000    2.333    0.000    4.500    0.000    3.667 
#    0.000    1.667    0.000    0.000    0.000    0.000 
#    0.000    0.667    0.000    7.667    0.000    2.167 
#
# Total GULP energy -595007.694305 kJ/mol
# GULP energy per Si atom -12395.993631 kJ/mol
# Density = 1.655165 g / cm^3
# Si number density = 16.589408 Si / 1000 Ang^3
#
#
#
# Elastic Constant Matrix: (Units=GPa)
#
#
# Indices 1 2 3 4 5 6 
#
# 1 71.5631 26.1976 37.0980 0.0000 0.0000 0.0000
# 2 26.1976 81.4668 44.3020 0.0000 0.0000 0.0000
# 3 37.0980 44.3020 139.0368 0.0000 0.0000 0.0000
# 4 0.0000 0.0000 0.0000 28.1897 0.0000 0.0000
# 5 0.0000 0.0000 0.0000 0.0000 14.7424 0.0000
# 6 0.0000 0.0000 0.0000 0.0000 0.0000 18.8327
#
#
#
# Elastic Compliance Matrix: (Units=1/GPa)
#
#
# Indices 1 2 3 4 5 6 
#
# 1 0.017066 -0.003643 -0.003393 0.000000 0.000000 0.000000
# 2 -0.003643 0.015625 -0.004007 0.000000 0.000000 0.000000
# 3 -0.003393 -0.004007 0.009374 0.000000 0.000000 0.000000
# 4 0.000000 0.000000 0.000000 0.035474 0.000000 0.000000
# 5 0.000000 0.000000 0.000000 0.000000 0.067831 0.000000
# 6 0.000000 0.000000 0.000000 0.000000 0.000000 0.053099
#
#
# Mechanical properties :
#
#
# Convention : Reuss Voigt Hill
#
# Bulk Modulus (GPa) = 50.04848 56.36244 53.20546
# Shear Modulus (GPa) = 22.00553 24.65090 23.32821
#
# Velocity S-wave (km/s) = 3.64604 3.85897 3.75402
# Velocity P-wave (km/s) = 6.92526 7.34195 7.13665
#
# Compressibility (1/GPa) = 0.01998063
#
# Stress axis : x y z
#
# Youngs Moduli (GPa) = 58.59560 63.99870 106.67454
#
# Poissons Ratio (x) = 0.23315 0.36193
# Poissons Ratio (y) = 0.21346 0.42742
# Poissons Ratio (z) = 0.19880 0.25643
#
# Static dielectric constant tensor:
#      x y z
#    x 3.026030 0.000000 0.000000 
#    y 0.000000 3.206500 0.000000 
#    z 0.000000 0.000000 3.656530 
# 
# 
# High freq. dielectric constant tensor:
#      x y z
#    x 1.599330 0.000000 0.000000 
#    y 0.000000 1.651320 0.000000 
#    z 0.000000 0.000000 1.642660 
# 
# From -- ./inp_files/68047.got.cif
#   From: 2010.03.12/outbox.cif.g09.slc.cpg/sg65_35_cif.got.tgz:68047.got - 2010.04.10 20:52:16.
