data_PCOD8267200
_publ_section_title
;
Structure prediction by ZEFSAII (Michael W. Deem and Ramdas Pophale) SiO2 
 PCOD8267200
Probable space group: C M M M
;
_chemical_formula_sum "Si O2"
_cell_formula_units_Z 104
_cell_length_a 26.373990
_cell_length_b 9.471810
_cell_length_c 24.886314
_cell_angle_alpha 90.000000
_cell_angle_beta 90.000000
_cell_angle_gamma 90.000000
_cell_volume 6216.835722
_symmetry_space_group_name_H-M "C M M M"
_symmetry_group_IT_number 65
_symmetry_cell_setting 'orthorhombic'
loop_
_space_group_symop_operation_xyz
x,y,z
-x,-y,z
x,-y,-z
-x,y,-z
-x,-y,-z
x,y,-z
-x,y,z
x,-y,z
1/2+x,1/2+y,z
1/2-x,1/2-y,z
1/2+x,1/2-y,-z
1/2-x,1/2+y,-z
1/2-x,1/2-y,-z
1/2+x,1/2+y,-z
1/2-x,1/2+y,z
1/2+x,1/2-y,z
loop_
_atom_site_type_symbol
_atom_site_label
_atom_site_fract_x
_atom_site_fract_y
_atom_site_fract_z
Si Si1 0.900138 0.341281 0.403034
Si Si2 0.815327 0.500000 0.061047
Si Si3 0.701296 0.833916 0.340847
Si Si4 0.941176 0.166968 0.500000
Si Si5 0.352522 0.669638 0.246981
Si Si6 0.804590 0.000000 0.941457
Si Si7 0.690149 0.745809 0.867171
Si Si8 0.942082 0.339318 0.711182
O O1 0.908280 0.500000 0.425373
O O2 0.841804 0.320115 0.385896
O O3 0.913811 0.228209 0.447821
O O4 0.936492 0.313678 0.352381
O O5 0.755565 0.500000 0.053076
O O6 0.832378 0.375418 0.099963
O O7 0.839351 0.500000 0.000000
O O8 0.750000 0.750000 0.363455
O O9 0.684944 0.752736 0.286771
O O10 0.712514 0.000000 0.328514
O O11 0.000000 0.210852 0.500000
O O12 0.934071 0.000000 0.500000
O O13 0.348339 0.500000 0.254652
O O14 0.338698 0.717844 0.187652
O O15 0.409667 0.723331 0.256885
O O16 0.825172 0.870131 0.909337
O O17 0.829646 0.000000 0.000000
O O18 0.750000 0.750000 0.854677
O O19 0.923511 0.500000 0.724149
O O20 0.000000 0.317885 0.728258
#
# Coordination Sequence:
#
# PCOD8267200 Si02
#       8
#    16   8  16   8  16   8  16  16
#     4   9  19  36  56  78 102 134 170 205 247 303
#     4   9  18  28  44  66  91 131 173 208 244 289
#     4  10  21  36  55  76 103 138 176 213 253 298
#     4  11  23  35  52  81 110 133 166 213 260 301
#     4  11  21  32  48  74 104 135 171 208 250 302
#     4   9  16  30  44  60  93 133 169 202 242 293
#     4  10  19  29  44  67  98 133 169 205 246 292
#     4   9  19  36  56  76 100 130 165 207 259 308
#
# _framework density 16.728767000000001
#
# number of rings (size 3 to 8) (size 9 to 14) (size 15 to 20)
#    0.000    2.231    0.769    3.462    2.154    6.462 
#    0.000    0.385    0.000    0.000    0.000    0.000 
#    0.000    3.692    0.000    0.000    0.000    0.000 
#
# Total GULP energy -644418.785036 kJ/mol
# GULP energy per Si atom -12392.668943 kJ/mol
# Density = 1.669069 g / cm^3
# Si number density = 16.728767 Si / 1000 Ang^3
#
#
#
# Elastic Constant Matrix: (Units=GPa)
#
#
# Indices 1 2 3 4 5 6 
#
# 1 69.9649 44.0097 38.2938 0.0000 0.0000 0.0000
# 2 44.0097 147.6218 69.5113 0.0000 0.0000 0.0000
# 3 38.2938 69.5113 117.0087 0.0000 0.0000 0.0000
# 4 0.0000 0.0000 0.0000 39.2622 0.0000 0.0000
# 5 0.0000 0.0000 0.0000 0.0000 20.5604 0.0000
# 6 0.0000 0.0000 0.0000 0.0000 0.0000 24.3727
#
#
#
# Elastic Compliance Matrix: (Units=1/GPa)
#
#
# Indices 1 2 3 4 5 6 
#
# 1 0.018804 -0.003760 -0.003920 0.000000 0.000000 0.000000
# 2 -0.003760 0.010157 -0.004803 0.000000 0.000000 0.000000
# 3 -0.003920 -0.004803 0.012683 0.000000 0.000000 0.000000
# 4 0.000000 0.000000 0.000000 0.025470 0.000000 0.000000
# 5 0.000000 0.000000 0.000000 0.000000 0.048637 0.000000
# 6 0.000000 0.000000 0.000000 0.000000 0.000000 0.041030
#
#
# Mechanical properties :
#
#
# Convention : Reuss Voigt Hill
#
# Bulk Modulus (GPa) = 59.96535 70.91389 65.43962
# Shear Modulus (GPa) = 26.69436 29.02442 27.85939
#
# Velocity S-wave (km/s) = 3.99898 4.16985 4.08531
# Velocity P-wave (km/s) = 7.56610 8.10345 7.83938
#
# Compressibility (1/GPa) = 0.01667630
#
# Stress axis : x y z
#
# Youngs Moduli (GPa) = 53.18128 98.45701 78.84645
#
# Poissons Ratio (x) = 0.37018 0.30910
# Poissons Ratio (y) = 0.19995 0.37872
# Poissons Ratio (z) = 0.20849 0.47292
#
# Static dielectric constant tensor:
#      x y z
#    x 2.963860 0.000000 0.000000 
#    y 0.000000 3.255040 0.000000 
#    z 0.000000 0.000000 3.100210 
# 
# 
# High freq. dielectric constant tensor:
#      x y z
#    x 1.613970 0.000000 0.000000 
#    y 0.000000 1.662710 0.000000 
#    z 0.000000 0.000000 1.641450 
# 
# From -- ./inp_files/71891.got.cif
#   From: 2010.03.12/outbox.cif.g09.slc.cpg/sg65_36_cif.got.tgz:71891.got - 2010.04.10 20:52:16.
