data_PCOD8267394
_publ_section_title
;
Structure prediction by ZEFSAII (Michael W. Deem and Ramdas Pophale) SiO2 
 PCOD8267394
Probable space group: C M M M
;
_chemical_formula_sum "Si O2"
_cell_formula_units_Z 72
_cell_length_a 18.880855
_cell_length_b 9.385402
_cell_length_c 23.399064
_cell_angle_alpha 90.000000
_cell_angle_beta 90.000000
_cell_angle_gamma 90.000000
_cell_volume 4146.417431
_symmetry_space_group_name_H-M "C M M M"
_symmetry_group_IT_number 65
_symmetry_cell_setting 'orthorhombic'
loop_
_space_group_symop_operation_xyz
x,y,z
-x,-y,z
x,-y,-z
-x,y,-z
-x,-y,-z
x,y,-z
-x,y,z
x,-y,z
1/2+x,1/2+y,z
1/2-x,1/2-y,z
1/2+x,1/2-y,-z
1/2-x,1/2+y,-z
1/2-x,1/2-y,-z
1/2+x,1/2+y,-z
1/2-x,1/2+y,z
1/2+x,1/2-y,z
loop_
_atom_site_type_symbol
_atom_site_label
_atom_site_fract_x
_atom_site_fract_y
_atom_site_fract_z
Si Si1 0.078709 0.169233 0.231060
Si Si2 0.915743 0.158722 0.105427
Si Si3 0.676444 0.669992 0.334149
Si Si4 0.578970 0.330989 0.563482
Si Si5 0.584614 0.840017 0.000000
O O1 0.106171 0.217772 0.168218
O O2 0.132845 0.223025 0.278952
O O3 0.000000 0.231577 0.243532
O O4 0.073680 0.000000 0.231934
O O5 0.000000 0.152138 0.102366
O O6 0.884991 0.000000 0.095130
O O7 0.885358 0.262043 0.056479
O O8 0.687652 0.500000 0.334425
O O9 0.750000 0.750000 0.333203
O O10 0.634493 0.725361 0.390021
O O11 0.602642 0.280533 0.500000
O O12 0.500000 0.272382 0.577171
O O13 0.576487 0.500000 0.566264
O O14 0.500000 0.838016 0.000000
O O15 0.614121 0.000000 0.000000
#
# Coordination Sequence:
#
# PCOD8267394 Si02
#       5
#    16  16  16  16   8
#     4   8  14  26  45  65  82 108 151 193 220 249
#     4   8  13  22  37  56  77 103 138 178 215 250
#     4  10  19  30  45  66  92 119 147 182 224 266
#     4   8  14  26  46  70  91 114 150 191 222 251
#     4   9  15  21  31  53  86 115 134 159 207 267
#
# _framework density 17.364388000000002
#
# number of rings (size 3 to 8) (size 9 to 14) (size 15 to 20)
#    0.000    3.444    0.000    3.000    0.000    4.444 
#    0.000    1.111    0.000    4.000    0.000    2.333 
#    0.000    0.000    0.000    0.000    0.000    0.000 
#
# Total GULP energy -446111.279435 kJ/mol
# GULP energy per Si atom -12391.979984 kJ/mol
# Density = 1.732487 g / cm^3
# Si number density = 17.364388 Si / 1000 Ang^3
#
#
#
# Elastic Constant Matrix: (Units=GPa)
#
#
# Indices 1 2 3 4 5 6 
#
# 1 88.2797 29.0833 80.1135 0.0000 0.0000 0.0000
# 2 29.0833 48.2856 50.2096 0.0000 0.0000 0.0000
# 3 80.1135 50.2096 190.5034 0.0000 0.0000 0.0000
# 4 0.0000 0.0000 0.0000 10.8415 0.0000 0.0000
# 5 0.0000 0.0000 0.0000 0.0000 5.2843 0.0000
# 6 0.0000 0.0000 0.0000 0.0000 0.0000 19.7300
#
#
#
# Elastic Compliance Matrix: (Units=1/GPa)
#
#
# Indices 1 2 3 4 5 6 
#
# 1 0.018947 -0.004307 -0.006833 0.000000 0.000000 0.000000
# 2 -0.004307 0.029508 -0.005966 0.000000 0.000000 0.000000
# 3 -0.006833 -0.005966 0.009695 0.000000 0.000000 0.000000
# 4 0.000000 0.000000 0.000000 0.092238 0.000000 0.000000
# 5 0.000000 0.000000 0.000000 0.000000 0.189239 0.000000
# 6 0.000000 0.000000 0.000000 0.000000 0.000000 0.050684
#
#
# Mechanical properties :
#
#
# Convention : Reuss Voigt Hill
#
# Bulk Modulus (GPa) = 41.77355 71.76463 56.76909
# Shear Modulus (GPa) = 11.56059 18.34865 14.95462
#
# Velocity S-wave (km/s) = 2.58304 3.25419 2.93784
# Velocity P-wave (km/s) = 5.74503 7.45238 6.65370
#
# Compressibility (1/GPa) = 0.02393859
#
# Stress axis : x y z
#
# Youngs Moduli (GPa) = 52.77767 33.88904 103.14519
#
# Poissons Ratio (x) = 0.14597 0.70477
# Poissons Ratio (y) = 0.22733 0.61535
# Poissons Ratio (z) = 0.36062 0.20218
#
# Static dielectric constant tensor:
#      x y z
#    x 2.939850 0.000000 0.000000 
#    y 0.000000 2.845290 0.000000 
#    z 0.000000 0.000000 3.829730 
# 
# 
# High freq. dielectric constant tensor:
#      x y z
#    x 1.628350 0.000000 0.000000 
#    y 0.000000 1.619330 0.000000 
#    z 0.000000 0.000000 1.694430 
# 
# From -- ./inp_files/67080.got.cif
#   From: 2010.03.12/outbox.cif.g09.slc.cpg/sg65_34_cif.got.tgz:67080.got - 2010.04.10 20:52:16.
