data_PCOD8267036
_publ_section_title
;
Structure prediction by ZEFSAII (Michael W. Deem and Ramdas Pophale) SiO2 
 PCOD8267036
Probable space group: C M M M
;
_chemical_formula_sum "Si O2"
_cell_formula_units_Z 128
_cell_length_a 22.801335
_cell_length_b 17.593029
_cell_length_c 19.282750
_cell_angle_alpha 90.000000
_cell_angle_beta 90.000000
_cell_angle_gamma 90.000000
_cell_volume 7735.170031
_symmetry_space_group_name_H-M "C M M M"
_symmetry_group_IT_number 65
_symmetry_cell_setting 'orthorhombic'
loop_
_space_group_symop_operation_xyz
x,y,z
-x,-y,z
x,-y,-z
-x,y,-z
-x,-y,-z
x,y,-z
-x,y,z
x,-y,z
1/2+x,1/2+y,z
1/2-x,1/2-y,z
1/2+x,1/2-y,-z
1/2-x,1/2+y,-z
1/2-x,1/2-y,-z
1/2+x,1/2+y,-z
1/2-x,1/2+y,z
1/2+x,1/2-y,z
loop_
_atom_site_type_symbol
_atom_site_label
_atom_site_fract_x
_atom_site_fract_y
_atom_site_fract_z
Si Si1 0.832123 0.684800 0.575855
Si Si2 0.065722 0.586921 0.822434
Si Si3 0.707438 0.585381 0.717844
Si Si4 0.736707 0.083649 0.077848
Si Si5 0.655431 0.087018 0.702566
Si Si6 0.125539 0.309755 0.920463
Si Si7 0.304870 0.305293 0.833586
Si Si8 0.304337 0.351226 0.575887
O O1 0.857950 0.662175 0.500000
O O2 0.863532 0.637115 0.636261
O O3 0.763732 0.667735 0.576635
O O4 0.841624 0.774529 0.588543
O O5 0.077061 0.500000 0.846375
O O6 0.113411 0.612099 0.765305
O O7 0.070976 0.644362 0.887792
O O8 0.000000 0.595045 0.792151
O O9 0.692558 0.500000 0.743902
O O10 0.777339 0.600769 0.724870
O O11 0.675976 0.652768 0.761987
O O12 0.683963 0.590570 0.638691
O O13 0.677965 0.131041 0.081487
O O14 0.788200 0.124464 0.118170
O O15 0.725115 0.000000 0.110187
O O16 0.759246 0.076424 0.000000
O O17 0.644748 0.000000 0.681722
O O18 0.141660 0.237673 0.871829
O O19 0.112171 0.284244 0.000000
O O20 0.250000 0.250000 0.820080
O O21 0.320892 0.386346 0.500000
#
# Coordination Sequence:
#
# PCOD8267036 Si02
#       8
#    16  16  16  16  16  16  16  16
#     4   8  14  24  40  61  87 120 158 190 217 255
#     4  10  21  35  49  65  86 114 148 192 240 272
#     4  10  19  27  41  65  92 125 158 182 209 255
#     4   9  16  27  43  62  89 120 145 172 208 256
#     4   9  17  28  43  63  90 122 159 193 221 261
#     4  10  20  32  46  65  85 112 149 185 221 268
#     4  10  19  27  41  61  88 118 146 180 214 261
#     4   8  15  25  38  58  88 123 156 187 215 247
#
# _framework density 16.547794
#
# number of rings (size 3 to 8) (size 9 to 14) (size 15 to 20)
#    0.000    2.750    0.000    3.375    5.250    4.000 
#    0.000    3.125    0.000    0.375    0.000    1.750 
#    0.000    2.000    0.000    6.125    0.000    4.125 
#
# Total GULP energy -793058.767157 kJ/mol
# GULP energy per Si atom -12391.543237 kJ/mol
# Density = 1.651013 g / cm^3
# Si number density = 16.547794 Si / 1000 Ang^3
#
#
#
# Elastic Constant Matrix: (Units=GPa)
#
#
# Indices 1 2 3 4 5 6 
#
# 1 25.2040 13.2558 26.7817 0.0000 0.0000 0.0000
# 2 13.2558 76.7494 56.0336 0.0000 0.0000 0.0000
# 3 26.7817 56.0336 113.4099 0.0000 0.0000 0.0000
# 4 0.0000 0.0000 0.0000 33.5165 0.0000 0.0000
# 5 0.0000 0.0000 0.0000 0.0000 8.7341 0.0000
# 6 0.0000 0.0000 0.0000 0.0000 0.0000 14.4350
#
#
#
# Elastic Compliance Matrix: (Units=1/GPa)
#
#
# Indices 1 2 3 4 5 6 
#
# 1 0.052967 -0.000025 -0.012496 0.000000 0.000000 0.000000
# 2 -0.000025 0.020381 -0.010064 0.000000 0.000000 0.000000
# 3 -0.012496 -0.010064 0.016741 0.000000 0.000000 0.000000
# 4 0.000000 0.000000 0.000000 0.029836 0.000000 0.000000
# 5 0.000000 0.000000 0.000000 0.000000 0.114494 0.000000
# 6 0.000000 0.000000 0.000000 0.000000 0.000000 0.069276
#
#
# Mechanical properties :
#
#
# Convention : Reuss Voigt Hill
#
# Bulk Modulus (GPa) = 22.26204 45.27838 33.77021
# Shear Modulus (GPa) = 13.74235 19.28993 16.51614
#
# Velocity S-wave (km/s) = 2.88490 3.41795 3.16268
# Velocity P-wave (km/s) = 4.95775 6.55730 5.81280
#
# Compressibility (1/GPa) = 0.04491952
#
# Stress axis : x y z
#
# Youngs Moduli (GPa) = 18.87953 49.06420 59.73389
#
# Poissons Ratio (x) = 0.00124 0.74642
# Poissons Ratio (y) = 0.00048 0.60117
# Poissons Ratio (z) = 0.23591 0.49379
#
# Static dielectric constant tensor:
#      x y z
#    x 2.517960 0.000000 0.000000 
#    y 0.000000 3.228580 0.000000 
#    z 0.000000 0.000000 3.562800 
# 
# 
# High freq. dielectric constant tensor:
#      x y z
#    x 1.550630 0.000000 0.000000 
#    y 0.000000 1.640330 0.000000 
#    z 0.000000 0.000000 1.655070 
# 
# From -- ./inp_files/65588.got.cif
#   From: 2010.03.12/outbox.cif.g09.slc.cpg/sg65_33_cif.got.tgz:65588.got - 2010.04.10 20:52:16.
