data_PCOD8267451
_publ_section_title
;
Structure prediction by ZEFSAII (Michael W. Deem and Ramdas Pophale) SiO2 
 PCOD8267451
Probable space group: C M M M
;
_chemical_formula_sum "Si O2"
_cell_formula_units_Z 96
_cell_length_a 19.745463
_cell_length_b 8.932922
_cell_length_c 31.257512
_cell_angle_alpha 90.000000
_cell_angle_beta 90.000000
_cell_angle_gamma 90.000000
_cell_volume 5513.346278
_symmetry_space_group_name_H-M "C M M M"
_symmetry_group_IT_number 65
_symmetry_cell_setting 'orthorhombic'
loop_
_space_group_symop_operation_xyz
x,y,z
-x,-y,z
x,-y,-z
-x,y,-z
-x,-y,-z
x,y,-z
-x,y,z
x,-y,z
1/2+x,1/2+y,z
1/2-x,1/2-y,z
1/2+x,1/2-y,-z
1/2-x,1/2+y,-z
1/2-x,1/2-y,-z
1/2+x,1/2+y,-z
1/2-x,1/2+y,z
1/2+x,1/2-y,z
loop_
_atom_site_type_symbol
_atom_site_label
_atom_site_fract_x
_atom_site_fract_y
_atom_site_fract_z
Si Si1 0.919501 0.834148 0.788981
Si Si2 0.675953 0.821570 0.629998
Si Si3 0.076428 0.323565 0.704520
Si Si4 0.424681 0.321349 0.117846
Si Si5 0.822736 0.175312 0.546392
Si Si6 0.820183 0.823479 0.951621
O O1 0.894250 0.730748 0.750148
O O2 0.896086 0.770332 0.835414
O O3 0.000000 0.840857 0.790256
O O4 0.889616 0.000000 0.781285
O O5 0.750000 0.750000 0.636972
O O6 0.626643 0.765986 0.667690
O O7 0.640975 0.759253 0.586058
O O8 0.682128 0.000000 0.628136
O O9 0.074954 0.500000 0.705319
O O10 0.000000 0.261445 0.696410
O O11 0.500000 0.256648 0.109778
O O12 0.427299 0.500000 0.117221
O O13 0.376952 0.258820 0.080324
O O14 0.859841 0.197858 0.500000
O O15 0.750000 0.250000 0.542978
O O16 0.815379 0.000000 0.556896
O O17 0.750000 0.750000 0.938111
O O18 0.812464 0.000000 0.946861
O O19 0.840598 0.778878 0.000000
#
# Coordination Sequence:
#
# PCOD8267451 Si02
#       6
#    16  16  16  16  16  16
#     4   8  14  26  45  66  86 111 143 179 219 260
#     4  10  19  30  46  67  91 117 144 180 222 259
#     4   9  18  32  48  66  89 117 149 182 216 259
#     4   8  14  26  45  68  89 108 140 186 224 254
#     4   9  16  26  42  64  89 116 146 180 217 258
#     4   9  17  29  45  64  88 119 149 177 214 260
#
# _framework density 17.412293999999999
#
# number of rings (size 3 to 8) (size 9 to 14) (size 15 to 20)
#    0.000    3.167    0.000    3.000    0.000    2.667 
#    0.000    3.333    0.000    6.000    0.000    5.833 
#    0.000    0.000    0.000    0.000    0.000    0.000 
#
# Total GULP energy -594703.719555 kJ/mol
# GULP energy per Si atom -12389.660824 kJ/mol
# Density = 1.737266 g / cm^3
# Si number density = 17.412294 Si / 1000 Ang^3
#
#
#
# Elastic Constant Matrix: (Units=GPa)
#
#
# Indices 1 2 3 4 5 6 
#
# 1 68.0222 21.6866 75.4157 0.0000 0.0000 0.0000
# 2 21.6866 38.0677 34.4822 0.0000 0.0000 0.0000
# 3 75.4157 34.4822 180.4796 0.0000 0.0000 0.0000
# 4 0.0000 0.0000 0.0000 25.2314 0.0000 0.0000
# 5 0.0000 0.0000 0.0000 0.0000 30.4149 0.0000
# 6 0.0000 0.0000 0.0000 0.0000 0.0000 17.1194
#
#
#
# Elastic Compliance Matrix: (Units=1/GPa)
#
#
# Indices 1 2 3 4 5 6 
#
# 1 0.028714 -0.006638 -0.010730 0.000000 0.000000 0.000000
# 2 -0.006638 0.033301 -0.003589 0.000000 0.000000 0.000000
# 3 -0.010730 -0.003589 0.010710 0.000000 0.000000 0.000000
# 4 0.000000 0.000000 0.000000 0.039633 0.000000 0.000000
# 5 0.000000 0.000000 0.000000 0.000000 0.032879 0.000000
# 6 0.000000 0.000000 0.000000 0.000000 0.000000 0.058413
#
#
# Mechanical properties :
#
#
# Convention : Reuss Voigt Hill
#
# Bulk Modulus (GPa) = 32.45570 61.08204 46.76887
# Shear Modulus (GPa) = 19.54384 24.88548 22.21466
#
# Velocity S-wave (km/s) = 3.35388 3.78456 3.57571
# Velocity P-wave (km/s) = 5.80328 7.36568 6.63066
#
# Compressibility (1/GPa) = 0.03081123
#
# Stress axis : x y z
#
# Youngs Moduli (GPa) = 34.82631 30.02878 93.36935
#
# Poissons Ratio (x) = 0.19934 1.00187
# Poissons Ratio (y) = 0.23119 0.33506
# Poissons Ratio (z) = 0.37369 0.10776
#
# Static dielectric constant tensor:
#      x y z
#    x 3.056980 0.000000 0.000000 
#    y 0.000000 3.090120 0.000000 
#    z 0.000000 0.000000 3.979680 
# 
# 
# High freq. dielectric constant tensor:
#      x y z
#    x 1.625660 0.000000 0.000000 
#    y 0.000000 1.655990 0.000000 
#    z 0.000000 0.000000 1.695640 
# 
# From -- ./inp_files/75679.got.cif
#   From: 2010.03.12/outbox.cif.g09.slc.cpg/sg65_38_cif.got.tgz:75679.got - 2010.04.10 20:52:16.
