data_PCOD8267300
_publ_section_title
;
Structure prediction by ZEFSAII (Michael W. Deem and Ramdas Pophale) SiO2 
 PCOD8267300
Probable space group: C M M M
;
_chemical_formula_sum "Si O2"
_cell_formula_units_Z 104
_cell_length_a 9.062065
_cell_length_b 25.607664
_cell_length_c 29.885669
_cell_angle_alpha 90.000000
_cell_angle_beta 90.000000
_cell_angle_gamma 90.000000
_cell_volume 6935.218011
_symmetry_space_group_name_H-M "C M M M"
_symmetry_group_IT_number 65
_symmetry_cell_setting 'orthorhombic'
loop_
_space_group_symop_operation_xyz
x,y,z
-x,-y,z
x,-y,-z
-x,y,-z
-x,-y,-z
x,y,-z
-x,y,z
x,-y,z
1/2+x,1/2+y,z
1/2-x,1/2-y,z
1/2+x,1/2-y,-z
1/2-x,1/2+y,-z
1/2-x,1/2-y,-z
1/2+x,1/2+y,-z
1/2-x,1/2+y,z
1/2+x,1/2-y,z
loop_
_atom_site_type_symbol
_atom_site_label
_atom_site_fract_x
_atom_site_fract_y
_atom_site_fract_z
Si Si1 0.830924 0.000000 0.552962
Si Si2 0.334149 0.937953 0.778414
Si Si3 0.828646 0.061542 0.310757
Si Si4 0.327461 0.198096 0.449191
Si Si5 0.165644 0.062358 0.134845
Si Si6 0.165910 0.562081 0.950812
Si Si7 0.325051 0.093917 0.398427
O O1 0.749095 0.949161 0.570543
O O2 0.823790 0.000000 0.500000
O O3 0.000000 0.000000 0.570386
O O4 0.500000 0.915663 0.774128
O O5 0.236631 0.919501 0.736497
O O6 0.261115 0.915854 0.823749
O O7 0.337554 0.000000 0.780270
O O8 0.738933 0.091909 0.348623
O O9 0.000000 0.076695 0.312529
O O10 0.805371 0.000000 0.318144
O O11 0.275700 0.186457 0.500000
O O12 0.500000 0.207998 0.447210
O O13 0.250000 0.250000 0.430337
O O14 0.281083 0.149805 0.418391
O O15 0.230932 0.084893 0.088343
O O16 0.000000 0.083477 0.139938
O O17 0.168070 0.000000 0.134687
O O18 0.166306 0.500000 0.948525
O O19 0.000000 0.582694 0.943089
O O20 0.223311 0.580153 0.000000
O O21 0.500000 0.084624 0.397686
#
# Coordination Sequence:
#
# PCOD8267300 Si02
#       7
#     8  16  16  16  16  16  16
#     4  11  23  35  47  67  93 119 145 171 204 245
#     4   9  16  25  37  50  66  91 123 154 189 233
#     4  10  19  30  43  60  84 108 134 165 201 243
#     4   9  19  35  53  72  91 113 142 174 207 243
#     4   9  15  21  29  42  59  79 107 144 187 231
#     4   8  13  20  28  37  51  73 102 138 182 231
#     4  11  21  33  50  69  91 116 143 172 206 249
#
# _framework density 14.995924
#
# number of rings (size 3 to 8) (size 9 to 14) (size 15 to 20)
#    0.000    2.538    0.769    3.000    0.000    7.077 
#    0.000    3.077    0.000    0.000    0.000    0.000 
#    0.000    0.000    0.000    0.000    0.000    0.000 
#
# Total GULP energy -644709.163153 kJ/mol
# GULP energy per Si atom -12398.253138 kJ/mol
# Density = 1.496179 g / cm^3
# Si number density = 14.995924 Si / 1000 Ang^3
#
#
#
# Elastic Constant Matrix: (Units=GPa)
#
#
# Indices 1 2 3 4 5 6 
#
# 1 108.0257 34.8063 63.8186 0.0000 0.0000 0.0000
# 2 34.8063 52.3661 36.8877 0.0000 0.0000 0.0000
# 3 63.8186 36.8877 126.8761 0.0000 0.0000 0.0000
# 4 0.0000 0.0000 0.0000 6.0775 0.0000 0.0000
# 5 0.0000 0.0000 0.0000 0.0000 30.7127 0.0000
# 6 0.0000 0.0000 0.0000 0.0000 0.0000 14.3596
#
#
#
# Elastic Compliance Matrix: (Units=1/GPa)
#
#
# Indices 1 2 3 4 5 6 
#
# 1 0.014371 -0.005609 -0.005598 0.000000 0.000000 0.000000
# 2 -0.005609 0.026204 -0.004797 0.000000 0.000000 0.000000
# 3 -0.005598 -0.004797 0.012092 0.000000 0.000000 0.000000
# 4 0.000000 0.000000 0.000000 0.164541 0.000000 0.000000
# 5 0.000000 0.000000 0.000000 0.000000 0.032560 0.000000
# 6 0.000000 0.000000 0.000000 0.000000 0.000000 0.069640
#
#
# Mechanical properties :
#
#
# Convention : Reuss Voigt Hill
#
# Bulk Modulus (GPa) = 48.40489 62.03258 55.21874
# Shear Modulus (GPa) = 13.95469 20.34698 17.15083
#
# Velocity S-wave (km/s) = 3.05383 3.68752 3.38553
# Velocity P-wave (km/s) = 6.69203 7.71923 7.22391
#
# Compressibility (1/GPa) = 0.02065907
#
# Stress axis : x y z
#
# Youngs Moduli (GPa) = 69.58218 38.16264 82.69748
#
# Poissons Ratio (x) = 0.21405 0.46295
# Poissons Ratio (y) = 0.39028 0.39671
# Poissons Ratio (z) = 0.38953 0.18307
#
# Static dielectric constant tensor:
#      x y z
#    x 3.089510 0.000000 0.000000 
#    y 0.000000 2.351950 0.000000 
#    z 0.000000 0.000000 3.139490 
# 
# 
# High freq. dielectric constant tensor:
#      x y z
#    x 1.591160 0.000000 0.000000 
#    y 0.000000 1.491730 0.000000 
#    z 0.000000 0.000000 1.588760 
# 
# From -- ./inp_files/73599.got.cif
#   From: 2010.03.12/outbox.cif.g09.slc.cpg/sg65_37_cif.got.tgz:73599.got - 2010.04.10 20:52:16.
