data_PCOD8267630
_publ_section_title
;
Structure prediction by ZEFSAII (Michael W. Deem and Ramdas Pophale) SiO2 
 PCOD8267630
Probable space group: C M M M
;
_chemical_formula_sum "Si O2"
_cell_formula_units_Z 120
_cell_length_a 8.976754
_cell_length_b 29.050694
_cell_length_c 25.621371
_cell_angle_alpha 90.000000
_cell_angle_beta 90.000000
_cell_angle_gamma 90.000000
_cell_volume 6681.565049
_symmetry_space_group_name_H-M "C M M M"
_symmetry_group_IT_number 65
_symmetry_cell_setting 'orthorhombic'
loop_
_space_group_symop_operation_xyz
x,y,z
-x,-y,z
x,-y,-z
-x,y,-z
-x,-y,-z
x,y,-z
-x,y,z
x,-y,z
1/2+x,1/2+y,z
1/2-x,1/2-y,z
1/2+x,1/2-y,-z
1/2-x,1/2+y,-z
1/2-x,1/2-y,-z
1/2+x,1/2+y,-z
1/2-x,1/2+y,z
1/2+x,1/2-y,z
loop_
_atom_site_type_symbol
_atom_site_label
_atom_site_fract_x
_atom_site_fract_y
_atom_site_fract_z
Si Si1 0.174647 0.702744 0.861215
Si Si2 0.824276 0.052651 0.395779
Si Si3 0.824565 0.702115 0.258445
Si Si4 0.832671 0.554646 0.500000
Si Si5 0.671549 0.363207 0.941640
Si Si6 0.327052 0.947426 0.095441
Si Si7 0.669283 0.447582 0.798139
Si Si8 0.675184 0.614293 0.701058
O O1 0.250000 0.750000 0.878839
O O2 0.217276 0.690373 0.801655
O O3 0.231194 0.663399 0.899448
O O4 0.000000 0.708580 0.868199
O O5 0.750316 0.072470 0.448318
O O6 0.770965 0.085792 0.349258
O O7 0.000000 0.054557 0.403110
O O8 0.773863 0.000000 0.383967
O O9 0.750000 0.750000 0.275244
O O10 0.761342 0.662566 0.296117
O O11 0.000000 0.706511 0.266243
O O12 0.829580 0.500000 0.500000
O O13 0.000000 0.574078 0.500000
O O14 0.500000 0.361320 0.924650
O O15 0.729329 0.415728 0.942524
O O16 0.692244 0.342844 0.000000
O O17 0.500000 0.935426 0.088915
O O18 0.281238 0.937482 0.154931
O O19 0.293282 0.000000 0.080030
O O20 0.500000 0.436842 0.816083
O O21 0.681991 0.500000 0.778635
O O22 0.719727 0.415551 0.751050
O O23 0.500000 0.624086 0.698999
#
# Coordination Sequence:
#
# PCOD8267630 Si02
#       8
#    16  16  16   8  16  16  16  16
#     4  10  21  38  60  82 104 131 162 198 244 300
#     4   9  17  30  48  71 102 141 181 215 249 293
#     4  10  21  36  54  76 101 130 165 203 246 297
#     4   9  17  29  45  67  98 137 180 223 261 293
#     4  11  24  39  55  76 100 127 162 204 249 297
#     4  10  21  36  53  73  98 130 167 205 247 296
#     4   9  17  30  49  73 102 135 167 199 239 292
#     4  10  19  30  48  75 105 135 168 208 251 294
#
# _framework density 17.959862999999999
#
# number of rings (size 3 to 8) (size 9 to 14) (size 15 to 20)
#    0.000    2.200    0.000    3.000    0.000    9.600 
#    0.000    1.333    0.000    4.000    0.000    0.467 
#    0.000    0.000    0.000    0.000    0.000    0.000 
#
# Total GULP energy -744132.166401 kJ/mol
# GULP energy per Si atom -12402.202773 kJ/mol
# Density = 1.791899 g / cm^3
# Si number density = 17.959863 Si / 1000 Ang^3
#
#
#
# Elastic Constant Matrix: (Units=GPa)
#
#
# Indices 1 2 3 4 5 6 
#
# 1 66.3886 39.6639 33.7636 0.0000 0.0000 0.0000
# 2 39.6639 97.8302 49.9282 0.0000 0.0000 0.0000
# 3 33.7636 49.9282 78.4529 0.0000 0.0000 0.0000
# 4 0.0000 0.0000 0.0000 20.7129 0.0000 0.0000
# 5 0.0000 0.0000 0.0000 0.0000 22.5518 0.0000
# 6 0.0000 0.0000 0.0000 0.0000 0.0000 32.2262
#
#
#
# Elastic Compliance Matrix: (Units=1/GPa)
#
#
# Indices 1 2 3 4 5 6 
#
# 1 0.021342 -0.005873 -0.005447 0.000000 0.000000 0.000000
# 2 -0.005873 0.016755 -0.008136 0.000000 0.000000 0.000000
# 3 -0.005447 -0.008136 0.020268 0.000000 0.000000 0.000000
# 4 0.000000 0.000000 0.000000 0.048279 0.000000 0.000000
# 5 0.000000 0.000000 0.000000 0.000000 0.044342 0.000000
# 6 0.000000 0.000000 0.000000 0.000000 0.000000 0.031031
#
#
# Mechanical properties :
#
#
# Convention : Reuss Voigt Hill
#
# Bulk Modulus (GPa) = 51.40362 54.37591 52.88977
# Shear Modulus (GPa) = 21.98642 23.05257 22.51949
#
# Velocity S-wave (km/s) = 3.50265 3.58657 3.54486
# Velocity P-wave (km/s) = 6.71130 6.89154 6.80202
#
# Compressibility (1/GPa) = 0.01945388
#
# Stress axis : x y z
#
# Youngs Moduli (GPa) = 46.85622 59.68448 49.33777
#
# Poissons Ratio (x) = 0.35051 0.26877
# Poissons Ratio (y) = 0.27517 0.40139
# Poissons Ratio (z) = 0.25525 0.48556
#
# Static dielectric constant tensor:
#      x y z
#    x 3.316710 0.000000 0.000000 
#    y 0.000000 3.304200 0.000000 
#    z 0.000000 0.000000 3.236800 
# 
# 
# High freq. dielectric constant tensor:
#      x y z
#    x 1.700610 0.000000 0.000000 
#    y 0.000000 1.686050 0.000000 
#    z 0.000000 0.000000 1.679160 
# 
# From -- ./inp_files/73959.got.cif
#   From: 2010.03.12/outbox.cif.g09.slc.cpg/sg65_37_cif.got.tgz:73959.got - 2010.04.10 20:52:16.
