data_PCOD8267521
_publ_section_title
;
Structure prediction by ZEFSAII (Michael W. Deem and Ramdas Pophale) SiO2 
 PCOD8267521
Probable space group: C M M M
;
_chemical_formula_sum "Si O2"
_cell_formula_units_Z 72
_cell_length_a 17.206681
_cell_length_b 27.864819
_cell_length_c 9.032772
_cell_angle_alpha 90.000000
_cell_angle_beta 90.000000
_cell_angle_gamma 90.000000
_cell_volume 4330.862362
_symmetry_space_group_name_H-M "C M M M"
_symmetry_group_IT_number 65
_symmetry_cell_setting 'orthorhombic'
loop_
_space_group_symop_operation_xyz
x,y,z
-x,-y,z
x,-y,-z
-x,y,-z
-x,-y,-z
x,y,-z
-x,y,z
x,-y,z
1/2+x,1/2+y,z
1/2-x,1/2-y,z
1/2+x,1/2-y,-z
1/2-x,1/2+y,-z
1/2-x,1/2-y,-z
1/2+x,1/2+y,-z
1/2-x,1/2+y,z
1/2+x,1/2-y,z
loop_
_atom_site_type_symbol
_atom_site_label
_atom_site_fract_x
_atom_site_fract_y
_atom_site_fract_z
Si Si1 0.177863 0.214378 0.166827
Si Si2 0.656035 0.055485 0.826254
Si Si3 0.500000 0.056573 0.664891
Si Si4 0.226259 0.639623 0.673992
Si Si5 0.587930 0.209839 0.329298
O O1 0.250000 0.250000 0.170958
O O2 0.198875 0.167491 0.262826
O O3 0.104322 0.241724 0.236946
O O4 0.157567 0.198605 0.000000
O O5 0.575514 0.072961 0.753960
O O6 0.723431 0.087718 0.753201
O O7 0.674198 0.000000 0.790949
O O8 0.651025 0.064881 0.000000
O O9 0.500000 0.080287 0.500000
O O10 0.500000 0.000000 0.648574
O O11 0.236505 0.632548 0.500000
O O12 0.146834 0.667580 0.715787
O O13 0.600226 0.223376 0.500000
O O14 0.500000 0.192392 0.296815
#
# Coordination Sequence:
#
# PCOD8267521 Si02
#       5
#    16  16   8  16  16
#     4   9  17  30  46  64  88 116 147 183 225 271
#     4  10  20  32  44  61  87 117 150 190 231 266
#     4   9  17  29  43  57  77 109 147 185 223 261
#     4  10  19  30  47  66  88 120 155 188 225 269
#     4   9  18  31  46  66  91 117 148 187 226 267
#
# _framework density 16.624865
#
# number of rings (size 3 to 8) (size 9 to 14) (size 15 to 20)
#    0.000    2.556    0.000    2.333    1.556    6.667 
#    0.000    0.000    0.000    0.000    0.000    0.000 
#    0.000    0.889    0.000    9.333    0.000    4.000 
#
# Total GULP energy -446390.182683 kJ/mol
# GULP energy per Si atom -12399.727297 kJ/mol
# Density = 1.658703 g / cm^3
# Si number density = 16.624865 Si / 1000 Ang^3
#
#
#
# Elastic Constant Matrix: (Units=GPa)
#
#
# Indices 1 2 3 4 5 6 
#
# 1 22.7704 13.1785 13.5260 0.0000 0.0000 0.0000
# 2 13.1785 76.2880 47.8066 0.0000 0.0000 0.0000
# 3 13.5260 47.8066 104.4956 0.0000 0.0000 0.0000
# 4 0.0000 0.0000 0.0000 29.9936 0.0000 0.0000
# 5 0.0000 0.0000 0.0000 0.0000 22.2904 0.0000
# 6 0.0000 0.0000 0.0000 0.0000 0.0000 25.4020
#
#
#
# Elastic Compliance Matrix: (Units=1/GPa)
#
#
# Indices 1 2 3 4 5 6 
#
# 1 0.049698 -0.006384 -0.003512 0.000000 0.000000 0.000000
# 2 -0.006384 0.019197 -0.007956 0.000000 0.000000 0.000000
# 3 -0.003512 -0.007956 0.013664 0.000000 0.000000 0.000000
# 4 0.000000 0.000000 0.000000 0.033340 0.000000 0.000000
# 5 0.000000 0.000000 0.000000 0.000000 0.044862 0.000000
# 6 0.000000 0.000000 0.000000 0.000000 0.000000 0.039367
#
#
# Mechanical properties :
#
#
# Convention : Reuss Voigt Hill
#
# Bulk Modulus (GPa) = 21.34294 39.17515 30.25905
# Shear Modulus (GPa) = 19.88453 24.14007 22.01230
#
# Velocity S-wave (km/s) = 3.46218 3.81471 3.64271
# Velocity P-wave (km/s) = 5.37104 6.55881 5.99442
#
# Compressibility (1/GPa) = 0.04685389
#
# Stress axis : x y z
#
# Youngs Moduli (GPa) = 20.12163 52.09187 73.18327
#
# Poissons Ratio (x) = 0.33256 0.25703
# Poissons Ratio (y) = 0.12846 0.58226
# Poissons Ratio (z) = 0.07067 0.41445
#
# Static dielectric constant tensor:
#      x y z
#    x 2.837710 0.000000 0.000000 
#    y 0.000000 3.057860 0.000000 
#    z 0.000000 0.000000 3.267890 
# 
# 
# High freq. dielectric constant tensor:
#      x y z
#    x 1.590720 0.000000 0.000000 
#    y 0.000000 1.627880 0.000000 
#    z 0.000000 0.000000 1.656950 
# 
# From -- ./inp_files/9270.got.cif
#   From: 2010.03.12/outbox.cif.g09.slc.cpg/sg65_5_cif.got.tgz:9270.got - 2010.04.10 20:52:16.
