data_PCOD8267252
_publ_section_title
;
Structure prediction by ZEFSAII (Michael W. Deem and Ramdas Pophale) SiO2 
 PCOD8267252
Probable space group: C M M M
;
_chemical_formula_sum "Si O2"
_cell_formula_units_Z 96
_cell_length_a 8.256051
_cell_length_b 27.174275
_cell_length_c 24.976258
_cell_angle_alpha 90.000000
_cell_angle_beta 90.000000
_cell_angle_gamma 90.000000
_cell_volume 5603.478437
_symmetry_space_group_name_H-M "C M M M"
_symmetry_group_IT_number 65
_symmetry_cell_setting 'orthorhombic'
loop_
_space_group_symop_operation_xyz
x,y,z
-x,-y,z
x,-y,-z
-x,y,-z
-x,-y,-z
x,y,-z
-x,y,z
x,-y,z
1/2+x,1/2+y,z
1/2-x,1/2-y,z
1/2+x,1/2-y,-z
1/2-x,1/2+y,-z
1/2-x,1/2-y,-z
1/2+x,1/2+y,-z
1/2-x,1/2+y,z
1/2+x,1/2-y,z
loop_
_atom_site_type_symbol
_atom_site_label
_atom_site_fract_x
_atom_site_fract_y
_atom_site_fract_z
Si Si1 0.816120 0.057657 0.125777
Si Si2 0.810335 0.444372 0.341886
Si Si3 0.000000 0.558344 0.939977
Si Si4 0.184101 0.851526 0.604164
Si Si5 0.312437 0.197685 0.291473
Si Si6 0.317302 0.804204 0.500000
Si Si7 0.687160 0.898874 0.769604
O O1 0.669028 0.076455 0.087505
O O2 0.801483 0.086464 0.181505
O O3 0.000000 0.067682 0.102810
O O4 0.793141 0.000000 0.136708
O O5 0.759087 0.500000 0.355330
O O6 0.719389 0.408464 0.382533
O O7 0.762937 0.432422 0.280812
O O8 0.000000 0.435213 0.349390
O O9 0.000000 0.500000 0.941207
O O10 0.000000 0.579995 0.000000
O O11 0.221533 0.816673 0.654359
O O12 0.281012 0.835802 0.552337
O O13 0.000000 0.845077 0.588507
O O14 0.500000 0.199580 0.305967
O O15 0.250000 0.250000 0.270081
O O16 0.280039 0.158154 0.244671
O O17 0.500000 0.791924 0.500000
O O18 0.250000 0.750000 0.500000
O O19 0.500000 0.908064 0.785383
#
# Coordination Sequence:
#
# PCOD8267252 Si02
#       7
#    16  16   8  16  16   8  16
#     4  10  19  29  46  72 100 134 175 213 250 295
#     4   9  18  33  53  75 101 134 168 200 241 294
#     4   9  18  32  48  66  98 140 174 211 257 295
#     4  11  22  36  53  75 101 127 161 201 247 294
#     4  10  20  34  51  72 100 134 164 198 247 302
#     4  12  24  40  59  76  95 120 158 205 249 301
#     4   9  17  30  48  70 100 136 167 203 247 297
#
# _framework density 17.132214999999999
#
# number of rings (size 3 to 8) (size 9 to 14) (size 15 to 20)
#    0.000    2.083    0.833    4.750    0.000    4.667 
#    0.000    2.083    0.000    2.500    0.000    0.000 
#    0.000    0.667    0.333    0.000    0.000    0.000 
#
# Total GULP energy -595087.834305 kJ/mol
# GULP energy per Si atom -12397.663215 kJ/mol
# Density = 1.709322 g / cm^3
# Si number density = 17.132215 Si / 1000 Ang^3
#
#
#
# Elastic Constant Matrix: (Units=GPa)
#
#
# Indices 1 2 3 4 5 6 
#
# 1 107.0865 33.5763 44.4681 0.0000 0.0000 0.0000
# 2 33.5763 85.6350 31.7523 0.0000 0.0000 0.0000
# 3 44.4681 31.7523 91.3117 0.0000 0.0000 0.0000
# 4 0.0000 0.0000 0.0000 12.5314 0.0000 0.0000
# 5 0.0000 0.0000 0.0000 0.0000 19.1478 0.0000
# 6 0.0000 0.0000 0.0000 0.0000 0.0000 26.1912
#
#
#
# Elastic Compliance Matrix: (Units=1/GPa)
#
#
# Indices 1 2 3 4 5 6 
#
# 1 0.012341 -0.002997 -0.004968 0.000000 0.000000 0.000000
# 2 -0.002997 0.014134 -0.003455 0.000000 0.000000 0.000000
# 3 -0.004968 -0.003455 0.014572 0.000000 0.000000 0.000000
# 4 0.000000 0.000000 0.000000 0.079799 0.000000 0.000000
# 5 0.000000 0.000000 0.000000 0.000000 0.052225 0.000000
# 6 0.000000 0.000000 0.000000 0.000000 0.000000 0.038181
#
#
# Mechanical properties :
#
#
# Convention : Reuss Voigt Hill
#
# Bulk Modulus (GPa) = 54.92399 55.95854 55.44126
# Shear Modulus (GPa) = 20.81937 23.18984 22.00461
#
# Velocity S-wave (km/s) = 3.48978 3.68310 3.58774
# Velocity P-wave (km/s) = 6.95461 7.12886 7.04227
#
# Compressibility (1/GPa) = 0.01820698
#
# Stress axis : x y z
#
# Youngs Moduli (GPa) = 81.03257 70.75323 68.62314
#
# Poissons Ratio (x) = 0.21202 0.34091
# Poissons Ratio (y) = 0.24283 0.23712
# Poissons Ratio (z) = 0.40255 0.24448
#
# Static dielectric constant tensor:
#      x y z
#    x 4.530050 0.000000 0.000000 
#    y 0.000000 -1.462100 0.000000 
#    z 0.000000 0.000000 6.577790 
# 
# 
# High freq. dielectric constant tensor:
#      x y z
#    x 1.675260 0.000000 0.000000 
#    y 0.000000 1.646730 0.000000 
#    z 0.000000 0.000000 1.636620 
# 
# From -- ./inp_files/68081.got.cif
#   From: 2010.03.12/outbox.cif.g09.slc.cpg/sg65_35_cif.got.tgz:68081.got - 2010.04.10 20:52:16.
