data_PCOD8267413
_publ_section_title
;
Structure prediction by ZEFSAII (Michael W. Deem and Ramdas Pophale) SiO2 
 PCOD8267413
Probable space group: C M M M
;
_chemical_formula_sum "Si O2"
_cell_formula_units_Z 80
_cell_length_a 27.310125
_cell_length_b 14.882758
_cell_length_c 11.744713
_cell_angle_alpha 90.000000
_cell_angle_beta 90.000000
_cell_angle_gamma 90.000000
_cell_volume 4773.638380
_symmetry_space_group_name_H-M "C M M M"
_symmetry_group_IT_number 65
_symmetry_cell_setting 'orthorhombic'
loop_
_space_group_symop_operation_xyz
x,y,z
-x,-y,z
x,-y,-z
-x,y,-z
-x,-y,-z
x,y,-z
-x,y,z
x,-y,z
1/2+x,1/2+y,z
1/2-x,1/2-y,z
1/2+x,1/2-y,-z
1/2-x,1/2+y,-z
1/2-x,1/2-y,-z
1/2+x,1/2+y,-z
1/2-x,1/2+y,z
1/2+x,1/2-y,z
loop_
_atom_site_type_symbol
_atom_site_label
_atom_site_fract_x
_atom_site_fract_y
_atom_site_fract_z
Si Si1 0.828378 0.898263 0.758210
Si Si2 0.213769 0.401843 0.247928
Si Si3 0.945435 0.600435 0.635223
Si Si4 0.204537 0.643781 0.000000
Si Si5 0.359441 0.227278 0.364940
Si Si6 0.320037 0.336474 0.000000
O O1 0.770954 0.878146 0.745241
O O2 0.859312 0.829118 0.681377
O O3 0.843033 0.884741 0.890126
O O4 0.841480 0.000000 0.721065
O O5 0.204047 0.500000 0.302717
O O6 0.187890 0.325166 0.320325
O O7 0.193939 0.408071 0.117701
O O8 0.944768 0.600823 0.500000
O O9 0.930769 0.500000 0.678055
O O10 0.907413 0.674665 0.681374
O O11 0.000000 0.624899 0.679312
O O12 0.261895 0.661733 0.000000
O O13 0.168766 0.730352 0.000000
O O14 0.357951 0.230716 0.500000
#
# Coordination Sequence:
#
# PCOD8267413 Si02
#       6
#    16  16  16   8  16   8
#     4  10  20  32  46  65  92 127 163 197 229 262
#     4  10  19  30  45  67  95 126 158 192 231 271
#     4   8  15  30  51  71  89 112 147 191 234 274
#     4   9  15  27  47  66  87 116 155 203 240 261
#     4  11  21  31  45  67  96 126 156 187 224 278
#     4   9  15  29  49  64  83 117 162 205 235 256
#
# _framework density 16.758706
#
# number of rings (size 3 to 8) (size 9 to 14) (size 15 to 20)
#    0.000    2.400    2.000    2.400    0.000    5.600 
#    0.000    2.000    0.000    0.600    0.000    5.600 
#    0.000    9.600    0.000    0.000    0.000    0.000 
#
# Total GULP energy -495698.751085 kJ/mol
# GULP energy per Si atom -12392.468777 kJ/mol
# Density = 1.672056 g / cm^3
# Si number density = 16.758706 Si / 1000 Ang^3
#
#
#
# Elastic Constant Matrix: (Units=GPa)
#
#
# Indices 1 2 3 4 5 6 
#
# 1 61.2032 54.0805 26.0771 0.0000 0.0000 0.0000
# 2 54.0805 140.2085 38.7801 0.0000 0.0000 0.0000
# 3 26.0771 38.7801 67.7548 0.0000 0.0000 0.0000
# 4 0.0000 0.0000 0.0000 23.3508 0.0000 0.0000
# 5 0.0000 0.0000 0.0000 0.0000 0.7372 0.0000
# 6 0.0000 0.0000 0.0000 0.0000 0.0000 23.8864
#
#
#
# Elastic Compliance Matrix: (Units=1/GPa)
#
#
# Indices 1 2 3 4 5 6 
#
# 1 0.026195 -0.008691 -0.005107 0.000000 0.000000 0.000000
# 2 -0.008691 0.011357 -0.003155 0.000000 0.000000 0.000000
# 3 -0.005107 -0.003155 0.018531 0.000000 0.000000 0.000000
# 4 0.000000 0.000000 0.000000 0.042825 0.000000 0.000000
# 5 0.000000 0.000000 0.000000 0.000000 1.356423 0.000000
# 6 0.000000 0.000000 0.000000 0.000000 0.000000 0.041865
#
#
# Mechanical properties :
#
#
# Convention : Reuss Voigt Hill
#
# Bulk Modulus (GPa) = 45.09543 56.33799 50.71671
# Shear Modulus (GPa) = 3.24993 19.61014 11.43003
#
# Velocity S-wave (km/s) = 1.39408 3.42445 2.61441
# Velocity P-wave (km/s) = 5.43676 7.02324 6.28030
#
# Compressibility (1/GPa) = 0.02217519
#
# Stress axis : x y z
#
# Youngs Moduli (GPa) = 38.17560 88.04926 53.96415
#
# Poissons Ratio (x) = 0.76524 0.27561
# Poissons Ratio (y) = 0.33179 0.17028
# Poissons Ratio (z) = 0.19497 0.27784
#
# Static dielectric constant tensor:
#      x y z
#    x 2.930050 0.000000 0.000000 
#    y 0.000000 3.319380 0.000000 
#    z 0.000000 0.000000 3.050940 
# 
# 
# High freq. dielectric constant tensor:
#      x y z
#    x 1.592670 0.000000 0.000000 
#    y 0.000000 1.658640 0.000000 
#    z 0.000000 0.000000 1.629040 
# 
# From -- ./inp_files/32148.got.cif
#   From: 2010.03.12/outbox.cif.g09.slc.cpg/sg65_17_cif.got.tgz:32148.got - 2010.04.10 20:52:16.
