data_PCOD8267025
_publ_section_title
;
Structure prediction by ZEFSAII (Michael W. Deem and Ramdas Pophale) SiO2 
 PCOD8267025
Probable space group: C M M M
;
_chemical_formula_sum "Si O2"
_cell_formula_units_Z 72
_cell_length_a 25.721543
_cell_length_b 9.487940
_cell_length_c 19.610442
_cell_angle_alpha 90.000000
_cell_angle_beta 90.000000
_cell_angle_gamma 90.000000
_cell_volume 4785.819663
_symmetry_space_group_name_H-M "C M M M"
_symmetry_group_IT_number 65
_symmetry_cell_setting 'orthorhombic'
loop_
_space_group_symop_operation_xyz
x,y,z
-x,-y,z
x,-y,-z
-x,y,-z
-x,-y,-z
x,y,-z
-x,y,z
x,-y,z
1/2+x,1/2+y,z
1/2-x,1/2-y,z
1/2+x,1/2-y,-z
1/2-x,1/2+y,-z
1/2-x,1/2-y,-z
1/2+x,1/2+y,-z
1/2-x,1/2+y,z
1/2+x,1/2-y,z
loop_
_atom_site_type_symbol
_atom_site_label
_atom_site_fract_x
_atom_site_fract_y
_atom_site_fract_z
Si Si1 0.801441 0.839511 0.000000
Si Si2 0.437954 0.660901 0.500000
Si Si3 0.061561 0.340449 0.627386
Si Si4 0.609366 0.660398 0.897686
Si Si5 0.559976 0.660828 0.243031
Si Si6 0.058578 0.350321 0.000000
O O1 0.750000 0.750000 0.000000
O O2 0.834103 0.805369 0.069335
O O3 0.783605 0.000000 0.000000
O O4 0.416565 0.500000 0.500000
O O5 0.500000 0.657271 0.500000
O O6 0.416402 0.745546 0.434357
O O7 0.084305 0.500000 0.624429
O O8 0.077890 0.266512 0.697812
O O9 0.000000 0.346814 0.621353
O O10 0.594741 0.500000 0.915936
O O11 0.602262 0.685658 0.817048
O O12 0.568567 0.762385 0.932330
O O13 0.500000 0.690878 0.219989
O O14 0.563721 0.500000 0.269642
O O15 0.090057 0.500000 0.000000
O O16 0.000000 0.392850 0.000000
#
# Coordination Sequence:
#
# PCOD8267025 Si02
#       6
#     8   8  16  16  16   8
#     4   9  18  32  48  64  79  98 128 166 207 248
#     4   9  15  23  35  49  67  97 140 179 200 221
#     4   9  16  24  34  50  74 103 133 166 202 234
#     4   9  18  31  45  59  76 102 135 165 196 240
#     4   9  16  26  40  57  77 103 134 165 196 232
#     4  10  19  27  37  57  82 104 128 160 196 233
#
# _framework density 15.044445
#
# number of rings (size 3 to 8) (size 9 to 14) (size 15 to 20)
#    0.000    2.889    0.000    2.667    0.000    8.444 
#    0.000    2.222    0.000    0.000    0.000    0.000 
#    0.000    0.000    0.000    1.000    0.000   12.111 
#
# Total GULP energy -446027.413128 kJ/mol
# GULP energy per Si atom -12389.650365 kJ/mol
# Density = 1.501020 g / cm^3
# Si number density = 15.044445 Si / 1000 Ang^3
#
#
#
# Elastic Constant Matrix: (Units=GPa)
#
#
# Indices 1 2 3 4 5 6 
#
# 1 47.3451 32.7092 33.5515 0.0000 0.0000 0.0000
# 2 32.7092 124.0058 73.6172 0.0000 0.0000 0.0000
# 3 33.5515 73.6172 118.9818 0.0000 0.0000 0.0000
# 4 0.0000 0.0000 0.0000 59.1434 0.0000 0.0000
# 5 0.0000 0.0000 0.0000 0.0000 8.0016 0.0000
# 6 0.0000 0.0000 0.0000 0.0000 0.0000 15.2848
#
#
#
# Elastic Compliance Matrix: (Units=1/GPa)
#
#
# Indices 1 2 3 4 5 6 
#
# 1 0.027729 -0.004223 -0.005206 0.000000 0.000000 0.000000
# 2 -0.004223 0.013389 -0.007093 0.000000 0.000000 0.000000
# 3 -0.005206 -0.007093 0.014261 0.000000 0.000000 0.000000
# 4 0.000000 0.000000 0.000000 0.016908 0.000000 0.000000
# 5 0.000000 0.000000 0.000000 0.000000 0.124975 0.000000
# 6 0.000000 0.000000 0.000000 0.000000 0.000000 0.065425
#
#
# Mechanical properties :
#
#
# Convention : Reuss Voigt Hill
#
# Bulk Modulus (GPa) = 44.77512 63.34318 54.05915
# Shear Modulus (GPa) = 16.49201 26.51627 21.50414
#
# Velocity S-wave (km/s) = 3.31451 4.20280 3.78481
# Velocity P-wave (km/s) = 6.66892 8.10844 7.42366
#
# Compressibility (1/GPa) = 0.02233383
#
# Stress axis : x y z
#
# Youngs Moduli (GPa) = 36.06388 74.68741 70.11899
#
# Poissons Ratio (x) = 0.31544 0.36504
# Poissons Ratio (y) = 0.15231 0.49737
# Poissons Ratio (z) = 0.18775 0.52978
#
# Static dielectric constant tensor:
#      x y z
#    x 2.347470 0.000000 0.000000 
#    y 0.000000 3.143120 0.000000 
#    z 0.000000 0.000000 3.064940 
# 
# 
# High freq. dielectric constant tensor:
#      x y z
#    x 1.499970 0.000000 0.000000 
#    y 0.000000 1.596950 0.000000 
#    z 0.000000 0.000000 1.578540 
# 
# From -- ./inp_files/65644.got.cif
#   From: 2010.03.12/outbox.cif.g09.slc.cpg/sg65_33_cif.got.tgz:65644.got - 2010.04.10 20:52:16.
