data_PCOD8267870
_publ_section_title
;
Structure prediction by ZEFSAII (Michael W. Deem and Ramdas Pophale) SiO2 
 PCOD8267870
Probable space group: C M M M
;
_chemical_formula_sum "Si O2"
_cell_formula_units_Z 96
_cell_length_a 20.077795
_cell_length_b 8.935532
_cell_length_c 31.110575
_cell_angle_alpha 90.000000
_cell_angle_beta 90.000000
_cell_angle_gamma 90.000000
_cell_volume 5581.416965
_symmetry_space_group_name_H-M "C M M M"
_symmetry_group_IT_number 65
_symmetry_cell_setting 'orthorhombic'
loop_
_space_group_symop_operation_xyz
x,y,z
-x,-y,z
x,-y,-z
-x,y,-z
-x,-y,-z
x,y,-z
-x,y,z
x,-y,z
1/2+x,1/2+y,z
1/2-x,1/2-y,z
1/2+x,1/2-y,-z
1/2-x,1/2+y,-z
1/2-x,1/2-y,-z
1/2+x,1/2+y,-z
1/2-x,1/2+y,z
1/2+x,1/2-y,z
loop_
_atom_site_type_symbol
_atom_site_label
_atom_site_fract_x
_atom_site_fract_y
_atom_site_fract_z
Si Si1 0.679823 0.820208 0.117376
Si Si2 0.679922 0.320536 0.207656
Si Si3 0.425852 0.321768 0.721895
Si Si4 0.079138 0.164781 0.371702
Si Si5 0.425859 0.177575 0.952203
Si Si6 0.079102 0.332471 0.546513
O O1 0.750000 0.750000 0.103349
O O2 0.657142 0.750791 0.162647
O O3 0.626698 0.762672 0.082417
O O4 0.684850 0.000000 0.120549
O O5 0.685528 0.500000 0.203800
O O6 0.750000 0.250000 0.221974
O O7 0.625806 0.267117 0.242361
O O8 0.500000 0.262619 0.733824
O O9 0.427559 0.500000 0.719120
O O10 0.403623 0.260117 0.674683
O O11 0.111203 0.250368 0.412352
O O12 0.000000 0.157417 0.376004
O O13 0.110300 0.000000 0.373599
O O14 0.500000 0.235814 0.940269
O O15 0.425584 0.000000 0.951802
O O16 0.406137 0.234828 0.000000
O O17 0.099049 0.259694 0.500000
O O18 0.106613 0.500000 0.547681
O O19 0.000000 0.331562 0.550833
#
# Coordination Sequence:
#
# PCOD8267870 Si02
#       6
#    16  16  16  16  16  16
#     4  10  19  31  48  69  92 117 147 183 220 259
#     4  10  19  32  49  66  89 119 148 181 220 263
#     4   8  15  28  45  64  85 112 145 179 218 262
#     4   8  13  22  36  53  73  98 133 174 208 243
#     4   8  15  29  48  69  93 121 151 182 218 259
#     4   8  13  20  29  44  71 106 137 163 199 249
#
# _framework density 17.199932
#
# number of rings (size 3 to 8) (size 9 to 14) (size 15 to 20)
#    0.000    3.333    0.000    4.000    0.000    1.333 
#    0.000    3.333    0.000    6.500    0.000    4.667 
#    0.000    0.667    0.000    1.500    0.000    4.000 
#
# Total GULP energy -594653.076546 kJ/mol
# GULP energy per Si atom -12388.605761 kJ/mol
# Density = 1.716078 g / cm^3
# Si number density = 17.199932 Si / 1000 Ang^3
#
#
#
# Elastic Constant Matrix: (Units=GPa)
#
#
# Indices 1 2 3 4 5 6 
#
# 1 79.4705 25.6684 94.6522 0.0000 0.0000 0.0000
# 2 25.6684 53.2231 42.8251 0.0000 0.0000 0.0000
# 3 94.6522 42.8251 180.4782 0.0000 0.0000 0.0000
# 4 0.0000 0.0000 0.0000 21.0524 0.0000 0.0000
# 5 0.0000 0.0000 0.0000 0.0000 5.5675 0.0000
# 6 0.0000 0.0000 0.0000 0.0000 0.0000 12.9953
#
#
#
# Elastic Compliance Matrix: (Units=1/GPa)
#
#
# Indices 1 2 3 4 5 6 
#
# 1 0.033794 -0.002518 -0.017126 0.000000 0.000000 0.000000
# 2 -0.002518 0.023410 -0.004234 0.000000 0.000000 0.000000
# 3 -0.017126 -0.004234 0.015527 0.000000 0.000000 0.000000
# 4 0.000000 0.000000 0.000000 0.047500 0.000000 0.000000
# 5 0.000000 0.000000 0.000000 0.000000 0.179615 0.000000
# 6 0.000000 0.000000 0.000000 0.000000 0.000000 0.076951
#
#
# Mechanical properties :
#
#
# Convention : Reuss Voigt Hill
#
# Bulk Modulus (GPa) = 40.03990 71.05145 55.54568
# Shear Modulus (GPa) = 11.55055 17.92478 14.73766
#
# Velocity S-wave (km/s) = 2.59423 3.23173 2.93037
# Velocity P-wave (km/s) = 5.68358 7.43803 6.61919
#
# Compressibility (1/GPa) = 0.02497509
#
# Stress axis : x y z
#
# Youngs Moduli (GPa) = 29.59087 42.71613 64.40270
#
# Poissons Ratio (x) = 0.10757 1.10295
# Poissons Ratio (y) = 0.07451 0.27270
# Poissons Ratio (z) = 0.50677 0.18087
#
# Static dielectric constant tensor:
#      x y z
#    x 2.995440 0.000000 0.000000 
#    y 0.000000 3.046730 0.000000 
#    z 0.000000 0.000000 3.661830 
# 
# 
# High freq. dielectric constant tensor:
#      x y z
#    x 1.620770 0.000000 0.000000 
#    y 0.000000 1.636160 0.000000 
#    z 0.000000 0.000000 1.683320 
# 
# From -- ./inp_files/75673.got.cif
#   From: 2010.03.12/outbox.cif.g09.slc.cpg/sg65_38_cif.got.tgz:75673.got - 2010.04.10 20:52:16.
