data_PCOD8267672
_publ_section_title
;
Structure prediction by ZEFSAII (Michael W. Deem and Ramdas Pophale) SiO2 
 PCOD8267672
Probable space group: C M M M
;
_chemical_formula_sum "Si O2"
_cell_formula_units_Z 104
_cell_length_a 13.940299
_cell_length_b 23.510712
_cell_length_c 18.679220
_cell_angle_alpha 90.000000
_cell_angle_beta 90.000000
_cell_angle_gamma 90.000000
_cell_volume 6122.046269
_symmetry_space_group_name_H-M "C M M M"
_symmetry_group_IT_number 65
_symmetry_cell_setting 'orthorhombic'
loop_
_space_group_symop_operation_xyz
x,y,z
-x,-y,z
x,-y,-z
-x,y,-z
-x,-y,-z
x,y,-z
-x,y,z
x,-y,z
1/2+x,1/2+y,z
1/2-x,1/2-y,z
1/2+x,1/2-y,-z
1/2-x,1/2+y,-z
1/2-x,1/2-y,-z
1/2+x,1/2+y,-z
1/2-x,1/2+y,z
1/2+x,1/2-y,z
loop_
_atom_site_type_symbol
_atom_site_label
_atom_site_fract_x
_atom_site_fract_y
_atom_site_fract_z
Si Si1 0.184283 0.565807 0.834289
Si Si2 0.295529 0.162189 0.584776
Si Si3 0.112438 0.434186 0.676792
Si Si4 0.395524 0.759903 0.084311
Si Si5 0.500000 0.932714 0.079263
Si Si6 0.770733 0.157916 0.915862
Si Si7 0.106691 0.777587 0.415062
O O1 0.206289 0.500000 0.847831
O O2 0.164389 0.578034 0.751675
O O3 0.273805 0.601429 0.866295
O O4 0.093442 0.588042 0.879438
O O5 0.301508 0.154537 0.500000
O O6 0.334212 0.104173 0.618607
O O7 0.185194 0.175200 0.609146
O O8 0.361174 0.214889 0.610993
O O9 0.125033 0.500000 0.654559
O O10 0.000000 0.418988 0.682334
O O11 0.500000 0.771178 0.118933
O O12 0.319532 0.805237 0.112921
O O13 0.364880 0.694930 0.101282
O O14 0.398818 0.767018 0.000000
O O15 0.500000 0.000000 0.075251
O O16 0.500000 0.905242 0.000000
O O17 0.763872 0.142153 0.000000
O O18 0.104330 0.776624 0.500000
O O19 0.000000 0.791787 0.384428
#
# Coordination Sequence:
#
# PCOD8267672 Si02
#       7
#    16  16  16  16   8  16  16
#     4  10  19  31  44  63  93 122 147 184 235 280
#     4   9  17  29  49  75  96 121 160 193 221 272
#     4  10  20  33  46  62  93 131 156 183 233 284
#     4   8  15  28  44  64  92 120 144 179 227 271
#     4   9  16  26  42  64  87 113 147 183 219 267
#     4   9  17  28  46  70  88 112 152 186 219 269
#     4   8  14  27  48  74 102 124 146 189 242 276
#
# _framework density 16.987784000000001
#
# number of rings (size 3 to 8) (size 9 to 14) (size 15 to 20)
#    0.000    3.000    0.769    2.769    1.077    2.154 
#    0.000    3.846    0.000    3.692    0.000    6.462 
#    0.000    0.000    0.000    0.000    0.000    0.000 
#
# Total GULP energy -644385.802781 kJ/mol
# GULP energy per Si atom -12392.034669 kJ/mol
# Density = 1.694912 g / cm^3
# Si number density = 16.987784 Si / 1000 Ang^3
#
#
#
# Elastic Constant Matrix: (Units=GPa)
#
#
# Indices 1 2 3 4 5 6 
#
# 1 75.4351 26.1973 12.4264 0.0000 0.0000 0.0000
# 2 26.1973 78.4703 34.3099 0.0000 0.0000 0.0000
# 3 12.4264 34.3099 46.6277 0.0000 0.0000 0.0000
# 4 0.0000 0.0000 0.0000 22.4551 0.0000 0.0000
# 5 0.0000 0.0000 0.0000 0.0000 15.1422 0.0000
# 6 0.0000 0.0000 0.0000 0.0000 0.0000 26.2944
#
#
#
# Elastic Compliance Matrix: (Units=1/GPa)
#
#
# Indices 1 2 3 4 5 6 
#
# 1 0.015002 -0.004807 -0.000461 0.000000 0.000000 0.000000
# 2 -0.004807 0.020329 -0.013677 0.000000 0.000000 0.000000
# 3 -0.000461 -0.013677 0.031633 0.000000 0.000000 0.000000
# 4 0.000000 0.000000 0.000000 0.044533 0.000000 0.000000
# 5 0.000000 0.000000 0.000000 0.000000 0.066041 0.000000
# 6 0.000000 0.000000 0.000000 0.000000 0.000000 0.038031
#
#
# Mechanical properties :
#
#
# Convention : Reuss Voigt Hill
#
# Bulk Modulus (GPa) = 34.39552 38.48891 36.44222
# Shear Modulus (GPa) = 19.00057 21.28498 20.14277
#
# Velocity S-wave (km/s) = 3.34800 3.54355 3.44717
# Velocity P-wave (km/s) = 5.93605 6.28079 6.11085
#
# Compressibility (1/GPa) = 0.02907355
#
# Stress axis : x y z
#
# Youngs Moduli (GPa) = 66.65927 49.19186 31.61208
#
# Poissons Ratio (x) = 0.23645 0.01458
# Poissons Ratio (y) = 0.32041 0.43237
# Poissons Ratio (z) = 0.03073 0.67281
#
# Static dielectric constant tensor:
#      x y z
#    x 3.532370 0.000000 0.000000 
#    y 0.000000 3.123260 0.000000 
#    z 0.000000 0.000000 2.842140 
# 
# 
# High freq. dielectric constant tensor:
#      x y z
#    x 1.641190 0.000000 0.000000 
#    y 0.000000 1.651710 0.000000 
#    z 0.000000 0.000000 1.621670 
# 
# From -- ./inp_files/53485.got.cif
#   From: 2010.03.12/outbox.cif.g09.slc.cpg/sg65_27_cif.got.tgz:53485.got - 2010.04.10 20:52:16.
