data_PCOD8267457
_publ_section_title
;
Structure prediction by ZEFSAII (Michael W. Deem and Ramdas Pophale) SiO2 
 PCOD8267457
Probable space group: C M M M
;
_chemical_formula_sum "Si O2"
_cell_formula_units_Z 72
_cell_length_a 9.087102
_cell_length_b 18.884784
_cell_length_c 23.372632
_cell_angle_alpha 90.000000
_cell_angle_beta 90.000000
_cell_angle_gamma 90.000000
_cell_volume 4010.929661
_symmetry_space_group_name_H-M "C M M M"
_symmetry_group_IT_number 65
_symmetry_cell_setting 'orthorhombic'
loop_
_space_group_symop_operation_xyz
x,y,z
-x,-y,z
x,-y,-z
-x,y,-z
-x,-y,-z
x,y,-z
-x,y,z
x,-y,z
1/2+x,1/2+y,z
1/2-x,1/2-y,z
1/2+x,1/2-y,-z
1/2-x,1/2+y,-z
1/2-x,1/2-y,-z
1/2+x,1/2+y,-z
1/2-x,1/2+y,z
1/2+x,1/2-y,z
loop_
_atom_site_type_symbol
_atom_site_label
_atom_site_fract_x
_atom_site_fract_y
_atom_site_fract_z
Si Si1 0.825512 0.420421 0.289544
Si Si2 0.174181 0.580126 0.500000
Si Si3 0.328508 0.176256 0.936575
Si Si4 0.174809 0.578487 0.837125
Si Si5 0.324870 0.825917 0.606783
O O1 0.764068 0.500000 0.301578
O O2 0.777316 0.394330 0.226036
O O3 0.766254 0.363818 0.335407
O O4 0.000000 0.424136 0.294054
O O5 0.240382 0.500000 0.500000
O O6 0.227722 0.623309 0.555423
O O7 0.000000 0.574245 0.500000
O O8 0.500000 0.188545 0.925796
O O9 0.250000 0.250000 0.930443
O O10 0.258902 0.126152 0.887841
O O11 0.301148 0.143620 0.000000
O O12 0.238071 0.500000 0.846251
O O13 0.000000 0.577129 0.841545
O O14 0.500000 0.815398 0.606653
O O15 0.250000 0.750000 0.600347
#
# Coordination Sequence:
#
# PCOD8267457 Si02
#       5
#    16   8  16  16  16
#     4   8  14  26  44  64  85 111 144 178 210 247
#     4   9  17  30  49  69  86 111 150 186 210 241
#     4   9  17  28  42  61  85 112 140 171 210 255
#     4   8  14  25  42  64  86 107 138 181 218 245
#     4  10  19  30  46  68  92 115 141 176 215 253
#
# _framework density 17.950949000000001
#
# number of rings (size 3 to 8) (size 9 to 14) (size 15 to 20)
#    0.000    3.222    0.000    2.333    0.000    4.000 
#    0.000    2.222    0.000    4.000    0.000    6.222 
#    0.000    0.000    0.000    0.000    0.000    0.000 
#
# Total GULP energy -446111.061965 kJ/mol
# GULP energy per Si atom -12391.973943 kJ/mol
# Density = 1.791009 g / cm^3
# Si number density = 17.950949 Si / 1000 Ang^3
#
#
#
# Elastic Constant Matrix: (Units=GPa)
#
#
# Indices 1 2 3 4 5 6 
#
# 1 12.7305 21.1041 22.2538 0.0000 0.0000 0.0000
# 2 21.1041 134.3330 103.4911 0.0000 0.0000 0.0000
# 3 22.2538 103.4911 185.3851 0.0000 0.0000 0.0000
# 4 0.0000 0.0000 0.0000 36.0180 0.0000 0.0000
# 5 0.0000 0.0000 0.0000 0.0000 10.1683 0.0000
# 6 0.0000 0.0000 0.0000 0.0000 0.0000 19.8029
#
#
#
# Elastic Compliance Matrix: (Units=1/GPa)
#
#
# Indices 1 2 3 4 5 6 
#
# 1 0.110196 -0.012495 -0.006253 0.000000 0.000000 0.000000
# 2 -0.012495 0.014479 -0.006583 0.000000 0.000000 0.000000
# 3 -0.006253 -0.006583 0.009820 0.000000 0.000000 0.000000
# 4 0.000000 0.000000 0.000000 0.027764 0.000000 0.000000
# 5 0.000000 0.000000 0.000000 0.000000 0.098345 0.000000
# 6 0.000000 0.000000 0.000000 0.000000 0.000000 0.050498
#
#
# Mechanical properties :
#
#
# Convention : Reuss Voigt Hill
#
# Bulk Modulus (GPa) = 11.92848 69.57181 40.75015
# Shear Modulus (GPa) = 12.83021 25.57114 19.20068
#
# Velocity S-wave (km/s) = 2.67636 3.77835 3.27405
# Velocity P-wave (km/s) = 4.02616 7.60758 6.08627
#
# Compressibility (1/GPa) = 0.08383296
#
# Stress axis : x y z
#
# Youngs Moduli (GPa) = 9.07478 69.06764 101.83739
#
# Poissons Ratio (x) = 0.86299 0.63676
# Poissons Ratio (y) = 0.11339 0.67037
# Poissons Ratio (z) = 0.05674 0.45465
#
# Static dielectric constant tensor:
#      x y z
#    x 2.712610 0.000000 0.000000 
#    y 0.000000 3.453020 0.000000 
#    z 0.000000 0.000000 3.858530 
# 
# 
# High freq. dielectric constant tensor:
#      x y z
#    x 1.626970 0.000000 0.000000 
#    y 0.000000 1.694720 0.000000 
#    z 0.000000 0.000000 1.717030 
# 
# From -- ./inp_files/59261.got.cif
#   From: 2010.03.12/outbox.cif.g09.slc.cpg/sg65_30_cif.got.tgz:59261.got - 2010.04.10 20:52:16.
