data_PCOD8267048
_publ_section_title
;
Structure prediction by ZEFSAII (Michael W. Deem and Ramdas Pophale) SiO2 
 PCOD8267048
Probable space group: C M M M
;
_chemical_formula_sum "Si O2"
_cell_formula_units_Z 104
_cell_length_a 27.466786
_cell_length_b 9.085675
_cell_length_c 26.579868
_cell_angle_alpha 90.000000
_cell_angle_beta 90.000000
_cell_angle_gamma 90.000000
_cell_volume 6633.120111
_symmetry_space_group_name_H-M "C M M M"
_symmetry_group_IT_number 65
_symmetry_cell_setting 'orthorhombic'
loop_
_space_group_symop_operation_xyz
x,y,z
-x,-y,z
x,-y,-z
-x,y,-z
-x,-y,-z
x,y,-z
-x,y,z
x,-y,z
1/2+x,1/2+y,z
1/2-x,1/2-y,z
1/2+x,1/2-y,-z
1/2-x,1/2+y,-z
1/2-x,1/2-y,-z
1/2+x,1/2+y,-z
1/2-x,1/2+y,z
1/2+x,1/2-y,z
loop_
_atom_site_type_symbol
_atom_site_label
_atom_site_fract_x
_atom_site_fract_y
_atom_site_fract_z
Si Si1 0.396446 0.329039 0.209918
Si Si2 0.557827 0.665819 0.597853
Si Si3 0.441883 0.833509 0.500000
Si Si4 0.056137 0.673123 0.301514
Si Si5 0.053296 0.174471 0.108131
Si Si6 0.852243 0.175600 0.944467
Si Si7 0.701215 0.328682 0.153212
O O1 0.403818 0.500000 0.223786
O O2 0.409472 0.229096 0.257115
O O3 0.431815 0.281517 0.164589
O O4 0.340843 0.297459 0.193833
O O5 0.500000 0.663338 0.595134
O O6 0.578680 0.500000 0.598643
O O7 0.578613 0.750315 0.549155
O O8 0.575008 0.750611 0.647640
O O9 0.500000 0.833388 0.500000
O O10 0.421992 0.000000 0.500000
O O11 0.062317 0.500000 0.308055
O O12 0.000000 0.715566 0.290272
O O13 0.093440 0.234789 0.068816
O O14 0.000000 0.241833 0.095769
O O15 0.051612 0.000000 0.104214
O O16 0.814646 0.232500 0.902091
O O17 0.853187 0.000000 0.942946
O O18 0.837350 0.233854 0.000000
O O19 0.712095 0.500000 0.149273
O O20 0.750000 0.250000 0.171534
#
# Coordination Sequence:
#
# PCOD8267048 Si02
#       7
#    16  16   8  16  16  16  16
#     4   9  17  29  43  58  78 105 136 169 206 250
#     4   9  16  25  37  53  75 108 148 182 212 248
#     4   9  15  23  35  51  75 107 144 187 224 247
#     4  10  19  28  39  59  85 110 139 175 212 247
#     4   8  13  21  35  55  77 103 134 164 196 237
#     4   8  14  24  37  56  82 106 129 161 199 240
#     4   9  18  31  46  63  81 103 132 166 207 254
#
# _framework density 15.678896
#
# number of rings (size 3 to 8) (size 9 to 14) (size 15 to 20)
#    0.000    3.154    0.000    3.462    0.000    5.538 
#    0.000    1.538    0.000    0.000    0.000    0.000 
#    0.000    0.000    0.000   17.000    0.000   21.769 
#
# Total GULP energy -644523.506425 kJ/mol
# GULP energy per Si atom -12394.682816 kJ/mol
# Density = 1.564321 g / cm^3
# Si number density = 15.678896 Si / 1000 Ang^3
#
#
#
# Elastic Constant Matrix: (Units=GPa)
#
#
# Indices 1 2 3 4 5 6 
#
# 1 65.0675 23.9582 24.6161 0.0000 0.0000 0.0000
# 2 23.9582 67.8570 46.8390 0.0000 0.0000 0.0000
# 3 24.6161 46.8390 109.0911 0.0000 0.0000 0.0000
# 4 0.0000 0.0000 0.0000 15.3661 0.0000 0.0000
# 5 0.0000 0.0000 0.0000 0.0000 10.3909 0.0000
# 6 0.0000 0.0000 0.0000 0.0000 0.0000 16.8088
#
#
#
# Elastic Compliance Matrix: (Units=1/GPa)
#
#
# Indices 1 2 3 4 5 6 
#
# 1 0.017935 -0.005029 -0.001888 0.000000 0.000000 0.000000
# 2 -0.005029 0.022354 -0.008463 0.000000 0.000000 0.000000
# 3 -0.001888 -0.008463 0.013226 0.000000 0.000000 0.000000
# 4 0.000000 0.000000 0.000000 0.065078 0.000000 0.000000
# 5 0.000000 0.000000 0.000000 0.000000 0.096238 0.000000
# 6 0.000000 0.000000 0.000000 0.000000 0.000000 0.059493
#
#
# Mechanical properties :
#
#
# Convention : Reuss Voigt Hill
#
# Bulk Modulus (GPa) = 43.94583 48.09358 46.01970
# Shear Modulus (GPa) = 15.99139 18.28667 17.13903
#
# Velocity S-wave (km/s) = 3.19710 3.41885 3.30983
# Velocity P-wave (km/s) = 6.45895 6.80628 6.63489
#
# Compressibility (1/GPa) = 0.02275529
#
# Stress axis : x y z
#
# Youngs Moduli (GPa) = 55.75839 44.73413 75.60708
#
# Poissons Ratio (x) = 0.22498 0.14271
# Poissons Ratio (y) = 0.28042 0.63987
# Poissons Ratio (z) = 0.10525 0.37859
#
# Static dielectric constant tensor:
#      x y z
#    x 2.813110 0.000000 0.000000 
#    y 0.000000 2.766490 0.000000 
#    z 0.000000 0.000000 3.069440 
# 
# 
# High freq. dielectric constant tensor:
#      x y z
#    x 1.559990 0.000000 0.000000 
#    y 0.000000 1.580530 0.000000 
#    z 0.000000 0.000000 1.603110 
# 
# From -- ./inp_files/75971.got.cif
#   From: 2010.03.12/outbox.cif.g09.slc.cpg/sg65_38_cif.got.tgz:75971.got - 2010.04.10 20:52:16.
