data_PCOD8267017
_publ_section_title
;
Structure prediction by ZEFSAII (Michael W. Deem and Ramdas Pophale) SiO2 
 PCOD8267017
Probable space group: C M M M
;
_chemical_formula_sum "Si O2"
_cell_formula_units_Z 64
_cell_length_a 15.633317
_cell_length_b 10.991875
_cell_length_c 17.872330
_cell_angle_alpha 90.000000
_cell_angle_beta 90.000000
_cell_angle_gamma 90.000000
_cell_volume 3071.171649
_symmetry_space_group_name_H-M "C M M M"
_symmetry_group_IT_number 65
_symmetry_cell_setting 'orthorhombic'
loop_
_space_group_symop_operation_xyz
x,y,z
-x,-y,z
x,-y,-z
-x,y,-z
-x,-y,-z
x,y,-z
-x,y,z
x,-y,z
1/2+x,1/2+y,z
1/2-x,1/2-y,z
1/2+x,1/2-y,-z
1/2-x,1/2+y,-z
1/2-x,1/2-y,-z
1/2+x,1/2+y,-z
1/2-x,1/2+y,z
1/2+x,1/2-y,z
loop_
_atom_site_type_symbol
_atom_site_label
_atom_site_fract_x
_atom_site_fract_y
_atom_site_fract_z
Si Si1 0.403134 0.757769 0.168822
Si Si2 0.596516 0.500000 0.693666
Si Si3 0.652525 0.748196 0.666751
Si Si4 0.348028 0.000000 0.912282
Si Si5 0.000000 0.360767 0.581375
Si Si6 0.159312 0.000000 0.147302
O O1 0.500000 0.753754 0.196726
O O2 0.346205 0.770455 0.243571
O O3 0.384729 0.629798 0.124333
O O4 0.390079 0.875938 0.117707
O O5 0.500000 0.500000 0.725894
O O6 0.613741 0.617448 0.644065
O O7 0.663413 0.500000 0.762642
O O8 0.750000 0.750000 0.636957
O O9 0.588359 0.839691 0.626360
O O10 0.249805 0.000000 0.891504
O O11 0.361896 0.000000 0.000000
O O12 0.000000 0.500000 0.564026
O O13 0.000000 0.292802 0.500000
#
# Coordination Sequence:
#
# PCOD8267017 Si02
#       6
#    16   8  16   8   8   8
#     4  11  22  40  66  95 124 165 218 274 321 383
#     4  10  18  38  63  99 125 153 215 285 306 365
#     4  11  22  39  68  97 128 168 220 265 320 379
#     4  12  27  42  58  91 131 168 218 274 327 393
#     4  11  26  45  63  95 141 178 212 260 321 386
#     4  10  20  39  62  89 123 161 206 264 331 378
#
# _framework density 20.838951999999999
#
# number of rings (size 3 to 8) (size 9 to 14) (size 15 to 20)
#    0.000    1.125    2.500    6.750    3.500    3.500 
#    0.000    1.250    0.000    4.125    0.000    0.000 
#    0.000    0.000    0.000    0.000    0.000    0.000 
#
# Total GULP energy -396487.897895 kJ/mol
# GULP energy per Si atom -12390.246809 kJ/mol
# Density = 2.079152 g / cm^3
# Si number density = 20.838952 Si / 1000 Ang^3
#
#
#
# Elastic Constant Matrix: (Units=GPa)
#
#
# Indices 1 2 3 4 5 6 
#
# 1 139.1309 34.1466 35.3170 0.0000 0.0000 0.0000
# 2 34.1466 160.8105 38.6855 0.0000 0.0000 0.0000
# 3 35.3170 38.6855 74.4769 0.0000 0.0000 0.0000
# 4 0.0000 0.0000 0.0000 12.6610 0.0000 0.0000
# 5 0.0000 0.0000 0.0000 0.0000 36.5176 0.0000
# 6 0.0000 0.0000 0.0000 0.0000 0.0000 29.6692
#
#
#
# Elastic Compliance Matrix: (Units=1/GPa)
#
#
# Indices 1 2 3 4 5 6 
#
# 1 0.008291 -0.000931 -0.003448 0.000000 0.000000 0.000000
# 2 -0.000931 0.007211 -0.003304 0.000000 0.000000 0.000000
# 3 -0.003448 -0.003304 0.016778 0.000000 0.000000 0.000000
# 4 0.000000 0.000000 0.000000 0.078983 0.000000 0.000000
# 5 0.000000 0.000000 0.000000 0.000000 0.027384 0.000000
# 6 0.000000 0.000000 0.000000 0.000000 0.000000 0.033705
#
#
# Mechanical properties :
#
#
# Convention : Reuss Voigt Hill
#
# Bulk Modulus (GPa) = 59.12240 65.63517 62.37878
# Shear Modulus (GPa) = 25.85893 33.52086 29.68990
#
# Velocity S-wave (km/s) = 3.52645 4.01505 3.77866
# Velocity P-wave (km/s) = 6.70924 7.28415 7.00260
#
# Compressibility (1/GPa) = 0.01691406
#
# Stress axis : x y z
#
# Youngs Moduli (GPa) = 120.60905 138.67585 59.60074
#
# Poissons Ratio (x) = 0.12912 0.20551
# Poissons Ratio (y) = 0.11230 0.19693
# Poissons Ratio (z) = 0.41587 0.45820
#
# Static dielectric constant tensor:
#      x y z
#    x 3.794370 0.000000 0.000000 
#    y 0.000000 4.364110 0.000000 
#    z 0.000000 0.000000 3.317870 
# 
# 
# High freq. dielectric constant tensor:
#      x y z
#    x 1.825980 0.000000 0.000000 
#    y 0.000000 1.841260 0.000000 
#    z 0.000000 0.000000 1.770150 
# 
# From -- ./inp_files/52583.got.cif
#   From: 2010.03.12/outbox.cif.g09.slc.cpg/sg65_27_cif.got.tgz:52583.got - 2010.04.10 20:52:16.
