data_PCOD8267878
_publ_section_title
;
Structure prediction by ZEFSAII (Michael W. Deem and Ramdas Pophale) SiO2 
 PCOD8267878
Probable space group: C M M M
;
_chemical_formula_sum "Si O2"
_cell_formula_units_Z 88
_cell_length_a 30.429763
_cell_length_b 9.167090
_cell_length_c 17.615469
_cell_angle_alpha 90.000000
_cell_angle_beta 90.000000
_cell_angle_gamma 90.000000
_cell_volume 4913.876934
_symmetry_space_group_name_H-M "C M M M"
_symmetry_group_IT_number 65
_symmetry_cell_setting 'orthorhombic'
loop_
_space_group_symop_operation_xyz
x,y,z
-x,-y,z
x,-y,-z
-x,y,-z
-x,-y,-z
x,y,-z
-x,y,z
x,-y,z
1/2+x,1/2+y,z
1/2-x,1/2-y,z
1/2+x,1/2-y,-z
1/2-x,1/2+y,-z
1/2-x,1/2-y,-z
1/2+x,1/2+y,-z
1/2-x,1/2+y,z
1/2+x,1/2-y,z
loop_
_atom_site_type_symbol
_atom_site_label
_atom_site_fract_x
_atom_site_fract_y
_atom_site_fract_z
Si Si1 0.792629 0.331906 0.742996
Si Si2 0.049787 0.167443 0.910524
Si Si3 0.909950 0.172748 0.650781
Si Si4 0.500000 0.672504 0.417506
Si Si5 0.168082 0.669281 0.584562
Si Si6 0.113562 0.671440 0.802056
O O1 0.780749 0.500000 0.744320
O O2 0.750000 0.250000 0.774905
O O3 0.801095 0.282117 0.655070
O O4 0.833725 0.298453 0.799239
O O5 0.088381 0.267513 0.875649
O O6 0.000000 0.214282 0.885365
O O7 0.057677 0.000000 0.886118
O O8 0.054136 0.185239 0.000000
O O9 0.957562 0.225640 0.626404
O O10 0.875818 0.235325 0.589585
O O11 0.906144 0.243222 0.732222
O O12 0.904032 0.000000 0.655569
O O13 0.500000 0.500000 0.425208
O O14 0.500000 0.745673 0.500000
O O15 0.189095 0.695369 0.500000
O O16 0.155650 0.500000 0.595704
O O17 0.104508 0.500000 0.795058
#
# Coordination Sequence:
#
# PCOD8267878 Si02
#       6
#    16  16  16   8  16  16
#     4   9  19  34  51  73 101 133 173 219 266 314
#     4   9  19  36  58  85 115 143 172 207 247 295
#     4  10  19  31  48  69  94 130 175 219 259 305
#     4   9  18  30  43  63  92 125 166 217 261 294
#     4   9  18  33  49  67  97 131 164 214 275 325
#     4  10  21  36  53  77 108 139 171 211 258 309
#
# _framework density 17.908466000000001
#
# number of rings (size 3 to 8) (size 9 to 14) (size 15 to 20)
#    0.000    2.636    0.000    3.273    1.273    5.818 
#    0.000    2.273    0.000    3.818    0.000    0.000 
#    0.000    0.000    0.000    0.000    0.000    0.000 
#
# Total GULP energy -545258.240155 kJ/mol
# GULP energy per Si atom -12392.232731 kJ/mol
# Density = 1.786771 g / cm^3
# Si number density = 17.908466 Si / 1000 Ang^3
#
#
#
# Elastic Constant Matrix: (Units=GPa)
#
#
# Indices 1 2 3 4 5 6 
#
# 1 119.8108 46.7840 26.4633 0.0000 0.0000 0.0000
# 2 46.7840 64.4573 20.8372 0.0000 0.0000 0.0000
# 3 26.4633 20.8372 47.2030 0.0000 0.0000 0.0000
# 4 0.0000 0.0000 0.0000 27.1617 0.0000 0.0000
# 5 0.0000 0.0000 0.0000 0.0000 13.8048 0.0000
# 6 0.0000 0.0000 0.0000 0.0000 0.0000 26.8448
#
#
#
# Elastic Compliance Matrix: (Units=1/GPa)
#
#
# Indices 1 2 3 4 5 6 
#
# 1 0.012095 -0.007683 -0.003389 0.000000 0.000000 0.000000
# 2 -0.007683 0.022977 -0.005836 0.000000 0.000000 0.000000
# 3 -0.003389 -0.005836 0.025661 0.000000 0.000000 0.000000
# 4 0.000000 0.000000 0.000000 0.036816 0.000000 0.000000
# 5 0.000000 0.000000 0.000000 0.000000 0.072439 0.000000
# 6 0.000000 0.000000 0.000000 0.000000 0.000000 0.037251
#
#
# Mechanical properties :
#
#
# Convention : Reuss Voigt Hill
#
# Bulk Modulus (GPa) = 37.15047 46.62668 41.88858
# Shear Modulus (GPa) = 19.99769 22.72136 21.35953
#
# Velocity S-wave (km/s) = 3.34527 3.56582 3.45730
# Velocity P-wave (km/s) = 5.97585 6.56095 6.27522
#
# Compressibility (1/GPa) = 0.02691756
#
# Stress axis : x y z
#
# Youngs Moduli (GPa) = 82.67689 43.52131 38.96927
#
# Poissons Ratio (x) = 0.33439 0.13208
# Poissons Ratio (y) = 0.63523 0.22741
# Poissons Ratio (z) = 0.28021 0.25397
#
# Static dielectric constant tensor:
#      x y z
#    x 3.164190 0.000000 0.000000 
#    y 0.000000 3.275200 0.000000 
#    z 0.000000 0.000000 3.219260 
# 
# 
# High freq. dielectric constant tensor:
#      x y z
#    x 1.690840 0.000000 0.000000 
#    y 0.000000 1.689730 0.000000 
#    z 0.000000 0.000000 1.677650 
# 
# From -- ./inp_files/50384.got.cif
#   From: 2010.03.12/outbox.cif.g09.slc.cpg/sg65_26_cif.got.tgz:50384.got - 2010.04.10 20:52:16.
