data_PCOD8267690
_publ_section_title
;
Structure prediction by ZEFSAII (Michael W. Deem and Ramdas Pophale) SiO2 
 PCOD8267690
Probable space group: C M M M
;
_chemical_formula_sum "Si O2"
_cell_formula_units_Z 88
_cell_length_a 19.606514
_cell_length_b 30.351564
_cell_length_c 9.606697
_cell_angle_alpha 90.000000
_cell_angle_beta 90.000000
_cell_angle_gamma 90.000000
_cell_volume 5716.833606
_symmetry_space_group_name_H-M "C M M M"
_symmetry_group_IT_number 65
_symmetry_cell_setting 'orthorhombic'
loop_
_space_group_symop_operation_xyz
x,y,z
-x,-y,z
x,-y,-z
-x,y,-z
-x,-y,-z
x,y,-z
-x,y,z
x,-y,z
1/2+x,1/2+y,z
1/2-x,1/2-y,z
1/2+x,1/2-y,-z
1/2-x,1/2+y,-z
1/2-x,1/2-y,-z
1/2+x,1/2+y,-z
1/2-x,1/2+y,z
1/2+x,1/2-y,z
loop_
_atom_site_type_symbol
_atom_site_label
_atom_site_fract_x
_atom_site_fract_y
_atom_site_fract_z
Si Si1 0.500000 0.947838 0.841995
Si Si2 0.795342 0.207662 0.336043
Si Si3 0.075641 0.776183 0.842500
Si Si4 0.575976 0.172267 0.153711
Si Si5 0.808699 0.363552 0.340784
Si Si6 0.871700 0.450313 0.660150
O O1 0.432151 0.932839 0.759915
O O2 0.500000 0.000000 0.845352
O O3 0.500000 0.928771 0.000000
O O4 0.809144 0.209223 0.500000
O O5 0.750000 0.250000 0.289644
O O6 0.867908 0.204975 0.261256
O O7 0.757533 0.162586 0.286052
O O8 0.073571 0.724171 0.829124
O O9 0.000000 0.794601 0.803489
O O10 0.094404 0.790213 0.000000
O O11 0.500000 0.152282 0.173775
O O12 0.623286 0.152883 0.270005
O O13 0.603503 0.159871 0.000000
O O14 0.817118 0.350056 0.500000
O O15 0.806977 0.416907 0.320338
O O16 0.897415 0.448769 0.500000
O O17 0.848253 0.500000 0.699284
#
# Coordination Sequence:
#
# PCOD8267690 Si02
#       6
#     8  16  16  16  16  16
#     4   9  17  29  45  63  83 109 143 187 231 261
#     4  10  19  31  45  65  92 117 143 178 219 261
#     4   9  18  32  48  65  87 117 151 182 212 254
#     4   9  18  30  42  60  86 115 149 184 216 253
#     4  10  20  31  44  63  85 113 148 183 218 260
#     4   9  18  32  46  59  80 112 148 183 219 259
#
# _framework density 15.393136
#
# number of rings (size 3 to 8) (size 9 to 14) (size 15 to 20)
#    0.000    2.636    1.818    1.364    1.273    3.636 
#    0.000    1.818    0.000    0.000    0.000    0.000 
#    0.000    0.727    0.000    9.091    0.000    1.455 
#
# Total GULP energy -545248.043829 kJ/mol
# GULP energy per Si atom -12392.000996 kJ/mol
# Density = 1.535810 g / cm^3
# Si number density = 15.393136 Si / 1000 Ang^3
#
#
#
# Elastic Constant Matrix: (Units=GPa)
#
#
# Indices 1 2 3 4 5 6 
#
# 1 95.7103 49.0479 42.6704 0.0000 0.0000 0.0000
# 2 49.0479 60.7986 28.4918 0.0000 0.0000 0.0000
# 3 42.6704 28.4918 52.2065 0.0000 0.0000 0.0000
# 4 0.0000 0.0000 0.0000 12.5870 0.0000 0.0000
# 5 0.0000 0.0000 0.0000 0.0000 16.4817 0.0000
# 6 0.0000 0.0000 0.0000 0.0000 0.0000 26.7188
#
#
#
# Elastic Compliance Matrix: (Units=1/GPa)
#
#
# Indices 1 2 3 4 5 6 
#
# 1 0.021660 -0.012331 -0.010974 0.000000 0.000000 0.000000
# 2 -0.012331 0.029120 -0.005814 0.000000 0.000000 0.000000
# 3 -0.010974 -0.005814 0.031297 0.000000 0.000000 0.000000
# 4 0.000000 0.000000 0.000000 0.079447 0.000000 0.000000
# 5 0.000000 0.000000 0.000000 0.000000 0.060673 0.000000
# 6 0.000000 0.000000 0.000000 0.000000 0.000000 0.037427
#
#
# Mechanical properties :
#
#
# Convention : Reuss Voigt Hill
#
# Bulk Modulus (GPa) = 41.94680 49.90396 45.92538
# Shear Modulus (GPa) = 15.34653 17.05786 16.20219
#
# Velocity S-wave (km/s) = 3.16091 3.33250 3.24784
# Velocity P-wave (km/s) = 6.37427 6.87731 6.63056
#
# Compressibility (1/GPa) = 0.02383972
#
# Stress axis : x y z
#
# Youngs Moduli (GPa) = 46.16863 34.34082 31.95218
#
# Poissons Ratio (x) = 0.42345 0.35063
# Poissons Ratio (y) = 0.56930 0.18576
# Poissons Ratio (z) = 0.50664 0.19965
#
# Static dielectric constant tensor:
#      x y z
#    x 2.605480 0.000000 0.000000 
#    y 0.000000 3.109660 0.000000 
#    z 0.000000 0.000000 3.048580 
# 
# 
# High freq. dielectric constant tensor:
#      x y z
#    x 1.559930 0.000000 0.000000 
#    y 0.000000 1.577980 0.000000 
#    z 0.000000 0.000000 1.595740 
# 
# From -- ./inp_files/10150.got.cif
#   From: 2010.03.12/outbox.cif.g09.slc.cpg/sg65_6_cif.got.tgz:10150.got - 2010.04.10 20:52:16.
