data_PCOD8267443
_publ_section_title
;
Structure prediction by ZEFSAII (Michael W. Deem and Ramdas Pophale) SiO2 
 PCOD8267443
Probable space group: C M M M
;
_chemical_formula_sum "Si O2"
_cell_formula_units_Z 104
_cell_length_a 8.260461
_cell_length_b 27.879998
_cell_length_c 27.897261
_cell_angle_alpha 90.000000
_cell_angle_beta 90.000000
_cell_angle_gamma 90.000000
_cell_volume 6424.784853
_symmetry_space_group_name_H-M "C M M M"
_symmetry_group_IT_number 65
_symmetry_cell_setting 'orthorhombic'
loop_
_space_group_symop_operation_xyz
x,y,z
-x,-y,z
x,-y,-z
-x,y,-z
-x,-y,-z
x,y,-z
-x,y,z
x,-y,z
1/2+x,1/2+y,z
1/2-x,1/2-y,z
1/2+x,1/2-y,-z
1/2-x,1/2+y,-z
1/2-x,1/2-y,-z
1/2+x,1/2+y,-z
1/2-x,1/2+y,z
1/2+x,1/2-y,z
loop_
_atom_site_type_symbol
_atom_site_label
_atom_site_fract_x
_atom_site_fract_y
_atom_site_fract_z
Si Si1 0.312927 0.945965 0.218302
Si Si2 0.191236 0.358259 0.447279
Si Si3 0.000000 0.057075 0.945286
Si Si4 0.319322 0.056845 0.109027
Si Si5 0.191642 0.946575 0.604884
Si Si6 0.187061 0.888343 0.695820
Si Si7 0.687473 0.802269 0.356757
O O1 0.500000 0.945270 0.232548
O O2 0.287858 0.928448 0.163929
O O3 0.218169 0.908762 0.251453
O O4 0.243486 0.000000 0.224851
O O5 0.258353 0.343646 0.500000
O O6 0.239839 0.413166 0.437098
O O7 0.266771 0.323479 0.406141
O O8 0.000000 0.354444 0.446731
O O9 0.167027 0.077496 0.921545
O O10 0.000000 0.000000 0.940689
O O11 0.000000 0.074253 0.000000
O O12 0.500000 0.075945 0.092654
O O13 0.323738 0.000000 0.104321
O O14 0.249359 0.926678 0.656598
O O15 0.000000 0.947562 0.601762
O O16 0.263148 0.000000 0.598635
O O17 0.276620 0.837640 0.687705
O O18 0.000000 0.877617 0.688958
O O19 0.500000 0.798281 0.365325
O O20 0.750000 0.750000 0.344008
#
# Coordination Sequence:
#
# PCOD8267443 Si02
#       7
#    16  16   8  16  16  16  16
#     4   9  17  28  42  62  89 119 149 185 227 266
#     4   9  19  34  49  66  86 108 137 171 209 254
#     4   9  16  24  36  54  76 110 158 202 237 273
#     4   8  15  26  37  53  80 112 149 195 238 273
#     4   9  18  31  44  62  89 115 140 171 208 250
#     4  10  19  30  46  67  87 111 144 178 213 262
#     4  10  20  35  52  67  86 109 134 172 214 259
#
# _framework density 16.187311999999999
#
# number of rings (size 3 to 8) (size 9 to 14) (size 15 to 20)
#    0.000    2.846    0.000    2.308    1.077    3.692 
#    0.000    3.077    0.000    0.000    0.000    0.000 
#    0.000    0.000    0.000    0.000    0.000    0.769 
#
# Total GULP energy -644493.112291 kJ/mol
# GULP energy per Si atom -12394.098313 kJ/mol
# Density = 1.615047 g / cm^3
# Si number density = 16.187312 Si / 1000 Ang^3
#
#
#
# Elastic Constant Matrix: (Units=GPa)
#
#
# Indices 1 2 3 4 5 6 
#
# 1 61.0080 19.4567 37.6666 0.0000 0.0000 0.0000
# 2 19.4567 76.9788 30.0489 0.0000 0.0000 0.0000
# 3 37.6666 30.0489 87.6891 0.0000 0.0000 0.0000
# 4 0.0000 0.0000 0.0000 -91.0287 0.0000 0.0000
# 5 0.0000 0.0000 0.0000 0.0000 24.4915 0.0000
# 6 0.0000 0.0000 0.0000 0.0000 0.0000 19.1943
#
#
#
# Elastic Compliance Matrix: (Units=1/GPa)
#
#
# Indices 1 2 3 4 5 6 
#
# 1 0.022632 -0.002223 -0.008960 0.000000 0.000000 0.000000
# 2 -0.002223 0.015215 -0.004259 0.000000 0.000000 0.000000
# 3 -0.008960 -0.004259 0.016712 0.000000 0.000000 0.000000
# 4 0.000000 0.000000 0.000000 -0.010986 0.000000 0.000000
# 5 0.000000 0.000000 0.000000 0.000000 0.040830 0.000000
# 6 0.000000 0.000000 0.000000 0.000000 0.000000 0.052099
#
#
# Mechanical properties :
#
#
# Convention : Reuss Voigt Hill
#
# Bulk Modulus (GPa) = 42.23733 44.44670 43.34201
# Shear Modulus (GPa) = 28.52613 -0.23499 14.14557
#
# Velocity S-wave (km/s) = 4.20247 -0.38143 2.95933
# Velocity P-wave (km/s) = 7.04963 5.22718 6.20567
#
# Compressibility (1/GPa) = 0.02367574
#
# Stress axis : x y z
#
# Youngs Moduli (GPa) = 44.18516 65.72497 59.83722
#
# Poissons Ratio (x) = 0.14610 0.53613
# Poissons Ratio (y) = 0.09822 0.25484
# Poissons Ratio (z) = 0.39589 0.27992
#
# Static dielectric constant tensor:
#      x y z
#    x 3.169470 0.000000 0.000000 
#    y 0.000000 3.280920 0.000000 
#    z 0.000000 0.000000 3.059060 
# 
# 
# High freq. dielectric constant tensor:
#      x y z
#    x 1.629770 0.000000 0.000000 
#    y 0.000000 1.576440 0.000000 
#    z 0.000000 0.000000 1.608140 
# 
# From -- ./inp_files/73740.got.cif
#   From: 2010.03.12/outbox.cif.g09.slc.cpg/sg65_37_cif.got.tgz:73740.got - 2010.04.10 20:52:16.
