data_PCOD8267118
_publ_section_title
;
Structure prediction by ZEFSAII (Michael W. Deem and Ramdas Pophale) SiO2 
 PCOD8267118
Probable space group: C M M M
;
_chemical_formula_sum "Si O2"
_cell_formula_units_Z 104
_cell_length_a 9.134401
_cell_length_b 30.572729
_cell_length_c 23.587057
_cell_angle_alpha 90.000000
_cell_angle_beta 90.000000
_cell_angle_gamma 90.000000
_cell_volume 6587.005658
_symmetry_space_group_name_H-M "C M M M"
_symmetry_group_IT_number 65
_symmetry_cell_setting 'orthorhombic'
loop_
_space_group_symop_operation_xyz
x,y,z
-x,-y,z
x,-y,-z
-x,y,-z
-x,-y,-z
x,y,-z
-x,y,z
x,-y,z
1/2+x,1/2+y,z
1/2-x,1/2-y,z
1/2+x,1/2-y,-z
1/2-x,1/2+y,-z
1/2-x,1/2-y,-z
1/2+x,1/2+y,-z
1/2-x,1/2+y,z
1/2+x,1/2-y,z
loop_
_atom_site_type_symbol
_atom_site_label
_atom_site_fract_x
_atom_site_fract_y
_atom_site_fract_z
Si Si1 0.832694 0.050499 0.434389
Si Si2 0.834977 0.207962 0.231189
Si Si3 0.165412 0.207737 0.366201
Si Si4 0.662784 0.450282 0.832890
Si Si5 0.670620 0.121296 0.363878
Si Si6 0.329856 0.121987 0.232318
Si Si7 0.000000 0.948587 0.061953
O O1 0.803565 0.060782 0.500000
O O2 0.723166 0.078768 0.397033
O O3 0.000000 0.061833 0.418502
O O4 0.799632 0.000000 0.421209
O O5 0.750000 0.250000 0.206609
O O6 0.833326 0.209414 0.298706
O O7 0.756085 0.164253 0.209340
O O8 0.000000 0.208467 0.207655
O O9 0.250000 0.250000 0.390744
O O10 0.245582 0.163928 0.387434
O O11 0.000000 0.207960 0.389706
O O12 0.500000 0.446015 0.804472
O O13 0.719501 0.500000 0.826865
O O14 0.780375 0.419961 0.802838
O O15 0.644356 0.437062 0.899951
O O16 0.500000 0.128874 0.374591
O O17 0.705304 0.113510 0.297997
O O18 0.500000 0.130506 0.222220
O O19 0.000000 0.000000 0.052564
O O20 0.000000 0.924975 0.000000
#
# Coordination Sequence:
#
# PCOD8267118 Si02
#       7
#    16  16  16  16  16  16   8
#     4   9  19  36  54  69  85 109 146 193 237 272
#     4   9  16  26  41  60  85 119 155 188 223 264
#     4   9  16  27  44  65  89 117 149 183 220 267
#     4   8  16  28  43  64  88 119 153 186 225 267
#     4  10  20  31  45  67  92 121 154 183 222 274
#     4  10  19  29  41  62  96 129 152 182 223 271
#     4   7  12  26  48  68  86 114 155 197 229 263
#
# _framework density 15.788660999999999
#
# number of rings (size 3 to 8) (size 9 to 14) (size 15 to 20)
#    0.462    2.538    0.000    2.308    0.000    7.077 
#    0.000    3.846    0.000    0.923    0.000    2.154 
#    0.000    0.615    0.000    0.000    0.000    0.000 
#
# Total GULP energy -644485.600048 kJ/mol
# GULP energy per Si atom -12393.953847 kJ/mol
# Density = 1.575273 g / cm^3
# Si number density = 15.788661 Si / 1000 Ang^3
#
#
#
# Elastic Constant Matrix: (Units=GPa)
#
#
# Indices 1 2 3 4 5 6 
#
# 1 105.3578 61.8214 36.8374 0.0000 0.0000 0.0000
# 2 61.8214 112.1291 40.9926 0.0000 0.0000 0.0000
# 3 36.8374 40.9926 44.8956 0.0000 0.0000 0.0000
# 4 0.0000 0.0000 0.0000 -1.0971 0.0000 0.0000
# 5 0.0000 0.0000 0.0000 0.0000 11.8663 0.0000
# 6 0.0000 0.0000 0.0000 0.0000 0.0000 36.3431
#
#
#
# Elastic Compliance Matrix: (Units=1/GPa)
#
#
# Indices 1 2 3 4 5 6 
#
# 1 0.015505 -0.005850 -0.007380 0.000000 0.000000 0.000000
# 2 -0.005850 0.015594 -0.009438 0.000000 0.000000 0.000000
# 3 -0.007380 -0.009438 0.036947 0.000000 0.000000 0.000000
# 4 0.000000 0.000000 0.000000 -0.911500 0.000000 0.000000
# 5 0.000000 0.000000 0.000000 0.000000 0.084272 0.000000
# 6 0.000000 0.000000 0.000000 0.000000 0.000000 0.027516
#
#
# Mechanical properties :
#
#
# Convention : Reuss Voigt Hill
#
# Bulk Modulus (GPa) = 44.03603 60.18727 52.11165
# Shear Modulus (GPa) = -7.36639 17.60453 5.11907
#
# Velocity S-wave (km/s) = -2.16235 3.34280 1.80258
# Velocity P-wave (km/s) = 4.66017 7.28714 6.11635
#
# Compressibility (1/GPa) = 0.02270868
#
# Stress axis : x y z
#
# Youngs Moduli (GPa) = 64.49667 64.12578 27.06565
#
# Poissons Ratio (x) = 0.37516 0.19975
# Poissons Ratio (y) = 0.37733 0.25546
# Poissons Ratio (z) = 0.47599 0.60524
#
# Static dielectric constant tensor:
#      x y z
#    x 3.001140 0.000000 0.000000 
#    y 0.000000 3.019990 0.000000 
#    z 0.000000 0.000000 2.779400 
# 
# 
# High freq. dielectric constant tensor:
#      x y z
#    x 1.608570 0.000000 0.000000 
#    y 0.000000 1.611700 0.000000 
#    z 0.000000 0.000000 1.553230 
# 
# From -- ./inp_files/68500.got.cif
#   From: 2010.03.12/outbox.cif.g09.slc.cpg/sg65_35_cif.got.tgz:68500.got - 2010.04.10 20:52:16.
