data_PCOD8267072
_publ_section_title
;
Structure prediction by ZEFSAII (Michael W. Deem and Ramdas Pophale) SiO2 
 PCOD8267072
Probable space group: C M M M
;
_chemical_formula_sum "Si O2"
_cell_formula_units_Z 96
_cell_length_a 8.786419
_cell_length_b 27.350593
_cell_length_c 23.999566
_cell_angle_alpha 90.000000
_cell_angle_beta 90.000000
_cell_angle_gamma 90.000000
_cell_volume 5767.426184
_symmetry_space_group_name_H-M "C M M M"
_symmetry_group_IT_number 65
_symmetry_cell_setting 'orthorhombic'
loop_
_space_group_symop_operation_xyz
x,y,z
-x,-y,z
x,-y,-z
-x,y,-z
-x,-y,-z
x,y,-z
-x,y,z
x,-y,z
1/2+x,1/2+y,z
1/2-x,1/2-y,z
1/2+x,1/2-y,-z
1/2-x,1/2+y,-z
1/2-x,1/2-y,-z
1/2+x,1/2+y,-z
1/2-x,1/2+y,z
1/2+x,1/2-y,z
loop_
_atom_site_type_symbol
_atom_site_label
_atom_site_fract_x
_atom_site_fract_y
_atom_site_fract_z
Si Si1 0.179874 0.349630 0.936962
Si Si2 0.676505 0.443100 0.671973
Si Si3 0.670922 0.057961 0.560909
Si Si4 0.321171 0.946834 0.882405
Si Si5 0.321752 0.890730 0.773762
Si Si6 0.820025 0.801161 0.832881
O O1 0.236779 0.405256 0.925164
O O2 0.263719 0.312925 0.895471
O O3 0.000000 0.345718 0.925772
O O4 0.222560 0.335426 0.000000
O O5 0.500000 0.434344 0.683316
O O6 0.720899 0.500000 0.679142
O O7 0.716928 0.424114 0.609798
O O8 0.773542 0.410720 0.714094
O O9 0.725414 0.077752 0.500000
O O10 0.500000 0.076761 0.573380
O O11 0.671603 0.000000 0.559033
O O12 0.500000 0.952012 0.888929
O O13 0.278596 0.931480 0.819576
O O14 0.245520 0.000000 0.895131
O O15 0.500000 0.879039 0.774417
O O16 0.233438 0.841114 0.788127
O O17 0.750000 0.750000 0.813588
O O18 0.000000 0.797834 0.833032
#
# Coordination Sequence:
#
# PCOD8267072 Si02
#       6
#    16  16  16  16  16  16
#     4   9  18  32  49  71  97 122 152 188 224 269
#     4  10  19  28  41  66  99 132 164 198 237 277
#     4   8  14  25  40  58  84 123 169 208 238 271
#     4   8  14  25  43  67  92 119 151 186 222 259
#     4  10  19  32  49  69  93 121 156 194 232 278
#     4  11  22  37  55  72  91 115 145 185 237 290
#
# _framework density 16.645206999999999
#
# number of rings (size 3 to 8) (size 9 to 14) (size 15 to 20)
#    0.000    2.667    0.000    4.500    0.000    3.000 
#    0.000    3.333    0.000    4.500    0.000    4.667 
#    0.000    0.667    0.000    2.500    0.000    3.833 
#
# Total GULP energy -594990.775449 kJ/mol
# GULP energy per Si atom -12395.641155 kJ/mol
# Density = 1.660732 g / cm^3
# Si number density = 16.645207 Si / 1000 Ang^3
#
#
#
# Elastic Constant Matrix: (Units=GPa)
#
#
# Indices 1 2 3 4 5 6 
#
# 1 72.9766 29.2757 34.6434 0.0000 0.0000 0.0000
# 2 29.2757 72.4786 22.6947 0.0000 0.0000 0.0000
# 3 34.6434 22.6947 98.4815 0.0000 0.0000 0.0000
# 4 0.0000 0.0000 0.0000 22.0075 0.0000 0.0000
# 5 0.0000 0.0000 0.0000 0.0000 25.2800 0.0000
# 6 0.0000 0.0000 0.0000 0.0000 0.0000 19.8233
#
#
#
# Elastic Compliance Matrix: (Units=1/GPa)
#
#
# Indices 1 2 3 4 5 6 
#
# 1 0.018502 -0.005858 -0.005159 0.000000 0.000000 0.000000
# 2 -0.005858 0.016725 -0.001793 0.000000 0.000000 0.000000
# 3 -0.005159 -0.001793 0.012382 0.000000 0.000000 0.000000
# 4 0.000000 0.000000 0.000000 0.045439 0.000000 0.000000
# 5 0.000000 0.000000 0.000000 0.000000 0.039557 0.000000
# 6 0.000000 0.000000 0.000000 0.000000 0.000000 0.050446
#
#
# Mechanical properties :
#
#
# Convention : Reuss Voigt Hill
#
# Bulk Modulus (GPa) = 45.47763 46.35156 45.91460
# Shear Modulus (GPa) = 23.14809 23.91036 23.52923
#
# Velocity S-wave (km/s) = 3.73322 3.79419 3.76383
# Velocity P-wave (km/s) = 6.77965 6.86307 6.82149
#
# Compressibility (1/GPa) = 0.02198883
#
# Stress axis : x y z
#
# Youngs Moduli (GPa) = 54.04842 59.79095 80.76143
#
# Poissons Ratio (x) = 0.35026 0.41661
# Poissons Ratio (y) = 0.31662 0.14484
# Poissons Ratio (z) = 0.27881 0.10723
#
# Static dielectric constant tensor:
#      x y z
#    x 3.007570 0.000000 0.000000 
#    y 0.000000 2.986140 0.000000 
#    z 0.000000 0.000000 3.282710 
# 
# 
# High freq. dielectric constant tensor:
#      x y z
#    x 1.631670 0.000000 0.000000 
#    y 0.000000 1.610750 0.000000 
#    z 0.000000 0.000000 1.638540 
# 
# From -- ./inp_files/67840.got.cif
#   From: 2010.03.12/outbox.cif.g09.slc.cpg/sg65_34_cif.got.tgz:67840.got - 2010.04.10 20:52:16.
