data_PCOD8267154
_publ_section_title
;
Structure prediction by ZEFSAII (Michael W. Deem and Ramdas Pophale) SiO2 
 PCOD8267154
Probable space group: C M M M
;
_chemical_formula_sum "Si O2"
_cell_formula_units_Z 96
_cell_length_a 14.830741
_cell_length_b 29.509602
_cell_length_c 14.347479
_cell_angle_alpha 90.000000
_cell_angle_beta 90.000000
_cell_angle_gamma 90.000000
_cell_volume 6279.163629
_symmetry_space_group_name_H-M "C M M M"
_symmetry_group_IT_number 65
_symmetry_cell_setting 'orthorhombic'
loop_
_space_group_symop_operation_xyz
x,y,z
-x,-y,z
x,-y,-z
-x,y,-z
-x,-y,-z
x,y,-z
-x,y,z
x,-y,z
1/2+x,1/2+y,z
1/2-x,1/2-y,z
1/2+x,1/2-y,-z
1/2-x,1/2+y,-z
1/2-x,1/2-y,-z
1/2+x,1/2+y,-z
1/2-x,1/2+y,z
1/2+x,1/2-y,z
loop_
_atom_site_type_symbol
_atom_site_label
_atom_site_fract_x
_atom_site_fract_y
_atom_site_fract_z
Si Si1 0.751898 0.946200 0.743047
Si Si2 0.193983 0.877637 0.110242
Si Si3 0.400435 0.446153 0.397498
Si Si4 0.899116 0.553819 0.603378
Si Si5 0.500000 0.761249 0.888918
Si Si6 0.000000 0.158587 0.110296
Si Si7 0.307623 0.208341 0.889315
O O1 0.765431 0.922761 0.842762
O O2 0.833449 0.927874 0.679937
O O3 0.663157 0.928945 0.688050
O O4 0.751650 0.000000 0.759233
O O5 0.259853 0.837504 0.144273
O O6 0.090814 0.867650 0.142304
O O7 0.198639 0.885191 0.000000
O O8 0.371452 0.428554 0.500000
O O9 0.500000 0.428291 0.372758
O O10 0.398311 0.500000 0.398082
O O11 0.867787 0.570947 0.500000
O O12 0.895407 0.500000 0.601871
O O13 0.000000 0.571206 0.623837
O O14 0.500000 0.709794 0.849356
O O15 0.589122 0.787797 0.852841
O O16 0.500000 0.759406 0.000000
O O17 0.000000 0.162262 0.000000
O O18 0.250000 0.250000 0.848375
O O19 0.306362 0.210620 0.000000
#
# Coordination Sequence:
#
# PCOD8267154 Si02
#       7
#    16  16  16  16   8   8  16
#     4  10  19  29  43  61  87 124 158 182 207 249
#     4  10  20  31  42  61  89 123 157 187 213 248
#     4   8  14  25  41  61  83 105 134 178 229 270
#     4   8  14  27  48  69  84 102 137 188 240 277
#     4   9  14  24  46  67  79 100 133 181 245 291
#     4   9  16  28  45  62  82 111 150 189 228 262
#     4   9  15  26  44  64  83 104 138 182 232 278
#
# _framework density 15.288660999999999
#
# number of rings (size 3 to 8) (size 9 to 14) (size 15 to 20)
#    0.000    3.000    1.667    1.500    1.167    2.333 
#    1.500    0.000    0.000    1.500    0.000    2.333 
#    0.000    2.667    0.000    5.000    0.000    0.333 
#
# Total GULP energy -594724.144034 kJ/mol
# GULP energy per Si atom -12390.086334 kJ/mol
# Density = 1.525386 g / cm^3
# Si number density = 15.288661 Si / 1000 Ang^3
#
#
#
# Elastic Constant Matrix: (Units=GPa)
#
#
# Indices 1 2 3 4 5 6 
#
# 1 122.4886 41.3121 40.0185 0.0000 0.0000 0.0000
# 2 41.3121 55.6136 31.8718 0.0000 0.0000 0.0000
# 3 40.0185 31.8718 52.3737 0.0000 0.0000 0.0000
# 4 0.0000 0.0000 0.0000 2.3941 0.0000 0.0000
# 5 0.0000 0.0000 0.0000 0.0000 12.6209 0.0000
# 6 0.0000 0.0000 0.0000 0.0000 0.0000 18.4197
#
#
#
# Elastic Compliance Matrix: (Units=1/GPa)
#
#
# Indices 1 2 3 4 5 6 
#
# 1 0.011909 -0.005576 -0.005706 0.000000 0.000000 0.000000
# 2 -0.005576 0.030222 -0.014130 0.000000 0.000000 0.000000
# 3 -0.005706 -0.014130 0.032053 0.000000 0.000000 0.000000
# 4 0.000000 0.000000 0.000000 0.417687 0.000000 0.000000
# 5 0.000000 0.000000 0.000000 0.000000 0.079233 0.000000
# 6 0.000000 0.000000 0.000000 0.000000 0.000000 0.054290
#
#
# Mechanical properties :
#
#
# Convention : Reuss Voigt Hill
#
# Bulk Modulus (GPa) = 42.81294 50.76452 46.78873
# Shear Modulus (GPa) = 7.30989 14.50520 10.90755
#
# Velocity S-wave (km/s) = 2.18898 3.08353 2.67393
# Velocity P-wave (km/s) = 5.86964 6.77891 6.34060
#
# Compressibility (1/GPa) = 0.02335742
#
# Stress axis : x y z
#
# Youngs Moduli (GPa) = 83.96974 33.08897 31.19878
#
# Poissons Ratio (x) = 0.18452 0.17803
# Poissons Ratio (y) = 0.46825 0.44085
# Poissons Ratio (z) = 0.47915 0.46756
#
# Static dielectric constant tensor:
#      x y z
#    x 3.405310 0.000000 0.000000 
#    y 0.000000 2.581140 0.000000 
#    z 0.000000 0.000000 2.667590 
# 
# 
# High freq. dielectric constant tensor:
#      x y z
#    x 1.606550 0.000000 0.000000 
#    y 0.000000 1.542170 0.000000 
#    z 0.000000 0.000000 1.546850 
# 
# From -- ./inp_files/40714.got.cif
#   From: 2010.03.12/outbox.cif.g09.slc.cpg/sg65_21_cif.got.tgz:40714.got - 2010.04.10 20:52:16.
