data_PCOD8267256
_publ_section_title
;
Structure prediction by ZEFSAII (Michael W. Deem and Ramdas Pophale) SiO2 
 PCOD8267256
Probable space group: C M M M
;
_chemical_formula_sum "Si O2"
_cell_formula_units_Z 80
_cell_length_a 14.110192
_cell_length_b 33.754288
_cell_length_c 9.697751
_cell_angle_alpha 90.000000
_cell_angle_beta 90.000000
_cell_angle_gamma 90.000000
_cell_volume 4618.839847
_symmetry_space_group_name_H-M "C M M M"
_symmetry_group_IT_number 65
_symmetry_cell_setting 'orthorhombic'
loop_
_space_group_symop_operation_xyz
x,y,z
-x,-y,z
x,-y,-z
-x,y,-z
-x,-y,-z
x,y,-z
-x,y,z
x,-y,z
1/2+x,1/2+y,z
1/2-x,1/2-y,z
1/2+x,1/2-y,-z
1/2-x,1/2+y,-z
1/2-x,1/2-y,-z
1/2+x,1/2+y,-z
1/2-x,1/2+y,z
1/2+x,1/2-y,z
loop_
_atom_site_type_symbol
_atom_site_label
_atom_site_fract_x
_atom_site_fract_y
_atom_site_fract_z
Si Si1 0.112248 0.262595 0.347268
Si Si2 0.768642 0.115890 0.162248
Si Si3 0.105645 0.044043 0.836474
Si Si4 0.890371 0.648574 0.661136
Si Si5 0.110344 0.192595 0.158370
O O1 0.152936 0.254459 0.500000
O O2 0.139753 0.306650 0.297284
O O3 0.153889 0.229106 0.246001
O O4 0.000000 0.259901 0.350326
O O5 0.820537 0.076483 0.218793
O O6 0.670816 0.118886 0.245804
O O7 0.836069 0.152639 0.198333
O O8 0.746067 0.113607 0.000000
O O9 0.000000 0.052562 0.777902
O O10 0.139009 0.000000 0.791010
O O11 0.101187 0.047138 0.000000
O O12 0.870437 0.641223 0.500000
O O13 0.000000 0.640675 0.695386
O O14 0.000000 0.185600 0.191508
O O15 0.125737 0.203988 0.000000
#
# Coordination Sequence:
#
# PCOD8267256 Si02
#       5
#    16  16  16  16  16
#     4   8  15  29  46  61  81 116 161 199 227 263
#     4  10  19  29  46  73  97 117 149 192 231 269
#     4   8  14  27  49  75 101 127 151 176 214 270
#     4   9  19  35  50  63  85 121 162 199 233 269
#     4   9  17  28  42  64  96 126 148 180 230 280
#
# _framework density 17.320366
#
# number of rings (size 3 to 8) (size 9 to 14) (size 15 to 20)
#    0.000    3.200    0.000    2.400    0.000    5.200 
#    0.000    6.000    0.000    3.000    0.000    5.600 
#    0.000    0.000    0.000    0.000    0.000    0.000 
#
# Total GULP energy -495845.523314 kJ/mol
# GULP energy per Si atom -12396.138083 kJ/mol
# Density = 1.728094 g / cm^3
# Si number density = 17.320366 Si / 1000 Ang^3
#
#
#
# Elastic Constant Matrix: (Units=GPa)
#
#
# Indices 1 2 3 4 5 6 
#
# 1 87.3783 69.3708 42.4517 0.0000 0.0000 0.0000
# 2 69.3708 131.0785 51.9071 0.0000 0.0000 0.0000
# 3 42.4517 51.9071 51.0226 0.0000 0.0000 0.0000
# 4 0.0000 0.0000 0.0000 -37.6185 0.0000 0.0000
# 5 0.0000 0.0000 0.0000 0.0000 18.7475 0.0000
# 6 0.0000 0.0000 0.0000 0.0000 0.0000 29.0467
#
#
#
# Elastic Compliance Matrix: (Units=1/GPa)
#
#
# Indices 1 2 3 4 5 6 
#
# 1 0.023095 -0.007726 -0.011356 0.000000 0.000000 0.000000
# 2 -0.007726 0.015360 -0.009199 0.000000 0.000000 0.000000
# 3 -0.011356 -0.009199 0.038406 0.000000 0.000000 0.000000
# 4 0.000000 0.000000 0.000000 -0.026583 0.000000 0.000000
# 5 0.000000 0.000000 0.000000 0.000000 0.053341 0.000000
# 6 0.000000 0.000000 0.000000 0.000000 0.000000 0.034427
#
#
# Mechanical properties :
#
#
# Convention : Reuss Voigt Hill
#
# Bulk Modulus (GPa) = 49.25998 66.32651 57.79324
# Shear Modulus (GPa) = 24.82939 9.08512 16.95725
#
# Velocity S-wave (km/s) = 3.79032 2.29275 3.13235
# Velocity P-wave (km/s) = 6.90345 6.73692 6.82069
#
# Compressibility (1/GPa) = 0.02030045
#
# Stress axis : x y z
#
# Youngs Moduli (GPa) = 43.29897 65.10248 26.03780
#
# Poissons Ratio (x) = 0.50296 0.29569
# Poissons Ratio (y) = 0.33452 0.23951
# Poissons Ratio (z) = 0.49170 0.59886
#
# Static dielectric constant tensor:
#      x y z
#    x 3.141130 0.000000 0.000000 
#    y 0.000000 3.351440 0.000000 
#    z 0.000000 0.000000 3.067490 
# 
# 
# High freq. dielectric constant tensor:
#      x y z
#    x 1.665980 0.000000 0.000000 
#    y 0.000000 1.656020 0.000000 
#    z 0.000000 0.000000 1.642340 
# 
# From -- ./inp_files/24993.got.cif
#   From: 2010.03.12/outbox.cif.g09.slc.cpg/sg65_13_cif.got.tgz:24993.got - 2010.04.10 20:52:16.
