data_PCOD8267742
_publ_section_title
;
Structure prediction by ZEFSAII (Michael W. Deem and Ramdas Pophale) SiO2 
 PCOD8267742
Probable space group: C M M M
;
_chemical_formula_sum "Si O2"
_cell_formula_units_Z 104
_cell_length_a 17.544843
_cell_length_b 17.614178
_cell_length_c 21.732284
_cell_angle_alpha 90.000000
_cell_angle_beta 90.000000
_cell_angle_gamma 90.000000
_cell_volume 6716.101313
_symmetry_space_group_name_H-M "C M M M"
_symmetry_group_IT_number 65
_symmetry_cell_setting 'orthorhombic'
loop_
_space_group_symop_operation_xyz
x,y,z
-x,-y,z
x,-y,-z
-x,y,-z
-x,-y,-z
x,y,-z
-x,y,z
x,-y,z
1/2+x,1/2+y,z
1/2-x,1/2-y,z
1/2+x,1/2-y,-z
1/2-x,1/2+y,-z
1/2-x,1/2-y,-z
1/2+x,1/2+y,-z
1/2-x,1/2+y,z
1/2+x,1/2-y,z
loop_
_atom_site_type_symbol
_atom_site_label
_atom_site_fract_x
_atom_site_fract_y
_atom_site_fract_z
Si Si1 0.581950 0.588785 0.000000
Si Si2 0.687391 0.687960 0.228148
Si Si3 0.412619 0.206267 0.689753
Si Si4 0.585993 0.290347 0.568564
Si Si5 0.091262 0.088605 0.134246
Si Si6 0.790905 0.085595 0.431344
Si Si7 0.293048 0.086993 0.309624
O O1 0.622042 0.608914 0.064941
O O2 0.567049 0.500000 0.000000
O O3 0.500000 0.630294 0.000000
O O4 0.750000 0.750000 0.203801
O O5 0.625039 0.727928 0.270404
O O6 0.641632 0.645488 0.174629
O O7 0.727532 0.624228 0.268899
O O8 0.500000 0.199946 0.708830
O O9 0.400387 0.223728 0.617491
O O10 0.373969 0.125733 0.703858
O O11 0.603241 0.258217 0.500000
O O12 0.500000 0.320935 0.573435
O O13 0.638462 0.361307 0.584664
O O14 0.000000 0.103801 0.140938
O O15 0.107746 0.000000 0.150441
O O16 0.758431 0.102302 0.500000
O O17 0.724559 0.098909 0.381902
O O18 0.822028 0.000000 0.426505
O O19 0.299748 0.000000 0.290486
#
# Coordination Sequence:
#
# PCOD8267742 Si02
#       7
#     8  16  16  16  16  16  16
#     4   7  12  24  43  68  94 120 149 177 206 248
#     4  10  19  31  46  66  92 120 147 181 221 260
#     4  10  20  33  47  64  87 114 147 184 221 265
#     4   9  17  29  45  64  86 113 144 179 222 270
#     4   9  16  28  48  71  94 120 150 181 213 252
#     4   9  17  29  45  64  86 113 144 179 222 270
#     4  10  20  33  47  64  87 114 147 184 221 265
#
# _framework density 15.485175
#
# number of rings (size 3 to 8) (size 9 to 14) (size 15 to 20)
#    0.000    2.692    1.538    1.846    0.000    1.231 
#    0.000    3.462    0.000    0.000    0.000    4.308 
#    0.000    0.000    0.000    0.000    0.000   92.308 
#
# Total GULP energy -644301.871918 kJ/mol
# GULP energy per Si atom -12390.420614 kJ/mol
# Density = 1.544993 g / cm^3
# Si number density = 15.485175 Si / 1000 Ang^3
#
#
#
# Elastic Constant Matrix: (Units=GPa)
#
#
# Indices 1 2 3 4 5 6 
#
# 1 92.0242 57.0412 46.8468 0.0000 0.0000 0.0000
# 2 57.0412 96.0042 48.9436 0.0000 0.0000 0.0000
# 3 46.8468 48.9436 92.6712 0.0000 0.0000 0.0000
# 4 0.0000 0.0000 0.0000 20.1910 0.0000 0.0000
# 5 0.0000 0.0000 0.0000 0.0000 7.7286 0.0000
# 6 0.0000 0.0000 0.0000 0.0000 0.0000 22.6177
#
#
#
# Elastic Compliance Matrix: (Units=1/GPa)
#
#
# Indices 1 2 3 4 5 6 
#
# 1 0.018701 -0.008610 -0.004907 0.000000 0.000000 0.000000
# 2 -0.008610 0.018218 -0.005269 0.000000 0.000000 0.000000
# 3 -0.004907 -0.005269 0.016054 0.000000 0.000000 0.000000
# 4 0.000000 0.000000 0.000000 0.049527 0.000000 0.000000
# 5 0.000000 0.000000 0.000000 0.000000 0.129390 0.000000
# 6 0.000000 0.000000 0.000000 0.000000 0.000000 0.044213
#
#
# Mechanical properties :
#
#
# Convention : Reuss Voigt Hill
#
# Bulk Modulus (GPa) = 64.92682 65.15142 65.03912
# Shear Modulus (GPa) = 15.68333 18.63199 17.15766
#
# Velocity S-wave (km/s) = 3.18590 3.47250 3.33228
# Velocity P-wave (km/s) = 7.45337 7.63167 7.54305
#
# Compressibility (1/GPa) = 0.01540195
#
# Stress axis : x y z
#
# Youngs Moduli (GPa) = 53.47171 54.88998 62.28940
#
# Poissons Ratio (x) = 0.47261 0.30562
# Poissons Ratio (y) = 0.46040 0.32822
# Poissons Ratio (z) = 0.26236 0.28923
#
# Static dielectric constant tensor:
#      x y z
#    x 2.839930 0.000000 0.000000 
#    y 0.000000 2.847920 0.000000 
#    z 0.000000 0.000000 3.100370 
# 
# 
# High freq. dielectric constant tensor:
#      x y z
#    x 1.581470 0.000000 0.000000 
#    y 0.000000 1.583270 0.000000 
#    z 0.000000 0.000000 1.588250 
# 
# From -- ./inp_files/62869.got.cif
#   From: 2010.03.12/outbox.cif.g09.slc.cpg/sg65_32_cif.got.tgz:62869.got - 2010.04.10 20:52:16.
