data_PCOD8267914
_publ_section_title
;
Structure prediction by ZEFSAII (Michael W. Deem and Ramdas Pophale) SiO2 
 PCOD8267914
Probable space group: C M M M
;
_chemical_formula_sum "Si O2"
_cell_formula_units_Z 72
_cell_length_a 8.883980
_cell_length_b 27.141992
_cell_length_c 16.249891
_cell_angle_alpha 90.000000
_cell_angle_beta 90.000000
_cell_angle_gamma 90.000000
_cell_volume 3918.318571
_symmetry_space_group_name_H-M "C M M M"
_symmetry_group_IT_number 65
_symmetry_cell_setting 'orthorhombic'
loop_
_space_group_symop_operation_xyz
x,y,z
-x,-y,z
x,-y,-z
-x,y,-z
-x,-y,-z
x,y,-z
-x,y,z
x,-y,z
1/2+x,1/2+y,z
1/2-x,1/2-y,z
1/2+x,1/2-y,-z
1/2-x,1/2+y,-z
1/2-x,1/2-y,-z
1/2+x,1/2+y,-z
1/2-x,1/2+y,z
1/2+x,1/2-y,z
loop_
_atom_site_type_symbol
_atom_site_label
_atom_site_fract_x
_atom_site_fract_y
_atom_site_fract_z
Si Si1 0.823775 0.196841 0.000000
Si Si2 0.322122 0.646922 0.168704
Si Si3 0.175975 0.699912 0.681014
Si Si4 0.677765 0.944034 0.245025
Si Si5 0.175878 0.397659 0.410444
O O1 0.750000 0.250000 0.000000
O O2 0.773430 0.165300 0.078891
O O3 0.000000 0.205996 0.000000
O O4 0.500000 0.646465 0.181015
O O5 0.249384 0.684426 0.232992
O O6 0.259439 0.591532 0.180297
O O7 0.250000 0.750000 0.648665
O O8 0.208792 0.659040 0.611950
O O9 0.000000 0.707519 0.696092
O O10 0.500000 0.933374 0.241143
O O11 0.738780 0.932703 0.337709
O O12 0.717033 0.000000 0.221753
O O13 0.250599 0.409311 0.500000
O O14 0.000000 0.407206 0.417853
#
# Coordination Sequence:
#
# PCOD8267914 Si02
#       5
#     8  16  16  16  16
#     4  10  22  36  53  78 103 129 162 199 241 290
#     4  10  20  35  53  74 100 129 164 204 246 293
#     4  10  19  31  48  71  99 132 168 203 243 294
#     4   9  18  33  53  76 101 130 165 204 247 294
#     4   8  15  28  46  70  99 129 163 204 246 289
#
# _framework density 18.375229000000001
#
# number of rings (size 3 to 8) (size 9 to 14) (size 15 to 20)
#    0.000    2.667    0.000    3.333    0.000    4.889 
#    0.000    2.778    0.000   19.333    0.000    6.222 
#    0.000    0.000    0.000    0.000    0.000    0.000 
#
# Total GULP energy -446298.685641 kJ/mol
# GULP energy per Si atom -12397.185712 kJ/mol
# Density = 1.833341 g / cm^3
# Si number density = 18.375229 Si / 1000 Ang^3
#
#
#
# Elastic Constant Matrix: (Units=GPa)
#
#
# Indices 1 2 3 4 5 6 
#
# 1 55.7930 38.1437 30.8472 0.0000 0.0000 0.0000
# 2 38.1437 117.4050 44.5372 0.0000 0.0000 0.0000
# 3 30.8472 44.5372 122.7682 0.0000 0.0000 0.0000
# 4 0.0000 0.0000 0.0000 16.1657 0.0000 0.0000
# 5 0.0000 0.0000 0.0000 0.0000 19.6777 0.0000
# 6 0.0000 0.0000 0.0000 0.0000 0.0000 31.5976
#
#
#
# Elastic Compliance Matrix: (Units=1/GPa)
#
#
# Indices 1 2 3 4 5 6 
#
# 1 0.024470 -0.006514 -0.003785 0.000000 0.000000 0.000000
# 2 -0.006514 0.011611 -0.002575 0.000000 0.000000 0.000000
# 3 -0.003785 -0.002575 0.010031 0.000000 0.000000 0.000000
# 4 0.000000 0.000000 0.000000 0.061859 0.000000 0.000000
# 5 0.000000 0.000000 0.000000 0.000000 0.050819 0.000000
# 6 0.000000 0.000000 0.000000 0.000000 0.000000 0.031648
#
#
# Mechanical properties :
#
#
# Convention : Reuss Voigt Hill
#
# Bulk Modulus (GPa) = 49.11102 58.11360 53.61231
# Shear Modulus (GPa) = 22.42413 25.65074 24.03744
#
# Velocity S-wave (km/s) = 3.49713 3.74028 3.62075
# Velocity P-wave (km/s) = 6.56440 7.09561 6.83517
#
# Compressibility (1/GPa) = 0.02036203
#
# Stress axis : x y z
#
# Youngs Moduli (GPa) = 40.86704 86.12650 99.69299
#
# Poissons Ratio (x) = 0.56103 0.37736
# Poissons Ratio (y) = 0.26621 0.25675
# Poissons Ratio (z) = 0.15469 0.22181
#
# Static dielectric constant tensor:
#      x y z
#    x 3.207310 0.000000 0.000000 
#    y 0.000000 2.611600 0.000000 
#    z 0.000000 0.000000 3.763660 
# 
# 
# High freq. dielectric constant tensor:
#      x y z
#    x 1.692680 0.000000 0.000000 
#    y 0.000000 1.715300 0.000000 
#    z 0.000000 0.000000 1.708740 
# 
# From -- ./inp_files/36525.got.cif
#   From: 2010.03.12/outbox.cif.g09.slc.cpg/sg65_19_cif.got.tgz:36525.got - 2010.04.10 20:52:16.
