data_PCOD8267487
_publ_section_title
;
Structure prediction by ZEFSAII (Michael W. Deem and Ramdas Pophale) SiO2 
 PCOD8267487
Probable space group: C M M M
;
_chemical_formula_sum "Si O2"
_cell_formula_units_Z 96
_cell_length_a 18.962960
_cell_length_b 8.814507
_cell_length_c 30.841363
_cell_angle_alpha 90.000000
_cell_angle_beta 90.000000
_cell_angle_gamma 90.000000
_cell_volume 5155.107415
_symmetry_space_group_name_H-M "C M M M"
_symmetry_group_IT_number 65
_symmetry_cell_setting 'orthorhombic'
loop_
_space_group_symop_operation_xyz
x,y,z
-x,-y,z
x,-y,-z
-x,y,-z
-x,-y,-z
x,y,-z
-x,y,z
x,-y,z
1/2+x,1/2+y,z
1/2-x,1/2-y,z
1/2+x,1/2-y,-z
1/2-x,1/2+y,-z
1/2-x,1/2-y,-z
1/2+x,1/2+y,-z
1/2-x,1/2+y,z
1/2+x,1/2-y,z
loop_
_atom_site_type_symbol
_atom_site_label
_atom_site_fract_x
_atom_site_fract_y
_atom_site_fract_z
Si Si1 0.578866 0.819805 0.548072
Si Si2 0.577895 0.179682 0.296128
Si Si3 0.578890 0.680301 0.951817
Si Si4 0.826447 0.821112 0.874128
Si Si5 0.582314 0.175544 0.198597
Si Si6 0.826524 0.680751 0.373779
O O1 0.602994 0.765943 0.500000
O O2 0.500000 0.758936 0.557932
O O3 0.632589 0.756281 0.583913
O O4 0.577732 0.000000 0.550169
O O5 0.500000 0.246824 0.306046
O O6 0.601671 0.224732 0.247662
O O7 0.633222 0.242742 0.331129
O O8 0.573195 0.000000 0.299582
O O9 0.500000 0.741203 0.941502
O O10 0.577945 0.500000 0.949691
O O11 0.633561 0.745478 0.916566
O O12 0.602090 0.734296 0.000000
O O13 0.750000 0.750000 0.871161
O O14 0.871383 0.780757 0.831978
O O15 0.818351 0.000000 0.877063
O O16 0.500000 0.204551 0.189452
O O17 0.601357 0.000000 0.190494
O O18 0.821876 0.500000 0.373870
O O19 0.750000 0.750000 0.373944
#
# Coordination Sequence:
#
# PCOD8267487 Si02
#       6
#    16  16  16  16  16  16
#     4   8  14  26  46  70  91 115 155 202 237 269
#     4   8  15  30  52  73  91 119 161 201 235 276
#     4   8  15  30  52  75  97 124 161 203 244 287
#     4  11  22  34  50  74 104 136 168 201 241 289
#     4   9  18  34  55  76  98 125 160 204 250 294
#     4  10  19  30  46  69  97 126 155 190 234 283
#
# _framework density 18.622306999999999
#
# number of rings (size 3 to 8) (size 9 to 14) (size 15 to 20)
#    0.000    3.000    0.000    3.500    0.000    4.333 
#    0.000    2.500    0.000    4.500    0.000    7.000 
#    0.000    0.000    0.000    0.000    0.000    0.000 
#
# Total GULP energy -594985.660876 kJ/mol
# GULP energy per Si atom -12395.534602 kJ/mol
# Density = 1.857992 g / cm^3
# Si number density = 18.622307 Si / 1000 Ang^3
#
#
#
# Elastic Constant Matrix: (Units=GPa)
#
#
# Indices 1 2 3 4 5 6 
#
# 1 135.6822 25.5160 102.3631 0.0000 0.0000 0.0000
# 2 25.5160 25.0465 25.7256 0.0000 0.0000 0.0000
# 3 102.3631 25.7256 170.0987 0.0000 0.0000 0.0000
# 4 0.0000 0.0000 0.0000 15.9619 0.0000 0.0000
# 5 0.0000 0.0000 0.0000 0.0000 17.6557 0.0000
# 6 0.0000 0.0000 0.0000 0.0000 0.0000 18.5764
#
#
#
# Elastic Compliance Matrix: (Units=1/GPa)
#
#
# Indices 1 2 3 4 5 6 
#
# 1 0.014425 -0.006842 -0.007646 0.000000 0.000000 0.000000
# 2 -0.006842 0.050514 -0.003522 0.000000 0.000000 0.000000
# 3 -0.007646 -0.003522 0.011013 0.000000 0.000000 0.000000
# 4 0.000000 0.000000 0.000000 0.062649 0.000000 0.000000
# 5 0.000000 0.000000 0.000000 0.000000 0.056639 0.000000
# 6 0.000000 0.000000 0.000000 0.000000 0.000000 0.053832
#
#
# Mechanical properties :
#
#
# Convention : Reuss Voigt Hill
#
# Bulk Modulus (GPa) = 25.04312 70.89299 47.96805
# Shear Modulus (GPa) = 16.75582 22.25365 19.50473
#
# Velocity S-wave (km/s) = 3.00287 3.46063 3.23984
# Velocity P-wave (km/s) = 5.04976 7.35659 6.30950
#
# Compressibility (1/GPa) = 0.03993113
#
# Stress axis : x y z
#
# Youngs Moduli (GPa) = 69.32174 19.79653 90.80164
#
# Poissons Ratio (x) = 0.13545 0.69429
# Poissons Ratio (y) = 0.47432 0.31981
# Poissons Ratio (z) = 0.53005 0.06972
#
# Static dielectric constant tensor:
#      x y z
#    x 3.528580 0.000000 0.000000 
#    y 0.000000 2.871450 0.000000 
#    z 0.000000 0.000000 3.861900 
# 
# 
# High freq. dielectric constant tensor:
#      x y z
#    x 1.722640 0.000000 0.000000 
#    y 0.000000 1.667540 0.000000 
#    z 0.000000 0.000000 1.741040 
# 
# From -- ./inp_files/75362.got.cif
#   From: 2010.03.12/outbox.cif.g09.slc.cpg/sg65_38_cif.got.tgz:75362.got - 2010.04.10 20:52:16.
