data_PCOD8267418
_publ_section_title
;
Structure prediction by ZEFSAII (Michael W. Deem and Ramdas Pophale) SiO2 
 PCOD8267418
Probable space group: C M M M
;
_chemical_formula_sum "Si O2"
_cell_formula_units_Z 72
_cell_length_a 28.309587
_cell_length_b 8.055162
_cell_length_c 19.013321
_cell_angle_alpha 90.000000
_cell_angle_beta 90.000000
_cell_angle_gamma 90.000000
_cell_volume 4335.765578
_symmetry_space_group_name_H-M "C M M M"
_symmetry_group_IT_number 65
_symmetry_cell_setting 'orthorhombic'
loop_
_space_group_symop_operation_xyz
x,y,z
-x,-y,z
x,-y,-z
-x,y,-z
-x,-y,-z
x,y,-z
-x,y,z
x,-y,z
1/2+x,1/2+y,z
1/2-x,1/2-y,z
1/2+x,1/2-y,-z
1/2-x,1/2+y,-z
1/2-x,1/2-y,-z
1/2+x,1/2+y,-z
1/2-x,1/2+y,z
1/2+x,1/2-y,z
loop_
_atom_site_type_symbol
_atom_site_label
_atom_site_fract_x
_atom_site_fract_y
_atom_site_fract_z
Si Si1 0.948020 0.000000 0.917560
Si Si2 0.604053 0.190623 0.146732
Si Si3 0.445559 0.689543 0.277125
Si Si4 0.300166 0.806752 0.078226
Si Si5 0.444063 0.187508 0.424038
O O1 0.925322 0.825966 0.895603
O O2 0.000000 0.000000 0.883828
O O3 0.949595 0.000000 0.000000
O O4 0.589253 0.201843 0.228570
O O5 0.658715 0.241010 0.133440
O O6 0.594648 0.000000 0.120917
O O7 0.500000 0.752637 0.270931
O O8 0.441705 0.500000 0.252139
O O9 0.427004 0.703856 0.357619
O O10 0.250000 0.750000 0.110052
O O11 0.298703 0.000000 0.068042
O O12 0.308769 0.726382 0.000000
O O13 0.424760 0.254992 0.500000
O O14 0.500000 0.192473 0.427064
O O15 0.426230 0.000000 0.412663
#
# Coordination Sequence:
#
# PCOD8267418 Si02
#       5
#     8  16  16  16  16
#     4  11  24  38  52  72  97 131 173 209 247 295
#     4  11  22  36  53  73 100 131 166 209 253 301
#     4  10  19  30  45  67  96 131 170 205 242 289
#     4   9  19  34  53  76  96 120 156 201 260 316
#     4   8  14  25  41  62  89 123 163 203 242 285
#
# _framework density 16.606062999999999
#
# number of rings (size 3 to 8) (size 9 to 14) (size 15 to 20)
#    0.000    2.333    1.111    2.667    1.556    4.444 
#    0.000    3.333    0.000    0.000    0.000    0.000 
#    0.000    0.889    0.000    2.889    0.000    3.556 
#
# Total GULP energy -445997.205048 kJ/mol
# GULP energy per Si atom -12388.811251 kJ/mol
# Density = 1.656827 g / cm^3
# Si number density = 16.606063 Si / 1000 Ang^3
#
#
#
# Elastic Constant Matrix: (Units=GPa)
#
#
# Indices 1 2 3 4 5 6 
#
# 1 107.4123 39.8773 57.0027 0.0000 0.0000 0.0000
# 2 39.8773 73.9299 27.4899 0.0000 0.0000 0.0000
# 3 57.0027 27.4899 97.8716 0.0000 0.0000 0.0000
# 4 0.0000 0.0000 0.0000 24.1035 0.0000 0.0000
# 5 0.0000 0.0000 0.0000 0.0000 17.6810 0.0000
# 6 0.0000 0.0000 0.0000 0.0000 0.0000 21.6109
#
#
#
# Elastic Compliance Matrix: (Units=1/GPa)
#
#
# Indices 1 2 3 4 5 6 
#
# 1 0.015242 -0.005494 -0.007334 0.000000 0.000000 0.000000
# 2 -0.005494 0.017084 -0.001599 0.000000 0.000000 0.000000
# 3 -0.007334 -0.001599 0.014938 0.000000 0.000000 0.000000
# 4 0.000000 0.000000 0.000000 0.041488 0.000000 0.000000
# 5 0.000000 0.000000 0.000000 0.000000 0.056558 0.000000
# 6 0.000000 0.000000 0.000000 0.000000 0.000000 0.046273
#
#
# Mechanical properties :
#
#
# Convention : Reuss Voigt Hill
#
# Bulk Modulus (GPa) = 54.31717 58.66152 56.48934
# Shear Modulus (GPa) = 22.06796 23.00202 22.53499
#
# Velocity S-wave (km/s) = 3.64938 3.72581 3.68779
# Velocity P-wave (km/s) = 7.10897 7.34241 7.22663
#
# Compressibility (1/GPa) = 0.01841039
#
# Stress axis : x y z
#
# Youngs Moduli (GPa) = 65.60937 58.53312 66.94374
#
# Poissons Ratio (x) = 0.32160 0.49096
# Poissons Ratio (y) = 0.36048 0.10702
# Poissons Ratio (z) = 0.48117 0.09357
#
# Static dielectric constant tensor:
#      x y z
#    x 4.849640 0.000000 0.000000 
#    y 0.000000 3.145420 0.000000 
#    z 0.000000 0.000000 3.641800 
# 
# 
# High freq. dielectric constant tensor:
#      x y z
#    x 1.590920 0.000000 0.000000 
#    y 0.000000 1.645670 0.000000 
#    z 0.000000 0.000000 1.641550 
# 
# From -- ./inp_files/64998.got.cif
#   From: 2010.03.12/outbox.cif.g09.slc.cpg/sg65_33_cif.got.tgz:64998.got - 2010.04.10 20:52:16.
