data_PCOD8267981
_publ_section_title
;
Structure prediction by ZEFSAII (Michael W. Deem and Ramdas Pophale) SiO2 
 PCOD8267981
Probable space group: C M M M
;
_chemical_formula_sum "Si O2"
_cell_formula_units_Z 96
_cell_length_a 27.170590
_cell_length_b 8.998147
_cell_length_c 23.560307
_cell_angle_alpha 90.000000
_cell_angle_beta 90.000000
_cell_angle_gamma 90.000000
_cell_volume 5760.140783
_symmetry_space_group_name_H-M "C M M M"
_symmetry_group_IT_number 65
_symmetry_cell_setting 'orthorhombic'
loop_
_space_group_symop_operation_xyz
x,y,z
-x,-y,z
x,-y,-z
-x,y,-z
-x,-y,-z
x,y,-z
-x,y,z
x,-y,z
1/2+x,1/2+y,z
1/2-x,1/2-y,z
1/2+x,1/2-y,-z
1/2-x,1/2+y,-z
1/2-x,1/2-y,-z
1/2+x,1/2+y,-z
1/2-x,1/2+y,z
1/2+x,1/2-y,z
loop_
_atom_site_type_symbol
_atom_site_label
_atom_site_fract_x
_atom_site_fract_y
_atom_site_fract_z
Si Si1 0.103109 0.672668 0.833703
Si Si2 0.299694 0.825038 0.767366
Si Si3 0.554973 0.329430 0.732306
Si Si4 0.444138 0.325563 0.935637
Si Si5 0.649091 0.325117 0.663990
Si Si6 0.301435 0.173158 0.565258
O O1 0.093614 0.500000 0.839317
O O2 0.158510 0.708886 0.813901
O O3 0.064324 0.733759 0.788229
O O4 0.094434 0.745190 0.894783
O O5 0.250000 0.750000 0.790678
O O6 0.313093 0.749045 0.707788
O O7 0.292615 0.000000 0.757613
O O8 0.500000 0.297015 0.709574
O O9 0.561558 0.500000 0.750628
O O10 0.593093 0.289142 0.682374
O O11 0.500000 0.275945 0.921544
O O12 0.438795 0.500000 0.926893
O O13 0.430871 0.280830 0.000000
O O14 0.659606 0.500000 0.660930
O O15 0.656334 0.250430 0.602682
O O16 0.316007 0.199151 0.500000
O O17 0.250000 0.250000 0.580110
O O18 0.297227 0.000000 0.580012
#
# Coordination Sequence:
#
# PCOD8267981 Si02
#       6
#    16  16  16  16  16  16
#     4  10  20  31  46  71  98 122 151 191 235 274
#     4  10  20  33  48  68  95 124 155 190 229 275
#     4   9  18  32  49  69  94 125 158 189 224 271
#     4   9  18  32  49  69  94 125 158 189 224 271
#     4  10  19  31  49  71  95 123 154 190 231 272
#     4  10  20  33  49  69  94 123 154 189 230 276
#
# _framework density 16.666259
#
# number of rings (size 3 to 8) (size 9 to 14) (size 15 to 20)
#    0.000    2.333    0.000    3.500    0.000    6.667 
#    0.000    0.833    0.000    1.000    0.000    3.500 
#    0.000    0.000    0.000    0.000    0.000    0.000 
#
# Total GULP energy -595306.282342 kJ/mol
# GULP energy per Si atom -12402.214215 kJ/mol
# Density = 1.662833 g / cm^3
# Si number density = 16.666259 Si / 1000 Ang^3
#
#
#
# Elastic Constant Matrix: (Units=GPa)
#
#
# Indices 1 2 3 4 5 6 
#
# 1 106.7759 53.1966 61.5898 0.0000 0.0000 0.0000
# 2 53.1966 93.9669 61.8686 0.0000 0.0000 0.0000
# 3 61.5898 61.8686 115.6844 0.0000 0.0000 0.0000
# 4 0.0000 0.0000 0.0000 32.7339 0.0000 0.0000
# 5 0.0000 0.0000 0.0000 0.0000 24.5673 0.0000
# 6 0.0000 0.0000 0.0000 0.0000 0.0000 25.9925
#
#
#
# Elastic Compliance Matrix: (Units=1/GPa)
#
#
# Indices 1 2 3 4 5 6 
#
# 1 0.014871 -0.004948 -0.005271 0.000000 0.000000 0.000000
# 2 -0.004948 0.018073 -0.007031 0.000000 0.000000 0.000000
# 3 -0.005271 -0.007031 0.015210 0.000000 0.000000 0.000000
# 4 0.000000 0.000000 0.000000 0.030549 0.000000 0.000000
# 5 0.000000 0.000000 0.000000 0.000000 0.040705 0.000000
# 6 0.000000 0.000000 0.000000 0.000000 0.000000 0.038473
#
#
# Mechanical properties :
#
#
# Convention : Reuss Voigt Hill
#
# Bulk Modulus (GPa) = 73.23863 74.41526 73.82694
# Shear Modulus (GPa) = 25.38947 25.97689 25.68318
#
# Velocity S-wave (km/s) = 3.90732 3.95226 3.92985
# Velocity P-wave (km/s) = 8.02470 8.09780 8.06133
#
# Compressibility (1/GPa) = 0.01365400
#
# Stress axis : x y z
#
# Youngs Moduli (GPa) = 67.24481 55.33231 65.74424
#
# Poissons Ratio (x) = 0.27381 0.34652
# Poissons Ratio (y) = 0.33276 0.46223
# Poissons Ratio (z) = 0.35443 0.38903
#
# Static dielectric constant tensor:
#      x y z
#    x 3.118310 0.000000 0.000000 
#    y 0.000000 3.214180 0.000000 
#    z 0.000000 0.000000 3.057430 
# 
# 
# High freq. dielectric constant tensor:
#      x y z
#    x 1.631600 0.000000 0.000000 
#    y 0.000000 1.655160 0.000000 
#    z 0.000000 0.000000 1.630700 
# 
# From -- ./inp_files/60203.got.cif
#   From: 2010.03.12/outbox.cif.g09.slc.cpg/sg65_31_cif.got.tgz:60203.got - 2010.04.10 20:52:16.
