data_PCOD8267257
_publ_section_title
;
Structure prediction by ZEFSAII (Michael W. Deem and Ramdas Pophale) SiO2 
 PCOD8267257
Probable space group: C M M M
;
_chemical_formula_sum "Si O2"
_cell_formula_units_Z 80
_cell_length_a 15.787224
_cell_length_b 23.049215
_cell_length_c 12.538633
_cell_angle_alpha 90.000000
_cell_angle_beta 90.000000
_cell_angle_gamma 90.000000
_cell_volume 4562.596899
_symmetry_space_group_name_H-M "C M M M"
_symmetry_group_IT_number 65
_symmetry_cell_setting 'orthorhombic'
loop_
_space_group_symop_operation_xyz
x,y,z
-x,-y,z
x,-y,-z
-x,y,-z
-x,-y,-z
x,y,-z
-x,y,z
x,-y,z
1/2+x,1/2+y,z
1/2-x,1/2-y,z
1/2+x,1/2-y,-z
1/2-x,1/2+y,-z
1/2-x,1/2-y,-z
1/2+x,1/2+y,-z
1/2-x,1/2+y,z
1/2+x,1/2-y,z
loop_
_atom_site_type_symbol
_atom_site_label
_atom_site_fract_x
_atom_site_fract_y
_atom_site_fract_z
Si Si1 0.341604 0.561786 0.878097
Si Si2 0.665736 0.223191 0.266732
Si Si3 0.500000 0.933231 0.227995
Si Si4 0.000000 0.677171 0.625053
Si Si5 0.336391 0.112769 0.121218
Si Si6 0.096635 0.180104 0.879304
O O1 0.365541 0.500000 0.822219
O O2 0.240777 0.568422 0.870702
O O3 0.389454 0.616650 0.824765
O O4 0.371580 0.558277 0.000000
O O5 0.750000 0.250000 0.326931
O O6 0.584831 0.213318 0.343682
O O7 0.684220 0.164736 0.202232
O O8 0.648397 0.271801 0.180123
O O9 0.500000 0.887282 0.325178
O O10 0.580853 0.922506 0.154336
O O11 0.500000 0.000000 0.270341
O O12 0.000000 0.668453 0.500000
O O13 0.347895 0.136207 0.000000
O O14 0.000000 0.198704 0.875891
O O15 0.131944 0.177331 0.000000
#
# Coordination Sequence:
#
# PCOD8267257 Si02
#       6
#    16  16   8   8  16  16
#     4   9  17  28  42  64  99 141 177 205 234 275
#     4  11  20  34  56  78 103 137 173 213 263 321
#     4  10  21  35  52  75 103 141 181 211 249 308
#     4  10  24  42  57  80 103 122 168 234 287 332
#     4  10  19  29  46  75 111 146 173 202 238 289
#     4  10  19  30  47  73 106 140 172 205 244 298
#
# _framework density 17.533874000000001
#
# number of rings (size 3 to 8) (size 9 to 14) (size 15 to 20)
#    0.000    2.000    3.000    1.500    0.000    3.400 
#    0.000    2.000    0.000    0.000    0.000    0.000 
#    0.000    1.600    0.000    0.000    0.000    0.000 
#
# Total GULP energy -495598.538495 kJ/mol
# GULP energy per Si atom -12389.963462 kJ/mol
# Density = 1.749397 g / cm^3
# Si number density = 17.533874 Si / 1000 Ang^3
#
#
#
# Elastic Constant Matrix: (Units=GPa)
#
#
# Indices 1 2 3 4 5 6 
#
# 1 78.5655 16.3307 18.6859 0.0000 0.0000 0.0000
# 2 16.3307 96.7947 4.5994 0.0000 0.0000 0.0000
# 3 18.6859 4.5994 50.2377 0.0000 0.0000 0.0000
# 4 0.0000 0.0000 0.0000 7.9032 0.0000 0.0000
# 5 0.0000 0.0000 0.0000 0.0000 10.8368 0.0000
# 6 0.0000 0.0000 0.0000 0.0000 0.0000 13.3565
#
#
#
# Elastic Compliance Matrix: (Units=1/GPa)
#
#
# Indices 1 2 3 4 5 6 
#
# 1 0.014410 -0.002186 -0.005160 0.000000 0.000000 0.000000
# 2 -0.002186 0.010708 -0.000167 0.000000 0.000000 0.000000
# 3 -0.005160 -0.000167 0.021840 0.000000 0.000000 0.000000
# 4 0.000000 0.000000 0.000000 0.126531 0.000000 0.000000
# 5 0.000000 0.000000 0.000000 0.000000 0.092278 0.000000
# 6 0.000000 0.000000 0.000000 0.000000 0.000000 0.074870
#
#
# Mechanical properties :
#
#
# Convention : Reuss Voigt Hill
#
# Bulk Modulus (GPa) = 31.31674 33.87000 32.59337
# Shear Modulus (GPa) = 13.64979 18.81809 16.23394
#
# Velocity S-wave (km/s) = 2.79315 3.27959 3.04610
# Velocity P-wave (km/s) = 5.31994 5.80515 5.56783
#
# Compressibility (1/GPa) = 0.03193180
#
# Stress axis : x y z
#
# Youngs Moduli (GPa) = 69.39740 93.38897 45.78802
#
# Poissons Ratio (x) = 0.20415 0.23625
# Poissons Ratio (y) = 0.15170 0.00766
# Poissons Ratio (z) = 0.35806 0.01562
#
# Static dielectric constant tensor:
#      x y z
#    x 3.527870 0.000000 0.000000 
#    y 0.000000 3.578360 0.000000 
#    z 0.000000 0.000000 2.729780 
# 
# 
# High freq. dielectric constant tensor:
#      x y z
#    x 1.696500 0.000000 0.000000 
#    y 0.000000 1.695810 0.000000 
#    z 0.000000 0.000000 1.604900 
# 
# From -- ./inp_files/26666.got.cif
#   From: 2010.03.12/outbox.cif.g09.slc.cpg/sg65_14_cif.got.tgz:26666.got - 2010.04.10 20:52:16.
