data_PCOD8267797
_publ_section_title
;
Structure prediction by ZEFSAII (Michael W. Deem and Ramdas Pophale) SiO2 
 PCOD8267797
Probable space group: C M M M
;
_chemical_formula_sum "Si O2"
_cell_formula_units_Z 88
_cell_length_a 20.489673
_cell_length_b 13.599243
_cell_length_c 17.807187
_cell_angle_alpha 90.000000
_cell_angle_beta 90.000000
_cell_angle_gamma 90.000000
_cell_volume 4961.866564
_symmetry_space_group_name_H-M "C M M M"
_symmetry_group_IT_number 65
_symmetry_cell_setting 'orthorhombic'
loop_
_space_group_symop_operation_xyz
x,y,z
-x,-y,z
x,-y,-z
-x,y,-z
-x,-y,-z
x,y,-z
-x,y,z
x,-y,z
1/2+x,1/2+y,z
1/2-x,1/2-y,z
1/2+x,1/2-y,-z
1/2-x,1/2+y,-z
1/2-x,1/2-y,-z
1/2+x,1/2+y,-z
1/2-x,1/2+y,z
1/2+x,1/2-y,z
loop_
_atom_site_type_symbol
_atom_site_label
_atom_site_fract_x
_atom_site_fract_y
_atom_site_fract_z
Si Si1 0.676371 0.271944 0.185286
Si Si2 0.500000 0.392359 0.588686
Si Si3 0.853370 0.390519 0.296014
Si Si4 0.574151 0.387478 0.911391
Si Si5 0.795674 0.109062 0.669892
Si Si6 0.383346 0.256913 0.587058
O O1 0.750000 0.250000 0.153923
O O2 0.645585 0.171261 0.218707
O O3 0.627725 0.312823 0.122201
O O4 0.678720 0.353287 0.250179
O O5 0.500000 0.500000 0.626741
O O6 0.500000 0.402880 0.500000
O O7 0.437024 0.333845 0.615201
O O8 0.880402 0.500000 0.279510
O O9 0.781543 0.394343 0.330216
O O10 0.895077 0.339962 0.362472
O O11 0.500000 0.361352 0.884795
O O12 0.590505 0.500000 0.888453
O O13 0.578771 0.375350 0.000000
O O14 0.815881 0.186187 0.604976
O O15 0.824064 0.000000 0.654233
O O16 0.388398 0.227571 0.500000
#
# Coordination Sequence:
#
# PCOD8267797 Si02
#       6
#    16   8  16  16  16  16
#     4   9  17  31  52  74 102 138 175 211 245 293
#     4   9  18  32  47  63  87 117 147 190 250 305
#     4   9  19  34  49  67  95 130 166 206 249 287
#     4   9  18  33  54  82 114 139 159 197 257 314
#     4   9  17  30  48  71  98 126 158 203 255 300
#     4  10  19  31  47  67  93 125 162 205 253 303
#
# _framework density 17.735261999999999
#
# number of rings (size 3 to 8) (size 9 to 14) (size 15 to 20)
#    0.000    2.818    0.000    3.273    0.000    4.000 
#    6.545    2.273    0.000    2.182    0.000    1.273 
#    0.000    0.000    0.000    0.000    0.000    0.000 
#
# Total GULP energy -545304.211529 kJ/mol
# GULP energy per Si atom -12393.277535 kJ/mol
# Density = 1.769490 g / cm^3
# Si number density = 17.735262 Si / 1000 Ang^3
#
#
#
# Elastic Constant Matrix: (Units=GPa)
#
#
# Indices 1 2 3 4 5 6 
#
# 1 72.2091 43.6108 39.1202 0.0000 0.0000 0.0000
# 2 43.6108 144.8745 43.2960 0.0000 0.0000 0.0000
# 3 39.1202 43.2960 58.3206 0.0000 0.0000 0.0000
# 4 0.0000 0.0000 0.0000 25.7110 0.0000 0.0000
# 5 0.0000 0.0000 0.0000 0.0000 20.3893 0.0000
# 6 0.0000 0.0000 0.0000 0.0000 0.0000 38.1157
#
#
#
# Elastic Compliance Matrix: (Units=1/GPa)
#
#
# Indices 1 2 3 4 5 6 
#
# 1 0.022683 -0.002931 -0.013039 0.000000 0.000000 0.000000
# 2 -0.002931 0.009249 -0.004900 0.000000 0.000000 0.000000
# 3 -0.013039 -0.004900 0.029531 0.000000 0.000000 0.000000
# 4 0.000000 0.000000 0.000000 0.038894 0.000000 0.000000
# 5 0.000000 0.000000 0.000000 0.000000 0.049045 0.000000
# 6 0.000000 0.000000 0.000000 0.000000 0.000000 0.026236
#
#
# Mechanical properties :
#
#
# Convention : Reuss Voigt Hill
#
# Bulk Modulus (GPa) = 50.70536 58.60648 54.65592
# Shear Modulus (GPa) = 22.32597 26.80168 24.56383
#
# Velocity S-wave (km/s) = 3.55187 3.89164 3.72563
# Velocity P-wave (km/s) = 6.74339 7.30138 7.02792
#
# Compressibility (1/GPa) = 0.01972178
#
# Stress axis : x y z
#
# Youngs Moduli (GPa) = 44.08532 108.11506 33.86283
#
# Poissons Ratio (x) = 0.31693 0.44155
# Poissons Ratio (y) = 0.12923 0.16594
# Poissons Ratio (z) = 0.57484 0.52979
#
# Static dielectric constant tensor:
#      x y z
#    x 3.272710 0.000000 0.000000 
#    y 0.000000 3.673490 0.000000 
#    z 0.000000 0.000000 2.937290 
# 
# 
# High freq. dielectric constant tensor:
#      x y z
#    x 1.676690 0.000000 0.000000 
#    y 0.000000 1.692360 0.000000 
#    z 0.000000 0.000000 1.655830 
# 
# From -- ./inp_files/54298.got.cif
#   From: 2010.03.12/outbox.cif.g09.slc.cpg/sg65_28_cif.got.tgz:54298.got - 2010.04.10 20:52:16.
