data_PCOD8267875
_publ_section_title
;
Structure prediction by ZEFSAII (Michael W. Deem and Ramdas Pophale) SiO2 
 PCOD8267875
Probable space group: C M M M
;
_chemical_formula_sum "Si O2"
_cell_formula_units_Z 72
_cell_length_a 14.450194
_cell_length_b 33.094637
_cell_length_c 8.945071
_cell_angle_alpha 90.000000
_cell_angle_beta 90.000000
_cell_angle_gamma 90.000000
_cell_volume 4277.746963
_symmetry_space_group_name_H-M "C M M M"
_symmetry_group_IT_number 65
_symmetry_cell_setting 'orthorhombic'
loop_
_space_group_symop_operation_xyz
x,y,z
-x,-y,z
x,-y,-z
-x,y,-z
-x,-y,-z
x,y,-z
-x,y,z
x,-y,z
1/2+x,1/2+y,z
1/2-x,1/2-y,z
1/2+x,1/2-y,-z
1/2-x,1/2+y,-z
1/2-x,1/2-y,-z
1/2+x,1/2+y,-z
1/2-x,1/2+y,z
1/2+x,1/2-y,z
loop_
_atom_site_type_symbol
_atom_site_label
_atom_site_fract_x
_atom_site_fract_y
_atom_site_fract_z
Si Si1 0.106943 0.581510 0.323601
Si Si2 0.706524 0.844291 0.176478
Si Si3 0.352096 0.233211 0.665936
Si Si4 0.100073 0.190038 0.829479
Si Si5 0.390342 0.000000 0.167913
O O1 0.119176 0.579571 0.500000
O O2 0.171824 0.615918 0.257545
O O3 0.144023 0.539599 0.255129
O O4 0.000000 0.589577 0.279393
O O5 0.644415 0.806821 0.232526
O O6 0.814550 0.837918 0.224534
O O7 0.694157 0.849201 0.000000
O O8 0.389945 0.222766 0.500000
O O9 0.250000 0.250000 0.655844
O O10 0.412405 0.268493 0.738530
O O11 0.000000 0.167334 0.814082
O O12 0.120728 0.202307 0.000000
O O13 0.500000 0.000000 0.163661
O O14 0.349381 0.000000 0.000000
#
# Coordination Sequence:
#
# PCOD8267875 Si02
#       5
#    16  16  16  16   8
#     4  10  20  33  49  70  97 126 153 184 225 272
#     4  10  19  31  48  69  93 122 157 195 232 273
#     4   9  17  29  44  62  86 116 151 192 234 273
#     4   9  18  32  48  66  90 122 159 197 236 276
#     4   9  17  31  51  73  96 121 150 183 221 272
#
# _framework density 16.831289000000002
#
# number of rings (size 3 to 8) (size 9 to 14) (size 15 to 20)
#    0.000    2.556    0.000    2.333    0.000    7.556 
#    0.000    0.000    0.000    0.000    0.000    0.778 
#    0.000    6.222    0.000    0.000    0.000    0.000 
#
# Total GULP energy -446226.069419 kJ/mol
# GULP energy per Si atom -12395.168595 kJ/mol
# Density = 1.679298 g / cm^3
# Si number density = 16.831289 Si / 1000 Ang^3
#
#
#
# Elastic Constant Matrix: (Units=GPa)
#
#
# Indices 1 2 3 4 5 6 
#
# 1 78.5040 49.9822 34.2354 0.0000 0.0000 0.0000
# 2 49.9822 129.5630 53.4870 0.0000 0.0000 0.0000
# 3 34.2354 53.4870 93.3274 0.0000 0.0000 0.0000
# 4 0.0000 0.0000 0.0000 34.3660 0.0000 0.0000
# 5 0.0000 0.0000 0.0000 0.0000 15.1545 0.0000
# 6 0.0000 0.0000 0.0000 0.0000 0.0000 20.3670
#
#
#
# Elastic Compliance Matrix: (Units=1/GPa)
#
#
# Indices 1 2 3 4 5 6 
#
# 1 0.017660 -0.005421 -0.003371 0.000000 0.000000 0.000000
# 2 -0.005421 0.011774 -0.004759 0.000000 0.000000 0.000000
# 3 -0.003371 -0.004759 0.014679 0.000000 0.000000 0.000000
# 4 0.000000 0.000000 0.000000 0.029098 0.000000 0.000000
# 5 0.000000 0.000000 0.000000 0.000000 0.065987 0.000000
# 6 0.000000 0.000000 0.000000 0.000000 0.000000 0.049099
#
#
# Mechanical properties :
#
#
# Convention : Reuss Voigt Hill
#
# Bulk Modulus (GPa) = 58.78873 64.08929 61.43901
# Shear Modulus (GPa) = 22.61708 24.89015 23.75361
#
# Velocity S-wave (km/s) = 3.66970 3.84969 3.76077
# Velocity P-wave (km/s) = 7.27734 7.61054 7.44580
#
# Compressibility (1/GPa) = 0.01701006
#
# Stress axis : x y z
#
# Youngs Moduli (GPa) = 56.62541 84.93040 68.12273
#
# Poissons Ratio (x) = 0.46040 0.22967
# Poissons Ratio (y) = 0.30696 0.32423
# Poissons Ratio (z) = 0.19091 0.40422
#
# Static dielectric constant tensor:
#      x y z
#    x 3.059910 0.000000 0.000000 
#    y 0.000000 3.103910 0.000000 
#    z 0.000000 0.000000 3.415940 
# 
# 
# High freq. dielectric constant tensor:
#      x y z
#    x 1.628420 0.000000 0.000000 
#    y 0.000000 1.627970 0.000000 
#    z 0.000000 0.000000 1.665160 
# 
# From -- ./inp_files/7636.got.cif
#   From: 2010.03.12/outbox.cif.g09.slc.cpg/sg65_4_cif.got.tgz:7636.got - 2010.04.10 20:52:16.
