data_PCOD8267937
_publ_section_title
;
Structure prediction by ZEFSAII (Michael W. Deem and Ramdas Pophale) SiO2 
 PCOD8267937
Probable space group: C M M M
;
_chemical_formula_sum "Si O2"
_cell_formula_units_Z 88
_cell_length_a 28.098607
_cell_length_b 17.153284
_cell_length_c 9.220815
_cell_angle_alpha 90.000000
_cell_angle_beta 90.000000
_cell_angle_gamma 90.000000
_cell_volume 4444.279634
_symmetry_space_group_name_H-M "C M M M"
_symmetry_group_IT_number 65
_symmetry_cell_setting 'orthorhombic'
loop_
_space_group_symop_operation_xyz
x,y,z
-x,-y,z
x,-y,-z
-x,y,-z
-x,-y,-z
x,y,-z
-x,y,z
x,-y,z
1/2+x,1/2+y,z
1/2-x,1/2-y,z
1/2+x,1/2-y,-z
1/2-x,1/2+y,-z
1/2-x,1/2-y,-z
1/2+x,1/2+y,-z
1/2-x,1/2+y,z
1/2+x,1/2-y,z
loop_
_atom_site_type_symbol
_atom_site_label
_atom_site_fract_x
_atom_site_fract_y
_atom_site_fract_z
Si Si1 0.146108 0.321737 0.668256
Si Si2 0.000000 0.906529 0.338707
Si Si3 0.261564 0.159374 0.837003
Si Si4 0.947058 0.411766 0.671883
Si Si5 0.669872 0.642248 0.332471
Si Si6 0.586041 0.588155 0.158318
O O1 0.154286 0.344240 0.500000
O O2 0.187585 0.360351 0.765108
O O3 0.094955 0.353553 0.725949
O O4 0.149835 0.229303 0.689568
O O5 0.954423 0.871223 0.255660
O O6 0.000000 0.870917 0.500000
O O7 0.000000 0.000000 0.347650
O O8 0.250000 0.250000 0.844453
O O9 0.221468 0.123627 0.733165
O O10 0.260257 0.123996 0.000000
O O11 0.947908 0.410119 0.500000
O O12 0.936083 0.500000 0.725560
O O13 0.000000 0.386014 0.728790
O O14 0.671059 0.618683 0.500000
O O15 0.635095 0.586744 0.244408
O O16 0.569896 0.500000 0.132841
O O17 0.590765 0.629389 0.000000
#
# Coordination Sequence:
#
# PCOD8267937 Si02
#       6
#    16   8  16  16  16  16
#     4   9  17  30  49  75 101 127 164 209 251 294
#     4   9  17  31  51  71  91 121 162 201 238 285
#     4   9  17  30  49  70  94 130 169 205 249 303
#     4   8  14  27  49  75 102 132 164 198 241 295
#     4  10  19  31  48  73 101 130 164 209 257 299
#     4  10  20  34  51  70  96 131 168 205 247 296
#
# _framework density 19.800735
#
# number of rings (size 3 to 8) (size 9 to 14) (size 15 to 20)
#    0.000    2.818    0.000    2.455    0.000    5.091 
#    1.636    0.909    0.000    4.364    0.000    1.273 
#    0.000    0.000    0.000    0.000    0.000    0.000 
#
# Total GULP energy -545266.290254 kJ/mol
# GULP energy per Si atom -12392.415688 kJ/mol
# Density = 1.975567 g / cm^3
# Si number density = 19.800735 Si / 1000 Ang^3
#
#
#
# Elastic Constant Matrix: (Units=GPa)
#
#
# Indices 1 2 3 4 5 6 
#
# 1 172.7371 22.7551 71.8799 0.0000 0.0000 0.0000
# 2 22.7551 21.1366 10.8155 0.0000 0.0000 0.0000
# 3 71.8799 10.8155 149.7518 0.0000 0.0000 0.0000
# 4 0.0000 0.0000 0.0000 12.6617 0.0000 0.0000
# 5 0.0000 0.0000 0.0000 0.0000 20.6146 0.0000
# 6 0.0000 0.0000 0.0000 0.0000 0.0000 28.6637
#
#
#
# Elastic Compliance Matrix: (Units=1/GPa)
#
#
# Indices 1 2 3 4 5 6 
#
# 1 0.008125 -0.007010 -0.003394 0.000000 0.000000 0.000000
# 2 -0.007010 0.055176 -0.000620 0.000000 0.000000 0.000000
# 3 -0.003394 -0.000620 0.008351 0.000000 0.000000 0.000000
# 4 0.000000 0.000000 0.000000 0.078978 0.000000 0.000000
# 5 0.000000 0.000000 0.000000 0.000000 0.048509 0.000000
# 6 0.000000 0.000000 0.000000 0.000000 0.000000 0.034887
#
#
# Mechanical properties :
#
#
# Convention : Reuss Voigt Hill
#
# Bulk Modulus (GPa) = 20.15967 61.61406 40.88687
# Shear Modulus (GPa) = 18.34127 28.26636 23.30381
#
# Velocity S-wave (km/s) = 3.04681 3.78238 3.43434
# Velocity P-wave (km/s) = 4.75192 7.08942 6.03492
#
# Compressibility (1/GPa) = 0.04960398
#
# Stress axis : x y z
#
# Youngs Moduli (GPa) = 123.08030 18.12390 119.74100
#
# Poissons Ratio (x) = 0.12706 0.40634
# Poissons Ratio (y) = 0.86285 0.07423
# Poissons Ratio (z) = 0.41768 0.01124
#
# Static dielectric constant tensor:
#      x y z
#    x 3.886670 0.000000 0.000000 
#    y 0.000000 3.171530 0.000000 
#    z 0.000000 0.000000 3.692500 
# 
# 
# High freq. dielectric constant tensor:
#      x y z
#    x 1.786580 0.000000 0.000000 
#    y 0.000000 1.718860 0.000000 
#    z 0.000000 0.000000 1.763890 
# 
# From -- ./inp_files/11781.got.cif
#   From: 2010.03.12/outbox.cif.g09.slc.cpg/sg65_6_cif.got.tgz:11781.got - 2010.04.10 20:52:16.
