data_PCOD8267056
_publ_section_title
;
Structure prediction by ZEFSAII (Michael W. Deem and Ramdas Pophale) SiO2 
 PCOD8267056
Probable space group: C M M M
;
_chemical_formula_sum "Si O2"
_cell_formula_units_Z 104
_cell_length_a 26.764861
_cell_length_b 8.929970
_cell_length_c 26.465743
_cell_angle_alpha 90.000000
_cell_angle_beta 90.000000
_cell_angle_gamma 90.000000
_cell_volume 6325.561508
_symmetry_space_group_name_H-M "C M M M"
_symmetry_group_IT_number 65
_symmetry_cell_setting 'orthorhombic'
loop_
_space_group_symop_operation_xyz
x,y,z
-x,-y,z
x,-y,-z
-x,y,-z
-x,-y,-z
x,y,-z
-x,y,z
x,-y,z
1/2+x,1/2+y,z
1/2-x,1/2-y,z
1/2+x,1/2-y,-z
1/2-x,1/2+y,-z
1/2-x,1/2-y,-z
1/2+x,1/2+y,-z
1/2-x,1/2+y,z
1/2+x,1/2-y,z
loop_
_atom_site_type_symbol
_atom_site_label
_atom_site_fract_x
_atom_site_fract_y
_atom_site_fract_z
Si Si1 0.944239 0.828777 0.843426
Si Si2 0.299527 0.825305 0.806824
Si Si3 0.399990 0.827896 0.750132
Si Si4 0.304577 0.821653 0.000000
Si Si5 0.557085 0.675916 0.654661
Si Si6 0.440693 0.831136 0.555145
Si Si7 0.653000 0.676039 0.901822
O O1 0.936526 0.728681 0.794069
O O2 0.904695 0.790065 0.887342
O O3 0.000000 0.800075 0.864800
O O4 0.937032 0.000000 0.826049
O O5 0.250000 0.750000 0.783476
O O6 0.342795 0.801400 0.765909
O O7 0.311134 0.736411 0.858108
O O8 0.291786 0.000000 0.819228
O O9 0.408565 0.741056 0.698460
O O10 0.412352 0.000000 0.740815
O O11 0.250000 0.750000 0.000000
O O12 0.335744 0.767624 0.951975
O O13 0.299612 0.000000 0.000000
O O14 0.500000 0.732040 0.661844
O O15 0.560096 0.500000 0.657029
O O16 0.579394 0.728122 0.600608
O O17 0.420905 0.775073 0.500000
O O18 0.500000 0.825039 0.554407
O O19 0.422124 0.000000 0.564801
O O20 0.662953 0.500000 0.910198
#
# Coordination Sequence:
#
# PCOD8267056 Si02
#       7
#    16  16  16   8  16  16  16
#     4   9  18  33  52  72  95 124 156 188 222 263
#     4  10  20  34  51  71  94 120 150 184 227 275
#     4  10  20  31  45  67  93 121 154 190 226 269
#     4  12  24  38  55  74  97 121 150 189 231 274
#     4  10  19  28  40  61  90 123 157 192 228 266
#     4   8  14  25  40  57  80 114 154 192 230 271
#     4  10  20  35  54  75  98 123 152 185 223 268
#
# _framework density 16.441229
#
# number of rings (size 3 to 8) (size 9 to 14) (size 15 to 20)
#    0.000    2.308    0.000    3.923    0.000    5.846 
#    0.000    1.923    0.000    2.308    0.000    0.000 
#    0.000    0.615    0.000    2.000    0.000    2.462 
#
# Total GULP energy -644770.184473 kJ/mol
# GULP energy per Si atom -12399.426624 kJ/mol
# Density = 1.640381 g / cm^3
# Si number density = 16.441229 Si / 1000 Ang^3
#
#
#
# Elastic Constant Matrix: (Units=GPa)
#
#
# Indices 1 2 3 4 5 6 
#
# 1 85.9657 40.6094 43.7977 0.0000 0.0000 0.0000
# 2 40.6094 94.2838 58.9439 0.0000 0.0000 0.0000
# 3 43.7977 58.9439 127.6036 0.0000 0.0000 0.0000
# 4 0.0000 0.0000 0.0000 30.6544 0.0000 0.0000
# 5 0.0000 0.0000 0.0000 0.0000 14.8399 0.0000
# 6 0.0000 0.0000 0.0000 0.0000 0.0000 22.3511
#
#
#
# Elastic Compliance Matrix: (Units=1/GPa)
#
#
# Indices 1 2 3 4 5 6 
#
# 1 0.015446 -0.004694 -0.003133 0.000000 0.000000 0.000000
# 2 -0.004694 0.016339 -0.005937 0.000000 0.000000 0.000000
# 3 -0.003133 -0.005937 0.011654 0.000000 0.000000 0.000000
# 4 0.000000 0.000000 0.000000 0.032622 0.000000 0.000000
# 5 0.000000 0.000000 0.000000 0.000000 0.067386 0.000000
# 6 0.000000 0.000000 0.000000 0.000000 0.000000 0.044741
#
#
# Mechanical properties :
#
#
# Convention : Reuss Voigt Hill
#
# Bulk Modulus (GPa) = 62.84410 66.06170 64.45290
# Shear Modulus (GPa) = 22.62232 24.53588 23.57910
#
# Velocity S-wave (km/s) = 3.71341 3.86727 3.79112
# Velocity P-wave (km/s) = 7.52943 7.75943 7.64530
#
# Compressibility (1/GPa) = 0.01591239
#
# Stress axis : x y z
#
# Youngs Moduli (GPa) = 64.74016 61.20154 85.80379
#
# Poissons Ratio (x) = 0.28728 0.26885
# Poissons Ratio (y) = 0.30390 0.50938
# Poissons Ratio (z) = 0.20285 0.36332
#
# Static dielectric constant tensor:
#      x y z
#    x 2.990530 0.000000 0.000000 
#    y 0.000000 3.237330 0.000000 
#    z 0.000000 0.000000 3.231410 
# 
# 
# High freq. dielectric constant tensor:
#      x y z
#    x 1.605680 0.000000 0.000000 
#    y 0.000000 1.646660 0.000000 
#    z 0.000000 0.000000 1.627230 
# 
# From -- ./inp_files/71776.got.cif
#   From: 2010.03.12/outbox.cif.g09.slc.cpg/sg65_36_cif.got.tgz:71776.got - 2010.04.10 20:52:16.
