data_PCOD8267751
_publ_section_title
;
Structure prediction by ZEFSAII (Michael W. Deem and Ramdas Pophale) SiO2 
 PCOD8267751
Probable space group: C M M M
;
_chemical_formula_sum "Si O2"
_cell_formula_units_Z 88
_cell_length_a 14.192865
_cell_length_b 18.950871
_cell_length_c 17.515681
_cell_angle_alpha 90.000000
_cell_angle_beta 90.000000
_cell_angle_gamma 90.000000
_cell_volume 4711.142864
_symmetry_space_group_name_H-M "C M M M"
_symmetry_group_IT_number 65
_symmetry_cell_setting 'orthorhombic'
loop_
_space_group_symop_operation_xyz
x,y,z
-x,-y,z
x,-y,-z
-x,y,-z
-x,-y,-z
x,y,-z
-x,y,z
x,-y,z
1/2+x,1/2+y,z
1/2-x,1/2-y,z
1/2+x,1/2-y,-z
1/2-x,1/2+y,-z
1/2-x,1/2-y,-z
1/2+x,1/2+y,-z
1/2-x,1/2+y,z
1/2+x,1/2-y,z
loop_
_atom_site_type_symbol
_atom_site_label
_atom_site_fract_x
_atom_site_fract_y
_atom_site_fract_z
Si Si1 0.609663 0.863154 0.413802
Si Si2 0.282654 0.000000 0.410555
Si Si3 0.393688 0.783109 0.266250
Si Si4 0.105644 0.130229 0.207784
Si Si5 0.723791 0.827889 0.875620
Si Si6 0.112401 0.415791 0.000000
Si Si7 0.392948 0.500000 0.686488
O O1 0.642076 0.841496 0.500000
O O2 0.500000 0.882180 0.414673
O O3 0.632733 0.800813 0.353977
O O4 0.664079 0.930846 0.380640
O O5 0.287221 0.000000 0.500000
O O6 0.174077 0.000000 0.386280
O O7 0.500000 0.807691 0.247611
O O8 0.382742 0.699680 0.259025
O O9 0.325792 0.821618 0.206546
O O10 0.177256 0.131325 0.136319
O O11 0.130788 0.066774 0.262510
O O12 0.000000 0.123517 0.174090
O O13 0.750000 0.750000 0.909816
O O14 0.657057 0.875731 0.927809
O O15 0.135943 0.500000 0.000000
O O16 0.000000 0.404340 0.000000
O O17 0.500000 0.500000 0.656513
#
# Coordination Sequence:
#
# PCOD8267751 Si02
#       7
#    16   8  16  16  16   8   8
#     4   9  17  30  50  78 111 142 174 219 274 329
#     4  10  19  31  46  67  98 138 179 222 271 322
#     4   9  17  32  54  81 109 140 182 225 269 326
#     4   9  19  34  55  80 105 135 179 230 268 312
#     4  10  20  37  61  84 110 149 189 223 270 328
#     4  11  25  42  59  87 125 151 176 223 282 340
#     4  10  20  34  51  71  97 134 178 225 275 314
#
# _framework density 18.679119
#
# number of rings (size 3 to 8) (size 9 to 14) (size 15 to 20)
#    0.000    2.455    0.000    2.182    1.273    2.000 
#    1.636    1.364    0.000   10.909    0.000    0.000 
#    0.000    0.000    0.000    0.000    0.000    0.000 
#
# Total GULP energy -545401.393633 kJ/mol
# GULP energy per Si atom -12395.486219 kJ/mol
# Density = 1.863660 g / cm^3
# Si number density = 18.679119 Si / 1000 Ang^3
#
#
#
# Elastic Constant Matrix: (Units=GPa)
#
#
# Indices 1 2 3 4 5 6 
#
# 1 95.7220 42.5134 37.7676 0.0000 0.0000 0.0000
# 2 42.5134 89.0873 39.7649 0.0000 0.0000 0.0000
# 3 37.7676 39.7649 74.0968 0.0000 0.0000 0.0000
# 4 0.0000 0.0000 0.0000 22.3482 0.0000 0.0000
# 5 0.0000 0.0000 0.0000 0.0000 33.4473 0.0000
# 6 0.0000 0.0000 0.0000 0.0000 0.0000 26.8993
#
#
#
# Elastic Compliance Matrix: (Units=1/GPa)
#
#
# Indices 1 2 3 4 5 6 
#
# 1 0.014458 -0.004747 -0.004822 0.000000 0.000000 0.000000
# 2 -0.004747 0.016320 -0.006338 0.000000 0.000000 0.000000
# 3 -0.004822 -0.006338 0.019355 0.000000 0.000000 0.000000
# 4 0.000000 0.000000 0.000000 0.044746 0.000000 0.000000
# 5 0.000000 0.000000 0.000000 0.000000 0.029898 0.000000
# 6 0.000000 0.000000 0.000000 0.000000 0.000000 0.037176
#
#
# Mechanical properties :
#
#
# Convention : Reuss Voigt Hill
#
# Bulk Modulus (GPa) = 54.59121 55.44419 55.01770
# Shear Modulus (GPa) = 25.01597 25.79631 25.40614
#
# Velocity S-wave (km/s) = 3.66354 3.72024 3.69200
# Velocity P-wave (km/s) = 6.86911 6.94266 6.90598
#
# Compressibility (1/GPa) = 0.01831797
#
# Stress axis : x y z
#
# Youngs Moduli (GPa) = 69.16742 61.27618 51.66632
#
# Poissons Ratio (x) = 0.29089 0.24911
# Poissons Ratio (y) = 0.32835 0.32748
# Poissons Ratio (z) = 0.33349 0.38839
#
# Static dielectric constant tensor:
#      x y z
#    x 3.729820 0.000000 0.000000 
#    y 0.000000 4.496560 0.000000 
#    z 0.000000 0.000000 3.269200 
# 
# 
# High freq. dielectric constant tensor:
#      x y z
#    x 1.741510 0.000000 0.000000 
#    y 0.000000 1.723860 0.000000 
#    z 0.000000 0.000000 1.704120 
# 
# From -- ./inp_files/53072.got.cif
#   From: 2010.03.12/outbox.cif.g09.slc.cpg/sg65_27_cif.got.tgz:53072.got - 2010.04.10 20:52:16.
