data_PCOD8267442
_publ_section_title
;
Structure prediction by ZEFSAII (Michael W. Deem and Ramdas Pophale) SiO2 
 PCOD8267442
Probable space group: C M M M
;
_chemical_formula_sum "Si O2"
_cell_formula_units_Z 112
_cell_length_a 18.574807
_cell_length_b 19.261518
_cell_length_c 19.132537
_cell_angle_alpha 90.000000
_cell_angle_beta 90.000000
_cell_angle_gamma 90.000000
_cell_volume 6845.219561
_symmetry_space_group_name_H-M "C M M M"
_symmetry_group_IT_number 65
_symmetry_cell_setting 'orthorhombic'
loop_
_space_group_symop_operation_xyz
x,y,z
-x,-y,z
x,-y,-z
-x,y,-z
-x,-y,-z
x,y,-z
-x,y,z
x,-y,z
1/2+x,1/2+y,z
1/2-x,1/2-y,z
1/2+x,1/2-y,-z
1/2-x,1/2+y,-z
1/2-x,1/2-y,-z
1/2+x,1/2+y,-z
1/2-x,1/2+y,z
1/2+x,1/2-y,z
loop_
_atom_site_type_symbol
_atom_site_label
_atom_site_fract_x
_atom_site_fract_y
_atom_site_fract_z
Si Si1 0.582700 0.918873 0.309157
Si Si2 0.660812 0.827331 0.578764
Si Si3 0.153974 0.918834 0.706356
Si Si4 0.078511 0.918005 0.846184
Si Si5 0.671993 0.668108 0.579093
Si Si6 0.781734 0.082918 0.077172
Si Si7 0.792124 0.581637 0.787638
O O1 0.500000 0.901563 0.292568
O O2 0.609620 0.874505 0.374235
O O3 0.628768 0.897928 0.240114
O O4 0.593673 0.000000 0.327063
O O5 0.633315 0.838132 0.500000
O O6 0.654159 0.746931 0.599986
O O7 0.743624 0.849453 0.584473
O O8 0.096230 0.899655 0.765817
O O9 0.131426 0.880416 0.634834
O O10 0.231969 0.891166 0.733176
O O11 0.155498 0.000000 0.689916
O O12 0.139690 0.889044 0.898490
O O13 0.000000 0.886214 0.865037
O O14 0.076541 0.000000 0.854521
O O15 0.645306 0.652592 0.500000
O O16 0.722439 0.110419 0.133587
O O17 0.782244 0.000000 0.074975
O O18 0.763977 0.112881 0.000000
O O19 0.781313 0.500000 0.792105
#
# Coordination Sequence:
#
# PCOD8267442 Si02
#       7
#    16  16  16  16  16  16  16
#     4  10  19  30  46  66  89 119 150 184 229 274
#     4   9  18  31  44  61  87 114 143 183 229 272
#     4   9  15  25  43  63  85 116 152 185 217 256
#     4   8  14  23  35  55  84 114 143 179 220 257
#     4   9  17  29  45  63  84 113 147 186 227 261
#     4   8  13  21  36  58  84 116 146 172 210 259
#     4   8  14  25  39  59  87 114 145 182 216 255
#
# _framework density 16.361784
#
# number of rings (size 3 to 8) (size 9 to 14) (size 15 to 20)
#    0.000    3.286    1.429    2.571    0.000    1.143 
#    0.000    4.286    0.000    1.714    0.000    5.000 
#    0.000    9.143    0.000    1.143    0.000    0.571 
#
# Total GULP energy -693850.427125 kJ/mol
# GULP energy per Si atom -12390.186199 kJ/mol
# Density = 1.632454 g / cm^3
# Si number density = 16.361784 Si / 1000 Ang^3
#
#
#
# Elastic Constant Matrix: (Units=GPa)
#
#
# Indices 1 2 3 4 5 6 
#
# 1 95.3884 21.0367 47.5311 0.0000 0.0000 0.0000
# 2 21.0367 28.5824 35.5633 0.0000 0.0000 0.0000
# 3 47.5311 35.5633 132.2533 0.0000 0.0000 0.0000
# 4 0.0000 0.0000 0.0000 1.7694 0.0000 0.0000
# 5 0.0000 0.0000 0.0000 0.0000 18.7677 0.0000
# 6 0.0000 0.0000 0.0000 0.0000 0.0000 13.5948
#
#
#
# Elastic Compliance Matrix: (Units=1/GPa)
#
#
# Indices 1 2 3 4 5 6 
#
# 1 0.013383 -0.005809 -0.003248 0.000000 0.000000 0.000000
# 2 -0.005809 0.055099 -0.012729 0.000000 0.000000 0.000000
# 3 -0.003248 -0.012729 0.012151 0.000000 0.000000 0.000000
# 4 0.000000 0.000000 0.000000 0.565159 0.000000 0.000000
# 5 0.000000 0.000000 0.000000 0.000000 0.053283 0.000000
# 6 0.000000 0.000000 0.000000 0.000000 0.000000 0.073558
#
#
# Mechanical properties :
#
#
# Convention : Reuss Voigt Hill
#
# Bulk Modulus (GPa) = 26.98116 51.60959 39.29538
# Shear Modulus (GPa) = 6.03458 16.96592 11.50025
#
# Velocity S-wave (km/s) = 1.92256 3.22362 2.65405
# Velocity P-wave (km/s) = 4.63190 6.74292 5.78452
#
# Compressibility (1/GPa) = 0.03706290
#
# Stress axis : x y z
#
# Youngs Moduli (GPa) = 74.72265 18.14901 82.29631
#
# Poissons Ratio (x) = 0.10543 0.26727
# Poissons Ratio (y) = 0.43406 1.04752
# Poissons Ratio (z) = 0.24267 0.23101
#
# Static dielectric constant tensor:
#      x y z
#    x 3.094100 0.000000 0.000000 
#    y 0.000000 2.630680 0.000000 
#    z 0.000000 0.000000 3.315390 
# 
# 
# High freq. dielectric constant tensor:
#      x y z
#    x 1.611740 0.000000 0.000000 
#    y 0.000000 1.578170 0.000000 
#    z 0.000000 0.000000 1.633000 
# 
# From -- ./inp_files/56159.got.cif
#   From: 2010.03.12/outbox.cif.g09.slc.cpg/sg65_29_cif.got.tgz:56159.got - 2010.04.10 20:52:16.
