data_PCOD8267507
_publ_section_title
;
Structure prediction by ZEFSAII (Michael W. Deem and Ramdas Pophale) SiO2 
 PCOD8267507
Probable space group: C M M M
;
_chemical_formula_sum "Si O2"
_cell_formula_units_Z 104
_cell_length_a 23.971490
_cell_length_b 8.702137
_cell_length_c 28.305197
_cell_angle_alpha 90.000000
_cell_angle_beta 90.000000
_cell_angle_gamma 90.000000
_cell_volume 5904.554390
_symmetry_space_group_name_H-M "C M M M"
_symmetry_group_IT_number 65
_symmetry_cell_setting 'orthorhombic'
loop_
_space_group_symop_operation_xyz
x,y,z
-x,-y,z
x,-y,-z
-x,y,-z
-x,-y,-z
x,y,-z
-x,y,z
x,-y,z
1/2+x,1/2+y,z
1/2-x,1/2-y,z
1/2+x,1/2-y,-z
1/2-x,1/2+y,-z
1/2-x,1/2-y,-z
1/2+x,1/2+y,-z
1/2-x,1/2+y,z
1/2+x,1/2-y,z
loop_
_atom_site_type_symbol
_atom_site_label
_atom_site_fract_x
_atom_site_fract_y
_atom_site_fract_z
Si Si1 0.392461 0.818664 0.599603
Si Si2 0.936520 0.317978 0.500000
Si Si3 0.500000 0.329794 0.640598
Si Si4 0.311477 0.181881 0.847846
Si Si5 0.879372 0.183278 0.762744
Si Si6 0.000000 0.167935 0.750717
Si Si7 0.310458 0.820085 0.950157
Si Si8 0.688857 0.317917 0.671329
O O1 0.401489 0.763019 0.545578
O O2 0.446590 0.769391 0.628054
O O3 0.338404 0.738240 0.622212
O O4 0.384257 0.000000 0.602825
O O5 0.942335 0.500000 0.500000
O O6 0.000000 0.249333 0.500000
O O7 0.500000 0.500000 0.616273
O O8 0.500000 0.356535 0.695433
O O9 0.250000 0.250000 0.842906
O O10 0.349729 0.260427 0.809495
O O11 0.338304 0.225140 0.899759
O O12 0.309106 0.000000 0.839345
O O13 0.847378 0.242333 0.715926
O O14 0.942385 0.253803 0.764866
O O15 0.881679 0.000000 0.761082
O O16 0.000000 0.000000 0.775210
O O17 0.250000 0.750000 0.951142
O O18 0.302156 0.000000 0.949872
O O19 0.341879 0.771270 0.000000
O O20 0.692511 0.500000 0.670640
O O21 0.750000 0.250000 0.676521
#
# Coordination Sequence:
#
# PCOD8267507 Si02
#       8
#    16   8   8  16  16   8  16  16
#     4  11  21  36  58  83 109 139 173 210 256 305
#     4   9  18  34  55  82 113 138 165 207 258 306
#     4  11  19  34  56  81 110 137 169 212 258 304
#     4  10  19  30  46  71 102 134 170 209 248 297
#     4  10  20  35  54  74 101 134 166 204 252 302
#     4   9  18  35  54  74 100 133 164 201 252 300
#     4   8  14  25  41  62  91 127 164 204 250 295
#     4  11  23  39  57  78 105 138 175 213 253 307
#
# _framework density 17.613522
#
# number of rings (size 3 to 8) (size 9 to 14) (size 15 to 20)
#    0.000    2.077    2.308    2.077    0.000    3.077 
#    0.000    2.692    0.000    0.000    0.000    0.538 
#    0.000    4.308    0.000    0.000    0.000    0.000 
#
# Total GULP energy -644189.568072 kJ/mol
# GULP energy per Si atom -12388.260924 kJ/mol
# Density = 1.757343 g / cm^3
# Si number density = 17.613522 Si / 1000 Ang^3
#
#
#
# Elastic Constant Matrix: (Units=GPa)
#
#
# Indices 1 2 3 4 5 6 
#
# 1 127.5319 25.0829 67.8539 0.0000 0.0000 0.0000
# 2 25.0829 29.9923 23.7666 0.0000 0.0000 0.0000
# 3 67.8539 23.7666 148.5803 0.0000 0.0000 0.0000
# 4 0.0000 0.0000 0.0000 17.1620 0.0000 0.0000
# 5 0.0000 0.0000 0.0000 0.0000 18.7500 0.0000
# 6 0.0000 0.0000 0.0000 0.0000 0.0000 22.3281
#
#
#
# Elastic Compliance Matrix: (Units=1/GPa)
#
#
# Indices 1 2 3 4 5 6 
#
# 1 0.011260 -0.006117 -0.004164 0.000000 0.000000 0.000000
# 2 -0.006117 0.041505 -0.003845 0.000000 0.000000 0.000000
# 3 -0.004164 -0.003845 0.009247 0.000000 0.000000 0.000000
# 4 0.000000 0.000000 0.000000 0.058268 0.000000 0.000000
# 5 0.000000 0.000000 0.000000 0.000000 0.053333 0.000000
# 6 0.000000 0.000000 0.000000 0.000000 0.000000 0.044787
#
#
# Mechanical properties :
#
#
# Convention : Reuss Voigt Hill
#
# Bulk Modulus (GPa) = 29.62164 59.94570 44.78367
# Shear Modulus (GPa) = 19.38697 24.27476 21.83086
#
# Velocity S-wave (km/s) = 3.32126 3.71642 3.52438
# Velocity P-wave (km/s) = 5.61798 7.24731 6.48403
#
# Compressibility (1/GPa) = 0.03375910
#
# Stress axis : x y z
#
# Youngs Moduli (GPa) = 88.81369 24.09346 108.14466
#
# Poissons Ratio (x) = 0.14739 0.45026
# Poissons Ratio (y) = 0.54329 0.41586
# Poissons Ratio (z) = 0.36978 0.09265
#
# Static dielectric constant tensor:
#      x y z
#    x 3.179660 0.000000 0.000000 
#    y 0.000000 3.156560 0.000000 
#    z 0.000000 0.000000 3.853780 
# 
# 
# High freq. dielectric constant tensor:
#      x y z
#    x 1.653010 0.000000 0.000000 
#    y 0.000000 1.674550 0.000000 
#    z 0.000000 0.000000 1.694410 
# 
# From -- ./inp_files/78399.got.cif
#   From: 2010.03.12/outbox.cif.g09.slc.cpg/sg65_40_cif.got.tgz:78399.got - 2010.04.10 20:52:16.
