data_PCOD8267170
_publ_section_title
;
Structure prediction by ZEFSAII (Michael W. Deem and Ramdas Pophale) SiO2 
 PCOD8267170
Probable space group: C M M M
;
_chemical_formula_sum "Si O2"
_cell_formula_units_Z 96
_cell_length_a 27.364611
_cell_length_b 8.784451
_cell_length_c 24.068770
_cell_angle_alpha 90.000000
_cell_angle_beta 90.000000
_cell_angle_gamma 90.000000
_cell_volume 5785.725172
_symmetry_space_group_name_H-M "C M M M"
_symmetry_group_IT_number 65
_symmetry_cell_setting 'orthorhombic'
loop_
_space_group_symop_operation_xyz
x,y,z
-x,-y,z
x,-y,-z
-x,y,-z
-x,-y,-z
x,y,-z
-x,y,z
x,-y,z
1/2+x,1/2+y,z
1/2-x,1/2-y,z
1/2+x,1/2-y,-z
1/2-x,1/2+y,-z
1/2-x,1/2-y,-z
1/2+x,1/2+y,-z
1/2-x,1/2+y,z
1/2+x,1/2-y,z
loop_
_atom_site_type_symbol
_atom_site_label
_atom_site_fract_x
_atom_site_fract_y
_atom_site_fract_z
Si Si1 0.392652 0.178417 0.773735
Si Si2 0.557933 0.829141 0.439239
Si Si3 0.054896 0.176638 0.127556
Si Si4 0.801575 0.180655 0.170220
Si Si5 0.353062 0.679439 0.060737
Si Si6 0.557125 0.676168 0.328495
O O1 0.434093 0.226098 0.817711
O O2 0.341879 0.263715 0.786144
O O3 0.411186 0.222880 0.713060
O O4 0.383262 0.000000 0.776942
O O5 0.577575 0.774475 0.500000
O O6 0.500000 0.829383 0.440917
O O7 0.575753 0.716308 0.390652
O O8 0.576913 0.000000 0.426847
O O9 0.091562 0.223148 0.078052
O O10 0.000000 0.210074 0.107142
O O11 0.062279 0.000000 0.143686
O O12 0.750000 0.250000 0.187463
O O13 0.815922 0.239510 0.108025
O O14 0.799040 0.000000 0.172311
O O15 0.347971 0.500000 0.056182
O O16 0.341703 0.752921 0.000000
O O17 0.500000 0.716423 0.321171
O O18 0.567021 0.500000 0.316634
#
# Coordination Sequence:
#
# PCOD8267170 Si02
#       6
#    16  16  16  16  16  16
#     4  11  21  32  47  66  89 118 153 191 230 274
#     4   8  14  25  40  59  87 124 163 198 229 263
#     4   9  17  29  45  65  91 122 153 187 226 266
#     4  10  20  35  53  71  91 114 142 180 228 279
#     4   8  15  28  46  69  94 118 146 180 218 266
#     4  10  19  29  43  65  94 127 161 196 232 269
#
# _framework density 16.592562000000001
#
# number of rings (size 3 to 8) (size 9 to 14) (size 15 to 20)
#    0.000    2.667    0.000    4.500    0.000    4.333 
#    0.000    3.333    0.000   12.000    0.000    4.667 
#    0.000    0.667    0.000    2.500    0.000    3.833 
#
# Total GULP energy -594996.670703 kJ/mol
# GULP energy per Si atom -12395.763973 kJ/mol
# Density = 1.655480 g / cm^3
# Si number density = 16.592562 Si / 1000 Ang^3
#
#
#
# Elastic Constant Matrix: (Units=GPa)
#
#
# Indices 1 2 3 4 5 6 
#
# 1 76.0646 26.5449 25.3402 0.0000 0.0000 0.0000
# 2 26.5449 66.4352 27.9165 0.0000 0.0000 0.0000
# 3 25.3402 27.9165 100.3051 0.0000 0.0000 0.0000
# 4 0.0000 0.0000 0.0000 19.7163 0.0000 0.0000
# 5 0.0000 0.0000 0.0000 0.0000 11.8519 0.0000
# 6 0.0000 0.0000 0.0000 0.0000 0.0000 20.7542
#
#
#
# Elastic Compliance Matrix: (Units=1/GPa)
#
#
# Indices 1 2 3 4 5 6 
#
# 1 0.015826 -0.005258 -0.002535 0.000000 0.000000 0.000000
# 2 -0.005258 0.018793 -0.003902 0.000000 0.000000 0.000000
# 3 -0.002535 -0.003902 0.011696 0.000000 0.000000 0.000000
# 4 0.000000 0.000000 0.000000 0.050720 0.000000 0.000000
# 5 0.000000 0.000000 0.000000 0.000000 0.084374 0.000000
# 6 0.000000 0.000000 0.000000 0.000000 0.000000 0.048183
#
#
# Mechanical properties :
#
#
# Convention : Reuss Voigt Hill
#
# Bulk Modulus (GPa) = 43.62063 44.71201 44.16632
# Shear Modulus (GPa) = 19.18475 21.33137 20.25806
#
# Velocity S-wave (km/s) = 3.40402 3.58941 3.49795
# Velocity P-wave (km/s) = 6.46499 6.64711 6.55668
#
# Compressibility (1/GPa) = 0.02292493
#
# Stress axis : x y z
#
# Youngs Moduli (GPa) = 63.18637 53.21151 85.50008
#
# Poissons Ratio (x) = 0.27981 0.21672
# Poissons Ratio (y) = 0.33226 0.33361
# Poissons Ratio (z) = 0.16016 0.20763
#
# Static dielectric constant tensor:
#      x y z
#    x 2.912660 0.000000 0.000000 
#    y 0.000000 3.016460 0.000000 
#    z 0.000000 0.000000 3.410800 
# 
# 
# High freq. dielectric constant tensor:
#      x y z
#    x 1.604660 0.000000 0.000000 
#    y 0.000000 1.630160 0.000000 
#    z 0.000000 0.000000 1.638040 
# 
# From -- ./inp_files/68020.got.cif
#   From: 2010.03.12/outbox.cif.g09.slc.cpg/sg65_35_cif.got.tgz:68020.got - 2010.04.10 20:52:16.
