data_PCOD8267184
_publ_section_title
;
Structure prediction by ZEFSAII (Michael W. Deem and Ramdas Pophale) SiO2 
 PCOD8267184
Probable space group: C M M M
;
_chemical_formula_sum "Si O2"
_cell_formula_units_Z 88
_cell_length_a 9.145801
_cell_length_b 19.736615
_cell_length_c 27.600883
_cell_angle_alpha 90.000000
_cell_angle_beta 90.000000
_cell_angle_gamma 90.000000
_cell_volume 4982.156816
_symmetry_space_group_name_H-M "C M M M"
_symmetry_group_IT_number 65
_symmetry_cell_setting 'orthorhombic'
loop_
_space_group_symop_operation_xyz
x,y,z
-x,-y,z
x,-y,-z
-x,y,-z
-x,-y,-z
x,y,-z
-x,y,z
x,-y,z
1/2+x,1/2+y,z
1/2-x,1/2-y,z
1/2+x,1/2-y,-z
1/2-x,1/2+y,-z
1/2-x,1/2-y,-z
1/2+x,1/2+y,-z
1/2-x,1/2+y,z
1/2+x,1/2-y,z
loop_
_atom_site_type_symbol
_atom_site_label
_atom_site_fract_x
_atom_site_fract_y
_atom_site_fract_z
Si Si1 0.329079 0.318811 0.621993
Si Si2 0.673754 0.425063 0.190934
Si Si3 0.325414 0.323140 0.000000
Si Si4 0.826574 0.076035 0.917084
Si Si5 0.333112 0.921362 0.555636
Si Si6 0.328398 0.318232 0.732570
O O1 0.500000 0.307702 0.614443
O O2 0.250000 0.250000 0.605921
O O3 0.276704 0.380011 0.588897
O O4 0.290544 0.337771 0.677364
O O5 0.500000 0.425108 0.192996
O O6 0.733648 0.500000 0.202619
O O7 0.725429 0.403261 0.137042
O O8 0.736747 0.375431 0.231918
O O9 0.250000 0.250000 0.000000
O O10 0.269450 0.366428 0.046280
O O11 0.500000 0.313280 0.000000
O O12 0.000000 0.073442 0.919872
O O13 0.768099 0.000000 0.930168
O O14 0.304603 0.901615 0.500000
O O15 0.500000 0.904577 0.569835
O O16 0.299708 0.000000 0.564058
O O17 0.500000 0.308107 0.739745
O O18 0.250000 0.250000 0.748308
#
# Coordination Sequence:
#
# PCOD8267184 Si02
#       6
#    16  16   8  16  16  16
#     4  10  20  33  50  72  98 128 162 198 235 278
#     4   8  14  26  45  68  91 116 151 193 232 269
#     4  10  19  29  43  67  95 118 148 190 232 274
#     4   8  14  26  45  66  87 116 155 194 227 264
#     4   9  19  36  55  74  98 127 157 192 237 286
#     4   9  18  31  47  68  94 123 153 188 230 275
#
# _framework density 17.663032999999999
#
# number of rings (size 3 to 8) (size 9 to 14) (size 15 to 20)
#    0.000    3.091    0.000    2.455    0.000    4.364 
#    0.000    2.727    0.000    1.636    0.000    2.545 
#    0.000    0.000    0.000    0.000    0.000    0.000 
#
# Total GULP energy -545422.589759 kJ/mol
# GULP energy per Si atom -12395.967949 kJ/mol
# Density = 1.762283 g / cm^3
# Si number density = 17.663033 Si / 1000 Ang^3
#
#
#
# Elastic Constant Matrix: (Units=GPa)
#
#
# Indices 1 2 3 4 5 6 
#
# 1 37.6917 39.4839 35.2594 0.0000 0.0000 0.0000
# 2 39.4839 133.5104 91.5806 0.0000 0.0000 0.0000
# 3 35.2594 91.5806 116.2164 0.0000 0.0000 0.0000
# 4 0.0000 0.0000 0.0000 33.3058 0.0000 0.0000
# 5 0.0000 0.0000 0.0000 0.0000 13.4429 0.0000
# 6 0.0000 0.0000 0.0000 0.0000 0.0000 29.7599
#
#
#
# Elastic Compliance Matrix: (Units=1/GPa)
#
#
# Indices 1 2 3 4 5 6 
#
# 1 0.040383 -0.007701 -0.006183 0.000000 0.000000 0.000000
# 2 -0.007701 0.017770 -0.011667 0.000000 0.000000 0.000000
# 3 -0.006183 -0.011667 0.019674 0.000000 0.000000 0.000000
# 4 0.000000 0.000000 0.000000 0.030025 0.000000 0.000000
# 5 0.000000 0.000000 0.000000 0.000000 0.074388 0.000000
# 6 0.000000 0.000000 0.000000 0.000000 0.000000 0.033602
#
#
# Mechanical properties :
#
#
# Convention : Reuss Voigt Hill
#
# Bulk Modulus (GPa) = 37.41849 68.89626 53.15738
# Shear Modulus (GPa) = 18.12554 23.37471 20.75012
#
# Velocity S-wave (km/s) = 3.20689 3.64176 3.43122
# Velocity P-wave (km/s) = 5.91124 7.53484 6.77188
#
# Compressibility (1/GPa) = 0.02672475
#
# Stress axis : x y z
#
# Youngs Moduli (GPa) = 24.76307 56.27323 50.82786
#
# Poissons Ratio (x) = 0.43338 0.31427
# Poissons Ratio (y) = 0.19071 0.59300
# Poissons Ratio (z) = 0.15311 0.65653
#
# Static dielectric constant tensor:
#      x y z
#    x 2.881910 0.000000 0.000000 
#    y 0.000000 3.415920 0.000000 
#    z 0.000000 0.000000 3.521640 
# 
# 
# High freq. dielectric constant tensor:
#      x y z
#    x 1.642690 0.000000 0.000000 
#    y 0.000000 1.685890 0.000000 
#    z 0.000000 0.000000 1.691550 
# 
# From -- ./inp_files/76519.got.cif
#   From: 2010.03.12/outbox.cif.g09.slc.cpg/sg65_39_cif.got.tgz:76519.got - 2010.04.10 20:52:16.
