data_PCOD8267100
_publ_section_title
;
Structure prediction by ZEFSAII (Michael W. Deem and Ramdas Pophale) SiO2 
 PCOD8267100
Probable space group: C M M M
;
_chemical_formula_sum "Si O2"
_cell_formula_units_Z 88
_cell_length_a 26.979666
_cell_length_b 26.203138
_cell_length_c 9.057110
_cell_angle_alpha 90.000000
_cell_angle_beta 90.000000
_cell_angle_gamma 90.000000
_cell_volume 6402.941226
_symmetry_space_group_name_H-M "C M M M"
_symmetry_group_IT_number 65
_symmetry_cell_setting 'orthorhombic'
loop_
_space_group_symop_operation_xyz
x,y,z
-x,-y,z
x,-y,-z
-x,y,-z
-x,-y,-z
x,y,-z
-x,y,z
x,-y,z
1/2+x,1/2+y,z
1/2-x,1/2-y,z
1/2+x,1/2-y,-z
1/2-x,1/2+y,-z
1/2-x,1/2-y,-z
1/2+x,1/2+y,-z
1/2-x,1/2+y,z
1/2+x,1/2-y,z
loop_
_atom_site_type_symbol
_atom_site_label
_atom_site_fract_x
_atom_site_fract_y
_atom_site_fract_z
Si Si1 0.862488 0.744853 0.665302
Si Si2 0.902319 0.899366 0.324472
Si Si3 0.803390 0.849840 0.336972
Si Si4 0.220939 0.696908 0.834714
Si Si5 0.557074 0.698542 0.830453
Si Si6 0.441552 0.500000 0.827992
O O1 0.877162 0.727611 0.500000
O O2 0.830874 0.796028 0.660063
O O3 0.829390 0.700562 0.739763
O O4 0.911837 0.754869 0.760534
O O5 0.911103 0.900571 0.500000
O O6 0.843947 0.891668 0.286690
O O7 0.934851 0.853765 0.257860
O O8 0.918726 0.951270 0.250387
O O9 0.783164 0.862691 0.500000
O O10 0.756356 0.847845 0.228405
O O11 0.250000 0.750000 0.830949
O O12 0.206154 0.681688 0.000000
O O13 0.500000 0.714357 0.819694
O O14 0.573664 0.690341 0.000000
O O15 0.500000 0.500000 0.804724
O O16 0.427421 0.500000 0.000000
#
# Coordination Sequence:
#
# PCOD8267100 Si02
#       6
#    16  16  16  16  16   8
#     4   9  16  25  37  52  71  94 118 144 173 209
#     4  10  20  32  45  58  71  90 118 152 189 230
#     4   8  15  26  38  53  71  89 110 139 176 216
#     4   9  15  22  35  54  73  92 112 136 170 211
#     4  10  19  29  40  54  73  95 120 153 189 222
#     4  11  23  35  45  57  73  93 119 155 196 233
#
# _framework density 13.743684
#
# number of rings (size 3 to 8) (size 9 to 14) (size 15 to 20)
#    0.000    2.636    0.000    4.091    0.000   11.636 
#    0.000    0.000    0.000    0.000    0.000    0.000 
#    0.000    0.000    0.000    0.000    0.000    0.000 
#
# Total GULP energy -545451.704768 kJ/mol
# GULP energy per Si atom -12396.629654 kJ/mol
# Density = 1.371240 g / cm^3
# Si number density = 13.743684 Si / 1000 Ang^3
#
#
#
# Elastic Constant Matrix: (Units=GPa)
#
#
# Indices 1 2 3 4 5 6 
#
# 1 84.0050 38.3936 61.7267 0.0000 0.0000 0.0000
# 2 38.3936 28.4102 34.5039 0.0000 0.0000 0.0000
# 3 61.7267 34.5039 123.6475 0.0000 0.0000 0.0000
# 4 0.0000 0.0000 0.0000 12.0623 0.0000 0.0000
# 5 0.0000 0.0000 0.0000 0.0000 25.0123 0.0000
# 6 0.0000 0.0000 0.0000 0.0000 0.0000 21.7547
#
#
#
# Elastic Compliance Matrix: (Units=1/GPa)
#
#
# Indices 1 2 3 4 5 6 
#
# 1 0.034093 -0.038426 -0.006297 0.000000 0.000000 0.000000
# 2 -0.038426 0.096553 -0.007760 0.000000 0.000000 0.000000
# 3 -0.006297 -0.007760 0.013397 0.000000 0.000000 0.000000
# 4 0.000000 0.000000 0.000000 0.082903 0.000000 0.000000
# 5 0.000000 0.000000 0.000000 0.000000 0.039980 0.000000
# 6 0.000000 0.000000 0.000000 0.000000 0.000000 0.045967
#
#
# Mechanical properties :
#
#
# Convention : Reuss Voigt Hill
#
# Bulk Modulus (GPa) = 25.59132 56.14568 40.86850
# Shear Modulus (GPa) = 11.60403 18.52843 15.06623
#
# Velocity S-wave (km/s) = 2.90887 3.67569 3.31453
# Velocity P-wave (km/s) = 5.47201 7.67821 6.66700
#
# Compressibility (1/GPa) = 0.03907575
#
# Stress axis : x y z
#
# Youngs Moduli (GPa) = 29.33122 10.35705 74.64590
#
# Poissons Ratio (x) = 0.39798 0.47005
# Poissons Ratio (y) = 1.12709 0.57927
# Poissons Ratio (z) = 0.18470 0.08037
#
# Static dielectric constant tensor:
#      x y z
#    x 2.789590 0.000000 0.000000 
#    y 0.000000 2.421350 0.000000 
#    z 0.000000 0.000000 3.001760 
# 
# 
# High freq. dielectric constant tensor:
#      x y z
#    x 1.516080 0.000000 0.000000 
#    y 0.000000 1.458030 0.000000 
#    z 0.000000 0.000000 1.547150 
# 
# From -- ./inp_files/12603.got.cif
#   From: 2010.03.12/outbox.cif.g09.slc.cpg/sg65_7_cif.got.tgz:12603.got - 2010.04.10 20:52:16.
