data_PCOD8267460
_publ_section_title
;
Structure prediction by ZEFSAII (Michael W. Deem and Ramdas Pophale) SiO2 
 PCOD8267460
Probable space group: C M M M
;
_chemical_formula_sum "Si O2"
_cell_formula_units_Z 96
_cell_length_a 25.302993
_cell_length_b 9.041844
_cell_length_c 25.244616
_cell_angle_alpha 90.000000
_cell_angle_beta 90.000000
_cell_angle_gamma 90.000000
_cell_volume 5775.607533
_symmetry_space_group_name_H-M "C M M M"
_symmetry_group_IT_number 65
_symmetry_cell_setting 'orthorhombic'
loop_
_space_group_symop_operation_xyz
x,y,z
-x,-y,z
x,-y,-z
-x,y,-z
-x,-y,-z
x,y,-z
-x,y,z
x,-y,z
1/2+x,1/2+y,z
1/2-x,1/2-y,z
1/2+x,1/2-y,-z
1/2-x,1/2+y,-z
1/2-x,1/2-y,-z
1/2+x,1/2+y,-z
1/2-x,1/2+y,z
1/2+x,1/2-y,z
loop_
_atom_site_type_symbol
_atom_site_label
_atom_site_fract_x
_atom_site_fract_y
_atom_site_fract_z
Si Si1 0.693140 0.824945 0.357230
Si Si2 0.895847 0.672388 0.439566
Si Si3 0.000000 0.167004 0.562970
Si Si4 0.306189 0.326971 0.744335
Si Si5 0.194377 0.828244 0.861154
Si Si6 0.395517 0.326084 0.939149
Si Si7 0.000000 0.333999 0.937061
O O1 0.750000 0.750000 0.367279
O O2 0.655871 0.784151 0.406408
O O3 0.664668 0.756409 0.304355
O O4 0.700231 0.000000 0.350593
O O5 0.884657 0.720910 0.500000
O O6 0.908266 0.500000 0.435589
O O7 0.947075 0.754533 0.415577
O O8 0.000000 0.177450 0.500000
O O9 0.000000 0.000000 0.583816
O O10 0.301054 0.500000 0.731044
O O11 0.250000 0.250000 0.746941
O O12 0.331414 0.301822 0.802598
O O13 0.250000 0.750000 0.869393
O O14 0.153419 0.767181 0.904498
O O15 0.205444 0.000000 0.870135
O O16 0.403745 0.500000 0.932551
O O17 0.447938 0.248875 0.916394
O O18 0.384413 0.282516 0.000000
O O19 0.000000 0.500000 0.914685
O O20 0.000000 0.330969 0.000000
#
# Coordination Sequence:
#
# PCOD8267460 Si02
#       7
#    16  16   8  16  16  16   8
#     4  10  19  30  46  68  92 119 151 184 220 263
#     4   9  18  32  48  66  91 122 150 178 219 269
#     4   9  17  29  47  70  91 114 149 188 220 255
#     4   9  16  28  45  63  86 116 151 187 220 257
#     4   9  18  30  45  67  92 119 150 182 219 264
#     4   9  17  30  47  66  90 120 150 180 219 267
#     4   9  17  29  45  66  89 114 149 188 222 259
#
# _framework density 16.621628000000001
#
# number of rings (size 3 to 8) (size 9 to 14) (size 15 to 20)
#    0.000    2.833    0.000    2.500    0.000    5.333 
#    0.000    0.000    0.000    1.000    0.000    1.167 
#    0.000    0.000    0.000    0.000    0.000    0.000 
#
# Total GULP energy -594894.031599 kJ/mol
# GULP energy per Si atom -12393.625658 kJ/mol
# Density = 1.658380 g / cm^3
# Si number density = 16.621628 Si / 1000 Ang^3
#
#
#
# Elastic Constant Matrix: (Units=GPa)
#
#
# Indices 1 2 3 4 5 6 
#
# 1 117.3075 53.2637 67.0723 0.0000 0.0000 0.0000
# 2 53.2637 77.1819 44.3901 0.0000 0.0000 0.0000
# 3 67.0723 44.3901 97.3071 0.0000 0.0000 0.0000
# 4 0.0000 0.0000 0.0000 20.3934 0.0000 0.0000
# 5 0.0000 0.0000 0.0000 0.0000 4.5915 0.0000
# 6 0.0000 0.0000 0.0000 0.0000 0.0000 23.7241
#
#
#
# Elastic Compliance Matrix: (Units=1/GPa)
#
#
# Indices 1 2 3 4 5 6 
#
# 1 0.016116 -0.006416 -0.008181 0.000000 0.000000 0.000000
# 2 -0.006416 0.020119 -0.004756 0.000000 0.000000 0.000000
# 3 -0.008181 -0.004756 0.018085 0.000000 0.000000 0.000000
# 4 0.000000 0.000000 0.000000 0.049035 0.000000 0.000000
# 5 0.000000 0.000000 0.000000 0.000000 0.217794 0.000000
# 6 0.000000 0.000000 0.000000 0.000000 0.000000 0.042151
#
#
# Mechanical properties :
#
#
# Convention : Reuss Voigt Hill
#
# Bulk Modulus (GPa) = 64.04383 69.02762 66.53573
# Shear Modulus (GPa) = 12.27863 18.21316 15.24589
#
# Velocity S-wave (km/s) = 2.72088 3.31380 3.03187
# Velocity P-wave (km/s) = 6.96311 7.50071 7.23691
#
# Compressibility (1/GPa) = 0.01561431
#
# Stress axis : x y z
#
# Youngs Moduli (GPa) = 62.05139 49.70341 55.29304
#
# Poissons Ratio (x) = 0.31890 0.45237
# Poissons Ratio (y) = 0.39813 0.26295
# Poissons Ratio (z) = 0.50766 0.23637
#
# Static dielectric constant tensor:
#      x y z
#    x 3.019220 0.000000 0.000000 
#    y 0.000000 3.207380 0.000000 
#    z 0.000000 0.000000 3.603050 
# 
# 
# High freq. dielectric constant tensor:
#      x y z
#    x 1.619540 0.000000 0.000000 
#    y 0.000000 1.648020 0.000000 
#    z 0.000000 0.000000 1.628960 
# 
# From -- ./inp_files/75723.got.cif
#   From: 2010.03.12/outbox.cif.g09.slc.cpg/sg65_38_cif.got.tgz:75723.got - 2010.04.10 20:52:16.
