data_PCOD8267971
_publ_section_title
;
Structure prediction by ZEFSAII (Michael W. Deem and Ramdas Pophale) SiO2 
 PCOD8267971
Probable space group: C M M M
;
_chemical_formula_sum "Si O2"
_cell_formula_units_Z 120
_cell_length_a 21.393426
_cell_length_b 16.296799
_cell_length_c 18.735602
_cell_angle_alpha 90.000000
_cell_angle_beta 90.000000
_cell_angle_gamma 90.000000
_cell_volume 6532.062033
_symmetry_space_group_name_H-M "C M M M"
_symmetry_group_IT_number 65
_symmetry_cell_setting 'orthorhombic'
loop_
_space_group_symop_operation_xyz
x,y,z
-x,-y,z
x,-y,-z
-x,y,-z
-x,-y,-z
x,y,-z
-x,y,z
x,-y,z
1/2+x,1/2+y,z
1/2-x,1/2-y,z
1/2+x,1/2-y,-z
1/2-x,1/2+y,-z
1/2-x,1/2-y,-z
1/2+x,1/2+y,-z
1/2-x,1/2+y,z
1/2+x,1/2-y,z
loop_
_atom_site_type_symbol
_atom_site_label
_atom_site_fract_x
_atom_site_fract_y
_atom_site_fract_z
Si Si1 0.357852 0.597409 0.077378
Si Si2 0.373899 0.093289 0.643847
Si Si3 0.000000 0.597827 0.418446
Si Si4 0.816210 0.837195 0.713792
Si Si5 0.215983 0.597010 0.080130
Si Si6 0.812149 0.654030 0.227130
Si Si7 0.930713 0.903239 0.211538
Si Si8 0.255520 0.403028 0.582007
O O1 0.356660 0.500000 0.081581
O O2 0.287082 0.628779 0.087529
O O3 0.403127 0.634360 0.137755
O O4 0.383243 0.626040 0.000000
O O5 0.438530 0.136645 0.619824
O O6 0.363072 0.101098 0.729263
O O7 0.314315 0.128931 0.600894
O O8 0.380753 0.000000 0.621038
O O9 0.000000 0.500000 0.411183
O O10 0.000000 0.626306 0.500000
O O11 0.820088 0.744763 0.741601
O O12 0.758091 0.879936 0.755847
O O13 0.882668 0.880520 0.726195
O O14 0.803399 0.848728 0.629380
O O15 0.210722 0.500000 0.093243
O O16 0.176292 0.644458 0.141776
O O17 0.191149 0.618658 0.000000
O O18 0.000000 0.866069 0.225510
O O19 0.935962 0.000000 0.205537
O O20 0.270565 0.384283 0.500000
O O21 0.262708 0.500000 0.599383
#
# Coordination Sequence:
#
# PCOD8267971 Si02
#       8
#    16  16   8  16  16  16  16  16
#     4   8  14  25  43  69  97 123 156 201 251 293
#     4   9  17  29  48  73  98 128 164 201 242 297
#     4   9  16  28  46  70 101 125 150 196 245 292
#     4  10  20  33  47  71 103 129 163 208 258 302
#     4   9  16  28  50  76 101 131 166 208 252 292
#     4  10  19  32  48  71 102 133 167 201 253 310
#     4  10  19  31  49  70  94 132 173 209 253 298
#     4   9  17  31  53  76  96 125 166 210 255 300
#
# _framework density 18.370922
#
# number of rings (size 3 to 8) (size 9 to 14) (size 15 to 20)
#    0.000    2.733    1.333    2.000    0.000    2.933 
#    1.200    9.333    0.000    0.400    0.000    2.333 
#    0.000    2.667    0.000    0.000    0.000    0.000 
#
# Total GULP energy -743401.733323 kJ/mol
# GULP energy per Si atom -12390.028889 kJ/mol
# Density = 1.832911 g / cm^3
# Si number density = 18.370922 Si / 1000 Ang^3
#
#
#
# Elastic Constant Matrix: (Units=GPa)
#
#
# Indices 1 2 3 4 5 6 
#
# 1 103.9311 15.8907 68.4310 0.0000 0.0000 0.0000
# 2 15.8907 31.7621 29.5522 0.0000 0.0000 0.0000
# 3 68.4310 29.5522 165.4105 0.0000 0.0000 0.0000
# 4 0.0000 0.0000 0.0000 20.3496 0.0000 0.0000
# 5 0.0000 0.0000 0.0000 0.0000 26.2949 0.0000
# 6 0.0000 0.0000 0.0000 0.0000 0.0000 12.1192
#
#
#
# Elastic Compliance Matrix: (Units=1/GPa)
#
#
# Indices 1 2 3 4 5 6 
#
# 1 0.013313 -0.001842 -0.005179 0.000000 0.000000 0.000000
# 2 -0.001842 0.038016 -0.006030 0.000000 0.000000 0.000000
# 3 -0.005179 -0.006030 0.009265 0.000000 0.000000 0.000000
# 4 0.000000 0.000000 0.000000 0.049141 0.000000 0.000000
# 5 0.000000 0.000000 0.000000 0.000000 0.038030 0.000000
# 6 0.000000 0.000000 0.000000 0.000000 0.000000 0.082513
#
#
# Mechanical properties :
#
#
# Convention : Reuss Voigt Hill
#
# Bulk Modulus (GPa) = 28.99134 58.76129 43.87632
# Shear Modulus (GPa) = 18.66521 24.23473 21.44997
#
# Velocity S-wave (km/s) = 3.19096 3.63601 3.42073
# Velocity P-wave (km/s) = 5.42141 7.04861 6.28787
#
# Compressibility (1/GPa) = 0.03449305
#
# Stress axis : x y z
#
# Youngs Moduli (GPa) = 75.11377 26.30472 107.93045
#
# Poissons Ratio (x) = 0.04846 0.55892
# Poissons Ratio (y) = 0.13839 0.65079
# Poissons Ratio (z) = 0.38898 0.15861
#
# Static dielectric constant tensor:
#      x y z
#    x 3.480190 0.000000 0.000000 
#    y 0.000000 2.981730 0.000000 
#    z 0.000000 0.000000 3.557370 
# 
# 
# High freq. dielectric constant tensor:
#      x y z
#    x 1.681760 0.000000 0.000000 
#    y 0.000000 1.672470 0.000000 
#    z 0.000000 0.000000 1.718600 
# 
# From -- ./inp_files/56125.got.cif
#   From: 2010.03.12/outbox.cif.g09.slc.cpg/sg65_29_cif.got.tgz:56125.got - 2010.04.10 20:52:16.
