data_PCOD8267700
_publ_section_title
;
Structure prediction by ZEFSAII (Michael W. Deem and Ramdas Pophale) SiO2 
 PCOD8267700
Probable space group: C M M M
;
_chemical_formula_sum "Si O2"
_cell_formula_units_Z 88
_cell_length_a 30.446020
_cell_length_b 23.471820
_cell_length_c 8.762693
_cell_angle_alpha 90.000000
_cell_angle_beta 90.000000
_cell_angle_gamma 90.000000
_cell_volume 6262.026351
_symmetry_space_group_name_H-M "C M M M"
_symmetry_group_IT_number 65
_symmetry_cell_setting 'orthorhombic'
loop_
_space_group_symop_operation_xyz
x,y,z
-x,-y,z
x,-y,-z
-x,y,-z
-x,-y,-z
x,y,-z
-x,y,z
x,-y,z
1/2+x,1/2+y,z
1/2-x,1/2-y,z
1/2+x,1/2-y,-z
1/2-x,1/2+y,-z
1/2-x,1/2-y,-z
1/2+x,1/2+y,-z
1/2-x,1/2+y,z
1/2+x,1/2-y,z
loop_
_atom_site_type_symbol
_atom_site_label
_atom_site_fract_x
_atom_site_fract_y
_atom_site_fract_z
Si Si1 0.793268 0.212530 0.332184
Si Si2 0.000000 0.565285 0.319256
Si Si3 0.838936 0.322592 0.681029
Si Si4 0.754970 0.382787 0.179017
Si Si5 0.912740 0.390479 0.823254
Si Si6 0.354371 0.000000 0.827599
Si Si7 0.236686 0.500000 0.678353
O O1 0.804562 0.187611 0.500000
O O2 0.750000 0.250000 0.344762
O O3 0.831246 0.255891 0.275294
O O4 0.785035 0.160434 0.216740
O O5 0.041486 0.600481 0.260627
O O6 0.000000 0.500000 0.255873
O O7 0.000000 0.564415 0.500000
O O8 0.837369 0.331372 0.500000
O O9 0.801301 0.362650 0.751991
O O10 0.886568 0.337971 0.747848
O O11 0.741795 0.444016 0.246769
O O12 0.761213 0.387475 0.000000
O O13 0.884019 0.445982 0.796841
O O14 0.921479 0.377590 0.000000
O O15 0.315346 0.000000 0.707222
O O16 0.335190 0.000000 0.000000
O O17 0.246449 0.500000 0.500000
#
# Coordination Sequence:
#
# PCOD8267700 Si02
#       7
#    16   8  16  16  16   8   8
#     4   8  16  30  44  59  80 105 133 166 204 246
#     4  11  23  35  47  61  81 107 139 174 215 266
#     4  10  19  31  46  62  81 105 136 171 208 251
#     4  11  20  29  42  61  84 106 135 172 209 247
#     4  11  21  33  48  62  81 105 136 176 219 259
#     4  10  20  31  43  60  81 104 134 175 216 255
#     4  12  22  30  43  59  82 112 141 172 210 254
#
# _framework density 14.052959
#
# number of rings (size 3 to 8) (size 9 to 14) (size 15 to 20)
#    0.000    1.727    2.727    4.909    0.000    5.091 
#    0.000    0.000    0.000    0.000    0.000    0.000 
#    0.000    0.000    0.000    0.000    0.000    0.909 
#
# Total GULP energy -545535.280868 kJ/mol
# GULP energy per Si atom -12398.529111 kJ/mol
# Density = 1.402097 g / cm^3
# Si number density = 14.052959 Si / 1000 Ang^3
#
#
#
# Elastic Constant Matrix: (Units=GPa)
#
#
# Indices 1 2 3 4 5 6 
#
# 1 66.4328 45.3987 31.2789 0.0000 0.0000 0.0000
# 2 45.3987 89.3453 45.8543 0.0000 0.0000 0.0000
# 3 31.2789 45.8543 94.7808 0.0000 0.0000 0.0000
# 4 0.0000 0.0000 0.0000 16.6132 0.0000 0.0000
# 5 0.0000 0.0000 0.0000 0.0000 19.7930 0.0000
# 6 0.0000 0.0000 0.0000 0.0000 0.0000 6.7427
#
#
#
# Elastic Compliance Matrix: (Units=1/GPa)
#
#
# Indices 1 2 3 4 5 6 
#
# 1 0.023545 -0.010611 -0.002637 0.000000 0.000000 0.000000
# 2 -0.010611 0.019671 -0.006015 0.000000 0.000000 0.000000
# 3 -0.002637 -0.006015 0.014331 0.000000 0.000000 0.000000
# 4 0.000000 0.000000 0.000000 0.060193 0.000000 0.000000
# 5 0.000000 0.000000 0.000000 0.000000 0.050523 0.000000
# 6 0.000000 0.000000 0.000000 0.000000 0.000000 0.148309
#
#
# Mechanical properties :
#
#
# Convention : Reuss Voigt Hill
#
# Bulk Modulus (GPa) = 52.57038 55.06917 53.81977
# Shear Modulus (GPa) = 13.83362 17.16493 15.49927
#
# Velocity S-wave (km/s) = 3.14091 3.49871 3.32463
# Velocity P-wave (km/s) = 7.11644 7.45609 7.28824
#
# Compressibility (1/GPa) = 0.01902212
#
# Stress axis : x y z
#
# Youngs Moduli (GPa) = 42.47100 50.83562 69.77903
#
# Poissons Ratio (x) = 0.53940 0.18400
# Poissons Ratio (y) = 0.45065 0.41973
# Poissons Ratio (z) = 0.11199 0.30578
#
# Static dielectric constant tensor:
#      x y z
#    x 2.631700 0.000000 0.000000 
#    y 0.000000 2.954200 0.000000 
#    z 0.000000 0.000000 2.865030 
# 
# 
# High freq. dielectric constant tensor:
#      x y z
#    x 1.490950 0.000000 0.000000 
#    y 0.000000 1.525360 0.000000 
#    z 0.000000 0.000000 1.552530 
# 
# From -- ./inp_files/18822.got.cif
#   From: 2010.03.12/outbox.cif.g09.slc.cpg/sg65_10_cif.got.tgz:18822.got - 2010.04.10 20:52:16.
