data_PCOD8267603
_publ_section_title
;
Structure prediction by ZEFSAII (Michael W. Deem and Ramdas Pophale) SiO2 
 PCOD8267603
Probable space group: C M M M
;
_chemical_formula_sum "Si O2"
_cell_formula_units_Z 88
_cell_length_a 18.024934
_cell_length_b 29.509231
_cell_length_c 8.526494
_cell_angle_alpha 90.000000
_cell_angle_beta 90.000000
_cell_angle_gamma 90.000000
_cell_volume 4535.258710
_symmetry_space_group_name_H-M "C M M M"
_symmetry_group_IT_number 65
_symmetry_cell_setting 'orthorhombic'
loop_
_space_group_symop_operation_xyz
x,y,z
-x,-y,z
x,-y,-z
-x,y,-z
-x,-y,-z
x,y,-z
-x,y,z
x,-y,z
1/2+x,1/2+y,z
1/2-x,1/2-y,z
1/2+x,1/2-y,-z
1/2-x,1/2+y,-z
1/2-x,1/2-y,-z
1/2+x,1/2+y,-z
1/2-x,1/2+y,z
1/2+x,1/2-y,z
loop_
_atom_site_type_symbol
_atom_site_label
_atom_site_fract_x
_atom_site_fract_y
_atom_site_fract_z
Si Si1 0.805891 0.920926 0.812433
Si Si2 0.640702 0.770910 0.814834
Si Si3 0.500000 0.903949 0.818246
Si Si4 0.146202 0.552366 0.821103
Si Si5 0.585255 0.500000 0.813172
Si Si6 0.500000 0.189970 0.677385
Si Si7 0.286470 0.679237 0.816155
O O1 0.725965 0.936699 0.743477
O O2 0.815985 0.869147 0.749189
O O3 0.871041 0.954826 0.751870
O O4 0.805393 0.923293 0.000000
O O5 0.570374 0.779159 0.708495
O O6 0.666949 0.721722 0.753423
O O7 0.700264 0.810631 0.777256
O O8 0.622679 0.770241 0.000000
O O9 0.424164 0.922967 0.738570
O O10 0.500000 0.850426 0.801383
O O11 0.500000 0.918446 0.000000
O O12 0.129086 0.500000 0.808215
O O13 0.151078 0.569293 0.000000
O O14 0.500000 0.500000 0.749302
O O15 0.584121 0.500000 0.000000
O O16 0.500000 0.171719 0.500000
O O17 0.296426 0.677401 0.000000
#
# Coordination Sequence:
#
# PCOD8267603 Si02
#       7
#    16  16   8  16   8   8  16
#     4   9  14  23  38  60  92 128 159 189 235 291
#     4   9  17  33  53  73  97 125 162 206 251 297
#     4  10  19  30  48  72  96 128 171 209 244 287
#     4   9  15  24  42  70 100 126 157 202 245 284
#     4   9  16  24  32  49  89 135 162 180 222 290
#     4  12  24  35  47  69 102 135 167 204 249 299
#     4   8  15  28  50  74  94 122 162 206 249 295
#
# _framework density 19.403523
#
# number of rings (size 3 to 8) (size 9 to 14) (size 15 to 20)
#    0.000    2.818    0.909    3.273    0.000    4.000 
#    1.636    1.818    0.000    1.091    0.000    0.000 
#    0.000    0.000    0.000    0.818    0.000    1.273 
#
# Total GULP energy -545142.695620 kJ/mol
# GULP energy per Si atom -12389.606719 kJ/mol
# Density = 1.935936 g / cm^3
# Si number density = 19.403523 Si / 1000 Ang^3
#
#
#
# Elastic Constant Matrix: (Units=GPa)
#
#
# Indices 1 2 3 4 5 6 
#
# 1 159.0105 73.0533 12.1047 0.0000 0.0000 0.0000
# 2 73.0533 134.4171 6.1833 0.0000 0.0000 0.0000
# 3 12.1047 6.1833 13.5809 0.0000 0.0000 0.0000
# 4 0.0000 0.0000 0.0000 1.3943 0.0000 0.0000
# 5 0.0000 0.0000 0.0000 0.0000 -1.6126 0.0000
# 6 0.0000 0.0000 0.0000 0.0000 0.0000 30.0099
#
#
#
# Elastic Compliance Matrix: (Units=1/GPa)
#
#
# Indices 1 2 3 4 5 6 
#
# 1 0.008806 -0.004520 -0.005791 0.000000 0.000000 0.000000
# 2 -0.004520 0.009918 -0.000487 0.000000 0.000000 0.000000
# 3 -0.005791 -0.000487 0.079017 0.000000 0.000000 0.000000
# 4 0.000000 0.000000 0.000000 0.717186 0.000000 0.000000
# 5 0.000000 0.000000 0.000000 0.000000 -0.620135 0.000000
# 6 0.000000 0.000000 0.000000 0.000000 0.000000 0.033322
#
#
# Mechanical properties :
#
#
# Convention : Reuss Voigt Hill
#
# Bulk Modulus (GPa) = 13.13289 54.41010 33.77149
# Shear Modulus (GPa) = 18.17575 20.33614 19.25595
#
# Velocity S-wave (km/s) = 3.06392 3.24089 3.15365
# Velocity P-wave (km/s) = 4.39315 6.48897 5.54105
#
# Compressibility (1/GPa) = 0.07614470
#
# Stress axis : x y z
#
# Youngs Moduli (GPa) = 113.55688 100.82410 12.65555
#
# Poissons Ratio (x) = 0.45568 0.07329
# Poissons Ratio (y) = 0.51323 0.00617
# Poissons Ratio (z) = 0.65764 0.04914
#
# Static dielectric constant tensor:
#      x y z
#    x 3.755750 0.000000 0.000000 
#    y 0.000000 3.944990 0.000000 
#    z 0.000000 0.000000 2.717780 
# 
# 
# High freq. dielectric constant tensor:
#      x y z
#    x 1.760310 0.000000 0.000000 
#    y 0.000000 1.768240 0.000000 
#    z 0.000000 0.000000 1.669280 
# 
# From -- ./inp_files/10179.got.cif
#   From: 2010.03.12/outbox.cif.g09.slc.cpg/sg65_6_cif.got.tgz:10179.got - 2010.04.10 20:52:16.
