data_PCOD8267652
_publ_section_title
;
Structure prediction by ZEFSAII (Michael W. Deem and Ramdas Pophale) SiO2 
 PCOD8267652
Probable space group: C M M M
;
_chemical_formula_sum "Si O2"
_cell_formula_units_Z 56
_cell_length_a 14.077482
_cell_length_b 25.746258
_cell_length_c 7.773171
_cell_angle_alpha 90.000000
_cell_angle_beta 90.000000
_cell_angle_gamma 90.000000
_cell_volume 2817.327402
_symmetry_space_group_name_H-M "C M M M"
_symmetry_group_IT_number 65
_symmetry_cell_setting 'orthorhombic'
loop_
_space_group_symop_operation_xyz
x,y,z
-x,-y,z
x,-y,-z
-x,y,-z
-x,-y,-z
x,y,-z
-x,y,z
x,-y,z
1/2+x,1/2+y,z
1/2-x,1/2-y,z
1/2+x,1/2-y,-z
1/2-x,1/2+y,-z
1/2-x,1/2-y,-z
1/2+x,1/2+y,-z
1/2-x,1/2+y,z
1/2+x,1/2-y,z
loop_
_atom_site_type_symbol
_atom_site_label
_atom_site_fract_x
_atom_site_fract_y
_atom_site_fract_z
Si Si1 0.605939 0.827067 0.701474
Si Si2 0.608897 0.561399 0.000000
Si Si3 0.108409 0.784733 0.195455
Si Si4 0.711086 0.381959 0.307143
O O1 0.604086 0.816343 0.500000
O O2 0.500000 0.841609 0.769177
O O3 0.645318 0.774475 0.790366
O O4 0.677880 0.874278 0.745401
O O5 0.660022 0.580621 0.172701
O O6 0.613414 0.500000 0.000000
O O7 0.500000 0.581372 0.000000
O O8 0.165938 0.824500 0.313324
O O9 0.000000 0.785341 0.259142
O O10 0.118132 0.804461 0.000000
O O11 0.702360 0.405752 0.500000
#
# Coordination Sequence:
#
# PCOD8267652 Si02
#       4
#    16   8  16  16
#     4   9  19  34  52  82 122 158 192 227 265 320
#     4  11  26  46  64  85 111 137 178 240 298 345
#     4  10  19  30  49  82 122 159 192 227 269 323
#     4  11  22  37  61  86 112 152 193 230 279 336
#
# _framework density 19.876992999999999
#
# number of rings (size 3 to 8) (size 9 to 14) (size 15 to 20)
#    0.000    1.857    1.429    2.571    2.000    7.429 
#    0.000    1.429    0.000    1.714    0.000    4.000 
#    0.000    0.000    0.000    0.000    0.000    0.000 
#
# Total GULP energy -347177.542844 kJ/mol
# GULP energy per Si atom -12399.197959 kJ/mol
# Density = 1.983175 g / cm^3
# Si number density = 19.876993 Si / 1000 Ang^3
#
#
#
# Elastic Constant Matrix: (Units=GPa)
#
#
# Indices 1 2 3 4 5 6 
#
# 1 95.9675 46.5989 44.8104 0.0000 0.0000 0.0000
# 2 46.5989 59.3987 34.1605 0.0000 0.0000 0.0000
# 3 44.8104 34.1605 87.3267 0.0000 0.0000 0.0000
# 4 0.0000 0.0000 0.0000 18.9212 0.0000 0.0000
# 5 0.0000 0.0000 0.0000 0.0000 26.2337 0.0000
# 6 0.0000 0.0000 0.0000 0.0000 0.0000 25.8967
#
#
#
# Elastic Compliance Matrix: (Units=1/GPa)
#
#
# Indices 1 2 3 4 5 6 
#
# 1 0.018309 -0.011562 -0.004872 0.000000 0.000000 0.000000
# 2 -0.011562 0.029023 -0.005421 0.000000 0.000000 0.000000
# 3 -0.004872 -0.005421 0.016072 0.000000 0.000000 0.000000
# 4 0.000000 0.000000 0.000000 0.052851 0.000000 0.000000
# 5 0.000000 0.000000 0.000000 0.000000 0.038119 0.000000
# 6 0.000000 0.000000 0.000000 0.000000 0.000000 0.038615
#
#
# Mechanical properties :
#
#
# Convention : Reuss Voigt Hill
#
# Bulk Modulus (GPa) = 50.77457 54.87025 52.82241
# Shear Modulus (GPa) = 20.55389 22.01854 21.28622
#
# Velocity S-wave (km/s) = 3.21916 3.33188 3.27601
# Velocity P-wave (km/s) = 6.27831 6.51665 6.39859
#
# Compressibility (1/GPa) = 0.01969490
#
# Stress axis : x y z
#
# Youngs Moduli (GPa) = 54.61711 34.45548 62.22049
#
# Poissons Ratio (x) = 0.39836 0.30317
# Poissons Ratio (y) = 0.63146 0.33727
# Poissons Ratio (z) = 0.26612 0.18677
#
# Static dielectric constant tensor:
#      x y z
#    x 4.080750 0.000000 0.000000 
#    y 0.000000 3.132940 0.000000 
#    z 0.000000 0.000000 3.521810 
# 
# 
# High freq. dielectric constant tensor:
#      x y z
#    x 1.792720 0.000000 0.000000 
#    y 0.000000 1.721160 0.000000 
#    z 0.000000 0.000000 1.780000 
# 
# From -- ./inp_files/6995.got.cif
#   From: 2010.03.12/outbox.cif.g09.slc.cpg/sg65_4_cif.got.tgz:6995.got - 2010.04.10 20:52:16.
