data_PCOD8267569
_publ_section_title
;
Structure prediction by ZEFSAII (Michael W. Deem and Ramdas Pophale) SiO2 
 PCOD8267569
Probable space group: C M M M
;
_chemical_formula_sum "Si O2"
_cell_formula_units_Z 96
_cell_length_a 15.378693
_cell_length_b 23.369437
_cell_length_c 13.840432
_cell_angle_alpha 90.000000
_cell_angle_beta 90.000000
_cell_angle_gamma 90.000000
_cell_volume 4974.132194
_symmetry_space_group_name_H-M "C M M M"
_symmetry_group_IT_number 65
_symmetry_cell_setting 'orthorhombic'
loop_
_space_group_symop_operation_xyz
x,y,z
-x,-y,z
x,-y,-z
-x,y,-z
-x,-y,-z
x,y,-z
-x,y,z
x,-y,z
1/2+x,1/2+y,z
1/2-x,1/2-y,z
1/2+x,1/2-y,-z
1/2-x,1/2+y,-z
1/2-x,1/2-y,-z
1/2+x,1/2+y,-z
1/2-x,1/2+y,z
1/2+x,1/2-y,z
loop_
_atom_site_type_symbol
_atom_site_label
_atom_site_fract_x
_atom_site_fract_y
_atom_site_fract_z
Si Si1 0.715506 0.435517 0.795232
Si Si2 0.904185 0.434904 0.732319
Si Si3 0.403025 0.725589 0.710869
Si Si4 0.899290 0.843671 0.890558
Si Si5 0.853643 0.334515 0.605032
Si Si6 0.663962 0.379271 0.394270
O O1 0.699631 0.500000 0.828197
O O2 0.819753 0.420979 0.799252
O O3 0.664275 0.396969 0.871652
O O4 0.675395 0.428254 0.686989
O O5 0.892412 0.500000 0.691943
O O6 0.905996 0.388888 0.646265
O O7 0.000000 0.430435 0.784741
O O8 0.500000 0.749278 0.714027
O O9 0.371887 0.707719 0.818635
O O10 0.348798 0.779491 0.674341
O O11 0.401315 0.669830 0.642188
O O12 0.000000 0.861596 0.871401
O O13 0.886346 0.822452 0.000000
O O14 0.894731 0.319287 0.500000
O O15 0.754659 0.349063 0.590954
O O16 0.633169 0.403577 0.500000
#
# Coordination Sequence:
#
# PCOD8267569 Si02
#       6
#    16  16  16  16  16  16
#     4   9  18  32  51  75 101 130 166 206 246 292
#     4   9  18  32  49  70 100 138 173 204 241 284
#     4  10  19  30  47  71  98 127 162 205 250 298
#     4   9  19  36  56  77 100 125 157 204 259 306
#     4  10  19  30  47  72 101 135 174 209 241 283
#     4   9  18  31  46  66  98 137 169 201 242 288
#
# _framework density 19.299848999999998
#
# number of rings (size 3 to 8) (size 9 to 14) (size 15 to 20)
#    0.000    2.667    0.000    1.500    0.000    5.000 
#    0.000    5.000    0.000   18.500    0.000    7.000 
#    0.000    0.000    0.000    0.000    0.000    0.167 
#
# Total GULP energy -594634.954978 kJ/mol
# GULP energy per Si atom -12388.228229 kJ/mol
# Density = 1.925592 g / cm^3
# Si number density = 19.299849 Si / 1000 Ang^3
#
#
#
# Elastic Constant Matrix: (Units=GPa)
#
#
# Indices 1 2 3 4 5 6 
#
# 1 55.4145 31.7581 24.7849 0.0000 0.0000 0.0000
# 2 31.7581 84.4847 23.9099 0.0000 0.0000 0.0000
# 3 24.7849 23.9099 90.4066 0.0000 0.0000 0.0000
# 4 0.0000 0.0000 0.0000 16.8505 0.0000 0.0000
# 5 0.0000 0.0000 0.0000 0.0000 16.1026 0.0000
# 6 0.0000 0.0000 0.0000 0.0000 0.0000 5.3825
#
#
#
# Elastic Compliance Matrix: (Units=1/GPa)
#
#
# Indices 1 2 3 4 5 6 
#
# 1 0.024696 -0.007963 -0.004664 0.000000 0.000000 0.000000
# 2 -0.007963 0.015362 -0.001880 0.000000 0.000000 0.000000
# 3 -0.004664 -0.001880 0.012837 0.000000 0.000000 0.000000
# 4 0.000000 0.000000 0.000000 0.059345 0.000000 0.000000
# 5 0.000000 0.000000 0.000000 0.000000 0.062102 0.000000
# 6 0.000000 0.000000 0.000000 0.000000 0.000000 0.185787
#
#
# Mechanical properties :
#
#
# Convention : Reuss Voigt Hill
#
# Bulk Modulus (GPa) = 41.87557 43.46794 42.67175
# Shear Modulus (GPa) = 12.59121 17.65733 15.12427
#
# Velocity S-wave (km/s) = 2.55698 3.02800 2.80241
# Velocity P-wave (km/s) = 5.51924 5.89885 5.71220
#
# Compressibility (1/GPa) = 0.02388027
#
# Stress axis : x y z
#
# Youngs Moduli (GPa) = 40.49294 65.09658 77.90004
#
# Poissons Ratio (x) = 0.51837 0.36335
# Poissons Ratio (y) = 0.32245 0.14643
# Poissons Ratio (z) = 0.18887 0.12236
#
# Static dielectric constant tensor:
#      x y z
#    x 3.675000 0.000000 0.000000 
#    y 0.000000 3.395070 0.000000 
#    z 0.000000 0.000000 3.559210 
# 
# 
# High freq. dielectric constant tensor:
#      x y z
#    x 1.757560 0.000000 0.000000 
#    y 0.000000 1.740290 0.000000 
#    z 0.000000 0.000000 1.721640 
# 
# From -- ./inp_files/40371.got.cif
#   From: 2010.03.12/outbox.cif.g09.slc.cpg/sg65_21_cif.got.tgz:40371.got - 2010.04.10 20:52:16.
