data_PCOD8267260
_publ_section_title
;
Structure prediction by ZEFSAII (Michael W. Deem and Ramdas Pophale) SiO2 
 PCOD8267260
Probable space group: C M M M
;
_chemical_formula_sum "Si O2"
_cell_formula_units_Z 120
_cell_length_a 13.935001
_cell_length_b 21.412217
_cell_length_c 24.979782
_cell_angle_alpha 90.000000
_cell_angle_beta 90.000000
_cell_angle_gamma 90.000000
_cell_volume 7453.449001
_symmetry_space_group_name_H-M "C M M M"
_symmetry_group_IT_number 65
_symmetry_cell_setting 'orthorhombic'
loop_
_space_group_symop_operation_xyz
x,y,z
-x,-y,z
x,-y,-z
-x,y,-z
-x,-y,-z
x,y,-z
-x,y,z
x,-y,z
1/2+x,1/2+y,z
1/2-x,1/2-y,z
1/2+x,1/2-y,-z
1/2-x,1/2+y,-z
1/2-x,1/2-y,-z
1/2+x,1/2+y,-z
1/2-x,1/2+y,z
1/2+x,1/2-y,z
loop_
_atom_site_type_symbol
_atom_site_label
_atom_site_fract_x
_atom_site_fract_y
_atom_site_fract_z
Si Si1 0.107055 0.737407 0.604566
Si Si2 0.710831 0.148616 0.739119
Si Si3 0.390007 0.274395 0.723158
Si Si4 0.607463 0.634433 0.439967
Si Si5 0.886989 0.500000 0.439270
Si Si6 0.709811 0.886469 0.618646
Si Si7 0.390504 0.074453 0.828012
Si Si8 0.613714 0.930328 0.943390
O O1 0.129562 0.773898 0.659743
O O2 0.117398 0.790015 0.559354
O O3 0.180099 0.681011 0.594379
O O4 0.000000 0.708629 0.606698
O O5 0.637382 0.206226 0.745158
O O6 0.820299 0.172366 0.747205
O O7 0.698110 0.113352 0.682516
O O8 0.684571 0.099807 0.784937
O O9 0.500000 0.290122 0.738036
O O10 0.628014 0.610858 0.500000
O O11 0.500000 0.615627 0.421617
O O12 0.680740 0.600969 0.399417
O O13 0.844858 0.500000 0.500000
O O14 0.855952 0.439221 0.406671
O O15 0.000000 0.500000 0.442181
O O16 0.500000 0.095340 0.814740
O O17 0.356213 0.101315 0.886729
O O18 0.384663 0.000000 0.828540
O O19 0.500000 0.934673 0.941831
O O20 0.656765 0.000000 0.945038
O O21 0.645829 0.896361 0.000000
#
# Coordination Sequence:
#
# PCOD8267260 Si02
#       8
#    16  16  16  16   8  16  16  16
#     4   9  17  31  50  72  92 109 137 179 228 274
#     4  10  19  29  47  72  92 118 151 181 224 274
#     4   9  17  31  48  66  91 118 147 186 226 267
#     4  10  20  33  52  75  91 106 137 185 236 278
#     4  11  26  42  51  63  85 117 153 179 206 263
#     4  11  21  35  51  67  89 121 147 177 219 268
#     4   9  17  27  41  67 102 130 153 188 224 261
#     4   7  10  19  36  58  88 127 161 185 218 259
#
# _framework density 16.099928999999999
#
# number of rings (size 3 to 8) (size 9 to 14) (size 15 to 20)
#    0.000    2.600    1.333    2.800    0.933    3.200 
#    0.000    1.667    0.000    1.600    0.000    1.867 
#    0.000    1.600    0.000    3.333    0.000    0.267 
#
# Total GULP energy -743451.654919 kJ/mol
# GULP energy per Si atom -12390.860915 kJ/mol
# Density = 1.606328 g / cm^3
# Si number density = 16.099929 Si / 1000 Ang^3
#
#
#
# Elastic Constant Matrix: (Units=GPa)
#
#
# Indices 1 2 3 4 5 6 
#
# 1 91.7463 23.4455 42.0030 0.0000 0.0000 0.0000
# 2 23.4455 35.9271 34.6241 0.0000 0.0000 0.0000
# 3 42.0030 34.6241 109.2814 0.0000 0.0000 0.0000
# 4 0.0000 0.0000 0.0000 12.9522 0.0000 0.0000
# 5 0.0000 0.0000 0.0000 0.0000 15.9922 0.0000
# 6 0.0000 0.0000 0.0000 0.0000 0.0000 23.5091
#
#
#
# Elastic Compliance Matrix: (Units=1/GPa)
#
#
# Indices 1 2 3 4 5 6 
#
# 1 0.013989 -0.005682 -0.003576 0.000000 0.000000 0.000000
# 2 -0.005682 0.042377 -0.011242 0.000000 0.000000 0.000000
# 3 -0.003576 -0.011242 0.014087 0.000000 0.000000 0.000000
# 4 0.000000 0.000000 0.000000 0.077207 0.000000 0.000000
# 5 0.000000 0.000000 0.000000 0.000000 0.062531 0.000000
# 6 0.000000 0.000000 0.000000 0.000000 0.000000 0.042537
#
#
# Mechanical properties :
#
#
# Convention : Reuss Voigt Hill
#
# Bulk Modulus (GPa) = 33.95471 48.56667 41.26069
# Shear Modulus (GPa) = 16.47191 19.61619 18.04405
#
# Velocity S-wave (km/s) = 3.20207 3.49435 3.35140
# Velocity P-wave (km/s) = 5.89973 6.81996 6.37647
#
# Compressibility (1/GPa) = 0.02945100
#
# Stress axis : x y z
#
# Youngs Moduli (GPa) = 71.48433 23.59763 70.98597
#
# Poissons Ratio (x) = 0.13409 0.25388
# Poissons Ratio (y) = 0.40620 0.79806
# Poissons Ratio (z) = 0.25566 0.26530
#
# Static dielectric constant tensor:
#      x y z
#    x 3.021010 0.000000 0.000000 
#    y 0.000000 2.730510 0.000000 
#    z 0.000000 0.000000 3.251390 
# 
# 
# High freq. dielectric constant tensor:
#      x y z
#    x 1.610050 0.000000 0.000000 
#    y 0.000000 1.583550 0.000000 
#    z 0.000000 0.000000 1.605720 
# 
# From -- ./inp_files/70247.got.cif
#   From: 2010.03.12/outbox.cif.g09.slc.cpg/sg65_36_cif.got.tgz:70247.got - 2010.04.10 20:52:16.
