data_PCOD8267591
_publ_section_title
;
Structure prediction by ZEFSAII (Michael W. Deem and Ramdas Pophale) SiO2 
 PCOD8267591
Probable space group: C M M M
;
_chemical_formula_sum "Si O2"
_cell_formula_units_Z 112
_cell_length_a 14.870332
_cell_length_b 23.179615
_cell_length_c 15.643582
_cell_angle_alpha 90.000000
_cell_angle_beta 90.000000
_cell_angle_gamma 90.000000
_cell_volume 5392.163920
_symmetry_space_group_name_H-M "C M M M"
_symmetry_group_IT_number 65
_symmetry_cell_setting 'orthorhombic'
loop_
_space_group_symop_operation_xyz
x,y,z
-x,-y,z
x,-y,-z
-x,y,-z
-x,-y,-z
x,y,-z
-x,y,z
x,-y,z
1/2+x,1/2+y,z
1/2-x,1/2-y,z
1/2+x,1/2-y,-z
1/2-x,1/2+y,-z
1/2-x,1/2-y,-z
1/2+x,1/2+y,-z
1/2-x,1/2+y,z
1/2+x,1/2-y,z
loop_
_atom_site_type_symbol
_atom_site_label
_atom_site_fract_x
_atom_site_fract_y
_atom_site_fract_z
Si Si1 0.606534 0.756802 0.257677
Si Si2 0.163483 0.436786 0.859006
Si Si3 0.270818 0.934609 0.668918
Si Si4 0.363867 0.434480 0.094600
Si Si5 0.601726 0.182266 0.907592
Si Si6 0.101183 0.126644 0.735133
Si Si7 0.896705 0.656606 0.596329
O O1 0.500000 0.758322 0.250146
O O2 0.649990 0.784190 0.170898
O O3 0.640303 0.691568 0.268176
O O4 0.637863 0.793629 0.339581
O O5 0.121657 0.500000 0.879517
O O6 0.178471 0.430770 0.758391
O O7 0.256923 0.429327 0.907995
O O8 0.098463 0.386423 0.890264
O O9 0.168190 0.912084 0.678734
O O10 0.330299 0.898044 0.602833
O O11 0.265172 0.000000 0.635005
O O12 0.392301 0.500000 0.117411
O O13 0.405007 0.392771 0.165899
O O14 0.400145 0.417428 0.000000
O O15 0.500000 0.203710 0.913186
O O16 0.648578 0.195267 0.000000
O O17 0.000000 0.123176 0.696447
O O18 0.890469 0.680868 0.500000
O O19 0.000000 0.638407 0.617444
#
# Coordination Sequence:
#
# PCOD8267591 Si02
#       7
#    16  16  16  16  16  16  16
#     4   9  19  37  56  80 117 154 195 247 291 339
#     4   9  17  31  49  69 105 153 192 235 290 345
#     4  10  21  37  59  88 119 150 188 237 293 354
#     4   9  18  32  50  76 110 148 199 258 303 344
#     4  10  19  30  47  73 109 155 200 240 286 342
#     4  10  21  37  58  81 113 160 204 245 297 348
#     4  10  21  40  67  94 120 151 187 234 296 359
#
# _framework density 20.770880999999999
#
# number of rings (size 3 to 8) (size 9 to 14) (size 15 to 20)
#    0.000    2.429    1.429    1.714    0.000    4.286 
#    0.000    6.429    0.000    3.857    0.000    1.000 
#    0.000    0.000    0.000    0.000    0.000    0.000 
#
# Total GULP energy -694121.237005 kJ/mol
# GULP energy per Si atom -12395.022089 kJ/mol
# Density = 2.072361 g / cm^3
# Si number density = 20.770881 Si / 1000 Ang^3
#
#
#
# Elastic Constant Matrix: (Units=GPa)
#
#
# Indices 1 2 3 4 5 6 
#
# 1 56.0543 27.9960 25.6754 0.0000 0.0000 0.0000
# 2 27.9960 135.8465 49.1973 0.0000 0.0000 0.0000
# 3 25.6754 49.1973 104.4460 0.0000 0.0000 0.0000
# 4 0.0000 0.0000 0.0000 16.4632 0.0000 0.0000
# 5 0.0000 0.0000 0.0000 0.0000 14.3686 0.0000
# 6 0.0000 0.0000 0.0000 0.0000 0.0000 27.5193
#
#
#
# Elastic Compliance Matrix: (Units=1/GPa)
#
#
# Indices 1 2 3 4 5 6 
#
# 1 0.021053 -0.002971 -0.003776 0.000000 0.000000 0.000000
# 2 -0.002971 0.009295 -0.003648 0.000000 0.000000 0.000000
# 3 -0.003776 -0.003648 0.012221 0.000000 0.000000 0.000000
# 4 0.000000 0.000000 0.000000 0.060742 0.000000 0.000000
# 5 0.000000 0.000000 0.000000 0.000000 0.069596 0.000000
# 6 0.000000 0.000000 0.000000 0.000000 0.000000 0.036338
#
#
# Mechanical properties :
#
#
# Convention : Reuss Voigt Hill
#
# Bulk Modulus (GPa) = 45.91574 55.78712 50.85143
# Shear Modulus (GPa) = 21.07092 24.56877 22.81985
#
# Velocity S-wave (km/s) = 3.18849 3.44298 3.31818
# Velocity P-wave (km/s) = 5.97571 6.53622 6.26224
#
# Compressibility (1/GPa) = 0.02177902
#
# Stress axis : x y z
#
# Youngs Moduli (GPa) = 47.49834 107.58941 81.82865
#
# Poissons Ratio (x) = 0.31969 0.30897
# Poissons Ratio (y) = 0.14113 0.29848
# Poissons Ratio (z) = 0.17935 0.39244
#
# Static dielectric constant tensor:
#      x y z
#    x 3.454990 0.000000 0.000000 
#    y 0.000000 3.863070 0.000000 
#    z 0.000000 0.000000 3.690090 
# 
# 
# High freq. dielectric constant tensor:
#      x y z
#    x 1.793140 0.000000 0.000000 
#    y 0.000000 1.810080 0.000000 
#    z 0.000000 0.000000 1.797050 
# 
# From -- ./inp_files/40862.got.cif
#   From: 2010.03.12/outbox.cif.g09.slc.cpg/sg65_21_cif.got.tgz:40862.got - 2010.04.10 20:52:16.
