data_PCOD8267077
_publ_section_title
;
Structure prediction by ZEFSAII (Michael W. Deem and Ramdas Pophale) SiO2 
 PCOD8267077
Probable space group: C M M M
;
_chemical_formula_sum "Si O2"
_cell_formula_units_Z 112
_cell_length_a 22.120025
_cell_length_b 18.699370
_cell_length_c 14.836419
_cell_angle_alpha 90.000000
_cell_angle_beta 90.000000
_cell_angle_gamma 90.000000
_cell_volume 6136.795882
_symmetry_space_group_name_H-M "C M M M"
_symmetry_group_IT_number 65
_symmetry_cell_setting 'orthorhombic'
loop_
_space_group_symop_operation_xyz
x,y,z
-x,-y,z
x,-y,-z
-x,y,-z
-x,-y,-z
x,y,-z
-x,y,z
x,-y,z
1/2+x,1/2+y,z
1/2-x,1/2-y,z
1/2+x,1/2-y,-z
1/2-x,1/2+y,-z
1/2-x,1/2-y,-z
1/2+x,1/2+y,-z
1/2-x,1/2+y,z
1/2+x,1/2-y,z
loop_
_atom_site_type_symbol
_atom_site_label
_atom_site_fract_x
_atom_site_fract_y
_atom_site_fract_z
Si Si1 0.164705 0.585030 0.599955
Si Si2 0.432813 0.082580 0.738304
Si Si3 0.569562 0.314759 0.102035
Si Si4 0.761265 0.418541 0.103446
Si Si5 0.800035 0.915041 0.599831
Si Si6 0.382261 0.838711 0.897379
Si Si7 0.644138 0.416310 0.781841
O O1 0.147152 0.611693 0.500000
O O2 0.162021 0.500000 0.603652
O O3 0.115926 0.617187 0.669648
O O4 0.232302 0.612295 0.623612
O O5 0.500000 0.092895 0.697915
O O6 0.430014 0.121947 0.833934
O O7 0.418203 0.000000 0.755135
O O8 0.500000 0.293662 0.119868
O O9 0.612265 0.246138 0.116497
O O10 0.588262 0.374998 0.173795
O O11 0.577439 0.344125 0.000000
O O12 0.782426 0.500000 0.123632
O O13 0.814960 0.364468 0.128451
O O14 0.704585 0.397612 0.163851
O O15 0.741411 0.409859 0.000000
O O16 0.820087 0.886999 0.500000
O O17 0.846310 0.890149 0.678040
O O18 0.797792 0.000000 0.598286
O O19 0.397772 0.860144 0.000000
O O20 0.628953 0.500000 0.786436
#
# Coordination Sequence:
#
# PCOD8267077 Si02
#       7
#    16  16  16  16  16  16  16
#     4   8  14  26  44  67  97 129 159 196 244 293
#     4  10  19  28  42  67  95 126 169 214 250 288
#     4  10  22  38  53  70  95 132 175 209 240 286
#     4   9  17  29  48  76 105 130 160 202 252 299
#     4   8  14  26  47  74  99 122 149 186 239 301
#     4  10  20  34  50  67  95 133 168 204 245 291
#     4  10  19  32  53  79 105 128 155 200 251 295
#
# _framework density 18.250565000000002
#
# number of rings (size 3 to 8) (size 9 to 14) (size 15 to 20)
#    0.000    2.714    0.000    3.000    0.000    6.000 
#    0.000    5.000    0.000    1.286    0.000    5.000 
#    0.000    0.000    0.000    0.000    0.000    0.000 
#
# Total GULP energy -694201.439709 kJ/mol
# GULP energy per Si atom -12396.454281 kJ/mol
# Density = 1.820903 g / cm^3
# Si number density = 18.250565 Si / 1000 Ang^3
#
#
#
# Elastic Constant Matrix: (Units=GPa)
#
#
# Indices 1 2 3 4 5 6 
#
# 1 59.9510 29.1499 41.5705 0.0000 0.0000 0.0000
# 2 29.1499 45.0942 31.3530 0.0000 0.0000 0.0000
# 3 41.5705 31.3530 107.7591 0.0000 0.0000 0.0000
# 4 0.0000 0.0000 0.0000 11.0641 0.0000 0.0000
# 5 0.0000 0.0000 0.0000 0.0000 27.8647 0.0000
# 6 0.0000 0.0000 0.0000 0.0000 0.0000 21.6788
#
#
#
# Elastic Compliance Matrix: (Units=1/GPa)
#
#
# Indices 1 2 3 4 5 6 
#
# 1 0.027911 -0.013233 -0.006917 0.000000 0.000000 0.000000
# 2 -0.013233 0.034073 -0.004809 0.000000 0.000000 0.000000
# 3 -0.006917 -0.004809 0.013348 0.000000 0.000000 0.000000
# 4 0.000000 0.000000 0.000000 0.090382 0.000000 0.000000
# 5 0.000000 0.000000 0.000000 0.000000 0.035888 0.000000
# 6 0.000000 0.000000 0.000000 0.000000 0.000000 0.046128
#
#
# Mechanical properties :
#
#
# Convention : Reuss Voigt Hill
#
# Bulk Modulus (GPa) = 39.34840 46.32791 42.83816
# Shear Modulus (GPa) = 16.33352 19.50358 17.91855
#
# Velocity S-wave (km/s) = 2.99483 3.27258 3.13678
# Velocity P-wave (km/s) = 5.79358 6.30231 6.05330
#
# Compressibility (1/GPa) = 0.02541399
#
# Stress axis : x y z
#
# Youngs Moduli (GPa) = 35.82833 29.34847 74.92018
#
# Poissons Ratio (x) = 0.38837 0.51823
# Poissons Ratio (y) = 0.47411 0.36028
# Poissons Ratio (z) = 0.24783 0.14113
#
# Static dielectric constant tensor:
#      x y z
#    x 3.239330 0.000000 0.000000 
#    y 0.000000 2.967990 0.000000 
#    z 0.000000 0.000000 3.732930 
# 
# 
# High freq. dielectric constant tensor:
#      x y z
#    x 1.693270 0.000000 0.000000 
#    y 0.000000 1.661860 0.000000 
#    z 0.000000 0.000000 1.716060 
# 
# From -- ./inp_files/45768.got.cif
#   From: 2010.03.12/outbox.cif.g09.slc.cpg/sg65_23_cif.got.tgz:45768.got - 2010.04.10 20:52:16.
