data_PCOD8267020
_publ_section_title
;
Structure prediction by ZEFSAII (Michael W. Deem and Ramdas Pophale) SiO2 
 PCOD8267020
Probable space group: C M M M
;
_chemical_formula_sum "Si O2"
_cell_formula_units_Z 80
_cell_length_a 16.811871
_cell_length_b 24.788700
_cell_length_c 12.665952
_cell_angle_alpha 90.000000
_cell_angle_beta 90.000000
_cell_angle_gamma 90.000000
_cell_volume 5278.464904
_symmetry_space_group_name_H-M "C M M M"
_symmetry_group_IT_number 65
_symmetry_cell_setting 'orthorhombic'
loop_
_space_group_symop_operation_xyz
x,y,z
-x,-y,z
x,-y,-z
-x,y,-z
-x,-y,-z
x,y,-z
-x,y,z
x,-y,z
1/2+x,1/2+y,z
1/2-x,1/2-y,z
1/2+x,1/2-y,-z
1/2-x,1/2+y,-z
1/2-x,1/2-y,-z
1/2+x,1/2+y,-z
1/2-x,1/2+y,z
1/2+x,1/2-y,z
loop_
_atom_site_type_symbol
_atom_site_label
_atom_site_fract_x
_atom_site_fract_y
_atom_site_fract_z
Si Si1 0.094658 0.061204 0.273068
Si Si2 0.500000 0.061204 0.874212
Si Si3 0.816353 0.140057 0.874946
Si Si4 0.911661 0.757178 0.125081
Si Si5 0.912646 0.064095 0.500000
Si Si6 0.863994 0.359146 0.125398
O O1 0.129807 0.095407 0.178603
O O2 0.129042 0.080896 0.388689
O O3 0.000000 0.066652 0.273235
O O4 0.120744 0.000000 0.251702
O O5 0.421572 0.093050 0.832999
O O6 0.500000 0.000000 0.828845
O O7 0.500000 0.059400 0.000000
O O8 0.847012 0.198897 0.837186
O O9 0.726051 0.130543 0.837651
O O10 0.825821 0.133673 0.000000
O O11 0.891220 0.698465 0.172924
O O12 0.000000 0.774445 0.163041
O O13 0.908930 0.752976 0.000000
O O14 0.000000 0.090512 0.500000
O O15 0.921670 0.000000 0.500000
O O16 0.868924 0.356768 0.000000
#
# Coordination Sequence:
#
# PCOD8267020 Si02
#       6
#    16   8  16  16   8  16
#     4   9  17  29  43  59  82 111 142 173 204 241
#     4   9  16  26  40  54  70 103 150 190 217 241
#     4  10  19  26  37  61  90 115 137 164 208 264
#     4   9  15  25  40  55  76 108 147 180 203 237
#     4   7  12  26  46  60  71  99 143 183 208 227
#     4   9  16  27  39  53  77 110 145 178 210 243
#
# _framework density 15.155920999999999
#
# number of rings (size 3 to 8) (size 9 to 14) (size 15 to 20)
#    0.000    3.000    1.000    2.400    0.000    4.800 
#    0.000    3.000    0.000    0.000    0.000    2.800 
#    0.000    0.800    0.000    4.500    0.000    1.200 
#
# Total GULP energy -495577.791451 kJ/mol
# GULP energy per Si atom -12389.444786 kJ/mol
# Density = 1.512143 g / cm^3
# Si number density = 15.155921 Si / 1000 Ang^3
#
#
#
# Elastic Constant Matrix: (Units=GPa)
#
#
# Indices 1 2 3 4 5 6 
#
# 1 74.1559 54.4457 21.0146 0.0000 0.0000 0.0000
# 2 54.4457 113.5881 26.9245 0.0000 0.0000 0.0000
# 3 21.0146 26.9245 29.0540 0.0000 0.0000 0.0000
# 4 0.0000 0.0000 0.0000 3.6623 0.0000 0.0000
# 5 0.0000 0.0000 0.0000 0.0000 5.3711 0.0000
# 6 0.0000 0.0000 0.0000 0.0000 0.0000 15.2205
#
#
#
# Elastic Compliance Matrix: (Units=1/GPa)
#
#
# Indices 1 2 3 4 5 6 
#
# 1 0.022144 -0.008737 -0.007920 0.000000 0.000000 0.000000
# 2 -0.008737 0.014729 -0.007330 0.000000 0.000000 0.000000
# 3 -0.007920 -0.007330 0.046940 0.000000 0.000000 0.000000
# 4 0.000000 0.000000 0.000000 0.273053 0.000000 0.000000
# 5 0.000000 0.000000 0.000000 0.000000 0.186183 0.000000
# 6 0.000000 0.000000 0.000000 0.000000 0.000000 0.065701
#
#
# Mechanical properties :
#
#
# Convention : Reuss Voigt Hill
#
# Bulk Modulus (GPa) = 27.90262 46.84085 37.37174
# Shear Modulus (GPa) = 7.47751 12.47831 9.97791
#
# Velocity S-wave (km/s) = 2.22361 2.87248 2.56862
# Velocity P-wave (km/s) = 5.00429 6.47878 5.78868
#
# Compressibility (1/GPa) = 0.03583892
#
# Stress axis : x y z
#
# Youngs Moduli (GPa) = 45.15830 67.89289 21.30364
#
# Poissons Ratio (x) = 0.59318 0.16873
# Poissons Ratio (y) = 0.39455 0.15616
# Poissons Ratio (z) = 0.35767 0.49766
#
# Static dielectric constant tensor:
#      x y z
#    x 2.979660 0.000000 0.000000 
#    y 0.000000 3.003350 0.000000 
#    z 0.000000 0.000000 2.576110 
# 
# 
# High freq. dielectric constant tensor:
#      x y z
#    x 1.577750 0.000000 0.000000 
#    y 0.000000 1.581010 0.000000 
#    z 0.000000 0.000000 1.516630 
# 
# From -- ./inp_files/27282.got.cif
#   From: 2010.03.12/outbox.cif.g09.slc.cpg/sg65_14_cif.got.tgz:27282.got - 2010.04.10 20:52:16.
