data_PCOD8267982
_publ_section_title
;
Structure prediction by ZEFSAII (Michael W. Deem and Ramdas Pophale) SiO2 
 PCOD8267982
Probable space group: C M M M
;
_chemical_formula_sum "Si O2"
_cell_formula_units_Z 96
_cell_length_a 9.186797
_cell_length_b 18.826285
_cell_length_c 30.499644
_cell_angle_alpha 90.000000
_cell_angle_beta 90.000000
_cell_angle_gamma 90.000000
_cell_volume 5275.012815
_symmetry_space_group_name_H-M "C M M M"
_symmetry_group_IT_number 65
_symmetry_cell_setting 'orthorhombic'
loop_
_space_group_symop_operation_xyz
x,y,z
-x,-y,z
x,-y,-z
-x,y,-z
-x,-y,-z
x,y,-z
-x,y,z
x,-y,z
1/2+x,1/2+y,z
1/2-x,1/2-y,z
1/2+x,1/2-y,-z
1/2-x,1/2+y,-z
1/2-x,1/2-y,-z
1/2+x,1/2+y,-z
1/2-x,1/2+y,z
1/2+x,1/2-y,z
loop_
_atom_site_type_symbol
_atom_site_label
_atom_site_fract_x
_atom_site_fract_y
_atom_site_fract_z
Si Si1 0.669839 0.678862 0.550332
Si Si2 0.836327 0.416142 0.384916
Si Si3 0.826732 0.325287 0.208014
Si Si4 0.170439 0.678128 0.049686
Si Si5 0.672527 0.921119 0.287329
Si Si6 0.827543 0.579283 0.126986
O O1 0.706680 0.660723 0.500000
O O2 0.500000 0.689771 0.557812
O O3 0.750000 0.750000 0.565630
O O4 0.725623 0.614652 0.579796
O O5 0.834446 0.500000 0.389903
O O6 0.782659 0.395029 0.335996
O O7 0.000000 0.387362 0.393402
O O8 0.750000 0.250000 0.204578
O O9 0.770340 0.364534 0.251970
O O10 0.773194 0.373298 0.167476
O O11 0.000000 0.314522 0.207876
O O12 0.250000 0.750000 0.063764
O O13 0.223761 0.615162 0.081481
O O14 0.000000 0.692342 0.055172
O O15 0.210390 0.656060 0.000000
O O16 0.500000 0.926860 0.284515
O O17 0.737135 0.000000 0.277609
O O18 0.759934 0.500000 0.129869
O O19 0.000000 0.573655 0.128528
#
# Coordination Sequence:
#
# PCOD8267982 Si02
#       6
#    16  16  16  16  16  16
#     4  10  21  36  53  73  99 131 166 204 244 286
#     4   9  18  33  53  76 101 129 161 197 239 289
#     4  10  19  31  49  71  95 123 156 195 236 280
#     4   9  17  29  46  68  94 123 154 192 237 282
#     4   8  15  30  51  72  94 123 159 195 231 275
#     4   9  17  29  47  70  92 119 159 200 235 275
#
# _framework density 18.199009
#
# number of rings (size 3 to 8) (size 9 to 14) (size 15 to 20)
#    0.000    2.833    0.000    2.500    0.000    4.667 
#    0.000    5.833    0.000    4.500    0.000    2.333 
#    0.000    0.000    0.000    0.000    0.000    0.000 
#
# Total GULP energy -595119.826753 kJ/mol
# GULP energy per Si atom -12398.329724 kJ/mol
# Density = 1.815759 g / cm^3
# Si number density = 18.199009 Si / 1000 Ang^3
#
#
#
# Elastic Constant Matrix: (Units=GPa)
#
#
# Indices 1 2 3 4 5 6 
#
# 1 38.7031 35.2391 36.4272 0.0000 0.0000 0.0000
# 2 35.2391 129.9745 83.9279 0.0000 0.0000 0.0000
# 3 36.4272 83.9279 131.7862 0.0000 0.0000 0.0000
# 4 0.0000 0.0000 0.0000 33.6569 0.0000 0.0000
# 5 0.0000 0.0000 0.0000 0.0000 15.2378 0.0000
# 6 0.0000 0.0000 0.0000 0.0000 0.0000 29.1553
#
#
#
# Elastic Compliance Matrix: (Units=1/GPa)
#
#
# Indices 1 2 3 4 5 6 
#
# 1 0.037397 -0.005884 -0.006590 0.000000 0.000000 0.000000
# 2 -0.005884 0.013993 -0.007285 0.000000 0.000000 0.000000
# 3 -0.006590 -0.007285 0.014049 0.000000 0.000000 0.000000
# 4 0.000000 0.000000 0.000000 0.029712 0.000000 0.000000
# 5 0.000000 0.000000 0.000000 0.000000 0.065626 0.000000
# 6 0.000000 0.000000 0.000000 0.000000 0.000000 0.034299
#
#
# Mechanical properties :
#
#
# Convention : Reuss Voigt Hill
#
# Bulk Modulus (GPa) = 38.57772 67.96136 53.26954
# Shear Modulus (GPa) = 20.55618 25.26797 22.91208
#
# Velocity S-wave (km/s) = 3.36448 3.73020 3.55205
# Velocity P-wave (km/s) = 6.02799 7.48178 6.79389
#
# Compressibility (1/GPa) = 0.02592170
#
# Stress axis : x y z
#
# Youngs Moduli (GPa) = 26.73979 71.46210 71.17870
#
# Poissons Ratio (x) = 0.42049 0.46905
# Poissons Ratio (y) = 0.15734 0.51856
# Poissons Ratio (z) = 0.17621 0.52062
#
# Static dielectric constant tensor:
#      x y z
#    x 3.020690 0.000000 0.000000 
#    y 0.000000 3.439470 0.000000 
#    z 0.000000 0.000000 3.653220 
# 
# 
# High freq. dielectric constant tensor:
#      x y z
#    x 1.664520 0.000000 0.000000 
#    y 0.000000 1.705680 0.000000 
#    z 0.000000 0.000000 1.719550 
# 
# From -- ./inp_files/73070.got.cif
#   From: 2010.03.12/outbox.cif.g09.slc.cpg/sg65_37_cif.got.tgz:73070.got - 2010.04.10 20:52:16.
