data_PCOD8267226
_publ_section_title
;
Structure prediction by ZEFSAII (Michael W. Deem and Ramdas Pophale) SiO2 
 PCOD8267226
Probable space group: C M M M
;
_chemical_formula_sum "Si O2"
_cell_formula_units_Z 80
_cell_length_a 7.754917
_cell_length_b 18.809653
_cell_length_c 27.555301
_cell_angle_alpha 90.000000
_cell_angle_beta 90.000000
_cell_angle_gamma 90.000000
_cell_volume 4019.417297
_symmetry_space_group_name_H-M "C M M M"
_symmetry_group_IT_number 65
_symmetry_cell_setting 'orthorhombic'
loop_
_space_group_symop_operation_xyz
x,y,z
-x,-y,z
x,-y,-z
-x,y,-z
-x,-y,-z
x,y,-z
-x,y,z
x,-y,z
1/2+x,1/2+y,z
1/2-x,1/2-y,z
1/2+x,1/2-y,-z
1/2-x,1/2+y,-z
1/2-x,1/2-y,-z
1/2+x,1/2+y,-z
1/2-x,1/2+y,z
1/2+x,1/2-y,z
loop_
_atom_site_type_symbol
_atom_site_label
_atom_site_fract_x
_atom_site_fract_y
_atom_site_fract_z
Si Si1 0.297237 0.831904 0.786625
Si Si2 0.193402 0.081581 0.121856
Si Si3 0.295195 0.920355 0.303747
Si Si4 0.797002 0.668597 0.500000
Si Si5 0.500000 0.915767 0.053972
Si Si6 0.295006 0.079984 0.410820
O O1 0.500000 0.843900 0.792278
O O2 0.250000 0.750000 0.787077
O O3 0.202857 0.870891 0.830431
O O4 0.225332 0.865758 0.736587
O O5 0.328465 0.110377 0.081946
O O6 0.000000 0.087668 0.100255
O O7 0.237350 0.000000 0.135696
O O8 0.500000 0.920338 0.303672
O O9 0.228262 0.896747 0.357234
O O10 0.228429 0.000000 0.291865
O O11 0.750000 0.750000 0.500000
O O12 0.717061 0.632124 0.451767
O O13 0.000000 0.657389 0.500000
O O14 0.500000 0.000000 0.049914
O O15 0.500000 0.882097 0.000000
O O16 0.500000 0.082873 0.411546
O O17 0.232543 0.000000 0.422231
#
# Coordination Sequence:
#
# PCOD8267226 Si02
#       6
#    16  16  16   8   8  16
#     4  11  21  33  50  75 106 144 181 222 272 328
#     4  10  20  35  57  85 114 147 187 230 276 327
#     4   8  15  28  48  72  98 129 170 220 272 324
#     4  10  19  29  45  69  97 128 164 210 264 314
#     4   9  18  34  58  88 118 148 185 230 278 324
#     4   8  14  27  47  70  92 122 170 221 261 308
#
# _framework density 19.903382000000001
#
# number of rings (size 3 to 8) (size 9 to 14) (size 15 to 20)
#    0.000    2.700    1.000    2.700    0.000    3.200 
#    0.000    2.000    0.000    3.000    0.000    5.600 
#    0.000    0.000    0.000    0.000    0.000    0.000 
#
# Total GULP energy -495843.321042 kJ/mol
# GULP energy per Si atom -12396.083026 kJ/mol
# Density = 1.985808 g / cm^3
# Si number density = 19.903382 Si / 1000 Ang^3
#
#
#
# Elastic Constant Matrix: (Units=GPa)
#
#
# Indices 1 2 3 4 5 6 
#
# 1 68.5320 19.7750 39.6359 0.0000 0.0000 0.0000
# 2 19.7750 113.6690 84.7745 0.0000 0.0000 0.0000
# 3 39.6359 84.7745 184.5688 0.0000 0.0000 0.0000
# 4 0.0000 0.0000 0.0000 2.4885 0.0000 0.0000
# 5 0.0000 0.0000 0.0000 0.0000 4.1471 0.0000
# 6 0.0000 0.0000 0.0000 0.0000 0.0000 19.4485
#
#
#
# Elastic Compliance Matrix: (Units=1/GPa)
#
#
# Indices 1 2 3 4 5 6 
#
# 1 0.016670 -0.000350 -0.003419 0.000000 0.000000 0.000000
# 2 -0.000350 0.013389 -0.006074 0.000000 0.000000 0.000000
# 3 -0.003419 -0.006074 0.008942 0.000000 0.000000 0.000000
# 4 0.000000 0.000000 0.000000 0.401842 0.000000 0.000000
# 5 0.000000 0.000000 0.000000 0.000000 0.241133 0.000000
# 6 0.000000 0.000000 0.000000 0.000000 0.000000 0.051418
#
#
# Mechanical properties :
#
#
# Convention : Reuss Voigt Hill
#
# Bulk Modulus (GPa) = 51.77600 72.79340 62.28470
# Shear Modulus (GPa) = 6.58311 20.05577 13.31944
#
# Velocity S-wave (km/s) = 1.82064 3.17780 2.58971
# Velocity P-wave (km/s) = 5.52175 7.07936 6.34851
#
# Compressibility (1/GPa) = 0.01931397
#
# Stress axis : x y z
#
# Youngs Moduli (GPa) = 59.98725 74.69003 111.82805
#
# Poissons Ratio (x) = 0.02615 0.38235
# Poissons Ratio (y) = 0.02101 0.67928
# Poissons Ratio (z) = 0.20510 0.45369
#
# Static dielectric constant tensor:
#      x y z
#    x 3.387500 0.000000 0.000000 
#    y 0.000000 3.384300 0.000000 
#    z 0.000000 0.000000 4.008990 
# 
# 
# High freq. dielectric constant tensor:
#      x y z
#    x 1.756070 0.000000 0.000000 
#    y 0.000000 1.754030 0.000000 
#    z 0.000000 0.000000 1.781380 
# 
# From -- ./inp_files/72898.got.cif
#   From: 2010.03.12/outbox.cif.g09.slc.cpg/sg65_37_cif.got.tgz:72898.got - 2010.04.10 20:52:16.
