data_PCOD8267091
_publ_section_title
;
Structure prediction by ZEFSAII (Michael W. Deem and Ramdas Pophale) SiO2 
 PCOD8267091
Probable space group: C M M M
;
_chemical_formula_sum "Si O2"
_cell_formula_units_Z 72
_cell_length_a 17.107116
_cell_length_b 24.473832
_cell_length_c 9.708324
_cell_angle_alpha 90.000000
_cell_angle_beta 90.000000
_cell_angle_gamma 90.000000
_cell_volume 4064.648890
_symmetry_space_group_name_H-M "C M M M"
_symmetry_group_IT_number 65
_symmetry_cell_setting 'orthorhombic'
loop_
_space_group_symop_operation_xyz
x,y,z
-x,-y,z
x,-y,-z
-x,y,-z
-x,-y,-z
x,y,-z
-x,y,z
x,-y,z
1/2+x,1/2+y,z
1/2-x,1/2-y,z
1/2+x,1/2-y,-z
1/2-x,1/2+y,-z
1/2-x,1/2-y,-z
1/2+x,1/2+y,-z
1/2-x,1/2+y,z
1/2+x,1/2-y,z
loop_
_atom_site_type_symbol
_atom_site_label
_atom_site_fract_x
_atom_site_fract_y
_atom_site_fract_z
Si Si1 0.867172 0.143364 0.663598
Si Si2 0.689446 0.861709 0.336569
Si Si3 0.088157 0.564356 0.153967
Si Si4 0.413151 0.238575 0.336730
Si Si5 0.500000 0.562042 0.335886
O O1 0.871849 0.145396 0.500000
O O2 0.778748 0.134243 0.712933
O O3 0.895255 0.201504 0.724858
O O4 0.922994 0.094450 0.717767
O O5 0.681598 0.867548 0.500000
O O6 0.645418 0.911637 0.267292
O O7 0.650865 0.804950 0.284033
O O8 0.095594 0.500000 0.163197
O O9 0.000000 0.582892 0.188280
O O10 0.110832 0.584226 0.000000
O O11 0.408359 0.241910 0.500000
O O12 0.500000 0.220336 0.289331
O O13 0.500000 0.500000 0.276651
O O14 0.500000 0.560079 0.500000
#
# Coordination Sequence:
#
# PCOD8267091 Si02
#       5
#    16  16  16  16   8
#     4   9  16  27  41  62  97 133 160 196 244 290
#     4  10  19  28  46  77 102 120 154 206 254 287
#     4   9  19  36  53  67  91 130 166 191 228 292
#     4   9  15  25  42  64  95 132 164 191 235 298
#     4   9  16  26  40  58  87 133 176 201 232 284
#
# _framework density 17.713706999999999
#
# number of rings (size 3 to 8) (size 9 to 14) (size 15 to 20)
#    0.000    2.778    1.111    2.000    0.000    5.333 
#    0.000    3.333    0.000    2.667    0.000    0.778 
#    0.000    2.667    0.000    0.000    0.000    0.000 
#
# Total GULP energy -446234.591444 kJ/mol
# GULP energy per Si atom -12395.405318 kJ/mol
# Density = 1.767339 g / cm^3
# Si number density = 17.713707 Si / 1000 Ang^3
#
#
#
# Elastic Constant Matrix: (Units=GPa)
#
#
# Indices 1 2 3 4 5 6 
#
# 1 165.3491 77.4915 26.9665 0.0000 0.0000 0.0000
# 2 77.4915 103.1739 20.6138 0.0000 0.0000 0.0000
# 3 26.9665 20.6138 18.9514 0.0000 0.0000 0.0000
# 4 0.0000 0.0000 0.0000 8.4708 0.0000 0.0000
# 5 0.0000 0.0000 0.0000 0.0000 10.3900 0.0000
# 6 0.0000 0.0000 0.0000 0.0000 0.0000 28.0911
#
#
#
# Elastic Compliance Matrix: (Units=1/GPa)
#
#
# Indices 1 2 3 4 5 6 
#
# 1 0.010177 -0.006070 -0.007880 0.000000 0.000000 0.000000
# 2 -0.006070 0.016004 -0.008771 0.000000 0.000000 0.000000
# 3 -0.007880 -0.008771 0.073518 0.000000 0.000000 0.000000
# 4 0.000000 0.000000 0.000000 0.118052 0.000000 0.000000
# 5 0.000000 0.000000 0.000000 0.000000 0.096246 0.000000
# 6 0.000000 0.000000 0.000000 0.000000 0.000000 0.035598
#
#
# Mechanical properties :
#
#
# Convention : Reuss Voigt Hill
#
# Bulk Modulus (GPa) = 18.42992 59.73535 39.08263
# Shear Modulus (GPa) = 12.10294 20.21723 16.16009
#
# Velocity S-wave (km/s) = 2.61675 3.38203 3.02370
# Velocity P-wave (km/s) = 4.42230 7.00333 5.85677
#
# Compressibility (1/GPa) = 0.05425960
#
# Stress axis : x y z
#
# Youngs Moduli (GPa) = 98.25604 62.48617 13.60203
#
# Poissons Ratio (x) = 0.37927 0.10718
# Poissons Ratio (y) = 0.59639 0.11930
# Poissons Ratio (z) = 0.77422 0.54804
#
# Static dielectric constant tensor:
#      x y z
#    x 3.533020 0.000000 0.000000 
#    y 0.000000 3.402440 0.000000 
#    z 0.000000 0.000000 2.701260 
# 
# 
# High freq. dielectric constant tensor:
#      x y z
#    x 1.699180 0.000000 0.000000 
#    y 0.000000 1.692390 0.000000 
#    z 0.000000 0.000000 1.612160 
# 
# From -- ./inp_files/7204.got.cif
#   From: 2010.03.12/outbox.cif.g09.slc.cpg/sg65_4_cif.got.tgz:7204.got - 2010.04.10 20:52:16.
