data_PCOD8267749
_publ_section_title
;
Structure prediction by ZEFSAII (Michael W. Deem and Ramdas Pophale) SiO2 
 PCOD8267749
Probable space group: C M M M
;
_chemical_formula_sum "Si O2"
_cell_formula_units_Z 88
_cell_length_a 18.166849
_cell_length_b 30.026611
_cell_length_c 9.367603
_cell_angle_alpha 90.000000
_cell_angle_beta 90.000000
_cell_angle_gamma 90.000000
_cell_volume 5109.923531
_symmetry_space_group_name_H-M "C M M M"
_symmetry_group_IT_number 65
_symmetry_cell_setting 'orthorhombic'
loop_
_space_group_symop_operation_xyz
x,y,z
-x,-y,z
x,-y,-z
-x,y,-z
-x,-y,-z
x,y,-z
-x,y,z
x,-y,z
1/2+x,1/2+y,z
1/2-x,1/2-y,z
1/2+x,1/2-y,-z
1/2-x,1/2+y,-z
1/2-x,1/2-y,-z
1/2+x,1/2+y,-z
1/2-x,1/2+y,z
1/2+x,1/2-y,z
loop_
_atom_site_type_symbol
_atom_site_label
_atom_site_fract_x
_atom_site_fract_y
_atom_site_fract_z
Si Si1 0.211081 0.795868 0.337237
Si Si2 0.917435 0.651821 0.166786
Si Si3 0.418246 0.761625 0.336741
Si Si4 0.000000 0.052920 0.663111
Si Si5 0.764666 0.620337 0.166254
Si Si6 0.143377 0.051401 0.167000
O O1 0.229883 0.808808 0.500000
O O2 0.250000 0.750000 0.293234
O O3 0.125332 0.784352 0.313476
O O4 0.231998 0.836271 0.238544
O O5 0.890367 0.696891 0.243007
O O6 0.852928 0.615340 0.200907
O O7 0.000000 0.636596 0.219142
O O8 0.920519 0.661881 0.000000
O O9 0.411201 0.777791 0.500000
O O10 0.500000 0.749244 0.291268
O O11 0.926528 0.069998 0.743994
O O12 0.000000 0.070654 0.500000
O O13 0.000000 0.000000 0.667495
O O14 0.717755 0.577311 0.215186
O O15 0.753643 0.627769 0.000000
O O16 0.158574 0.000000 0.202962
O O17 0.125784 0.058055 0.000000
#
# Coordination Sequence:
#
# PCOD8267749 Si02
#       6
#    16  16  16   8  16  16
#     4  10  19  31  46  67  96 127 157 194 239 284
#     4   9  17  29  46  68  93 121 156 198 238 275
#     4   9  17  30  46  62  86 123 162 193 226 277
#     4   9  17  31  53  79 101 123 157 199 241 285
#     4  10  20  32  49  72  95 124 162 199 238 286
#     4   9  18  34  54  73  97 129 162 197 239 289
#
# _framework density 17.221394
#
# number of rings (size 3 to 8) (size 9 to 14) (size 15 to 20)
#    0.000    2.636    1.818    0.273    0.000    2.909 
#    1.636    0.000    0.000    0.545    0.000    3.818 
#    0.000    0.000    0.000   10.727    0.000   11.273 
#
# Total GULP energy -545188.592171 kJ/mol
# GULP energy per Si atom -12390.649822 kJ/mol
# Density = 1.718220 g / cm^3
# Si number density = 17.221394 Si / 1000 Ang^3
#
#
#
# Elastic Constant Matrix: (Units=GPa)
#
#
# Indices 1 2 3 4 5 6 
#
# 1 128.6269 63.5985 41.0352 0.0000 0.0000 0.0000
# 2 63.5985 64.8033 26.8032 0.0000 0.0000 0.0000
# 3 41.0352 26.8032 40.1826 0.0000 0.0000 0.0000
# 4 0.0000 0.0000 0.0000 14.0609 0.0000 0.0000
# 5 0.0000 0.0000 0.0000 0.0000 19.7573 0.0000
# 6 0.0000 0.0000 0.0000 0.0000 0.0000 26.9107
#
#
#
# Elastic Compliance Matrix: (Units=1/GPa)
#
#
# Indices 1 2 3 4 5 6 
#
# 1 0.017020 -0.013140 -0.008617 0.000000 0.000000 0.000000
# 2 -0.013140 0.031455 -0.007563 0.000000 0.000000 0.000000
# 3 -0.008617 -0.007563 0.038730 0.000000 0.000000 0.000000
# 4 0.000000 0.000000 0.000000 0.071119 0.000000 0.000000
# 5 0.000000 0.000000 0.000000 0.000000 0.050614 0.000000
# 6 0.000000 0.000000 0.000000 0.000000 0.000000 0.037160
#
#
# Mechanical properties :
#
#
# Convention : Reuss Voigt Hill
#
# Bulk Modulus (GPa) = 35.00540 55.16517 45.08529
# Shear Modulus (GPa) = 15.91038 18.95751 17.43394
#
# Velocity S-wave (km/s) = 3.04283 3.32145 3.18518
# Velocity P-wave (km/s) = 5.71978 6.84192 6.30586
#
# Compressibility (1/GPa) = 0.02856702
#
# Stress axis : x y z
#
# Youngs Moduli (GPa) = 58.75349 31.79148 25.81946
#
# Poissons Ratio (x) = 0.41774 0.22248
# Poissons Ratio (y) = 0.77202 0.19527
# Poissons Ratio (z) = 0.50626 0.24043
#
# Static dielectric constant tensor:
#      x y z
#    x 3.882080 0.000000 0.000000 
#    y 0.000000 3.015440 0.000000 
#    z 0.000000 0.000000 3.203350 
# 
# 
# High freq. dielectric constant tensor:
#      x y z
#    x 1.687450 0.000000 0.000000 
#    y 0.000000 1.619170 0.000000 
#    z 0.000000 0.000000 1.661070 
# 
# From -- ./inp_files/10115.got.cif
#   From: 2010.03.12/outbox.cif.g09.slc.cpg/sg65_6_cif.got.tgz:10115.got - 2010.04.10 20:52:16.
