data_PCOD8267117
_publ_section_title
;
Structure prediction by ZEFSAII (Michael W. Deem and Ramdas Pophale) SiO2 
 PCOD8267117
Probable space group: C M M M
;
_chemical_formula_sum "Si O2"
_cell_formula_units_Z 112
_cell_length_a 19.324786
_cell_length_b 18.893716
_cell_length_c 18.652464
_cell_angle_alpha 90.000000
_cell_angle_beta 90.000000
_cell_angle_gamma 90.000000
_cell_volume 6810.332042
_symmetry_space_group_name_H-M "C M M M"
_symmetry_group_IT_number 65
_symmetry_cell_setting 'orthorhombic'
loop_
_space_group_symop_operation_xyz
x,y,z
-x,-y,z
x,-y,-z
-x,y,-z
-x,-y,-z
x,y,-z
-x,y,z
x,-y,z
1/2+x,1/2+y,z
1/2-x,1/2-y,z
1/2+x,1/2-y,-z
1/2-x,1/2+y,-z
1/2-x,1/2-y,-z
1/2+x,1/2+y,-z
1/2-x,1/2+y,z
1/2+x,1/2-y,z
loop_
_atom_site_type_symbol
_atom_site_label
_atom_site_fract_x
_atom_site_fract_y
_atom_site_fract_z
Si Si1 0.683427 0.697794 0.269516
Si Si2 0.422636 0.209622 0.191101
Si Si3 0.250041 0.919957 0.190307
Si Si4 0.886515 0.421512 0.276314
Si Si5 0.919759 0.352001 0.419868
Si Si6 0.195275 0.312044 0.083631
Si Si7 0.174949 0.217642 0.576226
O O1 0.750000 0.750000 0.260056
O O2 0.614396 0.739181 0.247753
O O3 0.687838 0.628466 0.219768
O O4 0.674121 0.670377 0.351752
O O5 0.500000 0.236769 0.173233
O O6 0.429981 0.132836 0.228186
O O7 0.378527 0.208095 0.117886
O O8 0.306783 0.917445 0.252918
O O9 0.278269 0.886038 0.116640
O O10 0.225032 0.000000 0.174456
O O11 0.916410 0.500000 0.262300
O O12 0.890093 0.406125 0.361140
O O13 0.908518 0.383867 0.500000
O O14 0.881255 0.278195 0.412012
O O15 0.000000 0.337815 0.404361
O O16 0.250000 0.250000 0.100594
O O17 0.184176 0.323476 0.000000
O O18 0.158955 0.177202 0.500000
O O19 0.250000 0.250000 0.568863
#
# Coordination Sequence:
#
# PCOD8267117 Si02
#       7
#    16  16  16  16  16  16  16
#     4  11  16  32  53  71  97 129 170 213 250 298
#     4  11  20  31  50  76 101 132 167 206 250 294
#     4  10  19  33  54  77  98 126 167 213 253 293
#     4  10  19  31  46  67  96 133 171 204 244 294
#     4  10  19  29  41  62  94 131 169 206 247 298
#     4  10  19  35  56  77 102 131 164 199 240 297
#     4   9  17  27  44  66  90 123 164 210 255 292
#
# _framework density 16.445601
#
# number of rings (size 3 to 8) (size 9 to 14) (size 15 to 20)
#    0.000    1.857    5.714    1.286    0.000    2.000 
#    0.000    0.714    0.000    1.714    0.000    4.000 
#    0.000    2.286    0.000    4.857    0.000    0.000 
#
# Total GULP energy -693969.977313 kJ/mol
# GULP energy per Si atom -12392.321023 kJ/mol
# Density = 1.640817 g / cm^3
# Si number density = 16.445601 Si / 1000 Ang^3
#
#
#
# Elastic Constant Matrix: (Units=GPa)
#
#
# Indices 1 2 3 4 5 6 
#
# 1 74.2490 28.8583 40.4829 0.0000 0.0000 0.0000
# 2 28.8583 64.5461 36.5343 0.0000 0.0000 0.0000
# 3 40.4829 36.5343 135.6177 0.0000 0.0000 0.0000
# 4 0.0000 0.0000 0.0000 17.5521 0.0000 0.0000
# 5 0.0000 0.0000 0.0000 0.0000 16.7167 0.0000
# 6 0.0000 0.0000 0.0000 0.0000 0.0000 11.4460
#
#
#
# Elastic Compliance Matrix: (Units=1/GPa)
#
#
# Indices 1 2 3 4 5 6 
#
# 1 0.017771 -0.005832 -0.003734 0.000000 0.000000 0.000000
# 2 -0.005832 0.020194 -0.003699 0.000000 0.000000 0.000000
# 3 -0.003734 -0.003699 0.009485 0.000000 0.000000 0.000000
# 4 0.000000 0.000000 0.000000 0.056973 0.000000 0.000000
# 5 0.000000 0.000000 0.000000 0.000000 0.059821 0.000000
# 6 0.000000 0.000000 0.000000 0.000000 0.000000 0.087367
#
#
# Mechanical properties :
#
#
# Convention : Reuss Voigt Hill
#
# Bulk Modulus (GPa) = 47.80138 54.01821 50.90979
# Shear Modulus (GPa) = 17.53694 20.37878 18.95786
#
# Velocity S-wave (km/s) = 3.26906 3.52399 3.39892
# Velocity P-wave (km/s) = 6.58623 7.03391 6.81375
#
# Compressibility (1/GPa) = 0.02091990
#
# Stress axis : x y z
#
# Youngs Moduli (GPa) = 56.27302 49.51954 105.43276
#
# Poissons Ratio (x) = 0.28879 0.39364
# Poissons Ratio (y) = 0.32818 0.39002
# Poissons Ratio (z) = 0.21010 0.18319
#
# Static dielectric constant tensor:
#      x y z
#    x 2.989870 0.000000 0.000000 
#    y 0.000000 2.982650 0.000000 
#    z 0.000000 0.000000 3.372880 
# 
# 
# High freq. dielectric constant tensor:
#      x y z
#    x 1.618650 0.000000 0.000000 
#    y 0.000000 1.596100 0.000000 
#    z 0.000000 0.000000 1.648670 
# 
# From -- ./inp_files/56068.got.cif
#   From: 2010.03.12/outbox.cif.g09.slc.cpg/sg65_29_cif.got.tgz:56068.got - 2010.04.10 20:52:16.
