data_PCOD8267641
_publ_section_title
;
Structure prediction by ZEFSAII (Michael W. Deem and Ramdas Pophale) SiO2 
 PCOD8267641
Probable space group: C M M M
;
_chemical_formula_sum "Si O2"
_cell_formula_units_Z 88
_cell_length_a 27.522050
_cell_length_b 18.655007
_cell_length_c 9.250167
_cell_angle_alpha 90.000000
_cell_angle_beta 90.000000
_cell_angle_gamma 90.000000
_cell_volume 4749.258069
_symmetry_space_group_name_H-M "C M M M"
_symmetry_group_IT_number 65
_symmetry_cell_setting 'orthorhombic'
loop_
_space_group_symop_operation_xyz
x,y,z
-x,-y,z
x,-y,-z
-x,y,-z
-x,-y,-z
x,y,-z
-x,y,z
x,-y,z
1/2+x,1/2+y,z
1/2-x,1/2-y,z
1/2+x,1/2-y,-z
1/2-x,1/2+y,-z
1/2-x,1/2-y,-z
1/2+x,1/2+y,-z
1/2-x,1/2+y,z
1/2+x,1/2-y,z
loop_
_atom_site_type_symbol
_atom_site_label
_atom_site_fract_x
_atom_site_fract_y
_atom_site_fract_z
Si Si1 0.797657 0.703218 0.841378
Si Si2 0.946125 0.773721 0.664372
Si Si3 0.058217 0.500000 0.337845
Si Si4 0.270521 0.581913 0.829495
Si Si5 0.344686 0.321761 0.666582
Si Si6 0.443342 0.132820 0.840289
O O1 0.750000 0.750000 0.858049
O O2 0.779030 0.624775 0.787467
O O3 0.832861 0.741758 0.727075
O O4 0.822975 0.697457 0.000000
O O5 0.945991 0.744707 0.500000
O O6 0.903286 0.832673 0.683475
O O7 0.933002 0.708629 0.768408
O O8 0.000000 0.805752 0.701208
O O9 0.078884 0.500000 0.500000
O O10 0.079575 0.569615 0.256095
O O11 0.000000 0.500000 0.340649
O O12 0.264362 0.500000 0.779265
O O13 0.317724 0.615268 0.751704
O O14 0.280084 0.588285 0.000000
O O15 0.328495 0.324715 0.500000
O O16 0.500000 0.118225 0.853500
O O17 0.419549 0.131650 0.000000
#
# Coordination Sequence:
#
# PCOD8267641 Si02
#       6
#    16  16   8  16  16  16
#     4   8  15  29  49  72  98 129 160 191 236 296
#     4   9  18  32  47  64  91 129 170 207 246 293
#     4   9  15  23  37  55  77 107 139 177 235 297
#     4   9  18  33  53  76 102 132 163 194 237 299
#     4  10  19  30  49  76 102 129 165 207 249 290
#     4   9  16  25  39  60  82 106 147 201 244 279
#
# _framework density 18.529211
#
# number of rings (size 3 to 8) (size 9 to 14) (size 15 to 20)
#    0.000    3.000    0.000    2.455    0.000    8.364 
#    0.000    0.000    2.000    0.545    0.000    3.818 
#    0.000    0.000    0.000    0.000    0.000    0.000 
#
# Total GULP energy -545173.884194 kJ/mol
# GULP energy per Si atom -12390.315550 kJ/mol
# Density = 1.848704 g / cm^3
# Si number density = 18.529211 Si / 1000 Ang^3
#
#
#
# Elastic Constant Matrix: (Units=GPa)
#
#
# Indices 1 2 3 4 5 6 
#
# 1 63.5702 31.3623 18.1290 0.0000 0.0000 0.0000
# 2 31.3623 98.5188 30.5395 0.0000 0.0000 0.0000
# 3 18.1290 30.5395 88.2931 0.0000 0.0000 0.0000
# 4 0.0000 0.0000 0.0000 22.5835 0.0000 0.0000
# 5 0.0000 0.0000 0.0000 0.0000 7.4968 0.0000
# 6 0.0000 0.0000 0.0000 0.0000 0.0000 15.5585
#
#
#
# Elastic Compliance Matrix: (Units=1/GPa)
#
#
# Indices 1 2 3 4 5 6 
#
# 1 0.018979 -0.005414 -0.002024 0.000000 0.000000 0.000000
# 2 -0.005414 0.012914 -0.003355 0.000000 0.000000 0.000000
# 3 -0.002024 -0.003355 0.012902 0.000000 0.000000 0.000000
# 4 0.000000 0.000000 0.000000 0.044280 0.000000 0.000000
# 5 0.000000 0.000000 0.000000 0.000000 0.133390 0.000000
# 6 0.000000 0.000000 0.000000 0.000000 0.000000 0.064273
#
#
# Mechanical properties :
#
#
# Convention : Reuss Voigt Hill
#
# Bulk Modulus (GPa) = 43.08874 45.60485 44.34680
# Shear Modulus (GPa) = 15.81970 20.48453 18.15211
#
# Velocity S-wave (km/s) = 2.92511 3.32855 3.13333
# Velocity P-wave (km/s) = 5.89180 6.27998 6.08899
#
# Compressibility (1/GPa) = 0.02320792
#
# Stress axis : x y z
#
# Youngs Moduli (GPa) = 52.68980 77.43569 77.50725
#
# Poissons Ratio (x) = 0.41926 0.15689
# Poissons Ratio (y) = 0.28528 0.26004
# Poissons Ratio (z) = 0.10665 0.25980
#
# Static dielectric constant tensor:
#      x y z
#    x 3.351800 0.000000 0.000000 
#    y 0.000000 3.440610 0.000000 
#    z 0.000000 0.000000 3.561510 
# 
# 
# High freq. dielectric constant tensor:
#      x y z
#    x 1.699030 0.000000 0.000000 
#    y 0.000000 1.687220 0.000000 
#    z 0.000000 0.000000 1.725710 
# 
# From -- ./inp_files/18487.got.cif
#   From: 2010.03.12/outbox.cif.g09.slc.cpg/sg65_10_cif.got.tgz:18487.got - 2010.04.10 20:52:16.
