data_PCOD8267461
_publ_section_title
;
Structure prediction by ZEFSAII (Michael W. Deem and Ramdas Pophale) SiO2 
 PCOD8267461
Probable space group: C M M M
;
_chemical_formula_sum "Si O2"
_cell_formula_units_Z 96
_cell_length_a 18.394848
_cell_length_b 8.846878
_cell_length_c 31.195379
_cell_angle_alpha 90.000000
_cell_angle_beta 90.000000
_cell_angle_gamma 90.000000
_cell_volume 5076.641646
_symmetry_space_group_name_H-M "C M M M"
_symmetry_group_IT_number 65
_symmetry_cell_setting 'orthorhombic'
loop_
_space_group_symop_operation_xyz
x,y,z
-x,-y,z
x,-y,-z
-x,y,-z
-x,-y,-z
x,y,-z
-x,y,z
x,-y,z
1/2+x,1/2+y,z
1/2-x,1/2-y,z
1/2+x,1/2-y,-z
1/2-x,1/2+y,-z
1/2-x,1/2-y,-z
1/2+x,1/2+y,-z
1/2-x,1/2+y,z
1/2+x,1/2-y,z
loop_
_atom_site_type_symbol
_atom_site_label
_atom_site_fract_x
_atom_site_fract_y
_atom_site_fract_z
Si Si1 0.418635 0.679561 0.838620
Si Si2 0.171688 0.820230 0.918436
Si Si3 0.418281 0.320506 0.582054
Si Si4 0.328313 0.679618 0.663929
Si Si5 0.829234 0.179712 0.500000
Si Si6 0.918615 0.179511 0.000000
Si Si7 0.081429 0.179575 0.256271
O O1 0.500000 0.740983 0.847614
O O2 0.420308 0.500000 0.841020
O O3 0.363933 0.742903 0.874494
O O4 0.392674 0.732227 0.791182
O O5 0.250000 0.750000 0.923986
O O6 0.122697 0.762497 0.957791
O O7 0.178056 0.000000 0.918083
O O8 0.500000 0.253637 0.580515
O O9 0.422043 0.500000 0.581035
O O10 0.379277 0.264394 0.625242
O O11 0.372838 0.261041 0.541455
O O12 0.321203 0.500000 0.664355
O O13 0.250000 0.750000 0.657522
O O14 0.363306 0.742698 0.708076
O O15 0.750000 0.250000 0.500000
O O16 0.821938 0.000000 0.500000
O O17 0.000000 0.246963 0.000000
O O18 0.921969 0.000000 0.000000
O O19 0.000000 0.240939 0.265335
O O20 0.079638 0.000000 0.258747
#
# Coordination Sequence:
#
# PCOD8267461 Si02
#       7
#    16  16  16  16   8   8  16
#     4   8  14  26  45  67  88 113 150 190 220 251
#     4  10  19  30  46  68  93 118 144 179 223 266
#     4   9  17  30  49  70  89 115 155 193 219 252
#     4  10  19  30  46  68  93 119 147 183 226 268
#     4  10  19  31  49  71  95 120 146 182 226 268
#     4   9  17  30  49  69  86 111 152 192 218 249
#     4   8  14  26  45  67  88 113 150 191 222 252
#
# _framework density 18.910139999999998
#
# number of rings (size 3 to 8) (size 9 to 14) (size 15 to 20)
#    0.000    2.917    0.000    3.000    0.000    5.667 
#    0.000    0.000    0.000    6.500    0.000    2.333 
#    0.000    0.000    0.000    0.000    0.000    0.000 
#
# Total GULP energy -595030.946854 kJ/mol
# GULP energy per Si atom -12396.478059 kJ/mol
# Density = 1.886710 g / cm^3
# Si number density = 18.910140 Si / 1000 Ang^3
#
#
#
# Elastic Constant Matrix: (Units=GPa)
#
#
# Indices 1 2 3 4 5 6 
#
# 1 183.6098 18.1322 111.4843 0.0000 0.0000 0.0000
# 2 18.1322 9.6433 17.8030 0.0000 0.0000 0.0000
# 3 111.4843 17.8030 191.3715 0.0000 0.0000 0.0000
# 4 0.0000 0.0000 0.0000 6.2159 0.0000 0.0000
# 5 0.0000 0.0000 0.0000 0.0000 31.9049 0.0000
# 6 0.0000 0.0000 0.0000 0.0000 0.0000 24.4852
#
#
#
# Elastic Compliance Matrix: (Units=1/GPa)
#
#
# Indices 1 2 3 4 5 6 
#
# 1 0.008999 -0.008744 -0.004429 0.000000 0.000000 0.000000
# 2 -0.008744 0.133698 -0.007344 0.000000 0.000000 0.000000
# 3 -0.004429 -0.007344 0.008489 0.000000 0.000000 0.000000
# 4 0.000000 0.000000 0.000000 0.160878 0.000000 0.000000
# 5 0.000000 0.000000 0.000000 0.000000 0.031343 0.000000
# 6 0.000000 0.000000 0.000000 0.000000 0.000000 0.040841
#
#
# Mechanical properties :
#
#
# Convention : Reuss Voigt Hill
#
# Bulk Modulus (GPa) = 9.07836 75.49597 42.28716
# Shear Modulus (GPa) = 10.82253 28.33486 19.57869
#
# Velocity S-wave (km/s) = 2.39490 3.87511 3.22118
# Velocity P-wave (km/s) = 3.52968 7.74804 6.02042
#
# Compressibility (1/GPa) = 0.11015211
#
# Stress axis : x y z
#
# Youngs Moduli (GPa) = 111.12287 7.47952 117.80327
#
# Poissons Ratio (x) = 0.06540 0.52175
# Poissons Ratio (y) = 0.97169 0.86512
# Poissons Ratio (z) = 0.49216 0.05493
#
# Static dielectric constant tensor:
#      x y z
#    x 3.577240 0.000000 0.000000 
#    y 0.000000 2.775210 0.000000 
#    z 0.000000 0.000000 3.951300 
# 
# 
# High freq. dielectric constant tensor:
#      x y z
#    x 1.743410 0.000000 0.000000 
#    y 0.000000 1.661440 0.000000 
#    z 0.000000 0.000000 1.757550 
# 
# From -- ./inp_files/77352.got.cif
#   From: 2010.03.12/outbox.cif.g09.slc.cpg/sg65_39_cif.got.tgz:77352.got - 2010.04.10 20:52:16.
