data_PCOD8267766
_publ_section_title
;
Structure prediction by ZEFSAII (Michael W. Deem and Ramdas Pophale) SiO2 
 PCOD8267766
Probable space group: C M M M
;
_chemical_formula_sum "Si O2"
_cell_formula_units_Z 88
_cell_length_a 17.305869
_cell_length_b 26.213054
_cell_length_c 12.375482
_cell_angle_alpha 90.000000
_cell_angle_beta 90.000000
_cell_angle_gamma 90.000000
_cell_volume 5614.009677
_symmetry_space_group_name_H-M "C M M M"
_symmetry_group_IT_number 65
_symmetry_cell_setting 'orthorhombic'
loop_
_space_group_symop_operation_xyz
x,y,z
-x,-y,z
x,-y,-z
-x,y,-z
-x,-y,-z
x,y,-z
-x,y,z
x,-y,z
1/2+x,1/2+y,z
1/2-x,1/2-y,z
1/2+x,1/2-y,-z
1/2-x,1/2+y,-z
1/2-x,1/2-y,-z
1/2+x,1/2+y,-z
1/2-x,1/2+y,z
1/2+x,1/2-y,z
loop_
_atom_site_type_symbol
_atom_site_label
_atom_site_fract_x
_atom_site_fract_y
_atom_site_fract_z
Si Si1 0.169273 0.560134 0.717895
Si Si2 0.179968 0.716080 0.745862
Si Si3 0.410504 0.133890 0.873587
Si Si4 0.272989 0.634495 0.375453
Si Si5 0.415111 0.939701 0.500000
Si Si6 0.587382 0.701397 0.375210
O O1 0.178066 0.500000 0.732909
O O2 0.121221 0.582340 0.817908
O O3 0.253584 0.586486 0.703614
O O4 0.126985 0.578107 0.608282
O O5 0.250000 0.750000 0.796054
O O6 0.140365 0.682493 0.838939
O O7 0.214852 0.681036 0.650761
O O8 0.113243 0.750835 0.695821
O O9 0.500000 0.142170 0.841969
O O10 0.400402 0.125700 0.000000
O O11 0.263405 0.618581 0.500000
O O12 0.360496 0.651718 0.350198
O O13 0.500000 0.914830 0.500000
O O14 0.420825 0.000000 0.500000
O O15 0.596216 0.717154 0.500000
O O16 0.500000 0.686766 0.345131
#
# Coordination Sequence:
#
# PCOD8267766 Si02
#       6
#    16  16  16  16   8  16
#     4  10  19  31  47  65  86 116 150 185 224 266
#     4   9  17  29  46  66  88 118 152 187 221 258
#     4  10  21  34  46  63  90 122 153 186 225 268
#     4   9  16  27  43  65  92 119 147 181 222 266
#     4   9  16  26  42  64  84 103 135 179 220 256
#     4   9  16  26  43  67  94 122 150 180 218 266
#
# _framework density 15.67507
#
# number of rings (size 3 to 8) (size 9 to 14) (size 15 to 20)
#    0.000    2.636    0.909    1.636    0.000    4.000 
#    0.000    0.909    0.000    0.545    0.000    2.545 
#    0.000    0.000    0.000   14.727    0.000    0.000 
#
# Total GULP energy -545445.529652 kJ/mol
# GULP energy per Si atom -12396.489310 kJ/mol
# Density = 1.563939 g / cm^3
# Si number density = 15.675070 Si / 1000 Ang^3
#
#
#
# Elastic Constant Matrix: (Units=GPa)
#
#
# Indices 1 2 3 4 5 6 
#
# 1 115.6181 57.8920 43.9664 0.0000 0.0000 0.0000
# 2 57.8920 101.6584 40.5642 0.0000 0.0000 0.0000
# 3 43.9664 40.5642 71.5029 0.0000 0.0000 0.0000
# 4 0.0000 0.0000 0.0000 19.0225 0.0000 0.0000
# 5 0.0000 0.0000 0.0000 0.0000 19.8621 0.0000
# 6 0.0000 0.0000 0.0000 0.0000 0.0000 18.1644
#
#
#
# Elastic Compliance Matrix: (Units=1/GPa)
#
#
# Indices 1 2 3 4 5 6 
#
# 1 0.013373 -0.005603 -0.005044 0.000000 0.000000 0.000000
# 2 -0.005603 0.015062 -0.005100 0.000000 0.000000 0.000000
# 3 -0.005044 -0.005100 0.019980 0.000000 0.000000 0.000000
# 4 0.000000 0.000000 0.000000 0.052569 0.000000 0.000000
# 5 0.000000 0.000000 0.000000 0.000000 0.050347 0.000000
# 6 0.000000 0.000000 0.000000 0.000000 0.000000 0.055053
#
#
# Mechanical properties :
#
#
# Convention : Reuss Voigt Hill
#
# Bulk Modulus (GPa) = 59.09607 63.73609 61.41608
# Shear Modulus (GPa) = 20.53225 21.16693 20.84959
#
# Velocity S-wave (km/s) = 3.62313 3.67871 3.65103
# Velocity P-wave (km/s) = 7.43541 7.66765 7.55242
#
# Compressibility (1/GPa) = 0.01692160
#
# Stress axis : x y z
#
# Youngs Moduli (GPa) = 74.77911 66.39012 50.04887
#
# Poissons Ratio (x) = 0.37196 0.25246
# Poissons Ratio (y) = 0.41896 0.25525
# Poissons Ratio (z) = 0.37721 0.33859
#
# Static dielectric constant tensor:
#      x y z
#    x 3.198870 0.000000 0.000000 
#    y 0.000000 2.911000 0.000000 
#    z 0.000000 0.000000 2.779030 
# 
# 
# High freq. dielectric constant tensor:
#      x y z
#    x 1.601660 0.000000 0.000000 
#    y 0.000000 1.593530 0.000000 
#    z 0.000000 0.000000 1.582280 
# 
# From -- ./inp_files/25148.got.cif
#   From: 2010.03.12/outbox.cif.g09.slc.cpg/sg65_13_cif.got.tgz:25148.got - 2010.04.10 20:52:16.
