data_PCOD8267829
_publ_section_title
;
Structure prediction by ZEFSAII (Michael W. Deem and Ramdas Pophale) SiO2 
 PCOD8267829
Probable space group: C M M M
;
_chemical_formula_sum "Si O2"
_cell_formula_units_Z 88
_cell_length_a 8.874391
_cell_length_b 18.683725
_cell_length_c 28.499727
_cell_angle_alpha 90.000000
_cell_angle_beta 90.000000
_cell_angle_gamma 90.000000
_cell_volume 4725.445143
_symmetry_space_group_name_H-M "C M M M"
_symmetry_group_IT_number 65
_symmetry_cell_setting 'orthorhombic'
loop_
_space_group_symop_operation_xyz
x,y,z
-x,-y,z
x,-y,-z
-x,y,-z
-x,-y,-z
x,y,-z
-x,y,z
x,-y,z
1/2+x,1/2+y,z
1/2-x,1/2-y,z
1/2+x,1/2-y,-z
1/2-x,1/2+y,-z
1/2-x,1/2-y,-z
1/2+x,1/2+y,-z
1/2-x,1/2+y,z
1/2+x,1/2-y,z
loop_
_atom_site_type_symbol
_atom_site_label
_atom_site_fract_x
_atom_site_fract_y
_atom_site_fract_z
Si Si1 0.679310 0.079756 0.413603
Si Si2 0.827136 0.084367 0.218318
Si Si3 0.667430 0.084994 0.311123
Si Si4 0.679024 0.919944 0.947932
Si Si5 0.821733 0.327170 0.137785
Si Si6 0.320529 0.827211 0.500000
O O1 0.500000 0.075693 0.415189
O O2 0.728486 0.110244 0.362272
O O3 0.740699 0.131655 0.454046
O O4 0.745286 0.000000 0.422104
O O5 0.780054 0.110730 0.270315
O O6 0.722026 0.123899 0.181431
O O7 0.000000 0.105551 0.209924
O O8 0.800393 0.000000 0.212608
O O9 0.500000 0.116136 0.301135
O O10 0.657934 0.000000 0.312569
O O11 0.500000 0.921334 0.945834
O O12 0.742301 0.864462 0.909594
O O13 0.739990 0.000000 0.936927
O O14 0.733012 0.896034 0.000000
O O15 0.750000 0.250000 0.143023
O O16 0.000000 0.319200 0.136145
O O17 0.500000 0.822174 0.500000
O O18 0.250000 0.750000 0.500000
#
# Coordination Sequence:
#
# PCOD8267829 Si02
#       6
#    16  16  16  16  16   8
#     4   8  14  27  50  75  94 120 164 210 243 279
#     4  10  20  34  53  77 104 133 167 209 255 302
#     4   8  14  27  49  75  98 122 160 208 252 293
#     4   8  15  30  53  79 103 129 166 209 250 296
#     4  11  22  35  52  75 105 140 175 210 251 298
#     4  10  19  31  47  69  99 130 160 196 242 294
#
# _framework density 18.622585000000001
#
# number of rings (size 3 to 8) (size 9 to 14) (size 15 to 20)
#    0.000    2.909    0.000    3.545    0.000    3.273 
#    0.000    1.818    0.000    6.000    0.000    6.364 
#    0.000    0.000    0.000    0.000    0.000    0.000 
#
# Total GULP energy -545390.731714 kJ/mol
# GULP energy per Si atom -12395.243903 kJ/mol
# Density = 1.858020 g / cm^3
# Si number density = 18.622585 Si / 1000 Ang^3
#
#
#
# Elastic Constant Matrix: (Units=GPa)
#
#
# Indices 1 2 3 4 5 6 
#
# 1 43.9756 26.4755 32.3863 0.0000 0.0000 0.0000
# 2 26.4755 78.9843 63.1595 0.0000 0.0000 0.0000
# 3 32.3863 63.1595 163.2978 0.0000 0.0000 0.0000
# 4 0.0000 0.0000 0.0000 5.1140 0.0000 0.0000
# 5 0.0000 0.0000 0.0000 0.0000 12.2328 0.0000
# 6 0.0000 0.0000 0.0000 0.0000 0.0000 19.1908
#
#
#
# Elastic Compliance Matrix: (Units=1/GPa)
#
#
# Indices 1 2 3 4 5 6 
#
# 1 0.029424 -0.007523 -0.002926 0.000000 0.000000 0.000000
# 2 -0.007523 0.020254 -0.006341 0.000000 0.000000 0.000000
# 3 -0.002926 -0.006341 0.009157 0.000000 0.000000 0.000000
# 4 0.000000 0.000000 0.000000 0.195543 0.000000 0.000000
# 5 0.000000 0.000000 0.000000 0.000000 0.081748 0.000000
# 6 0.000000 0.000000 0.000000 0.000000 0.000000 0.052108
#
#
# Mechanical properties :
#
#
# Convention : Reuss Voigt Hill
#
# Bulk Modulus (GPa) = 39.59902 58.92223 49.26063
# Shear Modulus (GPa) = 11.62164 18.25660 14.93912
#
# Velocity S-wave (km/s) = 2.50083 3.13445 2.83539
# Velocity P-wave (km/s) = 5.44509 6.69392 6.10154
#
# Compressibility (1/GPa) = 0.02525315
#
# Stress axis : x y z
#
# Youngs Moduli (GPa) = 33.98593 49.37417 109.20909
#
# Poissons Ratio (x) = 0.37146 0.31951
# Poissons Ratio (y) = 0.25569 0.69255
# Poissons Ratio (z) = 0.09943 0.31310
#
# Static dielectric constant tensor:
#      x y z
#    x 3.071200 0.000000 0.000000 
#    y 0.000000 3.253630 0.000000 
#    z 0.000000 0.000000 3.959700 
# 
# 
# High freq. dielectric constant tensor:
#      x y z
#    x 1.685580 0.000000 0.000000 
#    y 0.000000 1.696890 0.000000 
#    z 0.000000 0.000000 1.744300 
# 
# From -- ./inp_files/75348.got.cif
#   From: 2010.03.12/outbox.cif.g09.slc.cpg/sg65_38_cif.got.tgz:75348.got - 2010.04.10 20:52:16.
