data_PCOD8267890
_publ_section_title
;
Structure prediction by ZEFSAII (Michael W. Deem and Ramdas Pophale) SiO2 
 PCOD8267890
Probable space group: C M M M
;
_chemical_formula_sum "Si O2"
_cell_formula_units_Z 80
_cell_length_a 18.181015
_cell_length_b 27.340362
_cell_length_c 9.355619
_cell_angle_alpha 90.000000
_cell_angle_beta 90.000000
_cell_angle_gamma 90.000000
_cell_volume 4650.449288
_symmetry_space_group_name_H-M "C M M M"
_symmetry_group_IT_number 65
_symmetry_cell_setting 'orthorhombic'
loop_
_space_group_symop_operation_xyz
x,y,z
-x,-y,z
x,-y,-z
-x,y,-z
-x,-y,-z
x,y,-z
-x,y,z
x,-y,z
1/2+x,1/2+y,z
1/2-x,1/2-y,z
1/2+x,1/2-y,-z
1/2-x,1/2+y,-z
1/2-x,1/2-y,-z
1/2+x,1/2+y,-z
1/2-x,1/2+y,z
1/2+x,1/2-y,z
loop_
_atom_site_type_symbol
_atom_site_label
_atom_site_fract_x
_atom_site_fract_y
_atom_site_fract_z
Si Si1 0.083431 0.784329 0.836297
Si Si2 0.582975 0.907476 0.335201
Si Si3 0.280666 0.653510 0.165050
Si Si4 0.286144 0.946343 0.834166
Si Si5 0.848910 0.696450 0.666085
O O1 0.134725 0.831729 0.808653
O O2 0.106834 0.741100 0.732487
O O3 0.000000 0.800213 0.802071
O O4 0.091462 0.766366 0.000000
O O5 0.593151 0.921245 0.500000
O O6 0.500000 0.917289 0.283940
O O7 0.636559 0.941986 0.246212
O O8 0.601070 0.850846 0.308705
O O9 0.270001 0.596787 0.213381
O O10 0.229666 0.689567 0.257474
O O11 0.258102 0.660380 0.000000
O O12 0.251825 0.000000 0.799474
O O13 0.304203 0.941392 0.000000
O O14 0.834229 0.706826 0.500000
#
# Coordination Sequence:
#
# PCOD8267890 Si02
#       5
#    16  16  16  16  16
#     4  10  20  32  47  68  94 124 155 186 224 271
#     4   9  18  31  45  64  93 125 152 180 218 264
#     4   9  18  33  50  67  91 122 154 188 226 271
#     4   9  18  32  49  67  86 113 151 192 231 269
#     4  10  19  31  48  70  96 125 156 187 220 262
#
# _framework density 17.202639000000001
#
# number of rings (size 3 to 8) (size 9 to 14) (size 15 to 20)
#    0.000    2.600    0.000    1.800    0.000    6.400 
#    0.000    2.000    0.000    0.600    0.000    4.200 
#    0.000    0.000    0.000   11.800    0.000   12.400 
#
# Total GULP energy -495953.057023 kJ/mol
# GULP energy per Si atom -12398.826426 kJ/mol
# Density = 1.716348 g / cm^3
# Si number density = 17.202639 Si / 1000 Ang^3
#
#
#
# Elastic Constant Matrix: (Units=GPa)
#
#
# Indices 1 2 3 4 5 6 
#
# 1 117.1796 58.5017 42.6668 0.0000 0.0000 0.0000
# 2 58.5017 96.9511 39.7523 0.0000 0.0000 0.0000
# 3 42.6668 39.7523 60.0258 0.0000 0.0000 0.0000
# 4 0.0000 0.0000 0.0000 19.7415 0.0000 0.0000
# 5 0.0000 0.0000 0.0000 0.0000 15.7229 0.0000
# 6 0.0000 0.0000 0.0000 0.0000 0.0000 12.2095
#
#
#
# Elastic Compliance Matrix: (Units=1/GPa)
#
#
# Indices 1 2 3 4 5 6 
#
# 1 0.013532 -0.005795 -0.005781 0.000000 0.000000 0.000000
# 2 -0.005795 0.016641 -0.006901 0.000000 0.000000 0.000000
# 3 -0.005781 -0.006901 0.025339 0.000000 0.000000 0.000000
# 4 0.000000 0.000000 0.000000 0.050655 0.000000 0.000000
# 5 0.000000 0.000000 0.000000 0.000000 0.063601 0.000000
# 6 0.000000 0.000000 0.000000 0.000000 0.000000 0.081903
#
#
# Mechanical properties :
#
#
# Convention : Reuss Voigt Hill
#
# Bulk Modulus (GPa) = 53.88672 61.77755 57.83214
# Shear Modulus (GPa) = 16.95997 18.41717 17.68857
#
# Velocity S-wave (km/s) = 3.14330 3.27555 3.21011
# Velocity P-wave (km/s) = 6.67581 7.09192 6.88701
#
# Compressibility (1/GPa) = 0.01855745
#
# Stress axis : x y z
#
# Youngs Moduli (GPa) = 73.89893 60.09220 39.46488
#
# Poissons Ratio (x) = 0.34824 0.22814
# Poissons Ratio (y) = 0.42826 0.27236
# Poissons Ratio (z) = 0.42719 0.41472
#
# Static dielectric constant tensor:
#      x y z
#    x 3.246320 0.000000 0.000000 
#    y 0.000000 3.303760 0.000000 
#    z 0.000000 0.000000 3.264850 
# 
# 
# High freq. dielectric constant tensor:
#      x y z
#    x 1.648760 0.000000 0.000000 
#    y 0.000000 1.658300 0.000000 
#    z 0.000000 0.000000 1.665070 
# 
# From -- ./inp_files/9576.got.cif
#   From: 2010.03.12/outbox.cif.g09.slc.cpg/sg65_5_cif.got.tgz:9576.got - 2010.04.10 20:52:16.
