data_PCOD8267290
_publ_section_title
;
Structure prediction by ZEFSAII (Michael W. Deem and Ramdas Pophale) SiO2 
 PCOD8267290
Probable space group: C M M M
;
_chemical_formula_sum "Si O2"
_cell_formula_units_Z 120
_cell_length_a 23.716225
_cell_length_b 14.652640
_cell_length_c 22.067719
_cell_angle_alpha 90.000000
_cell_angle_beta 90.000000
_cell_angle_gamma 90.000000
_cell_volume 7668.649468
_symmetry_space_group_name_H-M "C M M M"
_symmetry_group_IT_number 65
_symmetry_cell_setting 'orthorhombic'
loop_
_space_group_symop_operation_xyz
x,y,z
-x,-y,z
x,-y,-z
-x,y,-z
-x,-y,-z
x,y,-z
-x,y,z
x,-y,z
1/2+x,1/2+y,z
1/2-x,1/2-y,z
1/2+x,1/2-y,-z
1/2-x,1/2+y,-z
1/2-x,1/2-y,-z
1/2+x,1/2+y,-z
1/2-x,1/2+y,z
1/2+x,1/2-y,z
loop_
_atom_site_type_symbol
_atom_site_label
_atom_site_fract_x
_atom_site_fract_y
_atom_site_fract_z
Si Si1 0.067237 0.103047 0.000000
Si Si2 0.932993 0.599618 0.068478
Si Si3 0.720446 0.608068 0.567288
Si Si4 0.567105 0.287775 0.116026
Si Si5 0.434983 0.604415 0.232050
Si Si6 0.562782 0.237842 0.569897
Si Si7 0.611770 0.605367 0.638955
Si Si8 0.844073 0.398706 0.428292
O O1 0.090753 0.154166 0.059505
O O2 0.000000 0.104080 0.000000
O O3 0.090431 0.000000 0.000000
O O4 0.912167 0.500000 0.092815
O O5 0.910952 0.682842 0.110472
O O6 0.000000 0.601558 0.067619
O O7 0.910938 0.614602 0.000000
O O8 0.703851 0.645858 0.500000
O O9 0.726233 0.500000 0.563019
O O10 0.673962 0.636794 0.616751
O O11 0.782412 0.644695 0.587124
O O12 0.500000 0.292267 0.115070
O O13 0.588759 0.330884 0.178833
O O14 0.500000 0.627162 0.248820
O O15 0.430516 0.500000 0.209857
O O16 0.394834 0.621945 0.289506
O O17 0.576530 0.255954 0.500000
O O18 0.500000 0.197776 0.578556
O O19 0.566105 0.334470 0.603824
O O20 0.607210 0.166273 0.598709
O O21 0.600116 0.500000 0.622399
O O22 0.850985 0.406173 0.500000
O O23 0.851167 0.500000 0.399717
#
# Coordination Sequence:
#
# PCOD8267290 Si02
#       8
#     8  16  16  16  16  16  16  16
#     4   9  14  18  27  45  67  89 118 161 205 237
#     4   8  12  18  29  46  67  89 115 151 200 252
#     4   8  14  26  45  66  84 104 134 174 221 265
#     4   9  14  21  32  47  67  92 124 165 207 242
#     4   9  17  27  37  48  66  99 139 172 205 250
#     4  10  20  30  42  63  86 110 142 172 206 259
#     4  10  19  30  42  56  79 111 145 180 215 252
#     4   8  15  29  47  66  87 106 128 168 219 264
#
# _framework density 15.648126
#
# number of rings (size 3 to 8) (size 9 to 14) (size 15 to 20)
#    0.000    3.133    0.667    2.400    0.000    4.000 
#    0.000    4.000    0.000    0.800    0.000    1.867 
#    0.000    0.000    0.000    0.000    0.000    2.667 
#
# Total GULP energy -743542.355759 kJ/mol
# GULP energy per Si atom -12392.372596 kJ/mol
# Density = 1.561251 g / cm^3
# Si number density = 15.648126 Si / 1000 Ang^3
#
#
#
# Elastic Constant Matrix: (Units=GPa)
#
#
# Indices 1 2 3 4 5 6 
#
# 1 64.0692 32.7406 37.6517 0.0000 0.0000 0.0000
# 2 32.7406 97.4825 52.2516 0.0000 0.0000 0.0000
# 3 37.6517 52.2516 83.6371 0.0000 0.0000 0.0000
# 4 0.0000 0.0000 0.0000 19.1509 0.0000 0.0000
# 5 0.0000 0.0000 0.0000 0.0000 2.9192 0.0000
# 6 0.0000 0.0000 0.0000 0.0000 0.0000 15.2740
#
#
#
# Elastic Compliance Matrix: (Units=1/GPa)
#
#
# Indices 1 2 3 4 5 6 
#
# 1 0.021830 -0.003104 -0.007888 0.000000 0.000000 0.000000
# 2 -0.003104 0.015864 -0.008514 0.000000 0.000000 0.000000
# 3 -0.007888 -0.008514 0.020827 0.000000 0.000000 0.000000
# 4 0.000000 0.000000 0.000000 0.052217 0.000000 0.000000
# 5 0.000000 0.000000 0.000000 0.000000 0.342556 0.000000
# 6 0.000000 0.000000 0.000000 0.000000 0.000000 0.065471
#
#
# Mechanical properties :
#
#
# Convention : Reuss Voigt Hill
#
# Bulk Modulus (GPa) = 51.25850 54.49740 52.87795
# Shear Modulus (GPa) = 8.86087 15.63847 12.24967
#
# Velocity S-wave (km/s) = 2.38220 3.16473 2.80093
# Velocity P-wave (km/s) = 6.35567 6.94668 6.65774
#
# Compressibility (1/GPa) = 0.01950896
#
# Stress axis : x y z
#
# Youngs Moduli (GPa) = 45.80864 63.03535 48.01554
#
# Poissons Ratio (x) = 0.19563 0.37877
# Poissons Ratio (y) = 0.14217 0.40880
# Poissons Ratio (z) = 0.36136 0.53667
#
# Static dielectric constant tensor:
#      x y z
#    x 2.736650 0.000000 0.000000 
#    y 0.000000 3.263740 0.000000 
#    z 0.000000 0.000000 2.801350 
# 
# 
# High freq. dielectric constant tensor:
#      x y z
#    x 1.551800 0.000000 0.000000 
#    y 0.000000 1.611010 0.000000 
#    z 0.000000 0.000000 1.567320 
# 
# From -- ./inp_files/71624.got.cif
#   From: 2010.03.12/outbox.cif.g09.slc.cpg/sg65_36_cif.got.tgz:71624.got - 2010.04.10 20:52:16.
