data_PCOD8267104
_publ_section_title
;
Structure prediction by ZEFSAII (Michael W. Deem and Ramdas Pophale) SiO2 
 PCOD8267104
Probable space group: C M M M
;
_chemical_formula_sum "Si O2"
_cell_formula_units_Z 80
_cell_length_a 25.593280
_cell_length_b 8.857254
_cell_length_c 22.359020
_cell_angle_alpha 90.000000
_cell_angle_beta 90.000000
_cell_angle_gamma 90.000000
_cell_volume 5068.480869
_symmetry_space_group_name_H-M "C M M M"
_symmetry_group_IT_number 65
_symmetry_cell_setting 'orthorhombic'
loop_
_space_group_symop_operation_xyz
x,y,z
-x,-y,z
x,-y,-z
-x,y,-z
-x,-y,-z
x,y,-z
-x,y,z
x,-y,z
1/2+x,1/2+y,z
1/2-x,1/2-y,z
1/2+x,1/2-y,-z
1/2-x,1/2+y,-z
1/2-x,1/2-y,-z
1/2+x,1/2+y,-z
1/2-x,1/2+y,z
1/2+x,1/2-y,z
loop_
_atom_site_type_symbol
_atom_site_label
_atom_site_fract_x
_atom_site_fract_y
_atom_site_fract_z
Si Si1 0.060906 0.824628 0.753259
Si Si2 0.937698 0.330733 0.127774
Si Si3 0.600906 0.821185 0.361987
Si Si4 0.195156 0.177451 0.568490
Si Si5 0.500000 0.820525 0.432915
Si Si6 0.942678 0.320446 0.000000
O O1 0.080840 0.780301 0.819525
O O2 0.094339 0.728406 0.706444
O O3 0.000000 0.782763 0.745837
O O4 0.071265 0.000000 0.742496
O O5 0.918057 0.500000 0.142732
O O6 0.000000 0.330553 0.122075
O O7 0.914391 0.274286 0.062949
O O8 0.652176 0.746294 0.388359
O O9 0.551230 0.760068 0.399245
O O10 0.606119 0.000000 0.366082
O O11 0.180933 0.217812 0.500000
O O12 0.250000 0.250000 0.586691
O O13 0.198758 0.000000 0.578570
O O14 0.500000 0.754825 0.500000
O O15 0.500000 0.000000 0.433565
O O16 0.948261 0.500000 0.000000
O O17 0.000000 0.245084 0.000000
#
# Coordination Sequence:
#
# PCOD8267104 Si02
#       6
#    16  16  16  16   8   8
#     4  10  19  29  40  58  88 121 153 188 227 271
#     4   8  13  22  37  54  75 106 147 187 224 264
#     4  11  20  32  50  69  92 121 154 190 229 273
#     4  10  21  37  55  74  94 117 147 185 230 278
#     4   9  18  30  45  67  91 114 145 184 225 269
#     4   7  10  18  33  53  73  99 140 189 226 257
#
# _framework density 15.783822000000001
#
# number of rings (size 3 to 8) (size 9 to 14) (size 15 to 20)
#    0.000    2.600    1.000    3.600    0.000    2.800 
#    0.000    0.500    0.000    5.400    0.000    0.000 
#    0.000    0.000    0.000    0.900    0.000   11.500 
#
# Total GULP energy -495783.598177 kJ/mol
# GULP energy per Si atom -12394.589954 kJ/mol
# Density = 1.574790 g / cm^3
# Si number density = 15.783822 Si / 1000 Ang^3
#
#
#
# Elastic Constant Matrix: (Units=GPa)
#
#
# Indices 1 2 3 4 5 6 
#
# 1 68.5128 29.4407 48.1754 0.0000 0.0000 0.0000
# 2 29.4407 55.0398 33.0440 0.0000 0.0000 0.0000
# 3 48.1754 33.0440 132.9480 0.0000 0.0000 0.0000
# 4 0.0000 0.0000 0.0000 22.4588 0.0000 0.0000
# 5 0.0000 0.0000 0.0000 0.0000 -47.4119 0.0000
# 6 0.0000 0.0000 0.0000 0.0000 0.0000 18.9678
#
#
#
# Elastic Compliance Matrix: (Units=1/GPa)
#
#
# Indices 1 2 3 4 5 6 
#
# 1 0.022451 -0.008375 -0.006054 0.000000 0.000000 0.000000
# 2 -0.008375 0.024479 -0.003050 0.000000 0.000000 0.000000
# 3 -0.006054 -0.003050 0.010473 0.000000 0.000000 0.000000
# 4 0.000000 0.000000 0.000000 0.044526 0.000000 0.000000
# 5 0.000000 0.000000 0.000000 0.000000 -0.021092 0.000000
# 6 0.000000 0.000000 0.000000 0.000000 0.000000 0.052721
#
#
# Mechanical properties :
#
#
# Convention : Reuss Voigt Hill
#
# Bulk Modulus (GPa) = 44.54838 53.09121 48.81979
# Shear Modulus (GPa) = 28.40937 8.52564 18.46751
#
# Velocity S-wave (km/s) = 4.24713 2.32664 3.42428
# Velocity P-wave (km/s) = 7.23437 6.39743 6.82874
#
# Compressibility (1/GPa) = 0.02244750
#
# Stress axis : x y z
#
# Youngs Moduli (GPa) = 44.54055 40.85112 95.47915
#
# Poissons Ratio (x) = 0.34211 0.57804
# Poissons Ratio (y) = 0.37301 0.29117
# Poissons Ratio (z) = 0.26965 0.12458
#
# Static dielectric constant tensor:
#      x y z
#    x 2.620210 0.000000 0.000000 
#    y 0.000000 2.888390 0.000000 
#    z 0.000000 0.000000 3.368780 
# 
# 
# High freq. dielectric constant tensor:
#      x y z
#    x 1.545200 0.000000 0.000000 
#    y 0.000000 1.600470 0.000000 
#    z 0.000000 0.000000 1.621980 
# 
# From -- ./inp_files/65679.got.cif
#   From: 2010.03.12/outbox.cif.g09.slc.cpg/sg65_33_cif.got.tgz:65679.got - 2010.04.10 20:52:16.
