data_PCOD8267697
_publ_section_title
;
Structure prediction by ZEFSAII (Michael W. Deem and Ramdas Pophale) SiO2 
 PCOD8267697
Probable space group: C M M M
;
_chemical_formula_sum "Si O2"
_cell_formula_units_Z 120
_cell_length_a 28.548351
_cell_length_b 8.721206
_cell_length_c 29.055981
_cell_angle_alpha 90.000000
_cell_angle_beta 90.000000
_cell_angle_gamma 90.000000
_cell_volume 7234.243379
_symmetry_space_group_name_H-M "C M M M"
_symmetry_group_IT_number 65
_symmetry_cell_setting 'orthorhombic'
loop_
_space_group_symop_operation_xyz
x,y,z
-x,-y,z
x,-y,-z
-x,y,-z
-x,-y,-z
x,y,-z
-x,y,z
x,-y,z
1/2+x,1/2+y,z
1/2-x,1/2-y,z
1/2+x,1/2-y,-z
1/2-x,1/2+y,-z
1/2-x,1/2-y,-z
1/2+x,1/2+y,-z
1/2-x,1/2+y,z
1/2+x,1/2-y,z
loop_
_atom_site_type_symbol
_atom_site_label
_atom_site_fract_x
_atom_site_fract_y
_atom_site_fract_z
Si Si1 0.647393 0.822034 0.551989
Si Si2 0.801410 0.181141 0.000000
Si Si3 0.698408 0.681557 0.802971
Si Si4 0.052697 0.822796 0.307672
Si Si5 0.300849 0.319438 0.635796
Si Si6 0.856814 0.320587 0.719673
Si Si7 0.699324 0.679636 0.902771
Si Si8 0.948250 0.325266 0.403999
O O1 0.660086 0.774675 0.500000
O O2 0.679617 0.723306 0.585660
O O3 0.592049 0.788467 0.559060
O O4 0.658491 0.000000 0.561036
O O5 0.750000 0.250000 0.000000
O O6 0.826829 0.230868 0.951173
O O7 0.796444 0.000000 0.000000
O O8 0.700796 0.500000 0.794765
O O9 0.750000 0.750000 0.797452
O O10 0.665268 0.757962 0.766034
O O11 0.676020 0.724068 0.853611
O O12 0.088110 0.719147 0.278162
O O13 0.058521 0.788205 0.361521
O O14 0.000000 0.784150 0.291264
O O15 0.064835 0.000000 0.299585
O O16 0.297100 0.500000 0.640300
O O17 0.250000 0.250000 0.643960
O O18 0.335482 0.257696 0.674626
O O19 0.848364 0.500000 0.716076
O O20 0.706175 0.500000 0.903152
O O21 0.750000 0.750000 0.903244
O O22 0.943149 0.500000 0.385895
O O23 0.000000 0.301066 0.426377
#
# Coordination Sequence:
#
# PCOD8267697 Si02
#       8
#    16   8  16  16  16  16  16  16
#     4  10  21  37  56  79 106 132 159 192 231 278
#     4   8  12  20  34  54  78 112 157 200 241 280
#     4  10  19  31  45  66  96 130 167 206 247 285
#     4  10  20  34  54  79 103 126 153 188 230 278
#     4  12  25  41  59  76  96 124 160 201 242 284
#     4  12  23  36  54  75  99 127 160 196 238 286
#     4   8  14  23  37  56  83 118 158 202 242 282
#     4   9  17  31  53  79 106 133 157 184 221 270
#
# _framework density 16.587775000000001
#
# number of rings (size 3 to 8) (size 9 to 14) (size 15 to 20)
#    0.000    2.000    1.333    3.600    0.000    2.133 
#    0.000    1.333    0.000    0.000    0.000    2.800 
#    0.000    0.000    0.000    0.600    0.000   13.800 
#
# Total GULP energy -743404.812732 kJ/mol
# GULP energy per Si atom -12390.080212 kJ/mol
# Density = 1.655002 g / cm^3
# Si number density = 16.587775 Si / 1000 Ang^3
#
#
#
# Elastic Constant Matrix: (Units=GPa)
#
#
# Indices 1 2 3 4 5 6 
#
# 1 72.5420 33.0041 39.1974 0.0000 0.0000 0.0000
# 2 33.0041 83.0993 42.8514 0.0000 0.0000 0.0000
# 3 39.1974 42.8514 128.6591 0.0000 0.0000 0.0000
# 4 0.0000 0.0000 0.0000 14.6301 0.0000 0.0000
# 5 0.0000 0.0000 0.0000 0.0000 5.3344 0.0000
# 6 0.0000 0.0000 0.0000 0.0000 0.0000 21.0806
#
#
#
# Elastic Compliance Matrix: (Units=1/GPa)
#
#
# Indices 1 2 3 4 5 6 
#
# 1 0.018242 -0.005287 -0.003797 0.000000 0.000000 0.000000
# 2 -0.005287 0.016062 -0.003739 0.000000 0.000000 0.000000
# 3 -0.003797 -0.003739 0.010174 0.000000 0.000000 0.000000
# 4 0.000000 0.000000 0.000000 0.068352 0.000000 0.000000
# 5 0.000000 0.000000 0.000000 0.000000 0.187464 0.000000
# 6 0.000000 0.000000 0.000000 0.000000 0.000000 0.047437
#
#
# Mechanical properties :
#
#
# Convention : Reuss Voigt Hill
#
# Bulk Modulus (GPa) = 53.09871 57.15622 55.12747
# Shear Modulus (GPa) = 13.16988 19.49219 16.33103
#
# Velocity S-wave (km/s) = 2.82077 3.43168 3.14111
# Velocity P-wave (km/s) = 6.53370 7.08756 6.81626
#
# Compressibility (1/GPa) = 0.01883285
#
# Stress axis : x y z
#
# Youngs Moduli (GPa) = 54.81810 62.26020 98.28609
#
# Poissons Ratio (x) = 0.32919 0.37316
# Poissons Ratio (y) = 0.28984 0.36746
# Poissons Ratio (z) = 0.20813 0.23277
#
# Static dielectric constant tensor:
#      x y z
#    x 3.058360 0.000000 0.000000 
#    y 0.000000 3.196810 0.000000 
#    z 0.000000 0.000000 3.619500 
# 
# 
# High freq. dielectric constant tensor:
#      x y z
#    x 1.606630 0.000000 0.000000 
#    y 0.000000 1.648030 0.000000 
#    z 0.000000 0.000000 1.637910 
# 
# From -- ./inp_files/76155.got.cif
#   From: 2010.03.12/outbox.cif.g09.slc.cpg/sg65_39_cif.got.tgz:76155.got - 2010.04.10 20:52:16.
