data_PCOD8267805
_publ_section_title
;
Structure prediction by ZEFSAII (Michael W. Deem and Ramdas Pophale) SiO2 
 PCOD8267805
Probable space group: C M M M
;
_chemical_formula_sum "Si O2"
_cell_formula_units_Z 88
_cell_length_a 24.005138
_cell_length_b 24.180360
_cell_length_c 9.811404
_cell_angle_alpha 90.000000
_cell_angle_beta 90.000000
_cell_angle_gamma 90.000000
_cell_volume 5695.057696
_symmetry_space_group_name_H-M "C M M M"
_symmetry_group_IT_number 65
_symmetry_cell_setting 'orthorhombic'
loop_
_space_group_symop_operation_xyz
x,y,z
-x,-y,z
x,-y,-z
-x,y,-z
-x,-y,-z
x,y,-z
-x,y,z
x,-y,z
1/2+x,1/2+y,z
1/2-x,1/2-y,z
1/2+x,1/2-y,-z
1/2-x,1/2+y,-z
1/2-x,1/2-y,-z
1/2+x,1/2+y,-z
1/2-x,1/2+y,z
1/2+x,1/2-y,z
loop_
_atom_site_type_symbol
_atom_site_label
_atom_site_fract_x
_atom_site_fract_y
_atom_site_fract_z
Si Si1 0.746513 0.159865 0.157087
Si Si2 0.500000 0.063531 0.147967
Si Si3 0.340762 0.252618 0.156921
Si Si4 0.907890 0.600510 0.650396
Si Si5 0.435740 0.226734 0.346881
Si Si6 0.783254 0.563494 0.656597
O O1 0.693811 0.197813 0.200386
O O2 0.802982 0.193756 0.180082
O O3 0.751675 0.104823 0.248127
O O4 0.740295 0.142256 0.000000
O O5 0.554494 0.077710 0.230928
O O6 0.500000 0.000000 0.117239
O O7 0.500000 0.094358 0.000000
O O8 0.396577 0.261790 0.245997
O O9 0.358742 0.247379 0.000000
O O10 0.928149 0.580627 0.500000
O O11 0.909885 0.666113 0.655151
O O12 0.847544 0.576701 0.680427
O O13 0.432389 0.251209 0.500000
O O14 0.500000 0.226698 0.296128
O O15 0.766322 0.574073 0.500000
O O16 0.770987 0.500000 0.697964
#
# Coordination Sequence:
#
# PCOD8267805 Si02
#       6
#    16   8  16  16  16  16
#     4   9  18  32  49  69  93 120 153 193 236 282
#     4  11  23  33  41  57  79 109 157 207 240 269
#     4   9  18  32  49  69  92 120 154 192 236 283
#     4  10  19  33  47  60  84 120 156 192 232 271
#     4  10  19  31  47  68  92 119 156 196 232 273
#     4  10  20  32  47  68  92 120 157 195 231 274
#
# _framework density 15.451993999999999
#
# number of rings (size 3 to 8) (size 9 to 14) (size 15 to 20)
#    0.000    2.273    2.727    1.909    0.000    4.364 
#    0.000    1.818    0.000    0.000    0.000    0.000 
#    0.000    0.727    0.000    8.000    0.000    5.818 
#
# Total GULP energy -545417.411031 kJ/mol
# GULP energy per Si atom -12395.850251 kJ/mol
# Density = 1.541682 g / cm^3
# Si number density = 15.451994 Si / 1000 Ang^3
#
#
#
# Elastic Constant Matrix: (Units=GPa)
#
#
# Indices 1 2 3 4 5 6 
#
# 1 61.0296 33.3060 46.0612 0.0000 0.0000 0.0000
# 2 33.3060 76.2541 48.1093 0.0000 0.0000 0.0000
# 3 46.0612 48.1093 94.3694 0.0000 0.0000 0.0000
# 4 0.0000 0.0000 0.0000 27.1207 0.0000 0.0000
# 5 0.0000 0.0000 0.0000 0.0000 29.6305 0.0000
# 6 0.0000 0.0000 0.0000 0.0000 0.0000 21.1729
#
#
#
# Elastic Compliance Matrix: (Units=1/GPa)
#
#
# Indices 1 2 3 4 5 6 
#
# 1 0.027262 -0.005177 -0.010667 0.000000 0.000000 0.000000
# 2 -0.005177 0.020315 -0.007830 0.000000 0.000000 0.000000
# 3 -0.010667 -0.007830 0.019795 0.000000 0.000000 0.000000
# 4 0.000000 0.000000 0.000000 0.036872 0.000000 0.000000
# 5 0.000000 0.000000 0.000000 0.000000 0.033749 0.000000
# 6 0.000000 0.000000 0.000000 0.000000 0.000000 0.047230
#
#
# Mechanical properties :
#
#
# Convention : Reuss Voigt Hill
#
# Bulk Modulus (GPa) = 49.94073 54.06735 52.00404
# Shear Modulus (GPa) = 20.89908 22.52991 21.71450
#
# Velocity S-wave (km/s) = 3.68165 3.82260 3.75278
# Velocity P-wave (km/s) = 7.10372 7.38576 7.24611
#
# Compressibility (1/GPa) = 0.02002374
#
# Stress axis : x y z
#
# Youngs Moduli (GPa) = 36.68160 49.22436 50.51901
#
# Poissons Ratio (x) = 0.25486 0.53888
# Poissons Ratio (y) = 0.18992 0.39554
# Poissons Ratio (z) = 0.39128 0.38540
#
# Static dielectric constant tensor:
#      x y z
#    x 2.758710 0.000000 0.000000 
#    y 0.000000 2.771260 0.000000 
#    z 0.000000 0.000000 3.285740 
# 
# 
# High freq. dielectric constant tensor:
#      x y z
#    x 1.571180 0.000000 0.000000 
#    y 0.000000 1.563980 0.000000 
#    z 0.000000 0.000000 1.604190 
# 
# From -- ./inp_files/13950.got.cif
#   From: 2010.03.12/outbox.cif.g09.slc.cpg/sg65_7_cif.got.tgz:13950.got - 2010.04.10 20:52:16.
