data_PCOD8267686
_publ_section_title
;
Structure prediction by ZEFSAII (Michael W. Deem and Ramdas Pophale) SiO2 
 PCOD8267686
Probable space group: C M M M
;
_chemical_formula_sum "Si O2"
_cell_formula_units_Z 120
_cell_length_a 16.252407
_cell_length_b 18.904776
_cell_length_c 24.341263
_cell_angle_alpha 90.000000
_cell_angle_beta 90.000000
_cell_angle_gamma 90.000000
_cell_volume 7478.807144
_symmetry_space_group_name_H-M "C M M M"
_symmetry_group_IT_number 65
_symmetry_cell_setting 'orthorhombic'
loop_
_space_group_symop_operation_xyz
x,y,z
-x,-y,z
x,-y,-z
-x,y,-z
-x,-y,-z
x,y,-z
-x,y,z
x,-y,z
1/2+x,1/2+y,z
1/2-x,1/2-y,z
1/2+x,1/2-y,-z
1/2-x,1/2+y,-z
1/2-x,1/2-y,-z
1/2+x,1/2+y,-z
1/2-x,1/2+y,z
1/2+x,1/2-y,z
loop_
_atom_site_type_symbol
_atom_site_label
_atom_site_fract_x
_atom_site_fract_y
_atom_site_fract_z
Si Si1 0.695639 0.078027 0.734613
Si Si2 0.588658 0.582746 0.000000
Si Si3 0.598620 0.417900 0.880427
Si Si4 0.707702 0.680357 0.196661
Si Si5 0.408287 0.707725 0.297626
Si Si6 0.094451 0.649016 0.353024
Si Si7 0.843339 0.922758 0.648801
Si Si8 0.713818 0.917857 0.562775
O O1 0.718037 0.128781 0.785460
O O2 0.615872 0.104217 0.701544
O O3 0.770480 0.076508 0.692576
O O4 0.677806 0.000000 0.758395
O O5 0.632632 0.601227 0.057911
O O6 0.572465 0.500000 0.000000
O O7 0.500000 0.621293 0.000000
O O8 0.500000 0.406685 0.876040
O O9 0.619181 0.500000 0.865059
O O10 0.645493 0.362925 0.841822
O O11 0.750000 0.750000 0.168652
O O12 0.656943 0.708131 0.248806
O O13 0.500000 0.718598 0.273459
O O14 0.384844 0.769595 0.339791
O O15 0.408880 0.635514 0.332983
O O16 0.145137 0.627966 0.406713
O O17 0.000000 0.636315 0.367345
O O18 0.803628 0.904978 0.589565
O O19 0.886590 0.000000 0.647600
O O20 0.718230 0.892999 0.500000
O O21 0.689090 0.000000 0.568411
#
# Coordination Sequence:
#
# PCOD8267686 Si02
#       8
#    16   8  16  16  16  16  16  16
#     4   9  17  29  44  63  85 115 154 190 223 273
#     4   7  12  26  47  70  96 126 159 199 246 286
#     4   9  17  30  50  74  98 126 164 206 243 280
#     4  11  19  30  45  67  97 132 156 188 237 280
#     4  10  20  32  46  65  91 121 155 188 224 273
#     4  10  19  31  45  63  89 120 150 186 230 274
#     4   8  16  30  48  66  87 112 141 181 227 277
#     4   9  18  32  50  70  88 109 142 184 230 282
#
# _framework density 16.045339999999999
#
# number of rings (size 3 to 8) (size 9 to 14) (size 15 to 20)
#    0.000    2.733    1.333    2.800    0.000    2.133 
#    0.000    2.333    0.000    1.200    0.000    1.867 
#    0.000    0.000    0.000    0.000    0.000   24.333 
#
# Total GULP energy -743497.433173 kJ/mol
# GULP energy per Si atom -12391.623886 kJ/mol
# Density = 1.600882 g / cm^3
# Si number density = 16.045340 Si / 1000 Ang^3
#
#
#
# Elastic Constant Matrix: (Units=GPa)
#
#
# Indices 1 2 3 4 5 6 
#
# 1 33.3390 28.0864 20.6149 0.0000 0.0000 0.0000
# 2 28.0864 99.1491 32.9082 0.0000 0.0000 0.0000
# 3 20.6149 32.9082 71.2320 0.0000 0.0000 0.0000
# 4 0.0000 0.0000 0.0000 14.8741 0.0000 0.0000
# 5 0.0000 0.0000 0.0000 0.0000 7.6090 0.0000
# 6 0.0000 0.0000 0.0000 0.0000 0.0000 22.4345
#
#
#
# Elastic Compliance Matrix: (Units=1/GPa)
#
#
# Indices 1 2 3 4 5 6 
#
# 1 0.042977 -0.009503 -0.008047 0.000000 0.000000 0.000000
# 2 -0.009503 0.014014 -0.003724 0.000000 0.000000 0.000000
# 3 -0.008047 -0.003724 0.018088 0.000000 0.000000 0.000000
# 4 0.000000 0.000000 0.000000 0.067231 0.000000 0.000000
# 5 0.000000 0.000000 0.000000 0.000000 0.131424 0.000000
# 6 0.000000 0.000000 0.000000 0.000000 0.000000 0.044574
#
#
# Mechanical properties :
#
#
# Convention : Reuss Voigt Hill
#
# Bulk Modulus (GPa) = 30.74117 40.77103 35.75610
# Shear Modulus (GPa) = 13.45170 17.12422 15.28796
#
# Velocity S-wave (km/s) = 2.89858 3.27041 3.09009
# Velocity P-wave (km/s) = 5.51388 6.30284 5.92152
#
# Compressibility (1/GPa) = 0.03252966
#
# Stress axis : x y z
#
# Youngs Moduli (GPa) = 23.26822 71.35796 55.28537
#
# Poissons Ratio (x) = 0.67814 0.44490
# Poissons Ratio (y) = 0.22113 0.20588
# Poissons Ratio (z) = 0.18725 0.26573
#
# Static dielectric constant tensor:
#      x y z
#    x 2.846700 0.000000 0.000000 
#    y 0.000000 3.238820 0.000000 
#    z 0.000000 0.000000 3.058770 
# 
# 
# High freq. dielectric constant tensor:
#      x y z
#    x 1.593690 0.000000 0.000000 
#    y 0.000000 1.622170 0.000000 
#    z 0.000000 0.000000 1.593290 
# 
# From -- ./inp_files/64006.got.cif
#   From: 2010.03.12/outbox.cif.g09.slc.cpg/sg65_33_cif.got.tgz:64006.got - 2010.04.10 20:52:16.
