data_PCOD8267835
_publ_section_title
;
Structure prediction by ZEFSAII (Michael W. Deem and Ramdas Pophale) SiO2 
 PCOD8267835
Probable space group: C M M M
;
_chemical_formula_sum "Si O2"
_cell_formula_units_Z 96
_cell_length_a 30.240327
_cell_length_b 18.904309
_cell_length_c 9.852378
_cell_angle_alpha 90.000000
_cell_angle_beta 90.000000
_cell_angle_gamma 90.000000
_cell_volume 5632.333423
_symmetry_space_group_name_H-M "C M M M"
_symmetry_group_IT_number 65
_symmetry_cell_setting 'orthorhombic'
loop_
_space_group_symop_operation_xyz
x,y,z
-x,-y,z
x,-y,-z
-x,y,-z
-x,-y,-z
x,y,-z
-x,y,z
x,-y,z
1/2+x,1/2+y,z
1/2-x,1/2-y,z
1/2+x,1/2-y,-z
1/2-x,1/2+y,-z
1/2-x,1/2-y,-z
1/2+x,1/2+y,-z
1/2-x,1/2+y,z
1/2+x,1/2-y,z
loop_
_atom_site_type_symbol
_atom_site_label
_atom_site_fract_x
_atom_site_fract_y
_atom_site_fract_z
Si Si1 0.208216 0.202278 0.657611
Si Si2 0.127583 0.697156 0.344543
Si Si3 0.161396 0.580762 0.155045
Si Si4 0.763874 0.919185 0.156492
Si Si5 0.447470 0.578095 0.151845
Si Si6 0.949444 0.200416 0.344664
O O1 0.210048 0.180462 0.500000
O O2 0.250000 0.250000 0.698202
O O3 0.164074 0.244705 0.694121
O O4 0.207525 0.131250 0.747005
O O5 0.133846 0.673241 0.500000
O O6 0.131314 0.628508 0.251307
O O7 0.079176 0.729576 0.318669
O O8 0.146699 0.500000 0.176835
O O9 0.212534 0.590190 0.194065
O O10 0.153529 0.603819 0.000000
O O11 0.778585 0.000000 0.182292
O O12 0.772162 0.898536 0.000000
O O13 0.500000 0.576850 0.158420
O O14 0.429402 0.500000 0.191642
O O15 0.429314 0.636431 0.255807
O O16 0.431585 0.597738 0.000000
O O17 0.945627 0.175626 0.500000
O O18 0.000000 0.218371 0.305033
#
# Coordination Sequence:
#
# PCOD8267835 Si02
#       6
#    16  16  16  16  16  16
#     4  10  19  31  47  70  98 126 155 191 234 282
#     4  10  20  33  49  72  99 125 158 197 236 283
#     4   9  18  32  50  73  98 123 156 196 234 278
#     4   9  18  32  49  70  97 129 163 196 231 276
#     4   8  14  26  45  68  92 118 152 195 238 279
#     4   9  18  32  49  69  94 125 161 201 241 280
#
# _framework density 17.044445
#
# number of rings (size 3 to 8) (size 9 to 14) (size 15 to 20)
#    0.000    2.833    1.667    1.500    0.000    2.667 
#    0.000    4.167    0.000    5.500    0.000    3.500 
#    0.000    0.000    0.000    0.000    0.000    0.000 
#
# Total GULP energy -595170.127476 kJ/mol
# GULP energy per Si atom -12399.377656 kJ/mol
# Density = 1.700565 g / cm^3
# Si number density = 17.044445 Si / 1000 Ang^3
#
#
#
# Elastic Constant Matrix: (Units=GPa)
#
#
# Indices 1 2 3 4 5 6 
#
# 1 56.3765 34.4493 31.0060 0.0000 0.0000 0.0000
# 2 34.4493 103.6952 70.3962 0.0000 0.0000 0.0000
# 3 31.0060 70.3962 85.6801 0.0000 0.0000 0.0000
# 4 0.0000 0.0000 0.0000 38.3701 0.0000 0.0000
# 5 0.0000 0.0000 0.0000 0.0000 17.2500 0.0000
# 6 0.0000 0.0000 0.0000 0.0000 0.0000 19.8047
#
#
#
# Elastic Compliance Matrix: (Units=1/GPa)
#
#
# Indices 1 2 3 4 5 6 
#
# 1 0.023042 -0.004509 -0.004633 0.000000 0.000000 0.000000
# 2 -0.004509 0.022690 -0.017010 0.000000 0.000000 0.000000
# 3 -0.004633 -0.017010 0.027324 0.000000 0.000000 0.000000
# 4 0.000000 0.000000 0.000000 0.026062 0.000000 0.000000
# 5 0.000000 0.000000 0.000000 0.000000 0.057971 0.000000
# 6 0.000000 0.000000 0.000000 0.000000 0.000000 0.050493
#
#
# Mechanical properties :
#
#
# Convention : Reuss Voigt Hill
#
# Bulk Modulus (GPa) = 48.19468 57.49499 52.84483
# Shear Modulus (GPa) = 18.74034 22.41165 20.57599
#
# Velocity S-wave (km/s) = 3.31947 3.63008 3.47824
# Velocity P-wave (km/s) = 6.55966 7.16768 6.87040
#
# Compressibility (1/GPa) = 0.02074918
#
# Stress axis : x y z
#
# Youngs Moduli (GPa) = 43.39975 44.07293 36.59772
#
# Poissons Ratio (x) = 0.19874 0.16957
# Poissons Ratio (y) = 0.19570 0.62254
# Poissons Ratio (z) = 0.20109 0.74970
#
# Static dielectric constant tensor:
#      x y z
#    x 2.958410 0.000000 0.000000 
#    y 0.000000 3.155440 0.000000 
#    z 0.000000 0.000000 3.225690 
# 
# 
# High freq. dielectric constant tensor:
#      x y z
#    x 1.628380 0.000000 0.000000 
#    y 0.000000 1.651750 0.000000 
#    z 0.000000 0.000000 1.660560 
# 
# From -- ./inp_files/16327.got.cif
#   From: 2010.03.12/outbox.cif.g09.slc.cpg/sg65_9_cif.got.tgz:16327.got - 2010.04.10 20:52:16.
