data_PCOD8267127
_publ_section_title
;
Structure prediction by ZEFSAII (Michael W. Deem and Ramdas Pophale) SiO2 
 PCOD8267127
Probable space group: C M M M
;
_chemical_formula_sum "Si O2"
_cell_formula_units_Z 96
_cell_length_a 27.354457
_cell_length_b 9.195334
_cell_length_c 24.106419
_cell_angle_alpha 90.000000
_cell_angle_beta 90.000000
_cell_angle_gamma 90.000000
_cell_volume 6063.568774
_symmetry_space_group_name_H-M "C M M M"
_symmetry_group_IT_number 65
_symmetry_cell_setting 'orthorhombic'
loop_
_space_group_symop_operation_xyz
x,y,z
-x,-y,z
x,-y,-z
-x,y,-z
-x,-y,-z
x,y,-z
-x,y,z
x,-y,z
1/2+x,1/2+y,z
1/2-x,1/2-y,z
1/2+x,1/2-y,-z
1/2-x,1/2+y,-z
1/2-x,1/2-y,-z
1/2+x,1/2+y,-z
1/2-x,1/2+y,z
1/2+x,1/2-y,z
loop_
_atom_site_type_symbol
_atom_site_label
_atom_site_fract_x
_atom_site_fract_y
_atom_site_fract_z
Si Si1 0.103819 0.670447 0.829420
Si Si2 0.299105 0.828509 0.768011
Si Si3 0.554411 0.331902 0.732356
Si Si4 0.444979 0.172689 0.939170
Si Si5 0.649476 0.331142 0.670901
Si Si6 0.299199 0.330964 0.561590
O O1 0.094365 0.500000 0.824850
O O2 0.159613 0.708756 0.813815
O O3 0.066035 0.743309 0.787501
O O4 0.091999 0.729068 0.891429
O O5 0.250000 0.750000 0.788523
O O6 0.314969 0.765953 0.708494
O O7 0.290292 0.000000 0.762175
O O8 0.500000 0.291794 0.711161
O O9 0.558296 0.500000 0.748489
O O10 0.592894 0.293319 0.683623
O O11 0.500000 0.228145 0.926524
O O12 0.444820 0.000000 0.939971
O O13 0.427986 0.230580 0.000000
O O14 0.661029 0.500000 0.683516
O O15 0.658937 0.292858 0.606416
O O16 0.317168 0.283078 0.500000
O O17 0.286631 0.500000 0.562570
O O18 0.250000 0.250000 0.578848
#
# Coordination Sequence:
#
# PCOD8267127 Si02
#       6
#    16  16  16  16  16  16
#     4   9  17  28  43  63  84 107 137 171 204 239
#     4  10  19  29  42  61  84 109 137 169 205 244
#     4   9  17  28  42  61  85 112 138 164 200 244
#     4   8  13  22  39  63  86 105 128 163 205 242
#     4   9  17  29  44  61  83 110 137 167 202 241
#     4   9  17  28  42  60  81 105 133 166 204 243
#
# _framework density 15.83226
#
# number of rings (size 3 to 8) (size 9 to 14) (size 15 to 20)
#    0.000    3.000    0.000    2.000    0.000    3.667 
#    0.000    0.000    0.000    1.500    0.000    5.833 
#    0.000    0.000    0.000   12.500    0.000   13.500 
#
# Total GULP energy -594948.133236 kJ/mol
# GULP energy per Si atom -12394.752776 kJ/mol
# Density = 1.579623 g / cm^3
# Si number density = 15.832260 Si / 1000 Ang^3
#
#
#
# Elastic Constant Matrix: (Units=GPa)
#
#
# Indices 1 2 3 4 5 6 
#
# 1 115.9097 33.8280 76.1409 0.0000 0.0000 0.0000
# 2 33.8280 34.7565 31.0903 0.0000 0.0000 0.0000
# 3 76.1409 31.0903 139.7592 0.0000 0.0000 0.0000
# 4 0.0000 0.0000 0.0000 16.1671 0.0000 0.0000
# 5 0.0000 0.0000 0.0000 0.0000 24.0473 0.0000
# 6 0.0000 0.0000 0.0000 0.0000 0.0000 18.9592
#
#
#
# Elastic Compliance Matrix: (Units=1/GPa)
#
#
# Indices 1 2 3 4 5 6 
#
# 1 0.015581 -0.009453 -0.006386 0.000000 0.000000 0.000000
# 2 -0.009453 0.041654 -0.004116 0.000000 0.000000 0.000000
# 3 -0.006386 -0.004116 0.011550 0.000000 0.000000 0.000000
# 4 0.000000 0.000000 0.000000 0.061854 0.000000 0.000000
# 5 0.000000 0.000000 0.000000 0.000000 0.041585 0.000000
# 6 0.000000 0.000000 0.000000 0.000000 0.000000 0.052745
#
#
# Mechanical properties :
#
#
# Convention : Reuss Voigt Hill
#
# Bulk Modulus (GPa) = 34.63177 63.61598 49.12388
# Shear Modulus (GPa) = 18.21478 21.79246 20.00362
#
# Velocity S-wave (km/s) = 3.39556 3.71409 3.55839
# Velocity P-wave (km/s) = 6.10694 7.65905 6.92661
#
# Compressibility (1/GPa) = 0.02887522
#
# Stress axis : x y z
#
# Youngs Moduli (GPa) = 64.18131 24.00745 86.58154
#
# Poissons Ratio (x) = 0.22693 0.55288
# Poissons Ratio (y) = 0.60667 0.35640
# Poissons Ratio (z) = 0.40984 0.09882
#
# Static dielectric constant tensor:
#      x y z
#    x 3.101240 0.000000 0.000000 
#    y 0.000000 2.907150 0.000000 
#    z 0.000000 0.000000 3.266560 
# 
# 
# High freq. dielectric constant tensor:
#      x y z
#    x 1.598060 0.000000 0.000000 
#    y 0.000000 1.595200 0.000000 
#    z 0.000000 0.000000 1.601120 
# 
# From -- ./inp_files/68052.got.cif
#   From: 2010.03.12/outbox.cif.g09.slc.cpg/sg65_35_cif.got.tgz:68052.got - 2010.04.10 20:52:16.
