data_PCOD8267196
_publ_section_title
;
Structure prediction by ZEFSAII (Michael W. Deem and Ramdas Pophale) SiO2 
 PCOD8267196
Probable space group: C M M M
;
_chemical_formula_sum "Si O2"
_cell_formula_units_Z 104
_cell_length_a 25.018147
_cell_length_b 14.694798
_cell_length_c 16.086000
_cell_angle_alpha 90.000000
_cell_angle_beta 90.000000
_cell_angle_gamma 90.000000
_cell_volume 5913.802613
_symmetry_space_group_name_H-M "C M M M"
_symmetry_group_IT_number 65
_symmetry_cell_setting 'orthorhombic'
loop_
_space_group_symop_operation_xyz
x,y,z
-x,-y,z
x,-y,-z
-x,y,-z
-x,-y,-z
x,y,-z
-x,y,z
x,-y,z
1/2+x,1/2+y,z
1/2-x,1/2-y,z
1/2+x,1/2-y,-z
1/2-x,1/2+y,-z
1/2-x,1/2-y,-z
1/2+x,1/2+y,-z
1/2-x,1/2+y,z
1/2+x,1/2-y,z
loop_
_atom_site_type_symbol
_atom_site_label
_atom_site_fract_x
_atom_site_fract_y
_atom_site_fract_z
Si Si1 0.216965 0.170081 0.338057
Si Si2 0.835644 0.896133 0.097518
Si Si3 0.437137 0.778027 0.658073
Si Si4 0.859654 0.259923 0.206316
Si Si5 0.614672 0.399756 0.405193
Si Si6 0.436471 0.104464 0.500000
Si Si7 0.273811 0.101589 0.183898
O O1 0.250000 0.250000 0.385928
O O2 0.176544 0.220697 0.278163
O O3 0.179418 0.113347 0.400053
O O4 0.256183 0.109080 0.281066
O O5 0.874590 0.822741 0.142797
O O6 0.775124 0.871248 0.123687
O O7 0.849343 0.000000 0.125709
O O8 0.842869 0.885271 0.000000
O O9 0.500000 0.788181 0.666711
O O10 0.411374 0.804360 0.747726
O O11 0.421096 0.673334 0.642735
O O12 0.415750 0.842894 0.582855
O O13 0.824915 0.337073 0.159962
O O14 0.597366 0.393845 0.500000
O O15 0.601351 0.500000 0.368973
O O16 0.500000 0.105063 0.500000
O O17 0.414987 0.000000 0.500000
O O18 0.292529 0.000000 0.166030
#
# Coordination Sequence:
#
# PCOD8267196 Si02
#       7
#    16  16  16  16  16   8  16
#     4   8  15  28  43  62  88 126 160 192 229 284
#     4   9  17  30  50  76 104 133 164 196 234 287
#     4  10  20  35  51  69  95 127 169 216 260 309
#     4   9  18  29  46  71  95 126 164 202 247 291
#     4  10  19  29  44  67  93 122 155 197 250 300
#     4   9  18  34  55  73  90 119 163 220 274 307
#     4   9  16  27  44  67  98 129 156 189 235 288
#
# _framework density 17.585977
#
# number of rings (size 3 to 8) (size 9 to 14) (size 15 to 20)
#    0.000    2.846    0.769    1.846    0.000    6.154 
#    0.000    0.769    0.000    0.462    0.000    1.077 
#    0.000    0.000    0.000    9.077    0.000    0.000 
#
# Total GULP energy -644230.615692 kJ/mol
# GULP energy per Si atom -12389.050302 kJ/mol
# Density = 1.754595 g / cm^3
# Si number density = 17.585977 Si / 1000 Ang^3
#
#
#
# Elastic Constant Matrix: (Units=GPa)
#
#
# Indices 1 2 3 4 5 6 
#
# 1 45.0965 25.3152 24.5246 0.0000 0.0000 0.0000
# 2 25.3152 89.9654 29.6784 0.0000 0.0000 0.0000
# 3 24.5246 29.6784 61.8667 0.0000 0.0000 0.0000
# 4 0.0000 0.0000 0.0000 22.5016 0.0000 0.0000
# 5 0.0000 0.0000 0.0000 0.0000 17.8994 0.0000
# 6 0.0000 0.0000 0.0000 0.0000 0.0000 19.0830
#
#
#
# Elastic Compliance Matrix: (Units=1/GPa)
#
#
# Indices 1 2 3 4 5 6 
#
# 1 0.030349 -0.005430 -0.009426 0.000000 0.000000 0.000000
# 2 -0.005430 0.014177 -0.004648 0.000000 0.000000 0.000000
# 3 -0.009426 -0.004648 0.022130 0.000000 0.000000 0.000000
# 4 0.000000 0.000000 0.000000 0.044441 0.000000 0.000000
# 5 0.000000 0.000000 0.000000 0.000000 0.055868 0.000000
# 6 0.000000 0.000000 0.000000 0.000000 0.000000 0.052403
#
#
# Mechanical properties :
#
#
# Convention : Reuss Voigt Hill
#
# Bulk Modulus (GPa) = 36.16977 39.55165 37.86071
# Shear Modulus (GPa) = 18.68519 19.72416 19.20468
#
# Velocity S-wave (km/s) = 3.26315 3.35264 3.30820
# Velocity P-wave (km/s) = 5.89996 6.12586 6.01397
#
# Compressibility (1/GPa) = 0.02764740
#
# Stress axis : x y z
#
# Youngs Moduli (GPa) = 32.95010 70.53779 45.18764
#
# Poissons Ratio (x) = 0.38305 0.42592
# Poissons Ratio (y) = 0.17893 0.21004
# Poissons Ratio (z) = 0.31057 0.32787
#
# Static dielectric constant tensor:
#      x y z
#    x 3.326170 0.000000 0.000000 
#    y 0.000000 3.602510 0.000000 
#    z 0.000000 0.000000 3.309060 
# 
# 
# High freq. dielectric constant tensor:
#      x y z
#    x 1.638440 0.000000 0.000000 
#    y 0.000000 1.688340 0.000000 
#    z 0.000000 0.000000 1.653590 
# 
# From -- ./inp_files/53483.got.cif
#   From: 2010.03.12/outbox.cif.g09.slc.cpg/sg65_27_cif.got.tgz:53483.got - 2010.04.10 20:52:16.
