data_PCOD8267529
_publ_section_title
;
Structure prediction by ZEFSAII (Michael W. Deem and Ramdas Pophale) SiO2 
 PCOD8267529
Probable space group: C M M M
;
_chemical_formula_sum "Si O2"
_cell_formula_units_Z 96
_cell_length_a 18.850221
_cell_length_b 9.105542
_cell_length_c 31.512392
_cell_angle_alpha 90.000000
_cell_angle_beta 90.000000
_cell_angle_gamma 90.000000
_cell_volume 5408.833570
_symmetry_space_group_name_H-M "C M M M"
_symmetry_group_IT_number 65
_symmetry_cell_setting 'orthorhombic'
loop_
_space_group_symop_operation_xyz
x,y,z
-x,-y,z
x,-y,-z
-x,y,-z
-x,-y,-z
x,y,-z
-x,y,z
x,-y,z
1/2+x,1/2+y,z
1/2-x,1/2-y,z
1/2+x,1/2-y,-z
1/2-x,1/2+y,-z
1/2-x,1/2-y,-z
1/2+x,1/2+y,-z
1/2-x,1/2+y,z
1/2+x,1/2-y,z
loop_
_atom_site_type_symbol
_atom_site_label
_atom_site_fract_x
_atom_site_fract_y
_atom_site_fract_z
Si Si1 0.915276 0.664827 0.627456
Si Si2 0.825558 0.172284 0.046145
Si Si3 0.915647 0.165150 0.453372
Si Si4 0.581293 0.829174 0.792406
Si Si5 0.584496 0.334638 0.709351
Si Si6 0.673912 0.174481 0.873085
O O1 0.886675 0.500000 0.630862
O O2 0.884341 0.733287 0.583897
O O3 0.885243 0.753654 0.667758
O O4 0.000000 0.669203 0.627175
O O5 0.750000 0.250000 0.043478
O O6 0.865029 0.255102 0.085094
O O7 0.816711 0.000000 0.056503
O O8 0.863930 0.192629 0.000000
O O9 0.891121 0.222633 0.500000
O O10 0.000000 0.166136 0.451172
O O11 0.887791 0.000000 0.446177
O O12 0.500000 0.785475 0.801320
O O13 0.612518 0.743740 0.751852
O O14 0.625874 0.782972 0.833287
O O15 0.588469 0.000000 0.782084
O O16 0.500000 0.329333 0.708623
O O17 0.613340 0.500000 0.708948
O O18 0.750000 0.250000 0.866503
O O19 0.681806 0.000000 0.878497
#
# Coordination Sequence:
#
# PCOD8267529 Si02
#       6
#    16  16  16  16  16  16
#     4   9  15  21  30  44  63  88 119 158 201 244
#     4   9  16  26  42  64  89 115 143 176 211 248
#     4   8  13  20  28  38  55  81 114 154 199 244
#     4   9  18  32  47  63  85 113 145 179 215 254
#     4   9  16  25  38  55  73  96 129 168 208 248
#     4  10  19  30  47  69  92 117 143 176 215 255
#
# _framework density 17.748743999999999
#
# number of rings (size 3 to 8) (size 9 to 14) (size 15 to 20)
#    0.000    3.000    0.000    3.500    0.000    6.667 
#    0.000    1.667    0.000    0.500    0.000    3.500 
#    0.000    0.000    0.000    0.000    0.000    0.833 
#
# Total GULP energy -594791.915761 kJ/mol
# GULP energy per Si atom -12391.498245 kJ/mol
# Density = 1.770835 g / cm^3
# Si number density = 17.748744 Si / 1000 Ang^3
#
#
#
# Elastic Constant Matrix: (Units=GPa)
#
#
# Indices 1 2 3 4 5 6 
#
# 1 17.0735 18.0357 28.7336 0.0000 0.0000 0.0000
# 2 18.0357 128.9315 101.0783 0.0000 0.0000 0.0000
# 3 28.7336 101.0783 212.8039 0.0000 0.0000 0.0000
# 4 0.0000 0.0000 0.0000 40.8438 0.0000 0.0000
# 5 0.0000 0.0000 0.0000 0.0000 -1.6525 0.0000
# 6 0.0000 0.0000 0.0000 0.0000 0.0000 9.9147
#
#
#
# Elastic Compliance Matrix: (Units=1/GPa)
#
#
# Indices 1 2 3 4 5 6 
#
# 1 0.077185 -0.004185 -0.008434 0.000000 0.000000 0.000000
# 2 -0.004185 0.012585 -0.005412 0.000000 0.000000 0.000000
# 3 -0.008434 -0.005412 0.008409 0.000000 0.000000 0.000000
# 4 0.000000 0.000000 0.000000 0.024483 0.000000 0.000000
# 5 0.000000 0.000000 0.000000 0.000000 -0.605139 0.000000
# 6 0.000000 0.000000 0.000000 0.000000 0.000000 0.100861
#
#
# Mechanical properties :
#
#
# Convention : Reuss Voigt Hill
#
# Bulk Modulus (GPa) = 16.09899 72.72268 44.41083
# Shear Modulus (GPa) = -15.39186 23.88528 4.24671
#
# Velocity S-wave (km/s) = -2.94803 3.67242 1.54851
# Velocity P-wave (km/s) = 1.58041 7.68405 5.31728
#
# Compressibility (1/GPa) = 0.06211570
#
# Stress axis : x y z
#
# Youngs Moduli (GPa) = 12.95581 79.46185 118.92359
#
# Poissons Ratio (x) = 0.33256 1.00300
# Poissons Ratio (y) = 0.05422 0.64366
# Poissons Ratio (z) = 0.10927 0.43008
#
# Static dielectric constant tensor:
#      x y z
#    x 2.507680 0.000000 0.000000 
#    y 0.000000 3.450310 0.000000 
#    z 0.000000 0.000000 3.986010 
# 
# 
# High freq. dielectric constant tensor:
#      x y z
#    x 1.590710 0.000000 0.000000 
#    y 0.000000 1.698480 0.000000 
#    z 0.000000 0.000000 1.715480 
# 
# From -- ./inp_files/75703.got.cif
#   From: 2010.03.12/outbox.cif.g09.slc.cpg/sg65_38_cif.got.tgz:75703.got - 2010.04.10 20:52:16.
