data_PCOD8267014
_publ_section_title
;
Structure prediction by ZEFSAII (Michael W. Deem and Ramdas Pophale) SiO2 
 PCOD8267014
Probable space group: C M M M
;
_chemical_formula_sum "Si O2"
_cell_formula_units_Z 120
_cell_length_a 18.037452
_cell_length_b 16.399177
_cell_length_c 20.418589
_cell_angle_alpha 90.000000
_cell_angle_beta 90.000000
_cell_angle_gamma 90.000000
_cell_volume 6039.805721
_symmetry_space_group_name_H-M "C M M M"
_symmetry_group_IT_number 65
_symmetry_cell_setting 'orthorhombic'
loop_
_space_group_symop_operation_xyz
x,y,z
-x,-y,z
x,-y,-z
-x,y,-z
-x,-y,-z
x,y,-z
-x,y,z
x,-y,z
1/2+x,1/2+y,z
1/2-x,1/2-y,z
1/2+x,1/2-y,-z
1/2-x,1/2+y,-z
1/2-x,1/2-y,-z
1/2+x,1/2+y,-z
1/2-x,1/2+y,z
1/2+x,1/2-y,z
loop_
_atom_site_type_symbol
_atom_site_label
_atom_site_fract_x
_atom_site_fract_y
_atom_site_fract_z
Si Si1 0.824275 0.403529 0.333347
Si Si2 0.334395 0.640024 0.626886
Si Si3 0.416294 0.357118 0.752124
Si Si4 0.421014 0.500000 0.571534
Si Si5 0.663541 0.244822 0.069873
Si Si6 0.829805 0.294322 0.210950
Si Si7 0.086548 0.299315 0.423275
Si Si8 0.085089 0.909363 0.894696
O O1 0.817477 0.500000 0.330661
O O2 0.754178 0.362765 0.370032
O O3 0.830191 0.373459 0.257456
O O4 0.894034 0.378912 0.379364
O O5 0.363712 0.606577 0.696634
O O6 0.368913 0.578387 0.575911
O O7 0.362183 0.729460 0.608014
O O8 0.500000 0.358314 0.726769
O O9 0.394045 0.263443 0.762594
O O10 0.405550 0.410928 0.816521
O O11 0.500000 0.500000 0.613356
O O12 0.452394 0.500000 0.500000
O O13 0.750000 0.250000 0.062560
O O14 0.647134 0.188764 0.134228
O O15 0.634634 0.337861 0.075853
O O16 0.631797 0.209154 0.000000
O O17 0.750000 0.250000 0.213931
O O18 0.105476 0.313482 0.500000
O O19 0.000000 0.277798 0.414940
O O20 0.000000 0.891621 0.913932
O O21 0.108746 0.000000 0.920140
#
# Coordination Sequence:
#
# PCOD8267014 Si02
#       8
#    16  16  16   8  16  16  16  16
#     4  12  25  41  61  92 123 156 201 254 312 362
#     4  12  22  39  61  88 121 156 198 246 299 360
#     4  10  19  32  56  85 114 150 194 239 287 349
#     4  11  24  38  54  84 125 163 196 238 297 362
#     4   9  19  35  55  80 115 161 206 242 282 347
#     4  10  18  37  59  80 114 153 197 245 292 349
#     4  11  25  45  68  90 116 157 205 252 305 364
#     4   9  19  33  53  87 125 156 188 235 300 361
#
# _framework density 19.868189000000001
#
# number of rings (size 3 to 8) (size 9 to 14) (size 15 to 20)
#    0.000    1.533    3.333    2.000    0.933    3.733 
#    0.000    1.333    0.000    1.200    0.000    0.000 
#    0.000    0.533    0.000   14.400    0.000    0.000 
#
# Total GULP energy -743333.057215 kJ/mol
# GULP energy per Si atom -12388.884287 kJ/mol
# Density = 1.982297 g / cm^3
# Si number density = 19.868189 Si / 1000 Ang^3
#
#
#
# Elastic Constant Matrix: (Units=GPa)
#
#
# Indices 1 2 3 4 5 6 
#
# 1 66.9969 38.4280 25.9652 0.0000 0.0000 0.0000
# 2 38.4280 91.9483 42.9288 0.0000 0.0000 0.0000
# 3 25.9652 42.9288 133.3302 0.0000 0.0000 0.0000
# 4 0.0000 0.0000 0.0000 8.9682 0.0000 0.0000
# 5 0.0000 0.0000 0.0000 0.0000 28.9376 0.0000
# 6 0.0000 0.0000 0.0000 0.0000 0.0000 30.1472
#
#
#
# Elastic Compliance Matrix: (Units=1/GPa)
#
#
# Indices 1 2 3 4 5 6 
#
# 1 0.019854 -0.007641 -0.001406 0.000000 0.000000 0.000000
# 2 -0.007641 0.015740 -0.003580 0.000000 0.000000 0.000000
# 3 -0.001406 -0.003580 0.008927 0.000000 0.000000 0.000000
# 4 0.000000 0.000000 0.000000 0.111505 0.000000 0.000000
# 5 0.000000 0.000000 0.000000 0.000000 0.034557 0.000000
# 6 0.000000 0.000000 0.000000 0.000000 0.000000 0.033171
#
#
# Mechanical properties :
#
#
# Convention : Reuss Voigt Hill
#
# Bulk Modulus (GPa) = 51.90325 56.32438 54.11382
# Shear Modulus (GPa) = 19.57486 25.94085 22.75785
#
# Velocity S-wave (km/s) = 3.14225 3.61729 3.38811
# Velocity P-wave (km/s) = 6.27260 6.77178 6.52696
#
# Compressibility (1/GPa) = 0.01926661
#
# Stress axis : x y z
#
# Youngs Moduli (GPa) = 50.36836 63.53046 112.02364
#
# Poissons Ratio (x) = 0.48543 0.15753
# Poissons Ratio (y) = 0.38486 0.40104
# Poissons Ratio (z) = 0.07083 0.22744
#
# Static dielectric constant tensor:
#      x y z
#    x 3.662920 0.000000 0.000000 
#    y 0.000000 3.229460 0.000000 
#    z 0.000000 0.000000 4.327030 
# 
# 
# High freq. dielectric constant tensor:
#      x y z
#    x 1.773410 0.000000 0.000000 
#    y 0.000000 1.743310 0.000000 
#    z 0.000000 0.000000 1.791430 
# 
# From -- ./inp_files/64762.got.cif
#   From: 2010.03.12/outbox.cif.g09.slc.cpg/sg65_33_cif.got.tgz:64762.got - 2010.04.10 20:52:16.
