data_PCOD8267834
_publ_section_title
;
Structure prediction by ZEFSAII (Michael W. Deem and Ramdas Pophale) SiO2 
 PCOD8267834
Probable space group: C M M M
;
_chemical_formula_sum "Si O2"
_cell_formula_units_Z 96
_cell_length_a 30.157773
_cell_length_b 19.506462
_cell_length_c 9.794050
_cell_angle_alpha 90.000000
_cell_angle_beta 90.000000
_cell_angle_gamma 90.000000
_cell_volume 5761.560025
_symmetry_space_group_name_H-M "C M M M"
_symmetry_group_IT_number 65
_symmetry_cell_setting 'orthorhombic'
loop_
_space_group_symop_operation_xyz
x,y,z
-x,-y,z
x,-y,-z
-x,y,-z
-x,-y,-z
x,y,-z
-x,y,z
x,-y,z
1/2+x,1/2+y,z
1/2-x,1/2-y,z
1/2+x,1/2-y,-z
1/2-x,1/2+y,-z
1/2-x,1/2-y,-z
1/2+x,1/2+y,-z
1/2-x,1/2+y,z
1/2+x,1/2-y,z
loop_
_atom_site_type_symbol
_atom_site_label
_atom_site_fract_x
_atom_site_fract_y
_atom_site_fract_z
Si Si1 0.671702 0.075951 0.343382
Si Si2 0.552665 0.424309 0.152667
Si Si3 0.131377 0.285058 0.656525
Si Si4 0.296423 0.284888 0.843190
Si Si5 0.754993 0.923567 0.155616
Si Si6 0.949726 0.803646 0.657417
O O1 0.687513 0.079442 0.500000
O O2 0.634364 0.133362 0.313517
O O3 0.713750 0.093241 0.251485
O O4 0.652532 0.000000 0.309273
O O5 0.500000 0.425459 0.156973
O O6 0.570584 0.500000 0.193821
O O7 0.570272 0.367451 0.257618
O O8 0.569136 0.405639 0.000000
O O9 0.144053 0.269101 0.500000
O O10 0.164739 0.242639 0.749331
O O11 0.080911 0.262353 0.687054
O O12 0.250000 0.250000 0.802204
O O13 0.292963 0.367037 0.818625
O O14 0.308119 0.267985 0.000000
O O15 0.774050 0.000000 0.185216
O O16 0.737805 0.917739 0.000000
O O17 0.948141 0.825699 0.500000
O O18 0.000000 0.784919 0.701766
#
# Coordination Sequence:
#
# PCOD8267834 Si02
#       6
#    16  16  16  16  16  16
#     4   9  17  29  46  68  92 118 151 190 229 272
#     4   8  14  26  45  68  91 115 148 191 235 277
#     4  10  20  32  48  70  94 123 157 193 235 279
#     4  10  19  31  47  70  97 123 152 188 229 276
#     4   9  17  30  47  66  92 125 156 185 221 268
#     4   9  18  32  48  67  93 125 160 197 237 280
#
# _framework density 16.662153
#
# number of rings (size 3 to 8) (size 9 to 14) (size 15 to 20)
#    0.000    2.833    1.667    0.500    0.000    2.000 
#    0.000    2.500    0.000    3.500    0.000    3.500 
#    0.000    0.000    0.000    9.833    0.000   10.333 
#
# Total GULP energy -594932.377136 kJ/mol
# GULP energy per Si atom -12394.424524 kJ/mol
# Density = 1.662423 g / cm^3
# Si number density = 16.662153 Si / 1000 Ang^3
#
#
#
# Elastic Constant Matrix: (Units=GPa)
#
#
# Indices 1 2 3 4 5 6 
#
# 1 68.5845 55.1862 39.7812 0.0000 0.0000 0.0000
# 2 55.1862 132.3890 52.6133 0.0000 0.0000 0.0000
# 3 39.7812 52.6133 63.2138 0.0000 0.0000 0.0000
# 4 0.0000 0.0000 0.0000 23.8569 0.0000 0.0000
# 5 0.0000 0.0000 0.0000 0.0000 14.4970 0.0000
# 6 0.0000 0.0000 0.0000 0.0000 0.0000 23.5805
#
#
#
# Elastic Compliance Matrix: (Units=1/GPa)
#
#
# Indices 1 2 3 4 5 6 
#
# 1 0.026282 -0.006549 -0.011089 0.000000 0.000000 0.000000
# 2 -0.006549 0.012919 -0.006631 0.000000 0.000000 0.000000
# 3 -0.011089 -0.006631 0.028317 0.000000 0.000000 0.000000
# 4 0.000000 0.000000 0.000000 0.041917 0.000000 0.000000
# 5 0.000000 0.000000 0.000000 0.000000 0.068980 0.000000
# 6 0.000000 0.000000 0.000000 0.000000 0.000000 0.042408
#
#
# Mechanical properties :
#
#
# Convention : Reuss Voigt Hill
#
# Bulk Modulus (GPa) = 52.68749 62.14988 57.41868
# Shear Modulus (GPa) = 18.13657 20.16063 19.14860
#
# Velocity S-wave (km/s) = 3.30281 3.48223 3.39370
# Velocity P-wave (km/s) = 6.79959 7.31771 7.06340
#
# Compressibility (1/GPa) = 0.01897984
#
# Stress axis : x y z
#
# Youngs Moduli (GPa) = 38.04907 77.40785 35.31458
#
# Poissons Ratio (x) = 0.50691 0.39160
# Poissons Ratio (y) = 0.24917 0.23417
# Poissons Ratio (z) = 0.42193 0.51330
#
# Static dielectric constant tensor:
#      x y z
#    x 2.814470 0.000000 0.000000 
#    y 0.000000 3.554100 0.000000 
#    z 0.000000 0.000000 3.248660 
# 
# 
# High freq. dielectric constant tensor:
#      x y z
#    x 1.597940 0.000000 0.000000 
#    y 0.000000 1.652880 0.000000 
#    z 0.000000 0.000000 1.646270 
# 
# From -- ./inp_files/16354.got.cif
#   From: 2010.03.12/outbox.cif.g09.slc.cpg/sg65_9_cif.got.tgz:16354.got - 2010.04.10 20:52:16.
