data_PCOD8267929
_publ_section_title
;
Structure prediction by ZEFSAII (Michael W. Deem and Ramdas Pophale) SiO2 
 PCOD8267929
Probable space group: C M M M
;
_chemical_formula_sum "Si O2"
_cell_formula_units_Z 104
_cell_length_a 9.665701
_cell_length_b 28.079846
_cell_length_c 23.492321
_cell_angle_alpha 90.000000
_cell_angle_beta 90.000000
_cell_angle_gamma 90.000000
_cell_volume 6376.083628
_symmetry_space_group_name_H-M "C M M M"
_symmetry_group_IT_number 65
_symmetry_cell_setting 'orthorhombic'
loop_
_space_group_symop_operation_xyz
x,y,z
-x,-y,z
x,-y,-z
-x,y,-z
-x,-y,-z
x,y,-z
-x,y,z
x,-y,z
1/2+x,1/2+y,z
1/2-x,1/2-y,z
1/2+x,1/2-y,-z
1/2-x,1/2+y,-z
1/2-x,1/2-y,-z
1/2+x,1/2+y,-z
1/2-x,1/2+y,z
1/2+x,1/2-y,z
loop_
_atom_site_type_symbol
_atom_site_label
_atom_site_fract_x
_atom_site_fract_y
_atom_site_fract_z
Si Si1 0.161541 0.297185 0.833716
Si Si2 0.839582 0.297524 0.376763
Si Si3 0.159376 0.946056 0.104761
Si Si4 0.341123 0.445978 0.236617
Si Si5 0.342033 0.136740 0.063865
Si Si6 0.655537 0.794983 0.500000
Si Si7 0.338974 0.137311 0.273610
O O1 0.250000 0.250000 0.826457
O O2 0.208027 0.322975 0.892066
O O3 0.197825 0.331576 0.781505
O O4 0.000000 0.283515 0.834386
O O5 0.750000 0.250000 0.370455
O O6 0.818398 0.322195 0.439779
O O7 0.789990 0.334993 0.329900
O O8 0.000000 0.283942 0.366342
O O9 0.198389 0.940599 0.170679
O O10 0.252788 0.911003 0.068043
O O11 0.000000 0.932703 0.094461
O O12 0.187997 0.000000 0.084492
O O13 0.500000 0.431612 0.246407
O O14 0.315001 0.500000 0.256810
O O15 0.244614 0.411793 0.273485
O O16 0.500000 0.122843 0.077819
O O17 0.326811 0.157353 0.000000
O O18 0.500000 0.775462 0.500000
O O19 0.750000 0.750000 0.500000
O O20 0.500000 0.124557 0.275507
#
# Coordination Sequence:
#
# PCOD8267929 Si02
#       7
#    16  16  16  16  16   8  16
#     4  10  21  35  49  67  91 119 152 191 231 269
#     4   9  17  28  44  68  98 130 163 194 228 271
#     4   9  18  33  52  73  95 118 147 185 230 281
#     4   9  18  32  50  72  96 121 150 186 231 281
#     4  10  21  36  51  68  92 121 154 190 229 276
#     4   8  14  26  42  62  93 130 161 193 228 265
#     4  10  19  31  48  72  97 122 154 191 231 275
#
# _framework density 16.310953000000001
#
# number of rings (size 3 to 8) (size 9 to 14) (size 15 to 20)
#    0.000    2.615    1.538    1.385    0.000    3.385 
#    0.000    3.077    0.000    0.000    0.000    0.538 
#    0.000    4.308    0.000    0.000    0.000    0.000 
#
# Total GULP energy -644618.499418 kJ/mol
# GULP energy per Si atom -12396.509604 kJ/mol
# Density = 1.627383 g / cm^3
# Si number density = 16.310953 Si / 1000 Ang^3
#
#
#
# Elastic Constant Matrix: (Units=GPa)
#
#
# Indices 1 2 3 4 5 6 
#
# 1 51.3590 43.3014 32.1135 0.0000 0.0000 0.0000
# 2 43.3014 83.0297 44.8424 0.0000 0.0000 0.0000
# 3 32.1135 44.8424 112.8562 0.0000 0.0000 0.0000
# 4 0.0000 0.0000 0.0000 20.9983 0.0000 0.0000
# 5 0.0000 0.0000 0.0000 0.0000 17.4232 0.0000
# 6 0.0000 0.0000 0.0000 0.0000 0.0000 34.2252
#
#
#
# Elastic Compliance Matrix: (Units=1/GPa)
#
#
# Indices 1 2 3 4 5 6 
#
# 1 0.035820 -0.016776 -0.003527 0.000000 0.000000 0.000000
# 2 -0.016776 0.023192 -0.004441 0.000000 0.000000 0.000000
# 3 -0.003527 -0.004441 0.011629 0.000000 0.000000 0.000000
# 4 0.000000 0.000000 0.000000 0.047623 0.000000 0.000000
# 5 0.000000 0.000000 0.000000 0.000000 0.057395 0.000000
# 6 0.000000 0.000000 0.000000 0.000000 0.000000 0.029218
#
#
# Mechanical properties :
#
#
# Convention : Reuss Voigt Hill
#
# Bulk Modulus (GPa) = 47.27602 54.19549 50.73575
# Shear Modulus (GPa) = 19.12661 22.99517 21.06089
#
# Velocity S-wave (km/s) = 3.42807 3.75880 3.59724
# Velocity P-wave (km/s) = 6.68701 7.22057 6.95891
#
# Compressibility (1/GPa) = 0.02115237
#
# Stress axis : x y z
#
# Youngs Moduli (GPa) = 27.91726 43.11924 85.99101
#
# Poissons Ratio (x) = 0.72337 0.30328
# Poissons Ratio (y) = 0.46834 0.38191
# Poissons Ratio (z) = 0.09846 0.19151
#
# Static dielectric constant tensor:
#      x y z
#    x 3.046440 0.000000 0.000000 
#    y 0.000000 2.913240 0.000000 
#    z 0.000000 0.000000 3.376220 
# 
# 
# High freq. dielectric constant tensor:
#      x y z
#    x 1.630470 0.000000 0.000000 
#    y 0.000000 1.604550 0.000000 
#    z 0.000000 0.000000 1.626580 
# 
# From -- ./inp_files/68162.got.cif
#   From: 2010.03.12/outbox.cif.g09.slc.cpg/sg65_35_cif.got.tgz:68162.got - 2010.04.10 20:52:16.
