data_PCOD8267988
_publ_section_title
;
Structure prediction by ZEFSAII (Michael W. Deem and Ramdas Pophale) SiO2 
 PCOD8267988
Probable space group: C M M M
;
_chemical_formula_sum "Si O2"
_cell_formula_units_Z 104
_cell_length_a 9.113057
_cell_length_b 18.949657
_cell_length_c 32.885759
_cell_angle_alpha 90.000000
_cell_angle_beta 90.000000
_cell_angle_gamma 90.000000
_cell_volume 5679.018845
_symmetry_space_group_name_H-M "C M M M"
_symmetry_group_IT_number 65
_symmetry_cell_setting 'orthorhombic'
loop_
_space_group_symop_operation_xyz
x,y,z
-x,-y,z
x,-y,-z
-x,y,-z
-x,-y,-z
x,y,-z
-x,y,z
x,-y,z
1/2+x,1/2+y,z
1/2-x,1/2-y,z
1/2+x,1/2-y,-z
1/2-x,1/2+y,-z
1/2-x,1/2-y,-z
1/2+x,1/2+y,-z
1/2-x,1/2+y,z
1/2+x,1/2-y,z
loop_
_atom_site_type_symbol
_atom_site_label
_atom_site_fract_x
_atom_site_fract_y
_atom_site_fract_z
Si Si1 0.673838 0.420732 0.575237
Si Si2 0.828477 0.820905 0.738485
Si Si3 0.172539 0.177890 0.353173
Si Si4 0.830296 0.918363 0.811174
Si Si5 0.829175 0.178536 0.047287
Si Si6 0.167997 0.583457 0.108876
Si Si7 0.174604 0.826107 0.500000
O O1 0.500000 0.426500 0.573161
O O2 0.740886 0.500000 0.571942
O O3 0.724720 0.385622 0.617707
O O4 0.729253 0.370887 0.538823
O O5 0.750000 0.750000 0.752393
O O6 0.782111 0.843170 0.692799
O O7 0.779431 0.881407 0.769616
O O8 0.000000 0.806693 0.740613
O O9 0.250000 0.250000 0.366837
O O10 0.000000 0.190787 0.357353
O O11 0.735325 0.888796 0.848694
O O12 0.000000 0.903445 0.821171
O O13 0.798901 0.000000 0.804067
O O14 0.750000 0.250000 0.061221
O O15 0.759102 0.113978 0.071431
O O16 0.000000 0.185194 0.057634
O O17 0.801822 0.163332 0.000000
O O18 0.183488 0.500000 0.106029
O O19 0.000000 0.608316 0.106197
O O20 0.250000 0.750000 0.500000
O O21 0.000000 0.815085 0.500000
#
# Coordination Sequence:
#
# PCOD8267988 Si02
#       7
#    16  16  16  16  16  16   8
#     4   9  17  29  47  71  96 123 159 202 242 283
#     4   9  18  31  48  71  96 124 159 199 244 292
#     4   9  17  30  48  69  94 124 158 197 241 290
#     4   9  18  33  51  70  95 127 163 204 247 291
#     4  10  21  37  57  80 106 136 170 209 253 300
#     4  10  21  36  54  77 105 137 172 209 250 298
#     4  10  19  31  49  71  95 126 162 198 240 290
#
# _framework density 18.313023000000001
#
# number of rings (size 3 to 8) (size 9 to 14) (size 15 to 20)
#    0.000    2.615    0.000    1.615    0.000    4.923 
#    0.000    6.154    0.000    2.308    0.000    4.308 
#    0.000    0.000    0.000    0.000    0.000    0.000 
#
# Total GULP energy -644826.644458 kJ/mol
# GULP energy per Si atom -12400.512393 kJ/mol
# Density = 1.827134 g / cm^3
# Si number density = 18.313023 Si / 1000 Ang^3
#
#
#
# Elastic Constant Matrix: (Units=GPa)
#
#
# Indices 1 2 3 4 5 6 
#
# 1 61.5140 41.5974 48.8146 0.0000 0.0000 0.0000
# 2 41.5974 108.5140 72.6120 0.0000 0.0000 0.0000
# 3 48.8146 72.6120 120.4559 0.0000 0.0000 0.0000
# 4 0.0000 0.0000 0.0000 37.3320 0.0000 0.0000
# 5 0.0000 0.0000 0.0000 0.0000 20.6432 0.0000
# 6 0.0000 0.0000 0.0000 0.0000 0.0000 29.9634
#
#
#
# Elastic Compliance Matrix: (Units=1/GPa)
#
#
# Indices 1 2 3 4 5 6 
#
# 1 0.025353 -0.004766 -0.007401 0.000000 0.000000 0.000000
# 2 -0.004766 0.016342 -0.007919 0.000000 0.000000 0.000000
# 3 -0.007401 -0.007919 0.016075 0.000000 0.000000 0.000000
# 4 0.000000 0.000000 0.000000 0.026787 0.000000 0.000000
# 5 0.000000 0.000000 0.000000 0.000000 0.048442 0.000000
# 6 0.000000 0.000000 0.000000 0.000000 0.000000 0.033374
#
#
# Mechanical properties :
#
#
# Convention : Reuss Voigt Hill
#
# Bulk Modulus (GPa) = 56.83120 68.50354 62.66737
# Shear Modulus (GPa) = 23.53930 26.08504 24.81217
#
# Velocity S-wave (km/s) = 3.58912 3.77822 3.68488
# Velocity P-wave (km/s) = 6.94811 7.51807 7.23871
#
# Compressibility (1/GPa) = 0.01759597
#
# Stress axis : x y z
#
# Youngs Moduli (GPa) = 39.44378 61.19286 62.20858
#
# Poissons Ratio (x) = 0.29166 0.46040
# Poissons Ratio (y) = 0.18800 0.49266
# Poissons Ratio (z) = 0.29192 0.48462
#
# Static dielectric constant tensor:
#      x y z
#    x 3.256170 0.000000 0.000000 
#    y 0.000000 3.442100 0.000000 
#    z 0.000000 0.000000 3.591740 
# 
# 
# High freq. dielectric constant tensor:
#      x y z
#    x 1.692180 0.000000 0.000000 
#    y 0.000000 1.706920 0.000000 
#    z 0.000000 0.000000 1.721480 
# 
# From -- ./inp_files/73308.got.cif
#   From: 2010.03.12/outbox.cif.g09.slc.cpg/sg65_37_cif.got.tgz:73308.got - 2010.04.10 20:52:16.
