data_PCOD8267792
_publ_section_title
;
Structure prediction by ZEFSAII (Michael W. Deem and Ramdas Pophale) SiO2 
 PCOD8267792
Probable space group: C M M M
;
_chemical_formula_sum "Si O2"
_cell_formula_units_Z 88
_cell_length_a 18.594042
_cell_length_b 9.599948
_cell_length_c 28.469651
_cell_angle_alpha 90.000000
_cell_angle_beta 90.000000
_cell_angle_gamma 90.000000
_cell_volume 5081.884983
_symmetry_space_group_name_H-M "C M M M"
_symmetry_group_IT_number 65
_symmetry_cell_setting 'orthorhombic'
loop_
_space_group_symop_operation_xyz
x,y,z
-x,-y,z
x,-y,-z
-x,y,-z
-x,-y,-z
x,y,-z
-x,y,z
x,-y,z
1/2+x,1/2+y,z
1/2-x,1/2-y,z
1/2+x,1/2-y,-z
1/2-x,1/2+y,-z
1/2-x,1/2-y,-z
1/2+x,1/2+y,-z
1/2-x,1/2+y,z
1/2+x,1/2-y,z
loop_
_atom_site_type_symbol
_atom_site_label
_atom_site_fract_x
_atom_site_fract_y
_atom_site_fract_z
Si Si1 0.920154 0.165355 0.085845
Si Si2 0.580174 0.165216 0.552306
Si Si3 0.322150 0.835924 0.363473
Si Si4 0.914370 0.844990 0.188708
Si Si5 0.917187 0.339444 0.726288
Si Si6 0.322901 0.333958 0.000000
O O1 0.890365 0.211717 0.137255
O O2 0.000000 0.227704 0.076500
O O3 0.926028 0.000000 0.085121
O O4 0.866483 0.217046 0.045694
O O5 0.604549 0.212091 0.500000
O O6 0.500000 0.223806 0.563055
O O7 0.637229 0.221123 0.590103
O O8 0.576968 0.000000 0.555754
O O9 0.250000 0.750000 0.357554
O O10 0.372710 0.800928 0.319681
O O11 0.304911 0.000000 0.366777
O O12 0.884846 0.745547 0.229697
O O13 0.000000 0.848249 0.189231
O O14 0.883600 0.000000 0.197733
O O15 0.909315 0.500000 0.739623
O O16 0.000000 0.300158 0.716194
O O17 0.250000 0.250000 0.000000
O O18 0.309438 0.500000 0.000000
#
# Coordination Sequence:
#
# PCOD8267792 Si02
#       6
#    16  16  16  16  16   8
#     4   8  14  27  49  72  89 112 151 191 222 260
#     4   8  14  27  49  73  92 114 150 192 228 265
#     4  10  20  32  46  67  95 124 153 186 224 267
#     4   8  14  26  46  71  93 112 143 189 232 266
#     4   9  17  30  48  68  90 118 152 188 225 265
#     4  10  19  31  47  67  93 122 150 182 222 268
#
# _framework density 17.316409
#
# number of rings (size 3 to 8) (size 9 to 14) (size 15 to 20)
#    0.000    3.273    0.000    2.455    0.000    4.364 
#    0.000    1.818    0.000    8.182    0.000    1.273 
#    0.000    0.000    0.000    0.000    0.000    0.000 
#
# Total GULP energy -545339.433467 kJ/mol
# GULP energy per Si atom -12394.078033 kJ/mol
# Density = 1.727700 g / cm^3
# Si number density = 17.316409 Si / 1000 Ang^3
#
#
#
# Elastic Constant Matrix: (Units=GPa)
#
#
# Indices 1 2 3 4 5 6 
#
# 1 93.8302 39.5330 77.0320 0.0000 0.0000 0.0000
# 2 39.5330 40.1328 54.6443 0.0000 0.0000 0.0000
# 3 77.0320 54.6443 175.9461 0.0000 0.0000 0.0000
# 4 0.0000 0.0000 0.0000 22.1729 0.0000 0.0000
# 5 0.0000 0.0000 0.0000 0.0000 5.1686 0.0000
# 6 0.0000 0.0000 0.0000 0.0000 0.0000 23.5394
#
#
#
# Elastic Compliance Matrix: (Units=1/GPa)
#
#
# Indices 1 2 3 4 5 6 
#
# 1 0.020167 -0.013591 -0.004609 0.000000 0.000000 0.000000
# 2 -0.013591 0.052334 -0.010303 0.000000 0.000000 0.000000
# 3 -0.004609 -0.010303 0.010901 0.000000 0.000000 0.000000
# 4 0.000000 0.000000 0.000000 0.045100 0.000000 0.000000
# 5 0.000000 0.000000 0.000000 0.000000 0.193476 0.000000
# 6 0.000000 0.000000 0.000000 0.000000 0.000000 0.042482
#
#
# Mechanical properties :
#
#
# Convention : Reuss Voigt Hill
#
# Bulk Modulus (GPa) = 37.88334 72.48086 55.18210
# Shear Modulus (GPa) = 11.62076 19.42284 15.52180
#
# Velocity S-wave (km/s) = 2.59334 3.35273 2.99718
# Velocity P-wave (km/s) = 5.55804 7.54555 6.62673
#
# Compressibility (1/GPa) = 0.02639683
#
# Stress axis : x y z
#
# Youngs Moduli (GPa) = 49.58546 19.10817 91.73340
#
# Poissons Ratio (x) = 0.25970 0.42276
# Poissons Ratio (y) = 0.67391 0.94515
# Poissons Ratio (z) = 0.22852 0.19687
#
# Static dielectric constant tensor:
#      x y z
#    x 3.100020 0.000000 0.000000 
#    y 0.000000 2.907800 0.000000 
#    z 0.000000 0.000000 3.725770 
# 
# 
# High freq. dielectric constant tensor:
#      x y z
#    x 1.646280 0.000000 0.000000 
#    y 0.000000 1.624500 0.000000 
#    z 0.000000 0.000000 1.689190 
# 
# From -- ./inp_files/75320.got.cif
#   From: 2010.03.12/outbox.cif.g09.slc.cpg/sg65_38_cif.got.tgz:75320.got - 2010.04.10 20:52:16.
