data_PCOD8267220
_publ_section_title
;
Structure prediction by ZEFSAII (Michael W. Deem and Ramdas Pophale) SiO2 
 PCOD8267220
Probable space group: C M M M
;
_chemical_formula_sum "Si O2"
_cell_formula_units_Z 96
_cell_length_a 28.569459
_cell_length_b 9.122825
_cell_length_c 23.382698
_cell_angle_alpha 90.000000
_cell_angle_beta 90.000000
_cell_angle_gamma 90.000000
_cell_volume 6094.330198
_symmetry_space_group_name_H-M "C M M M"
_symmetry_group_IT_number 65
_symmetry_cell_setting 'orthorhombic'
loop_
_space_group_symop_operation_xyz
x,y,z
-x,-y,z
x,-y,-z
-x,y,-z
-x,-y,-z
x,y,-z
-x,y,z
x,-y,z
1/2+x,1/2+y,z
1/2-x,1/2-y,z
1/2+x,1/2-y,-z
1/2-x,1/2+y,-z
1/2-x,1/2-y,-z
1/2+x,1/2+y,-z
1/2-x,1/2+y,z
1/2+x,1/2-y,z
loop_
_atom_site_type_symbol
_atom_site_label
_atom_site_fract_x
_atom_site_fract_y
_atom_site_fract_z
Si Si1 0.552442 0.825961 0.563114
Si Si2 0.702541 0.666955 0.500000
Si Si3 0.114152 0.326660 0.332891
Si Si4 0.199943 0.172567 0.375454
Si Si5 0.555865 0.834419 0.000000
Si Si6 0.446227 0.829317 0.223294
Si Si7 0.444312 0.334878 0.110635
O O1 0.570806 0.777506 0.500000
O O2 0.500000 0.764477 0.572611
O O3 0.585762 0.764165 0.612533
O O4 0.550982 0.000000 0.567264
O O5 0.717585 0.500000 0.500000
O O6 0.750000 0.750000 0.500000
O O7 0.677477 0.703132 0.439380
O O8 0.122514 0.500000 0.336944
O O9 0.163988 0.244587 0.330649
O O10 0.085293 0.283475 0.276779
O O11 0.250000 0.250000 0.368226
O O12 0.205515 0.000000 0.363107
O O13 0.575613 0.752542 0.943948
O O14 0.500000 0.833013 0.000000
O O15 0.574956 0.000000 0.000000
O O16 0.500000 0.788756 0.237494
O O17 0.426951 0.741680 0.168654
O O18 0.441719 0.000000 0.209017
O O19 0.500000 0.333379 0.108656
O O20 0.424804 0.500000 0.108667
#
# Coordination Sequence:
#
# PCOD8267220 Si02
#       7
#    16   8  16  16   8  16  16
#     4   8  14  25  41  62  86 110 140 179 218 256
#     4   8  16  30  46  62  79 100 125 159 206 261
#     4  10  19  29  45  67  87 111 144 181 221 264
#     4  10  20  34  49  65  85 108 135 172 219 272
#     4   9  15  23  37  57  81 111 146 181 220 261
#     4   9  17  29  43  60  86 119 153 186 218 255
#     4   9  16  25  38  57  82 112 148 187 221 253
#
# _framework density 15.752345999999999
#
# number of rings (size 3 to 8) (size 9 to 14) (size 15 to 20)
#    0.000    2.917    0.000    2.250    1.167    6.333 
#    0.000    0.000    0.000    1.500    0.000    1.167 
#    0.000    0.000    0.000    0.750    0.000   10.083 
#
# Total GULP energy -594857.156204 kJ/mol
# GULP energy per Si atom -12392.857421 kJ/mol
# Density = 1.571649 g / cm^3
# Si number density = 15.752346 Si / 1000 Ang^3
#
#
#
# Elastic Constant Matrix: (Units=GPa)
#
#
# Indices 1 2 3 4 5 6 
#
# 1 60.3355 33.4105 51.3924 0.0000 0.0000 0.0000
# 2 33.4105 75.5030 61.0329 0.0000 0.0000 0.0000
# 3 51.3924 61.0329 131.9696 0.0000 0.0000 0.0000
# 4 0.0000 0.0000 0.0000 20.7471 0.0000 0.0000
# 5 0.0000 0.0000 0.0000 0.0000 7.3495 0.0000
# 6 0.0000 0.0000 0.0000 0.0000 0.0000 16.9489
#
#
#
# Elastic Compliance Matrix: (Units=1/GPa)
#
#
# Indices 1 2 3 4 5 6 
#
# 1 0.026072 -0.005318 -0.007694 0.000000 0.000000 0.000000
# 2 -0.005318 0.022237 -0.008213 0.000000 0.000000 0.000000
# 3 -0.007694 -0.008213 0.014372 0.000000 0.000000 0.000000
# 4 0.000000 0.000000 0.000000 0.048200 0.000000 0.000000
# 5 0.000000 0.000000 0.000000 0.000000 0.136063 0.000000
# 6 0.000000 0.000000 0.000000 0.000000 0.000000 0.059001
#
#
# Mechanical properties :
#
#
# Convention : Reuss Voigt Hill
#
# Bulk Modulus (GPa) = 49.42784 62.16441 55.79612
# Shear Modulus (GPa) = 14.07904 17.14058 15.60981
#
# Velocity S-wave (km/s) = 2.99285 3.30226 3.15135
# Velocity P-wave (km/s) = 6.58704 7.35453 6.98134
#
# Compressibility (1/GPa) = 0.02023151
#
# Stress axis : x y z
#
# Youngs Moduli (GPa) = 38.35520 44.97071 69.57961
#
# Poissons Ratio (x) = 0.23914 0.53533
# Poissons Ratio (y) = 0.20396 0.57146
# Poissons Ratio (z) = 0.29510 0.36935
#
# Static dielectric constant tensor:
#      x y z
#    x 2.622170 0.000000 0.000000 
#    y 0.000000 2.900510 0.000000 
#    z 0.000000 0.000000 3.284820 
# 
# 
# High freq. dielectric constant tensor:
#      x y z
#    x 1.555880 0.000000 0.000000 
#    y 0.000000 1.599140 0.000000 
#    z 0.000000 0.000000 1.601500 
# 
# From -- ./inp_files/71744.got.cif
#   From: 2010.03.12/outbox.cif.g09.slc.cpg/sg65_36_cif.got.tgz:71744.got - 2010.04.10 20:52:16.
