data_PCOD8267183
_publ_section_title
;
Structure prediction by ZEFSAII (Michael W. Deem and Ramdas Pophale) SiO2 
 PCOD8267183
Probable space group: C M M M
;
_chemical_formula_sum "Si O2"
_cell_formula_units_Z 104
_cell_length_a 9.110564
_cell_length_b 19.344407
_cell_length_c 32.815293
_cell_angle_alpha 90.000000
_cell_angle_beta 90.000000
_cell_angle_gamma 90.000000
_cell_volume 5783.316638
_symmetry_space_group_name_H-M "C M M M"
_symmetry_group_IT_number 65
_symmetry_cell_setting 'orthorhombic'
loop_
_space_group_symop_operation_xyz
x,y,z
-x,-y,z
x,-y,-z
-x,y,-z
-x,-y,-z
x,y,-z
-x,y,z
x,-y,z
1/2+x,1/2+y,z
1/2-x,1/2-y,z
1/2+x,1/2-y,-z
1/2-x,1/2+y,-z
1/2-x,1/2-y,-z
1/2+x,1/2+y,-z
1/2-x,1/2+y,z
1/2+x,1/2-y,z
loop_
_atom_site_type_symbol
_atom_site_label
_atom_site_fract_x
_atom_site_fract_y
_atom_site_fract_z
Si Si1 0.674388 0.923560 0.837963
Si Si2 0.671491 0.420028 0.383106
Si Si3 0.675209 0.175815 0.000000
Si Si4 0.172241 0.321539 0.322038
Si Si5 0.828462 0.319635 0.228798
Si Si6 0.171037 0.181210 0.545974
Si Si7 0.325961 0.922395 0.928322
O O1 0.500000 0.924681 0.835582
O O2 0.738211 0.876241 0.801968
O O3 0.723745 0.898132 0.883013
O O4 0.737284 0.000000 0.830355
O O5 0.500000 0.411499 0.373021
O O6 0.716715 0.500000 0.386542
O O7 0.764634 0.385147 0.347468
O O8 0.712105 0.383821 0.425901
O O9 0.750000 0.250000 0.000000
O O10 0.732859 0.133193 0.960734
O O11 0.500000 0.184774 0.000000
O O12 0.250000 0.250000 0.334819
O O13 0.206412 0.340473 0.275219
O O14 0.000000 0.312940 0.330378
O O15 0.750000 0.250000 0.216344
O O16 0.000000 0.309051 0.222184
O O17 0.222983 0.163651 0.500000
O O18 0.250000 0.250000 0.562593
O O19 0.000000 0.197198 0.547435
O O20 0.500000 0.925531 0.931079
O O21 0.265448 0.000000 0.937595
#
# Coordination Sequence:
#
# PCOD8267183 Si02
#       7
#    16  16   8  16  16  16  16
#     4   8  14  26  45  68  91 116 151 193 231 267
#     4  10  21  35  51  74 103 132 162 199 243 287
#     4  10  19  29  43  67  95 118 146 186 232 276
#     4  10  20  34  52  72  96 128 165 202 240 285
#     4   9  18  31  48  70  94 121 153 191 234 279
#     4   9  18  33  53  75  98 127 163 199 235 279
#     4   8  14  26  45  66  87 116 155 193 224 262
#
# _framework density 17.982759999999999
#
# number of rings (size 3 to 8) (size 9 to 14) (size 15 to 20)
#    0.000    2.923    0.000    2.077    0.000    5.231 
#    0.000    3.077    0.000    1.385    0.000    5.385 
#    0.000    0.000    0.000    0.000    0.000    0.000 
#
# Total GULP energy -644638.272010 kJ/mol
# GULP energy per Si atom -12396.889846 kJ/mol
# Density = 1.794183 g / cm^3
# Si number density = 17.982760 Si / 1000 Ang^3
#
#
#
# Elastic Constant Matrix: (Units=GPa)
#
#
# Indices 1 2 3 4 5 6 
#
# 1 33.2113 43.5910 37.9131 0.0000 0.0000 0.0000
# 2 43.5910 159.6250 101.7213 0.0000 0.0000 0.0000
# 3 37.9131 101.7213 133.2215 0.0000 0.0000 0.0000
# 4 0.0000 0.0000 0.0000 38.8889 0.0000 0.0000
# 5 0.0000 0.0000 0.0000 0.0000 13.6316 0.0000
# 6 0.0000 0.0000 0.0000 0.0000 0.0000 27.1856
#
#
#
# Elastic Compliance Matrix: (Units=1/GPa)
#
#
# Indices 1 2 3 4 5 6 
#
# 1 0.050491 -0.009021 -0.007481 0.000000 0.000000 0.000000
# 2 -0.009021 0.013813 -0.007980 0.000000 0.000000 0.000000
# 3 -0.007481 -0.007980 0.015728 0.000000 0.000000 0.000000
# 4 0.000000 0.000000 0.000000 0.025714 0.000000 0.000000
# 5 0.000000 0.000000 0.000000 0.000000 0.073359 0.000000
# 6 0.000000 0.000000 0.000000 0.000000 0.000000 0.036784
#
#
# Mechanical properties :
#
#
# Convention : Reuss Voigt Hill
#
# Bulk Modulus (GPa) = 32.18688 76.94538 54.56613
# Shear Modulus (GPa) = 18.16794 25.46337 21.81565
#
# Velocity S-wave (km/s) = 3.18197 3.76704 3.48680
# Velocity P-wave (km/s) = 5.60691 7.86143 6.82787
#
# Compressibility (1/GPa) = 0.03106856
#
# Stress axis : x y z
#
# Youngs Moduli (GPa) = 19.80568 72.39352 63.57897
#
# Poissons Ratio (x) = 0.65305 0.47564
# Poissons Ratio (y) = 0.17866 0.50736
# Poissons Ratio (z) = 0.14817 0.57770
#
# Static dielectric constant tensor:
#      x y z
#    x 2.979170 0.000000 0.000000 
#    y 0.000000 3.451410 0.000000 
#    z 0.000000 0.000000 3.666200 
# 
# 
# High freq. dielectric constant tensor:
#      x y z
#    x 1.659150 0.000000 0.000000 
#    y 0.000000 1.694050 0.000000 
#    z 0.000000 0.000000 1.710220 
# 
# From -- ./inp_files/76901.got.cif
#   From: 2010.03.12/outbox.cif.g09.slc.cpg/sg65_39_cif.got.tgz:76901.got - 2010.04.10 20:52:16.
