data_PCOD8267140
_publ_section_title
;
Structure prediction by ZEFSAII (Michael W. Deem and Ramdas Pophale) SiO2 
 PCOD8267140
Probable space group: C M M M
;
_chemical_formula_sum "Si O2"
_cell_formula_units_Z 104
_cell_length_a 27.447637
_cell_length_b 8.907859
_cell_length_c 26.491515
_cell_angle_alpha 90.000000
_cell_angle_beta 90.000000
_cell_angle_gamma 90.000000
_cell_volume 6477.166948
_symmetry_space_group_name_H-M "C M M M"
_symmetry_group_IT_number 65
_symmetry_cell_setting 'orthorhombic'
loop_
_space_group_symop_operation_xyz
x,y,z
-x,-y,z
x,-y,-z
-x,y,-z
-x,-y,-z
x,y,-z
-x,y,z
x,-y,z
1/2+x,1/2+y,z
1/2-x,1/2-y,z
1/2+x,1/2-y,-z
1/2-x,1/2+y,-z
1/2-x,1/2-y,-z
1/2+x,1/2+y,-z
1/2-x,1/2+y,z
1/2+x,1/2-y,z
loop_
_atom_site_type_symbol
_atom_site_label
_atom_site_fract_x
_atom_site_fract_y
_atom_site_fract_z
Si Si1 0.610735 0.823338 0.705977
Si Si2 0.301818 0.677935 0.653396
Si Si3 0.358976 0.324900 0.443913
Si Si4 0.945565 0.676154 0.393937
Si Si5 0.943211 0.175774 0.797731
Si Si6 0.057779 0.668708 0.099804
Si Si7 0.441830 0.330285 0.000000
O O1 0.661545 0.739337 0.695797
O O2 0.572980 0.781600 0.661797
O O3 0.588442 0.766101 0.757786
O O4 0.620525 0.000000 0.709106
O O5 0.298045 0.500000 0.657610
O O6 0.250000 0.750000 0.663890
O O7 0.320027 0.730514 0.597690
O O8 0.339463 0.284500 0.500000
O O9 0.367891 0.500000 0.437503
O O10 0.411141 0.247709 0.436157
O O11 0.944999 0.500000 0.402414
O O12 0.000000 0.741093 0.400151
O O13 0.925978 0.232281 0.852490
O O14 0.000000 0.212110 0.788774
O O15 0.932580 0.000000 0.793171
O O16 0.078824 0.500000 0.104621
O O17 0.078805 0.745746 0.049334
O O18 0.000000 0.663227 0.096345
O O19 0.421995 0.500000 0.000000
O O20 0.500000 0.330023 0.000000
#
# Coordination Sequence:
#
# PCOD8267140 Si02
#       7
#    16  16  16  16  16  16   8
#     4  10  19  32  49  67  88 115 147 183 222 265
#     4  10  20  35  53  71  90 112 140 175 218 268
#     4   9  19  34  49  67  91 116 143 176 213 256
#     4   9  18  31  46  65  89 117 148 180 214 254
#     4  10  19  29  42  63  91 121 153 189 228 267
#     4   9  16  25  37  54  78 112 154 194 229 266
#     4   9  15  23  35  51  75 109 150 195 236 269
#
# _framework density 16.056401999999999
#
# number of rings (size 3 to 8) (size 9 to 14) (size 15 to 20)
#    0.000    2.538    0.000    2.538    0.000    6.769 
#    0.000    1.538    0.000    0.000    0.000    0.000 
#    0.000    0.000    0.000    0.692    0.000    9.769 
#
# Total GULP energy -644815.473128 kJ/mol
# GULP energy per Si atom -12400.297560 kJ/mol
# Density = 1.601986 g / cm^3
# Si number density = 16.056402 Si / 1000 Ang^3
#
#
#
# Elastic Constant Matrix: (Units=GPa)
#
#
# Indices 1 2 3 4 5 6 
#
# 1 71.9219 27.9866 26.7323 0.0000 0.0000 0.0000
# 2 27.9866 68.2367 30.4967 0.0000 0.0000 0.0000
# 3 26.7323 30.4967 97.1578 0.0000 0.0000 0.0000
# 4 0.0000 0.0000 0.0000 30.3167 0.0000 0.0000
# 5 0.0000 0.0000 0.0000 0.0000 6.8165 0.0000
# 6 0.0000 0.0000 0.0000 0.0000 0.0000 22.8103
#
#
#
# Elastic Compliance Matrix: (Units=1/GPa)
#
#
# Indices 1 2 3 4 5 6 
#
# 1 0.017235 -0.005757 -0.002935 0.000000 0.000000 0.000000
# 2 -0.005757 0.018969 -0.004370 0.000000 0.000000 0.000000
# 3 -0.002935 -0.004370 0.012472 0.000000 0.000000 0.000000
# 4 0.000000 0.000000 0.000000 0.032985 0.000000 0.000000
# 5 0.000000 0.000000 0.000000 0.000000 0.146703 0.000000
# 6 0.000000 0.000000 0.000000 0.000000 0.000000 0.043840
#
#
# Mechanical properties :
#
#
# Convention : Reuss Voigt Hill
#
# Bulk Modulus (GPa) = 44.34282 45.30527 44.82404
# Shear Modulus (GPa) = 16.34810 22.12877 19.23843
#
# Velocity S-wave (km/s) = 3.19433 3.71643 3.46523
# Velocity P-wave (km/s) = 6.42510 6.83325 6.63232
#
# Compressibility (1/GPa) = 0.02255157
#
# Stress axis : x y z
#
# Youngs Moduli (GPa) = 58.02120 52.71699 80.18059
#
# Poissons Ratio (x) = 0.30349 0.23533
# Poissons Ratio (y) = 0.33403 0.35041
# Poissons Ratio (z) = 0.17029 0.23038
#
# Static dielectric constant tensor:
#      x y z
#    x 2.781500 0.000000 0.000000 
#    y 0.000000 3.151960 0.000000 
#    z 0.000000 0.000000 3.131260 
# 
# 
# High freq. dielectric constant tensor:
#      x y z
#    x 1.570780 0.000000 0.000000 
#    y 0.000000 1.631530 0.000000 
#    z 0.000000 0.000000 1.617540 
# 
# From -- ./inp_files/68182.got.cif
#   From: 2010.03.12/outbox.cif.g09.slc.cpg/sg65_35_cif.got.tgz:68182.got - 2010.04.10 20:52:16.
