data_PCOD8267049
_publ_section_title
;
Structure prediction by ZEFSAII (Michael W. Deem and Ramdas Pophale) SiO2 
 PCOD8267049
Probable space group: C M M M
;
_chemical_formula_sum "Si O2"
_cell_formula_units_Z 104
_cell_length_a 9.145207
_cell_length_b 26.868309
_cell_length_c 26.840085
_cell_angle_alpha 90.000000
_cell_angle_beta 90.000000
_cell_angle_gamma 90.000000
_cell_volume 6595.044970
_symmetry_space_group_name_H-M "C M M M"
_symmetry_group_IT_number 65
_symmetry_cell_setting 'orthorhombic'
loop_
_space_group_symop_operation_xyz
x,y,z
-x,-y,z
x,-y,-z
-x,y,-z
-x,-y,-z
x,y,-z
-x,y,z
x,-y,z
1/2+x,1/2+y,z
1/2-x,1/2-y,z
1/2+x,1/2-y,-z
1/2-x,1/2+y,-z
1/2-x,1/2-y,-z
1/2+x,1/2+y,-z
1/2-x,1/2+y,z
1/2+x,1/2-y,z
loop_
_atom_site_type_symbol
_atom_site_label
_atom_site_fract_x
_atom_site_fract_y
_atom_site_fract_z
Si Si1 0.173566 0.554471 0.000000
Si Si2 0.336235 0.059319 0.106557
Si Si3 0.670296 0.441705 0.796431
Si Si4 0.328906 0.900132 0.296899
Si Si5 0.667739 0.200606 0.649161
Si Si6 0.831902 0.943045 0.611061
Si Si7 0.170005 0.638990 0.443716
O O1 0.217150 0.581558 0.052433
O O2 0.247795 0.500000 0.000000
O O3 0.000000 0.548610 0.000000
O O4 0.500000 0.078260 0.119734
O O5 0.224862 0.076459 0.149397
O O6 0.338046 0.000000 0.101798
O O7 0.500000 0.429807 0.791517
O O8 0.703058 0.500000 0.788291
O O9 0.758559 0.409882 0.756428
O O10 0.500000 0.912919 0.295621
O O11 0.301306 0.842570 0.310776
O O12 0.253239 0.935498 0.337332
O O13 0.500000 0.215228 0.647296
O O14 0.750000 0.250000 0.665877
O O15 0.720078 0.182248 0.594327
O O16 0.762066 0.910669 0.566812
O O17 0.000000 0.927444 0.619117
O O18 0.818442 0.000000 0.594429
O O19 0.199127 0.657115 0.500000
O O20 0.000000 0.626131 0.434312
#
# Coordination Sequence:
#
# PCOD8267049 Si02
#       7
#     8  16  16  16  16  16  16
#     4   7  10  18  33  51  71 101 146 191 220 247
#     4   8  13  22  36  53  75 108 149 187 220 253
#     4  10  19  28  39  60  89 117 147 183 220 255
#     4  10  20  33  48  65  85 111 144 177 209 253
#     4   9  19  34  51  70  88 107 134 169 210 256
#     4  10  20  32  46  66  91 116 143 176 212 248
#     4   9  19  35  51  68  91 116 143 172 200 240
#
# _framework density 15.769415
#
# number of rings (size 3 to 8) (size 9 to 14) (size 15 to 20)
#    0.000    2.846    0.000    3.692    0.000    8.000 
#    0.000    1.923    0.000    2.308    0.000    0.000 
#    0.000    0.000    0.000    0.692    0.000    8.231 
#
# Total GULP energy -644537.744152 kJ/mol
# GULP energy per Si atom -12394.956618 kJ/mol
# Density = 1.573352 g / cm^3
# Si number density = 15.769415 Si / 1000 Ang^3
#
#
#
# Elastic Constant Matrix: (Units=GPa)
#
#
# Indices 1 2 3 4 5 6 
#
# 1 81.2501 34.4464 44.4514 0.0000 0.0000 0.0000
# 2 34.4464 55.4164 25.4020 0.0000 0.0000 0.0000
# 3 44.4514 25.4020 117.9553 0.0000 0.0000 0.0000
# 4 0.0000 0.0000 0.0000 9.6332 0.0000 0.0000
# 5 0.0000 0.0000 0.0000 0.0000 16.3044 0.0000
# 6 0.0000 0.0000 0.0000 0.0000 0.0000 22.5949
#
#
#
# Elastic Compliance Matrix: (Units=1/GPa)
#
#
# Indices 1 2 3 4 5 6 
#
# 1 0.019190 -0.009557 -0.005174 0.000000 0.000000 0.000000
# 2 -0.009557 0.024781 -0.001735 0.000000 0.000000 0.000000
# 3 -0.005174 -0.001735 0.010801 0.000000 0.000000 0.000000
# 4 0.000000 0.000000 0.000000 0.103807 0.000000 0.000000
# 5 0.000000 0.000000 0.000000 0.000000 0.061333 0.000000
# 6 0.000000 0.000000 0.000000 0.000000 0.000000 0.044258
#
#
# Mechanical properties :
#
#
# Convention : Reuss Voigt Hill
#
# Bulk Modulus (GPa) = 45.78577 51.46905 48.62741
# Shear Modulus (GPa) = 16.42677 19.72797 18.07737
#
# Velocity S-wave (km/s) = 3.23102 3.54082 3.38946
# Velocity P-wave (km/s) = 6.55872 7.03036 6.79863
#
# Compressibility (1/GPa) = 0.02184085
#
# Stress axis : x y z
#
# Youngs Moduli (GPa) = 52.11118 40.35350 92.58289
#
# Poissons Ratio (x) = 0.38565 0.47899
# Poissons Ratio (y) = 0.49801 0.16065
# Poissons Ratio (z) = 0.26960 0.07002
#
# Static dielectric constant tensor:
#      x y z
#    x 3.026880 0.000000 0.000000 
#    y 0.000000 2.612310 0.000000 
#    z 0.000000 0.000000 3.252230 
# 
# 
# High freq. dielectric constant tensor:
#      x y z
#    x 1.608390 0.000000 0.000000 
#    y 0.000000 1.554420 0.000000 
#    z 0.000000 0.000000 1.611030 
# 
# From -- ./inp_files/77010.got.cif
#   From: 2010.03.12/outbox.cif.g09.slc.cpg/sg65_39_cif.got.tgz:77010.got - 2010.04.10 20:52:16.
