data_PCOD8267109
_publ_section_title
;
Structure prediction by ZEFSAII (Michael W. Deem and Ramdas Pophale) SiO2 
 PCOD8267109
Probable space group: C M M M
;
_chemical_formula_sum "Si O2"
_cell_formula_units_Z 104
_cell_length_a 9.210918
_cell_length_b 27.325074
_cell_length_c 26.921334
_cell_angle_alpha 90.000000
_cell_angle_beta 90.000000
_cell_angle_gamma 90.000000
_cell_volume 6775.804063
_symmetry_space_group_name_H-M "C M M M"
_symmetry_group_IT_number 65
_symmetry_cell_setting 'orthorhombic'
loop_
_space_group_symop_operation_xyz
x,y,z
-x,-y,z
x,-y,-z
-x,y,-z
-x,-y,-z
x,y,-z
-x,y,z
x,-y,z
1/2+x,1/2+y,z
1/2-x,1/2-y,z
1/2+x,1/2-y,-z
1/2-x,1/2+y,-z
1/2-x,1/2-y,-z
1/2+x,1/2+y,-z
1/2-x,1/2+y,z
1/2+x,1/2-y,z
loop_
_atom_site_type_symbol
_atom_site_label
_atom_site_fract_x
_atom_site_fract_y
_atom_site_fract_z
Si Si1 0.828952 0.700993 0.760000
Si Si2 0.840768 0.558149 0.500000
Si Si3 0.831329 0.200819 0.055144
Si Si4 0.830335 0.396478 0.294839
Si Si5 0.826706 0.445000 0.606193
Si Si6 0.832128 0.945590 0.208018
Si Si7 0.668626 0.350381 0.846858
O O1 0.750000 0.750000 0.741420
O O2 0.793426 0.659498 0.719016
O O3 0.765621 0.685206 0.813216
O O4 0.000000 0.710088 0.765614
O O5 0.856561 0.500000 0.500000
O O6 0.762009 0.572975 0.447725
O O7 0.000000 0.582606 0.500000
O O8 0.750000 0.250000 0.070456
O O9 0.793416 0.158992 0.095369
O O10 0.000000 0.213567 0.056104
O O11 0.783964 0.182674 0.000000
O O12 0.774310 0.408022 0.350594
O O13 0.755199 0.434032 0.257633
O O14 0.000000 0.406838 0.290244
O O15 0.772238 0.500000 0.618765
O O16 0.000000 0.445222 0.601846
O O17 0.793165 0.906987 0.164520
O O18 0.000000 0.941794 0.222245
O O19 0.791626 0.000000 0.188984
O O20 0.500000 0.338920 0.835497
#
# Coordination Sequence:
#
# PCOD8267109 Si02
#       7
#    16   8  16  16  16  16  16
#     4  10  19  29  41  58  80 104 131 162 196 235
#     4   7  10  16  28  50  78 103 123 147 187 233
#     4   9  17  28  42  60  80 101 126 158 196 235
#     4   9  17  27  40  59  80 103 132 164 196 230
#     4   8  12  19  33  54  80 104 124 152 191 230
#     4   9  17  28  41  58  81 108 135 160 189 228
#     4   9  17  29  44  60  80 106 132 159 192 230
#
# _framework density 15.348731000000001
#
# number of rings (size 3 to 8) (size 9 to 14) (size 15 to 20)
#    0.000    3.154    0.000    2.308    0.000    3.385 
#    0.000    0.000    0.000    0.462    0.000    4.308 
#    0.000    3.077    0.000   11.538    0.000   12.000 
#
# Total GULP energy -644354.659987 kJ/mol
# GULP energy per Si atom -12391.435769 kJ/mol
# Density = 1.531380 g / cm^3
# Si number density = 15.348731 Si / 1000 Ang^3
#
#
#
# Elastic Constant Matrix: (Units=GPa)
#
#
# Indices 1 2 3 4 5 6 
#
# 1 31.8659 29.9529 29.5611 0.0000 0.0000 0.0000
# 2 29.9529 100.3429 69.6559 0.0000 0.0000 0.0000
# 3 29.5611 69.6559 145.5095 0.0000 0.0000 0.0000
# 4 0.0000 0.0000 0.0000 22.3766 0.0000 0.0000
# 5 0.0000 0.0000 0.0000 0.0000 12.5327 0.0000
# 6 0.0000 0.0000 0.0000 0.0000 0.0000 16.8154
#
#
#
# Elastic Compliance Matrix: (Units=1/GPa)
#
#
# Indices 1 2 3 4 5 6 
#
# 1 0.045180 -0.010656 -0.004078 0.000000 0.000000 0.000000
# 2 -0.010656 0.017439 -0.006183 0.000000 0.000000 0.000000
# 3 -0.004078 -0.006183 0.010661 0.000000 0.000000 0.000000
# 4 0.000000 0.000000 0.000000 0.044689 0.000000 0.000000
# 5 0.000000 0.000000 0.000000 0.000000 0.079791 0.000000
# 6 0.000000 0.000000 0.000000 0.000000 0.000000 0.059469
#
#
# Mechanical properties :
#
#
# Convention : Reuss Voigt Hill
#
# Bulk Modulus (GPa) = 31.80014 59.56202 45.68108
# Shear Modulus (GPa) = 16.15267 20.24817 18.20042
#
# Velocity S-wave (km/s) = 3.24756 3.63603 3.44727
# Velocity P-wave (km/s) = 5.90132 7.51783 6.75808
#
# Compressibility (1/GPa) = 0.03144640
#
# Stress axis : x y z
#
# Youngs Moduli (GPa) = 22.13346 57.34266 93.80207
#
# Poissons Ratio (x) = 0.61105 0.38249
# Poissons Ratio (y) = 0.23586 0.58000
# Poissons Ratio (z) = 0.09025 0.35457
#
# Static dielectric constant tensor:
#      x y z
#    x 2.786750 0.000000 0.000000 
#    y 0.000000 2.938910 0.000000 
#    z 0.000000 0.000000 3.267320 
# 
# 
# High freq. dielectric constant tensor:
#      x y z
#    x 1.568690 0.000000 0.000000 
#    y 0.000000 1.567680 0.000000 
#    z 0.000000 0.000000 1.587730 
# 
# From -- ./inp_files/77105.got.cif
#   From: 2010.03.12/outbox.cif.g09.slc.cpg/sg65_39_cif.got.tgz:77105.got - 2010.04.10 20:52:16.
