data_PCOD8267939
_publ_section_title
;
Structure prediction by ZEFSAII (Michael W. Deem and Ramdas Pophale) SiO2 
 PCOD8267939
Probable space group: C M M M
;
_chemical_formula_sum "Si O2"
_cell_formula_units_Z 104
_cell_length_a 8.756146
_cell_length_b 25.660394
_cell_length_c 26.235673
_cell_angle_alpha 90.000000
_cell_angle_beta 90.000000
_cell_angle_gamma 90.000000
_cell_volume 5894.792524
_symmetry_space_group_name_H-M "C M M M"
_symmetry_group_IT_number 65
_symmetry_cell_setting 'orthorhombic'
loop_
_space_group_symop_operation_xyz
x,y,z
-x,-y,z
x,-y,-z
-x,y,-z
-x,-y,-z
x,y,-z
-x,y,z
x,-y,z
1/2+x,1/2+y,z
1/2-x,1/2-y,z
1/2+x,1/2-y,-z
1/2-x,1/2+y,-z
1/2-x,1/2-y,-z
1/2+x,1/2+y,-z
1/2-x,1/2+y,z
1/2+x,1/2-y,z
loop_
_atom_site_type_symbol
_atom_site_label
_atom_site_fract_x
_atom_site_fract_y
_atom_site_fract_z
Si Si1 0.672004 0.938085 0.000000
Si Si2 0.678715 0.803802 0.733421
Si Si3 0.180803 0.000000 0.267289
Si Si4 0.321915 0.561062 0.103876
Si Si5 0.181650 0.099995 0.442748
Si Si6 0.322385 0.906395 0.205471
Si Si7 0.818684 0.804552 0.374946
Si Si8 0.317910 0.500000 0.382649
O O1 0.759568 0.917851 0.949999
O O2 0.500000 0.916123 0.000000
O O3 0.672504 0.000000 0.000000
O O4 0.500000 0.795610 0.723755
O O5 0.750000 0.750000 0.754464
O O6 0.712310 0.848724 0.774104
O O7 0.756571 0.819994 0.680447
O O8 0.235644 0.948268 0.239476
O O9 0.244431 0.000000 0.324924
O O10 0.000000 0.000000 0.266064
O O11 0.500000 0.572987 0.106920
O O12 0.287382 0.500000 0.110992
O O13 0.235735 0.592493 0.147723
O O14 0.248232 0.099240 0.500000
O O15 0.237379 0.152260 0.414934
O O16 0.246302 0.050589 0.411800
O O17 0.000000 0.097496 0.444136
O O18 0.500000 0.920062 0.207236
O O19 0.750000 0.750000 0.393812
O O20 0.000000 0.800800 0.372257
O O21 0.500000 0.500000 0.382337
#
# Coordination Sequence:
#
# PCOD8267939 Si02
#       8
#     8  16   8  16  16  16  16   8
#     4   9  17  29  47  69 100 143 180 215 258 301
#     4  10  21  36  54  75  99 132 170 210 255 306
#     4  11  21  32  49  75 103 134 170 205 250 303
#     4  10  19  31  48  73 104 139 179 217 253 297
#     4   9  17  29  46  69  95 123 157 198 244 293
#     4  11  22  34  50  74 105 137 170 210 258 306
#     4  10  19  32  51  73  97 125 157 199 247 301
#     4   9  17  29  46  67  93 125 160 199 242 291
#
# _framework density 17.642690999999999
#
# number of rings (size 3 to 8) (size 9 to 14) (size 15 to 20)
#    0.000    2.077    0.769    4.385    0.000    6.462 
#    0.000    0.000    0.000    1.385    0.000    0.538 
#    0.000    9.846    0.000    0.000    0.000    0.000 
#
# Total GULP energy -644907.426559 kJ/mol
# GULP energy per Si atom -12402.065895 kJ/mol
# Density = 1.760254 g / cm^3
# Si number density = 17.642691 Si / 1000 Ang^3
#
#
#
# Elastic Constant Matrix: (Units=GPa)
#
#
# Indices 1 2 3 4 5 6 
#
# 1 75.1027 42.4321 42.5977 0.0000 0.0000 0.0000
# 2 42.4321 109.8165 77.8476 0.0000 0.0000 0.0000
# 3 42.5977 77.8476 156.7726 0.0000 0.0000 0.0000
# 4 0.0000 0.0000 0.0000 4.7096 0.0000 0.0000
# 5 0.0000 0.0000 0.0000 0.0000 21.1666 0.0000
# 6 0.0000 0.0000 0.0000 0.0000 0.0000 21.0092
#
#
#
# Elastic Compliance Matrix: (Units=1/GPa)
#
#
# Indices 1 2 3 4 5 6 
#
# 1 0.017493 -0.005231 -0.002156 0.000000 0.000000 0.000000
# 2 -0.005231 0.015617 -0.006333 0.000000 0.000000 0.000000
# 3 -0.002156 -0.006333 0.010109 0.000000 0.000000 0.000000
# 4 0.000000 0.000000 0.000000 0.212335 0.000000 0.000000
# 5 0.000000 0.000000 0.000000 0.000000 0.047244 0.000000
# 6 0.000000 0.000000 0.000000 0.000000 0.000000 0.047598
#
#
# Mechanical properties :
#
#
# Convention : Reuss Voigt Hill
#
# Bulk Modulus (GPa) = 63.37446 74.16073 68.76759
# Shear Modulus (GPa) = 13.05152 21.29803 17.17478
#
# Velocity S-wave (km/s) = 2.72282 3.47823 3.12345
# Velocity P-wave (km/s) = 6.77378 7.63262 7.21599
#
# Compressibility (1/GPa) = 0.01577923
#
# Stress axis : x y z
#
# Youngs Moduli (GPa) = 57.16475 64.03236 98.91819
#
# Poissons Ratio (x) = 0.33496 0.21323
# Poissons Ratio (y) = 0.29904 0.62650
# Poissons Ratio (z) = 0.12322 0.40555
#
# Static dielectric constant tensor:
#      x y z
#    x 3.218140 0.000000 0.000000 
#    y 0.000000 3.241240 0.000000 
#    z 0.000000 0.000000 3.434060 
# 
# 
# High freq. dielectric constant tensor:
#      x y z
#    x 1.677240 0.000000 0.000000 
#    y 0.000000 1.666010 0.000000 
#    z 0.000000 0.000000 1.687890 
# 
# From -- ./inp_files/68329.got.cif
#   From: 2010.03.12/outbox.cif.g09.slc.cpg/sg65_35_cif.got.tgz:68329.got - 2010.04.10 20:52:16.
