data_PCOD8267473
_publ_section_title
;
Structure prediction by ZEFSAII (Michael W. Deem and Ramdas Pophale) SiO2 
 PCOD8267473
Probable space group: C M M M
;
_chemical_formula_sum "Si O2"
_cell_formula_units_Z 64
_cell_length_a 9.258052
_cell_length_b 19.591148
_cell_length_c 21.742358
_cell_angle_alpha 90.000000
_cell_angle_beta 90.000000
_cell_angle_gamma 90.000000
_cell_volume 3943.539031
_symmetry_space_group_name_H-M "C M M M"
_symmetry_group_IT_number 65
_symmetry_cell_setting 'orthorhombic'
loop_
_space_group_symop_operation_xyz
x,y,z
-x,-y,z
x,-y,-z
-x,y,-z
-x,-y,-z
x,y,-z
-x,y,z
x,-y,z
1/2+x,1/2+y,z
1/2-x,1/2-y,z
1/2+x,1/2-y,-z
1/2-x,1/2+y,-z
1/2-x,1/2-y,-z
1/2+x,1/2+y,-z
1/2-x,1/2+y,z
1/2+x,1/2-y,z
loop_
_atom_site_type_symbol
_atom_site_label
_atom_site_fract_x
_atom_site_fract_y
_atom_site_fract_z
Si Si1 0.330350 0.500000 0.067166
Si Si2 0.331384 0.182055 0.742269
Si Si3 0.831111 0.681654 0.601445
Si Si4 0.838057 0.075956 0.818926
Si Si5 0.328941 0.076511 0.500000
O O1 0.500000 0.500000 0.056800
O O2 0.292961 0.432519 0.108419
O O3 0.252044 0.500000 0.000000
O O4 0.500000 0.193539 0.752014
O O5 0.250000 0.250000 0.763165
O O6 0.293999 0.163665 0.671838
O O7 0.279730 0.121020 0.785114
O O8 0.750000 0.750000 0.580028
O O9 0.777492 0.617884 0.560452
O O10 0.000000 0.695364 0.591691
O O11 0.000000 0.107294 0.812588
O O12 0.837254 0.000000 0.789048
O O13 0.500000 0.070058 0.500000
O O14 0.260914 0.000000 0.500000
#
# Coordination Sequence:
#
# PCOD8267473 Si02
#       5
#     8  16  16  16   8
#     4   7  12  26  49  73  95 122 155 186 222 273
#     4  10  19  30  46  68  95 124 157 195 235 277
#     4   9  18  31  48  67  86 117 154 190 230 274
#     4   8  16  29  47  71  96 122 152 186 228 273
#     4   9  17  30  47  67  90 115 148 190 232 275
#
# _framework density 16.229078000000001
#
# number of rings (size 3 to 8) (size 9 to 14) (size 15 to 20)
#    0.750    2.500    0.000    1.125    0.000    2.500 
#    0.000    2.500    0.000    3.750    0.000    0.000 
#    0.000    0.000    0.000    0.000    0.000    0.000 
#
# Total GULP energy -396436.500214 kJ/mol
# GULP energy per Si atom -12388.640632 kJ/mol
# Density = 1.619214 g / cm^3
# Si number density = 16.229078 Si / 1000 Ang^3
#
#
#
# Elastic Constant Matrix: (Units=GPa)
#
#
# Indices 1 2 3 4 5 6 
#
# 1 51.6774 37.9897 34.4229 0.0000 0.0000 0.0000
# 2 37.9897 109.6418 67.0997 0.0000 0.0000 0.0000
# 3 34.4229 67.0997 104.2060 0.0000 0.0000 0.0000
# 4 0.0000 0.0000 0.0000 4.5476 0.0000 0.0000
# 5 0.0000 0.0000 0.0000 0.0000 13.5224 0.0000
# 6 0.0000 0.0000 0.0000 0.0000 0.0000 29.1326
#
#
#
# Elastic Compliance Matrix: (Units=1/GPa)
#
#
# Indices 1 2 3 4 5 6 
#
# 1 0.027369 -0.006519 -0.004843 0.000000 0.000000 0.000000
# 2 -0.006519 0.016605 -0.008539 0.000000 0.000000 0.000000
# 3 -0.004843 -0.008539 0.016695 0.000000 0.000000 0.000000
# 4 0.000000 0.000000 0.000000 0.219896 0.000000 0.000000
# 5 0.000000 0.000000 0.000000 0.000000 0.073952 0.000000
# 6 0.000000 0.000000 0.000000 0.000000 0.000000 0.034326
#
#
# Mechanical properties :
#
#
# Convention : Reuss Voigt Hill
#
# Bulk Modulus (GPa) = 47.92347 60.50554 54.21451
# Shear Modulus (GPa) = 11.47841 17.84137 14.65989
#
# Velocity S-wave (km/s) = 2.66235 3.31924 3.00877
# Velocity P-wave (km/s) = 6.24854 7.21477 6.74897
#
# Compressibility (1/GPa) = 0.02086660
#
# Stress axis : x y z
#
# Youngs Moduli (GPa) = 36.53709 60.22273 59.89996
#
# Poissons Ratio (x) = 0.39260 0.29012
# Poissons Ratio (y) = 0.23819 0.51147
# Poissons Ratio (z) = 0.17696 0.51422
#
# Static dielectric constant tensor:
#      x y z
#    x 2.831670 0.000000 0.000000 
#    y 0.000000 3.031540 0.000000 
#    z 0.000000 0.000000 3.324520 
# 
# 
# High freq. dielectric constant tensor:
#      x y z
#    x 1.604460 0.000000 0.000000 
#    y 0.000000 1.610200 0.000000 
#    z 0.000000 0.000000 1.619280 
# 
# From -- ./inp_files/67197.got.cif
#   From: 2010.03.12/outbox.cif.g09.slc.cpg/sg65_34_cif.got.tgz:67197.got - 2010.04.10 20:52:16.
