data_PCOD8267655
_publ_section_title
;
Structure prediction by ZEFSAII (Michael W. Deem and Ramdas Pophale) SiO2 
 PCOD8267655
Probable space group: C M M M
;
_chemical_formula_sum "Si O2"
_cell_formula_units_Z 72
_cell_length_a 9.029318
_cell_length_b 31.171206
_cell_length_c 14.233208
_cell_angle_alpha 90.000000
_cell_angle_beta 90.000000
_cell_angle_gamma 90.000000
_cell_volume 4006.003735
_symmetry_space_group_name_H-M "C M M M"
_symmetry_group_IT_number 65
_symmetry_cell_setting 'orthorhombic'
loop_
_space_group_symop_operation_xyz
x,y,z
-x,-y,z
x,-y,-z
-x,y,-z
-x,-y,-z
x,y,-z
-x,y,z
x,-y,z
1/2+x,1/2+y,z
1/2-x,1/2-y,z
1/2+x,1/2-y,-z
1/2-x,1/2+y,-z
1/2-x,1/2-y,-z
1/2+x,1/2+y,-z
1/2-x,1/2+y,z
1/2+x,1/2-y,z
loop_
_atom_site_type_symbol
_atom_site_label
_atom_site_fract_x
_atom_site_fract_y
_atom_site_fract_z
Si Si1 0.334115 0.500000 0.888785
Si Si2 0.825978 0.586262 0.891552
Si Si3 0.325983 0.706573 0.607008
Si Si4 0.175178 0.047381 0.394992
Si Si5 0.324118 0.374286 0.271527
O O1 0.500000 0.500000 0.844696
O O2 0.248066 0.457807 0.855217
O O3 0.343309 0.500000 0.000000
O O4 0.755702 0.624741 0.830042
O O5 0.000000 0.582843 0.875570
O O6 0.787800 0.595617 0.000000
O O7 0.278342 0.695897 0.500000
O O8 0.500000 0.713082 0.613817
O O9 0.250000 0.750000 0.642895
O O10 0.272748 0.668172 0.673830
O O11 0.240563 0.053044 0.500000
O O12 0.238072 0.084705 0.328887
O O13 0.000000 0.052145 0.400629
O O14 0.218306 0.000000 0.355384
O O15 0.500000 0.375527 0.257744
#
# Coordination Sequence:
#
# PCOD8267655 Si02
#       5
#     8  16  16  16  16
#     4   9  17  31  51  71  92 125 172 219 255 290
#     4  10  21  35  49  69 101 138 172 210 258 307
#     4   9  18  33  53  78 107 135 166 208 256 307
#     4   8  14  25  42  67  99 130 160 196 239 290
#     4  10  19  30  50  77 101 129 170 214 251 297
#
# _framework density 17.973023000000001
#
# number of rings (size 3 to 8) (size 9 to 14) (size 15 to 20)
#    0.000    2.778    0.000    2.333    1.556    6.222 
#    0.000    0.000    0.000    2.667    0.000    1.556 
#    0.000    0.000    0.000    0.000    0.000    0.000 
#
# Total GULP energy -446332.639908 kJ/mol
# GULP energy per Si atom -12398.128886 kJ/mol
# Density = 1.793212 g / cm^3
# Si number density = 17.973023 Si / 1000 Ang^3
#
#
#
# Elastic Constant Matrix: (Units=GPa)
#
#
# Indices 1 2 3 4 5 6 
#
# 1 52.3877 44.7869 40.3341 0.0000 0.0000 0.0000
# 2 44.7869 141.7958 78.2094 0.0000 0.0000 0.0000
# 3 40.3341 78.2094 94.1646 0.0000 0.0000 0.0000
# 4 0.0000 0.0000 0.0000 30.0341 0.0000 0.0000
# 5 0.0000 0.0000 0.0000 0.0000 20.8062 0.0000
# 6 0.0000 0.0000 0.0000 0.0000 0.0000 27.3815
#
#
#
# Elastic Compliance Matrix: (Units=1/GPa)
#
#
# Indices 1 2 3 4 5 6 
#
# 1 0.029893 -0.004391 -0.009157 0.000000 0.000000 0.000000
# 2 -0.004391 0.013659 -0.009464 0.000000 0.000000 0.000000
# 3 -0.009157 -0.009464 0.022403 0.000000 0.000000 0.000000
# 4 0.000000 0.000000 0.000000 0.033296 0.000000 0.000000
# 5 0.000000 0.000000 0.000000 0.000000 0.048062 0.000000
# 6 0.000000 0.000000 0.000000 0.000000 0.000000 0.036521
#
#
# Mechanical properties :
#
#
# Convention : Reuss Voigt Hill
#
# Bulk Modulus (GPa) = 50.17539 68.33432 59.25485
# Shear Modulus (GPa) = 21.14154 23.97887 22.56020
#
# Velocity S-wave (km/s) = 3.43343 3.65658 3.54676
# Velocity P-wave (km/s) = 6.61027 7.47867 7.05783
#
# Compressibility (1/GPa) = 0.01993009
#
# Stress axis : x y z
#
# Youngs Moduli (GPa) = 33.45316 73.20974 44.63783
#
# Poissons Ratio (x) = 0.32146 0.40875
# Poissons Ratio (y) = 0.14689 0.42246
# Poissons Ratio (z) = 0.30633 0.69287
#
# Static dielectric constant tensor:
#      x y z
#    x 3.034570 0.000000 0.000000 
#    y 0.000000 3.327350 0.000000 
#    z 0.000000 0.000000 3.425810 
# 
# 
# High freq. dielectric constant tensor:
#      x y z
#    x 1.669010 0.000000 0.000000 
#    y 0.000000 1.679960 0.000000 
#    z 0.000000 0.000000 1.697240 
# 
# From -- ./inp_files/36982.got.cif
#   From: 2010.03.12/outbox.cif.g09.slc.cpg/sg65_19_cif.got.tgz:36982.got - 2010.04.10 20:52:16.
