data_PCOD8267687
_publ_section_title
;
Structure prediction by ZEFSAII (Michael W. Deem and Ramdas Pophale) SiO2 
 PCOD8267687
Probable space group: C M M M
;
_chemical_formula_sum "Si O2"
_cell_formula_units_Z 104
_cell_length_a 8.224835
_cell_length_b 27.631574
_cell_length_c 27.810905
_cell_angle_alpha 90.000000
_cell_angle_beta 90.000000
_cell_angle_gamma 90.000000
_cell_volume 6320.449133
_symmetry_space_group_name_H-M "C M M M"
_symmetry_group_IT_number 65
_symmetry_cell_setting 'orthorhombic'
loop_
_space_group_symop_operation_xyz
x,y,z
-x,-y,z
x,-y,-z
-x,y,-z
-x,-y,-z
x,y,-z
-x,y,z
x,-y,z
1/2+x,1/2+y,z
1/2-x,1/2-y,z
1/2+x,1/2-y,-z
1/2-x,1/2+y,-z
1/2-x,1/2-y,-z
1/2+x,1/2+y,-z
1/2-x,1/2+y,z
1/2+x,1/2-y,z
loop_
_atom_site_type_symbol
_atom_site_label
_atom_site_fract_x
_atom_site_fract_y
_atom_site_fract_z
Si Si1 0.689051 0.052568 0.806155
Si Si2 0.686832 0.443344 0.384866
Si Si3 0.187271 0.898201 0.283190
Si Si4 0.309721 0.145793 0.857348
Si Si5 0.809746 0.198339 0.946741
Si Si6 0.310133 0.698287 0.232869
Si Si7 0.500000 0.942861 0.446462
O O1 0.500000 0.049502 0.817075
O O2 0.711554 0.065518 0.750166
O O3 0.767917 0.094691 0.839321
O O4 0.769202 0.000000 0.817139
O O5 0.500000 0.433802 0.403983
O O6 0.704936 0.500000 0.372157
O O7 0.721822 0.410967 0.338217
O O8 0.829537 0.426619 0.421469
O O9 0.239085 0.842573 0.272144
O O10 0.000000 0.906122 0.270083
O O11 0.500000 0.140892 0.861683
O O12 0.241354 0.156733 0.909952
O O13 0.269088 0.187439 0.818919
O O14 0.750000 0.250000 0.927048
O O15 0.000000 0.199682 0.950462
O O16 0.735211 0.187968 0.000000
O O17 0.500000 0.699990 0.224647
O O18 0.250000 0.750000 0.252412
O O19 0.500000 0.920272 0.500000
O O20 0.500000 0.000000 0.449345
#
# Coordination Sequence:
#
# PCOD8267687 Si02
#       7
#    16  16  16  16  16  16   8
#     4   9  18  30  45  66  90 117 150 185 218 257
#     4   9  17  29  45  66  93 125 158 194 234 275
#     4   9  18  30  44  64  90 121 153 188 224 267
#     4  10  19  31  47  66  89 117 148 178 219 266
#     4  10  20  33  49  68  88 110 140 180 223 268
#     4  10  19  31  45  63  91 123 151 182 220 267
#     4   9  18  30  44  66  94 126 162 194 231 279
#
# _framework density 16.454526999999999
#
# number of rings (size 3 to 8) (size 9 to 14) (size 15 to 20)
#    0.000    2.538    0.000    2.308    1.077    3.385 
#    0.000    1.538    0.000    0.462    0.000    3.231 
#    0.000    0.615    0.308    0.000    0.000    0.000 
#
# Total GULP energy -644489.760329 kJ/mol
# GULP energy per Si atom -12394.033852 kJ/mol
# Density = 1.641708 g / cm^3
# Si number density = 16.454527 Si / 1000 Ang^3
#
#
#
# Elastic Constant Matrix: (Units=GPa)
#
#
# Indices 1 2 3 4 5 6 
#
# 1 64.1108 25.1705 42.0992 0.0000 0.0000 0.0000
# 2 25.1705 101.1082 51.1702 0.0000 0.0000 0.0000
# 3 42.0992 51.1702 109.1358 0.0000 0.0000 0.0000
# 4 0.0000 0.0000 0.0000-8655.9626 0.0000 0.0000
# 5 0.0000 0.0000 0.0000 0.0000 25.8015 0.0000
# 6 0.0000 0.0000 0.0000 0.0000 0.0000 15.5626
#
#
#
# Elastic Compliance Matrix: (Units=1/GPa)
#
#
# Indices 1 2 3 4 5 6 
#
# 1 0.021058 -0.001483 -0.007428 0.000000 0.000000 0.000000
# 2 -0.001483 0.013072 -0.005557 0.000000 0.000000 0.000000
# 3 -0.007428 -0.005557 0.014634 0.000000 0.000000 0.000000
# 4 0.000000 0.000000 0.000000 -0.000116 0.000000 0.000000
# 5 0.000000 0.000000 0.000000 0.000000 0.038757 0.000000
# 6 0.000000 0.000000 0.000000 0.000000 0.000000 0.064257
#
#
# Mechanical properties :
#
#
# Convention : Reuss Voigt Hill
#
# Bulk Modulus (GPa) = 50.43400 56.80384 53.61892
# Shear Modulus (GPa) = 26.70847 -1712.52538 -842.90846
#
# Velocity S-wave (km/s) = 4.03323 -32.29585 -22.65783
# Velocity P-wave (km/s) = 7.23922 36.82525 25.53128
#
# Compressibility (1/GPa) = 0.01982789
#
# Stress axis : x y z
#
# Youngs Moduli (GPa) = 47.48838 76.49990 68.33619
#
# Poissons Ratio (x) = 0.11346 0.50758
# Poissons Ratio (y) = 0.07043 0.37973
# Poissons Ratio (z) = 0.35273 0.42510
#
# Static dielectric constant tensor:
#      x y z
#    x 3.200310 0.000000 0.000000 
#    y 0.000000 2.953460 0.000000 
#    z 0.000000 0.000000 3.509890 
# 
# 
# High freq. dielectric constant tensor:
#      x y z
#    x 1.643450 0.000000 0.000000 
#    y 0.000000 1.615670 0.000000 
#    z 0.000000 0.000000 1.610970 
# 
# From -- ./inp_files/68191.got.cif
#   From: 2010.03.12/outbox.cif.g09.slc.cpg/sg65_35_cif.got.tgz:68191.got - 2010.04.10 20:52:16.
