data_PCOD8267527
_publ_section_title
;
Structure prediction by ZEFSAII (Michael W. Deem and Ramdas Pophale) SiO2 
 PCOD8267527
Probable space group: C M M M
;
_chemical_formula_sum "Si O2"
_cell_formula_units_Z 104
_cell_length_a 27.952124
_cell_length_b 25.582937
_cell_length_c 9.418360
_cell_angle_alpha 90.000000
_cell_angle_beta 90.000000
_cell_angle_gamma 90.000000
_cell_volume 6735.045005
_symmetry_space_group_name_H-M "C M M M"
_symmetry_group_IT_number 65
_symmetry_cell_setting 'orthorhombic'
loop_
_space_group_symop_operation_xyz
x,y,z
-x,-y,z
x,-y,-z
-x,y,-z
-x,-y,-z
x,y,-z
-x,y,z
x,-y,z
1/2+x,1/2+y,z
1/2-x,1/2-y,z
1/2+x,1/2-y,-z
1/2-x,1/2+y,-z
1/2-x,1/2-y,-z
1/2+x,1/2+y,-z
1/2-x,1/2+y,z
1/2+x,1/2-y,z
loop_
_atom_site_type_symbol
_atom_site_label
_atom_site_fract_x
_atom_site_fract_y
_atom_site_fract_z
Si Si1 0.945955 0.273980 0.339160
Si Si2 0.721712 0.696187 0.338563
Si Si3 0.445753 0.896162 0.707325
Si Si4 0.350396 0.940911 0.654223
Si Si5 0.698274 0.146410 0.165230
Si Si6 0.857862 0.246657 0.165029
Si Si7 0.055344 0.557590 0.000000
O O1 0.932730 0.257408 0.500000
O O2 0.940704 0.335864 0.328219
O O3 0.911227 0.245426 0.228531
O O4 0.000000 0.256984 0.301329
O O5 0.711454 0.677043 0.500000
O O6 0.750000 0.750000 0.342526
O O7 0.752755 0.653698 0.253032
O O8 0.672582 0.704087 0.252337
O O9 0.500000 0.915466 0.672765
O O10 0.406490 0.928941 0.622361
O O11 0.430548 0.906146 0.869367
O O12 0.325054 0.933377 0.500000
O O13 0.328112 0.904003 0.773380
O O14 0.344341 0.000000 0.708596
O O15 0.663987 0.195962 0.186230
O O16 0.710629 0.137811 0.000000
O O17 0.858992 0.230606 0.000000
O O18 0.081026 0.500000 0.000000
O O19 0.000000 0.545720 0.000000
#
# Coordination Sequence:
#
# PCOD8267527 Si02
#       7
#    16  16  16  16  16  16   8
#     4  10  20  31  44  62  86 116 148 182 222 266
#     4   9  17  30  50  70  88 108 131 168 217 266
#     4  10  20  32  46  59  76 106 146 190 233 275
#     4  11  23  34  45  62  84 111 145 186 232 278
#     4  10  20  33  48  65  85 109 139 179 222 269
#     4  10  19  30  47  69  89 110 140 177 217 265
#     4   9  18  30  42  56  72  91 126 180 232 273
#
# _framework density 15.441618999999999
#
# number of rings (size 3 to 8) (size 9 to 14) (size 15 to 20)
#    0.000    2.077    1.538    2.308    2.154    5.538 
#    0.000    0.769    0.000    0.000    0.000    0.000 
#    0.000    0.000    0.000    0.000    0.000    0.769 
#
# Total GULP energy -644504.976109 kJ/mol
# GULP energy per Si atom -12394.326464 kJ/mol
# Density = 1.540647 g / cm^3
# Si number density = 15.441619 Si / 1000 Ang^3
#
#
#
# Elastic Constant Matrix: (Units=GPa)
#
#
# Indices 1 2 3 4 5 6 
#
# 1 88.3296 34.9101 59.3114 0.0000 0.0000 0.0000
# 2 34.9101 38.3788 28.9537 0.0000 0.0000 0.0000
# 3 59.3114 28.9537 129.9682 0.0000 0.0000 0.0000
# 4 0.0000 0.0000 0.0000 21.9694 0.0000 0.0000
# 5 0.0000 0.0000 0.0000 0.0000 23.3815 0.0000
# 6 0.0000 0.0000 0.0000 0.0000 0.0000 -1.0338
#
#
#
# Elastic Compliance Matrix: (Units=1/GPa)
#
#
# Indices 1 2 3 4 5 6 
#
# 1 0.021497 -0.014608 -0.006556 0.000000 0.000000 0.000000
# 2 -0.014608 0.041247 -0.002522 0.000000 0.000000 0.000000
# 3 -0.006556 -0.002522 0.011248 0.000000 0.000000 0.000000
# 4 0.000000 0.000000 0.000000 0.045518 0.000000 0.000000
# 5 0.000000 0.000000 0.000000 0.000000 0.042769 0.000000
# 6 0.000000 0.000000 0.000000 0.000000 0.000000 -0.967343
#
#
# Mechanical properties :
#
#
# Convention : Reuss Voigt Hill
#
# Bulk Modulus (GPa) = 37.56714 55.89189 46.72952
# Shear Modulus (GPa) = -6.67718 17.76353 5.54318
#
# Velocity S-wave (km/s) = -2.08171 3.39539 1.89672
# Velocity P-wave (km/s) = 4.31315 7.18650 5.92659
#
# Compressibility (1/GPa) = 0.02661901
#
# Stress axis : x y z
#
# Youngs Moduli (GPa) = 46.51846 24.24428 88.90581
#
# Poissons Ratio (x) = 0.35416 0.58285
# Poissons Ratio (y) = 0.67955 0.22425
# Poissons Ratio (z) = 0.30497 0.06115
#
# Static dielectric constant tensor:
#      x y z
#    x 2.966780 0.000000 0.000000 
#    y 0.000000 2.443010 0.000000 
#    z 0.000000 0.000000 3.203130 
# 
# 
# High freq. dielectric constant tensor:
#      x y z
#    x 1.575130 0.000000 0.000000 
#    y 0.000000 1.532300 0.000000 
#    z 0.000000 0.000000 1.617890 
# 
# From -- ./inp_files/18852.got.cif
#   From: 2010.03.12/outbox.cif.g09.slc.cpg/sg65_10_cif.got.tgz:18852.got - 2010.04.10 20:52:16.
