data_PCOD8267724
_publ_section_title
;
Structure prediction by ZEFSAII (Michael W. Deem and Ramdas Pophale) SiO2 
 PCOD8267724
Probable space group: C M M M
;
_chemical_formula_sum "Si O2"
_cell_formula_units_Z 96
_cell_length_a 27.325628
_cell_length_b 8.843439
_cell_length_c 24.279060
_cell_angle_alpha 90.000000
_cell_angle_beta 90.000000
_cell_angle_gamma 90.000000
_cell_volume 5867.096138
_symmetry_space_group_name_H-M "C M M M"
_symmetry_group_IT_number 65
_symmetry_cell_setting 'orthorhombic'
loop_
_space_group_symop_operation_xyz
x,y,z
-x,-y,z
x,-y,-z
-x,y,-z
-x,-y,-z
x,y,-z
-x,y,z
x,-y,z
1/2+x,1/2+y,z
1/2-x,1/2-y,z
1/2+x,1/2-y,-z
1/2-x,1/2+y,-z
1/2-x,1/2-y,-z
1/2+x,1/2+y,-z
1/2-x,1/2+y,z
1/2+x,1/2-y,z
loop_
_atom_site_type_symbol
_atom_site_label
_atom_site_fract_x
_atom_site_fract_y
_atom_site_fract_z
Si Si1 0.896265 0.323235 0.726070
Si Si2 0.853751 0.821230 0.887748
Si Si3 0.558263 0.166417 0.500000
Si Si4 0.300393 0.822548 0.213682
Si Si5 0.196977 0.177344 0.000000
Si Si6 0.555789 0.178987 0.837180
Si Si7 0.055307 0.318956 0.617780
O O1 0.906089 0.500000 0.721843
O O2 0.839667 0.286859 0.738430
O O3 0.929827 0.261477 0.776119
O O4 0.911487 0.251081 0.667282
O O5 0.817279 0.749500 0.843460
O O6 0.834024 0.770880 0.947115
O O7 0.908945 0.758543 0.881485
O O8 0.854105 0.000000 0.880053
O O9 0.500000 0.151499 0.500000
O O10 0.573577 0.247473 0.442033
O O11 0.582082 0.000000 0.500000
O O12 0.250000 0.750000 0.233770
O O13 0.294129 0.000000 0.204158
O O14 0.250000 0.250000 0.000000
O O15 0.205298 0.000000 0.000000
O O16 0.500000 0.224174 0.850184
O O17 0.564198 0.000000 0.841052
O O18 0.057947 0.500000 0.614482
O O19 0.000000 0.266950 0.630033
#
# Coordination Sequence:
#
# PCOD8267724 Si02
#       7
#    16  16   8  16   8  16  16
#     4   8  14  23  37  57  80 108 142 176 210 251
#     4  10  20  34  50  69  91 114 142 174 212 257
#     4   7  10  14  22  42  73 106 137 167 201 243
#     4  10  19  31  46  65  87 111 140 175 217 261
#     4  10  22  36  51  70  89 111 140 175 215 260
#     4   9  17  30  47  67  91 119 150 181 212 249
#     4   8  11  16  28  48  76 108 138 168 204 246
#
# _framework density 16.362438000000001
#
# number of rings (size 3 to 8) (size 9 to 14) (size 15 to 20)
#    0.000    3.083    0.000    4.000    0.000    5.000 
#    0.000    0.417    0.000    2.500    0.000    0.583 
#    0.000    0.000    0.000   18.000    0.000  164.333 
#
# Total GULP energy -594787.606773 kJ/mol
# GULP energy per Si atom -12391.408474 kJ/mol
# Density = 1.632520 g / cm^3
# Si number density = 16.362438 Si / 1000 Ang^3
#
#
#
# Elastic Constant Matrix: (Units=GPa)
#
#
# Indices 1 2 3 4 5 6 
#
# 1 125.3332 34.9590 76.4950 0.0000 0.0000 0.0000
# 2 34.9590 36.2568 30.5701 0.0000 0.0000 0.0000
# 3 76.4950 30.5701 156.9797 0.0000 0.0000 0.0000
# 4 0.0000 0.0000 0.0000 8.4580 0.0000 0.0000
# 5 0.0000 0.0000 0.0000 0.0000 19.2773 0.0000
# 6 0.0000 0.0000 0.0000 0.0000 0.0000 24.0368
#
#
#
# Elastic Compliance Matrix: (Units=1/GPa)
#
#
# Indices 1 2 3 4 5 6 
#
# 1 0.013373 -0.008854 -0.004793 0.000000 0.000000 0.000000
# 2 -0.008854 0.038861 -0.003253 0.000000 0.000000 0.000000
# 3 -0.004793 -0.003253 0.009339 0.000000 0.000000 0.000000
# 4 0.000000 0.000000 0.000000 0.118231 0.000000 0.000000
# 5 0.000000 0.000000 0.000000 0.000000 0.051874 0.000000
# 6 0.000000 0.000000 0.000000 0.000000 0.000000 0.041603
#
#
# Mechanical properties :
#
#
# Convention : Reuss Voigt Hill
#
# Bulk Modulus (GPa) = 36.00481 66.95753 51.48117
# Shear Modulus (GPa) = 15.80583 22.12414 18.96499
#
# Velocity S-wave (km/s) = 3.11140 3.68112 3.40818
# Velocity P-wave (km/s) = 5.91270 7.68621 6.85704
#
# Compressibility (1/GPa) = 0.02777407
#
# Stress axis : x y z
#
# Youngs Moduli (GPa) = 74.77553 25.73279 107.07574
#
# Poissons Ratio (x) = 0.22783 0.51317
# Poissons Ratio (y) = 0.66205 0.34836
# Poissons Ratio (z) = 0.35837 0.08372
#
# Static dielectric constant tensor:
#      x y z
#    x 3.051510 0.000000 0.000000 
#    y 0.000000 2.753670 0.000000 
#    z 0.000000 0.000000 3.475720 
# 
# 
# High freq. dielectric constant tensor:
#      x y z
#    x 1.615760 0.000000 0.000000 
#    y 0.000000 1.593850 0.000000 
#    z 0.000000 0.000000 1.631220 
# 
# From -- ./inp_files/71733.got.cif
#   From: 2010.03.12/outbox.cif.g09.slc.cpg/sg65_36_cif.got.tgz:71733.got - 2010.04.10 20:52:16.
