data_PCOD8267380
_publ_section_title
;
Structure prediction by ZEFSAII (Michael W. Deem and Ramdas Pophale) SiO2 
 PCOD8267380
Probable space group: C M M M
;
_chemical_formula_sum "Si O2"
_cell_formula_units_Z 96
_cell_length_a 20.833277
_cell_length_b 30.801276
_cell_length_c 9.289673
_cell_angle_alpha 90.000000
_cell_angle_beta 90.000000
_cell_angle_gamma 90.000000
_cell_volume 5961.104340
_symmetry_space_group_name_H-M "C M M M"
_symmetry_group_IT_number 65
_symmetry_cell_setting 'orthorhombic'
loop_
_space_group_symop_operation_xyz
x,y,z
-x,-y,z
x,-y,-z
-x,y,-z
-x,-y,-z
x,y,-z
-x,y,z
x,-y,z
1/2+x,1/2+y,z
1/2-x,1/2-y,z
1/2+x,1/2-y,-z
1/2-x,1/2+y,-z
1/2-x,1/2-y,-z
1/2+x,1/2+y,-z
1/2-x,1/2+y,z
1/2+x,1/2-y,z
loop_
_atom_site_type_symbol
_atom_site_label
_atom_site_fract_x
_atom_site_fract_y
_atom_site_fract_z
Si Si1 0.758505 0.137062 0.161715
Si Si2 0.810769 0.952354 0.166429
Si Si3 0.798178 0.287694 0.332656
Si Si4 0.596120 0.339791 0.836689
Si Si5 0.570670 0.743978 0.662819
Si Si6 0.570878 0.576123 0.665653
O O1 0.763932 0.086777 0.218249
O O2 0.712071 0.165517 0.260056
O O3 0.827415 0.159445 0.169441
O O4 0.730931 0.137506 0.000000
O O5 0.876959 0.953559 0.254739
O O6 0.777943 0.000000 0.184469
O O7 0.828636 0.942921 0.000000
O O8 0.784241 0.293877 0.500000
O O9 0.750000 0.250000 0.272810
O O10 0.872296 0.277027 0.298386
O O11 0.571262 0.294870 0.774873
O O12 0.566575 0.377098 0.738923
O O13 0.571472 0.344993 0.000000
O O14 0.582027 0.726500 0.500000
O O15 0.500000 0.766550 0.674194
O O16 0.591786 0.581467 0.500000
O O17 0.500000 0.554540 0.676484
#
# Coordination Sequence:
#
# PCOD8267380 Si02
#       6
#    16  16  16  16  16  16
#     4   9  18  31  48  69  90 117 151 190 231 270
#     4   9  19  35  51  67  88 114 147 189 237 284
#     4  10  19  31  48  69  92 123 159 190 224 272
#     4  10  19  30  45  65  89 119 158 198 234 272
#     4  10  20  32  45  64  93 125 156 192 233 272
#     4  10  20  31  43  61  87 119 155 194 235 277
#
# _framework density 16.104399000000001
#
# number of rings (size 3 to 8) (size 9 to 14) (size 15 to 20)
#    0.000    2.333    1.667    2.500    0.000    8.000 
#    0.000    1.667    0.000    0.000    0.000    0.000 
#    0.000    0.667    0.000    8.333    0.000    0.000 
#
# Total GULP energy -594925.409183 kJ/mol
# GULP energy per Si atom -12394.279358 kJ/mol
# Density = 1.606774 g / cm^3
# Si number density = 16.104399 Si / 1000 Ang^3
#
#
#
# Elastic Constant Matrix: (Units=GPa)
#
#
# Indices 1 2 3 4 5 6 
#
# 1 73.7565 46.0790 23.4333 0.0000 0.0000 0.0000
# 2 46.0790 112.6935 39.5153 0.0000 0.0000 0.0000
# 3 23.4333 39.5153 65.1730 0.0000 0.0000 0.0000
# 4 0.0000 0.0000 0.0000 16.9816 0.0000 0.0000
# 5 0.0000 0.0000 0.0000 0.0000 15.8572 0.0000
# 6 0.0000 0.0000 0.0000 0.0000 0.0000 6.5738
#
#
#
# Elastic Compliance Matrix: (Units=1/GPa)
#
#
# Indices 1 2 3 4 5 6 
#
# 1 0.018558 -0.006666 -0.002631 0.000000 0.000000 0.000000
# 2 -0.006666 0.013664 -0.005888 0.000000 0.000000 0.000000
# 3 -0.002631 -0.005888 0.019860 0.000000 0.000000 0.000000
# 4 0.000000 0.000000 0.000000 0.058887 0.000000 0.000000
# 5 0.000000 0.000000 0.000000 0.000000 0.063063 0.000000
# 6 0.000000 0.000000 0.000000 0.000000 0.000000 0.152120
#
#
# Mechanical properties :
#
#
# Convention : Reuss Voigt Hill
#
# Bulk Modulus (GPa) = 46.05683 52.18646 49.12164
# Shear Modulus (GPa) = 13.74539 17.38889 15.56714
#
# Velocity S-wave (km/s) = 2.92467 3.28954 3.11245
# Velocity P-wave (km/s) = 6.32977 6.84861 6.59429
#
# Compressibility (1/GPa) = 0.02171231
#
# Stress axis : x y z
#
# Youngs Moduli (GPa) = 53.88372 73.18694 50.35321
#
# Poissons Ratio (x) = 0.48784 0.13250
# Poissons Ratio (y) = 0.35917 0.29647
# Poissons Ratio (z) = 0.14179 0.43091
#
# Static dielectric constant tensor:
#      x y z
#    x 2.910690 0.000000 0.000000 
#    y 0.000000 2.965960 0.000000 
#    z 0.000000 0.000000 3.118640 
# 
# 
# High freq. dielectric constant tensor:
#      x y z
#    x 1.586210 0.000000 0.000000 
#    y 0.000000 1.601150 0.000000 
#    z 0.000000 0.000000 1.626530 
# 
# From -- ./inp_files/14612.got.cif
#   From: 2010.03.12/outbox.cif.g09.slc.cpg/sg65_8_cif.got.tgz:14612.got - 2010.04.10 20:52:16.
