data_PCOD8267802
_publ_section_title
;
Structure prediction by ZEFSAII (Michael W. Deem and Ramdas Pophale) SiO2 
 PCOD8267802
Probable space group: C M M M
;
_chemical_formula_sum "Si O2"
_cell_formula_units_Z 104
_cell_length_a 14.700493
_cell_length_b 18.255824
_cell_length_c 21.949254
_cell_angle_alpha 90.000000
_cell_angle_beta 90.000000
_cell_angle_gamma 90.000000
_cell_volume 5890.512800
_symmetry_space_group_name_H-M "C M M M"
_symmetry_group_IT_number 65
_symmetry_cell_setting 'orthorhombic'
loop_
_space_group_symop_operation_xyz
x,y,z
-x,-y,z
x,-y,-z
-x,y,-z
-x,-y,-z
x,y,-z
-x,y,z
x,-y,z
1/2+x,1/2+y,z
1/2-x,1/2-y,z
1/2+x,1/2-y,-z
1/2-x,1/2+y,-z
1/2-x,1/2-y,-z
1/2+x,1/2+y,-z
1/2-x,1/2+y,z
1/2+x,1/2-y,z
loop_
_atom_site_type_symbol
_atom_site_label
_atom_site_fract_x
_atom_site_fract_y
_atom_site_fract_z
Si Si1 0.287316 0.412806 0.616241
Si Si2 0.264052 0.080997 0.930037
Si Si3 0.602781 0.412633 0.500000
Si Si4 0.900676 0.587070 0.568896
Si Si5 0.603505 0.415605 0.732137
Si Si6 0.395499 0.791168 0.070287
Si Si7 0.603911 0.356666 0.862327
O O1 0.291226 0.500000 0.614919
O O2 0.345861 0.382097 0.559699
O O3 0.182751 0.384080 0.610669
O O4 0.330212 0.384984 0.679508
O O5 0.337357 0.139778 0.906645
O O6 0.169391 0.085387 0.894282
O O7 0.305332 0.000000 0.919824
O O8 0.241407 0.095585 0.000000
O O9 0.603339 0.500000 0.500000
O O10 0.500000 0.382341 0.500000
O O11 0.886265 0.615610 0.500000
O O12 0.898625 0.500000 0.568271
O O13 0.000000 0.613981 0.593578
O O14 0.500000 0.410500 0.708260
O O15 0.626079 0.500000 0.749576
O O16 0.618049 0.362907 0.789937
O O17 0.500000 0.813636 0.077656
O O18 0.369477 0.723993 0.114006
O O19 0.373804 0.770099 0.000000
O O20 0.500000 0.375674 0.880181
#
# Coordination Sequence:
#
# PCOD8267802 Si02
#       7
#    16  16   8  16  16  16  16
#     4   9  14  21  32  48  72 105 146 192 240 286
#     4  10  20  32  49  75 103 128 156 197 250 299
#     4   9  14  18  27  45  69  99 139 186 232 280
#     4   8  12  18  29  46  68  95 133 184 240 292
#     4   9  17  27  38  54  80 117 159 200 242 290
#     4   9  18  33  53  75  98 127 164 204 244 288
#     4  10  19  31  47  67  95 132 170 204 240 288
#
# _framework density 17.655508999999999
#
# number of rings (size 3 to 8) (size 9 to 14) (size 15 to 20)
#    0.000    2.846    0.769    2.308    0.000    5.231 
#    0.000    2.308    0.000    0.923    0.000    2.154 
#    0.000    0.000    0.000    2.769    0.000    9.231 
#
# Total GULP energy -644539.093814 kJ/mol
# GULP energy per Si atom -12394.982573 kJ/mol
# Density = 1.761532 g / cm^3
# Si number density = 17.655509 Si / 1000 Ang^3
#
#
#
# Elastic Constant Matrix: (Units=GPa)
#
#
# Indices 1 2 3 4 5 6 
#
# 1 127.3912 37.5971 63.8960 0.0000 0.0000 0.0000
# 2 37.5971 53.1691 41.3544 0.0000 0.0000 0.0000
# 3 63.8960 41.3544 97.5930 0.0000 0.0000 0.0000
# 4 0.0000 0.0000 0.0000 4.3745 0.0000 0.0000
# 5 0.0000 0.0000 0.0000 0.0000 28.1633 0.0000
# 6 0.0000 0.0000 0.0000 0.0000 0.0000 14.6510
#
#
#
# Elastic Compliance Matrix: (Units=1/GPa)
#
#
# Indices 1 2 3 4 5 6 
#
# 1 0.012128 -0.003580 -0.006424 0.000000 0.000000 0.000000
# 2 -0.003580 0.029111 -0.009992 0.000000 0.000000 0.000000
# 3 -0.006424 -0.009992 0.018686 0.000000 0.000000 0.000000
# 4 0.000000 0.000000 0.000000 0.228596 0.000000 0.000000
# 5 0.000000 0.000000 0.000000 0.000000 0.035507 0.000000
# 6 0.000000 0.000000 0.000000 0.000000 0.000000 0.068255
#
#
# Mechanical properties :
#
#
# Convention : Reuss Voigt Hill
#
# Bulk Modulus (GPa) = 50.16347 62.64981 56.40664
# Shear Modulus (GPa) = 11.39162 18.45815 14.92488
#
# Velocity S-wave (km/s) = 2.54287 3.23687 2.91062
# Velocity P-wave (km/s) = 6.09062 7.03785 6.58130
#
# Compressibility (1/GPa) = 0.01993482
#
# Stress axis : x y z
#
# Youngs Moduli (GPa) = 82.45156 34.35151 53.51532
#
# Poissons Ratio (x) = 0.12298 0.34376
# Poissons Ratio (y) = 0.29517 0.53471
# Poissons Ratio (z) = 0.52964 0.34323
#
# Static dielectric constant tensor:
#      x y z
#    x 3.598000 0.000000 0.000000 
#    y 0.000000 2.838040 0.000000 
#    z 0.000000 0.000000 3.198360 
# 
# 
# High freq. dielectric constant tensor:
#      x y z
#    x 1.695880 0.000000 0.000000 
#    y 0.000000 1.631310 0.000000 
#    z 0.000000 0.000000 1.665430 
# 
# From -- ./inp_files/70116.got.cif
#   From: 2010.03.12/outbox.cif.g09.slc.cpg/sg65_36_cif.got.tgz:70116.got - 2010.04.10 20:52:16.
