data_PCOD8267405
_publ_section_title
;
Structure prediction by ZEFSAII (Michael W. Deem and Ramdas Pophale) SiO2 
 PCOD8267405
Probable space group: C M M M
;
_chemical_formula_sum "Si O2"
_cell_formula_units_Z 96
_cell_length_a 32.658561
_cell_length_b 18.382218
_cell_length_c 9.194405
_cell_angle_alpha 90.000000
_cell_angle_beta 90.000000
_cell_angle_gamma 90.000000
_cell_volume 5519.739564
_symmetry_space_group_name_H-M "C M M M"
_symmetry_group_IT_number 65
_symmetry_cell_setting 'orthorhombic'
loop_
_space_group_symop_operation_xyz
x,y,z
-x,-y,z
x,-y,-z
-x,y,-z
-x,-y,-z
x,y,-z
-x,y,z
x,-y,z
1/2+x,1/2+y,z
1/2-x,1/2-y,z
1/2+x,1/2-y,-z
1/2-x,1/2+y,-z
1/2-x,1/2-y,-z
1/2+x,1/2+y,-z
1/2-x,1/2+y,z
1/2+x,1/2-y,z
loop_
_atom_site_type_symbol
_atom_site_label
_atom_site_fract_x
_atom_site_fract_y
_atom_site_fract_z
Si Si1 0.758557 0.415789 0.330150
Si Si2 0.176000 0.082886 0.167614
Si Si3 0.382193 0.289533 0.167649
Si Si4 0.545849 0.778286 0.329190
Si Si5 0.406330 0.080822 0.666712
Si Si6 0.166044 0.645340 0.169971
O O1 0.759035 0.397827 0.500000
O O2 0.769196 0.500000 0.299470
O O3 0.714122 0.396315 0.268003
O O4 0.790853 0.364657 0.249362
O O5 0.137873 0.133693 0.211235
O O6 0.162046 0.000000 0.193985
O O7 0.188673 0.096135 0.000000
O O8 0.423862 0.280141 0.257710
O O9 0.349474 0.226598 0.203585
O O10 0.394799 0.286874 0.000000
O O11 0.547179 0.765661 0.500000
O O12 0.500000 0.766658 0.268677
O O13 0.559386 0.860515 0.288364
O O14 0.392491 0.093084 0.500000
O O15 0.366471 0.088099 0.766891
O O16 0.424829 0.000000 0.688572
O O17 0.171801 0.630407 0.000000
#
# Coordination Sequence:
#
# PCOD8267405 Si02
#       6
#    16  16  16  16  16  16
#     4  10  20  32  46  67  96 128 162 197 230 266
#     4   9  18  34  54  72  91 118 153 192 235 282
#     4   9  19  34  51  72  95 120 152 191 235 280
#     4   9  18  32  50  72  96 123 155 189 229 279
#     4   9  17  29  45  66  94 127 162 199 233 264
#     4  10  19  30  45  66  95 129 162 195 230 269
#
# _framework density 17.392125
#
# number of rings (size 3 to 8) (size 9 to 14) (size 15 to 20)
#    0.000    2.667    0.000    1.500    0.000    6.000 
#    0.000    5.000    0.000    0.500    0.000    8.167 
#    0.000    0.000    0.000    0.000    0.000    0.000 
#
# Total GULP energy -595267.119904 kJ/mol
# GULP energy per Si atom -12401.398331 kJ/mol
# Density = 1.735254 g / cm^3
# Si number density = 17.392125 Si / 1000 Ang^3
#
#
#
# Elastic Constant Matrix: (Units=GPa)
#
#
# Indices 1 2 3 4 5 6 
#
# 1 138.7917 70.2600 61.3065 0.0000 0.0000 0.0000
# 2 70.2600 80.4384 38.1167 0.0000 0.0000 0.0000
# 3 61.3065 38.1167 73.4309 0.0000 0.0000 0.0000
# 4 0.0000 0.0000 0.0000 21.8674 0.0000 0.0000
# 5 0.0000 0.0000 0.0000 0.0000 29.0180 0.0000
# 6 0.0000 0.0000 0.0000 0.0000 0.0000 18.1526
#
#
#
# Elastic Compliance Matrix: (Units=1/GPa)
#
#
# Indices 1 2 3 4 5 6 
#
# 1 0.015810 -0.010019 -0.007999 0.000000 0.000000 0.000000
# 2 -0.010019 0.022837 -0.003489 0.000000 0.000000 0.000000
# 3 -0.007999 -0.003489 0.022108 0.000000 0.000000 0.000000
# 4 0.000000 0.000000 0.000000 0.045730 0.000000 0.000000
# 5 0.000000 0.000000 0.000000 0.000000 0.034461 0.000000
# 6 0.000000 0.000000 0.000000 0.000000 0.000000 0.055089
#
#
# Mechanical properties :
#
#
# Convention : Reuss Voigt Hill
#
# Bulk Modulus (GPa) = 56.37040 70.22527 63.29783
# Shear Modulus (GPa) = 20.41122 22.00612 21.20867
#
# Velocity S-wave (km/s) = 3.42949 3.56095 3.49584
# Velocity P-wave (km/s) = 6.94000 7.57446 7.26416
#
# Compressibility (1/GPa) = 0.01773981
#
# Stress axis : x y z
#
# Youngs Moduli (GPa) = 63.24955 43.78894 45.23321
#
# Poissons Ratio (x) = 0.43874 0.36182
# Poissons Ratio (y) = 0.63372 0.15783
# Poissons Ratio (z) = 0.50593 0.15279
#
# Static dielectric constant tensor:
#      x y z
#    x 3.149770 0.000000 0.000000 
#    y 0.000000 3.208580 0.000000 
#    z 0.000000 0.000000 3.265990 
# 
# 
# High freq. dielectric constant tensor:
#      x y z
#    x 1.658650 0.000000 0.000000 
#    y 0.000000 1.660220 0.000000 
#    z 0.000000 0.000000 1.674040 
# 
# From -- ./inp_files/16320.got.cif
#   From: 2010.03.12/outbox.cif.g09.slc.cpg/sg65_9_cif.got.tgz:16320.got - 2010.04.10 20:52:16.
