data_PCOD8267620
_publ_section_title
;
Structure prediction by ZEFSAII (Michael W. Deem and Ramdas Pophale) SiO2 
 PCOD8267620
Probable space group: C M M M
;
_chemical_formula_sum "Si O2"
_cell_formula_units_Z 104
_cell_length_a 21.814246
_cell_length_b 14.041724
_cell_length_c 19.326182
_cell_angle_alpha 90.000000
_cell_angle_beta 90.000000
_cell_angle_gamma 90.000000
_cell_volume 5919.795495
_symmetry_space_group_name_H-M "C M M M"
_symmetry_group_IT_number 65
_symmetry_cell_setting 'orthorhombic'
loop_
_space_group_symop_operation_xyz
x,y,z
-x,-y,z
x,-y,-z
-x,y,-z
-x,-y,-z
x,y,-z
-x,y,z
x,-y,z
1/2+x,1/2+y,z
1/2-x,1/2-y,z
1/2+x,1/2-y,-z
1/2-x,1/2+y,-z
1/2-x,1/2-y,-z
1/2+x,1/2+y,-z
1/2-x,1/2+y,z
1/2+x,1/2-y,z
loop_
_atom_site_type_symbol
_atom_site_label
_atom_site_fract_x
_atom_site_fract_y
_atom_site_fract_z
Si Si1 0.112037 0.292794 0.840560
Si Si2 0.712418 0.109155 0.076931
Si Si3 0.719427 0.607201 0.710249
Si Si4 0.847188 0.294738 0.310279
Si Si5 0.070435 0.391039 0.420264
Si Si6 0.834644 0.104408 0.140372
Si Si7 0.000000 0.612997 0.080534
O O1 0.177827 0.327189 0.867290
O O2 0.110047 0.306801 0.757923
O O3 0.109689 0.179787 0.858177
O O4 0.058718 0.347406 0.879854
O O5 0.785787 0.126084 0.079640
O O6 0.696511 0.000000 0.093790
O O7 0.689851 0.135887 0.000000
O O8 0.707231 0.500000 0.680763
O O9 0.789358 0.635337 0.695538
O O10 0.673778 0.685327 0.676764
O O11 0.707748 0.609466 0.791716
O O12 0.887336 0.321846 0.375975
O O13 0.088768 0.377670 0.500000
O O14 0.081043 0.500000 0.397329
O O15 0.000000 0.362339 0.408489
O O16 0.864820 0.000000 0.131754
O O17 0.000000 0.500000 0.086331
O O18 0.000000 0.644718 0.000000
#
# Coordination Sequence:
#
# PCOD8267620 Si02
#       7
#    16  16  16  16  16  16   8
#     4  11  21  34  52  74  98 133 174 208 249 301
#     4  10  19  30  48  74 101 130 165 207 256 304
#     4   9  17  31  50  77 112 138 161 206 257 298
#     4  10  19  31  54  82 102 133 176 207 245 303
#     4   9  19  35  54  78 108 139 169 208 256 294
#     4   9  18  33  51  73 101 129 165 213 258 298
#     4  11  26  42  51  67 100 136 167 208 263 313
#
# _framework density 17.568173999999999
#
# number of rings (size 3 to 8) (size 9 to 14) (size 15 to 20)
#    0.000    2.231    1.538    2.308    1.077    4.923 
#    0.000    1.923    0.000    2.308    0.000    1.077 
#    0.000    0.000    0.000    0.000    0.000    0.000 
#
# Total GULP energy -644614.275533 kJ/mol
# GULP energy per Si atom -12396.428376 kJ/mol
# Density = 1.752819 g / cm^3
# Si number density = 17.568174 Si / 1000 Ang^3
#
#
#
# Elastic Constant Matrix: (Units=GPa)
#
#
# Indices 1 2 3 4 5 6 
#
# 1 68.7520 49.6659 40.8068 0.0000 0.0000 0.0000
# 2 49.6659 118.1128 44.1294 0.0000 0.0000 0.0000
# 3 40.8068 44.1294 73.1393 0.0000 0.0000 0.0000
# 4 0.0000 0.0000 0.0000 20.8899 0.0000 0.0000
# 5 0.0000 0.0000 0.0000 0.0000 27.8309 0.0000
# 6 0.0000 0.0000 0.0000 0.0000 0.0000 27.3716
#
#
#
# Elastic Compliance Matrix: (Units=1/GPa)
#
#
# Indices 1 2 3 4 5 6 
#
# 1 0.025557 -0.006996 -0.010038 0.000000 0.000000 0.000000
# 2 -0.006996 0.012846 -0.003847 0.000000 0.000000 0.000000
# 3 -0.010038 -0.003847 0.021594 0.000000 0.000000 0.000000
# 4 0.000000 0.000000 0.000000 0.047870 0.000000 0.000000
# 5 0.000000 0.000000 0.000000 0.000000 0.035931 0.000000
# 6 0.000000 0.000000 0.000000 0.000000 0.000000 0.036534
#
#
# Mechanical properties :
#
#
# Convention : Reuss Voigt Hill
#
# Bulk Modulus (GPa) = 54.84133 58.80092 56.82113
# Shear Modulus (GPa) = 21.91321 23.57858 22.74590
#
# Velocity S-wave (km/s) = 3.53558 3.66747 3.60213
# Velocity P-wave (km/s) = 6.92468 7.17472 7.05081
#
# Compressibility (1/GPa) = 0.01823442
#
# Stress axis : x y z
#
# Youngs Moduli (GPa) = 39.12854 77.84669 46.30880
#
# Poissons Ratio (x) = 0.54463 0.46483
# Poissons Ratio (y) = 0.27375 0.17816
# Poissons Ratio (z) = 0.39276 0.29949
#
# Static dielectric constant tensor:
#      x y z
#    x 2.979470 0.000000 0.000000 
#    y 0.000000 3.591870 0.000000 
#    z 0.000000 0.000000 3.081010 
# 
# 
# High freq. dielectric constant tensor:
#      x y z
#    x 1.652420 0.000000 0.000000 
#    y 0.000000 1.690210 0.000000 
#    z 0.000000 0.000000 1.662450 
# 
# From -- ./inp_files/55873.got.cif
#   From: 2010.03.12/outbox.cif.g09.slc.cpg/sg65_28_cif.got.tgz:55873.got - 2010.04.10 20:52:16.
