data_PCOD8267692
_publ_section_title
;
Structure prediction by ZEFSAII (Michael W. Deem and Ramdas Pophale) SiO2 
 PCOD8267692
Probable space group: C M M M
;
_chemical_formula_sum "Si O2"
_cell_formula_units_Z 112
_cell_length_a 16.378798
_cell_length_b 18.942126
_cell_length_c 21.309868
_cell_angle_alpha 90.000000
_cell_angle_beta 90.000000
_cell_angle_gamma 90.000000
_cell_volume 6611.370681
_symmetry_space_group_name_H-M "C M M M"
_symmetry_group_IT_number 65
_symmetry_cell_setting 'orthorhombic'
loop_
_space_group_symop_operation_xyz
x,y,z
-x,-y,z
x,-y,-z
-x,y,-z
-x,-y,-z
x,y,-z
-x,y,z
x,-y,z
1/2+x,1/2+y,z
1/2-x,1/2-y,z
1/2+x,1/2-y,-z
1/2-x,1/2+y,-z
1/2-x,1/2-y,-z
1/2+x,1/2+y,-z
1/2-x,1/2+y,z
1/2+x,1/2-y,z
loop_
_atom_site_type_symbol
_atom_site_label
_atom_site_fract_x
_atom_site_fract_y
_atom_site_fract_z
Si Si1 0.341200 0.422818 0.331320
Si Si2 0.091598 0.206183 0.269368
Si Si3 0.804493 0.422073 0.767459
Si Si4 0.710890 0.918000 0.571847
Si Si5 0.594071 0.149680 0.668656
Si Si6 0.906434 0.080097 0.926023
Si Si7 0.291692 0.679895 0.846331
O O1 0.383859 0.500000 0.333131
O O2 0.406915 0.364792 0.311263
O O3 0.269595 0.423367 0.280736
O O4 0.300586 0.404981 0.398551
O O5 0.116059 0.269488 0.315583
O O6 0.154202 0.204804 0.212219
O O7 0.000000 0.216081 0.242969
O O8 0.821700 0.500000 0.794710
O O9 0.884199 0.396185 0.730178
O O10 0.782145 0.370953 0.825054
O O11 0.714095 0.893789 0.500000
O O12 0.643400 0.871605 0.606867
O O13 0.686447 0.000000 0.579105
O O14 0.500000 0.138371 0.652901
O O15 0.847826 0.137878 0.895183
O O16 0.000000 0.096086 0.906488
O O17 0.883895 0.000000 0.904136
O O18 0.895877 0.086338 0.000000
O O19 0.250000 0.750000 0.876732
#
# Coordination Sequence:
#
# PCOD8267692 Si02
#       7
#    16  16  16  16  16  16  16
#     4   8  16  30  48  67  91 119 154 202 249 297
#     4  10  20  32  47  70 100 130 162 200 246 298
#     4   9  17  29  45  68  93 124 164 202 242 293
#     4   9  18  32  50  70  90 118 160 206 250 302
#     4  10  19  31  45  65  96 131 160 200 252 297
#     4   9  19  36  56  78 106 139 174 214 257 297
#     4  11  19  31  51  76 104 137 166 205 248 296
#
# _framework density 16.94051
#
# number of rings (size 3 to 8) (size 9 to 14) (size 15 to 20)
#    0.000    2.571    1.429    2.571    0.000    2.571 
#    0.000    2.143    0.000    1.286    0.000    2.000 
#    0.000    0.000    0.000    9.429    0.000    0.000 
#
# Total GULP energy -694209.398057 kJ/mol
# GULP energy per Si atom -12396.596394 kJ/mol
# Density = 1.690195 g / cm^3
# Si number density = 16.940510 Si / 1000 Ang^3
#
#
#
# Elastic Constant Matrix: (Units=GPa)
#
#
# Indices 1 2 3 4 5 6 
#
# 1 43.1746 38.4811 24.4102 0.0000 0.0000 0.0000
# 2 38.4811 121.6988 36.9186 0.0000 0.0000 0.0000
# 3 24.4102 36.9186 57.5251 0.0000 0.0000 0.0000
# 4 0.0000 0.0000 0.0000 23.3615 0.0000 0.0000
# 5 0.0000 0.0000 0.0000 0.0000 20.2465 0.0000
# 6 0.0000 0.0000 0.0000 0.0000 0.0000 27.3563
#
#
#
# Elastic Compliance Matrix: (Units=1/GPa)
#
#
# Indices 1 2 3 4 5 6 
#
# 1 0.036357 -0.008464 -0.009996 0.000000 0.000000 0.000000
# 2 -0.008464 0.012174 -0.004221 0.000000 0.000000 0.000000
# 3 -0.009996 -0.004221 0.024335 0.000000 0.000000 0.000000
# 4 0.000000 0.000000 0.000000 0.042805 0.000000 0.000000
# 5 0.000000 0.000000 0.000000 0.000000 0.049391 0.000000
# 6 0.000000 0.000000 0.000000 0.000000 0.000000 0.036555
#
#
# Mechanical properties :
#
#
# Convention : Reuss Voigt Hill
#
# Bulk Modulus (GPa) = 36.35921 46.89092 41.62506
# Shear Modulus (GPa) = 19.52008 22.36543 20.94275
#
# Velocity S-wave (km/s) = 3.39820 3.63744 3.51985
# Velocity P-wave (km/s) = 6.07507 6.73655 6.41434
#
# Compressibility (1/GPa) = 0.02750335
#
# Stress axis : x y z
#
# Youngs Moduli (GPa) = 27.50516 82.14329 41.09373
#
# Poissons Ratio (x) = 0.69523 0.41076
# Poissons Ratio (y) = 0.23279 0.17348
# Poissons Ratio (z) = 0.27494 0.34677
#
# Static dielectric constant tensor:
#      x y z
#    x 3.036620 0.000000 0.000000 
#    y 0.000000 3.474440 0.000000 
#    z 0.000000 0.000000 2.967900 
# 
# 
# High freq. dielectric constant tensor:
#      x y z
#    x 1.637490 0.000000 0.000000 
#    y 0.000000 1.667730 0.000000 
#    z 0.000000 0.000000 1.624790 
# 
# From -- ./inp_files/63917.got.cif
#   From: 2010.03.12/outbox.cif.g09.slc.cpg/sg65_32_cif.got.tgz:63917.got - 2010.04.10 20:52:16.
