data_PCOD8267517
_publ_section_title
;
Structure prediction by ZEFSAII (Michael W. Deem and Ramdas Pophale) SiO2 
 PCOD8267517
Probable space group: C M M M
;
_chemical_formula_sum "Si O2"
_cell_formula_units_Z 104
_cell_length_a 8.880611
_cell_length_b 28.382750
_cell_length_c 20.543176
_cell_angle_alpha 90.000000
_cell_angle_beta 90.000000
_cell_angle_gamma 90.000000
_cell_volume 5178.034095
_symmetry_space_group_name_H-M "C M M M"
_symmetry_group_IT_number 65
_symmetry_cell_setting 'orthorhombic'
loop_
_space_group_symop_operation_xyz
x,y,z
-x,-y,z
x,-y,-z
-x,y,-z
-x,-y,-z
x,y,-z
-x,y,z
x,-y,z
1/2+x,1/2+y,z
1/2-x,1/2-y,z
1/2+x,1/2-y,-z
1/2-x,1/2+y,-z
1/2-x,1/2-y,-z
1/2+x,1/2+y,-z
1/2-x,1/2+y,z
1/2+x,1/2-y,z
loop_
_atom_site_type_symbol
_atom_site_label
_atom_site_fract_x
_atom_site_fract_y
_atom_site_fract_z
Si Si1 0.335491 0.411211 0.500000
Si Si2 0.177419 0.108176 0.881586
Si Si3 0.327889 0.446046 0.751899
Si Si4 0.673133 0.944303 0.000000
Si Si5 0.833920 0.197739 0.500000
Si Si6 0.823409 0.295059 0.367523
Si Si7 0.824785 0.299007 0.924145
Si Si8 0.677186 0.098881 0.632543
O O1 0.500000 0.436835 0.500000
O O2 0.365259 0.356683 0.500000
O O3 0.246274 0.423236 0.433651
O O4 0.219816 0.086166 0.812334
O O5 0.246710 0.160274 0.882527
O O6 0.000000 0.110884 0.893302
O O7 0.248215 0.075414 0.936268
O O8 0.500000 0.436125 0.731541
O O9 0.304744 0.500000 0.772906
O O10 0.221740 0.435087 0.691144
O O11 0.500000 0.927709 0.000000
O O12 0.689157 0.000000 0.000000
O O13 0.728823 0.212633 0.440908
O O14 0.000000 0.222280 0.500000
O O15 0.750000 0.250000 0.328044
O O16 0.767837 0.347852 0.347926
O O17 0.000000 0.290558 0.359003
O O18 0.750000 0.250000 0.903596
O O19 0.000000 0.296704 0.907128
O O20 0.796897 0.309878 0.000000
O O21 0.500000 0.099367 0.621677
#
# Coordination Sequence:
#
# PCOD8267517 Si02
#       8
#     8  16  16   8   8  16  16  16
#     4   9  17  32  57  84 112 148 189 238 295 354
#     4  11  22  38  62  90 122 160 201 246 297 353
#     4  10  23  43  64  86 114 151 195 241 296 363
#     4  11  23  37  56  87 124 159 199 249 301 349
#     4   9  16  26  43  70 104 142 180 217 267 328
#     4  10  19  30  46  72 106 142 180 222 270 328
#     4  10  20  35  58  89 127 166 207 250 294 346
#     4  10  21  37  58  85 115 149 191 243 299 355
#
# _framework density 20.084844
#
# number of rings (size 3 to 8) (size 9 to 14) (size 15 to 20)
#    0.000    1.923    0.769    3.231    0.000    7.077 
#    0.000    1.154    0.000    4.154    0.000    0.000 
#    0.000    0.000    0.000    0.000    0.000    0.000 
#
# Total GULP energy -644562.434200 kJ/mol
# GULP energy per Si atom -12395.431427 kJ/mol
# Density = 2.003913 g / cm^3
# Si number density = 20.084844 Si / 1000 Ang^3
#
#
#
# Elastic Constant Matrix: (Units=GPa)
#
#
# Indices 1 2 3 4 5 6 
#
# 1 106.2372 46.4612 52.8425 0.0000 0.0000 0.0000
# 2 46.4612 105.7632 50.3468 0.0000 0.0000 0.0000
# 3 52.8425 50.3468 106.3570 0.0000 0.0000 0.0000
# 4 0.0000 0.0000 0.0000 29.1283 0.0000 0.0000
# 5 0.0000 0.0000 0.0000 0.0000 15.8847 0.0000
# 6 0.0000 0.0000 0.0000 0.0000 0.0000 33.6807
#
#
#
# Elastic Compliance Matrix: (Units=1/GPa)
#
#
# Indices 1 2 3 4 5 6 
#
# 1 0.013447 -0.003520 -0.005015 0.000000 0.000000 0.000000
# 2 -0.003520 0.013127 -0.004465 0.000000 0.000000 0.000000
# 3 -0.005015 -0.004465 0.014007 0.000000 0.000000 0.000000
# 4 0.000000 0.000000 0.000000 0.034331 0.000000 0.000000
# 5 0.000000 0.000000 0.000000 0.000000 0.062954 0.000000
# 6 0.000000 0.000000 0.000000 0.000000 0.000000 0.029691
#
#
# Mechanical properties :
#
#
# Convention : Reuss Voigt Hill
#
# Bulk Modulus (GPa) = 68.57916 68.62873 68.60394
# Shear Modulus (GPa) = 25.19962 26.98586 26.09274
#
# Velocity S-wave (km/s) = 3.54596 3.66948 3.60825
# Velocity P-wave (km/s) = 7.14030 7.22475 7.18265
#
# Compressibility (1/GPa) = 0.01458169
#
# Stress axis : x y z
#
# Youngs Moduli (GPa) = 74.36867 76.17937 71.39076
#
# Poissons Ratio (x) = 0.26814 0.35799
# Poissons Ratio (y) = 0.26177 0.31877
# Poissons Ratio (z) = 0.37293 0.34015
#
# Static dielectric constant tensor:
#      x y z
#    x 3.777120 0.000000 0.000000 
#    y 0.000000 3.889570 0.000000 
#    z 0.000000 0.000000 3.442840 
# 
# 
# High freq. dielectric constant tensor:
#      x y z
#    x 1.795130 0.000000 0.000000 
#    y 0.000000 1.796860 0.000000 
#    z 0.000000 0.000000 1.755000 
# 
# From -- ./inp_files/60474.got.cif
#   From: 2010.03.12/outbox.cif.g09.slc.cpg/sg65_31_cif.got.tgz:60474.got - 2010.04.10 20:52:16.
