data_PCOD8267925
_publ_section_title
;
Structure prediction by ZEFSAII (Michael W. Deem and Ramdas Pophale) SiO2 
 PCOD8267925
Probable space group: C M M M
;
_chemical_formula_sum "Si O2"
_cell_formula_units_Z 104
_cell_length_a 8.696437
_cell_length_b 23.400170
_cell_length_c 28.279992
_cell_angle_alpha 90.000000
_cell_angle_beta 90.000000
_cell_angle_gamma 90.000000
_cell_volume 5754.924759
_symmetry_space_group_name_H-M "C M M M"
_symmetry_group_IT_number 65
_symmetry_cell_setting 'orthorhombic'
loop_
_space_group_symop_operation_xyz
x,y,z
-x,-y,z
x,-y,-z
-x,y,-z
-x,-y,-z
x,y,-z
-x,y,z
x,-y,z
1/2+x,1/2+y,z
1/2-x,1/2-y,z
1/2+x,1/2-y,-z
1/2-x,1/2+y,-z
1/2-x,1/2-y,-z
1/2+x,1/2+y,-z
1/2-x,1/2+y,z
1/2+x,1/2-y,z
loop_
_atom_site_type_symbol
_atom_site_label
_atom_site_fract_x
_atom_site_fract_y
_atom_site_fract_z
Si Si1 0.320191 0.187400 0.448809
Si Si2 0.318599 0.381798 0.734490
Si Si3 0.182983 0.187675 0.826974
Si Si4 0.318148 0.000000 0.746736
Si Si5 0.318687 0.312579 0.644016
Si Si6 0.817337 0.066802 0.000000
Si Si7 0.183431 0.389014 0.095040
Si Si8 0.317948 0.000000 0.851658
O O1 0.288976 0.156818 0.500000
O O2 0.500000 0.192219 0.438951
O O3 0.250000 0.250000 0.451416
O O4 0.241937 0.155324 0.403919
O O5 0.500000 0.388543 0.734989
O O6 0.262469 0.353791 0.784038
O O7 0.244243 0.442857 0.722932
O O8 0.260306 0.343679 0.691043
O O9 0.250000 0.250000 0.816530
O O10 0.250493 0.165624 0.876986
O O11 0.000000 0.191109 0.829959
O O12 0.500000 0.000000 0.745062
O O13 0.250076 0.000000 0.799530
O O14 0.500000 0.309953 0.642447
O O15 0.250000 0.250000 0.645881
O O16 0.753367 0.104032 0.956738
O O17 0.000000 0.067461 0.000000
O O18 0.758604 0.000000 0.000000
O O19 0.244829 0.444367 0.122501
O O20 0.000000 0.384479 0.092129
O O21 0.500000 0.000000 0.851356
#
# Coordination Sequence:
#
# PCOD8267925 Si02
#       8
#    16  16  16   8  16   8  16   8
#     4   9  16  26  42  66  97 133 173 217 264 312
#     4  10  22  37  53  77 109 142 176 217 265 313
#     4  11  23  39  58  81 109 145 182 218 261 313
#     4  11  21  35  56  82 106 137 177 218 263 311
#     4  10  19  31  48  72 104 141 179 217 261 312
#     4  11  23  37  56  87 118 143 177 218 264 316
#     4  11  21  38  60  84 113 143 178 220 265 313
#     4   9  18  32  54  83 110 135 170 215 262 307
#
# _framework density 18.071479
#
# number of rings (size 3 to 8) (size 9 to 14) (size 15 to 20)
#    0.000    1.769    2.308    3.692    0.000    3.077 
#    0.000    0.385    0.000    0.000    0.000    0.538 
#    0.000    4.308    0.000    0.000    0.000    0.000 
#
# Total GULP energy -644565.658012 kJ/mol
# GULP energy per Si atom -12395.493423 kJ/mol
# Density = 1.803035 g / cm^3
# Si number density = 18.071479 Si / 1000 Ang^3
#
#
#
# Elastic Constant Matrix: (Units=GPa)
#
#
# Indices 1 2 3 4 5 6 
#
# 1 68.9254 30.0732 44.1559 0.0000 0.0000 0.0000
# 2 30.0732 88.4632 43.8575 0.0000 0.0000 0.0000
# 3 44.1559 43.8575 151.0747 0.0000 0.0000 0.0000
# 4 0.0000 0.0000 0.0000 15.4676 0.0000 0.0000
# 5 0.0000 0.0000 0.0000 0.0000 29.9747 0.0000
# 6 0.0000 0.0000 0.0000 0.0000 0.0000 26.3381
#
#
#
# Elastic Compliance Matrix: (Units=1/GPa)
#
#
# Indices 1 2 3 4 5 6 
#
# 1 0.019198 -0.004374 -0.004341 0.000000 0.000000 0.000000
# 2 -0.004374 0.014201 -0.002844 0.000000 0.000000 0.000000
# 3 -0.004341 -0.002844 0.008714 0.000000 0.000000 0.000000
# 4 0.000000 0.000000 0.000000 0.064651 0.000000 0.000000
# 5 0.000000 0.000000 0.000000 0.000000 0.033361 0.000000
# 6 0.000000 0.000000 0.000000 0.000000 0.000000 0.037968
#
#
# Mechanical properties :
#
#
# Convention : Reuss Voigt Hill
#
# Bulk Modulus (GPa) = 52.64882 60.51517 56.58200
# Shear Modulus (GPa) = 24.09125 27.04787 25.56956
#
# Velocity S-wave (km/s) = 3.65514 3.87294 3.76561
# Velocity P-wave (km/s) = 6.85640 7.31839 7.09116
#
# Compressibility (1/GPa) = 0.01899378
#
# Stress axis : x y z
#
# Youngs Moduli (GPa) = 52.08829 70.41665 114.76022
#
# Poissons Ratio (x) = 0.30801 0.49822
# Poissons Ratio (y) = 0.22784 0.32640
# Poissons Ratio (z) = 0.22614 0.20028
#
# Static dielectric constant tensor:
#      x y z
#    x 3.300690 0.000000 0.000000 
#    y 0.000000 3.225700 0.000000 
#    z 0.000000 0.000000 4.023990 
# 
# 
# High freq. dielectric constant tensor:
#      x y z
#    x 1.706360 0.000000 0.000000 
#    y 0.000000 1.665000 0.000000 
#    z 0.000000 0.000000 1.714740 
# 
# From -- ./inp_files/76952.got.cif
#   From: 2010.03.12/outbox.cif.g09.slc.cpg/sg65_39_cif.got.tgz:76952.got - 2010.04.10 20:52:16.
