data_PCOD8267388
_publ_section_title
;
Structure prediction by ZEFSAII (Michael W. Deem and Ramdas Pophale) SiO2 
 PCOD8267388
Probable space group: C M M M
;
_chemical_formula_sum "Si O2"
_cell_formula_units_Z 96
_cell_length_a 37.102844
_cell_length_b 14.637399
_cell_length_c 11.578206
_cell_angle_alpha 90.000000
_cell_angle_beta 90.000000
_cell_angle_gamma 90.000000
_cell_volume 6287.997843
_symmetry_space_group_name_H-M "C M M M"
_symmetry_group_IT_number 65
_symmetry_cell_setting 'orthorhombic'
loop_
_space_group_symop_operation_xyz
x,y,z
-x,-y,z
x,-y,-z
-x,y,-z
-x,-y,-z
x,y,-z
-x,y,z
x,-y,z
1/2+x,1/2+y,z
1/2-x,1/2-y,z
1/2+x,1/2-y,-z
1/2-x,1/2+y,-z
1/2-x,1/2-y,-z
1/2+x,1/2+y,-z
1/2-x,1/2+y,z
1/2+x,1/2-y,z
loop_
_atom_site_type_symbol
_atom_site_label
_atom_site_fract_x
_atom_site_fract_y
_atom_site_fract_z
Si Si1 0.355118 0.392223 0.000000
Si Si2 0.194203 0.600350 0.632884
Si Si3 0.890830 0.892918 0.241123
Si Si4 0.830356 0.209110 0.367133
Si Si5 0.539745 0.391855 0.370808
Si Si6 0.225205 0.159609 0.000000
Si Si7 0.231970 0.898379 0.750430
O O1 0.379851 0.367530 0.889489
O O2 0.344435 0.500000 0.000000
O O3 0.318946 0.329575 0.000000
O O4 0.205286 0.595493 0.500000
O O5 0.179560 0.500000 0.673344
O O6 0.165366 0.681236 0.654222
O O7 0.229755 0.629931 0.700500
O O8 0.867002 0.838697 0.332543
O O9 0.931624 0.861683 0.272213
O O10 0.885162 0.000000 0.263189
O O11 0.821576 0.187659 0.500000
O O12 0.797900 0.172567 0.289507
O O13 0.550414 0.356501 0.500000
O O14 0.500000 0.353631 0.336946
O O15 0.538228 0.500000 0.374586
O O16 0.250000 0.250000 0.000000
O O17 0.235548 0.102033 0.111925
O O18 0.220835 0.000000 0.709661
#
# Coordination Sequence:
#
# PCOD8267388 Si02
#       7
#     8  16  16  16  16   8  16
#     4  10  20  34  45  60  88 120 151 192 233 267
#     4   9  19  34  47  60  82 110 142 184 230 271
#     4  10  19  30  45  65  91 119 148 181 221 263
#     4  11  20  29  45  66  85 109 145 182 222 273
#     4   8  14  26  44  66  93 122 148 175 210 256
#     4  12  22  32  46  59  79 117 159 191 227 267
#     4  11  21  32  45  62  84 109 142 185 230 273
#
# _framework density 15.267181000000001
#
# number of rings (size 3 to 8) (size 9 to 14) (size 15 to 20)
#    0.000    2.000    1.667    4.250    0.000    4.000 
#    0.000    0.417    0.000    2.500    0.000    0.000 
#    0.000    0.667    0.000    6.167    0.000    1.833 
#
# Total GULP energy -594834.375322 kJ/mol
# GULP energy per Si atom -12392.382819 kJ/mol
# Density = 1.523243 g / cm^3
# Si number density = 15.267181 Si / 1000 Ang^3
#
#
#
# Elastic Constant Matrix: (Units=GPa)
#
#
# Indices 1 2 3 4 5 6 
#
# 1 92.5569 35.9142 41.6556 0.0000 0.0000 0.0000
# 2 35.9142 58.2048 23.9607 0.0000 0.0000 0.0000
# 3 41.6556 23.9607 59.1682 0.0000 0.0000 0.0000
# 4 0.0000 0.0000 0.0000 15.9370 0.0000 0.0000
# 5 0.0000 0.0000 0.0000 0.0000 -197.6915 0.0000
# 6 0.0000 0.0000 0.0000 0.0000 0.0000 12.2037
#
#
#
# Elastic Compliance Matrix: (Units=1/GPa)
#
#
# Indices 1 2 3 4 5 6 
#
# 1 0.017937 -0.007043 -0.009776 0.000000 0.000000 0.000000
# 2 -0.007043 0.023384 -0.004511 0.000000 0.000000 0.000000
# 3 -0.009776 -0.004511 0.025610 0.000000 0.000000 0.000000
# 4 0.000000 0.000000 0.000000 0.062747 0.000000 0.000000
# 5 0.000000 0.000000 0.000000 0.000000 -0.005058 0.000000
# 6 0.000000 0.000000 0.000000 0.000000 0.000000 0.081942
#
#
# Mechanical properties :
#
#
# Convention : Reuss Voigt Hill
#
# Bulk Modulus (GPa) = 41.20165 45.88786 43.54476
# Shear Modulus (GPa) = 19.43181 -26.68351 -3.62585
#
# Velocity S-wave (km/s) = 3.57148 -4.18517 -1.54275
# Velocity P-wave (km/s) = 6.63724 2.60146 5.04086
#
# Compressibility (1/GPa) = 0.02427087
#
# Stress axis : x y z
#
# Youngs Moduli (GPa) = 55.75189 42.76514 39.04757
#
# Poissons Ratio (x) = 0.30121 0.38171
# Poissons Ratio (y) = 0.39267 0.17614
# Poissons Ratio (z) = 0.54500 0.19290
#
# Static dielectric constant tensor:
#      x y z
#    x 3.021610 0.000000 0.000000 
#    y 0.000000 2.912970 0.000000 
#    z 0.000000 0.000000 3.071960 
# 
# 
# High freq. dielectric constant tensor:
#      x y z
#    x 1.560110 0.000000 0.000000 
#    y 0.000000 1.559490 0.000000 
#    z 0.000000 0.000000 1.594860 
# 
# From -- ./inp_files/33897.got.cif
#   From: 2010.03.12/outbox.cif.g09.slc.cpg/sg65_17_cif.got.tgz:33897.got - 2010.04.10 20:52:16.
