data_PCOD8267173
_publ_section_title
;
Structure prediction by ZEFSAII (Michael W. Deem and Ramdas Pophale) SiO2 
 PCOD8267173
Probable space group: C M M M
;
_chemical_formula_sum "Si O2"
_cell_formula_units_Z 104
_cell_length_a 27.193589
_cell_length_b 9.136698
_cell_length_c 26.571399
_cell_angle_alpha 90.000000
_cell_angle_beta 90.000000
_cell_angle_gamma 90.000000
_cell_volume 6601.919439
_symmetry_space_group_name_H-M "C M M M"
_symmetry_group_IT_number 65
_symmetry_cell_setting 'orthorhombic'
loop_
_space_group_symop_operation_xyz
x,y,z
-x,-y,z
x,-y,-z
-x,y,-z
-x,-y,-z
x,y,-z
-x,y,z
x,-y,z
1/2+x,1/2+y,z
1/2-x,1/2-y,z
1/2+x,1/2-y,-z
1/2-x,1/2+y,-z
1/2-x,1/2-y,-z
1/2+x,1/2+y,-z
1/2-x,1/2+y,z
1/2+x,1/2-y,z
loop_
_atom_site_type_symbol
_atom_site_label
_atom_site_fract_x
_atom_site_fract_y
_atom_site_fract_z
Si Si1 0.555310 0.327375 0.943478
Si Si2 0.800627 0.169128 0.500000
Si Si3 0.698360 0.329536 0.391524
Si Si4 0.299373 0.170623 0.795414
Si Si5 0.604820 0.833257 0.855899
Si Si6 0.556573 0.829368 0.753274
Si Si7 0.856101 0.826926 0.292330
O O1 0.500000 0.273577 0.930602
O O2 0.558097 0.500000 0.939040
O O3 0.594380 0.261028 0.905085
O O4 0.569324 0.277567 0.000000
O O5 0.750000 0.250000 0.500000
O O6 0.826734 0.208967 0.446491
O O7 0.788000 0.000000 0.500000
O O8 0.710421 0.500000 0.387332
O O9 0.750000 0.250000 0.383151
O O10 0.659499 0.284517 0.348907
O O11 0.250000 0.250000 0.813678
O O12 0.338656 0.189805 0.840112
O O13 0.318432 0.247407 0.744933
O O14 0.289756 0.000000 0.783882
O O15 0.569465 0.782637 0.810275
O O16 0.593736 0.000000 0.869831
O O17 0.500000 0.795725 0.741902
O O18 0.588786 0.733868 0.714854
O O19 0.569796 0.000000 0.745921
O O20 0.855004 0.000000 0.282210
#
# Coordination Sequence:
#
# PCOD8267173 Si02
#       7
#    16   8  16  16  16  16  16
#     4   9  18  31  46  67  94 119 143 174 213 256
#     4   8  14  26  40  56  81 112 143 175 214 255
#     4   9  17  27  41  61  86 115 145 178 214 255
#     4  10  20  33  47  65  90 119 150 183 218 257
#     4   9  18  31  47  67  89 113 143 178 214 255
#     4   9  18  32  47  64  89 118 146 179 220 262
#     4  10  19  29  43  66  91 116 147 180 217 261
#
# _framework density 15.752995
#
# number of rings (size 3 to 8) (size 9 to 14) (size 15 to 20)
#    0.000    2.769    0.000    3.231    0.000    7.077 
#    0.000    0.769    0.000    0.462    0.000    0.538 
#    0.000    4.308    0.000    0.000    0.000    0.000 
#
# Total GULP energy -644520.261264 kJ/mol
# GULP energy per Si atom -12394.620409 kJ/mol
# Density = 1.571714 g / cm^3
# Si number density = 15.752995 Si / 1000 Ang^3
#
#
#
# Elastic Constant Matrix: (Units=GPa)
#
#
# Indices 1 2 3 4 5 6 
#
# 1 88.4534 41.9611 57.2128 0.0000 0.0000 0.0000
# 2 41.9611 62.1830 50.0861 0.0000 0.0000 0.0000
# 3 57.2128 50.0861 130.0589 0.0000 0.0000 0.0000
# 4 0.0000 0.0000 0.0000 21.7563 0.0000 0.0000
# 5 0.0000 0.0000 0.0000 0.0000 21.0457 0.0000
# 6 0.0000 0.0000 0.0000 0.0000 0.0000 26.8010
#
#
#
# Elastic Compliance Matrix: (Units=1/GPa)
#
#
# Indices 1 2 3 4 5 6 
#
# 1 0.018509 -0.008599 -0.004831 0.000000 0.000000 0.000000
# 2 -0.008599 0.027308 -0.006734 0.000000 0.000000 0.000000
# 3 -0.004831 -0.006734 0.012407 0.000000 0.000000 0.000000
# 4 0.000000 0.000000 0.000000 0.045964 0.000000 0.000000
# 5 0.000000 0.000000 0.000000 0.000000 0.047516 0.000000
# 6 0.000000 0.000000 0.000000 0.000000 0.000000 0.037312
#
#
# Mechanical properties :
#
#
# Convention : Reuss Voigt Hill
#
# Bulk Modulus (GPa) = 55.87424 64.35725 60.11575
# Shear Modulus (GPa) = 21.24875 22.68295 21.96585
#
# Velocity S-wave (km/s) = 3.67668 3.79874 3.73821
# Velocity P-wave (km/s) = 7.31915 7.75778 7.54166
#
# Compressibility (1/GPa) = 0.01789734
#
# Stress axis : x y z
#
# Youngs Moduli (GPa) = 54.02724 36.61944 80.59988
#
# Poissons Ratio (x) = 0.31489 0.38935
# Poissons Ratio (y) = 0.46458 0.54273
# Poissons Ratio (z) = 0.26099 0.24658
#
# Static dielectric constant tensor:
#      x y z
#    x 2.885420 0.000000 0.000000 
#    y 0.000000 2.990460 0.000000 
#    z 0.000000 0.000000 3.222860 
# 
# 
# High freq. dielectric constant tensor:
#      x y z
#    x 1.581710 0.000000 0.000000 
#    y 0.000000 1.611280 0.000000 
#    z 0.000000 0.000000 1.601910 
# 
# From -- ./inp_files/76031.got.cif
#   From: 2010.03.12/outbox.cif.g09.slc.cpg/sg65_39_cif.got.tgz:76031.got - 2010.04.10 20:52:16.
