data_PCOD8267710
_publ_section_title
;
Structure prediction by ZEFSAII (Michael W. Deem and Ramdas Pophale) SiO2 
 PCOD8267710
Probable space group: C M M M
;
_chemical_formula_sum "Si O2"
_cell_formula_units_Z 80
_cell_length_a 8.763314
_cell_length_b 33.827126
_cell_length_c 18.556328
_cell_angle_alpha 90.000000
_cell_angle_beta 90.000000
_cell_angle_gamma 90.000000
_cell_volume 5500.795691
_symmetry_space_group_name_H-M "C M M M"
_symmetry_group_IT_number 65
_symmetry_cell_setting 'orthorhombic'
loop_
_space_group_symop_operation_xyz
x,y,z
-x,-y,z
x,-y,-z
-x,y,-z
-x,-y,-z
x,y,-z
-x,y,z
x,-y,z
1/2+x,1/2+y,z
1/2-x,1/2-y,z
1/2+x,1/2-y,-z
1/2-x,1/2+y,-z
1/2-x,1/2-y,-z
1/2+x,1/2+y,-z
1/2-x,1/2+y,z
1/2+x,1/2-y,z
loop_
_atom_site_type_symbol
_atom_site_label
_atom_site_fract_x
_atom_site_fract_y
_atom_site_fract_z
Si Si1 0.671909 0.500000 0.585566
Si Si2 0.679594 0.292807 0.923987
Si Si3 0.180479 0.706844 0.500000
Si Si4 0.680089 0.340693 0.630434
Si Si5 0.322176 0.080656 0.584682
Si Si6 0.679615 0.292918 0.768373
O O1 0.500000 0.500000 0.616459
O O2 0.669585 0.500000 0.500000
O O3 0.761194 0.538602 0.613120
O O4 0.500000 0.288037 0.923214
O O5 0.750000 0.250000 0.926209
O O6 0.730043 0.311608 0.846859
O O7 0.727998 0.315073 0.000000
O O8 0.250000 0.750000 0.500000
O O9 0.232630 0.683727 0.570193
O O10 0.000000 0.710017 0.500000
O O11 0.500000 0.337117 0.617557
O O12 0.730122 0.386175 0.627998
O O13 0.732634 0.323594 0.707544
O O14 0.290353 0.086107 0.500000
O O15 0.500000 0.083972 0.602262
O O16 0.500000 0.286894 0.764642
O O17 0.750000 0.250000 0.753947
#
# Coordination Sequence:
#
# PCOD8267710 Si02
#       6
#     8  16   8  16  16  16
#     4   9  17  29  47  67  85 105 130 163 205 252
#     4   8  13  23  39  57  77 100 128 163 203 246
#     4  12  24  36  46  57  74 103 144 184 218 250
#     4  11  21  32  45  60  81 108 140 177 212 247
#     4  10  19  31  46  64  84 106 135 171 207 249
#     4   9  18  29  41  59  80 106 139 174 210 247
#
# _framework density 14.543350999999999
#
# number of rings (size 3 to 8) (size 9 to 14) (size 15 to 20)
#    0.000    2.300    1.000    3.000    0.000    5.200 
#    0.000    0.000    0.000    0.000    0.000    0.000 
#    0.000    0.000    0.000    0.900    0.000   21.200 
#
# Total GULP energy -495572.912592 kJ/mol
# GULP energy per Si atom -12389.322815 kJ/mol
# Density = 1.451025 g / cm^3
# Si number density = 14.543351 Si / 1000 Ang^3
#
#
#
# Elastic Constant Matrix: (Units=GPa)
#
#
# Indices 1 2 3 4 5 6 
#
# 1 58.5277 29.2253 34.6090 0.0000 0.0000 0.0000
# 2 29.2253 93.8512 49.6286 0.0000 0.0000 0.0000
# 3 34.6090 49.6286 123.3002 0.0000 0.0000 0.0000
# 4 0.0000 0.0000 0.0000 -35.7260 0.0000 0.0000
# 5 0.0000 0.0000 0.0000 0.0000 6.1288 0.0000
# 6 0.0000 0.0000 0.0000 0.0000 0.0000 24.0966
#
#
#
# Elastic Compliance Matrix: (Units=1/GPa)
#
#
# Indices 1 2 3 4 5 6 
#
# 1 0.021907 -0.004536 -0.004324 0.000000 0.000000 0.000000
# 2 -0.004536 0.014475 -0.004553 0.000000 0.000000 0.000000
# 3 -0.004324 -0.004553 0.011157 0.000000 0.000000 0.000000
# 4 0.000000 0.000000 0.000000 -0.027991 0.000000 0.000000
# 5 0.000000 0.000000 0.000000 0.000000 0.163165 0.000000
# 6 0.000000 0.000000 0.000000 0.000000 0.000000 0.041500
#
#
# Mechanical properties :
#
#
# Convention : Reuss Voigt Hill
#
# Bulk Modulus (GPa) = 48.27570 55.84499 52.06035
# Shear Modulus (GPa) = 19.38416 9.71429 14.54922
#
# Velocity S-wave (km/s) = 3.65479 2.58728 3.16635
# Velocity P-wave (km/s) = 7.14677 6.88533 7.01727
#
# Compressibility (1/GPa) = 0.02071435
#
# Stress axis : x y z
#
# Youngs Moduli (GPa) = 45.64671 69.08299 89.63353
#
# Poissons Ratio (x) = 0.31334 0.38753
# Poissons Ratio (y) = 0.20704 0.40812
# Poissons Ratio (z) = 0.19736 0.31455
#
# Static dielectric constant tensor:
#      x y z
#    x 3.241730 0.000000 0.000000 
#    y 0.000000 2.717670 0.000000 
#    z 0.000000 0.000000 3.357390 
# 
# 
# High freq. dielectric constant tensor:
#      x y z
#    x 1.569580 0.000000 0.000000 
#    y 0.000000 1.524460 0.000000 
#    z 0.000000 0.000000 1.544330 
# 
# From -- ./inp_files/50226.got.cif
#   From: 2010.03.12/outbox.cif.g09.slc.cpg/sg65_26_cif.got.tgz:50226.got - 2010.04.10 20:52:16.
