data_PCOD8267153
_publ_section_title
;
Structure prediction by ZEFSAII (Michael W. Deem and Ramdas Pophale) SiO2 
 PCOD8267153
Probable space group: C M M M
;
_chemical_formula_sum "Si O2"
_cell_formula_units_Z 120
_cell_length_a 17.587280
_cell_length_b 24.211767
_cell_length_c 17.570534
_cell_angle_alpha 90.000000
_cell_angle_beta 90.000000
_cell_angle_gamma 90.000000
_cell_volume 7481.869423
_symmetry_space_group_name_H-M "C M M M"
_symmetry_group_IT_number 65
_symmetry_cell_setting 'orthorhombic'
loop_
_space_group_symop_operation_xyz
x,y,z
-x,-y,z
x,-y,-z
-x,y,-z
-x,-y,-z
x,y,-z
-x,y,z
x,-y,z
1/2+x,1/2+y,z
1/2-x,1/2-y,z
1/2+x,1/2-y,-z
1/2-x,1/2+y,-z
1/2-x,1/2-y,-z
1/2+x,1/2+y,-z
1/2-x,1/2+y,z
1/2+x,1/2-y,z
loop_
_atom_site_type_symbol
_atom_site_label
_atom_site_fract_x
_atom_site_fract_y
_atom_site_fract_z
Si Si1 0.085706 0.342335 0.916184
Si Si2 0.839807 0.887266 0.910425
Si Si3 0.310593 0.062279 0.135046
Si Si4 0.824434 0.623614 0.712289
Si Si5 0.413733 0.778787 0.230243
Si Si6 0.500000 0.561724 0.909941
Si Si7 0.297949 0.304005 0.217610
Si Si8 0.913700 0.564864 0.587181
O O1 0.139847 0.395505 0.914309
O O2 0.108903 0.294592 0.856966
O O3 0.000000 0.362420 0.897583
O O4 0.091226 0.315901 0.000000
O O5 0.777513 0.934248 0.891170
O O6 0.815596 0.834234 0.861578
O O7 0.923525 0.906913 0.883175
O O8 0.839544 0.872719 0.000000
O O9 0.324301 0.076586 0.223433
O O10 0.338621 0.000000 0.120755
O O11 0.890790 0.668667 0.720075
O O12 0.743699 0.656377 0.720228
O O13 0.845001 0.594841 0.632679
O O14 0.500000 0.765739 0.243218
O O15 0.374301 0.721075 0.254554
O O16 0.500000 0.500000 0.874804
O O17 0.500000 0.557330 0.000000
O O18 0.250000 0.250000 0.196031
O O19 0.904149 0.583067 0.500000
O O20 0.901334 0.500000 0.596405
O O21 0.000000 0.580007 0.614948
#
# Coordination Sequence:
#
# PCOD8267153 Si02
#       8
#    16  16  16  16  16   8  16  16
#     4   9  18  30  41  59  86 114 152 199 240 278
#     4  10  20  31  44  62  83 112 155 201 249 294
#     4  10  19  29  43  61  83 118 154 184 224 278
#     4   9  17  31  45  64  94 120 145 177 218 265
#     4   9  17  29  46  62  81 117 156 191 232 271
#     4   9  18  32  46  60  82 110 145 199 258 303
#     4   9  19  31  44  64  88 117 153 195 231 276
#     4   9  17  29  49  78 105 126 148 174 206 250
#
# _framework density 16.038772000000002
#
# number of rings (size 3 to 8) (size 9 to 14) (size 15 to 20)
#    0.000    2.733    0.000    2.800    0.933    3.200 
#    0.000    0.667    0.000    3.600    0.000    0.000 
#    0.000    0.000    0.000    1.467    2.667    0.000 
#
# Total GULP energy -743376.037650 kJ/mol
# GULP energy per Si atom -12389.600627 kJ/mol
# Density = 1.600227 g / cm^3
# Si number density = 16.038772 Si / 1000 Ang^3
#
#
#
# Elastic Constant Matrix: (Units=GPa)
#
#
# Indices 1 2 3 4 5 6 
#
# 1 96.0887 43.6359 32.0034 0.0000 0.0000 0.0000
# 2 43.6359 65.7740 24.7778 0.0000 0.0000 0.0000
# 3 32.0034 24.7778 66.4722 0.0000 0.0000 0.0000
# 4 0.0000 0.0000 0.0000 15.3102 0.0000 0.0000
# 5 0.0000 0.0000 0.0000 0.0000 18.7059 0.0000
# 6 0.0000 0.0000 0.0000 0.0000 0.0000 20.0836
#
#
#
# Elastic Compliance Matrix: (Units=1/GPa)
#
#
# Indices 1 2 3 4 5 6 
#
# 1 0.015898 -0.008916 -0.004331 0.000000 0.000000 0.000000
# 2 -0.008916 0.022687 -0.004164 0.000000 0.000000 0.000000
# 3 -0.004331 -0.004164 0.018681 0.000000 0.000000 0.000000
# 4 0.000000 0.000000 0.000000 0.065316 0.000000 0.000000
# 5 0.000000 0.000000 0.000000 0.000000 0.053459 0.000000
# 6 0.000000 0.000000 0.000000 0.000000 0.000000 0.049792
#
#
# Mechanical properties :
#
#
# Convention : Reuss Voigt Hill
#
# Bulk Modulus (GPa) = 44.55345 47.68545 46.11945
# Shear Modulus (GPa) = 18.64717 19.34780 18.99749
#
# Velocity S-wave (km/s) = 3.41344 3.47697 3.44535
# Velocity P-wave (km/s) = 6.58592 6.77606 6.68167
#
# Compressibility (1/GPa) = 0.02244495
#
# Stress axis : x y z
#
# Youngs Moduli (GPa) = 62.89949 44.07773 53.52954
#
# Poissons Ratio (x) = 0.39299 0.23183
# Poissons Ratio (y) = 0.56080 0.22291
# Poissons Ratio (z) = 0.27242 0.18355
#
# Static dielectric constant tensor:
#      x y z
#    x 3.375820 0.000000 0.000000 
#    y 0.000000 3.122240 0.000000 
#    z 0.000000 0.000000 2.704290 
# 
# 
# High freq. dielectric constant tensor:
#      x y z
#    x 1.624860 0.000000 0.000000 
#    y 0.000000 1.612820 0.000000 
#    z 0.000000 0.000000 1.572610 
# 
# From -- ./inp_files/55144.got.cif
#   From: 2010.03.12/outbox.cif.g09.slc.cpg/sg65_28_cif.got.tgz:55144.got - 2010.04.10 20:52:16.
