data_PCOD8267328
_publ_section_title
;
Structure prediction by ZEFSAII (Michael W. Deem and Ramdas Pophale) SiO2 
 PCOD8267328
Probable space group: C M M M
;
_chemical_formula_sum "Si O2"
_cell_formula_units_Z 112
_cell_length_a 9.198199
_cell_length_b 30.729218
_cell_length_c 25.173401
_cell_angle_alpha 90.000000
_cell_angle_beta 90.000000
_cell_angle_gamma 90.000000
_cell_volume 7115.348950
_symmetry_space_group_name_H-M "C M M M"
_symmetry_group_IT_number 65
_symmetry_cell_setting 'orthorhombic'
loop_
_space_group_symop_operation_xyz
x,y,z
-x,-y,z
x,-y,-z
-x,y,-z
-x,-y,-z
x,y,-z
-x,y,z
x,-y,z
1/2+x,1/2+y,z
1/2-x,1/2-y,z
1/2+x,1/2-y,-z
1/2-x,1/2+y,-z
1/2-x,1/2-y,-z
1/2+x,1/2+y,-z
1/2-x,1/2+y,z
1/2+x,1/2-y,z
loop_
_atom_site_type_symbol
_atom_site_label
_atom_site_fract_x
_atom_site_fract_y
_atom_site_fract_z
Si Si1 0.328825 0.630824 0.560727
Si Si2 0.830478 0.630844 0.939716
Si Si3 0.331393 0.704819 0.638731
Si Si4 0.336572 0.047506 0.563098
Si Si5 0.826904 0.703520 0.856325
Si Si6 0.329751 0.704251 0.243881
Si Si7 0.164275 0.952419 0.936890
O O1 0.279128 0.638863 0.500000
O O2 0.500000 0.626688 0.565436
O O3 0.269729 0.670718 0.595889
O O4 0.264421 0.586134 0.584735
O O5 0.787950 0.673206 0.906097
O O6 0.758459 0.587557 0.914300
O O7 0.000000 0.621968 0.937825
O O8 0.776845 0.639329 0.000000
O O9 0.500000 0.714677 0.628696
O O10 0.250000 0.750000 0.630949
O O11 0.309395 0.683468 0.697543
O O12 0.331819 0.047504 0.500000
O O13 0.500000 0.055807 0.583287
O O14 0.281957 0.000000 0.583651
O O15 0.750000 0.750000 0.866174
O O16 0.755563 0.679886 0.804039
O O17 0.000000 0.709269 0.849128
O O18 0.500000 0.709199 0.229660
O O19 0.250000 0.750000 0.246802
O O20 0.000000 0.945698 0.917188
O O21 0.221275 0.000000 0.916871
O O22 0.172416 0.951740 0.000000
#
# Coordination Sequence:
#
# PCOD8267328 Si02
#       7
#    16  16  16  16  16  16  16
#     4   9  17  28  41  60  87 114 139 167 201 245
#     4   9  18  30  42  60  87 115 140 166 200 246
#     4   9  18  30  43  61  84 110 140 173 206 241
#     4   8  14  25  40  58  81 108 138 171 204 240
#     4  10  19  30  44  62  84 109 140 175 207 242
#     4   9  16  28  45  61  78 102 136 177 214 244
#     4   8  14  25  41  61  84 109 138 171 203 237
#
# _framework density 15.74062
#
# number of rings (size 3 to 8) (size 9 to 14) (size 15 to 20)
#    0.000    3.143    0.000    2.571    0.000    3.429 
#    0.000    2.857    0.000    0.000    0.000    1.000 
#    0.000    1.143    0.000    0.000    0.000    0.000 
#
# Total GULP energy -693774.920372 kJ/mol
# GULP energy per Si atom -12388.837864 kJ/mol
# Density = 1.570479 g / cm^3
# Si number density = 15.740620 Si / 1000 Ang^3
#
#
#
# Elastic Constant Matrix: (Units=GPa)
#
#
# Indices 1 2 3 4 5 6 
#
# 1 60.8284 49.6975 36.1175 0.0000 0.0000 0.0000
# 2 49.6975 120.4642 57.6924 0.0000 0.0000 0.0000
# 3 36.1175 57.6924 74.7176 0.0000 0.0000 0.0000
# 4 0.0000 0.0000 0.0000 2.1307 0.0000 0.0000
# 5 0.0000 0.0000 0.0000 0.0000 17.3737 0.0000
# 6 0.0000 0.0000 0.0000 0.0000 0.0000 27.9717
#
#
#
# Elastic Compliance Matrix: (Units=1/GPa)
#
#
# Indices 1 2 3 4 5 6 
#
# 1 0.026951 -0.007743 -0.007049 0.000000 0.000000 0.000000
# 2 -0.007743 0.015396 -0.008146 0.000000 0.000000 0.000000
# 3 -0.007049 -0.008146 0.023081 0.000000 0.000000 0.000000
# 4 0.000000 0.000000 0.000000 0.469334 0.000000 0.000000
# 5 0.000000 0.000000 0.000000 0.000000 0.057558 0.000000
# 6 0.000000 0.000000 0.000000 0.000000 0.000000 0.035750
#
#
# Mechanical properties :
#
#
# Convention : Reuss Voigt Hill
#
# Bulk Modulus (GPa) = 51.14242 60.33611 55.73927
# Shear Modulus (GPa) = 7.34792 16.99541 12.17167
#
# Velocity S-wave (km/s) = 2.16293 3.28947 2.78378
# Velocity P-wave (km/s) = 6.22888 7.26926 6.76909
#
# Compressibility (1/GPa) = 0.01955324
#
# Stress axis : x y z
#
# Youngs Moduli (GPa) = 37.10417 64.94994 43.32596
#
# Poissons Ratio (x) = 0.50288 0.30543
# Poissons Ratio (y) = 0.28728 0.35291
# Poissons Ratio (z) = 0.26157 0.52905
#
# Static dielectric constant tensor:
#      x y z
#    x 3.075990 0.000000 0.000000 
#    y 0.000000 3.214360 0.000000 
#    z 0.000000 0.000000 3.283130 
# 
# 
# High freq. dielectric constant tensor:
#      x y z
#    x 1.608000 0.000000 0.000000 
#    y 0.000000 1.592900 0.000000 
#    z 0.000000 0.000000 1.573700 
# 
# From -- ./inp_files/69148.got.cif
#   From: 2010.03.12/outbox.cif.g09.slc.cpg/sg65_35_cif.got.tgz:69148.got - 2010.04.10 20:52:16.
