data_PCOD8267253
_publ_section_title
;
Structure prediction by ZEFSAII (Michael W. Deem and Ramdas Pophale) SiO2 
 PCOD8267253
Probable space group: C M M M
;
_chemical_formula_sum "Si O2"
_cell_formula_units_Z 80
_cell_length_a 9.127505
_cell_length_b 28.545931
_cell_length_c 18.178913
_cell_angle_alpha 90.000000
_cell_angle_beta 90.000000
_cell_angle_gamma 90.000000
_cell_volume 4736.572645
_symmetry_space_group_name_H-M "C M M M"
_symmetry_group_IT_number 65
_symmetry_cell_setting 'orthorhombic'
loop_
_space_group_symop_operation_xyz
x,y,z
-x,-y,z
x,-y,-z
-x,y,-z
-x,-y,-z
x,y,-z
-x,y,z
x,-y,z
1/2+x,1/2+y,z
1/2-x,1/2-y,z
1/2+x,1/2-y,-z
1/2-x,1/2+y,-z
1/2-x,1/2-y,-z
1/2+x,1/2+y,-z
1/2-x,1/2+y,z
1/2+x,1/2-y,z
loop_
_atom_site_type_symbol
_atom_site_label
_atom_site_fract_x
_atom_site_fract_y
_atom_site_fract_z
Si Si1 0.672515 0.199907 0.339789
Si Si2 0.173428 0.885921 0.284828
Si Si3 0.833174 0.297468 0.500000
Si Si4 0.171032 0.053788 0.143962
Si Si5 0.326054 0.552485 0.418841
Si Si6 0.335050 0.055672 0.000000
O O1 0.500000 0.205457 0.323824
O O2 0.750000 0.250000 0.330584
O O3 0.744808 0.164012 0.282112
O O4 0.702865 0.177422 0.422028
O O5 0.217866 0.914869 0.212885
O O6 0.235529 0.914182 0.355243
O O7 0.000000 0.877699 0.289482
O O8 0.750000 0.250000 0.500000
O O9 0.000000 0.282340 0.500000
O O10 0.254541 0.074165 0.072985
O O11 0.000000 0.057696 0.127373
O O12 0.214622 0.000000 0.160988
O O13 0.277472 0.570870 0.500000
O O14 0.500000 0.551028 0.413607
O O15 0.264637 0.500000 0.406600
O O16 0.500000 0.074932 0.000000
O O17 0.329242 0.000000 0.000000
#
# Coordination Sequence:
#
# PCOD8267253 Si02
#       6
#    16  16   8  16  16   8
#     4  10  20  34  49  66  90 121 158 203 251 295
#     4  10  19  29  46  72  97 124 160 199 240 284
#     4   8  16  30  46  62  81 110 149 195 244 289
#     4   9  17  30  48  71 101 133 162 193 232 281
#     4   8  14  25  41  63  92 125 161 198 231 267
#     4   9  17  29  47  71  98 127 160 197 237 281
#
# _framework density 16.889849999999999
#
# number of rings (size 3 to 8) (size 9 to 14) (size 15 to 20)
#    0.000    2.900    0.000    2.100    1.400    5.200 
#    0.000    0.000    0.000    1.800    0.000    2.100 
#    0.000    0.000    0.000    0.000    0.000    0.000 
#
# Total GULP energy -495678.230752 kJ/mol
# GULP energy per Si atom -12391.955769 kJ/mol
# Density = 1.685141 g / cm^3
# Si number density = 16.889850 Si / 1000 Ang^3
#
#
#
# Elastic Constant Matrix: (Units=GPa)
#
#
# Indices 1 2 3 4 5 6 
#
# 1 55.8154 38.7721 52.4315 0.0000 0.0000 0.0000
# 2 38.7721 84.4570 65.6978 0.0000 0.0000 0.0000
# 3 52.4315 65.6978 133.1453 0.0000 0.0000 0.0000
# 4 0.0000 0.0000 0.0000 14.9844 0.0000 0.0000
# 5 0.0000 0.0000 0.0000 0.0000 18.1903 0.0000
# 6 0.0000 0.0000 0.0000 0.0000 0.0000 21.1669
#
#
#
# Elastic Compliance Matrix: (Units=1/GPa)
#
#
# Indices 1 2 3 4 5 6 
#
# 1 0.031279 -0.007754 -0.008491 0.000000 0.000000 0.000000
# 2 -0.007754 0.021138 -0.007377 0.000000 0.000000 0.000000
# 3 -0.008491 -0.007377 0.014494 0.000000 0.000000 0.000000
# 4 0.000000 0.000000 0.000000 0.066736 0.000000 0.000000
# 5 0.000000 0.000000 0.000000 0.000000 0.054974 0.000000
# 6 0.000000 0.000000 0.000000 0.000000 0.000000 0.047244
#
#
# Mechanical properties :
#
#
# Convention : Reuss Voigt Hill
#
# Bulk Modulus (GPa) = 50.84586 65.24673 58.04630
# Shear Modulus (GPa) = 17.26123 18.63605 17.94864
#
# Velocity S-wave (km/s) = 3.20032 3.32533 3.26343
# Velocity P-wave (km/s) = 6.62011 7.31152 6.97439
#
# Compressibility (1/GPa) = 0.01966728
#
# Stress axis : x y z
#
# Youngs Moduli (GPa) = 31.97013 47.30734 68.99253
#
# Poissons Ratio (x) = 0.36683 0.58584
# Poissons Ratio (y) = 0.24790 0.50894
# Poissons Ratio (z) = 0.27147 0.34897
#
# Static dielectric constant tensor:
#      x y z
#    x 2.943240 0.000000 0.000000 
#    y 0.000000 2.929880 0.000000 
#    z 0.000000 0.000000 3.483990 
# 
# 
# High freq. dielectric constant tensor:
#      x y z
#    x 1.634840 0.000000 0.000000 
#    y 0.000000 1.625930 0.000000 
#    z 0.000000 0.000000 1.643670 
# 
# From -- ./inp_files/50167.got.cif
#   From: 2010.03.12/outbox.cif.g09.slc.cpg/sg65_26_cif.got.tgz:50167.got - 2010.04.10 20:52:16.
