data_PCOD8267399
_publ_section_title
;
Structure prediction by ZEFSAII (Michael W. Deem and Ramdas Pophale) SiO2 
 PCOD8267399
Probable space group: C M M M
;
_chemical_formula_sum "Si O2"
_cell_formula_units_Z 104
_cell_length_a 27.146426
_cell_length_b 9.016600
_cell_length_c 26.495644
_cell_angle_alpha 90.000000
_cell_angle_beta 90.000000
_cell_angle_gamma 90.000000
_cell_volume 6485.298102
_symmetry_space_group_name_H-M "C M M M"
_symmetry_group_IT_number 65
_symmetry_cell_setting 'orthorhombic'
loop_
_space_group_symop_operation_xyz
x,y,z
-x,-y,z
x,-y,-z
-x,y,-z
-x,-y,-z
x,y,-z
-x,y,z
x,-y,z
1/2+x,1/2+y,z
1/2-x,1/2-y,z
1/2+x,1/2-y,-z
1/2-x,1/2+y,-z
1/2-x,1/2-y,-z
1/2+x,1/2+y,-z
1/2-x,1/2+y,z
1/2+x,1/2-y,z
loop_
_atom_site_type_symbol
_atom_site_label
_atom_site_fract_x
_atom_site_fract_y
_atom_site_fract_z
Si Si1 0.200284 0.673187 0.746705
Si Si2 0.898236 0.327082 0.804324
Si Si3 0.942929 0.174673 0.898904
Si Si4 0.199169 0.826426 0.555809
Si Si5 0.149873 0.172057 0.343922
Si Si6 0.941596 0.333261 0.000000
Si Si7 0.445084 0.670021 0.286465
O O1 0.209652 0.500000 0.740844
O O2 0.250000 0.750000 0.766527
O O3 0.157546 0.707467 0.787201
O O4 0.185823 0.735458 0.691960
O O5 0.906987 0.500000 0.814221
O O6 0.908738 0.237292 0.854886
O O7 0.935798 0.274607 0.761222
O O8 0.923171 0.247121 0.950514
O O9 0.000000 0.216099 0.888508
O O10 0.935904 0.000000 0.903084
O O11 0.180843 0.775388 0.500000
O O12 0.250000 0.750000 0.570535
O O13 0.158711 0.781935 0.597820
O O14 0.209180 0.000000 0.556319
O O15 0.092848 0.207494 0.331489
O O16 0.162192 0.000000 0.334890
O O17 0.920016 0.500000 0.000000
O O18 0.000000 0.336356 0.000000
O O19 0.500000 0.699413 0.307206
O O20 0.438729 0.500000 0.268425
#
# Coordination Sequence:
#
# PCOD8267399 Si02
#       7
#    16  16  16  16  16   8  16
#     4  10  20  32  46  65  89 115 144 179 218 262
#     4  10  20  31  44  65  90 116 147 181 218 259
#     4  10  19  30  45  66  93 123 153 184 218 258
#     4   9  17  28  42  61  84 109 138 174 217 263
#     4   9  17  29  45  63  85 114 144 176 215 259
#     4   9  17  29  45  65  90 121 154 187 223 259
#     4   9  17  29  44  62  85 114 147 179 213 256
#
# _framework density 16.036272
#
# number of rings (size 3 to 8) (size 9 to 14) (size 15 to 20)
#    0.000    2.538    0.000    2.538    0.000    7.692 
#    0.000    0.000    0.000    0.462    0.000    3.769 
#    0.000    0.000    0.000   11.538    0.000   12.000 
#
# Total GULP energy -644773.989241 kJ/mol
# GULP energy per Si atom -12399.499793 kJ/mol
# Density = 1.599977 g / cm^3
# Si number density = 16.036272 Si / 1000 Ang^3
#
#
#
# Elastic Constant Matrix: (Units=GPa)
#
#
# Indices 1 2 3 4 5 6 
#
# 1 92.6816 40.3109 58.0666 0.0000 0.0000 0.0000
# 2 40.3109 74.1090 52.0410 0.0000 0.0000 0.0000
# 3 58.0666 52.0410 135.3040 0.0000 0.0000 0.0000
# 4 0.0000 0.0000 0.0000 23.9996 0.0000 0.0000
# 5 0.0000 0.0000 0.0000 0.0000 21.1933 0.0000
# 6 0.0000 0.0000 0.0000 0.0000 0.0000 22.2873
#
#
#
# Elastic Compliance Matrix: (Units=1/GPa)
#
#
# Indices 1 2 3 4 5 6 
#
# 1 0.016185 -0.005379 -0.004877 0.000000 0.000000 0.000000
# 2 -0.005379 0.020274 -0.005490 0.000000 0.000000 0.000000
# 3 -0.004877 -0.005490 0.011595 0.000000 0.000000 0.000000
# 4 0.000000 0.000000 0.000000 0.041667 0.000000 0.000000
# 5 0.000000 0.000000 0.000000 0.000000 0.047185 0.000000
# 6 0.000000 0.000000 0.000000 0.000000 0.000000 0.044869
#
#
# Mechanical properties :
#
#
# Convention : Reuss Voigt Hill
#
# Bulk Modulus (GPa) = 60.37404 66.99238 63.68321
# Shear Modulus (GPa) = 22.85335 23.60779 23.23057
#
# Velocity S-wave (km/s) = 3.77915 3.84102 3.81021
# Velocity P-wave (km/s) = 7.53477 7.84458 7.69124
#
# Compressibility (1/GPa) = 0.01656341
#
# Stress axis : x y z
#
# Youngs Moduli (GPa) = 61.78749 49.32361 86.24298
#
# Poissons Ratio (x) = 0.26530 0.42060
# Poissons Ratio (y) = 0.33234 0.47344
# Poissons Ratio (z) = 0.30133 0.27077
#
# Static dielectric constant tensor:
#      x y z
#    x 3.008330 0.000000 0.000000 
#    y 0.000000 3.149240 0.000000 
#    z 0.000000 0.000000 3.131740 
# 
# 
# High freq. dielectric constant tensor:
#      x y z
#    x 1.593320 0.000000 0.000000 
#    y 0.000000 1.626700 0.000000 
#    z 0.000000 0.000000 1.609800 
# 
# From -- ./inp_files/68573.got.cif
#   From: 2010.03.12/outbox.cif.g09.slc.cpg/sg65_35_cif.got.tgz:68573.got - 2010.04.10 20:52:16.
