data_PCOD8267320
_publ_section_title
;
Structure prediction by ZEFSAII (Michael W. Deem and Ramdas Pophale) SiO2 
 PCOD8267320
Probable space group: C M M M
;
_chemical_formula_sum "Si O2"
_cell_formula_units_Z 96
_cell_length_a 27.196201
_cell_length_b 9.253581
_cell_length_c 24.658144
_cell_angle_alpha 90.000000
_cell_angle_beta 90.000000
_cell_angle_gamma 90.000000
_cell_volume 6205.523971
_symmetry_space_group_name_H-M "C M M M"
_symmetry_group_IT_number 65
_symmetry_cell_setting 'orthorhombic'
loop_
_space_group_symop_operation_xyz
x,y,z
-x,-y,z
x,-y,-z
-x,y,-z
-x,-y,-z
x,y,-z
-x,y,z
x,-y,z
1/2+x,1/2+y,z
1/2-x,1/2-y,z
1/2+x,1/2-y,-z
1/2-x,1/2+y,-z
1/2-x,1/2-y,-z
1/2+x,1/2+y,-z
1/2-x,1/2+y,z
1/2+x,1/2-y,z
loop_
_atom_site_type_symbol
_atom_site_label
_atom_site_fract_x
_atom_site_fract_y
_atom_site_fract_z
Si Si1 0.199360 0.167771 0.057256
Si Si2 0.054754 0.167680 0.345193
Si Si3 0.396086 0.832190 0.438704
Si Si4 0.698860 0.668454 0.825734
Si Si5 0.201908 0.669017 0.623790
Si Si6 0.649876 0.668912 0.283092
O O1 0.250000 0.250000 0.055848
O O2 0.173856 0.207353 0.115160
O O3 0.212043 0.000000 0.057808
O O4 0.170233 0.204678 0.000000
O O5 0.065461 0.249744 0.401004
O O6 0.093639 0.210640 0.298205
O O7 0.000000 0.208284 0.324648
O O8 0.058987 0.000000 0.359011
O O9 0.401900 0.775704 0.500000
O O10 0.340439 0.802249 0.420039
O O11 0.408794 0.000000 0.434353
O O12 0.711557 0.500000 0.822070
O O13 0.750000 0.750000 0.816341
O O14 0.659280 0.710359 0.779651
O O15 0.212600 0.500000 0.631936
O O16 0.250000 0.750000 0.601437
O O17 0.187283 0.737421 0.681397
O O18 0.659939 0.500000 0.294364
#
# Coordination Sequence:
#
# PCOD8267320 Si02
#       6
#    16  16  16  16  16  16
#     4   8  13  21  32  47  70 100 132 162 189 218
#     4   9  18  32  48  64  81 101 126 160 202 242
#     4   9  19  34  48  63  83 105 130 159 191 232
#     4   9  16  24  36  55  78 105 134 161 190 225
#     4  10  19  30  44  61  82 108 135 161 191 227
#     4   9  17  29  43  59  80 104 132 165 198 235
#
# _framework density 15.470089
#
# number of rings (size 3 to 8) (size 9 to 14) (size 15 to 20)
#    0.000    3.000    0.000    1.000    0.000    4.000 
#    0.000    1.667    0.000    0.000    0.000    0.000 
#    0.000    0.667    0.000    9.333    0.000    0.000 
#
# Total GULP energy -594657.621624 kJ/mol
# GULP energy per Si atom -12388.700450 kJ/mol
# Density = 1.543488 g / cm^3
# Si number density = 15.470089 Si / 1000 Ang^3
#
#
#
# Elastic Constant Matrix: (Units=GPa)
#
#
# Indices 1 2 3 4 5 6 
#
# 1 75.1463 23.6725 45.0301 0.0000 0.0000 0.0000
# 2 23.6725 35.5730 26.3619 0.0000 0.0000 0.0000
# 3 45.0301 26.3619 148.6568 0.0000 0.0000 0.0000
# 4 0.0000 0.0000 0.0000 17.1185 0.0000 0.0000
# 5 0.0000 0.0000 0.0000 0.0000 11.6712 0.0000
# 6 0.0000 0.0000 0.0000 0.0000 0.0000 17.9727
#
#
#
# Elastic Compliance Matrix: (Units=1/GPa)
#
#
# Indices 1 2 3 4 5 6 
#
# 1 0.018677 -0.009482 -0.003976 0.000000 0.000000 0.000000
# 2 -0.009482 0.037179 -0.003721 0.000000 0.000000 0.000000
# 3 -0.003976 -0.003721 0.008591 0.000000 0.000000 0.000000
# 4 0.000000 0.000000 0.000000 0.058416 0.000000 0.000000
# 5 0.000000 0.000000 0.000000 0.000000 0.085681 0.000000
# 6 0.000000 0.000000 0.000000 0.000000 0.000000 0.055640
#
#
# Mechanical properties :
#
#
# Convention : Reuss Voigt Hill
#
# Bulk Modulus (GPa) = 33.23512 49.94499 41.59006
# Shear Modulus (GPa) = 16.20369 20.30658 18.25513
#
# Velocity S-wave (km/s) = 3.23990 3.62696 3.43888
# Velocity P-wave (km/s) = 5.96037 7.06362 6.53532
#
# Compressibility (1/GPa) = 0.03008865
#
# Stress axis : x y z
#
# Youngs Moduli (GPa) = 53.54169 26.89718 116.39975
#
# Poissons Ratio (x) = 0.25505 0.46280
# Poissons Ratio (y) = 0.50770 0.43309
# Poissons Ratio (z) = 0.21288 0.10008
#
# Static dielectric constant tensor:
#      x y z
#    x 2.789160 0.000000 0.000000 
#    y 0.000000 2.938290 0.000000 
#    z 0.000000 0.000000 3.498090 
# 
# 
# High freq. dielectric constant tensor:
#      x y z
#    x 1.554060 0.000000 0.000000 
#    y 0.000000 1.597270 0.000000 
#    z 0.000000 0.000000 1.600440 
# 
# From -- ./inp_files/67852.got.cif
#   From: 2010.03.12/outbox.cif.g09.slc.cpg/sg65_34_cif.got.tgz:67852.got - 2010.04.10 20:52:16.
