data_PCOD8267733
_publ_section_title
;
Structure prediction by ZEFSAII (Michael W. Deem and Ramdas Pophale) SiO2 
 PCOD8267733
Probable space group: C M M M
;
_chemical_formula_sum "Si O2"
_cell_formula_units_Z 72
_cell_length_a 8.683059
_cell_length_b 28.368475
_cell_length_c 18.478566
_cell_angle_alpha 90.000000
_cell_angle_beta 90.000000
_cell_angle_gamma 90.000000
_cell_volume 4551.735397
_symmetry_space_group_name_H-M "C M M M"
_symmetry_group_IT_number 65
_symmetry_cell_setting 'orthorhombic'
loop_
_space_group_symop_operation_xyz
x,y,z
-x,-y,z
x,-y,-z
-x,y,-z
-x,-y,-z
x,y,-z
-x,y,z
x,-y,z
1/2+x,1/2+y,z
1/2-x,1/2-y,z
1/2+x,1/2-y,-z
1/2-x,1/2+y,-z
1/2-x,1/2-y,-z
1/2+x,1/2+y,-z
1/2-x,1/2+y,z
1/2+x,1/2-y,z
loop_
_atom_site_type_symbol
_atom_site_label
_atom_site_fract_x
_atom_site_fract_y
_atom_site_fract_z
Si Si1 0.179908 0.144222 0.865600
Si Si2 0.317121 0.802282 0.266393
Si Si3 0.681387 0.198396 0.000000
Si Si4 0.180328 0.698911 0.576294
Si Si5 0.321642 0.053197 0.084240
O O1 0.237394 0.162557 0.788840
O O2 0.216738 0.088615 0.869640
O O3 0.000000 0.153324 0.874264
O O4 0.267783 0.171043 0.928895
O O5 0.500000 0.800630 0.253295
O O6 0.250000 0.750000 0.255856
O O7 0.273104 0.823902 0.346356
O O8 0.750000 0.250000 0.000000
O O9 0.500000 0.202507 0.000000
O O10 0.229119 0.672224 0.500000
O O11 0.250000 0.750000 0.574063
O O12 0.000000 0.705563 0.577073
O O13 0.500000 0.064399 0.099056
O O14 0.281782 0.000000 0.108496
O O15 0.283948 0.059968 0.000000
#
# Coordination Sequence:
#
# PCOD8267733 Si02
#       5
#    16  16   8  16  16
#     4  12  23  34  48  69  94 121 155 191 229 272
#     4  10  19  31  46  65  93 127 159 193 231 270
#     4  12  24  38  51  64  87 120 160 197 231 269
#     4   8  14  25  42  63  86 115 152 190 227 267
#     4   9  18  34  55  74  91 114 146 187 235 281
#
# _framework density 15.818142
#
# number of rings (size 3 to 8) (size 9 to 14) (size 15 to 20)
#    0.000    2.000    1.111    5.000    0.000    1.333 
#    0.000    1.111    0.000    0.000    0.000    0.000 
#    0.000    0.889    0.000   10.222    0.000    2.889 
#
# Total GULP energy -446024.376445 kJ/mol
# GULP energy per Si atom -12389.566012 kJ/mol
# Density = 1.578214 g / cm^3
# Si number density = 15.818142 Si / 1000 Ang^3
#
#
#
# Elastic Constant Matrix: (Units=GPa)
#
#
# Indices 1 2 3 4 5 6 
#
# 1 86.3527 34.5564 44.0802 0.0000 0.0000 0.0000
# 2 34.5564 81.8760 49.2874 0.0000 0.0000 0.0000
# 3 44.0802 49.2874 135.2563 0.0000 0.0000 0.0000
# 4 0.0000 0.0000 0.0000 1.2358 0.0000 0.0000
# 5 0.0000 0.0000 0.0000 0.0000 13.6350 0.0000
# 6 0.0000 0.0000 0.0000 0.0000 0.0000 24.5837
#
#
#
# Elastic Compliance Matrix: (Units=1/GPa)
#
#
# Indices 1 2 3 4 5 6 
#
# 1 0.015007 -0.004342 -0.003309 0.000000 0.000000 0.000000
# 2 -0.004342 0.016902 -0.004744 0.000000 0.000000 0.000000
# 3 -0.003309 -0.004744 0.010200 0.000000 0.000000 0.000000
# 4 0.000000 0.000000 0.000000 0.809223 0.000000 0.000000
# 5 0.000000 0.000000 0.000000 0.000000 0.073340 0.000000
# 6 0.000000 0.000000 0.000000 0.000000 0.000000 0.040677
#
#
# Mechanical properties :
#
#
# Convention : Reuss Voigt Hill
#
# Bulk Modulus (GPa) = 57.73674 62.14811 59.94242
# Shear Modulus (GPa) = 5.02052 19.59496 12.30774
#
# Velocity S-wave (km/s) = 1.78348 3.52343 2.79243
# Velocity P-wave (km/s) = 6.38910 7.47845 6.95513
#
# Compressibility (1/GPa) = 0.01732000
#
# Stress axis : x y z
#
# Youngs Moduli (GPa) = 66.63588 59.16463 98.03609
#
# Poissons Ratio (x) = 0.25690 0.32435
# Poissons Ratio (y) = 0.28934 0.46508
# Poissons Ratio (z) = 0.22047 0.28068
#
# Static dielectric constant tensor:
#      x y z
#    x 3.008960 0.000000 0.000000 
#    y 0.000000 2.834520 0.000000 
#    z 0.000000 0.000000 3.441430 
# 
# 
# High freq. dielectric constant tensor:
#      x y z
#    x 1.619110 0.000000 0.000000 
#    y 0.000000 1.568330 0.000000 
#    z 0.000000 0.000000 1.613470 
# 
# From -- ./inp_files/49696.got.cif
#   From: 2010.03.12/outbox.cif.g09.slc.cpg/sg65_25_cif.got.tgz:49696.got - 2010.04.10 20:52:16.
