data_PCOD8267381
_publ_section_title
;
Structure prediction by ZEFSAII (Michael W. Deem and Ramdas Pophale) SiO2 
 PCOD8267381
Probable space group: C M M M
;
_chemical_formula_sum "Si O2"
_cell_formula_units_Z 88
_cell_length_a 9.387060
_cell_length_b 30.413066
_cell_length_c 18.001329
_cell_angle_alpha 90.000000
_cell_angle_beta 90.000000
_cell_angle_gamma 90.000000
_cell_volume 5139.186371
_symmetry_space_group_name_H-M "C M M M"
_symmetry_group_IT_number 65
_symmetry_cell_setting 'orthorhombic'
loop_
_space_group_symop_operation_xyz
x,y,z
-x,-y,z
x,-y,-z
-x,y,-z
-x,-y,-z
x,y,-z
-x,y,z
x,-y,z
1/2+x,1/2+y,z
1/2-x,1/2-y,z
1/2+x,1/2-y,-z
1/2-x,1/2+y,-z
1/2-x,1/2-y,-z
1/2+x,1/2+y,-z
1/2-x,1/2+y,z
1/2+x,1/2-y,z
loop_
_atom_site_type_symbol
_atom_site_label
_atom_site_fract_x
_atom_site_fract_y
_atom_site_fract_z
Si Si1 0.664598 0.667077 0.917367
Si Si2 0.669086 0.090852 0.146324
Si Si3 0.331699 0.000000 0.918842
Si Si4 0.165739 0.885648 0.290122
Si Si5 0.162350 0.208755 0.236235
Si Si6 0.668621 0.549001 0.582677
O O1 0.500000 0.653361 0.905564
O O2 0.762550 0.624069 0.913042
O O3 0.709792 0.698862 0.849365
O O4 0.686566 0.688337 0.000000
O O5 0.500000 0.097537 0.146529
O O6 0.731626 0.096746 0.227326
O O7 0.719564 0.042538 0.124679
O O8 0.500000 0.000000 0.926666
O O9 0.260936 0.000000 0.000000
O O10 0.186969 0.832687 0.291748
O O11 0.218511 0.910921 0.364270
O O12 0.000000 0.896250 0.272697
O O13 0.250000 0.250000 0.267099
O O14 0.000000 0.223566 0.237129
O O15 0.729820 0.558212 0.500000
O O16 0.500000 0.548877 0.579515
O O17 0.719964 0.500000 0.609608
#
# Coordination Sequence:
#
# PCOD8267381 Si02
#       6
#    16  16   8  16  16  16
#     4   9  18  33  49  65  89 117 149 199 254 291
#     4  10  19  30  45  65  89 123 163 196 228 278
#     4   9  18  30  41  57  86 121 156 196 233 263
#     4   9  18  32  49  71  98 124 151 193 240 277
#     4   9  18  31  46  66  92 122 157 195 238 283
#     4   8  14  26  48  78 104 125 153 189 229 275
#
# _framework density 17.123334
#
# number of rings (size 3 to 8) (size 9 to 14) (size 15 to 20)
#    0.000    3.000    0.000    2.727    1.273    4.364 
#    0.000    1.364    0.000    4.364    0.000    1.273 
#    0.000    0.000    0.000    0.000    0.000    0.364 
#
# Total GULP energy -545167.396232 kJ/mol
# GULP energy per Si atom -12390.168096 kJ/mol
# Density = 1.708436 g / cm^3
# Si number density = 17.123334 Si / 1000 Ang^3
#
#
#
# Elastic Constant Matrix: (Units=GPa)
#
#
# Indices 1 2 3 4 5 6 
#
# 1 43.0697 36.3371 14.5463 0.0000 0.0000 0.0000
# 2 36.3371 119.5782 44.1731 0.0000 0.0000 0.0000
# 3 14.5463 44.1731 80.6623 0.0000 0.0000 0.0000
# 4 0.0000 0.0000 0.0000 19.0719 0.0000 0.0000
# 5 0.0000 0.0000 0.0000 0.0000 14.1847 0.0000
# 6 0.0000 0.0000 0.0000 0.0000 0.0000 22.1303
#
#
#
# Elastic Compliance Matrix: (Units=1/GPa)
#
#
# Indices 1 2 3 4 5 6 
#
# 1 0.031242 -0.009292 -0.000545 0.000000 0.000000 0.000000
# 2 -0.009292 0.013247 -0.005579 0.000000 0.000000 0.000000
# 3 -0.000545 -0.005579 0.015551 0.000000 0.000000 0.000000
# 4 0.000000 0.000000 0.000000 0.052433 0.000000 0.000000
# 5 0.000000 0.000000 0.000000 0.000000 0.070498 0.000000
# 6 0.000000 0.000000 0.000000 0.000000 0.000000 0.045187
#
#
# Mechanical properties :
#
#
# Convention : Reuss Voigt Hill
#
# Bulk Modulus (GPa) = 34.23811 48.15815 41.19813
# Shear Modulus (GPa) = 18.60622 20.96097 19.78360
#
# Velocity S-wave (km/s) = 3.29994 3.50253 3.40274
# Velocity P-wave (km/s) = 5.87859 6.67400 6.28889
#
# Compressibility (1/GPa) = 0.02920722
#
# Stress axis : x y z
#
# Youngs Moduli (GPa) = 32.00813 75.48691 64.30500
#
# Poissons Ratio (x) = 0.70145 0.03507
# Poissons Ratio (y) = 0.29743 0.35875
# Poissons Ratio (z) = 0.01746 0.42113
#
# Static dielectric constant tensor:
#      x y z
#    x 2.941810 0.000000 0.000000 
#    y 0.000000 3.309180 0.000000 
#    z 0.000000 0.000000 3.300050 
# 
# 
# High freq. dielectric constant tensor:
#      x y z
#    x 1.637320 0.000000 0.000000 
#    y 0.000000 1.658610 0.000000 
#    z 0.000000 0.000000 1.645000 
# 
# From -- ./inp_files/50294.got.cif
#   From: 2010.03.12/outbox.cif.g09.slc.cpg/sg65_26_cif.got.tgz:50294.got - 2010.04.10 20:52:16.
