data_PCOD8267676
_publ_section_title
;
Structure prediction by ZEFSAII (Michael W. Deem and Ramdas Pophale) SiO2 
 PCOD8267676
Probable space group: C M M M
;
_chemical_formula_sum "Si O2"
_cell_formula_units_Z 100
_cell_length_a 29.538778
_cell_length_b 26.605657
_cell_length_c 9.207250
_cell_angle_alpha 90.000000
_cell_angle_beta 90.000000
_cell_angle_gamma 90.000000
_cell_volume 7235.964845
_symmetry_space_group_name_H-M "C M M M"
_symmetry_group_IT_number 65
_symmetry_cell_setting 'orthorhombic'
loop_
_space_group_symop_operation_xyz
x,y,z
-x,-y,z
x,-y,-z
-x,y,-z
-x,-y,-z
x,y,-z
-x,y,z
x,-y,z
1/2+x,1/2+y,z
1/2-x,1/2-y,z
1/2+x,1/2-y,-z
1/2-x,1/2+y,-z
1/2-x,1/2-y,-z
1/2+x,1/2+y,-z
1/2-x,1/2+y,z
1/2+x,1/2-y,z
loop_
_atom_site_type_symbol
_atom_site_label
_atom_site_fract_x
_atom_site_fract_y
_atom_site_fract_z
Si Si1 0.718376 0.141315 0.664076
Si Si2 0.898947 0.500000 0.661851
Si Si3 0.648363 0.232796 0.336794
Si Si4 0.784989 0.204503 0.835754
Si Si5 0.651623 0.083209 0.838763
Si Si6 0.000000 0.500000 0.731160
Si Si7 0.415173 0.171575 0.160516
Si Si8 0.500000 0.888024 0.832398
O O1 0.730980 0.125245 0.500000
O O2 0.682795 0.186503 0.659728
O O3 0.763696 0.157864 0.748163
O O4 0.697601 0.092915 0.748070
O O5 0.878095 0.500000 0.500000
O O6 0.882329 0.451957 0.750054
O O7 0.953460 0.500000 0.640786
O O8 0.638937 0.251720 0.500000
O O9 0.669050 0.278497 0.243830
O O10 0.600209 0.216843 0.265661
O O11 0.750000 0.250000 0.837708
O O12 0.796317 0.187576 0.000000
O O13 0.627860 0.136205 0.859932
O O14 0.662349 0.060812 0.000000
O O15 0.000000 0.448350 0.821820
O O16 0.455811 0.139337 0.234854
O O17 0.428374 0.192554 0.000000
O O18 0.500000 0.875645 0.000000
#
# Coordination Sequence:
#
# PCOD8267676 Si02
#       8
#    16   8  16  16  16   4  16   8
#     4   9  16  26  39  56  77  95 111 136 171 213
#     4  12  24  35  44  57  74  93 118 157 204 244
#     4   9  16  25  37  54  74  95 113 136 171 213
#     4   9  15  23  37  56  75  95 116 136 159 200
#     4  10  19  31  45  57  70  91 119 149 184 228
#     4  12  22  36  46  60  71  90 119 164 207 254
#     4   9  17  29  42  56  70  89 116 149 186 228
#     4  10  19  31  47  60  71  90 121 160 201 241
#
# _framework density 13.819857000000001
#
# number of rings (size 3 to 8) (size 9 to 14) (size 15 to 20)
#    0.000    2.400    1.600    2.400    0.000    7.040 
#    0.000    0.400    0.000    0.000    0.000    0.000 
#    0.000    0.000    0.000    0.000    0.000    0.000 
#
# Total GULP energy -619582.761628 kJ/mol
# GULP energy per Si atom -12391.655233 kJ/mol
# Density = 1.378840 g / cm^3
# Si number density = 13.819857 Si / 1000 Ang^3
#
#
#
# Elastic Constant Matrix: (Units=GPa)
#
#
# Indices 1 2 3 4 5 6 
#
# 1 63.9532 37.1553 40.0009 0.0000 0.0000 0.0000
# 2 37.1553 31.8617 31.2778 0.0000 0.0000 0.0000
# 3 40.0009 31.2778 126.5536 0.0000 0.0000 0.0000
# 4 0.0000 0.0000 0.0000 12.5124 0.0000 0.0000
# 5 0.0000 0.0000 0.0000 0.0000 15.6610 0.0000
# 6 0.0000 0.0000 0.0000 0.0000 0.0000 29.5878
#
#
#
# Elastic Compliance Matrix: (Units=1/GPa)
#
#
# Indices 1 2 3 4 5 6 
#
# 1 0.048792 -0.055137 -0.001795 0.000000 0.000000 0.000000
# 2 -0.055137 0.103746 -0.008213 0.000000 0.000000 0.000000
# 3 -0.001795 -0.008213 0.010499 0.000000 0.000000 0.000000
# 4 0.000000 0.000000 0.000000 0.079921 0.000000 0.000000
# 5 0.000000 0.000000 0.000000 0.000000 0.063853 0.000000
# 6 0.000000 0.000000 0.000000 0.000000 0.000000 0.033798
#
#
# Mechanical properties :
#
#
# Convention : Reuss Voigt Hill
#
# Bulk Modulus (GPa) = 30.53716 48.80405 39.67061
# Shear Modulus (GPa) = 10.37743 19.14787 14.76265
#
# Velocity S-wave (km/s) = 2.74324 3.72631 3.27191
# Velocity P-wave (km/s) = 5.67260 7.34200 6.56062
#
# Compressibility (1/GPa) = 0.03274699
#
# Stress axis : x y z
#
# Youngs Moduli (GPa) = 20.49503 9.63894 95.24595
#
# Poissons Ratio (x) = 0.53146 0.17098
# Poissons Ratio (y) = 1.13003 0.78229
# Poissons Ratio (z) = 0.03679 0.07917
#
# Static dielectric constant tensor:
#      x y z
#    x 2.662120 0.000000 0.000000 
#    y 0.000000 2.389770 0.000000 
#    z 0.000000 0.000000 2.993190 
# 
# 
# High freq. dielectric constant tensor:
#      x y z
#    x 1.493910 0.000000 0.000000 
#    y 0.000000 1.471850 0.000000 
#    z 0.000000 0.000000 1.544460 
# 
# From -- ./inp_files/19096.got.cif
#   From: 2010.03.12/outbox.cif.g09.slc.cpg/sg65_10_cif.got.tgz:19096.got - 2010.04.10 20:52:16.
