data_PCOD8267999
_publ_section_title
;
Structure prediction by ZEFSAII (Michael W. Deem and Ramdas Pophale) SiO2 
 PCOD8267999
Probable space group: C M M M
;
_chemical_formula_sum "Si O2"
_cell_formula_units_Z 88
_cell_length_a 26.800157
_cell_length_b 8.961811
_cell_length_c 19.177500
_cell_angle_alpha 90.000000
_cell_angle_beta 90.000000
_cell_angle_gamma 90.000000
_cell_volume 4606.012479
_symmetry_space_group_name_H-M "C M M M"
_symmetry_group_IT_number 65
_symmetry_cell_setting 'orthorhombic'
loop_
_space_group_symop_operation_xyz
x,y,z
-x,-y,z
x,-y,-z
-x,y,-z
-x,-y,-z
x,y,-z
-x,y,z
x,-y,z
1/2+x,1/2+y,z
1/2-x,1/2-y,z
1/2+x,1/2-y,-z
1/2-x,1/2+y,-z
1/2-x,1/2-y,-z
1/2+x,1/2+y,-z
1/2-x,1/2+y,z
1/2+x,1/2-y,z
loop_
_atom_site_type_symbol
_atom_site_label
_atom_site_fract_x
_atom_site_fract_y
_atom_site_fract_z
Si Si1 0.443120 0.834218 0.305414
Si Si2 0.408897 0.174797 0.158370
Si Si3 0.200963 0.823110 0.331557
Si Si4 0.607014 0.325019 0.422361
Si Si5 0.500000 0.327162 0.081649
Si Si6 0.700224 0.823987 0.818126
O O1 0.500000 0.834921 0.282067
O O2 0.413652 0.769745 0.238558
O O3 0.437578 0.735219 0.374499
O O4 0.423843 0.000000 0.323226
O O5 0.448481 0.258913 0.110307
O O6 0.350684 0.205680 0.136825
O O7 0.421629 0.000000 0.153659
O O8 0.250000 0.750000 0.365362
O O9 0.157945 0.778124 0.385018
O O10 0.191523 0.748204 0.257097
O O11 0.206273 0.000000 0.322255
O O12 0.604774 0.254796 0.500000
O O13 0.601151 0.500000 0.427760
O O14 0.500000 0.500000 0.101316
O O15 0.500000 0.297863 0.000000
O O16 0.750000 0.750000 0.853268
O O17 0.709443 0.000000 0.809961
#
# Coordination Sequence:
#
# PCOD8267999 Si02
#       6
#    16  16  16  16   8  16
#     4  10  20  36  56  78 104 135 181 232 277 331
#     4  10  20  37  61  87 117 155 192 231 277 334
#     4  10  19  31  49  72 101 137 180 229 283 335
#     4  10  22  37  50  69 101 140 183 232 286 342
#     4  11  25  41  61  95 130 155 184 225 273 326
#     4  10  19  32  54  84 116 147 188 236 283 333
#
# _framework density 19.105461999999999
#
# number of rings (size 3 to 8) (size 9 to 14) (size 15 to 20)
#    0.000    1.909    2.727    2.455    0.000    5.091 
#    0.000    1.818    0.000    0.545    0.000    0.000 
#    0.000    0.000    0.000    0.000    0.000    0.000 
#
# Total GULP energy -545344.113450 kJ/mol
# GULP energy per Si atom -12394.184397 kJ/mol
# Density = 1.906198 g / cm^3
# Si number density = 19.105462 Si / 1000 Ang^3
#
#
#
# Elastic Constant Matrix: (Units=GPa)
#
#
# Indices 1 2 3 4 5 6 
#
# 1 136.9216 51.8966 44.7484 0.0000 0.0000 0.0000
# 2 51.8966 70.2004 31.1779 0.0000 0.0000 0.0000
# 3 44.7484 31.1779 62.0619 0.0000 0.0000 0.0000
# 4 0.0000 0.0000 0.0000 23.4010 0.0000 0.0000
# 5 0.0000 0.0000 0.0000 0.0000 15.5342 0.0000
# 6 0.0000 0.0000 0.0000 0.0000 0.0000 33.9495
#
#
#
# Elastic Compliance Matrix: (Units=1/GPa)
#
#
# Indices 1 2 3 4 5 6 
#
# 1 0.011263 -0.006075 -0.005069 0.000000 0.000000 0.000000
# 2 -0.006075 0.021613 -0.006477 0.000000 0.000000 0.000000
# 3 -0.005069 -0.006477 0.023022 0.000000 0.000000 0.000000
# 4 0.000000 0.000000 0.000000 0.042733 0.000000 0.000000
# 5 0.000000 0.000000 0.000000 0.000000 0.064374 0.000000
# 6 0.000000 0.000000 0.000000 0.000000 0.000000 0.029455
#
#
# Mechanical properties :
#
#
# Convention : Reuss Voigt Hill
#
# Bulk Modulus (GPa) = 48.41470 58.31441 53.36455
# Shear Modulus (GPa) = 21.31408 24.00100 22.65754
#
# Velocity S-wave (km/s) = 3.34369 3.54819 3.44745
# Velocity P-wave (km/s) = 6.34844 6.88294 6.62109
#
# Compressibility (1/GPa) = 0.02065489
#
# Stress axis : x y z
#
# Youngs Moduli (GPa) = 88.79007 46.26938 43.43725
#
# Poissons Ratio (x) = 0.28108 0.22018
# Poissons Ratio (y) = 0.53938 0.28136
# Poissons Ratio (z) = 0.45006 0.29970
#
# Static dielectric constant tensor:
#      x y z
#    x 3.895900 0.000000 0.000000 
#    y 0.000000 3.506010 0.000000 
#    z 0.000000 0.000000 3.242090 
# 
# 
# High freq. dielectric constant tensor:
#      x y z
#    x 1.762870 0.000000 0.000000 
#    y 0.000000 1.742030 0.000000 
#    z 0.000000 0.000000 1.705880 
# 
# From -- ./inp_files/66238.got.cif
#   From: 2010.03.12/outbox.cif.g09.slc.cpg/sg65_34_cif.got.tgz:66238.got - 2010.04.10 20:52:16.
