data_PCOD8267298
_publ_section_title
;
Structure prediction by ZEFSAII (Michael W. Deem and Ramdas Pophale) SiO2 
 PCOD8267298
Probable space group: C M M M
;
_chemical_formula_sum "Si O2"
_cell_formula_units_Z 104
_cell_length_a 14.639699
_cell_length_b 23.777536
_cell_length_c 18.090984
_cell_angle_alpha 90.000000
_cell_angle_beta 90.000000
_cell_angle_gamma 90.000000
_cell_volume 6297.398624
_symmetry_space_group_name_H-M "C M M M"
_symmetry_group_IT_number 65
_symmetry_cell_setting 'orthorhombic'
loop_
_space_group_symop_operation_xyz
x,y,z
-x,-y,z
x,-y,-z
-x,y,-z
-x,-y,-z
x,y,-z
-x,y,z
x,-y,z
1/2+x,1/2+y,z
1/2-x,1/2-y,z
1/2+x,1/2-y,-z
1/2-x,1/2+y,-z
1/2-x,1/2-y,-z
1/2+x,1/2+y,-z
1/2-x,1/2+y,z
1/2+x,1/2-y,z
loop_
_atom_site_type_symbol
_atom_site_label
_atom_site_fract_x
_atom_site_fract_y
_atom_site_fract_z
Si Si1 0.898266 0.361202 0.919464
Si Si2 0.891322 0.063510 0.000000
Si Si3 0.604988 0.377472 0.852100
Si Si4 0.211892 0.065368 0.721023
Si Si5 0.644172 0.738281 0.083389
Si Si6 0.896346 0.435574 0.211490
Si Si7 0.897647 0.933318 0.418485
O O1 0.903838 0.296453 0.893824
O O2 0.853402 0.399663 0.856404
O O3 0.000000 0.384650 0.928541
O O4 0.847527 0.366240 0.000000
O O5 0.854710 0.094345 0.926535
O O6 0.000000 0.065294 0.000000
O O7 0.854023 0.000000 0.000000
O O8 0.500000 0.394689 0.838394
O O9 0.664141 0.397877 0.783625
O O10 0.613125 0.310091 0.860348
O O11 0.322600 0.072978 0.722561
O O12 0.175269 0.088027 0.642142
O O13 0.185448 0.000000 0.733236
O O14 0.750000 0.750000 0.089641
O O15 0.615492 0.720680 0.000000
O O16 0.898361 0.500000 0.185942
O O17 0.000000 0.416554 0.235061
O O18 0.870454 0.909968 0.500000
O O19 0.000000 0.912541 0.397541
O O20 0.896620 0.000000 0.420984
#
# Coordination Sequence:
#
# PCOD8267298 Si02
#       7
#    16   8  16  16  16  16  16
#     4   9  17  29  45  60  77 107 151 198 239 275
#     4   9  18  30  41  56  85 125 159 184 218 268
#     4  11  20  30  45  64  90 121 155 191 229 274
#     4  10  19  30  45  67  93 122 154 188 229 276
#     4  10  19  30  43  59  81 114 153 196 234 271
#     4   9  18  32  47  64  88 118 152 193 241 283
#     4   8  14  26  45  68  93 120 148 178 217 270
#
# _framework density 16.514756999999999
#
# number of rings (size 3 to 8) (size 9 to 14) (size 15 to 20)
#    0.000    2.538    0.769    2.769    0.000    2.462 
#    1.385    1.538    0.000    0.462    0.000    3.231 
#    0.000    5.538    0.000    7.692    0.000    3.231 
#
# Total GULP energy -644411.171142 kJ/mol
# GULP energy per Si atom -12392.522522 kJ/mol
# Density = 1.647717 g / cm^3
# Si number density = 16.514757 Si / 1000 Ang^3
#
#
#
# Elastic Constant Matrix: (Units=GPa)
#
#
# Indices 1 2 3 4 5 6 
#
# 1 82.9312 21.3989 55.7677 0.0000 0.0000 0.0000
# 2 21.3989 52.1876 36.7247 0.0000 0.0000 0.0000
# 3 55.7677 36.7247 112.8800 0.0000 0.0000 0.0000
# 4 0.0000 0.0000 0.0000 6.2934 0.0000 0.0000
# 5 0.0000 0.0000 0.0000 0.0000 22.2345 0.0000
# 6 0.0000 0.0000 0.0000 0.0000 0.0000 14.5814
#
#
#
# Elastic Compliance Matrix: (Units=1/GPa)
#
#
# Indices 1 2 3 4 5 6 
#
# 1 0.018143 -0.001468 -0.008486 0.000000 0.000000 0.000000
# 2 -0.001468 0.024970 -0.007399 0.000000 0.000000 0.000000
# 3 -0.008486 -0.007399 0.015459 0.000000 0.000000 0.000000
# 4 0.000000 0.000000 0.000000 0.158896 0.000000 0.000000
# 5 0.000000 0.000000 0.000000 0.000000 0.044975 0.000000
# 6 0.000000 0.000000 0.000000 0.000000 0.000000 0.068581
#
#
# Mechanical properties :
#
#
# Convention : Reuss Voigt Hill
#
# Bulk Modulus (GPa) = 41.89903 52.86460 47.38181
# Shear Modulus (GPa) = 13.38025 17.56235 15.47130
#
# Velocity S-wave (km/s) = 2.84949 3.26457 3.06407
# Velocity P-wave (km/s) = 6.02095 6.80367 6.42424
#
# Compressibility (1/GPa) = 0.02386690
#
# Stress axis : x y z
#
# Youngs Moduli (GPa) = 55.11618 40.04810 64.68888
#
# Poissons Ratio (x) = 0.05878 0.54896
# Poissons Ratio (y) = 0.08090 0.47861
# Poissons Ratio (z) = 0.46772 0.29630
#
# Static dielectric constant tensor:
#      x y z
#    x 3.180250 0.000000 0.000000 
#    y 0.000000 3.073270 0.000000 
#    z 0.000000 0.000000 3.140480 
# 
# 
# High freq. dielectric constant tensor:
#      x y z
#    x 1.642280 0.000000 0.000000 
#    y 0.000000 1.614910 0.000000 
#    z 0.000000 0.000000 1.597780 
# 
# From -- ./inp_files/53491.got.cif
#   From: 2010.03.12/outbox.cif.g09.slc.cpg/sg65_27_cif.got.tgz:53491.got - 2010.04.10 20:52:16.
