data_PCOD8267427
_publ_section_title
;
Structure prediction by ZEFSAII (Michael W. Deem and Ramdas Pophale) SiO2 
 PCOD8267427
Probable space group: C M M M
;
_chemical_formula_sum "Si O2"
_cell_formula_units_Z 72
_cell_length_a 8.849965
_cell_length_b 23.305585
_cell_length_c 21.074129
_cell_angle_alpha 90.000000
_cell_angle_beta 90.000000
_cell_angle_gamma 90.000000
_cell_volume 4346.615217
_symmetry_space_group_name_H-M "C M M M"
_symmetry_group_IT_number 65
_symmetry_cell_setting 'orthorhombic'
loop_
_space_group_symop_operation_xyz
x,y,z
-x,-y,z
x,-y,-z
-x,y,-z
-x,-y,-z
x,y,-z
-x,y,z
x,-y,z
1/2+x,1/2+y,z
1/2-x,1/2-y,z
1/2+x,1/2-y,-z
1/2-x,1/2+y,-z
1/2-x,1/2-y,-z
1/2+x,1/2+y,-z
1/2-x,1/2+y,z
1/2+x,1/2-y,z
loop_
_atom_site_type_symbol
_atom_site_label
_atom_site_fract_x
_atom_site_fract_y
_atom_site_fract_z
Si Si1 0.824533 0.811196 0.000000
Si Si2 0.322328 0.885981 0.618013
Si Si3 0.178677 0.000000 0.427327
Si Si4 0.322537 0.188665 0.500000
Si Si5 0.821557 0.812634 0.864390
Si Si6 0.678300 0.187443 0.260605
O O1 0.750000 0.750000 0.000000
O O2 0.784784 0.843660 0.066962
O O3 0.000000 0.797785 0.000000
O O4 0.500000 0.897937 0.613889
O O5 0.236335 0.945636 0.611871
O O6 0.266572 0.845127 0.561619
O O7 0.275975 0.855424 0.683306
O O8 0.241576 0.000000 0.500000
O O9 0.000000 0.000000 0.428147
O O10 0.500000 0.196779 0.500000
O O11 0.250000 0.250000 0.500000
O O12 0.750000 0.750000 0.867447
O O13 0.742285 0.842709 0.803973
O O14 0.000000 0.809254 0.852110
O O15 0.500000 0.195382 0.255759
O O16 0.750000 0.250000 0.272597
#
# Coordination Sequence:
#
# PCOD8267427 Si02
#       6
#     8  16   8   8  16  16
#     4   8  14  22  34  54  80 115 158 191 222 264
#     4  10  21  36  53  69  92 125 157 188 231 284
#     4  11  23  37  55  77  93 112 149 198 243 277
#     4  10  20  33  50  71  93 122 154 186 225 270
#     4   9  15  24  38  57  85 121 156 192 228 268
#     4  10  19  30  45  68  95 126 159 191 231 278
#
# _framework density 16.564613000000001
#
# number of rings (size 3 to 8) (size 9 to 14) (size 15 to 20)
#    0.000    2.333    1.111    3.667    0.000    4.000 
#    0.000    0.000    0.000    0.000    0.000    0.000 
#    0.000    0.889    0.000   10.000    0.000    5.111 
#
# Total GULP energy -446024.920562 kJ/mol
# GULP energy per Si atom -12389.581127 kJ/mol
# Density = 1.652691 g / cm^3
# Si number density = 16.564613 Si / 1000 Ang^3
#
#
#
# Elastic Constant Matrix: (Units=GPa)
#
#
# Indices 1 2 3 4 5 6 
#
# 1 60.3055 33.9484 53.9446 0.0000 0.0000 0.0000
# 2 33.9484 87.1533 60.9111 0.0000 0.0000 0.0000
# 3 53.9446 60.9111 193.9288 0.0000 0.0000 0.0000
# 4 0.0000 0.0000 0.0000 -62.6211 0.0000 0.0000
# 5 0.0000 0.0000 0.0000 0.0000 26.6136 0.0000
# 6 0.0000 0.0000 0.0000 0.0000 0.0000 22.7132
#
#
#
# Elastic Compliance Matrix: (Units=1/GPa)
#
#
# Indices 1 2 3 4 5 6 
#
# 1 0.024361 -0.006090 -0.004864 0.000000 0.000000 0.000000
# 2 -0.006090 0.016224 -0.003402 0.000000 0.000000 0.000000
# 3 -0.004864 -0.003402 0.007578 0.000000 0.000000 0.000000
# 4 0.000000 0.000000 0.000000 -0.015969 0.000000 0.000000
# 5 0.000000 0.000000 0.000000 0.000000 0.037575 0.000000
# 6 0.000000 0.000000 0.000000 0.000000 0.000000 0.044027
#
#
# Mechanical properties :
#
#
# Convention : Reuss Voigt Hill
#
# Bulk Modulus (GPa) = 51.40866 70.99955 61.20410
# Shear Modulus (GPa) = 33.55917 10.18003 21.86960
#
# Velocity S-wave (km/s) = 4.50594 2.48173 3.63748
# Velocity P-wave (km/s) = 7.62719 7.15313 7.39396
#
# Compressibility (1/GPa) = 0.01945197
#
# Stress axis : x y z
#
# Youngs Moduli (GPa) = 41.04876 61.63828 131.96348
#
# Poissons Ratio (x) = 0.37539 0.64182
# Poissons Ratio (y) = 0.24999 0.44889
# Poissons Ratio (z) = 0.19965 0.20967
#
# Static dielectric constant tensor:
#      x y z
#    x 3.658630 0.000000 0.000000 
#    y 0.000000 2.616530 0.000000 
#    z 0.000000 0.000000 4.123100 
# 
# 
# High freq. dielectric constant tensor:
#      x y z
#    x 1.646780 0.000000 0.000000 
#    y 0.000000 1.576870 0.000000 
#    z 0.000000 0.000000 1.665300 
# 
# From -- ./inp_files/59569.got.cif
#   From: 2010.03.12/outbox.cif.g09.slc.cpg/sg65_30_cif.got.tgz:59569.got - 2010.04.10 20:52:16.
