data_PCOD8267856
_publ_section_title
;
Structure prediction by ZEFSAII (Michael W. Deem and Ramdas Pophale) SiO2 
 PCOD8267856
Probable space group: C M M M
;
_chemical_formula_sum "Si O2"
_cell_formula_units_Z 96
_cell_length_a 8.973015
_cell_length_b 19.568790
_cell_length_c 31.393342
_cell_angle_alpha 90.000000
_cell_angle_beta 90.000000
_cell_angle_gamma 90.000000
_cell_volume 5512.389766
_symmetry_space_group_name_H-M "C M M M"
_symmetry_group_IT_number 65
_symmetry_cell_setting 'orthorhombic'
loop_
_space_group_symop_operation_xyz
x,y,z
-x,-y,z
x,-y,-z
-x,y,-z
-x,-y,-z
x,y,-z
-x,y,z
x,-y,z
1/2+x,1/2+y,z
1/2-x,1/2-y,z
1/2+x,1/2-y,-z
1/2-x,1/2+y,-z
1/2-x,1/2-y,-z
1/2+x,1/2+y,-z
1/2-x,1/2+y,z
1/2+x,1/2-y,z
loop_
_atom_site_type_symbol
_atom_site_label
_atom_site_fract_x
_atom_site_fract_y
_atom_site_fract_z
Si Si1 0.326287 0.822636 0.118108
Si Si2 0.675564 0.422681 0.630029
Si Si3 0.325852 0.177133 0.788299
Si Si4 0.831956 0.418858 0.546395
Si Si5 0.822999 0.423842 0.952673
Si Si6 0.322345 0.324536 0.294370
O O1 0.500000 0.810597 0.109944
O O2 0.250000 0.750000 0.113349
O O3 0.301946 0.856920 0.165101
O O4 0.255908 0.873294 0.082927
O O5 0.500000 0.423659 0.627894
O O6 0.736310 0.500000 0.637672
O O7 0.733017 0.391076 0.585333
O O8 0.731370 0.373724 0.667706
O O9 0.500000 0.183898 0.777164
O O10 0.250000 0.250000 0.791749
O O11 0.259029 0.360118 0.749156
O O12 0.773360 0.392454 0.500000
O O13 0.825935 0.500000 0.546333
O O14 0.000000 0.393010 0.553412
O O15 0.760154 0.500000 0.944447
O O16 0.000000 0.425465 0.948988
O O17 0.775384 0.398886 0.000000
O O18 0.500000 0.318024 0.292074
O O19 0.250000 0.250000 0.301066
#
# Coordination Sequence:
#
# PCOD8267856 Si02
#       6
#    16  16  16  16  16  16
#     4   9  17  28  44  67  90 111 141 182 222 258
#     4   9  18  31  46  66  91 117 145 179 219 260
#     4   9  16  27  43  63  87 114 144 178 217 260
#     4   8  14  25  42  65  91 117 145 178 217 259
#     4   8  14  26  44  64  87 117 150 180 212 255
#     4  10  19  31  48  67  88 116 150 184 216 259
#
# _framework density 17.415315
#
# number of rings (size 3 to 8) (size 9 to 14) (size 15 to 20)
#    0.000    3.167    0.000    3.000    0.000    2.667 
#    0.000    2.500    0.000    2.000    0.000    1.167 
#    0.000    0.000    0.000    0.000    0.000    0.000 
#
# Total GULP energy -594644.373152 kJ/mol
# GULP energy per Si atom -12388.424441 kJ/mol
# Density = 1.737568 g / cm^3
# Si number density = 17.415315 Si / 1000 Ang^3
#
#
#
# Elastic Constant Matrix: (Units=GPa)
#
#
# Indices 1 2 3 4 5 6 
#
# 1 43.5455 21.6706 41.9781 0.0000 0.0000 0.0000
# 2 21.6706 59.6424 70.0143 0.0000 0.0000 0.0000
# 3 41.9781 70.0143 191.9658 0.0000 0.0000 0.0000
# 4 0.0000 0.0000 0.0000 30.7390 0.0000 0.0000
# 5 0.0000 0.0000 0.0000 0.0000 21.5004 0.0000
# 6 0.0000 0.0000 0.0000 0.0000 0.0000 13.8013
#
#
#
# Elastic Compliance Matrix: (Units=1/GPa)
#
#
# Indices 1 2 3 4 5 6 
#
# 1 0.030139 -0.005620 -0.004541 0.000000 0.000000 0.000000
# 2 -0.005620 0.030368 -0.009847 0.000000 0.000000 0.000000
# 3 -0.004541 -0.009847 0.009794 0.000000 0.000000 0.000000
# 4 0.000000 0.000000 0.000000 0.032532 0.000000 0.000000
# 5 0.000000 0.000000 0.000000 0.000000 0.046511 0.000000
# 6 0.000000 0.000000 0.000000 0.000000 0.000000 0.072457
#
#
# Mechanical properties :
#
#
# Convention : Reuss Voigt Hill
#
# Bulk Modulus (GPa) = 33.02026 62.49775 47.75900
# Shear Modulus (GPa) = 18.38839 23.97419 21.18129
#
# Velocity S-wave (km/s) = 3.25295 3.71430 3.49125
# Velocity P-wave (km/s) = 5.75418 7.37287 6.61324
#
# Compressibility (1/GPa) = 0.03028444
#
# Stress axis : x y z
#
# Youngs Moduli (GPa) = 33.17992 32.92946 102.10769
#
# Poissons Ratio (x) = 0.18507 0.46364
# Poissons Ratio (y) = 0.18648 1.00544
# Poissons Ratio (z) = 0.15066 0.32425
#
# Static dielectric constant tensor:
#      x y z
#    x 3.095440 0.000000 0.000000 
#    y 0.000000 3.003940 0.000000 
#    z 0.000000 0.000000 4.139450 
# 
# 
# High freq. dielectric constant tensor:
#      x y z
#    x 1.656200 0.000000 0.000000 
#    y 0.000000 1.624510 0.000000 
#    z 0.000000 0.000000 1.697920 
# 
# From -- ./inp_files/74351.got.cif
#   From: 2010.03.12/outbox.cif.g09.slc.cpg/sg65_38_cif.got.tgz:74351.got - 2010.04.10 20:52:16.
