data_PCOD8267963
_publ_section_title
;
Structure prediction by ZEFSAII (Michael W. Deem and Ramdas Pophale) SiO2 
 PCOD8267963
Probable space group: C M M M
;
_chemical_formula_sum "Si O2"
_cell_formula_units_Z 72
_cell_length_a 18.265726
_cell_length_b 9.094395
_cell_length_c 23.294655
_cell_angle_alpha 90.000000
_cell_angle_beta 90.000000
_cell_angle_gamma 90.000000
_cell_volume 3869.608555
_symmetry_space_group_name_H-M "C M M M"
_symmetry_group_IT_number 65
_symmetry_cell_setting 'orthorhombic'
loop_
_space_group_symop_operation_xyz
x,y,z
-x,-y,z
x,-y,-z
-x,y,-z
-x,-y,-z
x,y,-z
-x,y,z
x,-y,z
1/2+x,1/2+y,z
1/2-x,1/2-y,z
1/2+x,1/2-y,-z
1/2-x,1/2+y,-z
1/2-x,1/2-y,-z
1/2+x,1/2+y,-z
1/2-x,1/2+y,z
1/2+x,1/2-y,z
loop_
_atom_site_type_symbol
_atom_site_label
_atom_site_fract_x
_atom_site_fract_y
_atom_site_fract_z
Si Si1 0.328272 0.174835 0.500000
Si Si2 0.172106 0.325352 0.279207
Si Si3 0.325172 0.827664 0.935532
Si Si4 0.418653 0.825445 0.829815
Si Si5 0.582181 0.825631 0.610378
O O1 0.250000 0.250000 0.500000
O O2 0.372935 0.230425 0.555379
O O3 0.317826 0.000000 0.500000
O O4 0.182708 0.500000 0.279185
O O5 0.250000 0.250000 0.284089
O O6 0.132402 0.268292 0.221614
O O7 0.122934 0.271748 0.332408
O O8 0.250000 0.750000 0.919306
O O9 0.386457 0.772884 0.890943
O O10 0.311365 0.000000 0.929432
O O11 0.350966 0.786286 0.000000
O O12 0.500000 0.758323 0.823398
O O13 0.423037 0.000000 0.827121
O O14 0.500000 0.759408 0.609142
O O15 0.577341 0.000000 0.609430
#
# Coordination Sequence:
#
# PCOD8267963 Si02
#       5
#     8  16  16  16  16
#     4  10  19  31  49  71  95 122 152 188 226 266
#     4  10  19  31  49  70  92 119 150 186 226 268
#     4   9  17  29  46  67  90 117 148 183 223 266
#     4   9  17  29  46  68  91 116 150 189 224 260
#     4   9  17  30  49  71  92 118 155 192 223 260
#
# _framework density 18.606534
#
# number of rings (size 3 to 8) (size 9 to 14) (size 15 to 20)
#    0.000    2.667    0.000    2.333    0.000    4.444 
#    0.000    2.222    0.000    7.333    0.000    3.111 
#    0.000    0.000    0.000    0.000    0.000    0.000 
#
# Total GULP energy -446371.596740 kJ/mol
# GULP energy per Si atom -12399.211021 kJ/mol
# Density = 1.856418 g / cm^3
# Si number density = 18.606534 Si / 1000 Ang^3
#
#
#
# Elastic Constant Matrix: (Units=GPa)
#
#
# Indices 1 2 3 4 5 6 
#
# 1 193.0484 26.7600 102.7994 0.0000 0.0000 0.0000
# 2 26.7600 15.0687 19.8703 0.0000 0.0000 0.0000
# 3 102.7994 19.8703 166.2102 0.0000 0.0000 0.0000
# 4 0.0000 0.0000 0.0000 10.2611 0.0000 0.0000
# 5 0.0000 0.0000 0.0000 0.0000 38.7619 0.0000
# 6 0.0000 0.0000 0.0000 0.0000 0.0000 26.9103
#
#
#
# Elastic Compliance Matrix: (Units=1/GPa)
#
#
# Indices 1 2 3 4 5 6 
#
# 1 0.008852 -0.010091 -0.004268 0.000000 0.000000 0.000000
# 2 -0.010091 0.090287 -0.004552 0.000000 0.000000 0.000000
# 3 -0.004268 -0.004552 0.009201 0.000000 0.000000 0.000000
# 4 0.000000 0.000000 0.000000 0.097455 0.000000 0.000000
# 5 0.000000 0.000000 0.000000 0.000000 0.025799 0.000000
# 6 0.000000 0.000000 0.000000 0.000000 0.000000 0.037160
#
#
# Mechanical properties :
#
#
# Convention : Reuss Voigt Hill
#
# Bulk Modulus (GPa) = 14.18134 74.79852 44.48993
# Shear Modulus (GPa) = 15.14774 30.17985 22.66379
#
# Velocity S-wave (km/s) = 2.85635 4.03178 3.49385
# Velocity P-wave (km/s) = 4.30309 7.87153 6.34341
#
# Compressibility (1/GPa) = 0.07051519
#
# Stress axis : x y z
#
# Youngs Moduli (GPa) = 112.97146 11.07584 108.68799
#
# Poissons Ratio (x) = 0.11177 0.46392
# Poissons Ratio (y) = 1.14002 0.49479
# Poissons Ratio (z) = 0.48220 0.05042
#
# Static dielectric constant tensor:
#      x y z
#    x 3.627650 0.000000 0.000000 
#    y 0.000000 2.899720 0.000000 
#    z 0.000000 0.000000 3.785020 
# 
# 
# High freq. dielectric constant tensor:
#      x y z
#    x 1.733310 0.000000 0.000000 
#    y 0.000000 1.663290 0.000000 
#    z 0.000000 0.000000 1.744010 
# 
# From -- ./inp_files/61291.got.cif
#   From: 2010.03.12/outbox.cif.g09.slc.cpg/sg65_31_cif.got.tgz:61291.got - 2010.04.10 20:52:16.
