data_PCOD8267746
_publ_section_title
;
Structure prediction by ZEFSAII (Michael W. Deem and Ramdas Pophale) SiO2 
 PCOD8267746
Probable space group: C M M M
;
_chemical_formula_sum "Si O2"
_cell_formula_units_Z 120
_cell_length_a 28.033415
_cell_length_b 9.403024
_cell_length_c 28.426890
_cell_angle_alpha 90.000000
_cell_angle_beta 90.000000
_cell_angle_gamma 90.000000
_cell_volume 7493.296197
_symmetry_space_group_name_H-M "C M M M"
_symmetry_group_IT_number 65
_symmetry_cell_setting 'orthorhombic'
loop_
_space_group_symop_operation_xyz
x,y,z
-x,-y,z
x,-y,-z
-x,y,-z
-x,-y,-z
x,y,-z
-x,y,z
x,-y,z
1/2+x,1/2+y,z
1/2-x,1/2-y,z
1/2+x,1/2-y,-z
1/2-x,1/2+y,-z
1/2-x,1/2-y,-z
1/2+x,1/2+y,-z
1/2-x,1/2+y,z
1/2+x,1/2-y,z
loop_
_atom_site_type_symbol
_atom_site_label
_atom_site_fract_x
_atom_site_fract_y
_atom_site_fract_z
Si Si1 0.614201 0.166199 0.230329
Si Si2 0.445977 0.331101 0.500000
Si Si3 0.397681 0.668164 0.404628
Si Si4 0.444702 0.838192 0.322430
Si Si5 0.297107 0.332820 0.260926
Si Si6 0.945456 0.665764 0.139139
Si Si7 0.056680 0.160311 0.051585
Si Si8 0.295870 0.663987 0.629703
O O1 0.582421 0.204334 0.275206
O O2 0.660522 0.265189 0.230777
O O3 0.584824 0.209713 0.184363
O O4 0.628591 0.000000 0.230054
O O5 0.447620 0.500000 0.500000
O O6 0.500000 0.270050 0.500000
O O7 0.417513 0.275876 0.545595
O O8 0.403272 0.500000 0.399217
O O9 0.429258 0.736868 0.364322
O O10 0.342139 0.712123 0.400014
O O11 0.500000 0.815920 0.311918
O O12 0.433271 0.000000 0.337008
O O13 0.292108 0.500000 0.250061
O O14 0.250000 0.250000 0.244919
O O15 0.307040 0.304049 0.315893
O O16 0.942425 0.500000 0.129193
O O17 0.922935 0.741664 0.093263
O O18 0.000000 0.713281 0.148233
O O19 0.000000 0.168050 0.051912
O O20 0.074161 0.000000 0.060738
O O21 0.075068 0.211968 0.000000
O O22 0.283809 0.500000 0.621579
O O23 0.250000 0.750000 0.611538
#
# Coordination Sequence:
#
# PCOD8267746 Si02
#       8
#    16   8  16  16  16  16  16  16
#     4  10  19  31  46  66  95 127 156 189 231 277
#     4   9  18  32  52  73  93 121 153 189 234 275
#     4  10  19  34  52  72  93 118 155 194 229 272
#     4  10  20  32  47  68  94 125 157 188 226 272
#     4  10  19  32  49  70  93 119 153 190 233 279
#     4   9  17  28  42  62  91 127 163 197 233 275
#     4   8  14  25  40  58  83 118 160 203 243 279
#     4   9  18  31  49  71  94 117 145 185 229 275
#
# _framework density 16.014313999999999
#
# number of rings (size 3 to 8) (size 9 to 14) (size 15 to 20)
#    0.000    2.600    1.333    1.600    0.000    4.267 
#    0.000    2.000    0.000    3.600    0.000    0.000 
#    0.000    0.533    0.000    1.733    0.000    2.533 
#
# Total GULP energy -743951.984589 kJ/mol
# GULP energy per Si atom -12399.199743 kJ/mol
# Density = 1.597786 g / cm^3
# Si number density = 16.014314 Si / 1000 Ang^3
#
#
#
# Elastic Constant Matrix: (Units=GPa)
#
#
# Indices 1 2 3 4 5 6 
#
# 1 102.2060 45.8879 55.9506 0.0000 0.0000 0.0000
# 2 45.8879 55.3947 48.8856 0.0000 0.0000 0.0000
# 3 55.9506 48.8856 124.7950 0.0000 0.0000 0.0000
# 4 0.0000 0.0000 0.0000 22.5868 0.0000 0.0000
# 5 0.0000 0.0000 0.0000 0.0000 6.6200 0.0000
# 6 0.0000 0.0000 0.0000 0.0000 0.0000 25.9639
#
#
#
# Elastic Compliance Matrix: (Units=1/GPa)
#
#
# Indices 1 2 3 4 5 6 
#
# 1 0.016322 -0.010794 -0.003089 0.000000 0.000000 0.000000
# 2 -0.010794 0.034729 -0.008765 0.000000 0.000000 0.000000
# 3 -0.003089 -0.008765 0.012832 0.000000 0.000000 0.000000
# 4 0.000000 0.000000 0.000000 0.044274 0.000000 0.000000
# 5 0.000000 0.000000 0.000000 0.000000 0.151058 0.000000
# 6 0.000000 0.000000 0.000000 0.000000 0.000000 0.038515
#
#
# Mechanical properties :
#
#
# Convention : Reuss Voigt Hill
#
# Bulk Modulus (GPa) = 53.80520 64.87154 59.33837
# Shear Modulus (GPa) = 14.31762 19.81225 17.06494
#
# Velocity S-wave (km/s) = 2.99331 3.52114 3.26790
# Velocity P-wave (km/s) = 6.75409 7.55829 7.16747
#
# Compressibility (1/GPa) = 0.01858556
#
# Stress axis : x y z
#
# Youngs Moduli (GPa) = 61.26822 28.79450 77.93296
#
# Poissons Ratio (x) = 0.31082 0.24075
# Poissons Ratio (y) = 0.66135 0.68306
# Poissons Ratio (z) = 0.18927 0.25238
#
# Static dielectric constant tensor:
#      x y z
#    x 2.980600 0.000000 0.000000 
#    y 0.000000 3.027580 0.000000 
#    z 0.000000 0.000000 3.155320 
# 
# 
# High freq. dielectric constant tensor:
#      x y z
#    x 1.600370 0.000000 0.000000 
#    y 0.000000 1.610470 0.000000 
#    z 0.000000 0.000000 1.604880 
# 
# From -- ./inp_files/76104.got.cif
#   From: 2010.03.12/outbox.cif.g09.slc.cpg/sg65_39_cif.got.tgz:76104.got - 2010.04.10 20:52:16.
