data_PCOD8267316
_publ_section_title
;
Structure prediction by ZEFSAII (Michael W. Deem and Ramdas Pophale) SiO2 
 PCOD8267316
Probable space group: C M M M
;
_chemical_formula_sum "Si O2"
_cell_formula_units_Z 96
_cell_length_a 26.532920
_cell_length_b 28.507705
_cell_length_c 8.987796
_cell_angle_alpha 90.000000
_cell_angle_beta 90.000000
_cell_angle_gamma 90.000000
_cell_volume 6798.302889
_symmetry_space_group_name_H-M "C M M M"
_symmetry_group_IT_number 65
_symmetry_cell_setting 'orthorhombic'
loop_
_space_group_symop_operation_xyz
x,y,z
-x,-y,z
x,-y,-z
-x,y,-z
-x,-y,-z
x,y,-z
-x,y,z
x,-y,z
1/2+x,1/2+y,z
1/2-x,1/2-y,z
1/2+x,1/2-y,-z
1/2-x,1/2+y,-z
1/2-x,1/2-y,-z
1/2+x,1/2+y,-z
1/2-x,1/2+y,z
1/2+x,1/2-y,z
loop_
_atom_site_type_symbol
_atom_site_label
_atom_site_fract_x
_atom_site_fract_y
_atom_site_fract_z
Si Si1 0.151506 0.308405 0.325925
Si Si2 0.755922 0.641388 0.824718
Si Si3 0.284923 0.052992 0.325681
Si Si4 0.390401 0.946927 0.829138
Si Si5 0.943523 0.632948 0.328638
Si Si6 0.299108 0.717826 0.335378
O O1 0.164907 0.315071 0.500000
O O2 0.190828 0.338961 0.232366
O O3 0.095163 0.325307 0.287411
O O4 0.155708 0.252861 0.283927
O O5 0.747773 0.589362 0.756951
O O6 0.709022 0.674287 0.775602
O O7 0.756582 0.638319 0.000000
O O8 0.283683 0.063002 0.500000
O O9 0.341373 0.061854 0.269910
O O10 0.267370 0.000000 0.288196
O O11 0.434055 0.912653 0.772181
O O12 0.410192 0.000000 0.811170
O O13 0.376775 0.935877 0.000000
O O14 0.936954 0.618076 0.500000
O O15 0.000000 0.651321 0.296655
O O16 0.309699 0.697430 0.500000
O O17 0.250000 0.750000 0.337115
#
# Coordination Sequence:
#
# PCOD8267316 Si02
#       6
#    16  16  16  16  16  16
#     4   9  17  30  44  57  77 103 130 162 198 237
#     4  11  19  26  41  63  83 101 124 159 198 236
#     4  10  19  30  44  59  77 104 134 162 195 238
#     4  10  20  32  44  58  75  97 128 168 213 250
#     4  10  20  32  46  61  76 100 134 168 204 246
#     4   8  15  27  42  58  77 102 128 155 191 234
#
# _framework density 14.121171
#
# number of rings (size 3 to 8) (size 9 to 14) (size 15 to 20)
#    0.000    2.333    1.667    3.500    0.000    5.667 
#    0.000    1.667    0.000    0.000    0.000    0.000 
#    0.000    0.000    0.000    0.000    0.000    0.833 
#
# Total GULP energy -595031.759883 kJ/mol
# GULP energy per Si atom -12396.494998 kJ/mol
# Density = 1.408903 g / cm^3
# Si number density = 14.121171 Si / 1000 Ang^3
#
#
#
# Elastic Constant Matrix: (Units=GPa)
#
#
# Indices 1 2 3 4 5 6 
#
# 1 49.0095 51.2850 26.2092 0.0000 0.0000 0.0000
# 2 51.2850 107.2417 56.2834 0.0000 0.0000 0.0000
# 3 26.2092 56.2834 86.6368 0.0000 0.0000 0.0000
# 4 0.0000 0.0000 0.0000 18.5102 0.0000 0.0000
# 5 0.0000 0.0000 0.0000 0.0000 7.5467 0.0000
# 6 0.0000 0.0000 0.0000 0.0000 0.0000 19.8124
#
#
#
# Elastic Compliance Matrix: (Units=1/GPa)
#
#
# Indices 1 2 3 4 5 6 
#
# 1 0.040857 -0.019804 0.000506 0.000000 0.000000 0.000000
# 2 -0.019804 0.023748 -0.009437 0.000000 0.000000 0.000000
# 3 0.000506 -0.009437 0.017520 0.000000 0.000000 0.000000
# 4 0.000000 0.000000 0.000000 0.054024 0.000000 0.000000
# 5 0.000000 0.000000 0.000000 0.000000 0.132509 0.000000
# 6 0.000000 0.000000 0.000000 0.000000 0.000000 0.050473
#
#
# Mechanical properties :
#
#
# Convention : Reuss Voigt Hill
#
# Bulk Modulus (GPa) = 40.55978 56.71591 48.63785
# Shear Modulus (GPa) = 12.99306 16.44789 14.72047
#
# Velocity S-wave (km/s) = 3.03663 3.41657 3.23219
# Velocity P-wave (km/s) = 6.40935 7.47094 6.96041
#
# Compressibility (1/GPa) = 0.02465496
#
# Stress axis : x y z
#
# Youngs Moduli (GPa) = 24.47536 42.10856 57.07735
#
# Poissons Ratio (x) = 0.83392 -0.02886
# Poissons Ratio (y) = 0.48471 0.53863
# Poissons Ratio (z) = -0.01238 0.39737
#
# Static dielectric constant tensor:
#      x y z
#    x 2.554950 0.000000 0.000000 
#    y 0.000000 3.066200 0.000000 
#    z 0.000000 0.000000 2.805030 
# 
# 
# High freq. dielectric constant tensor:
#      x y z
#    x 1.482110 0.000000 0.000000 
#    y 0.000000 1.537690 0.000000 
#    z 0.000000 0.000000 1.547640 
# 
# From -- ./inp_files/16917.got.cif
#   From: 2010.03.12/outbox.cif.g09.slc.cpg/sg65_9_cif.got.tgz:16917.got - 2010.04.10 20:52:16.
