data_PCOD8267935
_publ_section_title
;
Structure prediction by ZEFSAII (Michael W. Deem and Ramdas Pophale) SiO2 
 PCOD8267935
Probable space group: C M M M
;
_chemical_formula_sum "Si O2"
_cell_formula_units_Z 96
_cell_length_a 19.008571
_cell_length_b 16.775750
_cell_length_c 16.028268
_cell_angle_alpha 90.000000
_cell_angle_beta 90.000000
_cell_angle_gamma 90.000000
_cell_volume 5111.142745
_symmetry_space_group_name_H-M "C M M M"
_symmetry_group_IT_number 65
_symmetry_cell_setting 'orthorhombic'
loop_
_space_group_symop_operation_xyz
x,y,z
-x,-y,z
x,-y,-z
-x,y,-z
-x,-y,-z
x,y,-z
-x,y,z
x,-y,z
1/2+x,1/2+y,z
1/2-x,1/2-y,z
1/2+x,1/2-y,-z
1/2-x,1/2+y,-z
1/2-x,1/2-y,-z
1/2+x,1/2+y,-z
1/2-x,1/2+y,z
1/2+x,1/2-y,z
loop_
_atom_site_type_symbol
_atom_site_label
_atom_site_fract_x
_atom_site_fract_y
_atom_site_fract_z
Si Si1 0.922410 0.174755 0.331661
Si Si2 0.077857 0.355664 0.289736
Si Si3 0.640311 0.405173 0.174007
Si Si4 0.578620 0.594514 0.000000
Si Si5 0.776178 0.839048 0.405620
Si Si6 0.214925 0.408729 0.754598
Si Si7 0.918017 0.500000 0.408675
O O1 0.923653 0.269950 0.330761
O O2 0.909507 0.139276 0.239707
O O3 0.860653 0.149986 0.394739
O O4 0.000000 0.145156 0.362020
O O5 0.142398 0.360796 0.223008
O O6 0.102308 0.420250 0.358654
O O7 0.000000 0.376101 0.252109
O O8 0.631233 0.500000 0.186472
O O9 0.619001 0.375686 0.082181
O O10 0.721334 0.378419 0.187198
O O11 0.575388 0.500000 0.000000
O O12 0.500000 0.630214 0.000000
O O13 0.756915 0.862906 0.500000
O O14 0.750000 0.750000 0.384700
O O15 0.737303 0.897751 0.342149
O O16 0.199284 0.500000 0.772614
O O17 0.880879 0.500000 0.500000
O O18 0.000000 0.500000 0.423288
#
# Coordination Sequence:
#
# PCOD8267935 Si02
#       7
#    16  16  16   8  16  16   8
#     4  10  20  33  51  74 102 137 172 209 255 308
#     4  10  19  31  48  72  99 132 174 213 259 307
#     4   9  19  33  54  81 108 134 164 202 255 314
#     4   9  16  30  54  83 109 130 158 205 263 314
#     4  10  20  33  47  66  94 130 170 211 252 296
#     4  10  19  33  50  71  98 134 170 208 255 308
#     4   9  18  30  44  68 102 129 163 224 278 305
#
# _framework density 18.782492000000001
#
# number of rings (size 3 to 8) (size 9 to 14) (size 15 to 20)
#    0.000    2.333    2.500    0.500    0.000    3.000 
#    0.000    1.667    0.000    2.000    0.000    6.417 
#    0.000    3.333    0.000    0.750    0.000    0.000 
#
# Total GULP energy -594807.142198 kJ/mol
# GULP energy per Si atom -12391.815462 kJ/mol
# Density = 1.873974 g / cm^3
# Si number density = 18.782492 Si / 1000 Ang^3
#
#
#
# Elastic Constant Matrix: (Units=GPa)
#
#
# Indices 1 2 3 4 5 6 
#
# 1 163.7222 3.5866 28.7946 0.0000 0.0000 0.0000
# 2 3.5866 37.7895 8.9873 0.0000 0.0000 0.0000
# 3 28.7946 8.9873 82.9187 0.0000 0.0000 0.0000
# 4 0.0000 0.0000 0.0000 11.3777 0.0000 0.0000
# 5 0.0000 0.0000 0.0000 0.0000 19.2423 0.0000
# 6 0.0000 0.0000 0.0000 0.0000 0.0000 24.5543
#
#
#
# Elastic Compliance Matrix: (Units=1/GPa)
#
#
# Indices 1 2 3 4 5 6 
#
# 1 0.006505 -0.000082 -0.002250 0.000000 0.000000 0.000000
# 2 -0.000082 0.027164 -0.002916 0.000000 0.000000 0.000000
# 3 -0.002250 -0.002916 0.013157 0.000000 0.000000 0.000000
# 4 0.000000 0.000000 0.000000 0.087891 0.000000 0.000000
# 5 0.000000 0.000000 0.000000 0.000000 0.051969 0.000000
# 6 0.000000 0.000000 0.000000 0.000000 0.000000 0.040726
#
#
# Mechanical properties :
#
#
# Convention : Reuss Voigt Hill
#
# Bulk Modulus (GPa) = 27.52520 40.79637 34.16078
# Shear Modulus (GPa) = 19.99850 27.23899 23.61874
#
# Velocity S-wave (km/s) = 3.26658 3.81232 3.54995
# Velocity P-wave (km/s) = 5.37716 6.41451 5.91861
#
# Compressibility (1/GPa) = 0.03633035
#
# Stress axis : x y z
#
# Youngs Moduli (GPa) = 153.71707 36.81394 76.00268
#
# Poissons Ratio (x) = 0.00303 0.17102
# Poissons Ratio (y) = 0.01265 0.22160
# Poissons Ratio (z) = 0.34589 0.10734
#
# Static dielectric constant tensor:
#      x y z
#    x 4.055600 0.000000 0.000000 
#    y 0.000000 3.290920 0.000000 
#    z 0.000000 0.000000 3.215340 
# 
# 
# High freq. dielectric constant tensor:
#      x y z
#    x 1.759240 0.000000 0.000000 
#    y 0.000000 1.714410 0.000000 
#    z 0.000000 0.000000 1.678900 
# 
# From -- ./inp_files/55978.got.cif
#   From: 2010.03.12/outbox.cif.g09.slc.cpg/sg65_28_cif.got.tgz:55978.got - 2010.04.10 20:52:16.
