data_PCOD8267166
_publ_section_title
;
Structure prediction by ZEFSAII (Michael W. Deem and Ramdas Pophale) SiO2 
 PCOD8267166
Probable space group: C M M M
;
_chemical_formula_sum "Si O2"
_cell_formula_units_Z 88
_cell_length_a 27.127006
_cell_length_b 14.387007
_cell_length_c 14.317592
_cell_angle_alpha 90.000000
_cell_angle_beta 90.000000
_cell_angle_gamma 90.000000
_cell_volume 5587.818623
_symmetry_space_group_name_H-M "C M M M"
_symmetry_group_IT_number 65
_symmetry_cell_setting 'orthorhombic'
loop_
_space_group_symop_operation_xyz
x,y,z
-x,-y,z
x,-y,-z
-x,y,-z
-x,-y,-z
x,y,-z
-x,y,z
x,-y,z
1/2+x,1/2+y,z
1/2-x,1/2-y,z
1/2+x,1/2-y,-z
1/2-x,1/2+y,-z
1/2-x,1/2-y,-z
1/2+x,1/2+y,-z
1/2-x,1/2+y,z
1/2+x,1/2-y,z
loop_
_atom_site_type_symbol
_atom_site_label
_atom_site_fract_x
_atom_site_fract_y
_atom_site_fract_z
Si Si1 0.323219 0.390259 0.249532
Si Si2 0.308482 0.248317 0.396798
Si Si3 0.870471 0.600953 0.892547
Si Si4 0.288727 0.896520 0.747726
Si Si5 0.599653 0.300547 0.889780
Si Si6 0.500000 0.604410 0.889185
O O1 0.333051 0.500000 0.258393
O O2 0.332909 0.340357 0.349613
O O3 0.266506 0.363197 0.227411
O O4 0.355966 0.348200 0.166512
O O5 0.332344 0.236678 0.500000
O O6 0.250000 0.250000 0.407788
O O7 0.319124 0.161443 0.329433
O O8 0.895485 0.500000 0.866535
O O9 0.818036 0.610341 0.843472
O O10 0.904499 0.689805 0.868218
O O11 0.856884 0.603201 0.000000
O O12 0.286145 0.000000 0.706557
O O13 0.548593 0.343402 0.852739
O O14 0.608051 0.320113 0.000000
O O15 0.500000 0.500000 0.848942
O O16 0.500000 0.603696 0.000000
#
# Coordination Sequence:
#
# PCOD8267166 Si02
#       6
#    16  16  16  16  16   8
#     4  10  19  29  43  65  91 121 156 188 222 265
#     4   9  17  29  43  61  88 119 152 188 226 265
#     4   9  17  29  45  66  93 122 147 176 219 269
#     4   9  17  29  44  64  93 122 151 186 220 262
#     4  10  19  31  48  67  90 120 153 189 228 268
#     4   9  18  32  47  65  90 118 150 189 229 265
#
# _framework density 15.748543
#
# number of rings (size 3 to 8) (size 9 to 14) (size 15 to 20)
#    0.000    2.636    1.818    0.545    0.000    2.545 
#    0.000    7.727    0.000    2.727    0.000    0.636 
#    0.000    2.182    0.000    4.000    0.000    0.364 
#
# Total GULP energy -545132.269935 kJ/mol
# GULP energy per Si atom -12389.369771 kJ/mol
# Density = 1.571270 g / cm^3
# Si number density = 15.748543 Si / 1000 Ang^3
#
#
#
# Elastic Constant Matrix: (Units=GPa)
#
#
# Indices 1 2 3 4 5 6 
#
# 1 61.3037 55.4131 34.3142 0.0000 0.0000 0.0000
# 2 55.4131 141.2285 50.4826 0.0000 0.0000 0.0000
# 3 34.3142 50.4826 65.4406 0.0000 0.0000 0.0000
# 4 0.0000 0.0000 0.0000 17.8333 0.0000 0.0000
# 5 0.0000 0.0000 0.0000 0.0000 5.2657 0.0000
# 6 0.0000 0.0000 0.0000 0.0000 0.0000 21.8096
#
#
#
# Elastic Compliance Matrix: (Units=1/GPa)
#
#
# Indices 1 2 3 4 5 6 
#
# 1 0.028473 -0.008057 -0.008715 0.000000 0.000000 0.000000
# 2 -0.008057 0.012056 -0.005076 0.000000 0.000000 0.000000
# 3 -0.008715 -0.005076 0.023766 0.000000 0.000000 0.000000
# 4 0.000000 0.000000 0.000000 0.056075 0.000000 0.000000
# 5 0.000000 0.000000 0.000000 0.000000 0.189908 0.000000
# 6 0.000000 0.000000 0.000000 0.000000 0.000000 0.045851
#
#
# Mechanical properties :
#
#
# Convention : Reuss Voigt Hill
#
# Bulk Modulus (GPa) = 48.54212 60.93251 54.73732
# Shear Modulus (GPa) = 12.29435 17.49925 14.89680
#
# Velocity S-wave (km/s) = 2.79707 3.33703 3.07891
# Velocity P-wave (km/s) = 6.42819 7.32275 6.89000
#
# Compressibility (1/GPa) = 0.02060066
#
# Stress axis : x y z
#
# Youngs Moduli (GPa) = 35.12143 82.94445 42.07605
#
# Poissons Ratio (x) = 0.66824 0.36669
# Poissons Ratio (y) = 0.28296 0.21358
# Poissons Ratio (z) = 0.30608 0.42103
#
# Static dielectric constant tensor:
#      x y z
#    x 2.732340 0.000000 0.000000 
#    y 0.000000 3.487780 0.000000 
#    z 0.000000 0.000000 3.021220 
# 
# 
# High freq. dielectric constant tensor:
#      x y z
#    x 1.560030 0.000000 0.000000 
#    y 0.000000 1.629630 0.000000 
#    z 0.000000 0.000000 1.586270 
# 
# From -- ./inp_files/25111.got.cif
#   From: 2010.03.12/outbox.cif.g09.slc.cpg/sg65_13_cif.got.tgz:25111.got - 2010.04.10 20:52:16.
