data_PCOD8267268
_publ_section_title
;
Structure prediction by ZEFSAII (Michael W. Deem and Ramdas Pophale) SiO2 
 PCOD8267268
Probable space group: C M M M
;
_chemical_formula_sum "Si O2"
_cell_formula_units_Z 72
_cell_length_a 15.869346
_cell_length_b 8.765487
_cell_length_c 26.076728
_cell_angle_alpha 90.000000
_cell_angle_beta 90.000000
_cell_angle_gamma 90.000000
_cell_volume 3627.339258
_symmetry_space_group_name_H-M "C M M M"
_symmetry_group_IT_number 65
_symmetry_cell_setting 'orthorhombic'
loop_
_space_group_symop_operation_xyz
x,y,z
-x,-y,z
x,-y,-z
-x,y,-z
-x,-y,-z
x,y,-z
-x,y,z
x,-y,z
1/2+x,1/2+y,z
1/2-x,1/2-y,z
1/2+x,1/2-y,-z
1/2-x,1/2+y,-z
1/2-x,1/2-y,-z
1/2+x,1/2+y,-z
1/2-x,1/2+y,z
1/2+x,1/2-y,z
loop_
_atom_site_type_symbol
_atom_site_label
_atom_site_fract_x
_atom_site_fract_y
_atom_site_fract_z
Si Si1 0.000000 0.180649 0.275677
Si Si2 0.159587 0.181785 0.000000
Si Si3 0.336033 0.679911 0.788068
Si Si4 0.162131 0.822867 0.560229
Si Si5 0.407075 0.318821 0.892750
Si Si6 0.000000 0.680190 0.386536
O O1 0.916623 0.231512 0.244861
O O2 0.000000 0.273528 0.327715
O O3 0.000000 0.000000 0.286238
O O4 0.250000 0.250000 0.000000
O O5 0.116018 0.246954 0.948650
O O6 0.160505 0.000000 0.000000
O O7 0.328003 0.500000 0.786284
O O8 0.250000 0.750000 0.765265
O O9 0.346774 0.739020 0.846907
O O10 0.151145 0.796576 0.500000
O O11 0.250000 0.750000 0.579514
O O12 0.083764 0.744512 0.587440
O O13 0.163081 0.000000 0.574926
O O14 0.500000 0.261233 0.878813
O O15 0.404334 0.500000 0.894968
O O16 0.000000 0.500000 0.392678
#
# Coordination Sequence:
#
# PCOD8267268 Si02
#       6
#     8   8  16  16  16   8
#     4  10  22  41  59  77 108 151 194 241 294 349
#     4  10  19  29  47  75 107 138 172 219 269 331
#     4  10  20  36  59  81 105 141 185 234 287 345
#     4  10  21  39  64  94 128 165 204 245 291 347
#     4   9  16  30  52  77 103 136 181 223 268 333
#     4  12  25  39  60  89 123 161 203 251 300 353
#
# _framework density 19.849259
#
# number of rings (size 3 to 8) (size 9 to 14) (size 15 to 20)
#    0.000    2.000    1.111    3.000    0.000    5.778 
#    0.000    2.222    0.000    2.667    0.000    0.000 
#    0.000    0.000    0.000    0.000    0.000    0.000 
#
# Total GULP energy -446306.524061 kJ/mol
# GULP energy per Si atom -12397.403446 kJ/mol
# Density = 1.980408 g / cm^3
# Si number density = 19.849259 Si / 1000 Ang^3
#
#
#
# Elastic Constant Matrix: (Units=GPa)
#
#
# Indices 1 2 3 4 5 6 
#
# 1 194.0444 56.5116 76.7092 0.0000 0.0000 0.0000
# 2 56.5116 69.9383 56.2302 0.0000 0.0000 0.0000
# 3 76.7092 56.2302 105.5854 0.0000 0.0000 0.0000
# 4 0.0000 0.0000 0.0000 20.1010 0.0000 0.0000
# 5 0.0000 0.0000 0.0000 0.0000 24.4462 0.0000
# 6 0.0000 0.0000 0.0000 0.0000 0.0000 36.4827
#
#
#
# Elastic Compliance Matrix: (Units=1/GPa)
#
#
# Indices 1 2 3 4 5 6 
#
# 1 0.007565 -0.002962 -0.003919 0.000000 0.000000 0.000000
# 2 -0.002962 0.026165 -0.011782 0.000000 0.000000 0.000000
# 3 -0.003919 -0.011782 0.018593 0.000000 0.000000 0.000000
# 4 0.000000 0.000000 0.000000 0.049749 0.000000 0.000000
# 5 0.000000 0.000000 0.000000 0.000000 0.040906 0.000000
# 6 0.000000 0.000000 0.000000 0.000000 0.000000 0.027410
#
#
# Mechanical properties :
#
#
# Convention : Reuss Voigt Hill
#
# Bulk Modulus (GPa) = 66.68222 83.16334 74.92278
# Shear Modulus (GPa) = 23.50592 28.21380 25.85986
#
# Velocity S-wave (km/s) = 3.44499 3.77424 3.61336
# Velocity P-wave (km/s) = 7.03499 7.80907 7.43212
#
# Compressibility (1/GPa) = 0.01499650
#
# Stress axis : x y z
#
# Youngs Moduli (GPa) = 132.18242 38.21960 53.78493
#
# Poissons Ratio (x) = 0.11322 0.21077
# Poissons Ratio (y) = 0.39156 0.63369
# Poissons Ratio (z) = 0.51798 0.45030
#
# Static dielectric constant tensor:
#      x y z
#    x 3.842600 0.000000 0.000000 
#    y 0.000000 3.339570 0.000000 
#    z 0.000000 0.000000 8.616640 
# 
# 
# High freq. dielectric constant tensor:
#      x y z
#    x 1.792080 0.000000 0.000000 
#    y 0.000000 1.744720 0.000000 
#    z 0.000000 0.000000 1.779390 
# 
# From -- ./inp_files/72629.got.cif
#   From: 2010.03.12/outbox.cif.g09.slc.cpg/sg65_37_cif.got.tgz:72629.got - 2010.04.10 20:52:16.
