data_PCOD8267799
_publ_section_title
;
Structure prediction by ZEFSAII (Michael W. Deem and Ramdas Pophale) SiO2 
 PCOD8267799
Probable space group: C M M M
;
_chemical_formula_sum "Si O2"
_cell_formula_units_Z 80
_cell_length_a 8.933818
_cell_length_b 27.369004
_cell_length_c 18.687347
_cell_angle_alpha 90.000000
_cell_angle_beta 90.000000
_cell_angle_gamma 90.000000
_cell_volume 4569.237620
_symmetry_space_group_name_H-M "C M M M"
_symmetry_group_IT_number 65
_symmetry_cell_setting 'orthorhombic'
loop_
_space_group_symop_operation_xyz
x,y,z
-x,-y,z
x,-y,-z
-x,y,-z
-x,-y,-z
x,y,-z
-x,y,z
x,-y,z
1/2+x,1/2+y,z
1/2-x,1/2-y,z
1/2+x,1/2-y,-z
1/2-x,1/2+y,-z
1/2-x,1/2-y,-z
1/2+x,1/2+y,-z
1/2-x,1/2+y,z
1/2+x,1/2-y,z
loop_
_atom_site_type_symbol
_atom_site_label
_atom_site_fract_x
_atom_site_fract_y
_atom_site_fract_z
Si Si1 0.325513 0.301211 0.582509
Si Si2 0.323873 0.299433 0.833735
Si Si3 0.822557 0.352714 0.706012
Si Si4 0.325419 0.054513 0.793326
Si Si5 0.324872 0.394823 0.080173
O O1 0.297367 0.314401 0.500000
O O2 0.500000 0.297574 0.600719
O O3 0.250000 0.250000 0.602882
O O4 0.248782 0.344376 0.628047
O O5 0.500000 0.292835 0.821416
O O6 0.250000 0.250000 0.863377
O O7 0.246247 0.312438 0.758749
O O8 0.287225 0.340609 0.892172
O O9 0.774610 0.406903 0.732636
O O10 0.000000 0.346464 0.702442
O O11 0.500000 0.059787 0.807254
O O12 0.248235 0.064775 0.869120
O O13 0.282101 0.000000 0.767314
O O14 0.500000 0.404442 0.081172
O O15 0.260346 0.400260 0.000000
#
# Coordination Sequence:
#
# PCOD8267799 Si02
#       5
#    16  16  16  16  16
#     4  10  20  33  50  74 104 134 162 192 228 273
#     4  10  19  31  47  67  94 127 162 198 236 281
#     4  10  19  32  51  72  96 126 160 198 237 280
#     4   9  19  35  53  73  95 121 157 200 244 287
#     4   9  19  34  49  68  95 125 158 197 241 289
#
# _framework density 17.508392000000001
#
# number of rings (size 3 to 8) (size 9 to 14) (size 15 to 20)
#    0.000    2.400    0.000    2.400    0.000    4.400 
#    0.000    2.000    0.000    0.600    0.000    4.200 
#    0.000    0.000    0.000    0.000    0.000    0.000 
#
# Total GULP energy -496069.301017 kJ/mol
# GULP energy per Si atom -12401.732525 kJ/mol
# Density = 1.746854 g / cm^3
# Si number density = 17.508392 Si / 1000 Ang^3
#
#
#
# Elastic Constant Matrix: (Units=GPa)
#
#
# Indices 1 2 3 4 5 6 
#
# 1 73.4181 41.5087 45.8346 0.0000 0.0000 0.0000
# 2 41.5087 107.4270 53.9804 0.0000 0.0000 0.0000
# 3 45.8346 53.9804 113.9745 0.0000 0.0000 0.0000
# 4 0.0000 0.0000 0.0000 18.9561 0.0000 0.0000
# 5 0.0000 0.0000 0.0000 0.0000 27.3167 0.0000
# 6 0.0000 0.0000 0.0000 0.0000 0.0000 25.5083
#
#
#
# Elastic Compliance Matrix: (Units=1/GPa)
#
#
# Indices 1 2 3 4 5 6 
#
# 1 0.019922 -0.004819 -0.005729 0.000000 0.000000 0.000000
# 2 -0.004819 0.013381 -0.004400 0.000000 0.000000 0.000000
# 3 -0.005729 -0.004400 0.013162 0.000000 0.000000 0.000000
# 4 0.000000 0.000000 0.000000 0.052753 0.000000 0.000000
# 5 0.000000 0.000000 0.000000 0.000000 0.036608 0.000000
# 6 0.000000 0.000000 0.000000 0.000000 0.000000 0.039203
#
#
# Mechanical properties :
#
#
# Convention : Reuss Voigt Hill
#
# Bulk Modulus (GPa) = 60.35266 64.16301 62.25783
# Shear Modulus (GPa) = 23.75889 24.58928 24.17409
#
# Velocity S-wave (km/s) = 3.68774 3.75164 3.71983
# Velocity P-wave (km/s) = 7.25797 7.44936 7.35429
#
# Compressibility (1/GPa) = 0.01656928
#
# Stress axis : x y z
#
# Youngs Moduli (GPa) = 50.19648 74.73054 75.97773
#
# Poissons Ratio (x) = 0.36010 0.43530
# Poissons Ratio (y) = 0.24188 0.33429
# Poissons Ratio (z) = 0.28759 0.32880
#
# Static dielectric constant tensor:
#      x y z
#    x 3.296110 0.000000 0.000000 
#    y 0.000000 3.304440 0.000000 
#    z 0.000000 0.000000 3.282560 
# 
# 
# High freq. dielectric constant tensor:
#      x y z
#    x 1.685610 0.000000 0.000000 
#    y 0.000000 1.667840 0.000000 
#    z 0.000000 0.000000 1.668050 
# 
# From -- ./inp_files/49844.got.cif
#   From: 2010.03.12/outbox.cif.g09.slc.cpg/sg65_25_cif.got.tgz:49844.got - 2010.04.10 20:52:16.
