data_PCOD8267034
_publ_section_title
;
Structure prediction by ZEFSAII (Michael W. Deem and Ramdas Pophale) SiO2 
 PCOD8267034
Probable space group: C M M M
;
_chemical_formula_sum "Si O2"
_cell_formula_units_Z 80
_cell_length_a 16.858662
_cell_length_b 27.014770
_cell_length_c 11.919271
_cell_angle_alpha 90.000000
_cell_angle_beta 90.000000
_cell_angle_gamma 90.000000
_cell_volume 5428.427877
_symmetry_space_group_name_H-M "C M M M"
_symmetry_group_IT_number 65
_symmetry_cell_setting 'orthorhombic'
loop_
_space_group_symop_operation_xyz
x,y,z
-x,-y,z
x,-y,-z
-x,y,-z
-x,-y,-z
x,y,-z
-x,y,z
x,-y,z
1/2+x,1/2+y,z
1/2-x,1/2-y,z
1/2+x,1/2-y,-z
1/2-x,1/2+y,-z
1/2-x,1/2-y,-z
1/2+x,1/2+y,-z
1/2-x,1/2+y,z
1/2+x,1/2-y,z
loop_
_atom_site_type_symbol
_atom_site_label
_atom_site_fract_x
_atom_site_fract_y
_atom_site_fract_z
Si Si1 0.412498 0.801741 0.000000
Si Si2 0.912791 0.186270 0.000000
Si Si3 0.591512 0.730865 0.629594
Si Si4 0.306725 0.794081 0.205322
Si Si5 0.907272 0.056125 0.128927
Si Si6 0.658886 0.350986 0.773344
O O1 0.363493 0.816821 0.110366
O O2 0.500000 0.827491 0.000000
O O3 0.426279 0.743967 0.000000
O O4 0.864203 0.172674 0.891226
O O5 0.000000 0.160125 0.000000
O O6 0.615193 0.731731 0.500000
O O7 0.500000 0.743883 0.649044
O O8 0.642807 0.772743 0.691334
O O9 0.608025 0.675577 0.676195
O O10 0.250000 0.750000 0.158245
O O11 0.252030 0.839802 0.247947
O O12 0.859460 0.090417 0.217498
O O13 0.000000 0.060380 0.155262
O O14 0.878076 0.000000 0.146714
O O15 0.890502 0.072844 0.000000
#
# Coordination Sequence:
#
# PCOD8267034 Si02
#       6
#     8   8  16  16  16  16
#     4  11  18  26  38  56  85 114 140 171 208 248
#     4  11  17  23  40  60  81 111 143 169 202 246
#     4  10  20  32  44  59  83 117 150 174 204 249
#     4  10  19  27  39  60  85 111 141 176 209 248
#     4   9  17  28  43  64  88 113 141 175 212 249
#     4  11  19  27  44  62  86 112 141 178 214 249
#
# _framework density 14.737232000000001
#
# number of rings (size 3 to 8) (size 9 to 14) (size 15 to 20)
#    0.000    1.800    5.000    3.900    0.000    3.600 
#    0.000    0.000    0.000    0.600    0.000    2.800 
#    0.000    4.000    0.000    2.200    0.000    0.000 
#
# Total GULP energy -495818.227102 kJ/mol
# GULP energy per Si atom -12395.455678 kJ/mol
# Density = 1.470369 g / cm^3
# Si number density = 14.737232 Si / 1000 Ang^3
#
#
#
# Elastic Constant Matrix: (Units=GPa)
#
#
# Indices 1 2 3 4 5 6 
#
# 1 86.4446 35.1870 44.1290 0.0000 0.0000 0.0000
# 2 35.1870 73.1544 28.1744 0.0000 0.0000 0.0000
# 3 44.1290 28.1744 88.9318 0.0000 0.0000 0.0000
# 4 0.0000 0.0000 0.0000 12.3358 0.0000 0.0000
# 5 0.0000 0.0000 0.0000 0.0000 21.9904 0.0000
# 6 0.0000 0.0000 0.0000 0.0000 0.0000 19.5102
#
#
#
# Elastic Compliance Matrix: (Units=1/GPa)
#
#
# Indices 1 2 3 4 5 6 
#
# 1 0.017378 -0.005738 -0.006805 0.000000 0.000000 0.000000
# 2 -0.005738 0.017464 -0.002686 0.000000 0.000000 0.000000
# 3 -0.006805 -0.002686 0.015472 0.000000 0.000000 0.000000
# 4 0.000000 0.000000 0.000000 0.081065 0.000000 0.000000
# 5 0.000000 0.000000 0.000000 0.000000 0.045474 0.000000
# 6 0.000000 0.000000 0.000000 0.000000 0.000000 0.051255
#
#
# Mechanical properties :
#
#
# Convention : Reuss Voigt Hill
#
# Bulk Modulus (GPa) = 50.36086 51.50131 50.93109
# Shear Modulus (GPa) = 18.85487 20.16999 19.51243
#
# Velocity S-wave (km/s) = 3.58076 3.70353 3.64266
# Velocity P-wave (km/s) = 7.16537 7.30140 7.23370
#
# Compressibility (1/GPa) = 0.01985669
#
# Stress axis : x y z
#
# Youngs Moduli (GPa) = 57.54541 57.26122 64.63184
#
# Poissons Ratio (x) = 0.32854 0.43984
# Poissons Ratio (y) = 0.33017 0.17358
# Poissons Ratio (z) = 0.39161 0.15378
#
# Static dielectric constant tensor:
#      x y z
#    x 3.081000 0.000000 0.000000 
#    y 0.000000 2.759410 0.000000 
#    z 0.000000 0.000000 2.736190 
# 
# 
# High freq. dielectric constant tensor:
#      x y z
#    x 1.566570 0.000000 0.000000 
#    y 0.000000 1.522970 0.000000 
#    z 0.000000 0.000000 1.549630 
# 
# From -- ./inp_files/27301.got.cif
#   From: 2010.03.12/outbox.cif.g09.slc.cpg/sg65_14_cif.got.tgz:27301.got - 2010.04.10 20:52:16.
