data_PCOD8267045
_publ_section_title
;
Structure prediction by ZEFSAII (Michael W. Deem and Ramdas Pophale) SiO2 
 PCOD8267045
Probable space group: C M M M
;
_chemical_formula_sum "Si O2"
_cell_formula_units_Z 72
_cell_length_a 31.829376
_cell_length_b 17.967967
_cell_length_c 8.992320
_cell_angle_alpha 90.000000
_cell_angle_beta 90.000000
_cell_angle_gamma 90.000000
_cell_volume 5142.790336
_symmetry_space_group_name_H-M "C M M M"
_symmetry_group_IT_number 65
_symmetry_cell_setting 'orthorhombic'
loop_
_space_group_symop_operation_xyz
x,y,z
-x,-y,z
x,-y,-z
-x,y,-z
-x,-y,-z
x,y,-z
-x,y,z
x,-y,z
1/2+x,1/2+y,z
1/2-x,1/2-y,z
1/2+x,1/2-y,-z
1/2-x,1/2+y,-z
1/2-x,1/2-y,-z
1/2+x,1/2+y,-z
1/2-x,1/2+y,z
1/2+x,1/2-y,z
loop_
_atom_site_type_symbol
_atom_site_label
_atom_site_fract_x
_atom_site_fract_y
_atom_site_fract_z
Si Si1 0.242935 0.414273 0.829552
Si Si2 0.335886 0.844445 0.675924
Si Si3 0.000000 0.411650 0.667582
Si Si4 0.791335 0.799391 0.336612
Si Si5 0.415830 0.913334 0.825478
O O1 0.254781 0.500000 0.808354
O O2 0.201925 0.395894 0.733713
O O3 0.283734 0.366976 0.777431
O O4 0.232933 0.394830 0.000000
O O5 0.339483 0.856941 0.500000
O O6 0.328154 0.757085 0.714956
O O7 0.378483 0.866572 0.755478
O O8 0.041164 0.383162 0.753533
O O9 0.000000 0.500000 0.666529
O O10 0.000000 0.379813 0.500000
O O11 0.801453 0.832621 0.500000
O O12 0.750000 0.750000 0.346525
O O13 0.408559 0.000000 0.789207
O O14 0.417902 0.898925 0.000000
#
# Coordination Sequence:
#
# PCOD8267045 Si02
#       5
#    16  16   8  16  16
#     4  10  19  28  39  57  78 100 129 163 197 233
#     4  10  19  29  41  57  76 100 132 165 195 230
#     4   9  17  29  43  57  75 101 130 159 194 231
#     4   8  16  29  41  54  73  98 128 160 194 231
#     4  10  19  29  41  58  79 102 130 163 196 230
#
# _framework density 14.000181
#
# number of rings (size 3 to 8) (size 9 to 14) (size 15 to 20)
#    0.000    2.556    0.000    4.333    0.000   12.000 
#    0.000    0.000    0.000    0.000    0.000    0.000 
#    0.000    0.000    0.000    1.000    0.000   18.667 
#
# Total GULP energy -446288.209868 kJ/mol
# GULP energy per Si atom -12396.894719 kJ/mol
# Density = 1.396832 g / cm^3
# Si number density = 14.000181 Si / 1000 Ang^3
#
#
#
# Elastic Constant Matrix: (Units=GPa)
#
#
# Indices 1 2 3 4 5 6 
#
# 1 94.6800 42.7280 50.1118 0.0000 0.0000 0.0000
# 2 42.7280 61.3852 41.9355 0.0000 0.0000 0.0000
# 3 50.1118 41.9355 90.2979 0.0000 0.0000 0.0000
# 4 0.0000 0.0000 0.0000 21.2907 0.0000 0.0000
# 5 0.0000 0.0000 0.0000 0.0000 26.1715 0.0000
# 6 0.0000 0.0000 0.0000 0.0000 0.0000 20.2411
#
#
#
# Elastic Compliance Matrix: (Units=1/GPa)
#
#
# Indices 1 2 3 4 5 6 
#
# 1 0.017290 -0.008026 -0.005868 0.000000 0.000000 0.000000
# 2 -0.008026 0.027587 -0.008357 0.000000 0.000000 0.000000
# 3 -0.005868 -0.008357 0.018212 0.000000 0.000000 0.000000
# 4 0.000000 0.000000 0.000000 0.046969 0.000000 0.000000
# 5 0.000000 0.000000 0.000000 0.000000 0.038209 0.000000
# 6 0.000000 0.000000 0.000000 0.000000 0.000000 0.049404
#
#
# Mechanical properties :
#
#
# Convention : Reuss Voigt Hill
#
# Bulk Modulus (GPa) = 53.80405 57.32376 55.56391
# Shear Modulus (GPa) = 20.13135 20.97984 20.55560
#
# Velocity S-wave (km/s) = 3.79613 3.87530 3.83592
# Velocity P-wave (km/s) = 7.59793 7.81395 7.70670
#
# Compressibility (1/GPa) = 0.01858596
#
# Stress axis : x y z
#
# Youngs Moduli (GPa) = 57.83820 36.24930 54.90877
#
# Poissons Ratio (x) = 0.29094 0.32218
# Poissons Ratio (y) = 0.46422 0.45889
# Poissons Ratio (z) = 0.33937 0.30295
#
# Static dielectric constant tensor:
#      x y z
#    x 2.745300 0.000000 0.000000 
#    y 0.000000 2.751660 0.000000 
#    z 0.000000 0.000000 2.947530 
# 
# 
# High freq. dielectric constant tensor:
#      x y z
#    x 1.510080 0.000000 0.000000 
#    y 0.000000 1.503520 0.000000 
#    z 0.000000 0.000000 1.553920 
# 
# From -- ./inp_files/9442.got.cif
#   From: 2010.03.12/outbox.cif.g09.slc.cpg/sg65_5_cif.got.tgz:9442.got - 2010.04.10 20:52:16.
