data_PCOD8267904
_publ_section_title
;
Structure prediction by ZEFSAII (Michael W. Deem and Ramdas Pophale) SiO2 
 PCOD8267904
Probable space group: C M M M
;
_chemical_formula_sum "Si O2"
_cell_formula_units_Z 96
_cell_length_a 8.179665
_cell_length_b 27.256644
_cell_length_c 25.075938
_cell_angle_alpha 90.000000
_cell_angle_beta 90.000000
_cell_angle_gamma 90.000000
_cell_volume 5590.685817
_symmetry_space_group_name_H-M "C M M M"
_symmetry_group_IT_number 65
_symmetry_cell_setting 'orthorhombic'
loop_
_space_group_symop_operation_xyz
x,y,z
-x,-y,z
x,-y,-z
-x,y,-z
-x,-y,-z
x,y,-z
-x,y,z
x,-y,z
1/2+x,1/2+y,z
1/2-x,1/2-y,z
1/2+x,1/2-y,-z
1/2-x,1/2+y,-z
1/2-x,1/2-y,-z
1/2+x,1/2+y,-z
1/2-x,1/2+y,z
1/2+x,1/2-y,z
loop_
_atom_site_type_symbol
_atom_site_label
_atom_site_fract_x
_atom_site_fract_y
_atom_site_fract_z
Si Si1 0.815411 0.057389 0.126188
Si Si2 0.689945 0.444910 0.332993
Si Si3 0.000000 0.558217 0.059775
Si Si4 0.190142 0.851040 0.605881
Si Si5 0.192744 0.196038 0.285061
Si Si6 0.315013 0.804440 0.500000
Si Si7 0.685884 0.897311 0.770620
O O1 0.669272 0.076469 0.087554
O O2 0.803400 0.085685 0.182001
O O3 0.000000 0.067072 0.102845
O O4 0.790712 0.000000 0.137365
O O5 0.500000 0.438218 0.318338
O O6 0.730901 0.500000 0.352093
O O7 0.736077 0.407571 0.380663
O O8 0.790370 0.432396 0.280194
O O9 0.000000 0.500000 0.058354
O O10 0.000000 0.579859 0.000000
O O11 0.249934 0.816759 0.654767
O O12 0.274899 0.835898 0.551794
O O13 0.000000 0.844150 0.596481
O O14 0.250000 0.250000 0.269546
O O15 0.275662 0.158916 0.243742
O O16 0.000000 0.190186 0.280006
O O17 0.500000 0.793424 0.500000
O O18 0.250000 0.750000 0.500000
O O19 0.500000 0.902071 0.790171
#
# Coordination Sequence:
#
# PCOD8267904 Si02
#       7
#    16  16   8  16  16   8  16
#     4  10  19  31  48  71 102 139 176 216 257 297
#     4   9  18  33  52  73  97 127 163 200 242 294
#     4   9  18  32  48  70 102 138 178 217 255 303
#     4   9  19  35  53  72  95 122 157 197 243 293
#     4  10  20  34  51  72  98 129 160 198 250 307
#     4  12  24  36  53  72  91 117 154 201 245 296
#     4  11  20  30  47  72 102 136 169 206 246 296
#
# _framework density 17.171417000000002
#
# number of rings (size 3 to 8) (size 9 to 14) (size 15 to 20)
#    0.000    2.083    0.833    4.750    0.000    7.333 
#    0.000    2.083    0.000    2.500    0.000    0.000 
#    0.000    0.667    0.333    0.000    0.000    0.000 
#
# Total GULP energy -595082.959989 kJ/mol
# GULP energy per Si atom -12397.561666 kJ/mol
# Density = 1.713233 g / cm^3
# Si number density = 17.171417 Si / 1000 Ang^3
#
#
#
# Elastic Constant Matrix: (Units=GPa)
#
#
# Indices 1 2 3 4 5 6 
#
# 1 100.6852 30.5050 44.7594 0.0000 0.0000 0.0000
# 2 30.5050 106.5408 38.3175 0.0000 0.0000 0.0000
# 3 44.7594 38.3175 98.1884 0.0000 0.0000 0.0000
# 4 0.0000 0.0000 0.0000 14.0335 0.0000 0.0000
# 5 0.0000 0.0000 0.0000 0.0000 24.8778 0.0000
# 6 0.0000 0.0000 0.0000 0.0000 0.0000 23.0580
#
#
#
# Elastic Compliance Matrix: (Units=1/GPa)
#
#
# Indices 1 2 3 4 5 6 
#
# 1 0.012751 -0.001815 -0.005104 0.000000 0.000000 0.000000
# 2 -0.001815 0.011177 -0.003534 0.000000 0.000000 0.000000
# 3 -0.005104 -0.003534 0.013890 0.000000 0.000000 0.000000
# 4 0.000000 0.000000 0.000000 0.071258 0.000000 0.000000
# 5 0.000000 0.000000 0.000000 0.000000 0.040196 0.000000
# 6 0.000000 0.000000 0.000000 0.000000 0.000000 0.043369
#
#
# Mechanical properties :
#
#
# Convention : Reuss Voigt Hill
#
# Bulk Modulus (GPa) = 59.13282 59.17536 59.15409
# Shear Modulus (GPa) = 22.81168 25.18270 23.99719
#
# Velocity S-wave (km/s) = 3.64877 3.83371 3.74238
# Velocity P-wave (km/s) = 7.22931 7.35750 7.29368
#
# Compressibility (1/GPa) = 0.01691108
#
# Stress axis : x y z
#
# Youngs Moduli (GPa) = 78.42552 89.47018 71.99167
#
# Poissons Ratio (x) = 0.16240 0.36746
# Poissons Ratio (y) = 0.14235 0.25444
# Poissons Ratio (z) = 0.40030 0.31621
#
# Static dielectric constant tensor:
#      x y z
#    x 3.337200 0.000000 0.000000 
#    y 0.000000 3.524170 0.000000 
#    z 0.000000 0.000000 3.043560 
# 
# 
# High freq. dielectric constant tensor:
#      x y z
#    x 1.676380 0.000000 0.000000 
#    y 0.000000 1.648720 0.000000 
#    z 0.000000 0.000000 1.638040 
# 
# From -- ./inp_files/68079.got.cif
#   From: 2010.03.12/outbox.cif.g09.slc.cpg/sg65_35_cif.got.tgz:68079.got - 2010.04.10 20:52:16.
