data_PCOD8267968
_publ_section_title
;
Structure prediction by ZEFSAII (Michael W. Deem and Ramdas Pophale) SiO2 
 PCOD8267968
Probable space group: C M M M
;
_chemical_formula_sum "Si O2"
_cell_formula_units_Z 96
_cell_length_a 19.275465
_cell_length_b 9.065064
_cell_length_c 31.113866
_cell_angle_alpha 90.000000
_cell_angle_beta 90.000000
_cell_angle_gamma 90.000000
_cell_volume 5436.629224
_symmetry_space_group_name_H-M "C M M M"
_symmetry_group_IT_number 65
_symmetry_cell_setting 'orthorhombic'
loop_
_space_group_symop_operation_xyz
x,y,z
-x,-y,z
x,-y,-z
-x,y,-z
-x,-y,-z
x,y,-z
-x,y,z
x,-y,z
1/2+x,1/2+y,z
1/2-x,1/2-y,z
1/2+x,1/2-y,-z
1/2-x,1/2+y,-z
1/2-x,1/2-y,-z
1/2+x,1/2+y,-z
1/2-x,1/2+y,z
1/2+x,1/2-y,z
loop_
_atom_site_type_symbol
_atom_site_label
_atom_site_fract_x
_atom_site_fract_y
_atom_site_fract_z
Si Si1 0.176448 0.327495 0.208999
Si Si2 0.176995 0.329450 0.114257
Si Si3 0.421368 0.326583 0.369690
Si Si4 0.580340 0.331336 0.951005
Si Si5 0.325138 0.323951 0.708660
Si Si6 0.582407 0.166465 0.546854
O O1 0.183741 0.500000 0.220351
O O2 0.250000 0.250000 0.206230
O O3 0.142760 0.304721 0.161794
O O4 0.137765 0.242468 0.248108
O O5 0.192055 0.500000 0.106404
O O6 0.250000 0.250000 0.108502
O O7 0.122830 0.275195 0.079441
O O8 0.500000 0.268833 0.361926
O O9 0.420928 0.500000 0.374079
O O10 0.373700 0.274131 0.330494
O O11 0.388653 0.263726 0.413913
O O12 0.500000 0.291894 0.945716
O O13 0.594294 0.500000 0.937741
O O14 0.603936 0.304648 0.000000
O O15 0.318249 0.500000 0.712192
O O16 0.250000 0.250000 0.702114
O O17 0.608986 0.224316 0.500000
O O18 0.500000 0.173555 0.547106
O O19 0.608366 0.000000 0.553824
#
# Coordination Sequence:
#
# PCOD8267968 Si02
#       6
#    16  16  16  16  16  16
#     4   9  17  30  48  70  95 123 157 195 234 278
#     4  10  20  33  52  77 102 128 161 203 246 287
#     4   9  18  31  46  67  94 121 151 189 231 273
#     4   9  19  36  55  74  99 132 167 201 240 289
#     4  10  19  31  49  70  93 123 158 193 229 277
#     4   8  14  25  42  65  91 118 149 185 227 275
#
# _framework density 17.658000999999999
#
# number of rings (size 3 to 8) (size 9 to 14) (size 15 to 20)
#    0.000    2.833    0.000    3.500    0.000    4.667 
#    0.000    3.333    0.000    3.500    0.000    0.000 
#    0.000    0.000    0.000    0.000    0.000    0.000 
#
# Total GULP energy -594785.701884 kJ/mol
# GULP energy per Si atom -12391.368789 kJ/mol
# Density = 1.761781 g / cm^3
# Si number density = 17.658001 Si / 1000 Ang^3
#
#
#
# Elastic Constant Matrix: (Units=GPa)
#
#
# Indices 1 2 3 4 5 6 
#
# 1 47.1018 33.6467 55.0638 0.0000 0.0000 0.0000
# 2 33.6467 84.5803 67.3102 0.0000 0.0000 0.0000
# 3 55.0638 67.3102 162.4654 0.0000 0.0000 0.0000
# 4 0.0000 0.0000 0.0000 37.2651 0.0000 0.0000
# 5 0.0000 0.0000 0.0000 0.0000 30.9245 0.0000
# 6 0.0000 0.0000 0.0000 0.0000 0.0000 22.7026
#
#
#
# Elastic Compliance Matrix: (Units=1/GPa)
#
#
# Indices 1 2 3 4 5 6 
#
# 1 0.037923 -0.007247 -0.009851 0.000000 0.000000 0.000000
# 2 -0.007247 0.019024 -0.005425 0.000000 0.000000 0.000000
# 3 -0.009851 -0.005425 0.011742 0.000000 0.000000 0.000000
# 4 0.000000 0.000000 0.000000 0.026835 0.000000 0.000000
# 5 0.000000 0.000000 0.000000 0.000000 0.032337 0.000000
# 6 0.000000 0.000000 0.000000 0.000000 0.000000 0.044048
#
#
# Mechanical properties :
#
#
# Convention : Reuss Voigt Hill
#
# Bulk Modulus (GPa) = 42.29685 67.35432 54.82558
# Shear Modulus (GPa) = 22.23856 27.38689 24.81272
#
# Velocity S-wave (km/s) = 3.55266 3.94250 3.75264
# Velocity P-wave (km/s) = 6.39014 7.67796 7.06346
#
# Compressibility (1/GPa) = 0.02364242
#
# Stress axis : x y z
#
# Youngs Moduli (GPa) = 26.36901 52.56648 85.16702
#
# Poissons Ratio (x) = 0.38094 0.83897
# Poissons Ratio (y) = 0.19109 0.46207
# Poissons Ratio (z) = 0.25976 0.28519
#
# Static dielectric constant tensor:
#      x y z
#    x 2.886930 0.000000 0.000000 
#    y 0.000000 3.316430 0.000000 
#    z 0.000000 0.000000 4.043700 
# 
# 
# High freq. dielectric constant tensor:
#      x y z
#    x 1.633000 0.000000 0.000000 
#    y 0.000000 1.688420 0.000000 
#    z 0.000000 0.000000 1.705600 
# 
# From -- ./inp_files/75698.got.cif
#   From: 2010.03.12/outbox.cif.g09.slc.cpg/sg65_38_cif.got.tgz:75698.got - 2010.04.10 20:52:16.
