data_PCOD8267267
_publ_section_title
;
Structure prediction by ZEFSAII (Michael W. Deem and Ramdas Pophale) SiO2 
 PCOD8267267
Probable space group: C M M M
;
_chemical_formula_sum "Si O2"
_cell_formula_units_Z 88
_cell_length_a 8.094857
_cell_length_b 27.431976
_cell_length_c 22.772298
_cell_angle_alpha 90.000000
_cell_angle_beta 90.000000
_cell_angle_gamma 90.000000
_cell_volume 5056.769195
_symmetry_space_group_name_H-M "C M M M"
_symmetry_group_IT_number 65
_symmetry_cell_setting 'orthorhombic'
loop_
_space_group_symop_operation_xyz
x,y,z
-x,-y,z
x,-y,-z
-x,y,-z
-x,-y,-z
x,y,-z
-x,y,z
x,-y,z
1/2+x,1/2+y,z
1/2-x,1/2-y,z
1/2+x,1/2-y,-z
1/2-x,1/2+y,-z
1/2-x,1/2-y,-z
1/2+x,1/2+y,-z
1/2-x,1/2+y,z
1/2+x,1/2-y,z
loop_
_atom_site_type_symbol
_atom_site_label
_atom_site_fract_x
_atom_site_fract_y
_atom_site_fract_z
Si Si1 0.689840 0.351519 0.434748
Si Si2 0.192507 0.603275 0.256319
Si Si3 0.808812 0.445398 0.376860
Si Si4 0.190136 0.696809 0.321638
Si Si5 0.500000 0.942217 0.065611
Si Si6 0.686756 0.443230 0.858778
O O1 0.764367 0.343895 0.500000
O O2 0.500000 0.336992 0.434159
O O3 0.707152 0.407937 0.416531
O O4 0.778999 0.315017 0.389917
O O5 0.218503 0.564142 0.307946
O O6 0.266523 0.655182 0.279274
O O7 0.299634 0.586967 0.201093
O O8 0.000000 0.606118 0.238340
O O9 0.748469 0.500000 0.391331
O O10 0.000000 0.438078 0.392807
O O11 0.250000 0.750000 0.303587
O O12 0.000000 0.694200 0.309550
O O13 0.669756 0.924437 0.097034
O O14 0.500000 0.000000 0.062789
O O15 0.500000 0.920063 0.000000
O O16 0.500000 0.435058 0.884377
O O17 0.716244 0.500000 0.844857
#
# Coordination Sequence:
#
# PCOD8267267 Si02
#       6
#    16  16  16  16   8  16
#     4  10  21  35  49  66  90 121 159 200 243 295
#     4   9  17  31  49  69  97 129 158 198 247 299
#     4   9  18  31  48  69  93 124 159 197 244 293
#     4  10  21  36  54  73  94 122 152 195 252 302
#     4   9  18  32  48  68 104 148 179 213 249 275
#     4  10  19  29  47  75 103 139 180 211 244 288
#
# _framework density 17.402415000000001
#
# number of rings (size 3 to 8) (size 9 to 14) (size 15 to 20)
#    0.000    2.455    0.909    2.727    0.000    7.273 
#    0.000    3.636    0.000    0.000    0.000    0.000 
#    0.000    0.727    0.364    0.000    0.000    0.000 
#
# Total GULP energy -545413.737154 kJ/mol
# GULP energy per Si atom -12395.766753 kJ/mol
# Density = 1.736281 g / cm^3
# Si number density = 17.402415 Si / 1000 Ang^3
#
#
#
# Elastic Constant Matrix: (Units=GPa)
#
#
# Indices 1 2 3 4 5 6 
#
# 1 73.1613 16.6926 37.4248 0.0000 0.0000 0.0000
# 2 16.6926 75.5171 21.9845 0.0000 0.0000 0.0000
# 3 37.4248 21.9845 94.3365 0.0000 0.0000 0.0000
# 4 0.0000 0.0000 0.0000 12.6814 0.0000 0.0000
# 5 0.0000 0.0000 0.0000 0.0000 19.7104 0.0000
# 6 0.0000 0.0000 0.0000 0.0000 0.0000 24.2929
#
#
#
# Elastic Compliance Matrix: (Units=1/GPa)
#
#
# Indices 1 2 3 4 5 6 
#
# 1 0.017418 -0.001972 -0.006450 0.000000 0.000000 0.000000
# 2 -0.001972 0.014429 -0.002580 0.000000 0.000000 0.000000
# 3 -0.006450 -0.002580 0.013761 0.000000 0.000000 0.000000
# 4 0.000000 0.000000 0.000000 0.078856 0.000000 0.000000
# 5 0.000000 0.000000 0.000000 0.000000 0.050735 0.000000
# 6 0.000000 0.000000 0.000000 0.000000 0.000000 0.041164
#
#
# Mechanical properties :
#
#
# Convention : Reuss Voigt Hill
#
# Bulk Modulus (GPa) = 42.36919 43.91320 43.14120
# Shear Modulus (GPa) = 20.30576 22.46448 21.38512
#
# Velocity S-wave (km/s) = 3.41960 3.59678 3.50931
# Velocity P-wave (km/s) = 6.32386 6.52211 6.42375
#
# Compressibility (1/GPa) = 0.02360206
#
# Stress axis : x y z
#
# Youngs Moduli (GPa) = 57.41168 69.30422 72.67118
#
# Poissons Ratio (x) = 0.13669 0.46876
# Poissons Ratio (y) = 0.11323 0.18750
# Poissons Ratio (z) = 0.37033 0.17882
#
# Static dielectric constant tensor:
#      x y z
#    x 3.254010 0.000000 0.000000 
#    y 0.000000 2.987850 0.000000 
#    z 0.000000 0.000000 3.160130 
# 
# 
# High freq. dielectric constant tensor:
#      x y z
#    x 1.676960 0.000000 0.000000 
#    y 0.000000 1.649600 0.000000 
#    z 0.000000 0.000000 1.648650 
# 
# From -- ./inp_files/60294.got.cif
#   From: 2010.03.12/outbox.cif.g09.slc.cpg/sg65_31_cif.got.tgz:60294.got - 2010.04.10 20:52:16.
