data_PCOD8267275
_publ_section_title
;
Structure prediction by ZEFSAII (Michael W. Deem and Ramdas Pophale) SiO2 
 PCOD8267275
Probable space group: C M M M
;
_chemical_formula_sum "Si O2"
_cell_formula_units_Z 72
_cell_length_a 14.920005
_cell_length_b 29.509999
_cell_length_c 9.280957
_cell_angle_alpha 90.000000
_cell_angle_beta 90.000000
_cell_angle_gamma 90.000000
_cell_volume 4086.306364
_symmetry_space_group_name_H-M "C M M M"
_symmetry_group_IT_number 65
_symmetry_cell_setting 'orthorhombic'
loop_
_space_group_symop_operation_xyz
x,y,z
-x,-y,z
x,-y,-z
-x,y,-z
-x,-y,-z
x,y,-z
-x,y,z
x,-y,z
1/2+x,1/2+y,z
1/2-x,1/2-y,z
1/2+x,1/2-y,-z
1/2-x,1/2+y,-z
1/2-x,1/2-y,-z
1/2+x,1/2+y,-z
1/2-x,1/2+y,z
1/2+x,1/2-y,z
loop_
_atom_site_type_symbol
_atom_site_label
_atom_site_fract_x
_atom_site_fract_y
_atom_site_fract_z
Si Si1 0.500000 0.552969 0.844791
Si Si2 0.191491 0.949992 0.828311
Si Si3 0.601563 0.295116 0.834424
Si Si4 0.733783 0.857685 0.167238
Si Si5 0.604240 0.205534 0.333266
O O1 0.500000 0.500000 0.875474
O O2 0.406599 0.563807 0.761526
O O3 0.500000 0.578992 0.000000
O O4 0.261899 0.910791 0.786597
O O5 0.223402 0.000000 0.773231
O O6 0.179394 0.951302 0.000000
O O7 0.500000 0.310445 0.794495
O O8 0.668839 0.336029 0.801348
O O9 0.632963 0.252454 0.740309
O O10 0.607189 0.279705 0.000000
O O11 0.657215 0.835870 0.263369
O O12 0.707907 0.851996 0.000000
O O13 0.629290 0.208989 0.500000
O O14 0.500000 0.195723 0.308248
#
# Coordination Sequence:
#
# PCOD8267275 Si02
#       5
#     8  16  16  16  16
#     4   7  10  18  34  58  91 127 153 175 209 257
#     4   8  14  24  40  66  99 129 155 185 223 270
#     4   9  18  31  47  71 103 130 152 185 230 280
#     4  10  19  29  48  75  99 125 157 193 233 276
#     4  10  21  36  51  66  88 122 163 203 242 284
#
# _framework density 17.619824000000001
#
# number of rings (size 3 to 8) (size 9 to 14) (size 15 to 20)
#    0.000    3.000    0.000    2.667    1.556    4.889 
#    0.000    0.000    0.000    1.333    0.000    4.667 
#    0.000    2.667    0.000    0.000    0.000    0.000 
#
# Total GULP energy -446081.186136 kJ/mol
# GULP energy per Si atom -12391.144059 kJ/mol
# Density = 1.757972 g / cm^3
# Si number density = 17.619824 Si / 1000 Ang^3
#
#
#
# Elastic Constant Matrix: (Units=GPa)
#
#
# Indices 1 2 3 4 5 6 
#
# 1 49.8291 43.7464 31.2118 0.0000 0.0000 0.0000
# 2 43.7464 120.4097 42.7487 0.0000 0.0000 0.0000
# 3 31.2118 42.7487 55.6188 0.0000 0.0000 0.0000
# 4 0.0000 0.0000 0.0000 0.2623 0.0000 0.0000
# 5 0.0000 0.0000 0.0000 0.0000 18.5662 0.0000
# 6 0.0000 0.0000 0.0000 0.0000 0.0000 27.1264
#
#
#
# Elastic Compliance Matrix: (Units=1/GPa)
#
#
# Indices 1 2 3 4 5 6 
#
# 1 0.035899 -0.008101 -0.013919 0.000000 0.000000 0.000000
# 2 -0.008101 0.013250 -0.005638 0.000000 0.000000 0.000000
# 3 -0.013919 -0.005638 0.030124 0.000000 0.000000 0.000000
# 4 0.000000 0.000000 0.000000 3.812771 0.000000 0.000000
# 5 0.000000 0.000000 0.000000 0.000000 0.053861 0.000000
# 6 0.000000 0.000000 0.000000 0.000000 0.000000 0.036864
#
#
# Mechanical properties :
#
#
# Convention : Reuss Voigt Hill
#
# Bulk Modulus (GPa) = 41.74165 51.25238 46.49701
# Shear Modulus (GPa) = 1.23577 16.40104 8.81840
#
# Velocity S-wave (km/s) = 0.83838 3.05426 2.23957
# Velocity P-wave (km/s) = 4.96777 6.44896 5.75621
#
# Compressibility (1/GPa) = 0.02395689
#
# Stress axis : x y z
#
# Youngs Moduli (GPa) = 27.85558 75.47340 33.19631
#
# Poissons Ratio (x) = 0.61141 0.46207
# Poissons Ratio (y) = 0.22566 0.18715
# Poissons Ratio (z) = 0.38773 0.42549
#
# Static dielectric constant tensor:
#      x y z
#    x 3.290130 0.000000 0.000000 
#    y 0.000000 3.369320 0.000000 
#    z 0.000000 0.000000 2.932600 
# 
# 
# High freq. dielectric constant tensor:
#      x y z
#    x 1.670340 0.000000 0.000000 
#    y 0.000000 1.679440 0.000000 
#    z 0.000000 0.000000 1.635390 
# 
# From -- ./inp_files/7640.got.cif
#   From: 2010.03.12/outbox.cif.g09.slc.cpg/sg65_4_cif.got.tgz:7640.got - 2010.04.10 20:52:16.
