data_PCOD8267871
_publ_section_title
;
Structure prediction by ZEFSAII (Michael W. Deem and Ramdas Pophale) SiO2 
 PCOD8267871
Probable space group: C M M M
;
_chemical_formula_sum "Si O2"
_cell_formula_units_Z 80
_cell_length_a 26.842190
_cell_length_b 9.206052
_cell_length_c 18.734211
_cell_angle_alpha 90.000000
_cell_angle_beta 90.000000
_cell_angle_gamma 90.000000
_cell_volume 4629.422063
_symmetry_space_group_name_H-M "C M M M"
_symmetry_group_IT_number 65
_symmetry_cell_setting 'orthorhombic'
loop_
_space_group_symop_operation_xyz
x,y,z
-x,-y,z
x,-y,-z
-x,y,-z
-x,-y,-z
x,y,-z
-x,y,z
x,-y,z
1/2+x,1/2+y,z
1/2-x,1/2-y,z
1/2+x,1/2-y,-z
1/2-x,1/2+y,-z
1/2-x,1/2-y,-z
1/2+x,1/2+y,-z
1/2-x,1/2+y,z
1/2+x,1/2-y,z
loop_
_atom_site_type_symbol
_atom_site_label
_atom_site_fract_x
_atom_site_fract_y
_atom_site_fract_z
Si Si1 0.201014 0.670908 0.720964
Si Si2 0.055102 0.166955 0.223770
Si Si3 0.154193 0.169326 0.149726
Si Si4 0.801916 0.830620 0.000000
Si Si5 0.943529 0.672713 0.500000
Si Si6 0.599389 0.169858 0.647928
O O1 0.210507 0.500000 0.728763
O O2 0.250000 0.750000 0.690503
O O3 0.188658 0.735435 0.798660
O O4 0.156853 0.706139 0.665365
O O5 0.096054 0.206488 0.163774
O O6 0.062918 0.257595 0.295327
O O7 0.000000 0.200898 0.192776
O O8 0.060337 0.000000 0.245957
O O9 0.165760 0.000000 0.163960
O O10 0.165898 0.214486 0.068856
O O11 0.750000 0.750000 0.000000
O O12 0.790028 0.000000 0.000000
O O13 0.944159 0.500000 0.500000
O O14 0.914081 0.730406 0.430454
O O15 0.000000 0.733134 0.500000
O O16 0.589057 0.000000 0.652972
#
# Coordination Sequence:
#
# PCOD8267871 Si02
#       6
#    16  16  16   8   8  16
#     4  10  19  31  48  69  92 120 154 190 228 269
#     4   9  17  30  48  69  94 123 152 185 226 269
#     4   9  18  32  48  68  94 121 152 188 226 270
#     4  10  20  32  47  67  91 119 150 188 231 272
#     4   9  16  28  48  71  93 117 147 187 230 267
#     4   9  18  31  48  70  93 119 154 191 225 267
#
# _framework density 17.280774999999998
#
# number of rings (size 3 to 8) (size 9 to 14) (size 15 to 20)
#    0.000    2.700    0.000    1.800    0.000    4.400 
#    0.000    1.500    0.000    4.800    0.000    0.000 
#    0.000    7.200    0.000    0.000    0.000    0.000 
#
# Total GULP energy -495969.878573 kJ/mol
# GULP energy per Si atom -12399.246964 kJ/mol
# Density = 1.724144 g / cm^3
# Si number density = 17.280775 Si / 1000 Ang^3
#
#
#
# Elastic Constant Matrix: (Units=GPa)
#
#
# Indices 1 2 3 4 5 6 
#
# 1 140.1126 42.3642 74.7297 0.0000 0.0000 0.0000
# 2 42.3642 44.3077 35.4591 0.0000 0.0000 0.0000
# 3 74.7297 35.4591 142.8748 0.0000 0.0000 0.0000
# 4 0.0000 0.0000 0.0000 20.9983 0.0000 0.0000
# 5 0.0000 0.0000 0.0000 0.0000 20.6881 0.0000
# 6 0.0000 0.0000 0.0000 0.0000 0.0000 24.7457
#
#
#
# Elastic Compliance Matrix: (Units=1/GPa)
#
#
# Indices 1 2 3 4 5 6 
#
# 1 0.011758 -0.007887 -0.004192 0.000000 0.000000 0.000000
# 2 -0.007887 0.033454 -0.004177 0.000000 0.000000 0.000000
# 3 -0.004192 -0.004177 0.010229 0.000000 0.000000 0.000000
# 4 0.000000 0.000000 0.000000 0.047623 0.000000 0.000000
# 5 0.000000 0.000000 0.000000 0.000000 0.048337 0.000000
# 6 0.000000 0.000000 0.000000 0.000000 0.000000 0.040411
#
#
# Mechanical properties :
#
#
# Convention : Reuss Voigt Hill
#
# Bulk Modulus (GPa) = 43.61751 70.26678 56.94214
# Shear Modulus (GPa) = 21.55479 24.93588 23.24534
#
# Velocity S-wave (km/s) = 3.53558 3.80278 3.67162
# Velocity P-wave (km/s) = 6.47784 7.74801 7.14122
#
# Compressibility (1/GPa) = 0.02292657
#
# Stress axis : x y z
#
# Youngs Moduli (GPa) = 85.04936 29.89219 97.76369
#
# Poissons Ratio (x) = 0.23576 0.40987
# Poissons Ratio (y) = 0.67078 0.40840
# Poissons Ratio (z) = 0.35657 0.12487
#
# Static dielectric constant tensor:
#      x y z
#    x 3.467810 0.000000 0.000000 
#    y 0.000000 3.147330 0.000000 
#    z 0.000000 0.000000 3.266540 
# 
# 
# High freq. dielectric constant tensor:
#      x y z
#    x 1.677910 0.000000 0.000000 
#    y 0.000000 1.657500 0.000000 
#    z 0.000000 0.000000 1.652370 
# 
# From -- ./inp_files/49994.got.cif
#   From: 2010.03.12/outbox.cif.g09.slc.cpg/sg65_25_cif.got.tgz:49994.got - 2010.04.10 20:52:16.
