data_PCOD8267164
_publ_section_title
;
Structure prediction by ZEFSAII (Michael W. Deem and Ramdas Pophale) SiO2 
 PCOD8267164
Probable space group: C M M M
;
_chemical_formula_sum "Si O2"
_cell_formula_units_Z 88
_cell_length_a 18.815763
_cell_length_b 9.004199
_cell_length_c 28.364148
_cell_angle_alpha 90.000000
_cell_angle_beta 90.000000
_cell_angle_gamma 90.000000
_cell_volume 4805.478755
_symmetry_space_group_name_H-M "C M M M"
_symmetry_group_IT_number 65
_symmetry_cell_setting 'orthorhombic'
loop_
_space_group_symop_operation_xyz
x,y,z
-x,-y,z
x,-y,-z
-x,y,-z
-x,-y,-z
x,y,-z
-x,y,z
x,-y,z
1/2+x,1/2+y,z
1/2-x,1/2-y,z
1/2+x,1/2-y,-z
1/2-x,1/2+y,-z
1/2-x,1/2-y,-z
1/2+x,1/2+y,-z
1/2-x,1/2+y,z
1/2+x,1/2-y,z
loop_
_atom_site_type_symbol
_atom_site_label
_atom_site_fract_x
_atom_site_fract_y
_atom_site_fract_z
Si Si1 0.420628 0.676242 0.636931
Si Si2 0.325935 0.677154 0.000000
Si Si3 0.079290 0.823683 0.914602
Si Si4 0.323149 0.325393 0.446777
Si Si5 0.673698 0.323230 0.275638
Si Si6 0.579561 0.323643 0.809985
O O1 0.500000 0.744184 0.640093
O O2 0.425283 0.500000 0.638228
O O3 0.385010 0.730370 0.588096
O O4 0.373823 0.732596 0.680680
O O5 0.250000 0.750000 0.000000
O O6 0.366898 0.737638 0.046196
O O7 0.319466 0.500000 0.000000
O O8 0.103593 0.771151 0.862328
O O9 0.000000 0.763308 0.925286
O O10 0.077813 0.000000 0.916840
O O11 0.344667 0.279913 0.500000
O O12 0.311494 0.500000 0.442173
O O13 0.250000 0.250000 0.431249
O O14 0.682243 0.500000 0.275539
O O15 0.750000 0.250000 0.279699
O O16 0.635428 0.263175 0.228235
O O17 0.500000 0.263651 0.798922
O O18 0.577561 0.500000 0.807442
#
# Coordination Sequence:
#
# PCOD8267164 Si02
#       6
#    16   8  16  16  16  16
#     4   9  17  29  46  67  88 112 147 187 218 247
#     4  10  19  29  43  65  91 116 142 176 218 258
#     4   8  14  26  45  66  85 109 146 186 215 245
#     4   9  17  29  46  67  90 116 144 176 216 260
#     4  10  19  30  46  67  90 116 144 176 216 260
#     4   8  14  26  45  67  87 109 143 184 218 249
#
# _framework density 18.312432000000001
#
# number of rings (size 3 to 8) (size 9 to 14) (size 15 to 20)
#    0.000    3.091    0.000    2.455    0.000    4.364 
#    0.000    1.818    0.000    4.909    0.000    5.091 
#    0.000    0.000    0.000    0.000    0.000    0.000 
#
# Total GULP energy -545388.704881 kJ/mol
# GULP energy per Si atom -12395.197838 kJ/mol
# Density = 1.827075 g / cm^3
# Si number density = 18.312432 Si / 1000 Ang^3
#
#
#
# Elastic Constant Matrix: (Units=GPa)
#
#
# Indices 1 2 3 4 5 6 
#
# 1 178.3188 20.6367 117.4186 0.0000 0.0000 0.0000
# 2 20.6367 10.7548 18.0031 0.0000 0.0000 0.0000
# 3 117.4186 18.0031 172.0620 0.0000 0.0000 0.0000
# 4 0.0000 0.0000 0.0000 9.3759 0.0000 0.0000
# 5 0.0000 0.0000 0.0000 0.0000 36.7316 0.0000
# 6 0.0000 0.0000 0.0000 0.0000 0.0000 25.5227
#
#
#
# Elastic Compliance Matrix: (Units=1/GPa)
#
#
# Indices 1 2 3 4 5 6 
#
# 1 0.011071 -0.010422 -0.006464 0.000000 0.000000 0.000000
# 2 -0.010422 0.122536 -0.005709 0.000000 0.000000 0.000000
# 3 -0.006464 -0.005709 0.010821 0.000000 0.000000 0.000000
# 4 0.000000 0.000000 0.000000 0.106657 0.000000 0.000000
# 5 0.000000 0.000000 0.000000 0.000000 0.027224 0.000000
# 6 0.000000 0.000000 0.000000 0.000000 0.000000 0.039181
#
#
# Mechanical properties :
#
#
# Convention : Reuss Voigt Hill
#
# Bulk Modulus (GPa) = 10.07686 74.80580 42.44133
# Shear Modulus (GPa) = 12.63393 27.99785 20.31589
#
# Velocity S-wave (km/s) = 2.62946 3.91435 3.33439
# Velocity P-wave (km/s) = 3.83842 7.83377 6.16853
#
# Compressibility (1/GPa) = 0.09923722
#
# Stress axis : x y z
#
# Youngs Moduli (GPa) = 90.32851 8.16084 92.41561
#
# Poissons Ratio (x) = 0.08505 0.59742
# Poissons Ratio (y) = 0.94137 0.52762
# Poissons Ratio (z) = 0.58392 0.04659
#
# Static dielectric constant tensor:
#      x y z
#    x 3.527270 0.000000 0.000000 
#    y 0.000000 2.754100 0.000000 
#    z 0.000000 0.000000 3.842870 
# 
# 
# High freq. dielectric constant tensor:
#      x y z
#    x 1.712890 0.000000 0.000000 
#    y 0.000000 1.641760 0.000000 
#    z 0.000000 0.000000 1.730380 
# 
# From -- ./inp_files/74764.got.cif
#   From: 2010.03.12/outbox.cif.g09.slc.cpg/sg65_38_cif.got.tgz:74764.got - 2010.04.10 20:52:16.
