data_PCOD8267222
_publ_section_title
;
Structure prediction by ZEFSAII (Michael W. Deem and Ramdas Pophale) SiO2 
 PCOD8267222
Probable space group: C M M M
;
_chemical_formula_sum "Si O2"
_cell_formula_units_Z 48
_cell_length_a 9.584208
_cell_length_b 17.580484
_cell_length_c 17.381331
_cell_angle_alpha 90.000000
_cell_angle_beta 90.000000
_cell_angle_gamma 90.000000
_cell_volume 2928.667634
_symmetry_space_group_name_H-M "C M M M"
_symmetry_group_IT_number 65
_symmetry_cell_setting 'orthorhombic'
loop_
_space_group_symop_operation_xyz
x,y,z
-x,-y,z
x,-y,-z
-x,y,-z
-x,-y,-z
x,y,-z
-x,y,z
x,-y,z
1/2+x,1/2+y,z
1/2-x,1/2-y,z
1/2+x,1/2-y,-z
1/2-x,1/2+y,-z
1/2-x,1/2-y,-z
1/2+x,1/2+y,-z
1/2-x,1/2+y,z
1/2+x,1/2-y,z
loop_
_atom_site_type_symbol
_atom_site_label
_atom_site_fract_x
_atom_site_fract_y
_atom_site_fract_z
Si Si1 0.845524 0.820270 0.704476
Si Si2 0.834629 0.084954 0.847118
Si Si3 0.335501 0.673040 0.000000
Si Si4 0.000000 0.910290 0.411492
O O1 0.750000 0.750000 0.680745
O O2 0.776023 0.866159 0.775429
O O3 0.861969 0.876034 0.630375
O O4 0.000000 0.790054 0.728830
O O5 0.789978 0.124728 0.926043
O O6 0.000000 0.079158 0.839831
O O7 0.770293 0.000000 0.845014
O O8 0.250000 0.750000 0.000000
O O9 0.500000 0.691103 0.000000
O O10 0.000000 0.885621 0.500000
O O11 0.000000 0.000000 0.400847
#
# Coordination Sequence:
#
# PCOD8267222 Si02
#       4
#    16  16   8   8
#     4   9  18  30  49  73  97 124 154 198 238 279
#     4   9  16  28  47  68  91 121 162 197 228 274
#     4  10  19  29  45  67  91 122 154 198 237 273
#     4   9  18  32  52  73  94 126 163 193 230 286
#
# _framework density 16.389706
#
# number of rings (size 3 to 8) (size 9 to 14) (size 15 to 20)
#    1.000    1.833    0.000    2.500    0.000    2.667 
#    0.000    0.000    0.000    8.000    0.000    2.333 
#    0.000    0.000    0.000    0.000    0.000    0.000 
#
# Total GULP energy -297439.373105 kJ/mol
# GULP energy per Si atom -12393.307213 kJ/mol
# Density = 1.635240 g / cm^3
# Si number density = 16.389706 Si / 1000 Ang^3
#
#
#
# Elastic Constant Matrix: (Units=GPa)
#
#
# Indices 1 2 3 4 5 6 
#
# 1 30.8662 39.0749 22.9501 0.0000 0.0000 0.0000
# 2 39.0749 136.4611 75.2713 0.0000 0.0000 0.0000
# 3 22.9501 75.2713 158.9952 0.0000 0.0000 0.0000
# 4 0.0000 0.0000 0.0000 26.4659 0.0000 0.0000
# 5 0.0000 0.0000 0.0000 0.0000 5.3149 0.0000
# 6 0.0000 0.0000 0.0000 0.0000 0.0000 30.4859
#
#
#
# Elastic Compliance Matrix: (Units=1/GPa)
#
#
# Indices 1 2 3 4 5 6 
#
# 1 0.050863 -0.014231 -0.000605 0.000000 0.000000 0.000000
# 2 -0.014231 0.013900 -0.004526 0.000000 0.000000 0.000000
# 3 -0.000605 -0.004526 0.008520 0.000000 0.000000 0.000000
# 4 0.000000 0.000000 0.000000 0.037784 0.000000 0.000000
# 5 0.000000 0.000000 0.000000 0.000000 0.188150 0.000000
# 6 0.000000 0.000000 0.000000 0.000000 0.000000 0.032802
#
#
# Mechanical properties :
#
#
# Convention : Reuss Voigt Hill
#
# Bulk Modulus (GPa) = 28.93625 66.76834 47.85229
# Shear Modulus (GPa) = 13.08007 25.05510 19.06758
#
# Velocity S-wave (km/s) = 2.82807 3.91411 3.41455
# Velocity P-wave (km/s) = 5.32517 7.82646 6.69369
#
# Compressibility (1/GPa) = 0.03455873
#
# Stress axis : x y z
#
# Youngs Moduli (GPa) = 19.66074 71.94430 117.37680
#
# Poissons Ratio (x) = 1.02382 0.07097
# Poissons Ratio (y) = 0.27979 0.53127
# Poissons Ratio (z) = 0.01189 0.32564
#
# Static dielectric constant tensor:
#      x y z
#    x 2.566040 0.000000 0.000000 
#    y 0.000000 3.114250 0.000000 
#    z 0.000000 0.000000 3.245300 
# 
# 
# High freq. dielectric constant tensor:
#      x y z
#    x 1.569950 0.000000 0.000000 
#    y 0.000000 1.640580 0.000000 
#    z 0.000000 0.000000 1.640480 
# 
# From -- ./inp_files/37531.got.cif
#   From: 2010.03.12/outbox.cif.g09.slc.cpg/sg65_19_cif.got.tgz:37531.got - 2010.04.10 20:52:16.
