data_PCOD8267956
_publ_section_title
;
Structure prediction by ZEFSAII (Michael W. Deem and Ramdas Pophale) SiO2 
 PCOD8267956
Probable space group: C M M M
;
_chemical_formula_sum "Si O2"
_cell_formula_units_Z 72
_cell_length_a 7.550378
_cell_length_b 26.540310
_cell_length_c 22.642926
_cell_angle_alpha 90.000000
_cell_angle_beta 90.000000
_cell_angle_gamma 90.000000
_cell_volume 4537.401738
_symmetry_space_group_name_H-M "C M M M"
_symmetry_group_IT_number 65
_symmetry_cell_setting 'orthorhombic'
loop_
_space_group_symop_operation_xyz
x,y,z
-x,-y,z
x,-y,-z
-x,y,-z
-x,-y,-z
x,y,-z
-x,y,z
x,-y,z
1/2+x,1/2+y,z
1/2-x,1/2-y,z
1/2+x,1/2-y,-z
1/2-x,1/2+y,-z
1/2-x,1/2-y,-z
1/2+x,1/2+y,-z
1/2-x,1/2+y,z
1/2+x,1/2-y,z
loop_
_atom_site_type_symbol
_atom_site_label
_atom_site_fract_x
_atom_site_fract_y
_atom_site_fract_z
Si Si1 0.797893 0.194734 0.350307
Si Si2 0.500000 0.056126 0.359595
Si Si3 0.798409 0.941445 0.153552
Si Si4 0.297436 0.402444 0.720018
Si Si5 0.500000 0.059685 0.065569
Si Si6 0.000000 0.346008 0.569417
O O1 0.750000 0.250000 0.326022
O O2 0.764416 0.156029 0.296504
O O3 0.674955 0.181030 0.405721
O O4 0.000000 0.192177 0.372488
O O5 0.674337 0.062500 0.319770
O O6 0.500000 0.095050 0.413764
O O7 0.500000 0.000000 0.386304
O O8 0.749394 0.909387 0.211468
O O9 0.674848 0.922272 0.100390
O O10 0.000000 0.932293 0.133633
O O11 0.763765 0.000000 0.168339
O O12 0.500000 0.418905 0.708133
O O13 0.500000 0.000000 0.060094
O O14 0.500000 0.083880 0.000000
O O15 0.000000 0.339938 0.500000
#
# Coordination Sequence:
#
# PCOD8267956 Si02
#       6
#    16   8  16  16   8   8
#     4  10  19  34  51  70  94 119 145 185 238 279
#     4  10  19  31  49  69  91 121 154 188 230 271
#     4   9  16  26  41  62  87 117 151 183 218 261
#     4   9  18  30  47  69  94 120 148 189 230 281
#     4   9  17  27  38  56  87 125 159 187 214 249
#     4  10  22  36  49  69  93 121 158 188 221 272
#
# _framework density 15.868112999999999
#
# number of rings (size 3 to 8) (size 9 to 14) (size 15 to 20)
#    0.000    2.556    1.111    1.333    0.000    3.778 
#    0.000    2.222    0.000    0.000    0.000    6.222 
#    0.000    0.889    0.444    0.000    0.000    0.000 
#
# Total GULP energy -446384.607936 kJ/mol
# GULP energy per Si atom -12399.572443 kJ/mol
# Density = 1.583200 g / cm^3
# Si number density = 15.868113 Si / 1000 Ang^3
#
#
#
# Elastic Constant Matrix: (Units=GPa)
#
#
# Indices 1 2 3 4 5 6 
#
# 1 104.6301 33.7869 57.6039 0.0000 0.0000 0.0000
# 2 33.7869 88.5075 38.9780 0.0000 0.0000 0.0000
# 3 57.6039 38.9780 121.1640 0.0000 0.0000 0.0000
# 4 0.0000 0.0000 0.0000 12.9406 0.0000 0.0000
# 5 0.0000 0.0000 0.0000 0.0000 21.1925 0.0000
# 6 0.0000 0.0000 0.0000 0.0000 0.0000 15.6994
#
#
#
# Elastic Compliance Matrix: (Units=1/GPa)
#
#
# Indices 1 2 3 4 5 6 
#
# 1 0.013481 -0.002707 -0.005538 0.000000 0.000000 0.000000
# 2 -0.002707 0.013707 -0.003122 0.000000 0.000000 0.000000
# 3 -0.005538 -0.003122 0.011891 0.000000 0.000000 0.000000
# 4 0.000000 0.000000 0.000000 0.077276 0.000000 0.000000
# 5 0.000000 0.000000 0.000000 0.000000 0.047187 0.000000
# 6 0.000000 0.000000 0.000000 0.000000 0.000000 0.063697
#
#
# Mechanical properties :
#
#
# Convention : Reuss Voigt Hill
#
# Bulk Modulus (GPa) = 61.18857 63.89322 62.54090
# Shear Modulus (GPa) = 19.57552 22.22868 20.90210
#
# Velocity S-wave (km/s) = 3.51613 3.74684 3.63332
# Velocity P-wave (km/s) = 7.42487 7.68577 7.55644
#
# Compressibility (1/GPa) = 0.01634292
#
# Stress axis : x y z
#
# Youngs Moduli (GPa) = 74.18034 72.95530 84.09951
#
# Poissons Ratio (x) = 0.19750 0.46575
# Poissons Ratio (y) = 0.20082 0.26260
# Poissons Ratio (z) = 0.41082 0.22780
#
# Static dielectric constant tensor:
#      x y z
#    x 3.311960 0.000000 0.000000 
#    y 0.000000 2.928460 0.000000 
#    z 0.000000 0.000000 2.882930 
# 
# 
# High freq. dielectric constant tensor:
#      x y z
#    x 1.632750 0.000000 0.000000 
#    y 0.000000 1.585650 0.000000 
#    z 0.000000 0.000000 1.586240 
# 
# From -- ./inp_files/49786.got.cif
#   From: 2010.03.12/outbox.cif.g09.slc.cpg/sg65_25_cif.got.tgz:49786.got - 2010.04.10 20:52:16.
