data_PCOD8267050
_publ_section_title
;
Structure prediction by ZEFSAII (Michael W. Deem and Ramdas Pophale) SiO2 
 PCOD8267050
Probable space group: C M M M
;
_chemical_formula_sum "Si O2"
_cell_formula_units_Z 104
_cell_length_a 8.977982
_cell_length_b 27.382409
_cell_length_c 26.674762
_cell_angle_alpha 90.000000
_cell_angle_beta 90.000000
_cell_angle_gamma 90.000000
_cell_volume 6557.690817
_symmetry_space_group_name_H-M "C M M M"
_symmetry_group_IT_number 65
_symmetry_cell_setting 'orthorhombic'
loop_
_space_group_symop_operation_xyz
x,y,z
-x,-y,z
x,-y,-z
-x,y,-z
-x,-y,-z
x,y,-z
-x,y,z
x,-y,z
1/2+x,1/2+y,z
1/2-x,1/2-y,z
1/2+x,1/2-y,-z
1/2-x,1/2+y,-z
1/2-x,1/2-y,-z
1/2+x,1/2+y,-z
1/2-x,1/2+y,z
1/2+x,1/2-y,z
loop_
_atom_site_type_symbol
_atom_site_label
_atom_site_fract_x
_atom_site_fract_y
_atom_site_fract_z
Si Si1 0.325124 0.389047 0.295936
Si Si2 0.173271 0.358950 0.555734
Si Si3 0.833230 0.058163 0.892865
Si Si4 0.823089 0.946516 0.000000
Si Si5 0.325591 0.445393 0.395418
Si Si6 0.172903 0.442864 0.793870
Si Si7 0.676576 0.198342 0.347502
O O1 0.500000 0.377963 0.293053
O O2 0.285994 0.427138 0.339787
O O3 0.270573 0.412063 0.244446
O O4 0.237934 0.338768 0.305818
O O5 0.211305 0.339062 0.500000
O O6 0.252379 0.410846 0.563145
O O7 0.227087 0.319660 0.596945
O O8 0.000000 0.368848 0.562530
O O9 0.720002 0.074608 0.849467
O O10 0.000000 0.076855 0.879686
O O11 0.835788 0.000000 0.898016
O O12 0.778363 0.080070 0.947243
O O13 0.000000 0.952031 0.000000
O O14 0.747811 0.000000 0.000000
O O15 0.500000 0.444524 0.404898
O O16 0.261486 0.500000 0.401462
O O17 0.208416 0.500000 0.786344
O O18 0.000000 0.431454 0.785696
O O19 0.500000 0.202559 0.342718
O O20 0.750000 0.250000 0.337011
#
# Coordination Sequence:
#
# PCOD8267050 Si02
#       7
#    16  16  16   8  16  16  16
#     4  10  19  32  49  66  85 112 146 182 219 260
#     4   9  19  34  49  67  91 116 142 172 206 248
#     4   8  13  22  36  53  75 108 150 190 224 258
#     4   7  10  18  33  51  71 101 146 193 226 253
#     4   9  18  31  46  65  88 114 145 179 213 250
#     4  10  19  28  39  60  90 120 150 185 224 263
#     4  10  20  35  53  71  90 111 137 171 213 261
#
# _framework density 15.859241000000001
#
# number of rings (size 3 to 8) (size 9 to 14) (size 15 to 20)
#    0.000    2.846    0.000    2.769    0.000    4.000 
#    0.000    1.923    0.000    2.308    0.000    0.000 
#    0.000    0.000    0.000    0.692    0.000    8.846 
#
# Total GULP energy -644529.511459 kJ/mol
# GULP energy per Si atom -12394.798297 kJ/mol
# Density = 1.582314 g / cm^3
# Si number density = 15.859241 Si / 1000 Ang^3
#
#
#
# Elastic Constant Matrix: (Units=GPa)
#
#
# Indices 1 2 3 4 5 6 
#
# 1 51.7092 27.6040 28.5653 0.0000 0.0000 0.0000
# 2 27.6040 69.2557 24.7050 0.0000 0.0000 0.0000
# 3 28.5653 24.7050 98.6509 0.0000 0.0000 0.0000
# 4 0.0000 0.0000 0.0000 8.1357 0.0000 0.0000
# 5 0.0000 0.0000 0.0000 0.0000 23.0311 0.0000
# 6 0.0000 0.0000 0.0000 0.0000 0.0000 22.5869
#
#
#
# Elastic Compliance Matrix: (Units=1/GPa)
#
#
# Indices 1 2 3 4 5 6 
#
# 1 0.027169 -0.008810 -0.005661 0.000000 0.000000 0.000000
# 2 -0.008810 0.018712 -0.002135 0.000000 0.000000 0.000000
# 3 -0.005661 -0.002135 0.012311 0.000000 0.000000 0.000000
# 4 0.000000 0.000000 0.000000 0.122915 0.000000 0.000000
# 5 0.000000 0.000000 0.000000 0.000000 0.043419 0.000000
# 6 0.000000 0.000000 0.000000 0.000000 0.000000 0.044273
#
#
# Mechanical properties :
#
#
# Convention : Reuss Voigt Hill
#
# Bulk Modulus (GPa) = 40.03122 42.37381 41.20251
# Shear Modulus (GPa) = 16.11148 20.00019 18.05583
#
# Velocity S-wave (km/s) = 3.19078 3.55506 3.37784
# Velocity P-wave (km/s) = 6.23468 6.60515 6.42258
#
# Compressibility (1/GPa) = 0.02498050
#
# Stress axis : x y z
#
# Youngs Moduli (GPa) = 36.80664 53.44087 81.23073
#
# Poissons Ratio (x) = 0.47080 0.45984
# Poissons Ratio (y) = 0.32426 0.17344
# Poissons Ratio (z) = 0.20836 0.11410
#
# Static dielectric constant tensor:
#      x y z
#    x 2.979700 0.000000 0.000000 
#    y 0.000000 2.743470 0.000000 
#    z 0.000000 0.000000 3.275530 
# 
# 
# High freq. dielectric constant tensor:
#      x y z
#    x 1.609040 0.000000 0.000000 
#    y 0.000000 1.562620 0.000000 
#    z 0.000000 0.000000 1.613600 
# 
# From -- ./inp_files/73589.got.cif
#   From: 2010.03.12/outbox.cif.g09.slc.cpg/sg65_37_cif.got.tgz:73589.got - 2010.04.10 20:52:16.
