data_PCOD8267585
_publ_section_title
;
Structure prediction by ZEFSAII (Michael W. Deem and Ramdas Pophale) SiO2 
 PCOD8267585
Probable space group: C M M M
;
_chemical_formula_sum "Si O2"
_cell_formula_units_Z 64
_cell_length_a 8.832380
_cell_length_b 23.318375
_cell_length_c 18.243685
_cell_angle_alpha 90.000000
_cell_angle_beta 90.000000
_cell_angle_gamma 90.000000
_cell_volume 3757.410052
_symmetry_space_group_name_H-M "C M M M"
_symmetry_group_IT_number 65
_symmetry_cell_setting 'orthorhombic'
loop_
_space_group_symop_operation_xyz
x,y,z
-x,-y,z
x,-y,-z
-x,y,-z
-x,-y,-z
x,y,-z
-x,y,z
x,-y,z
1/2+x,1/2+y,z
1/2-x,1/2-y,z
1/2+x,1/2-y,-z
1/2-x,1/2+y,-z
1/2-x,1/2-y,-z
1/2+x,1/2+y,-z
1/2-x,1/2+y,z
1/2+x,1/2-y,z
loop_
_atom_site_type_symbol
_atom_site_label
_atom_site_fract_x
_atom_site_fract_y
_atom_site_fract_z
Si Si1 0.822131 0.811407 0.000000
Si Si2 0.822703 0.312109 0.579391
Si Si3 0.178232 0.114156 0.136455
Si Si4 0.178717 0.812691 0.276523
Si Si5 0.179016 0.500000 0.083916
O O1 0.750000 0.750000 0.000000
O O2 0.765831 0.845150 0.071170
O O3 0.000000 0.803566 0.000000
O O4 0.795312 0.343192 0.500000
O O5 0.750000 0.250000 0.574771
O O6 0.741656 0.342664 0.648495
O O7 0.000000 0.306656 0.595709
O O8 0.226114 0.144639 0.211758
O O9 0.263284 0.054319 0.129230
O O10 0.000000 0.102641 0.132173
O O11 0.250000 0.750000 0.263231
O O12 0.000000 0.805185 0.281200
O O13 0.000000 0.500000 0.082817
O O14 0.242256 0.500000 0.000000
#
# Coordination Sequence:
#
# PCOD8267585 Si02
#       5
#     8  16  16  16   8
#     4  10  20  33  50  71  97 130 162 194 237 288
#     4   9  16  26  42  65  95 132 167 198 238 287
#     4  10  21  36  53  71  96 132 166 199 246 297
#     4  10  19  30  47  73 102 133 166 200 244 292
#     4  11  23  37  55  77  94 119 164 215 255 286
#
# _framework density 17.033010000000001
#
# number of rings (size 3 to 8) (size 9 to 14) (size 15 to 20)
#    0.000    2.125    1.250    4.125    0.000    5.000 
#    0.000    0.000    0.000    0.000    0.000    0.875 
#    0.000    7.000    0.000    0.000    0.000    0.000 
#
# Total GULP energy -396640.489324 kJ/mol
# GULP energy per Si atom -12395.015291 kJ/mol
# Density = 1.699424 g / cm^3
# Si number density = 17.033010 Si / 1000 Ang^3
#
#
#
# Elastic Constant Matrix: (Units=GPa)
#
#
# Indices 1 2 3 4 5 6 
#
# 1 70.2215 39.8122 56.8746 0.0000 0.0000 0.0000
# 2 39.8122 103.1552 66.9422 0.0000 0.0000 0.0000
# 3 56.8746 66.9422 183.2820 0.0000 0.0000 0.0000
# 4 0.0000 0.0000 0.0000 215.4792 0.0000 0.0000
# 5 0.0000 0.0000 0.0000 0.0000 29.4708 0.0000
# 6 0.0000 0.0000 0.0000 0.0000 0.0000 26.1648
#
#
#
# Elastic Compliance Matrix: (Units=1/GPa)
#
#
# Indices 1 2 3 4 5 6 
#
# 1 0.020848 -0.005043 -0.004627 0.000000 0.000000 0.000000
# 2 -0.005043 0.013926 -0.003521 0.000000 0.000000 0.000000
# 3 -0.004627 -0.003521 0.008178 0.000000 0.000000 0.000000
# 4 0.000000 0.000000 0.000000 0.004641 0.000000 0.000000
# 5 0.000000 0.000000 0.000000 0.000000 0.033932 0.000000
# 6 0.000000 0.000000 0.000000 0.000000 0.000000 0.038219
#
#
# Mechanical properties :
#
#
# Convention : Reuss Voigt Hill
#
# Bulk Modulus (GPa) = 60.35762 75.99075 68.17418
# Shear Modulus (GPa) = 32.97073 67.09159 50.03116
#
# Velocity S-wave (km/s) = 4.40443 6.28289 5.42557
# Velocity P-wave (km/s) = 7.83441 9.86628 8.90846
#
# Compressibility (1/GPa) = 0.01656792
#
# Stress axis : x y z
#
# Youngs Moduli (GPa) = 47.96685 71.81006 122.27787
#
# Poissons Ratio (x) = 0.36215 0.56582
# Poissons Ratio (y) = 0.24191 0.43057
# Poissons Ratio (z) = 0.22196 0.25286
#
# Static dielectric constant tensor:
#      x y z
#    x 3.225650 0.000000 0.000000 
#    y 0.000000 2.810680 0.000000 
#    z 0.000000 0.000000 4.016380 
# 
# 
# High freq. dielectric constant tensor:
#      x y z
#    x 1.666250 0.000000 0.000000 
#    y 0.000000 1.611120 0.000000 
#    z 0.000000 0.000000 1.677810 
# 
# From -- ./inp_files/49421.got.cif
#   From: 2010.03.12/outbox.cif.g09.slc.cpg/sg65_25_cif.got.tgz:49421.got - 2010.04.10 20:52:16.
