data_PCOD8267966
_publ_section_title
;
Structure prediction by ZEFSAII (Michael W. Deem and Ramdas Pophale) SiO2 
 PCOD8267966
Probable space group: C M M M
;
_chemical_formula_sum "Si O2"
_cell_formula_units_Z 112
_cell_length_a 29.716216
_cell_length_b 15.384564
_cell_length_c 13.741878
_cell_angle_alpha 90.000000
_cell_angle_beta 90.000000
_cell_angle_gamma 90.000000
_cell_volume 6282.388477
_symmetry_space_group_name_H-M "C M M M"
_symmetry_group_IT_number 65
_symmetry_cell_setting 'orthorhombic'
loop_
_space_group_symop_operation_xyz
x,y,z
-x,-y,z
x,-y,-z
-x,y,-z
-x,-y,-z
x,y,-z
-x,y,z
x,-y,z
1/2+x,1/2+y,z
1/2-x,1/2-y,z
1/2+x,1/2-y,-z
1/2-x,1/2+y,-z
1/2-x,1/2-y,-z
1/2+x,1/2+y,-z
1/2-x,1/2+y,z
1/2+x,1/2-y,z
loop_
_atom_site_type_symbol
_atom_site_label
_atom_site_fract_x
_atom_site_fract_y
_atom_site_fract_z
Si Si1 0.291983 0.598081 0.204613
Si Si2 0.109051 0.249504 0.307907
Si Si3 0.701895 0.296095 0.387430
Si Si4 0.051712 0.400806 0.387338
Si Si5 0.950119 0.096172 0.614650
Si Si6 0.355022 0.734014 0.109729
Si Si7 0.199975 0.595787 0.891379
O O1 0.308370 0.500000 0.184474
O O2 0.300017 0.619330 0.318377
O O3 0.317202 0.662129 0.130608
O O4 0.239319 0.609764 0.185820
O O5 0.159649 0.263067 0.351391
O O6 0.082499 0.338419 0.323616
O O7 0.086375 0.167019 0.357333
O O8 0.107073 0.227033 0.192590
O O9 0.695606 0.323151 0.500000
O O10 0.750000 0.250000 0.372223
O O11 0.058693 0.377413 0.500000
O O12 0.066021 0.500000 0.366889
O O13 0.000000 0.386197 0.357941
O O14 0.952167 0.092563 0.500000
O O15 0.000000 0.121412 0.654426
O O16 0.936527 0.000000 0.654491
O O17 0.337037 0.831369 0.124308
O O18 0.373872 0.720605 0.000000
O O19 0.178023 0.500000 0.876305
O O20 0.220554 0.603256 0.000000
#
# Coordination Sequence:
#
# PCOD8267966 Si02
#       7
#    16  16  16  16  16  16  16
#     4  10  19  31  49  70  92 126 172 218 264 306
#     4  11  20  32  54  76  99 138 176 207 250 303
#     4  10  21  35  48  68 104 146 182 211 240 287
#     4   9  18  33  55  84 111 130 157 205 261 312
#     4   9  18  33  55  83 107 124 154 207 263 309
#     4  10  21  34  47  69 100 130 166 215 261 300
#     4   9  17  31  52  72  88 115 163 222 274 306
#
# _framework density 17.827615000000002
#
# number of rings (size 3 to 8) (size 9 to 14) (size 15 to 20)
#    0.000    2.286    0.000    5.143    0.000    6.286 
#    0.000    0.714    0.000    2.571    0.000    2.000 
#    0.000    0.000    0.000    0.000    0.000    0.000 
#
# Total GULP energy -694054.098526 kJ/mol
# GULP energy per Si atom -12393.823188 kJ/mol
# Density = 1.778704 g / cm^3
# Si number density = 17.827615 Si / 1000 Ang^3
#
#
#
# Elastic Constant Matrix: (Units=GPa)
#
#
# Indices 1 2 3 4 5 6 
#
# 1 75.2568 34.3595 22.0506 0.0000 0.0000 0.0000
# 2 34.3595 92.4875 20.0390 0.0000 0.0000 0.0000
# 3 22.0506 20.0390 85.2225 0.0000 0.0000 0.0000
# 4 0.0000 0.0000 0.0000 23.1632 0.0000 0.0000
# 5 0.0000 0.0000 0.0000 0.0000 15.3738 0.0000
# 6 0.0000 0.0000 0.0000 0.0000 0.0000 16.2734
#
#
#
# Elastic Compliance Matrix: (Units=1/GPa)
#
#
# Indices 1 2 3 4 5 6 
#
# 1 0.016707 -0.005553 -0.003017 0.000000 0.000000 0.000000
# 2 -0.005553 0.013238 -0.001676 0.000000 0.000000 0.000000
# 3 -0.003017 -0.001676 0.012909 0.000000 0.000000 0.000000
# 4 0.000000 0.000000 0.000000 0.043172 0.000000 0.000000
# 5 0.000000 0.000000 0.000000 0.000000 0.065046 0.000000
# 6 0.000000 0.000000 0.000000 0.000000 0.000000 0.061450
#
#
# Mechanical properties :
#
#
# Convention : Reuss Voigt Hill
#
# Bulk Modulus (GPa) = 44.71894 45.09612 44.90753
# Shear Modulus (GPa) = 20.79274 22.72992 21.76133
#
# Velocity S-wave (km/s) = 3.41885 3.57457 3.49757
# Velocity P-wave (km/s) = 6.38148 6.51055 6.44634
#
# Compressibility (1/GPa) = 0.02236189
#
# Stress axis : x y z
#
# Youngs Moduli (GPa) = 59.85447 75.53776 77.46685
#
# Poissons Ratio (x) = 0.41947 0.23373
# Poissons Ratio (y) = 0.33238 0.12984
# Poissons Ratio (z) = 0.18059 0.12660
#
# Static dielectric constant tensor:
#      x y z
#    x 3.198300 0.000000 0.000000 
#    y 0.000000 3.446460 0.000000 
#    z 0.000000 0.000000 3.376240 
# 
# 
# High freq. dielectric constant tensor:
#      x y z
#    x 1.666690 0.000000 0.000000 
#    y 0.000000 1.698190 0.000000 
#    z 0.000000 0.000000 1.682510 
# 
# From -- ./inp_files/41345.got.cif
#   From: 2010.03.12/outbox.cif.g09.slc.cpg/sg65_21_cif.got.tgz:41345.got - 2010.04.10 20:52:16.
