data_PCOD8267731
_publ_section_title
;
Structure prediction by ZEFSAII (Michael W. Deem and Ramdas Pophale) SiO2 
 PCOD8267731
Probable space group: C M M M
;
_chemical_formula_sum "Si O2"
_cell_formula_units_Z 72
_cell_length_a 23.777022
_cell_length_b 8.826288
_cell_length_c 18.076727
_cell_angle_alpha 90.000000
_cell_angle_beta 90.000000
_cell_angle_gamma 90.000000
_cell_volume 3793.633338
_symmetry_space_group_name_H-M "C M M M"
_symmetry_group_IT_number 65
_symmetry_cell_setting 'orthorhombic'
loop_
_space_group_symop_operation_xyz
x,y,z
-x,-y,z
x,-y,-z
-x,y,-z
-x,-y,-z
x,y,-z
-x,y,z
x,-y,z
1/2+x,1/2+y,z
1/2-x,1/2-y,z
1/2+x,1/2-y,-z
1/2-x,1/2+y,-z
1/2-x,1/2-y,-z
1/2+x,1/2+y,-z
1/2-x,1/2+y,z
1/2+x,1/2-y,z
loop_
_atom_site_type_symbol
_atom_site_label
_atom_site_fract_x
_atom_site_fract_y
_atom_site_fract_z
Si Si1 0.311641 0.819301 0.000000
Si Si2 0.115371 0.680332 0.582234
Si Si3 0.000000 0.680506 0.817087
Si Si4 0.120821 0.320131 0.857998
Si Si5 0.000000 0.319297 0.350166
Si Si6 0.310454 0.820364 0.716238
O O1 0.250000 0.750000 0.000000
O O2 0.345498 0.757733 0.928735
O O3 0.306691 0.000000 0.000000
O O4 0.129495 0.741611 0.500000
O O5 0.113468 0.500000 0.582840
O O6 0.162854 0.737987 0.639152
O O7 0.054743 0.743200 0.607437
O O8 0.943828 0.739268 0.858972
O O9 0.000000 0.743056 0.733406
O O10 0.000000 0.500000 0.814708
O O11 0.120873 0.500000 0.859876
O O12 0.150582 0.262455 0.783280
O O13 0.000000 0.500000 0.349209
O O14 0.250000 0.750000 0.726717
O O15 0.305364 0.000000 0.717358
#
# Coordination Sequence:
#
# PCOD8267731 Si02
#       6
#     8  16   8  16   8  16
#     4  10  20  33  49  71  97 126 157 188 220 264
#     4   9  16  25  40  64  91 118 150 188 229 273
#     4   9  14  24  44  68  94 119 143 184 238 280
#     4   9  17  29  46  69  95 120 150 188 232 274
#     4   9  13  22  40  64  92 118 144 182 235 279
#     4  10  19  31  46  65  91 123 155 188 225 268
#
# _framework density 18.979165999999999
#
# number of rings (size 3 to 8) (size 9 to 14) (size 15 to 20)
#    0.000    2.667    2.222    1.000    0.000    2.222 
#    0.000    2.222    0.000    0.000    0.000    6.222 
#    0.000    1.778    0.000    0.000    0.000    0.000 
#
# Total GULP energy -446258.482825 kJ/mol
# GULP energy per Si atom -12396.068967 kJ/mol
# Density = 1.893597 g / cm^3
# Si number density = 18.979166 Si / 1000 Ang^3
#
#
#
# Elastic Constant Matrix: (Units=GPa)
#
#
# Indices 1 2 3 4 5 6 
#
# 1 189.7083 14.1194 92.9984 0.0000 0.0000 0.0000
# 2 14.1194 6.4906 12.5968 0.0000 0.0000 0.0000
# 3 92.9984 12.5968 172.1978 0.0000 0.0000 0.0000
# 4 0.0000 0.0000 0.0000 6.6971 0.0000 0.0000
# 5 0.0000 0.0000 0.0000 0.0000 30.5832 0.0000
# 6 0.0000 0.0000 0.0000 0.0000 0.0000 19.7305
#
#
#
# Elastic Compliance Matrix: (Units=1/GPa)
#
#
# Indices 1 2 3 4 5 6 
#
# 1 0.007700 -0.010116 -0.003418 0.000000 0.000000 0.000000
# 2 -0.010116 0.192852 -0.008645 0.000000 0.000000 0.000000
# 3 -0.003418 -0.008645 0.008286 0.000000 0.000000 0.000000
# 4 0.000000 0.000000 0.000000 0.149318 0.000000 0.000000
# 5 0.000000 0.000000 0.000000 0.000000 0.032698 0.000000
# 6 0.000000 0.000000 0.000000 0.000000 0.000000 0.050683
#
#
# Mechanical properties :
#
#
# Convention : Reuss Voigt Hill
#
# Bulk Modulus (GPa) = 6.07977 67.53621 36.80799
# Shear Modulus (GPa) = 9.24692 27.98096 18.61394
#
# Velocity S-wave (km/s) = 2.20969 3.84383 3.13510
# Velocity P-wave (km/s) = 3.11779 7.44054 5.70448
#
# Compressibility (1/GPa) = 0.16447997
#
# Stress axis : x y z
#
# Youngs Moduli (GPa) = 129.87121 5.18533 120.68745
#
# Poissons Ratio (x) = 0.05245 0.41257
# Poissons Ratio (y) = 1.31373 1.04329
# Poissons Ratio (z) = 0.44396 0.04482
#
# Static dielectric constant tensor:
#      x y z
#    x 3.714670 0.000000 0.000000 
#    y 0.000000 2.697100 0.000000 
#    z 0.000000 0.000000 3.855200 
# 
# 
# High freq. dielectric constant tensor:
#      x y z
#    x 1.753870 0.000000 0.000000 
#    y 0.000000 1.653040 0.000000 
#    z 0.000000 0.000000 1.750620 
# 
# From -- ./inp_files/51330.got.cif
#   From: 2010.03.12/outbox.cif.g09.slc.cpg/sg65_26_cif.got.tgz:51330.got - 2010.04.10 20:52:16.
