data_PCOD8267663
_publ_section_title
;
Structure prediction by ZEFSAII (Michael W. Deem and Ramdas Pophale) SiO2 
 PCOD8267663
Probable space group: C M M M
;
_chemical_formula_sum "Si O2"
_cell_formula_units_Z 96
_cell_length_a 14.165028
_cell_length_b 14.367540
_cell_length_c 24.085543
_cell_angle_alpha 90.000000
_cell_angle_beta 90.000000
_cell_angle_gamma 90.000000
_cell_volume 4901.807974
_symmetry_space_group_name_H-M "C M M M"
_symmetry_group_IT_number 65
_symmetry_cell_setting 'orthorhombic'
loop_
_space_group_symop_operation_xyz
x,y,z
-x,-y,z
x,-y,-z
-x,y,-z
-x,-y,-z
x,y,-z
-x,y,z
x,-y,z
1/2+x,1/2+y,z
1/2-x,1/2-y,z
1/2+x,1/2-y,-z
1/2-x,1/2+y,-z
1/2-x,1/2-y,-z
1/2+x,1/2+y,-z
1/2-x,1/2+y,z
1/2+x,1/2-y,z
loop_
_atom_site_type_symbol
_atom_site_label
_atom_site_fract_x
_atom_site_fract_y
_atom_site_fract_z
Si Si1 0.387818 0.894428 0.439461
Si Si2 0.604389 0.399026 0.707351
Si Si3 0.608153 0.728176 0.064397
Si Si4 0.225595 0.389569 0.891837
Si Si5 0.608388 0.206281 0.667341
Si Si6 0.790590 0.396240 0.234570
O O1 0.351161 0.858954 0.500000
O O2 0.500000 0.886577 0.438748
O O3 0.344518 0.835409 0.388440
O O4 0.355253 0.000000 0.430313
O O5 0.500000 0.387895 0.733732
O O6 0.614630 0.500000 0.677283
O O7 0.621031 0.317664 0.662276
O O8 0.677863 0.391385 0.757458
O O9 0.500000 0.725370 0.085746
O O10 0.669657 0.651664 0.097773
O O11 0.650228 0.832639 0.071370
O O12 0.613263 0.701677 0.000000
O O13 0.223669 0.500000 0.905588
O O14 0.192260 0.369149 0.828900
O O15 0.500000 0.175190 0.671956
O O16 0.658939 0.173667 0.723453
O O17 0.829009 0.500000 0.247002
#
# Coordination Sequence:
#
# PCOD8267663 Si02
#       6
#    16  16  16  16  16  16
#     4   8  14  26  45  71 104 139 176 220 269 323
#     4   9  19  34  50  70  99 139 183 219 256 311
#     4  10  23  41  61  87 117 151 193 240 285 333
#     4  10  22  39  60  86 117 153 190 235 289 343
#     4  10  19  30  51  79 107 141 175 216 272 331
#     4  10  21  35  52  78 110 140 173 218 270 326
#
# _framework density 19.584612
#
# number of rings (size 3 to 8) (size 9 to 14) (size 15 to 20)
#    0.000    2.500    0.000    2.500    4.667    4.333 
#    0.000    5.000    0.000    2.500    0.000    5.833 
#    0.000    0.000    0.000    0.000    0.000    0.000 
#
# Total GULP energy -594814.938365 kJ/mol
# GULP energy per Si atom -12391.977883 kJ/mol
# Density = 1.954004 g / cm^3
# Si number density = 19.584612 Si / 1000 Ang^3
#
#
#
# Elastic Constant Matrix: (Units=GPa)
#
#
# Indices 1 2 3 4 5 6 
#
# 1 80.1805 29.8363 23.5458 0.0000 0.0000 0.0000
# 2 29.8363 118.5535 44.1421 0.0000 0.0000 0.0000
# 3 23.5458 44.1421 95.9767 0.0000 0.0000 0.0000
# 4 0.0000 0.0000 0.0000 24.6049 0.0000 0.0000
# 5 0.0000 0.0000 0.0000 0.0000 16.3366 0.0000
# 6 0.0000 0.0000 0.0000 0.0000 0.0000 20.2659
#
#
#
# Elastic Compliance Matrix: (Units=1/GPa)
#
#
# Indices 1 2 3 4 5 6 
#
# 1 0.014139 -0.002735 -0.002211 0.000000 0.000000 0.000000
# 2 -0.002735 0.010707 -0.004253 0.000000 0.000000 0.000000
# 3 -0.002211 -0.004253 0.012918 0.000000 0.000000 0.000000
# 4 0.000000 0.000000 0.000000 0.040642 0.000000 0.000000
# 5 0.000000 0.000000 0.000000 0.000000 0.061212 0.000000
# 6 0.000000 0.000000 0.000000 0.000000 0.000000 0.049344
#
#
# Mechanical properties :
#
#
# Convention : Reuss Voigt Hill
#
# Bulk Modulus (GPa) = 51.63923 54.41768 53.02845
# Shear Modulus (GPa) = 23.38461 25.38726 24.38593
#
# Velocity S-wave (km/s) = 3.45922 3.60430 3.53251
# Velocity P-wave (km/s) = 6.50995 6.72068 6.61616
#
# Compressibility (1/GPa) = 0.01936512
#
# Stress axis : x y z
#
# Youngs Moduli (GPa) = 70.72715 93.39597 77.41255
#
# Poissons Ratio (x) = 0.25546 0.17113
# Poissons Ratio (y) = 0.19345 0.32927
# Poissons Ratio (z) = 0.15635 0.39725
#
# Static dielectric constant tensor:
#      x y z
#    x 3.535740 0.000000 0.000000 
#    y 0.000000 3.785720 0.000000 
#    z 0.000000 0.000000 3.583220 
# 
# 
# High freq. dielectric constant tensor:
#      x y z
#    x 1.749130 0.000000 0.000000 
#    y 0.000000 1.771860 0.000000 
#    z 0.000000 0.000000 1.746940 
# 
# From -- ./inp_files/62602.got.cif
#   From: 2010.03.12/outbox.cif.g09.slc.cpg/sg65_32_cif.got.tgz:62602.got - 2010.04.10 20:52:16.
