data_PCOD8267052
_publ_section_title
;
Structure prediction by ZEFSAII (Michael W. Deem and Ramdas Pophale) SiO2 
 PCOD8267052
Probable space group: C M M M
;
_chemical_formula_sum "Si O2"
_cell_formula_units_Z 72
_cell_length_a 7.725218
_cell_length_b 36.545510
_cell_length_c 18.365216
_cell_angle_alpha 90.000000
_cell_angle_beta 90.000000
_cell_angle_gamma 90.000000
_cell_volume 5184.905093
_symmetry_space_group_name_H-M "C M M M"
_symmetry_group_IT_number 65
_symmetry_cell_setting 'orthorhombic'
loop_
_space_group_symop_operation_xyz
x,y,z
-x,-y,z
x,-y,-z
-x,y,-z
-x,-y,-z
x,y,-z
-x,y,z
x,-y,z
1/2+x,1/2+y,z
1/2-x,1/2-y,z
1/2+x,1/2-y,-z
1/2-x,1/2+y,-z
1/2-x,1/2-y,-z
1/2+x,1/2+y,-z
1/2-x,1/2+y,z
1/2+x,1/2-y,z
loop_
_atom_site_type_symbol
_atom_site_label
_atom_site_fract_x
_atom_site_fract_y
_atom_site_fract_z
Si Si1 0.000000 0.342737 0.913558
Si Si2 0.000000 0.581315 0.837372
Si Si3 0.692081 0.456707 0.419211
Si Si4 0.692230 0.710935 0.913983
Si Si5 0.000000 0.456119 0.315336
Si Si6 0.804885 0.042262 0.916036
O O1 0.170885 0.320063 0.892463
O O2 0.000000 0.376229 0.857481
O O3 0.000000 0.353769 0.000000
O O4 0.000000 0.570749 0.753206
O O5 0.174993 0.565385 0.869385
O O6 0.736340 0.441212 0.500000
O O7 0.500000 0.443413 0.395183
O O8 0.696724 0.500000 0.423509
O O9 0.831984 0.443783 0.360709
O O10 0.500000 0.700530 0.884712
O O11 0.750000 0.750000 0.880407
O O12 0.686934 0.714946 0.000000
O O13 0.000000 0.500000 0.296351
O O14 0.000000 0.053213 0.894502
O O15 0.771858 0.000000 0.899307
O O16 0.770730 0.050907 0.000000
#
# Coordination Sequence:
#
# PCOD8267052 Si02
#       6
#     8   8  16  16   8  16
#     4  10  20  30  41  60  82 108 138 172 214 255
#     4  12  22  30  40  58  87 114 138 171 216 262
#     4   8  14  26  44  63  80  99 130 173 212 245
#     4   9  15  26  45  64  79  94 120 163 210 252
#     4  10  19  28  40  59  82 111 143 174 209 248
#     4   9  18  32  47  57  67  96 146 195 228 250
#
# _framework density 13.886464
#
# number of rings (size 3 to 8) (size 9 to 14) (size 15 to 20)
#    0.000    2.667    1.111    3.667    0.000    4.000 
#    0.000    4.444    0.000    0.000    0.000    0.000 
#    0.000    0.000    0.000    0.000    0.000    4.444 
#
# Total GULP energy -446122.160825 kJ/mol
# GULP energy per Si atom -12392.282245 kJ/mol
# Density = 1.385486 g / cm^3
# Si number density = 13.886464 Si / 1000 Ang^3
#
#
#
# Elastic Constant Matrix: (Units=GPa)
#
#
# Indices 1 2 3 4 5 6 
#
# 1 135.0839 55.3245 53.1146 0.0000 0.0000 0.0000
# 2 55.3245 38.5859 74.0793 0.0000 0.0000 0.0000
# 3 53.1146 74.0793 37.9901 0.0000 0.0000 0.0000
# 4 0.0000 0.0000 0.0000 11.3097 0.0000 0.0000
# 5 0.0000 0.0000 0.0000 0.0000 12.3670 0.0000
# 6 0.0000 0.0000 0.0000 0.0000 0.0000 19.0030
#
#
#
# Elastic Compliance Matrix: (Units=1/GPa)
#
#
# Indices 1 2 3 4 5 6 
#
# 1 0.012076 -0.005503 -0.006152 0.000000 0.000000 0.000000
# 2 -0.005503 -0.006938 0.021223 0.000000 0.000000 0.000000
# 3 -0.006152 0.021223 -0.006460 0.000000 0.000000 0.000000
# 4 0.000000 0.000000 0.000000 0.088420 0.000000 0.000000
# 5 0.000000 0.000000 0.000000 0.000000 0.080861 0.000000
# 6 0.000000 0.000000 0.000000 0.000000 0.000000 0.052623
#
#
# Mechanical properties :
#
#
# Convention : Reuss Voigt Hill
#
# Bulk Modulus (GPa) = 56.13872 64.07742 60.10807
# Shear Modulus (GPa) = 24.10987 10.47869 17.29428
#
# Velocity S-wave (km/s) = 4.17131 2.74997 3.53286
# Velocity P-wave (km/s) = 7.98213 7.50514 7.74731
#
# Compressibility (1/GPa) = 0.01781302
#
# Stress axis : x y z
#
# Youngs Moduli (GPa) = 82.81134 -144.13747 -154.80036
#
# Poissons Ratio (x) = -0.79323 -0.95232
# Poissons Ratio (y) = 0.45574 3.28529
# Poissons Ratio (z) = 0.50945 3.05900
#
# Static dielectric constant tensor:
#      x y z
#    x 3.197300 0.000000 0.000000 
#    y 0.000000 2.491910 0.000000 
#    z 0.000000 0.000000 2.564520 
# 
# 
# High freq. dielectric constant tensor:
#      x y z
#    x 1.557790 0.000000 0.000000 
#    y 0.000000 1.488240 0.000000 
#    z 0.000000 0.000000 1.488450 
# 
# From -- ./inp_files/37068.got.cif
#   From: 2010.03.12/outbox.cif.g09.slc.cpg/sg65_19_cif.got.tgz:37068.got - 2010.04.10 20:52:16.
