data_PCOD8267590
_publ_section_title
;
Structure prediction by ZEFSAII (Michael W. Deem and Ramdas Pophale) SiO2 
 PCOD8267590
Probable space group: C M M M
;
_chemical_formula_sum "Si O2"
_cell_formula_units_Z 104
_cell_length_a 27.975221
_cell_length_b 8.835531
_cell_length_c 21.423844
_cell_angle_alpha 90.000000
_cell_angle_beta 90.000000
_cell_angle_gamma 90.000000
_cell_volume 5295.458616
_symmetry_space_group_name_H-M "C M M M"
_symmetry_group_IT_number 65
_symmetry_cell_setting 'orthorhombic'
loop_
_space_group_symop_operation_xyz
x,y,z
-x,-y,z
x,-y,-z
-x,y,-z
-x,-y,-z
x,y,-z
-x,y,z
x,-y,z
1/2+x,1/2+y,z
1/2-x,1/2-y,z
1/2+x,1/2-y,-z
1/2-x,1/2+y,-z
1/2-x,1/2-y,-z
1/2+x,1/2+y,-z
1/2-x,1/2+y,z
1/2+x,1/2-y,z
loop_
_atom_site_type_symbol
_atom_site_label
_atom_site_fract_x
_atom_site_fract_y
_atom_site_fract_z
Si Si1 0.055772 0.831719 0.500000
Si Si2 0.553584 0.178921 0.740658
Si Si3 0.205092 0.166914 0.751930
Si Si4 0.866520 0.675880 0.829216
Si Si5 0.296251 0.332797 0.606899
Si Si6 0.603415 0.820460 0.385264
Si Si7 0.199780 0.821669 0.070684
O O1 0.068893 0.738357 0.561274
O O2 0.000000 0.851388 0.500000
O O3 0.079574 0.000000 0.500000
O O4 0.500000 0.248605 0.742104
O O5 0.579071 0.216033 0.807794
O O6 0.583223 0.243494 0.680992
O O7 0.550860 0.000000 0.732338
O O8 0.250000 0.250000 0.783869
O O9 0.161140 0.277163 0.766179
O O10 0.213541 0.147639 0.679566
O O11 0.198341 0.000000 0.782813
O O12 0.860537 0.500000 0.844393
O O13 0.845412 0.768577 0.887574
O O14 0.301772 0.500000 0.576677
O O15 0.250000 0.250000 0.576492
O O16 0.343880 0.237183 0.597152
O O17 0.604794 0.000000 0.385090
O O18 0.250000 0.750000 0.093277
O O19 0.204845 0.000000 0.075747
O O20 0.188585 0.770054 0.000000
#
# Coordination Sequence:
#
# PCOD8267590 Si02
#       7
#     8  16  16  16  16  16  16
#     4  11  25  43  62  87 118 151 193 243 293 345
#     4   9  19  35  56  83 113 144 183 235 288 337
#     4  10  19  30  47  73 109 145 181 219 263 319
#     4  11  20  32  53  80 111 145 185 230 280 332
#     4  10  20  34  54  81 115 151 187 226 274 333
#     4  11  21  38  63  88 116 150 192 237 290 348
#     4  10  21  37  56  80 113 151 190 230 275 331
#
# _framework density 19.639471
#
# number of rings (size 3 to 8) (size 9 to 14) (size 15 to 20)
#    0.000    1.769    1.538    3.462    0.000    3.385 
#    0.000    0.385    0.000    5.077    0.000    3.231 
#    0.000    0.000    0.000    0.000    0.000    0.000 
#
# Total GULP energy -644388.037797 kJ/mol
# GULP energy per Si atom -12392.077650 kJ/mol
# Density = 1.959477 g / cm^3
# Si number density = 19.639471 Si / 1000 Ang^3
#
#
#
# Elastic Constant Matrix: (Units=GPa)
#
#
# Indices 1 2 3 4 5 6 
#
# 1 128.5064 38.0801 36.0467 0.0000 0.0000 0.0000
# 2 38.0801 89.6577 26.1327 0.0000 0.0000 0.0000
# 3 36.0467 26.1327 87.4153 0.0000 0.0000 0.0000
# 4 0.0000 0.0000 0.0000 26.4939 0.0000 0.0000
# 5 0.0000 0.0000 0.0000 0.0000 14.9683 0.0000
# 6 0.0000 0.0000 0.0000 0.0000 0.0000 25.6983
#
#
#
# Elastic Compliance Matrix: (Units=1/GPa)
#
#
# Indices 1 2 3 4 5 6 
#
# 1 0.009566 -0.003191 -0.002991 0.000000 0.000000 0.000000
# 2 -0.003191 0.013283 -0.002655 0.000000 0.000000 0.000000
# 3 -0.002991 -0.002655 0.013467 0.000000 0.000000 0.000000
# 4 0.000000 0.000000 0.000000 0.037745 0.000000 0.000000
# 5 0.000000 0.000000 0.000000 0.000000 0.066808 0.000000
# 6 0.000000 0.000000 0.000000 0.000000 0.000000 0.038913
#
#
# Mechanical properties :
#
#
# Convention : Reuss Voigt Hill
#
# Bulk Modulus (GPa) = 53.64300 56.23314 54.93807
# Shear Modulus (GPa) = 24.54963 27.12010 25.83486
#
# Velocity S-wave (km/s) = 3.53939 3.72007 3.63086
# Velocity P-wave (km/s) = 6.63899 6.86635 6.75363
#
# Compressibility (1/GPa) = 0.01864176
#
# Stress axis : x y z
#
# Youngs Moduli (GPa) = 104.53349 75.28523 74.25796
#
# Poissons Ratio (x) = 0.24026 0.22208
# Poissons Ratio (y) = 0.33360 0.19715
# Poissons Ratio (z) = 0.31263 0.19987
#
# Static dielectric constant tensor:
#      x y z
#    x 3.695180 0.000000 0.000000 
#    y 0.000000 3.749770 0.000000 
#    z 0.000000 0.000000 3.513400 
# 
# 
# High freq. dielectric constant tensor:
#      x y z
#    x 1.759600 0.000000 0.000000 
#    y 0.000000 1.766120 0.000000 
#    z 0.000000 0.000000 1.751330 
# 
# From -- ./inp_files/65924.got.cif
#   From: 2010.03.12/outbox.cif.g09.slc.cpg/sg65_33_cif.got.tgz:65924.got - 2010.04.10 20:52:16.
