data_PCOD8267105
_publ_section_title
;
Structure prediction by ZEFSAII (Michael W. Deem and Ramdas Pophale) SiO2 
 PCOD8267105
Probable space group: C M M M
;
_chemical_formula_sum "Si O2"
_cell_formula_units_Z 80
_cell_length_a 25.260120
_cell_length_b 22.228588
_cell_length_c 10.070192
_cell_angle_alpha 90.000000
_cell_angle_beta 90.000000
_cell_angle_gamma 90.000000
_cell_volume 5654.380587
_symmetry_space_group_name_H-M "C M M M"
_symmetry_group_IT_number 65
_symmetry_cell_setting 'orthorhombic'
loop_
_space_group_symop_operation_xyz
x,y,z
-x,-y,z
x,-y,-z
-x,y,-z
-x,-y,-z
x,y,-z
-x,y,z
x,-y,z
1/2+x,1/2+y,z
1/2-x,1/2-y,z
1/2+x,1/2-y,-z
1/2-x,1/2+y,-z
1/2-x,1/2-y,-z
1/2+x,1/2+y,-z
1/2-x,1/2+y,z
1/2+x,1/2-y,z
loop_
_atom_site_type_symbol
_atom_site_label
_atom_site_fract_x
_atom_site_fract_y
_atom_site_fract_z
Si Si1 0.939942 0.929008 0.500000
Si Si2 0.618878 0.616807 0.757611
Si Si3 0.730685 0.569883 0.847161
Si Si4 0.722330 0.156816 0.649606
Si Si5 0.438253 0.567167 0.000000
Si Si6 0.667667 0.726145 0.351852
O O1 0.906830 0.908044 0.625311
O O2 0.000000 0.902467 0.500000
O O3 0.943573 0.000000 0.500000
O O4 0.672857 0.581278 0.787149
O O5 0.577769 0.605863 0.873840
O O6 0.628657 0.688966 0.745098
O O7 0.744310 0.500000 0.839127
O O8 0.775097 0.603789 0.758409
O O9 0.732826 0.592733 0.000000
O O10 0.710501 0.132042 0.500000
O O11 0.676838 0.204774 0.694217
O O12 0.777285 0.191354 0.646482
O O13 0.411899 0.500000 0.000000
O O14 0.500000 0.558649 0.000000
O O15 0.643490 0.726176 0.500000
#
# Coordination Sequence:
#
# PCOD8267105 Si02
#       6
#     8  16  16  16   8  16
#     4  11  22  32  44  61  78 100 139 184 217 249
#     4  11  19  32  45  60  77 106 141 176 213 247
#     4  10  19  29  40  59  86 111 137 168 201 239
#     4   8  15  27  43  60  79 103 130 164 205 241
#     4  11  22  34  44  55  80 112 139 176 223 255
#     4   8  14  28  44  60  79  98 128 172 210 240
#
# _framework density 14.148322
#
# number of rings (size 3 to 8) (size 9 to 14) (size 15 to 20)
#    0.000    2.400    2.000    3.600    1.400    2.000 
#    1.800    2.000    0.000    0.000    0.000    0.000 
#    0.000    0.000    0.000    0.000    0.000    6.000 
#
# Total GULP energy -495692.609384 kJ/mol
# GULP energy per Si atom -12392.315235 kJ/mol
# Density = 1.411612 g / cm^3
# Si number density = 14.148322 Si / 1000 Ang^3
#
#
#
# Elastic Constant Matrix: (Units=GPa)
#
#
# Indices 1 2 3 4 5 6 
#
# 1 36.9461 37.6450 36.4962 0.0000 0.0000 0.0000
# 2 37.6450 80.1976 57.6311 0.0000 0.0000 0.0000
# 3 36.4962 57.6311 120.0994 0.0000 0.0000 0.0000
# 4 0.0000 0.0000 0.0000 23.0989 0.0000 0.0000
# 5 0.0000 0.0000 0.0000 0.0000 26.1936 0.0000
# 6 0.0000 0.0000 0.0000 0.0000 0.0000 19.4504
#
#
#
# Elastic Compliance Matrix: (Units=1/GPa)
#
#
# Indices 1 2 3 4 5 6 
#
# 1 0.055121 -0.021120 -0.006616 0.000000 0.000000 0.000000
# 2 -0.021120 0.027124 -0.006598 0.000000 0.000000 0.000000
# 3 -0.006616 -0.006598 0.013503 0.000000 0.000000 0.000000
# 4 0.000000 0.000000 0.000000 0.043292 0.000000 0.000000
# 5 0.000000 0.000000 0.000000 0.000000 0.038177 0.000000
# 6 0.000000 0.000000 0.000000 0.000000 0.000000 0.051413
#
#
# Mechanical properties :
#
#
# Convention : Reuss Voigt Hill
#
# Bulk Modulus (GPa) = 36.92595 55.64308 46.28452
# Shear Modulus (GPa) = 16.32256 20.77996 18.55126
#
# Velocity S-wave (km/s) = 3.40026 3.83655 3.62498
# Velocity P-wave (km/s) = 6.44760 7.68370 7.09263
#
# Compressibility (1/GPa) = 0.02708122
#
# Stress axis : x y z
#
# Youngs Moduli (GPa) = 18.14190 36.86738 74.05778
#
# Poissons Ratio (x) = 0.77863 0.48995
# Poissons Ratio (y) = 0.38315 0.48863
# Poissons Ratio (z) = 0.12002 0.24325
#
# Static dielectric constant tensor:
#      x y z
#    x 2.619430 0.000000 0.000000 
#    y 0.000000 3.007860 0.000000 
#    z 0.000000 0.000000 3.009210 
# 
# 
# High freq. dielectric constant tensor:
#      x y z
#    x 1.493680 0.000000 0.000000 
#    y 0.000000 1.528120 0.000000 
#    z 0.000000 0.000000 1.551340 
# 
# From -- ./inp_files/12090.got.cif
#   From: 2010.03.12/outbox.cif.g09.slc.cpg/sg65_7_cif.got.tgz:12090.got - 2010.04.10 20:52:16.
