data_PCOD8267930
_publ_section_title
;
Structure prediction by ZEFSAII (Michael W. Deem and Ramdas Pophale) SiO2 
 PCOD8267930
Probable space group: C M M M
;
_chemical_formula_sum "Si O2"
_cell_formula_units_Z 104
_cell_length_a 24.014103
_cell_length_b 27.200520
_cell_length_c 9.261201
_cell_angle_alpha 90.000000
_cell_angle_beta 90.000000
_cell_angle_gamma 90.000000
_cell_volume 6049.380272
_symmetry_space_group_name_H-M "C M M M"
_symmetry_group_IT_number 65
_symmetry_cell_setting 'orthorhombic'
loop_
_space_group_symop_operation_xyz
x,y,z
-x,-y,z
x,-y,-z
-x,y,-z
-x,-y,-z
x,y,-z
-x,y,z
x,-y,z
1/2+x,1/2+y,z
1/2-x,1/2-y,z
1/2+x,1/2-y,-z
1/2-x,1/2+y,-z
1/2-x,1/2-y,-z
1/2+x,1/2+y,-z
1/2-x,1/2+y,z
1/2+x,1/2-y,z
loop_
_atom_site_type_symbol
_atom_site_label
_atom_site_fract_x
_atom_site_fract_y
_atom_site_fract_z
Si Si1 0.566427 0.892881 0.166750
Si Si2 0.267566 0.645864 0.333940
Si Si3 0.854274 0.679451 0.329331
Si Si4 0.060803 0.500000 0.829399
Si Si5 0.164534 0.054533 0.333527
Si Si6 0.812644 0.768947 0.163871
Si Si7 0.060566 0.941537 0.837909
O O1 0.500000 0.890147 0.188734
O O2 0.595171 0.852587 0.267581
O O3 0.589465 0.947755 0.213540
O O4 0.581829 0.882172 0.000000
O O5 0.276389 0.661359 0.500000
O O6 0.203328 0.652059 0.290307
O O7 0.282195 0.588897 0.305499
O O8 0.310688 0.678070 0.240181
O O9 0.862397 0.686608 0.500000
O O10 0.853488 0.732678 0.252175
O O11 0.000000 0.500000 0.756474
O O12 0.053297 0.500000 0.000000
O O13 0.149376 0.051406 0.500000
O O14 0.110424 0.078939 0.259451
O O15 0.178607 0.000000 0.272561
O O16 0.750000 0.750000 0.168283
O O17 0.834694 0.773714 0.000000
O O18 0.000000 0.922767 0.781967
O O19 0.061306 0.000000 0.832830
O O20 0.070224 0.922558 0.000000
#
# Coordination Sequence:
#
# PCOD8267930 Si02
#       7
#    16  16  16   8  16  16  16
#     4   9  17  31  51  72  96 128 166 207 247 289
#     4   9  18  32  47  67  96 129 159 193 239 285
#     4  10  19  31  48  72  98 125 156 195 243 294
#     4   7  12  26  47  67  89 123 163 199 238 281
#     4   9  17  29  45  65  92 126 159 187 220 270
#     4   9  17  30  50  72  90 114 151 196 235 275
#     4   8  14  25  41  61  85 113 146 185 225 260
#
# _framework density 17.191842999999999
#
# number of rings (size 3 to 8) (size 9 to 14) (size 15 to 20)
#    0.000    3.154    0.000    2.308    0.000    3.692 
#    1.385    1.923    0.000    2.308    0.000    4.308 
#    0.000    0.000    0.000    0.000    0.000    0.000 
#
# Total GULP energy -644315.282968 kJ/mol
# GULP energy per Si atom -12390.678519 kJ/mol
# Density = 1.715271 g / cm^3
# Si number density = 17.191843 Si / 1000 Ang^3
#
#
#
# Elastic Constant Matrix: (Units=GPa)
#
#
# Indices 1 2 3 4 5 6 
#
# 1 53.1156 32.9374 30.2798 0.0000 0.0000 0.0000
# 2 32.9374 85.1519 41.9031 0.0000 0.0000 0.0000
# 3 30.2798 41.9031 76.3771 0.0000 0.0000 0.0000
# 4 0.0000 0.0000 0.0000 23.8925 0.0000 0.0000
# 5 0.0000 0.0000 0.0000 0.0000 23.5256 0.0000
# 6 0.0000 0.0000 0.0000 0.0000 0.0000 24.6440
#
#
#
# Elastic Compliance Matrix: (Units=1/GPa)
#
#
# Indices 1 2 3 4 5 6 
#
# 1 0.027156 -0.007132 -0.006853 0.000000 0.000000 0.000000
# 2 -0.007132 0.017960 -0.007026 0.000000 0.000000 0.000000
# 3 -0.006853 -0.007026 0.019665 0.000000 0.000000 0.000000
# 4 0.000000 0.000000 0.000000 0.041854 0.000000 0.000000
# 5 0.000000 0.000000 0.000000 0.000000 0.042507 0.000000
# 6 0.000000 0.000000 0.000000 0.000000 0.000000 0.040578
#
#
# Mechanical properties :
#
#
# Convention : Reuss Voigt Hill
#
# Bulk Modulus (GPa) = 43.93963 47.20946 45.57455
# Shear Modulus (GPa) = 20.89184 21.71405 21.30295
#
# Velocity S-wave (km/s) = 3.48978 3.55779 3.52395
# Velocity P-wave (km/s) = 6.46931 6.66312 6.56693
#
# Compressibility (1/GPa) = 0.02275850
#
# Stress axis : x y z
#
# Youngs Moduli (GPa) = 36.82393 55.67996 50.85262
#
# Poissons Ratio (x) = 0.39709 0.34851
# Poissons Ratio (y) = 0.26262 0.35729
# Poissons Ratio (z) = 0.25237 0.39121
#
# Static dielectric constant tensor:
#      x y z
#    x 3.082950 0.000000 0.000000 
#    y 0.000000 3.257230 0.000000 
#    z 0.000000 0.000000 3.208260 
# 
# 
# High freq. dielectric constant tensor:
#      x y z
#    x 1.634790 0.000000 0.000000 
#    y 0.000000 1.652590 0.000000 
#    z 0.000000 0.000000 1.658530 
# 
# From -- ./inp_files/14795.got.cif
#   From: 2010.03.12/outbox.cif.g09.slc.cpg/sg65_8_cif.got.tgz:14795.got - 2010.04.10 20:52:16.
