data_PCOD8267203
_publ_section_title
;
Structure prediction by ZEFSAII (Michael W. Deem and Ramdas Pophale) SiO2 
 PCOD8267203
Probable space group: C M M M
;
_chemical_formula_sum "Si O2"
_cell_formula_units_Z 80
_cell_length_a 14.467099
_cell_length_b 29.507612
_cell_length_c 11.711762
_cell_angle_alpha 90.000000
_cell_angle_beta 90.000000
_cell_angle_gamma 90.000000
_cell_volume 4999.628740
_symmetry_space_group_name_H-M "C M M M"
_symmetry_group_IT_number 65
_symmetry_cell_setting 'orthorhombic'
loop_
_space_group_symop_operation_xyz
x,y,z
-x,-y,z
x,-y,-z
-x,y,-z
-x,-y,-z
x,y,-z
-x,y,z
x,-y,z
1/2+x,1/2+y,z
1/2-x,1/2-y,z
1/2+x,1/2-y,-z
1/2-x,1/2+y,-z
1/2-x,1/2-y,-z
1/2+x,1/2+y,-z
1/2-x,1/2+y,z
1/2+x,1/2-y,z
loop_
_atom_site_type_symbol
_atom_site_label
_atom_site_fract_x
_atom_site_fract_y
_atom_site_fract_z
Si Si1 0.180095 0.553631 0.240328
Si Si2 0.395420 0.946336 0.000000
Si Si3 0.000000 0.553828 0.373213
Si Si4 0.500000 0.658150 0.634774
Si Si5 0.304372 0.380090 0.635579
Si Si6 0.305994 0.207541 0.635443
Si Si7 0.000000 0.260276 0.364025
O O1 0.193294 0.500000 0.250089
O O2 0.162986 0.569285 0.110175
O O3 0.271656 0.576020 0.293905
O O4 0.091500 0.571203 0.310757
O O5 0.500000 0.925883 0.000000
O O6 0.406287 0.000000 0.000000
O O7 0.000000 0.500000 0.375175
O O8 0.000000 0.574608 0.500000
O O9 0.500000 0.663400 0.500000
O O10 0.590810 0.630708 0.673501
O O11 0.500000 0.709048 0.686523
O O12 0.297121 0.389151 0.500000
O O13 0.239065 0.339053 0.677045
O O14 0.300762 0.209604 0.500000
O O15 0.250000 0.250000 0.686841
O O16 0.411133 0.211810 0.679548
O O17 0.000000 0.256960 0.500000
#
# Coordination Sequence:
#
# PCOD8267203 Si02
#       7
#    16   8   8   8  16  16   8
#     4  10  19  31  48  69  94 123 158 196 232 278
#     4   9  16  32  54  69  84 117 163 201 235 277
#     4   9  16  26  42  65  96 128 146 171 224 278
#     4   9  16  28  44  61  89 132 168 190 222 280
#     4  10  19  29  44  68  98 129 160 192 235 286
#     4   9  15  24  39  61  90 124 159 193 227 273
#     4   9  14  23  40  59  87 124 159 194 227 264
#
# _framework density 16.001187999999999
#
# number of rings (size 3 to 8) (size 9 to 14) (size 15 to 20)
#    0.000    2.600    3.000    0.600    0.000    2.000 
#    0.000    2.500    0.000    2.400    0.000    2.800 
#    0.000    0.000    0.000    0.000    0.000    0.000 
#
# Total GULP energy -495832.391781 kJ/mol
# GULP energy per Si atom -12395.809795 kJ/mol
# Density = 1.596477 g / cm^3
# Si number density = 16.001188 Si / 1000 Ang^3
#
#
#
# Elastic Constant Matrix: (Units=GPa)
#
#
# Indices 1 2 3 4 5 6 
#
# 1 143.4165 50.6258 36.3389 0.0000 0.0000 0.0000
# 2 50.6258 61.2590 27.4944 0.0000 0.0000 0.0000
# 3 36.3389 27.4944 71.6453 0.0000 0.0000 0.0000
# 4 0.0000 0.0000 0.0000 6.3790 0.0000 0.0000
# 5 0.0000 0.0000 0.0000 0.0000 11.8277 0.0000
# 6 0.0000 0.0000 0.0000 0.0000 0.0000 29.9901
#
#
#
# Elastic Compliance Matrix: (Units=1/GPa)
#
#
# Indices 1 2 3 4 5 6 
#
# 1 0.010157 -0.007347 -0.002332 0.000000 0.000000 0.000000
# 2 -0.007347 0.025036 -0.005881 0.000000 0.000000 0.000000
# 3 -0.002332 -0.005881 0.017397 0.000000 0.000000 0.000000
# 4 0.000000 0.000000 0.000000 0.156765 0.000000 0.000000
# 5 0.000000 0.000000 0.000000 0.000000 0.084548 0.000000
# 6 0.000000 0.000000 0.000000 0.000000 0.000000 0.033344
#
#
# Mechanical properties :
#
#
# Convention : Reuss Voigt Hill
#
# Bulk Modulus (GPa) = 46.57838 56.13766 51.35802
# Shear Modulus (GPa) = 13.67895 20.43013 17.05454
#
# Velocity S-wave (km/s) = 2.92699 3.57709 3.26825
# Velocity P-wave (km/s) = 6.37146 7.22637 6.81234
#
# Compressibility (1/GPa) = 0.02146919
#
# Stress axis : x y z
#
# Youngs Moduli (GPa) = 98.45170 39.94291 57.47984
#
# Poissons Ratio (x) = 0.29348 0.13405
# Poissons Ratio (y) = 0.72337 0.33804
# Poissons Ratio (z) = 0.22961 0.23490
#
# Static dielectric constant tensor:
#      x y z
#    x 3.248100 0.000000 0.000000 
#    y 0.000000 2.879510 0.000000 
#    z 0.000000 0.000000 2.706450 
# 
# 
# High freq. dielectric constant tensor:
#      x y z
#    x 1.620700 0.000000 0.000000 
#    y 0.000000 1.600670 0.000000 
#    z 0.000000 0.000000 1.558000 
# 
# From -- ./inp_files/25057.got.cif
#   From: 2010.03.12/outbox.cif.g09.slc.cpg/sg65_13_cif.got.tgz:25057.got - 2010.04.10 20:52:16.
