data_PCOD8267216
_publ_section_title
;
Structure prediction by ZEFSAII (Michael W. Deem and Ramdas Pophale) SiO2 
 PCOD8267216
Probable space group: C M M M
;
_chemical_formula_sum "Si O2"
_cell_formula_units_Z 104
_cell_length_a 23.640031
_cell_length_b 8.697732
_cell_length_c 27.794348
_cell_angle_alpha 90.000000
_cell_angle_beta 90.000000
_cell_angle_gamma 90.000000
_cell_volume 5714.925250
_symmetry_space_group_name_H-M "C M M M"
_symmetry_group_IT_number 65
_symmetry_cell_setting 'orthorhombic'
loop_
_space_group_symop_operation_xyz
x,y,z
-x,-y,z
x,-y,-z
-x,y,-z
-x,-y,-z
x,y,-z
-x,y,z
x,-y,z
1/2+x,1/2+y,z
1/2-x,1/2-y,z
1/2+x,1/2-y,-z
1/2-x,1/2+y,-z
1/2-x,1/2-y,-z
1/2+x,1/2+y,-z
1/2-x,1/2+y,z
1/2+x,1/2-y,z
loop_
_atom_site_type_symbol
_atom_site_label
_atom_site_fract_x
_atom_site_fract_y
_atom_site_fract_z
Si Si1 0.311108 0.823254 0.945817
Si Si2 0.188012 0.318298 0.223794
Si Si3 0.500000 0.817190 0.850751
Si Si4 0.500000 0.182294 0.257321
Si Si5 0.067056 0.672042 0.500000
Si Si6 0.117521 0.180887 0.136472
Si Si7 0.564620 0.318874 0.598478
Si Si8 0.110505 0.681254 0.309892
O O1 0.250000 0.750000 0.944024
O O2 0.348464 0.720159 0.911227
O O3 0.309039 0.000000 0.927944
O O4 0.335557 0.814295 0.000000
O O5 0.190885 0.500000 0.217554
O O6 0.250000 0.250000 0.216654
O O7 0.145468 0.256203 0.183566
O O8 0.164763 0.274558 0.277147
O O9 0.500000 0.756091 0.796412
O O10 0.444189 0.748618 0.874834
O O11 0.500000 0.000000 0.855722
O O12 0.555365 0.246987 0.283119
O O13 0.500000 0.000000 0.257242
O O14 0.091730 0.500000 0.500000
O O15 0.088337 0.758458 0.547669
O O16 0.000000 0.671596 0.500000
O O17 0.115191 0.000000 0.144631
O O18 0.500000 0.258468 0.608424
O O19 0.564760 0.500000 0.597103
O O20 0.609868 0.260876 0.638046
O O21 0.107081 0.500000 0.317634
#
# Coordination Sequence:
#
# PCOD8267216 Si02
#       8
#    16  16   8   8   8  16  16  16
#     4  10  21  39  63  88 113 145 186 232 280 328
#     4  11  23  39  57  79 109 146 186 230 275 322
#     4  11  21  39  60  82 112 150 189 226 269 323
#     4   9  16  31  53  75 101 137 179 221 260 313
#     4   9  17  29  45  65  94 137 180 215 255 314
#     4  12  24  38  58  86 117 148 183 225 274 329
#     4  10  19  29  44  71 105 137 170 217 269 314
#     4  10  19  33  53  75 102 140 181 217 264 322
#
# _framework density 18.197963999999999
#
# number of rings (size 3 to 8) (size 9 to 14) (size 15 to 20)
#    0.000    1.615    2.308    3.692    0.000    3.692 
#    0.000    0.385    0.000    2.308    0.000    0.538 
#    0.000    0.000    0.000    0.000    0.000    0.000 
#
# Total GULP energy -644776.715366 kJ/mol
# GULP energy per Si atom -12399.552219 kJ/mol
# Density = 1.815654 g / cm^3
# Si number density = 18.197964 Si / 1000 Ang^3
#
#
#
# Elastic Constant Matrix: (Units=GPa)
#
#
# Indices 1 2 3 4 5 6 
#
# 1 80.5884 34.9537 35.8597 0.0000 0.0000 0.0000
# 2 34.9537 95.9491 41.2977 0.0000 0.0000 0.0000
# 3 35.8597 41.2977 112.8068 0.0000 0.0000 0.0000
# 4 0.0000 0.0000 0.0000 27.5141 0.0000 0.0000
# 5 0.0000 0.0000 0.0000 0.0000 22.9676 0.0000
# 6 0.0000 0.0000 0.0000 0.0000 0.0000 25.6038
#
#
#
# Elastic Compliance Matrix: (Units=1/GPa)
#
#
# Indices 1 2 3 4 5 6 
#
# 1 0.015799 -0.004266 -0.003460 0.000000 0.000000 0.000000
# 2 -0.004266 0.013523 -0.003595 0.000000 0.000000 0.000000
# 3 -0.003460 -0.003595 0.011281 0.000000 0.000000 0.000000
# 4 0.000000 0.000000 0.000000 0.036345 0.000000 0.000000
# 5 0.000000 0.000000 0.000000 0.000000 0.043540 0.000000
# 6 0.000000 0.000000 0.000000 0.000000 0.000000 0.039057
#
#
# Mechanical properties :
#
#
# Convention : Reuss Voigt Hill
#
# Bulk Modulus (GPa) = 55.67727 57.06295 56.37011
# Shear Modulus (GPa) = 26.57121 27.03267 26.80194
#
# Velocity S-wave (km/s) = 3.82530 3.85837 3.84187
# Velocity P-wave (km/s) = 7.08324 7.16060 7.12203
#
# Compressibility (1/GPa) = 0.01796065
#
# Stress axis : x y z
#
# Youngs Moduli (GPa) = 63.29577 73.94542 88.64657
#
# Poissons Ratio (x) = 0.31545 0.30676
# Poissons Ratio (y) = 0.27002 0.31866
# Poissons Ratio (z) = 0.21903 0.26581
#
# Static dielectric constant tensor:
#      x y z
#    x 3.138790 0.000000 0.000000 
#    y 0.000000 3.348880 0.000000 
#    z 0.000000 0.000000 3.539770 
# 
# 
# High freq. dielectric constant tensor:
#      x y z
#    x 1.676520 0.000000 0.000000 
#    y 0.000000 1.711420 0.000000 
#    z 0.000000 0.000000 1.711160 
# 
# From -- ./inp_files/75828.got.cif
#   From: 2010.03.12/outbox.cif.g09.slc.cpg/sg65_38_cif.got.tgz:75828.got - 2010.04.10 20:52:16.
