data_PCOD8267575
_publ_section_title
;
Structure prediction by ZEFSAII (Michael W. Deem and Ramdas Pophale) SiO2 
 PCOD8267575
Probable space group: C M M M
;
_chemical_formula_sum "Si O2"
_cell_formula_units_Z 88
_cell_length_a 27.327725
_cell_length_b 8.060986
_cell_length_c 22.422485
_cell_angle_alpha 90.000000
_cell_angle_beta 90.000000
_cell_angle_gamma 90.000000
_cell_volume 4939.413538
_symmetry_space_group_name_H-M "C M M M"
_symmetry_group_IT_number 65
_symmetry_cell_setting 'orthorhombic'
loop_
_space_group_symop_operation_xyz
x,y,z
-x,-y,z
x,-y,-z
-x,y,-z
-x,-y,-z
x,y,-z
-x,y,z
x,-y,z
1/2+x,1/2+y,z
1/2-x,1/2-y,z
1/2+x,1/2-y,-z
1/2-x,1/2+y,-z
1/2-x,1/2-y,-z
1/2+x,1/2+y,-z
1/2-x,1/2+y,z
1/2+x,1/2-y,z
loop_
_atom_site_type_symbol
_atom_site_label
_atom_site_fract_x
_atom_site_fract_y
_atom_site_fract_z
Si Si1 0.056180 0.500000 0.570466
Si Si2 0.851367 0.309154 0.180816
Si Si3 0.303149 0.694741 0.933832
Si Si4 0.696508 0.310240 0.703968
Si Si5 0.399129 0.693285 0.638277
Si Si6 0.945736 0.308371 0.752122
O O1 0.057865 0.500000 0.500000
O O2 0.082461 0.671936 0.590299
O O3 0.000000 0.500000 0.593905
O O4 0.840048 0.500000 0.189808
O O5 0.843242 0.258653 0.112539
O O6 0.814322 0.219535 0.226178
O O7 0.907659 0.264456 0.195340
O O8 0.305631 0.500000 0.936606
O O9 0.250000 0.750000 0.911003
O O10 0.313584 0.769498 0.000000
O O11 0.695144 0.500000 0.690352
O O12 0.750000 0.250000 0.685250
O O13 0.653790 0.237343 0.661344
O O14 0.398118 0.500000 0.614283
O O15 0.435513 0.695044 0.694781
O O16 0.940096 0.500000 0.732093
O O17 0.000000 0.271133 0.776717
#
# Coordination Sequence:
#
# PCOD8267575 Si02
#       6
#     8  16  16  16  16  16
#     4  11  24  40  60  84 112 148 183 223 270 312
#     4  10  19  30  47  72 104 132 165 213 260 311
#     4  10  20  33  48  65  90 127 167 208 254 307
#     4  10  20  32  52  81 109 142 176 215 267 319
#     4  10  21  36  56  84 113 144 180 222 268 321
#     4   9  17  31  52  76 104 136 169 209 262 316
#
# _framework density 17.81588
#
# number of rings (size 3 to 8) (size 9 to 14) (size 15 to 20)
#    0.000    2.091    0.909    2.727    2.545    3.636 
#    0.000    0.909    0.000    1.091    0.000    3.818 
#    0.000    0.000    0.000    0.000    0.000    0.000 
#
# Total GULP energy -545358.547801 kJ/mol
# GULP energy per Si atom -12394.512450 kJ/mol
# Density = 1.777533 g / cm^3
# Si number density = 17.815880 Si / 1000 Ang^3
#
#
#
# Elastic Constant Matrix: (Units=GPa)
#
#
# Indices 1 2 3 4 5 6 
#
# 1 126.2628 36.2048 48.5917 0.0000 0.0000 0.0000
# 2 36.2048 57.7363 27.8452 0.0000 0.0000 0.0000
# 3 48.5917 27.8452 79.0505 0.0000 0.0000 0.0000
# 4 0.0000 0.0000 0.0000 25.5343 0.0000 0.0000
# 5 0.0000 0.0000 0.0000 0.0000 24.8274 0.0000
# 6 0.0000 0.0000 0.0000 0.0000 0.0000 21.8914
#
#
#
# Elastic Compliance Matrix: (Units=1/GPa)
#
#
# Indices 1 2 3 4 5 6 
#
# 1 0.011262 -0.004486 -0.005343 0.000000 0.000000 0.000000
# 2 -0.004486 0.022651 -0.005222 0.000000 0.000000 0.000000
# 3 -0.005343 -0.005222 0.017774 0.000000 0.000000 0.000000
# 4 0.000000 0.000000 0.000000 0.039163 0.000000 0.000000
# 5 0.000000 0.000000 0.000000 0.000000 0.040278 0.000000
# 6 0.000000 0.000000 0.000000 0.000000 0.000000 0.045680
#
#
# Mechanical properties :
#
#
# Convention : Reuss Voigt Hill
#
# Bulk Modulus (GPa) = 46.32367 54.25922 50.29145
# Shear Modulus (GPa) = 23.35314 24.47781 23.91547
#
# Velocity S-wave (km/s) = 3.62443 3.71068 3.66781
# Velocity P-wave (km/s) = 6.60099 6.99146 6.79903
#
# Compressibility (1/GPa) = 0.02158723
#
# Stress axis : x y z
#
# Youngs Moduli (GPa) = 88.79134 44.14787 56.26309
#
# Poissons Ratio (x) = 0.19803 0.30061
# Poissons Ratio (y) = 0.39828 0.29378
# Poissons Ratio (z) = 0.47440 0.23052
#
# Static dielectric constant tensor:
#      x y z
#    x 3.194440 0.000000 0.000000 
#    y 0.000000 3.414400 0.000000 
#    z 0.000000 0.000000 3.690250 
# 
# 
# High freq. dielectric constant tensor:
#      x y z
#    x 1.688780 0.000000 0.000000 
#    y 0.000000 1.699670 0.000000 
#    z 0.000000 0.000000 1.659990 
# 
# From -- ./inp_files/65173.got.cif
#   From: 2010.03.12/outbox.cif.g09.slc.cpg/sg65_33_cif.got.tgz:65173.got - 2010.04.10 20:52:16.
