data_PCOD8267228
_publ_section_title
;
Structure prediction by ZEFSAII (Michael W. Deem and Ramdas Pophale) SiO2 
 PCOD8267228
Probable space group: C M M M
;
_chemical_formula_sum "Si O2"
_cell_formula_units_Z 112
_cell_length_a 16.948809
_cell_length_b 27.428528
_cell_length_c 14.112009
_cell_angle_alpha 90.000000
_cell_angle_beta 90.000000
_cell_angle_gamma 90.000000
_cell_volume 6560.403194
_symmetry_space_group_name_H-M "C M M M"
_symmetry_group_IT_number 65
_symmetry_cell_setting 'orthorhombic'
loop_
_space_group_symop_operation_xyz
x,y,z
-x,-y,z
x,-y,-z
-x,y,-z
-x,-y,-z
x,y,-z
-x,y,z
x,-y,z
1/2+x,1/2+y,z
1/2-x,1/2-y,z
1/2+x,1/2-y,-z
1/2-x,1/2+y,-z
1/2-x,1/2-y,-z
1/2+x,1/2+y,-z
1/2-x,1/2+y,z
1/2+x,1/2-y,z
loop_
_atom_site_type_symbol
_atom_site_label
_atom_site_fract_x
_atom_site_fract_y
_atom_site_fract_z
Si Si1 0.586678 0.554541 0.887569
Si Si2 0.789743 0.132383 0.889698
Si Si3 0.588156 0.771010 0.287707
Si Si4 0.807065 0.637391 0.709664
Si Si5 0.806423 0.796696 0.607402
Si Si6 0.587845 0.282245 0.895022
Si Si7 0.090793 0.443141 0.610351
O O1 0.500000 0.570144 0.848523
O O2 0.606237 0.500000 0.853916
O O3 0.656500 0.588421 0.850107
O O4 0.584191 0.558369 0.000000
O O5 0.712778 0.133525 0.822046
O O6 0.842314 0.180148 0.876138
O O7 0.763790 0.125929 0.000000
O O8 0.500000 0.780363 0.320786
O O9 0.632859 0.819718 0.315015
O O10 0.615278 0.721017 0.338756
O O11 0.597142 0.763160 0.175084
O O12 0.727529 0.653681 0.654435
O O13 0.846447 0.587586 0.672297
O O14 0.826869 0.809716 0.500000
O O15 0.750000 0.750000 0.615792
O O16 0.500000 0.306404 0.882901
O O17 0.596802 0.260411 0.000000
O O18 0.104026 0.430885 0.500000
O O19 0.107697 0.500000 0.630029
O O20 0.000000 0.430847 0.638691
#
# Coordination Sequence:
#
# PCOD8267228 Si02
#       7
#    16  16  16  16  16  16  16
#     4   8  14  26  44  65  90 122 163 210 253 292
#     4  10  19  29  45  70 101 138 173 206 249 300
#     4  10  20  33  48  68  95 131 172 206 244 299
#     4  11  20  32  50  76 103 132 161 207 257 303
#     4   9  18  32  48  69  97 124 153 197 253 307
#     4   9  17  30  47  67  95 134 177 216 247 283
#     4   9  19  37  60  82 100 123 163 212 257 302
#
# _framework density 17.072120999999999
#
# number of rings (size 3 to 8) (size 9 to 14) (size 15 to 20)
#    0.000    2.571    1.429    2.143    0.000    3.714 
#    0.000    1.429    0.000    1.286    0.000    1.000 
#    0.000    0.000    0.000    9.429    0.000    0.286 
#
# Total GULP energy -693961.542178 kJ/mol
# GULP energy per Si atom -12392.170396 kJ/mol
# Density = 1.703326 g / cm^3
# Si number density = 17.072121 Si / 1000 Ang^3
#
#
#
# Elastic Constant Matrix: (Units=GPa)
#
#
# Indices 1 2 3 4 5 6 
#
# 1 73.8562 31.6736 33.9745 0.0000 0.0000 0.0000
# 2 31.6736 66.5768 25.0648 0.0000 0.0000 0.0000
# 3 33.9745 25.0648 82.4605 0.0000 0.0000 0.0000
# 4 0.0000 0.0000 0.0000 20.2605 0.0000 0.0000
# 5 0.0000 0.0000 0.0000 0.0000 23.0570 0.0000
# 6 0.0000 0.0000 0.0000 0.0000 0.0000 16.2360
#
#
#
# Elastic Compliance Matrix: (Units=1/GPa)
#
#
# Indices 1 2 3 4 5 6 
#
# 1 0.019183 -0.006945 -0.005792 0.000000 0.000000 0.000000
# 2 -0.006945 0.019476 -0.003058 0.000000 0.000000 0.000000
# 3 -0.005792 -0.003058 0.015443 0.000000 0.000000 0.000000
# 4 0.000000 0.000000 0.000000 0.049357 0.000000 0.000000
# 5 0.000000 0.000000 0.000000 0.000000 0.043371 0.000000
# 6 0.000000 0.000000 0.000000 0.000000 0.000000 0.061592
#
#
# Mechanical properties :
#
#
# Convention : Reuss Voigt Hill
#
# Bulk Modulus (GPa) = 44.42544 44.92437 44.67491
# Shear Modulus (GPa) = 20.20059 20.72272 20.46166
#
# Velocity S-wave (km/s) = 3.44357 3.48779 3.46575
# Velocity P-wave (km/s) = 6.47222 6.52619 6.49926
#
# Compressibility (1/GPa) = 0.02250962
#
# Stress axis : x y z
#
# Youngs Moduli (GPa) = 52.12948 51.34542 64.75362
#
# Poissons Ratio (x) = 0.35662 0.37508
# Poissons Ratio (y) = 0.36206 0.19804
# Poissons Ratio (z) = 0.30196 0.15703
#
# Static dielectric constant tensor:
#      x y z
#    x 3.281140 0.000000 0.000000 
#    y 0.000000 3.102970 0.000000 
#    z 0.000000 0.000000 3.085220 
# 
# 
# High freq. dielectric constant tensor:
#      x y z
#    x 1.652240 0.000000 0.000000 
#    y 0.000000 1.643110 0.000000 
#    z 0.000000 0.000000 1.644030 
# 
# From -- ./inp_files/41121.got.cif
#   From: 2010.03.12/outbox.cif.g09.slc.cpg/sg65_21_cif.got.tgz:41121.got - 2010.04.10 20:52:16.
