data_PCOD8267015
_publ_section_title
;
Structure prediction by ZEFSAII (Michael W. Deem and Ramdas Pophale) SiO2 
 PCOD8267015
Probable space group: C M M M
;
_chemical_formula_sum "Si O2"
_cell_formula_units_Z 104
_cell_length_a 8.788099
_cell_length_b 21.587271
_cell_length_c 26.857817
_cell_angle_alpha 90.000000
_cell_angle_beta 90.000000
_cell_angle_gamma 90.000000
_cell_volume 5095.225327
_symmetry_space_group_name_H-M "C M M M"
_symmetry_group_IT_number 65
_symmetry_cell_setting 'orthorhombic'
loop_
_space_group_symop_operation_xyz
x,y,z
-x,-y,z
x,-y,-z
-x,y,-z
-x,-y,-z
x,y,-z
-x,y,z
x,-y,z
1/2+x,1/2+y,z
1/2-x,1/2-y,z
1/2+x,1/2-y,-z
1/2-x,1/2+y,-z
1/2-x,1/2-y,-z
1/2+x,1/2+y,-z
1/2-x,1/2+y,z
1/2+x,1/2-y,z
loop_
_atom_site_type_symbol
_atom_site_label
_atom_site_fract_x
_atom_site_fract_y
_atom_site_fract_z
Si Si1 0.681075 0.684160 0.618067
Si Si2 0.830112 0.308754 0.804033
Si Si3 0.819098 0.500000 0.152279
Si Si4 0.322872 0.070441 0.441903
Si Si5 0.318761 0.875734 0.101950
Si Si6 0.679522 0.500000 0.737605
Si Si7 0.173811 0.379907 0.706540
Si Si8 0.318579 0.817948 0.000000
O O1 0.500000 0.690115 0.617835
O O2 0.750000 0.750000 0.598533
O O3 0.729165 0.624346 0.585610
O O4 0.743493 0.672507 0.673754
O O5 0.750000 0.250000 0.780208
O O6 0.753757 0.328778 0.856264
O O7 0.821871 0.363776 0.764739
O O8 0.000000 0.288536 0.815236
O O9 0.761511 0.443039 0.118603
O O10 0.747952 0.500000 0.207060
O O11 0.000000 0.500000 0.160286
O O12 0.290601 0.078654 0.500000
O O13 0.500000 0.080109 0.429763
O O14 0.274347 0.000000 0.425766
O O15 0.500000 0.875208 0.102204
O O16 0.257280 0.855683 0.047939
O O17 0.500000 0.500000 0.742535
O O18 0.734474 0.556595 0.703268
O O19 0.000000 0.387932 0.688019
O O20 0.250000 0.750000 0.000000
O O21 0.500000 0.812838 0.000000
#
# Coordination Sequence:
#
# PCOD8267015 Si02
#       8
#    16  16   8  16  16   8  16   8
#     4  12  26  43  64  95 135 174 219 270 323 382
#     4  10  20  34  54  79 108 147 192 236 289 352
#     4  10  18  37  60  78 110 147 187 236 289 352
#     4   9  20  42  71 100 131 172 222 271 325 388
#     4   9  18  33  55  81 107 142 188 233 284 348
#     4  12  24  38  59  91 122 153 202 254 305 370
#     4  11  23  41  63  85 119 165 206 251 310 369
#     4  10  20  35  55  81 111 142 183 232 284 345
#
# _framework density 20.411266999999999
#
# number of rings (size 3 to 8) (size 9 to 14) (size 15 to 20)
#    0.000    1.692    1.538    3.923    1.077    3.692 
#    0.000    3.077    0.000    0.000    0.000    1.077 
#    0.000    0.000    0.000    0.000    0.000    0.000 
#
# Total GULP energy -644554.904738 kJ/mol
# GULP energy per Si atom -12395.286630 kJ/mol
# Density = 2.036481 g / cm^3
# Si number density = 20.411267 Si / 1000 Ang^3
#
#
#
# Elastic Constant Matrix: (Units=GPa)
#
#
# Indices 1 2 3 4 5 6 
#
# 1 103.8345 56.5099 34.1724 0.0000 0.0000 0.0000
# 2 56.5099 149.0150 41.4100 0.0000 0.0000 0.0000
# 3 34.1724 41.4100 95.1640 0.0000 0.0000 0.0000
# 4 0.0000 0.0000 0.0000 34.8685 0.0000 0.0000
# 5 0.0000 0.0000 0.0000 0.0000 24.1274 0.0000
# 6 0.0000 0.0000 0.0000 0.0000 0.0000 32.1260
#
#
#
# Elastic Compliance Matrix: (Units=1/GPa)
#
#
# Indices 1 2 3 4 5 6 
#
# 1 0.012767 -0.004058 -0.002819 0.000000 0.000000 0.000000
# 2 -0.004058 0.008924 -0.002426 0.000000 0.000000 0.000000
# 3 -0.002819 -0.002426 0.012576 0.000000 0.000000 0.000000
# 4 0.000000 0.000000 0.000000 0.028679 0.000000 0.000000
# 5 0.000000 0.000000 0.000000 0.000000 0.041447 0.000000
# 6 0.000000 0.000000 0.000000 0.000000 0.000000 0.031127
#
#
# Mechanical properties :
#
#
# Convention : Reuss Voigt Hill
#
# Bulk Modulus (GPa) = 63.85163 68.02200 65.93681
# Shear Modulus (GPa) = 31.37832 32.61914 31.99873
#
# Velocity S-wave (km/s) = 3.92510 4.00195 3.96371
# Velocity P-wave (km/s) = 7.20363 7.39948 7.30221
#
# Compressibility (1/GPa) = 0.01566131
#
# Stress axis : x y z
#
# Youngs Moduli (GPa) = 78.32731 112.05927 79.51727
#
# Poissons Ratio (x) = 0.45477 0.22412
# Poissons Ratio (y) = 0.31787 0.19290
# Poissons Ratio (z) = 0.22077 0.27184
#
# Static dielectric constant tensor:
#      x y z
#    x 3.462500 0.000000 0.000000 
#    y 0.000000 3.912630 0.000000 
#    z 0.000000 0.000000 3.834240 
# 
# 
# High freq. dielectric constant tensor:
#      x y z
#    x 1.772980 0.000000 0.000000 
#    y 0.000000 1.812530 0.000000 
#    z 0.000000 0.000000 1.802210 
# 
# From -- ./inp_files/73404.got.cif
#   From: 2010.03.12/outbox.cif.g09.slc.cpg/sg65_37_cif.got.tgz:73404.got - 2010.04.10 20:52:16.
