data_PCOD8267163
_publ_section_title
;
Structure prediction by ZEFSAII (Michael W. Deem and Ramdas Pophale) SiO2 
 PCOD8267163
Probable space group: C M M M
;
_chemical_formula_sum "Si O2"
_cell_formula_units_Z 104
_cell_length_a 18.592474
_cell_length_b 8.766419
_cell_length_c 33.840574
_cell_angle_alpha 90.000000
_cell_angle_beta 90.000000
_cell_angle_gamma 90.000000
_cell_volume 5515.655438
_symmetry_space_group_name_H-M "C M M M"
_symmetry_group_IT_number 65
_symmetry_cell_setting 'orthorhombic'
loop_
_space_group_symop_operation_xyz
x,y,z
-x,-y,z
x,-y,-z
-x,y,-z
-x,-y,-z
x,y,-z
-x,y,z
x,-y,z
1/2+x,1/2+y,z
1/2-x,1/2-y,z
1/2+x,1/2-y,-z
1/2-x,1/2+y,-z
1/2-x,1/2-y,-z
1/2+x,1/2+y,-z
1/2-x,1/2+y,z
1/2+x,1/2-y,z
loop_
_atom_site_type_symbol
_atom_site_label
_atom_site_fract_x
_atom_site_fract_y
_atom_site_fract_z
Si Si1 0.829198 0.681304 0.500000
Si Si2 0.919667 0.318820 0.189265
Si Si3 0.081272 0.318835 0.424739
Si Si4 0.580492 0.818840 0.043572
Si Si5 0.080725 0.681259 0.723292
Si Si6 0.827910 0.681815 0.883537
Si Si7 0.171715 0.318752 0.349690
O O1 0.822303 0.500000 0.500000
O O2 0.750000 0.750000 0.500000
O O3 0.873083 0.741005 0.461993
O O4 0.920591 0.500000 0.187315
O O5 0.893801 0.265379 0.232942
O O6 0.867430 0.253788 0.155556
O O7 0.000000 0.256922 0.181210
O O8 0.077351 0.500000 0.425609
O O9 0.120972 0.261887 0.385240
O O10 0.000000 0.252131 0.426036
O O11 0.500000 0.756189 0.050792
O O12 0.631975 0.753531 0.077590
O O13 0.579083 0.000000 0.045886
O O14 0.607893 0.766659 0.000000
O O15 0.078924 0.500000 0.720985
O O16 0.136309 0.744868 0.690823
O O17 0.000000 0.742715 0.714738
O O18 0.825081 0.500000 0.883572
O O19 0.750000 0.750000 0.883745
O O20 0.178195 0.500000 0.349409
O O21 0.250000 0.250000 0.355204
#
# Coordination Sequence:
#
# PCOD8267163 Si02
#       7
#     8  16  16  16  16  16  16
#     4  10  19  31  49  71  95 120 146 182 226 268
#     4   8  14  26  45  66  85 109 147 189 218 245
#     4   9  17  30  49  70  89 115 155 193 218 249
#     4   8  14  26  45  66  84 106 143 186 217 244
#     4   8  14  26  45  67  87 110 146 188 221 250
#     4  10  19  29  43  65  91 116 141 173 216 261
#     4  10  19  30  46  68  93 119 146 180 222 265
#
# _framework density 18.855419999999999
#
# number of rings (size 3 to 8) (size 9 to 14) (size 15 to 20)
#    0.000    3.077    0.000    3.000    0.000    5.538 
#    0.000    0.000    0.000    5.538    0.000    3.231 
#    0.000    0.000    0.000    0.000    0.000    0.000 
#
# Total GULP energy -644509.357667 kJ/mol
# GULP energy per Si atom -12394.410724 kJ/mol
# Density = 1.881250 g / cm^3
# Si number density = 18.855420 Si / 1000 Ang^3
#
#
#
# Elastic Constant Matrix: (Units=GPa)
#
#
# Indices 1 2 3 4 5 6 
#
# 1 173.2295 14.8915 118.3704 0.0000 0.0000 0.0000
# 2 14.8915 7.9123 16.1041 0.0000 0.0000 0.0000
# 3 118.3704 16.1041 202.5724 0.0000 0.0000 0.0000
# 4 0.0000 0.0000 0.0000 7.4808 0.0000 0.0000
# 5 0.0000 0.0000 0.0000 0.0000 29.7374 0.0000
# 6 0.0000 0.0000 0.0000 0.0000 0.0000 26.3342
#
#
#
# Elastic Compliance Matrix: (Units=1/GPa)
#
#
# Indices 1 2 3 4 5 6 
#
# 1 0.010047 -0.008304 -0.005211 0.000000 0.000000 0.000000
# 2 -0.008304 0.157646 -0.007680 0.000000 0.000000 0.000000
# 3 -0.005211 -0.007680 0.008592 0.000000 0.000000 0.000000
# 4 0.000000 0.000000 0.000000 0.133676 0.000000 0.000000
# 5 0.000000 0.000000 0.000000 0.000000 0.033628 0.000000
# 6 0.000000 0.000000 0.000000 0.000000 0.000000 0.037973
#
#
# Mechanical properties :
#
#
# Convention : Reuss Voigt Hill
#
# Bulk Modulus (GPa) = 7.46851 75.82737 41.64794
# Shear Modulus (GPa) = 10.67044 28.33369 19.50206
#
# Velocity S-wave (km/s) = 2.38146 3.88065 3.21953
# Velocity P-wave (km/s) = 3.39579 7.77057 5.99638
#
# Compressibility (1/GPa) = 0.13389555
#
# Stress axis : x y z
#
# Youngs Moduli (GPa) = 99.53120 6.34331 116.38864
#
# Poissons Ratio (x) = 0.05267 0.60647
# Poissons Ratio (y) = 0.82649 0.89391
# Poissons Ratio (z) = 0.51863 0.04872
#
# Static dielectric constant tensor:
#      x y z
#    x 3.560390 0.000000 0.000000 
#    y 0.000000 2.747510 0.000000 
#    z 0.000000 0.000000 4.013730 
# 
# 
# High freq. dielectric constant tensor:
#      x y z
#    x 1.736550 0.000000 0.000000 
#    y 0.000000 1.657320 0.000000 
#    z 0.000000 0.000000 1.755800 
# 
# From -- ./inp_files/78051.got.cif
#   From: 2010.03.12/outbox.cif.g09.slc.cpg/sg65_40_cif.got.tgz:78051.got - 2010.04.10 20:52:16.
