data_PCOD8267358
_publ_section_title
;
Structure prediction by ZEFSAII (Michael W. Deem and Ramdas Pophale) SiO2 
 PCOD8267358
Probable space group: C M M M
;
_chemical_formula_sum "Si O2"
_cell_formula_units_Z 96
_cell_length_a 18.906407
_cell_length_b 32.640215
_cell_length_c 8.876835
_cell_angle_alpha 90.000000
_cell_angle_beta 90.000000
_cell_angle_gamma 90.000000
_cell_volume 5477.976451
_symmetry_space_group_name_H-M "C M M M"
_symmetry_group_IT_number 65
_symmetry_cell_setting 'orthorhombic'
loop_
_space_group_symop_operation_xyz
x,y,z
-x,-y,z
x,-y,-z
-x,y,-z
-x,-y,-z
x,y,-z
-x,y,z
x,-y,z
1/2+x,1/2+y,z
1/2-x,1/2-y,z
1/2+x,1/2-y,-z
1/2-x,1/2+y,-z
1/2-x,1/2-y,-z
1/2+x,1/2+y,-z
1/2-x,1/2+y,z
1/2+x,1/2-y,z
loop_
_atom_site_type_symbol
_atom_site_label
_atom_site_fract_x
_atom_site_fract_y
_atom_site_fract_z
Si Si1 0.159055 0.667270 0.324255
Si Si2 0.577023 0.087543 0.323559
Si Si3 0.577535 0.332070 0.178797
Si Si4 0.283035 0.046332 0.321554
Si Si5 0.785749 0.121686 0.178635
Si Si6 0.918498 0.260203 0.825298
O O1 0.177294 0.668034 0.500000
O O2 0.098075 0.634251 0.287563
O O3 0.229602 0.654822 0.236162
O O4 0.132718 0.711371 0.272033
O O5 0.570418 0.080480 0.500000
O O6 0.500000 0.078410 0.248655
O O7 0.637910 0.057168 0.261199
O O8 0.500000 0.345558 0.240923
O O9 0.637008 0.363656 0.235500
O O10 0.595269 0.285969 0.232486
O O11 0.574938 0.331201 0.000000
O O12 0.279566 0.053071 0.500000
O O13 0.226563 0.076494 0.245822
O O14 0.264481 0.000000 0.275307
O O15 0.781269 0.119295 0.000000
O O16 0.000000 0.272319 0.797922
O O17 0.898562 0.265289 0.000000
#
# Coordination Sequence:
#
# PCOD8267358 Si02
#       6
#    16  16  16  16  16  16
#     4  10  19  30  44  66 100 135 164 194 231 275
#     4   8  14  25  42  64  89 120 158 192 219 254
#     4   8  16  32  52  72  93 119 153 196 246 293
#     4   9  18  32  49  70  97 125 150 185 239 295
#     4  10  19  32  52  73  92 119 158 199 237 282
#     4   9  17  30  48  69  94 125 162 202 241 279
#
# _framework density 17.524719000000001
#
# number of rings (size 3 to 8) (size 9 to 14) (size 15 to 20)
#    0.000    3.000    0.000    3.500    0.000    2.333 
#    0.000    6.667    0.000    9.000    0.000    8.167 
#    0.000    0.000    0.000    0.000    0.000    0.000 
#
# Total GULP energy -594960.872931 kJ/mol
# GULP energy per Si atom -12395.018186 kJ/mol
# Density = 1.748483 g / cm^3
# Si number density = 17.524719 Si / 1000 Ang^3
#
#
#
# Elastic Constant Matrix: (Units=GPa)
#
#
# Indices 1 2 3 4 5 6 
#
# 1 120.5581 87.9300 32.6678 0.0000 0.0000 0.0000
# 2 87.9300 129.5072 35.6098 0.0000 0.0000 0.0000
# 3 32.6678 35.6098 40.0163 0.0000 0.0000 0.0000
# 4 0.0000 0.0000 0.0000 26.0447 0.0000 0.0000
# 5 0.0000 0.0000 0.0000 0.0000 15.8979 0.0000
# 6 0.0000 0.0000 0.0000 0.0000 0.0000 23.8495
#
#
#
# Elastic Compliance Matrix: (Units=1/GPa)
#
#
# Indices 1 2 3 4 5 6 
#
# 1 0.017102 -0.010291 -0.004804 0.000000 0.000000 0.000000
# 2 -0.010291 0.016415 -0.006207 0.000000 0.000000 0.000000
# 3 -0.004804 -0.006207 0.034435 0.000000 0.000000 0.000000
# 4 0.000000 0.000000 0.000000 0.038396 0.000000 0.000000
# 5 0.000000 0.000000 0.000000 0.000000 0.062901 0.000000
# 6 0.000000 0.000000 0.000000 0.000000 0.000000 0.041930
#
#
# Mechanical properties :
#
#
# Convention : Reuss Voigt Hill
#
# Bulk Modulus (GPa) = 39.44870 66.94409 53.19640
# Shear Modulus (GPa) = 19.06717 22.08335 20.57526
#
# Velocity S-wave (km/s) = 3.30209 3.55368 3.43019
# Velocity P-wave (km/s) = 6.09078 7.42434 6.79038
#
# Compressibility (1/GPa) = 0.02534938
#
# Stress axis : x y z
#
# Youngs Moduli (GPa) = 58.47241 60.91944 29.04045
#
# Poissons Ratio (x) = 0.62690 0.13951
# Poissons Ratio (y) = 0.60172 0.18024
# Poissons Ratio (z) = 0.28090 0.37810
#
# Static dielectric constant tensor:
#      x y z
#    x 3.591110 0.000000 0.000000 
#    y 0.000000 3.230680 0.000000 
#    z 0.000000 0.000000 2.949420 
# 
# 
# High freq. dielectric constant tensor:
#      x y z
#    x 1.672960 0.000000 0.000000 
#    y 0.000000 1.668660 0.000000 
#    z 0.000000 0.000000 1.648600 
# 
# From -- ./inp_files/12276.got.cif
#   From: 2010.03.12/outbox.cif.g09.slc.cpg/sg65_7_cif.got.tgz:12276.got - 2010.04.10 20:52:16.
