data_PCOD8267433
_publ_section_title
;
Structure prediction by ZEFSAII (Michael W. Deem and Ramdas Pophale) SiO2 
 PCOD8267433
Probable space group: C M M M
;
_chemical_formula_sum "Si O2"
_cell_formula_units_Z 104
_cell_length_a 23.225739
_cell_length_b 9.024340
_cell_length_c 28.287304
_cell_angle_alpha 90.000000
_cell_angle_beta 90.000000
_cell_angle_gamma 90.000000
_cell_volume 5928.933080
_symmetry_space_group_name_H-M "C M M M"
_symmetry_group_IT_number 65
_symmetry_cell_setting 'orthorhombic'
loop_
_space_group_symop_operation_xyz
x,y,z
-x,-y,z
x,-y,-z
-x,y,-z
-x,-y,-z
x,y,-z
-x,y,z
x,-y,z
1/2+x,1/2+y,z
1/2-x,1/2-y,z
1/2+x,1/2-y,-z
1/2-x,1/2+y,-z
1/2-x,1/2-y,-z
1/2+x,1/2+y,-z
1/2-x,1/2+y,z
1/2+x,1/2-y,z
loop_
_atom_site_type_symbol
_atom_site_label
_atom_site_fract_x
_atom_site_fract_y
_atom_site_fract_z
Si Si1 0.378765 0.670176 0.582214
Si Si2 0.811991 0.324712 0.500000
Si Si3 0.500000 0.324681 0.617438
Si Si4 0.312451 0.175374 0.847161
Si Si5 0.879318 0.176194 0.765106
Si Si6 0.000000 0.175833 0.723648
Si Si7 0.310201 0.828316 0.950166
Si Si8 0.691991 0.331541 0.676002
O O1 0.374367 0.500000 0.564430
O O2 0.346691 0.777138 0.546242
O O3 0.444617 0.724438 0.587013
O O4 0.352569 0.687584 0.633871
O O5 0.803554 0.500000 0.500000
O O6 0.750000 0.250000 0.500000
O O7 0.500000 0.500000 0.623731
O O8 0.500000 0.255688 0.670458
O O9 0.250000 0.250000 0.839370
O O10 0.359721 0.242559 0.812424
O O11 0.338933 0.212875 0.899699
O O12 0.305771 0.000000 0.838539
O O13 0.837082 0.230933 0.723404
O O14 0.943796 0.228964 0.752310
O O15 0.876564 0.000000 0.771872
O O16 0.000000 0.000000 0.719133
O O17 0.250000 0.750000 0.952446
O O18 0.296308 0.000000 0.949051
O O19 0.344494 0.789517 0.000000
O O20 0.709013 0.500000 0.684063
O O21 0.750000 0.250000 0.662654
#
# Coordination Sequence:
#
# PCOD8267433 Si02
#       8
#    16   8   8  16  16   8  16  16
#     4  10  20  37  61  85 107 136 173 212 251 295
#     4  12  26  43  60  81 111 142 172 210 255 306
#     4   9  16  33  62  87 106 131 173 216 248 293
#     4  10  19  30  45  69 102 135 168 208 253 304
#     4  10  19  32  51  74 100 132 167 208 254 301
#     4   9  16  32  56  78 100 131 172 213 250 295
#     4   8  14  25  41  61  88 125 166 206 249 297
#     4  10  20  32  50  75 102 132 167 204 244 294
#
# _framework density 17.541098999999999
#
# number of rings (size 3 to 8) (size 9 to 14) (size 15 to 20)
#    0.000    2.308    1.538    2.077    0.000    4.615 
#    0.000    2.308    0.000    0.923    0.000    0.538 
#    0.000    4.308    0.000    0.000    0.000    0.000 
#
# Total GULP energy -644362.592091 kJ/mol
# GULP energy per Si atom -12391.588309 kJ/mol
# Density = 1.750117 g / cm^3
# Si number density = 17.541099 Si / 1000 Ang^3
#
#
#
# Elastic Constant Matrix: (Units=GPa)
#
#
# Indices 1 2 3 4 5 6 
#
# 1 116.1763 36.9968 46.5967 0.0000 0.0000 0.0000
# 2 36.9968 56.3455 42.4599 0.0000 0.0000 0.0000
# 3 46.5967 42.4599 124.6738 0.0000 0.0000 0.0000
# 4 0.0000 0.0000 0.0000 24.4280 0.0000 0.0000
# 5 0.0000 0.0000 0.0000 0.0000 16.0595 0.0000
# 6 0.0000 0.0000 0.0000 0.0000 0.0000 19.7642
#
#
#
# Elastic Compliance Matrix: (Units=1/GPa)
#
#
# Indices 1 2 3 4 5 6 
#
# 1 0.011350 -0.005725 -0.002292 0.000000 0.000000 0.000000
# 2 -0.005725 0.026763 -0.006975 0.000000 0.000000 0.000000
# 3 -0.002292 -0.006975 0.011253 0.000000 0.000000 0.000000
# 4 0.000000 0.000000 0.000000 0.040937 0.000000 0.000000
# 5 0.000000 0.000000 0.000000 0.000000 0.062269 0.000000
# 6 0.000000 0.000000 0.000000 0.000000 0.000000 0.050597
#
#
# Mechanical properties :
#
#
# Convention : Reuss Voigt Hill
#
# Bulk Modulus (GPa) = 51.59562 61.03360 56.31461
# Shear Modulus (GPa) = 20.86699 23.45981 22.16340
#
# Velocity S-wave (km/s) = 3.45281 3.66104 3.55845
# Velocity P-wave (km/s) = 6.73601 7.26231 7.00410
#
# Compressibility (1/GPa) = 0.01938149
#
# Stress axis : x y z
#
# Youngs Moduli (GPa) = 88.10382 37.36539 88.86482
#
# Poissons Ratio (x) = 0.21393 0.20371
# Poissons Ratio (y) = 0.50441 0.61981
# Poissons Ratio (z) = 0.20196 0.26061
#
# Static dielectric constant tensor:
#      x y z
#    x 3.213740 0.000000 0.000000 
#    y 0.000000 3.089310 0.000000 
#    z 0.000000 0.000000 3.767540 
# 
# 
# High freq. dielectric constant tensor:
#      x y z
#    x 1.655830 0.000000 0.000000 
#    y 0.000000 1.659630 0.000000 
#    z 0.000000 0.000000 1.695930 
# 
# From -- ./inp_files/78397.got.cif
#   From: 2010.03.12/outbox.cif.g09.slc.cpg/sg65_40_cif.got.tgz:78397.got - 2010.04.10 20:52:16.
