data_PCOD8267533
_publ_section_title
;
Structure prediction by ZEFSAII (Michael W. Deem and Ramdas Pophale) SiO2 
 PCOD8267533
Probable space group: C M M M
;
_chemical_formula_sum "Si O2"
_cell_formula_units_Z 88
_cell_length_a 16.694838
_cell_length_b 9.196273
_cell_length_c 30.051375
_cell_angle_alpha 90.000000
_cell_angle_beta 90.000000
_cell_angle_gamma 90.000000
_cell_volume 4613.796257
_symmetry_space_group_name_H-M "C M M M"
_symmetry_group_IT_number 65
_symmetry_cell_setting 'orthorhombic'
loop_
_space_group_symop_operation_xyz
x,y,z
-x,-y,z
x,-y,-z
-x,y,-z
-x,-y,-z
x,y,-z
-x,y,z
x,-y,z
1/2+x,1/2+y,z
1/2-x,1/2-y,z
1/2+x,1/2-y,-z
1/2-x,1/2+y,-z
1/2-x,1/2-y,-z
1/2+x,1/2+y,-z
1/2-x,1/2+y,z
1/2+x,1/2-y,z
loop_
_atom_site_type_symbol
_atom_site_label
_atom_site_fract_x
_atom_site_fract_y
_atom_site_fract_z
Si Si1 0.087768 0.673085 0.862774
Si Si2 0.667448 0.168597 0.048487
Si Si3 0.000000 0.328168 0.449298
Si Si4 0.830355 0.671864 0.225936
Si Si5 0.833170 0.327309 0.402851
Si Si6 0.912657 0.671742 0.685318
O O1 0.086194 0.500000 0.862629
O O2 0.115517 0.732070 0.910936
O O3 0.141754 0.730744 0.822268
O O4 0.000000 0.736698 0.854576
O O5 0.750000 0.250000 0.048732
O O6 0.685135 0.000000 0.056684
O O7 0.624953 0.191760 0.000000
O O8 0.084833 0.273419 0.427876
O O9 0.000000 0.500000 0.444540
O O10 0.000000 0.274567 0.500000
O O11 0.817734 0.500000 0.224931
O O12 0.750000 0.750000 0.238987
O O13 0.891282 0.719660 0.264607
O O14 0.821376 0.500000 0.409350
O O15 0.750000 0.250000 0.419325
O O16 0.847161 0.279996 0.351309
O O17 0.919004 0.500000 0.682817
O O18 0.000000 0.738811 0.673933
#
# Coordination Sequence:
#
# PCOD8267533 Si02
#       6
#    16  16   8  16  16  16
#     4   9  17  29  45  66  89 114 149 190 227 266
#     4   9  17  29  46  66  87 113 144 180 223 270
#     4   9  18  34  55  77 103 139 179 213 250 304
#     4  10  19  30  47  69  93 121 154 193 235 280
#     4  10  19  33  54  78 104 135 173 214 255 302
#     4   9  16  29  50  73  96 127 167 203 237 287
#
# _framework density 19.073229000000001
#
# number of rings (size 3 to 8) (size 9 to 14) (size 15 to 20)
#    0.000    2.636    0.909    1.636    0.000    2.909 
#    0.000    2.273    0.000    5.455    0.000    2.545 
#    0.000    0.000    0.000    0.000    0.000    0.000 
#
# Total GULP energy -545084.950996 kJ/mol
# GULP energy per Si atom -12388.294341 kJ/mol
# Density = 1.902982 g / cm^3
# Si number density = 19.073229 Si / 1000 Ang^3
#
#
#
# Elastic Constant Matrix: (Units=GPa)
#
#
# Indices 1 2 3 4 5 6 
#
# 1 135.7571 24.4727 53.2392 0.0000 0.0000 0.0000
# 2 24.4727 16.0984 18.8647 0.0000 0.0000 0.0000
# 3 53.2392 18.8647 134.1291 0.0000 0.0000 0.0000
# 4 0.0000 0.0000 0.0000 11.1462 0.0000 0.0000
# 5 0.0000 0.0000 0.0000 0.0000 310.1033 0.0000
# 6 0.0000 0.0000 0.0000 0.0000 0.0000 23.1919
#
#
#
# Elastic Compliance Matrix: (Units=1/GPa)
#
#
# Indices 1 2 3 4 5 6 
#
# 1 0.010733 -0.013559 -0.002353 0.000000 0.000000 0.000000
# 2 -0.013559 0.091505 -0.007488 0.000000 0.000000 0.000000
# 3 -0.002353 -0.007488 0.009443 0.000000 0.000000 0.000000
# 4 0.000000 0.000000 0.000000 0.089716 0.000000 0.000000
# 5 0.000000 0.000000 0.000000 0.000000 0.003225 0.000000
# 6 0.000000 0.000000 0.000000 0.000000 0.000000 0.043118
#
#
# Mechanical properties :
#
#
# Convention : Reuss Voigt Hill
#
# Bulk Modulus (GPa) = 15.41290 53.23755 34.32522
# Shear Modulus (GPa) = 15.81438 81.51550 48.66494
#
# Velocity S-wave (km/s) = 2.88260 6.54454 5.05670
# Velocity P-wave (km/s) = 4.37923 9.22392 7.22005
#
# Compressibility (1/GPa) = 0.06488071
#
# Stress axis : x y z
#
# Youngs Moduli (GPa) = 93.16864 10.92835 105.90167
#
# Poissons Ratio (x) = 0.14818 0.24922
# Poissons Ratio (y) = 1.26327 0.79298
# Poissons Ratio (z) = 0.21925 0.08183
#
# Static dielectric constant tensor:
#      x y z
#    x 3.473660 0.000000 0.000000 
#    y 0.000000 2.933900 0.000000 
#    z 0.000000 0.000000 3.995790 
# 
# 
# High freq. dielectric constant tensor:
#      x y z
#    x 1.745630 0.000000 0.000000 
#    y 0.000000 1.677370 0.000000 
#    z 0.000000 0.000000 1.760780 
# 
# From -- ./inp_files/74761.got.cif
#   From: 2010.03.12/outbox.cif.g09.slc.cpg/sg65_38_cif.got.tgz:74761.got - 2010.04.10 20:52:16.
