data_PCOD8267775
_publ_section_title
;
Structure prediction by ZEFSAII (Michael W. Deem and Ramdas Pophale) SiO2 
 PCOD8267775
Probable space group: C M M M
;
_chemical_formula_sum "Si O2"
_cell_formula_units_Z 96
_cell_length_a 24.954484
_cell_length_b 18.314680
_cell_length_c 12.564762
_cell_angle_alpha 90.000000
_cell_angle_beta 90.000000
_cell_angle_gamma 90.000000
_cell_volume 5742.515759
_symmetry_space_group_name_H-M "C M M M"
_symmetry_group_IT_number 65
_symmetry_cell_setting 'orthorhombic'
loop_
_space_group_symop_operation_xyz
x,y,z
-x,-y,z
x,-y,-z
-x,y,-z
-x,-y,-z
x,y,-z
-x,y,z
x,-y,z
1/2+x,1/2+y,z
1/2-x,1/2-y,z
1/2+x,1/2-y,-z
1/2-x,1/2+y,-z
1/2-x,1/2-y,-z
1/2+x,1/2+y,-z
1/2-x,1/2+y,z
1/2+x,1/2-y,z
loop_
_atom_site_type_symbol
_atom_site_label
_atom_site_fract_x
_atom_site_fract_y
_atom_site_fract_z
Si Si1 0.562060 0.168744 0.621580
Si Si2 0.558798 0.667477 0.373592
Si Si3 0.859740 0.416129 0.768671
Si Si4 0.753515 0.836949 0.769217
Si Si5 0.746706 0.334957 0.000000
Si Si6 0.662318 0.416210 0.626014
Si Si7 0.352381 0.081066 0.000000
O O1 0.581419 0.162687 0.500000
O O2 0.500000 0.147759 0.631497
O O3 0.572123 0.250597 0.665743
O O4 0.595483 0.111722 0.689232
O O5 0.556286 0.668670 0.500000
O O6 0.500000 0.642890 0.330076
O O7 0.604400 0.612176 0.333210
O O8 0.846615 0.500000 0.741251
O O9 0.805425 0.370258 0.755249
O O10 0.884641 0.408831 0.889073
O O11 0.750000 0.750000 0.755257
O O12 0.791306 0.868994 0.678853
O O13 0.778828 0.859506 0.886286
O O14 0.750000 0.250000 0.000000
O O15 0.807389 0.359039 0.000000
O O16 0.667780 0.406354 0.500000
O O17 0.667928 0.500000 0.660575
O O18 0.326069 0.000000 0.000000
#
# Coordination Sequence:
#
# PCOD8267775 Si02
#       7
#    16  16  16  16   8  16   8
#     4   9  18  32  49  69  91 116 151 191 227 270
#     4   8  15  30  50  68  89 121 156 187 225 272
#     4  10  19  31  47  66  91 122 152 184 226 271
#     4  10  19  32  50  70  94 123 155 191 232 277
#     4   8  16  30  48  69  88 113 154 197 229 265
#     4  10  20  31  44  69 102 126 151 191 230 269
#     4   8  16  30  45  62  86 117 151 185 220 263
#
# _framework density 16.717410999999998
#
# number of rings (size 3 to 8) (size 9 to 14) (size 15 to 20)
#    0.000    2.833    0.000    2.500    0.000    2.667 
#    0.000    2.917    0.000    1.500    0.000    1.750 
#    0.000    1.333    0.000    0.000    0.000    0.000 
#
# Total GULP energy -594669.995943 kJ/mol
# GULP energy per Si atom -12388.958249 kJ/mol
# Density = 1.667936 g / cm^3
# Si number density = 16.717411 Si / 1000 Ang^3
#
#
#
# Elastic Constant Matrix: (Units=GPa)
#
#
# Indices 1 2 3 4 5 6 
#
# 1 78.0442 50.1631 47.1426 0.0000 0.0000 0.0000
# 2 50.1631 104.9388 46.8570 0.0000 0.0000 0.0000
# 3 47.1426 46.8570 72.9648 0.0000 0.0000 0.0000
# 4 0.0000 0.0000 0.0000 19.6791 0.0000 0.0000
# 5 0.0000 0.0000 0.0000 0.0000 11.6369 0.0000
# 6 0.0000 0.0000 0.0000 0.0000 0.0000 19.5250
#
#
#
# Elastic Compliance Matrix: (Units=1/GPa)
#
#
# Indices 1 2 3 4 5 6 
#
# 1 0.023640 -0.006282 -0.011240 0.000000 0.000000 0.000000
# 2 -0.006282 0.015030 -0.005593 0.000000 0.000000 0.000000
# 3 -0.011240 -0.005593 0.024559 0.000000 0.000000 0.000000
# 4 0.000000 0.000000 0.000000 0.050815 0.000000 0.000000
# 5 0.000000 0.000000 0.000000 0.000000 0.085934 0.000000
# 6 0.000000 0.000000 0.000000 0.000000 0.000000 0.051216
#
#
# Mechanical properties :
#
#
# Convention : Reuss Voigt Hill
#
# Bulk Modulus (GPa) = 58.82558 60.47479 59.65019
# Shear Modulus (GPa) = 16.49669 17.62054 17.05861
#
# Velocity S-wave (km/s) = 3.14474 3.25009 3.19785
# Velocity P-wave (km/s) = 6.96064 7.09489 7.02808
#
# Compressibility (1/GPa) = 0.01699941
#
# Stress axis : x y z
#
# Youngs Moduli (GPa) = 42.30046 66.53523 40.71778
#
# Poissons Ratio (x) = 0.41796 0.45767
# Poissons Ratio (y) = 0.26572 0.22774
# Poissons Ratio (z) = 0.47546 0.37214
#
# Static dielectric constant tensor:
#      x y z
#    x 3.035430 0.000000 0.000000 
#    y 0.000000 3.252170 0.000000 
#    z 0.000000 0.000000 3.344250 
# 
# 
# High freq. dielectric constant tensor:
#      x y z
#    x 1.623130 0.000000 0.000000 
#    y 0.000000 1.653630 0.000000 
#    z 0.000000 0.000000 1.633750 
# 
# From -- ./inp_files/30994.got.cif
#   From: 2010.03.12/outbox.cif.g09.slc.cpg/sg65_16_cif.got.tgz:30994.got - 2010.04.10 20:52:16.
