data_PCOD8267237
_publ_section_title
;
Structure prediction by ZEFSAII (Michael W. Deem and Ramdas Pophale) SiO2 
 PCOD8267237
Probable space group: C M M M
;
_chemical_formula_sum "Si O2"
_cell_formula_units_Z 88
_cell_length_a 8.909474
_cell_length_b 18.723916
_cell_length_c 28.162380
_cell_angle_alpha 90.000000
_cell_angle_beta 90.000000
_cell_angle_gamma 90.000000
_cell_volume 4698.055069
_symmetry_space_group_name_H-M "C M M M"
_symmetry_group_IT_number 65
_symmetry_cell_setting 'orthorhombic'
loop_
_space_group_symop_operation_xyz
x,y,z
-x,-y,z
x,-y,-z
-x,y,-z
-x,-y,-z
x,y,-z
-x,y,z
x,-y,z
1/2+x,1/2+y,z
1/2-x,1/2-y,z
1/2+x,1/2-y,-z
1/2-x,1/2+y,-z
1/2-x,1/2-y,-z
1/2+x,1/2+y,-z
1/2-x,1/2+y,z
1/2+x,1/2-y,z
loop_
_atom_site_type_symbol
_atom_site_label
_atom_site_fract_x
_atom_site_fract_y
_atom_site_fract_z
Si Si1 0.325124 0.082773 0.640051
Si Si2 0.678249 0.420012 0.191829
Si Si3 0.321004 0.326714 0.000000
Si Si4 0.821755 0.079723 0.913399
Si Si5 0.324804 0.822470 0.553095
Si Si6 0.322108 0.327072 0.721328
O O1 0.500000 0.095091 0.651913
O O2 0.284364 0.112460 0.587876
O O3 0.223939 0.123392 0.677810
O O4 0.281854 0.000000 0.640915
O O5 0.500000 0.422033 0.193932
O O6 0.739448 0.500000 0.202858
O O7 0.731774 0.395608 0.139184
O O8 0.739956 0.364113 0.230468
O O9 0.250000 0.250000 0.000000
O O10 0.258885 0.367145 0.953318
O O11 0.500000 0.321729 0.000000
O O12 0.000000 0.078766 0.915575
O O13 0.761212 0.000000 0.923863
O O14 0.266691 0.841606 0.500000
O O15 0.500000 0.807777 0.552552
O O16 0.250000 0.750000 0.572269
O O17 0.500000 0.318689 0.722005
O O18 0.250000 0.250000 0.715953
#
# Coordination Sequence:
#
# PCOD8267237 Si02
#       6
#    16  16   8  16  16  16
#     4  10  21  36  54  77 104 133 167 209 253 295
#     4   8  15  29  49  72  96 123 159 204 249 291
#     4  10  19  29  45  71  99 126 156 196 244 288
#     4   8  14  27  48  71  93 121 162 205 239 280
#     4   9  18  33  53  76 102 133 167 202 243 293
#     4  11  22  35  52  74 101 134 170 206 248 298
#
# _framework density 18.731154
#
# number of rings (size 3 to 8) (size 9 to 14) (size 15 to 20)
#    0.000    2.727    0.000    3.000    0.000    5.455 
#    0.000    1.818    0.000    2.182    0.000    8.909 
#    0.000    0.000    0.000    0.000    0.000    0.000 
#
# Total GULP energy -545469.782712 kJ/mol
# GULP energy per Si atom -12397.040516 kJ/mol
# Density = 1.868852 g / cm^3
# Si number density = 18.731154 Si / 1000 Ang^3
#
#
#
# Elastic Constant Matrix: (Units=GPa)
#
#
# Indices 1 2 3 4 5 6 
#
# 1 30.0651 33.4066 33.3897 0.0000 0.0000 0.0000
# 2 33.4066 151.4437 92.2990 0.0000 0.0000 0.0000
# 3 33.3897 92.2990 146.7254 0.0000 0.0000 0.0000
# 4 0.0000 0.0000 0.0000 34.5405 0.0000 0.0000
# 5 0.0000 0.0000 0.0000 0.0000 11.8067 0.0000
# 6 0.0000 0.0000 0.0000 0.0000 0.0000 20.3876
#
#
#
# Elastic Compliance Matrix: (Units=1/GPa)
#
#
# Indices 1 2 3 4 5 6 
#
# 1 0.048032 -0.006379 -0.006917 0.000000 0.000000 0.000000
# 2 -0.006379 0.011556 -0.005818 0.000000 0.000000 0.000000
# 3 -0.006917 -0.005818 0.012049 0.000000 0.000000 0.000000
# 4 0.000000 0.000000 0.000000 0.028952 0.000000 0.000000
# 5 0.000000 0.000000 0.000000 0.000000 0.084698 0.000000
# 6 0.000000 0.000000 0.000000 0.000000 0.000000 0.049050
#
#
# Mechanical properties :
#
#
# Convention : Reuss Voigt Hill
#
# Bulk Modulus (GPa) = 29.93273 71.82497 50.87885
# Shear Modulus (GPa) = 17.62420 24.62288 21.12354
#
# Velocity S-wave (km/s) = 3.07074 3.62959 3.36180
# Velocity P-wave (km/s) = 5.34673 7.48289 6.50312
#
# Compressibility (1/GPa) = 0.03340824
#
# Stress axis : x y z
#
# Youngs Moduli (GPa) = 20.81952 86.53551 82.99255
#
# Poissons Ratio (x) = 0.55204 0.57409
# Poissons Ratio (y) = 0.13281 0.48282
# Poissons Ratio (z) = 0.14402 0.50343
#
# Static dielectric constant tensor:
#      x y z
#    x 3.030160 0.000000 0.000000 
#    y 0.000000 3.528810 0.000000 
#    z 0.000000 0.000000 3.931170 
# 
# 
# High freq. dielectric constant tensor:
#      x y z
#    x 1.684830 0.000000 0.000000 
#    y 0.000000 1.728470 0.000000 
#    z 0.000000 0.000000 1.745080 
# 
# From -- ./inp_files/76518.got.cif
#   From: 2010.03.12/outbox.cif.g09.slc.cpg/sg65_39_cif.got.tgz:76518.got - 2010.04.10 20:52:16.
