data_PCOD8267152
_publ_section_title
;
Structure prediction by ZEFSAII (Michael W. Deem and Ramdas Pophale) SiO2 
 PCOD8267152
Probable space group: C M M M
;
_chemical_formula_sum "Si O2"
_cell_formula_units_Z 88
_cell_length_a 38.938298
_cell_length_b 7.820498
_cell_length_c 23.636183
_cell_angle_alpha 90.000000
_cell_angle_beta 90.000000
_cell_angle_gamma 90.000000
_cell_volume 7197.616741
_symmetry_space_group_name_H-M "C M M M"
_symmetry_group_IT_number 65
_symmetry_cell_setting 'orthorhombic'
loop_
_space_group_symop_operation_xyz
x,y,z
-x,-y,z
x,-y,-z
-x,y,-z
-x,-y,-z
x,y,-z
-x,y,z
x,-y,z
1/2+x,1/2+y,z
1/2-x,1/2-y,z
1/2+x,1/2-y,-z
1/2-x,1/2+y,-z
1/2-x,1/2-y,-z
1/2+x,1/2+y,-z
1/2-x,1/2+y,z
1/2+x,1/2-y,z
loop_
_atom_site_type_symbol
_atom_site_label
_atom_site_fract_x
_atom_site_fract_y
_atom_site_fract_z
Si Si1 0.459175 0.809983 0.638486
Si Si2 0.642185 0.810641 0.933104
Si Si3 0.459265 0.189800 0.234811
Si Si4 0.904505 0.000000 0.067136
Si Si5 0.458967 0.500000 0.563814
Si Si6 0.285992 0.300397 0.064195
Si Si7 0.959182 0.000000 0.842139
O O1 0.500000 0.801031 0.638655
O O2 0.445486 0.771264 0.701872
O O3 0.444417 0.668534 0.595418
O O4 0.447219 0.000000 0.619192
O O5 0.615892 0.667570 0.910996
O O6 0.680536 0.786015 0.906860
O O7 0.628569 0.000000 0.916969
O O8 0.645293 0.785876 0.000000
O O9 0.500000 0.196352 0.236314
O O10 0.445871 0.333189 0.191726
O O11 0.447014 0.000000 0.215350
O O12 0.941694 0.000000 0.096439
O O13 0.910562 0.000000 0.000000
O O14 0.500000 0.500000 0.564137
O O15 0.444732 0.500000 0.500000
O O16 0.292267 0.500000 0.066668
O O17 0.250000 0.250000 0.095163
O O18 0.283427 0.231992 0.000000
O O19 0.000000 0.000000 0.851171
#
# Coordination Sequence:
#
# PCOD8267152 Si02
#       7
#    16  16  16   8   8  16   8
#     4   8  13  21  32  44  59  79  99 122 156 191
#     4   9  16  27  40  51  66  89 111 126 145 178
#     4   8  14  25  40  55  66  74  92 129 173 209
#     4  10  20  32  41  51  69  89 107 126 156 209
#     4   9  15  19  24  38  61  87 111 127 137 165
#     4   9  14  20  32  52  74  90 107 130 147 162
#     4  10  19  29  43  57  65  77 100 135 175 212
#
# _framework density 12.226269
#
# number of rings (size 3 to 8) (size 9 to 14) (size 15 to 20)
#    0.000    3.182    0.909    2.182    0.000    5.636 
#    0.000    1.818    0.000    0.000    0.000    5.091 
#    0.000    0.000    0.000    0.000    0.000    0.000 
#
# Total GULP energy -545148.911141 kJ/mol
# GULP energy per Si atom -12389.747980 kJ/mol
# Density = 1.219844 g / cm^3
# Si number density = 12.226269 Si / 1000 Ang^3
#
#
#
# Elastic Constant Matrix: (Units=GPa)
#
#
# Indices 1 2 3 4 5 6 
#
# 1 35.0723 27.0389 21.0936 0.0000 0.0000 0.0000
# 2 27.0389 102.2513 37.4934 0.0000 0.0000 0.0000
# 3 21.0936 37.4934 46.9205 0.0000 0.0000 0.0000
# 4 0.0000 0.0000 0.0000 8.8173 0.0000 0.0000
# 5 0.0000 0.0000 0.0000 0.0000 0.7119 0.0000
# 6 0.0000 0.0000 0.0000 0.0000 0.0000 9.5086
#
#
#
# Elastic Compliance Matrix: (Units=1/GPa)
#
#
# Indices 1 2 3 4 5 6 
#
# 1 0.041399 -0.005832 -0.013951 0.000000 0.000000 0.000000
# 2 -0.005832 0.014654 -0.009088 0.000000 0.000000 0.000000
# 3 -0.013951 -0.009088 0.034847 0.000000 0.000000 0.000000
# 4 0.000000 0.000000 0.000000 0.113414 0.000000 0.000000
# 5 0.000000 0.000000 0.000000 0.000000 1.404614 0.000000
# 6 0.000000 0.000000 0.000000 0.000000 0.000000 0.105168
#
#
# Mechanical properties :
#
#
# Convention : Reuss Voigt Hill
#
# Bulk Modulus (GPa) = 30.15895 39.49954 34.82925
# Shear Modulus (GPa) = 2.80443 10.38211 6.59327
#
# Velocity S-wave (km/s) = 1.51616 2.91720 2.32474
# Velocity P-wave (km/s) = 5.27123 6.61241 5.97955
#
# Compressibility (1/GPa) = 0.03315765
#
# Stress axis : x y z
#
# Youngs Moduli (GPa) = 24.15494 68.23854 28.69682
#
# Poissons Ratio (x) = 0.39795 0.40036
# Poissons Ratio (y) = 0.14087 0.26081
# Poissons Ratio (z) = 0.33700 0.62018
#
# Static dielectric constant tensor:
#      x y z
#    x 2.197170 0.000000 0.000000 
#    y 0.000000 2.825260 0.000000 
#    z 0.000000 0.000000 2.270660 
# 
# 
# High freq. dielectric constant tensor:
#      x y z
#    x 1.412650 0.000000 0.000000 
#    y 0.000000 1.487920 0.000000 
#    z 0.000000 0.000000 1.416070 
# 
# From -- ./inp_files/66265.got.cif
#   From: 2010.03.12/outbox.cif.g09.slc.cpg/sg65_34_cif.got.tgz:66265.got - 2010.04.10 20:52:16.
