data_PCOD8267568
_publ_section_title
;
Structure prediction by ZEFSAII (Michael W. Deem and Ramdas Pophale) SiO2 
 PCOD8267568
Probable space group: C M M M
;
_chemical_formula_sum "Si O2"
_cell_formula_units_Z 88
_cell_length_a 9.217459
_cell_length_b 18.291611
_cell_length_c 28.504963
_cell_angle_alpha 90.000000
_cell_angle_beta 90.000000
_cell_angle_gamma 90.000000
_cell_volume 4805.998744
_symmetry_space_group_name_H-M "C M M M"
_symmetry_group_IT_number 65
_symmetry_cell_setting 'orthorhombic'
loop_
_space_group_symop_operation_xyz
x,y,z
-x,-y,z
x,-y,-z
-x,y,-z
-x,-y,-z
x,y,-z
-x,y,z
x,-y,z
1/2+x,1/2+y,z
1/2-x,1/2-y,z
1/2+x,1/2-y,-z
1/2-x,1/2+y,-z
1/2-x,1/2-y,-z
1/2+x,1/2+y,-z
1/2-x,1/2+y,z
1/2+x,1/2-y,z
loop_
_atom_site_type_symbol
_atom_site_label
_atom_site_fract_x
_atom_site_fract_y
_atom_site_fract_z
Si Si1 0.836261 0.913029 0.500000
Si Si2 0.328115 0.081734 0.771242
Si Si3 0.168587 0.415658 0.590711
Si Si4 0.327804 0.081692 0.051988
Si Si5 0.328616 0.826747 0.317400
Si Si6 0.672211 0.173770 0.139094
O O1 0.756577 0.883672 0.546476
O O2 0.000000 0.883370 0.500000
O O3 0.829592 0.000000 0.500000
O O4 0.500000 0.076620 0.768717
O O5 0.270043 0.126903 0.726727
O O6 0.278834 0.121105 0.818831
O O7 0.261640 0.000000 0.770333
O O8 0.207278 0.500000 0.600671
O O9 0.215382 0.370120 0.635967
O O10 0.000000 0.406569 0.579052
O O11 0.500000 0.078977 0.054925
O O12 0.268983 0.137836 0.090830
O O13 0.267558 0.000000 0.061950
O O14 0.278032 0.107730 0.000000
O O15 0.500000 0.814090 0.314169
O O16 0.250000 0.750000 0.317470
O O17 0.500000 0.185791 0.138484
O O18 0.750000 0.250000 0.146558
#
# Coordination Sequence:
#
# PCOD8267568 Si02
#       6
#     8  16  16  16  16  16
#     4   9  17  29  48  75 102 125 153 195 242 279
#     4   9  17  31  52  74  93 119 161 204 235 273
#     4   9  17  31  51  72  94 124 162 197 229 272
#     4   8  14  26  45  68  92 121 163 209 242 273
#     4  10  20  33  50  72  98 126 155 192 238 284
#     4  10  19  30  47  71  98 127 157 194 242 290
#
# _framework density 18.310448999999998
#
# number of rings (size 3 to 8) (size 9 to 14) (size 15 to 20)
#    0.000    2.818    0.000    2.455    0.000    6.545 
#    0.000    0.455    0.000    4.909    0.000    1.273 
#    0.000    0.000    0.000    0.000    0.000    0.000 
#
# Total GULP energy -545540.173502 kJ/mol
# GULP energy per Si atom -12398.640307 kJ/mol
# Density = 1.826877 g / cm^3
# Si number density = 18.310449 Si / 1000 Ang^3
#
#
#
# Elastic Constant Matrix: (Units=GPa)
#
#
# Indices 1 2 3 4 5 6 
#
# 1 33.1981 37.2944 44.9017 0.0000 0.0000 0.0000
# 2 37.2944 138.4087 91.3064 0.0000 0.0000 0.0000
# 3 44.9017 91.3064 184.9644 0.0000 0.0000 0.0000
# 4 0.0000 0.0000 0.0000 12.2020 0.0000 0.0000
# 5 0.0000 0.0000 0.0000 0.0000 10.2010 0.0000
# 6 0.0000 0.0000 0.0000 0.0000 0.0000 25.3720
#
#
#
# Elastic Compliance Matrix: (Units=1/GPa)
#
#
# Indices 1 2 3 4 5 6 
#
# 1 0.050389 -0.008168 -0.008201 0.000000 0.000000 0.000000
# 2 -0.008168 0.012038 -0.003960 0.000000 0.000000 0.000000
# 3 -0.008201 -0.003960 0.009352 0.000000 0.000000 0.000000
# 4 0.000000 0.000000 0.000000 0.081954 0.000000 0.000000
# 5 0.000000 0.000000 0.000000 0.000000 0.098030 0.000000
# 6 0.000000 0.000000 0.000000 0.000000 0.000000 0.039413
#
#
# Mechanical properties :
#
#
# Convention : Reuss Voigt Hill
#
# Bulk Modulus (GPa) = 32.13025 78.17513 55.15269
# Shear Modulus (GPa) = 14.61108 21.75958 18.18533
#
# Velocity S-wave (km/s) = 2.82789 3.45101 3.15487
# Velocity P-wave (km/s) = 5.31490 7.65939 6.59221
#
# Compressibility (1/GPa) = 0.03112332
#
# Stress axis : x y z
#
# Youngs Moduli (GPa) = 19.84551 83.07103 106.93074
#
# Poissons Ratio (x) = 0.67850 0.87689
# Poissons Ratio (y) = 0.16209 0.42341
# Poissons Ratio (z) = 0.16274 0.32893
#
# Static dielectric constant tensor:
#      x y z
#    x 2.953990 0.000000 0.000000 
#    y 0.000000 3.343700 0.000000 
#    z 0.000000 0.000000 3.729110 
# 
# 
# High freq. dielectric constant tensor:
#      x y z
#    x 1.661930 0.000000 0.000000 
#    y 0.000000 1.704620 0.000000 
#    z 0.000000 0.000000 1.731110 
# 
# From -- ./inp_files/76670.got.cif
#   From: 2010.03.12/outbox.cif.g09.slc.cpg/sg65_39_cif.got.tgz:76670.got - 2010.04.10 20:52:16.
