data_PCOD8267580
_publ_section_title
;
Structure prediction by ZEFSAII (Michael W. Deem and Ramdas Pophale) SiO2 
 PCOD8267580
Probable space group: C M M M
;
_chemical_formula_sum "Si O2"
_cell_formula_units_Z 104
_cell_length_a 10.146400
_cell_length_b 18.526387
_cell_length_c 30.461441
_cell_angle_alpha 90.000000
_cell_angle_beta 90.000000
_cell_angle_gamma 90.000000
_cell_volume 5726.023887
_symmetry_space_group_name_H-M "C M M M"
_symmetry_group_IT_number 65
_symmetry_cell_setting 'orthorhombic'
loop_
_space_group_symop_operation_xyz
x,y,z
-x,-y,z
x,-y,-z
-x,y,-z
-x,-y,-z
x,y,-z
-x,y,z
x,-y,z
1/2+x,1/2+y,z
1/2-x,1/2-y,z
1/2+x,1/2-y,-z
1/2-x,1/2+y,-z
1/2-x,1/2-y,-z
1/2+x,1/2+y,-z
1/2-x,1/2+y,z
1/2+x,1/2-y,z
loop_
_atom_site_type_symbol
_atom_site_label
_atom_site_fract_x
_atom_site_fract_y
_atom_site_fract_z
Si Si1 0.716093 0.414222 0.949894
Si Si2 0.657921 0.680464 0.627705
Si Si3 0.500000 0.077605 0.948668
Si Si4 0.156043 0.080169 0.548786
Si Si5 0.357216 0.306129 0.117726
Si Si6 0.846916 0.185788 0.217022
Si Si7 0.845505 0.079763 0.292169
O O1 0.705375 0.500000 0.943325
O O2 0.862762 0.383162 0.937468
O O3 0.624506 0.373217 0.915567
O O4 0.677192 0.394545 0.000000
O O5 0.500000 0.698707 0.628466
O O6 0.750000 0.750000 0.631186
O O7 0.703153 0.639513 0.583507
O O8 0.701267 0.629617 0.667877
O O9 0.500000 0.000000 0.924437
O O10 0.500000 0.062071 0.000000
O O11 0.205427 0.102499 0.500000
O O12 0.000000 0.076409 0.549740
O O13 0.210604 0.000000 0.560801
O O14 0.500000 0.267314 0.119643
O O15 0.250000 0.250000 0.099986
O O16 0.320158 0.334728 0.166244
O O17 0.750000 0.250000 0.231540
O O18 0.807897 0.116500 0.245874
O O19 0.000000 0.208065 0.225256
O O20 0.000000 0.069809 0.296036
O O21 0.779105 0.000000 0.294407
#
# Coordination Sequence:
#
# PCOD8267580 Si02
#       7
#    16  16   8  16  16  16  16
#     4   9  18  33  53  75  99 127 161 200 239 280
#     4  10  19  30  47  72  99 128 164 202 243 292
#     4   7  12  26  48  72  94 120 153 187 229 277
#     4   8  14  26  45  68  94 126 166 211 251 285
#     4  10  22  36  51  74 101 130 161 194 238 288
#     4   9  18  34  53  72  96 126 157 192 237 287
#     4   9  17  30  51  76  97 121 159 204 242 280
#
# _framework density 18.162690999999999
#
# number of rings (size 3 to 8) (size 9 to 14) (size 15 to 20)
#    0.000    3.000    0.000    2.308    1.077    3.692 
#    0.000    2.308    0.000    3.231    0.000    1.077 
#    0.000    0.000    0.000    0.000    0.000    0.000 
#
# Total GULP energy -644193.100368 kJ/mol
# GULP energy per Si atom -12388.328853 kJ/mol
# Density = 1.812135 g / cm^3
# Si number density = 18.162691 Si / 1000 Ang^3
#
#
#
# Elastic Constant Matrix: (Units=GPa)
#
#
# Indices 1 2 3 4 5 6 
#
# 1 57.8372 41.0379 29.4270 0.0000 0.0000 0.0000
# 2 41.0379 129.8334 78.3263 0.0000 0.0000 0.0000
# 3 29.4270 78.3263 113.5556 0.0000 0.0000 0.0000
# 4 0.0000 0.0000 0.0000 20.7028 0.0000 0.0000
# 5 0.0000 0.0000 0.0000 0.0000 14.8295 0.0000
# 6 0.0000 0.0000 0.0000 0.0000 0.0000 29.1703
#
#
#
# Elastic Compliance Matrix: (Units=1/GPa)
#
#
# Indices 1 2 3 4 5 6 
#
# 1 0.022453 -0.006143 -0.001581 0.000000 0.000000 0.000000
# 2 -0.006143 0.014872 -0.008666 0.000000 0.000000 0.000000
# 3 -0.001581 -0.008666 0.015194 0.000000 0.000000 0.000000
# 4 0.000000 0.000000 0.000000 0.048303 0.000000 0.000000
# 5 0.000000 0.000000 0.000000 0.000000 0.067433 0.000000
# 6 0.000000 0.000000 0.000000 0.000000 0.000000 0.034281
#
#
# Mechanical properties :
#
#
# Convention : Reuss Voigt Hill
#
# Bulk Modulus (GPa) = 50.66441 66.53428 58.59935
# Shear Modulus (GPa) = 20.66996 23.10286 21.88641
#
# Velocity S-wave (km/s) = 3.37715 3.57037 3.47511
# Velocity P-wave (km/s) = 6.56980 7.32862 6.95956
#
# Compressibility (1/GPa) = 0.01973772
#
# Stress axis : x y z
#
# Youngs Moduli (GPa) = 44.53706 67.23989 65.81661
#
# Poissons Ratio (x) = 0.41306 0.10408
# Poissons Ratio (y) = 0.27359 0.57039
# Poissons Ratio (z) = 0.07043 0.58272
#
# Static dielectric constant tensor:
#      x y z
#    x 3.409390 0.000000 0.000000 
#    y 0.000000 3.323930 0.000000 
#    z 0.000000 0.000000 3.500870 
# 
# 
# High freq. dielectric constant tensor:
#      x y z
#    x 1.674930 0.000000 0.000000 
#    y 0.000000 1.690770 0.000000 
#    z 0.000000 0.000000 1.707870 
# 
# From -- ./inp_files/77439.got.cif
#   From: 2010.03.12/outbox.cif.g09.slc.cpg/sg65_39_cif.got.tgz:77439.got - 2010.04.10 20:52:16.
