data_PCOD8267148
_publ_section_title
;
Structure prediction by ZEFSAII (Michael W. Deem and Ramdas Pophale) SiO2 
 PCOD8267148
Probable space group: C M M M
;
_chemical_formula_sum "Si O2"
_cell_formula_units_Z 72
_cell_length_a 8.938816
_cell_length_b 23.790010
_cell_length_c 20.493427
_cell_angle_alpha 90.000000
_cell_angle_beta 90.000000
_cell_angle_gamma 90.000000
_cell_volume 4358.019923
_symmetry_space_group_name_H-M "C M M M"
_symmetry_group_IT_number 65
_symmetry_cell_setting 'orthorhombic'
loop_
_space_group_symop_operation_xyz
x,y,z
-x,-y,z
x,-y,-z
-x,y,-z
-x,-y,-z
x,y,-z
-x,y,z
x,-y,z
1/2+x,1/2+y,z
1/2-x,1/2-y,z
1/2+x,1/2-y,-z
1/2-x,1/2+y,-z
1/2-x,1/2-y,-z
1/2+x,1/2+y,-z
1/2-x,1/2+y,z
1/2+x,1/2-y,z
loop_
_atom_site_type_symbol
_atom_site_label
_atom_site_fract_x
_atom_site_fract_y
_atom_site_fract_z
Si Si1 0.176658 0.689742 0.000000
Si Si2 0.168511 0.932849 0.500000
Si Si3 0.324619 0.434442 0.761246
Si Si4 0.166915 0.566484 0.372186
Si Si5 0.837154 0.000000 0.072690
Si Si6 0.323001 0.108712 0.115999
O O1 0.250000 0.750000 0.000000
O O2 0.227426 0.658371 0.066757
O O3 0.000000 0.695680 0.000000
O O4 0.250871 0.908789 0.435866
O O5 0.000000 0.909836 0.500000
O O6 0.169464 0.000000 0.500000
O O7 0.500000 0.425805 0.756254
O O8 0.284674 0.500000 0.779852
O O9 0.256782 0.416594 0.692205
O O10 0.257322 0.390036 0.813365
O O11 0.159656 0.500000 0.378401
O O12 0.000000 0.591791 0.368380
O O13 0.731595 0.052213 0.083580
O O14 0.000000 0.000000 0.112539
O O15 0.891702 0.000000 0.000000
O O16 0.500000 0.108442 0.126250
#
# Coordination Sequence:
#
# PCOD8267148 Si02
#       6
#     8   8  16  16   8  16
#     4  10  24  41  56  73  91 120 158 196 237 284
#     4   9  15  23  35  51  75 111 154 197 230 263
#     4  10  19  29  42  65  93 120 153 190 235 282
#     4   9  16  25  37  54  79 115 155 192 230 271
#     4  11  21  31  47  73  97 120 149 184 233 283
#     4  11  21  34  51  71  95 122 153 192 238 285
#
# _framework density 16.521265
#
# number of rings (size 3 to 8) (size 9 to 14) (size 15 to 20)
#    0.000    2.000    2.222    2.667    0.000    7.111 
#    0.000    0.000    0.000    0.000    0.000    0.000 
#    0.000    0.000    0.000    1.000    0.000   13.667 
#
# Total GULP energy -446127.421455 kJ/mol
# GULP energy per Si atom -12392.428374 kJ/mol
# Density = 1.648366 g / cm^3
# Si number density = 16.521265 Si / 1000 Ang^3
#
#
#
# Elastic Constant Matrix: (Units=GPa)
#
#
# Indices 1 2 3 4 5 6 
#
# 1 115.6766 27.2018 75.0969 0.0000 0.0000 0.0000
# 2 27.2018 60.7571 41.0975 0.0000 0.0000 0.0000
# 3 75.0969 41.0975 165.6253 0.0000 0.0000 0.0000
# 4 0.0000 0.0000 0.0000 4.3359 0.0000 0.0000
# 5 0.0000 0.0000 0.0000 0.0000 33.1408 0.0000
# 6 0.0000 0.0000 0.0000 0.0000 0.0000 18.4357
#
#
#
# Elastic Compliance Matrix: (Units=1/GPa)
#
#
# Indices 1 2 3 4 5 6 
#
# 1 0.012473 -0.002114 -0.005131 0.000000 0.000000 0.000000
# 2 -0.002114 0.020137 -0.004038 0.000000 0.000000 0.000000
# 3 -0.005131 -0.004038 0.009366 0.000000 0.000000 0.000000
# 4 0.000000 0.000000 0.000000 0.230631 0.000000 0.000000
# 5 0.000000 0.000000 0.000000 0.000000 0.030174 0.000000
# 6 0.000000 0.000000 0.000000 0.000000 0.000000 0.054243
#
#
# Mechanical properties :
#
#
# Convention : Reuss Voigt Hill
#
# Bulk Modulus (GPa) = 51.51921 69.87238 60.69580
# Shear Modulus (GPa) = 12.95136 24.42667 18.68902
#
# Velocity S-wave (km/s) = 2.80290 3.84930 3.36699
# Velocity P-wave (km/s) = 6.45959 7.88291 7.20647
#
# Compressibility (1/GPa) = 0.01941023
#
# Stress axis : x y z
#
# Youngs Moduli (GPa) = 80.17477 49.66010 106.76695
#
# Poissons Ratio (x) = 0.10496 0.54781
# Poissons Ratio (y) = 0.16946 0.43116
# Poissons Ratio (z) = 0.41137 0.20054
#
# Static dielectric constant tensor:
#      x y z
#    x 3.267020 0.000000 0.000000 
#    y 0.000000 2.536980 0.000000 
#    z 0.000000 0.000000 3.463030 
# 
# 
# High freq. dielectric constant tensor:
#      x y z
#    x 1.658780 0.000000 0.000000 
#    y 0.000000 1.549390 0.000000 
#    z 0.000000 0.000000 1.658390 
# 
# From -- ./inp_files/59414.got.cif
#   From: 2010.03.12/outbox.cif.g09.slc.cpg/sg65_30_cif.got.tgz:59414.got - 2010.04.10 20:52:16.
