data_PCOD8267720
_publ_section_title
;
Structure prediction by ZEFSAII (Michael W. Deem and Ramdas Pophale) SiO2 
 PCOD8267720
Probable space group: C M M M
;
_chemical_formula_sum "Si O2"
_cell_formula_units_Z 72
_cell_length_a 13.717223
_cell_length_b 22.106897
_cell_length_c 13.943735
_cell_angle_alpha 90.000000
_cell_angle_beta 90.000000
_cell_angle_gamma 90.000000
_cell_volume 4228.371211
_symmetry_space_group_name_H-M "C M M M"
_symmetry_group_IT_number 65
_symmetry_cell_setting 'orthorhombic'
loop_
_space_group_symop_operation_xyz
x,y,z
-x,-y,z
x,-y,-z
-x,y,-z
-x,-y,-z
x,y,-z
-x,y,z
x,-y,z
1/2+x,1/2+y,z
1/2-x,1/2-y,z
1/2+x,1/2-y,-z
1/2-x,1/2+y,-z
1/2-x,1/2-y,-z
1/2+x,1/2+y,-z
1/2-x,1/2+y,z
1/2+x,1/2-y,z
loop_
_atom_site_type_symbol
_atom_site_label
_atom_site_fract_x
_atom_site_fract_y
_atom_site_fract_z
Si Si1 0.735501 0.614325 0.111773
Si Si2 0.765992 0.820335 0.394994
Si Si3 0.889768 0.000000 0.886343
Si Si4 0.889926 0.798607 0.779596
Si Si5 0.388268 0.156983 0.750117
O O1 0.669853 0.558547 0.148776
O O2 0.675601 0.675487 0.134245
O O3 0.838441 0.615434 0.168267
O O4 0.759580 0.609761 0.000000
O O5 0.787996 0.849517 0.500000
O O6 0.750000 0.750000 0.409732
O O7 0.855561 0.828465 0.321236
O O8 0.668769 0.851350 0.350554
O O9 0.000000 0.000000 0.843188
O O10 0.897186 0.000000 0.000000
O O11 0.878315 0.726691 0.781441
O O12 0.000000 0.818743 0.797054
O O13 0.500000 0.136972 0.736951
#
# Coordination Sequence:
#
# PCOD8267720 Si02
#       5
#    16  16   8  16  16
#     4  10  19  31  46  64  88 117 149 185 221 260
#     4   8  14  25  41  62  89 119 148 178 214 258
#     4   9  18  32  49  67  84 107 145 189 229 267
#     4   9  17  28  43  66  94 120 147 181 221 265
#     4   9  18  30  43  64  93 121 150 182 217 261
#
# _framework density 17.027833000000001
#
# number of rings (size 3 to 8) (size 9 to 14) (size 15 to 20)
#    0.000    3.000    0.000    2.667    0.000    4.444 
#    0.000    7.222    0.000    2.000    0.000   12.444 
#    0.000   28.444    0.000    0.000    0.000    0.000 
#
# Total GULP energy -446167.760075 kJ/mol
# GULP energy per Si atom -12393.548891 kJ/mol
# Density = 1.698908 g / cm^3
# Si number density = 17.027833 Si / 1000 Ang^3
#
#
#
# Elastic Constant Matrix: (Units=GPa)
#
#
# Indices 1 2 3 4 5 6 
#
# 1 109.4444 18.0194 29.7823 0.0000 0.0000 0.0000
# 2 18.0194 32.3657 15.3439 0.0000 0.0000 0.0000
# 3 29.7823 15.3439 86.2058 0.0000 0.0000 0.0000
# 4 0.0000 0.0000 0.0000 4.2613 0.0000 0.0000
# 5 0.0000 0.0000 0.0000 0.0000 15.6554 0.0000
# 6 0.0000 0.0000 0.0000 0.0000 0.0000 23.0867
#
#
#
# Elastic Compliance Matrix: (Units=1/GPa)
#
#
# Indices 1 2 3 4 5 6 
#
# 1 0.010673 -0.004580 -0.002872 0.000000 0.000000 0.000000
# 2 -0.004580 0.035710 -0.004774 0.000000 0.000000 0.000000
# 3 -0.002872 -0.004774 0.013442 0.000000 0.000000 0.000000
# 4 0.000000 0.000000 0.000000 0.234673 0.000000 0.000000
# 5 0.000000 0.000000 0.000000 0.000000 0.063876 0.000000
# 6 0.000000 0.000000 0.000000 0.000000 0.000000 0.043315
#
#
# Mechanical properties :
#
#
# Convention : Reuss Voigt Hill
#
# Bulk Modulus (GPa) = 28.27031 39.36745 33.81888
# Shear Modulus (GPa) = 11.41731 19.59202 15.50467
#
# Velocity S-wave (km/s) = 2.59223 3.39571 3.02080
# Velocity P-wave (km/s) = 5.05944 6.20839 5.66313
#
# Compressibility (1/GPa) = 0.03537280
#
# Stress axis : x y z
#
# Youngs Moduli (GPa) = 93.69679 28.00327 74.39361
#
# Poissons Ratio (x) = 0.12827 0.21365
# Poissons Ratio (y) = 0.42917 0.35513
# Poissons Ratio (z) = 0.26909 0.13368
#
# Static dielectric constant tensor:
#      x y z
#    x 3.392060 0.000000 0.000000 
#    y 0.000000 2.913610 0.000000 
#    z 0.000000 0.000000 3.272140 
# 
# 
# High freq. dielectric constant tensor:
#      x y z
#    x 1.664500 0.000000 0.000000 
#    y 0.000000 1.613020 0.000000 
#    z 0.000000 0.000000 1.645160 
# 
# From -- ./inp_files/30317.got.cif
#   From: 2010.03.12/outbox.cif.g09.slc.cpg/sg65_16_cif.got.tgz:30317.got - 2010.04.10 20:52:16.
