data_PCOD8267613
_publ_section_title
;
Structure prediction by ZEFSAII (Michael W. Deem and Ramdas Pophale) SiO2 
 PCOD8267613
Probable space group: C M M M
;
_chemical_formula_sum "Si O2"
_cell_formula_units_Z 104
_cell_length_a 18.877967
_cell_length_b 8.770640
_cell_length_c 33.933218
_cell_angle_alpha 90.000000
_cell_angle_beta 90.000000
_cell_angle_gamma 90.000000
_cell_volume 5618.385765
_symmetry_space_group_name_H-M "C M M M"
_symmetry_group_IT_number 65
_symmetry_cell_setting 'orthorhombic'
loop_
_space_group_symop_operation_xyz
x,y,z
-x,-y,z
x,-y,-z
-x,y,-z
-x,-y,-z
x,y,-z
-x,y,z
x,-y,z
1/2+x,1/2+y,z
1/2-x,1/2-y,z
1/2+x,1/2-y,-z
1/2-x,1/2+y,-z
1/2-x,1/2-y,-z
1/2+x,1/2+y,-z
1/2-x,1/2+y,z
1/2+x,1/2-y,z
loop_
_atom_site_type_symbol
_atom_site_label
_atom_site_fract_x
_atom_site_fract_y
_atom_site_fract_z
Si Si1 0.918357 0.675892 0.805670
Si Si2 0.327154 0.678439 0.957326
Si Si3 0.172462 0.680206 0.879851
Si Si4 0.416024 0.166706 0.500000
Si Si5 0.172846 0.680086 0.343452
Si Si6 0.082142 0.177200 0.275730
Si Si7 0.420381 0.182600 0.415431
O O1 0.902454 0.500000 0.795656
O O2 0.873805 0.733984 0.842871
O O3 0.895719 0.777061 0.768395
O O4 0.000000 0.700986 0.816405
O O5 0.320642 0.500000 0.948956
O O6 0.250000 0.750000 0.959459
O O7 0.365775 0.757451 0.919975
O O8 0.365255 0.707938 0.000000
O O9 0.177385 0.500000 0.882326
O O10 0.250000 0.750000 0.874870
O O11 0.500000 0.147725 0.500000
O O12 0.395049 0.248899 0.458526
O O13 0.380064 0.000000 0.500000
O O14 0.179419 0.500000 0.345249
O O15 0.250000 0.750000 0.341487
O O16 0.128797 0.724663 0.305199
O O17 0.132594 0.744528 0.382113
O O18 0.000000 0.217104 0.283147
O O19 0.098023 0.000000 0.282201
O O20 0.500000 0.239872 0.405451
O O21 0.420176 0.000000 0.417252
#
# Coordination Sequence:
#
# PCOD8267613 Si02
#       7
#    16  16  16   8  16  16  16
#     4   9  19  36  55  74  98 130 166 201 241 292
#     4   9  16  26  42  65  94 127 162 200 240 283
#     4  10  19  30  48  73  99 127 159 199 244 289
#     4   7  10  20  41  70  99 123 158 209 252 289
#     4  11  22  35  51  73 104 138 171 208 252 300
#     4  10  21  37  57  79 100 126 164 207 251 301
#     4   8  14  26  47  73  98 128 167 209 252 297
#
# _framework density 18.510656000000001
#
# number of rings (size 3 to 8) (size 9 to 14) (size 15 to 20)
#    0.000    2.692    0.000    4.154    0.000    4.308 
#    0.000    1.923    0.000    0.462    0.000    4.846 
#    0.000    8.615    0.000    0.000    0.000    0.000 
#
# Total GULP energy -644400.165393 kJ/mol
# GULP energy per Si atom -12392.310873 kJ/mol
# Density = 1.846852 g / cm^3
# Si number density = 18.510656 Si / 1000 Ang^3
#
#
#
# Elastic Constant Matrix: (Units=GPa)
#
#
# Indices 1 2 3 4 5 6 
#
# 1 69.1278 27.2265 71.1214 0.0000 0.0000 0.0000
# 2 27.2265 59.0644 42.6227 0.0000 0.0000 0.0000
# 3 71.1214 42.6227 174.8552 0.0000 0.0000 0.0000
# 4 0.0000 0.0000 0.0000 13.6836 0.0000 0.0000
# 5 0.0000 0.0000 0.0000 0.0000 26.1025 0.0000
# 6 0.0000 0.0000 0.0000 0.0000 0.0000 15.1981
#
#
#
# Elastic Compliance Matrix: (Units=1/GPa)
#
#
# Indices 1 2 3 4 5 6 
#
# 1 0.026185 -0.005320 -0.009354 0.000000 0.000000 0.000000
# 2 -0.005320 0.021626 -0.003107 0.000000 0.000000 0.000000
# 3 -0.009354 -0.003107 0.010281 0.000000 0.000000 0.000000
# 4 0.000000 0.000000 0.000000 0.073080 0.000000 0.000000
# 5 0.000000 0.000000 0.000000 0.000000 0.038311 0.000000
# 6 0.000000 0.000000 0.000000 0.000000 0.000000 0.065797
#
#
# Mechanical properties :
#
#
# Convention : Reuss Voigt Hill
#
# Bulk Modulus (GPa) = 44.38807 64.99873 54.69340
# Shear Modulus (GPa) = 17.96286 21.80195 19.88241
#
# Velocity S-wave (km/s) = 3.11851 3.43564 3.28091
# Velocity P-wave (km/s) = 6.08265 7.13643 6.63051
#
# Compressibility (1/GPa) = 0.02252858
#
# Stress axis : x y z
#
# Youngs Moduli (GPa) = 38.19010 46.24150 97.26659
#
# Poissons Ratio (x) = 0.24602 0.90980
# Poissons Ratio (y) = 0.20319 0.30225
# Poissons Ratio (z) = 0.35722 0.14369
#
# Static dielectric constant tensor:
#      x y z
#    x 3.149250 0.000000 0.000000 
#    y 0.000000 3.227700 0.000000 
#    z 0.000000 0.000000 4.127080 
# 
# 
# High freq. dielectric constant tensor:
#      x y z
#    x 1.679000 0.000000 0.000000 
#    y 0.000000 1.701400 0.000000 
#    z 0.000000 0.000000 1.745990 
# 
# From -- ./inp_files/78173.got.cif
#   From: 2010.03.12/outbox.cif.g09.slc.cpg/sg65_40_cif.got.tgz:78173.got - 2010.04.10 20:52:16.
