data_PCOD8267255
_publ_section_title
;
Structure prediction by ZEFSAII (Michael W. Deem and Ramdas Pophale) SiO2 
 PCOD8267255
Probable space group: C M M M
;
_chemical_formula_sum "Si O2"
_cell_formula_units_Z 80
_cell_length_a 30.054543
_cell_length_b 11.179489
_cell_length_c 14.218577
_cell_angle_alpha 90.000000
_cell_angle_beta 90.000000
_cell_angle_gamma 90.000000
_cell_volume 4777.362715
_symmetry_space_group_name_H-M "C M M M"
_symmetry_group_IT_number 65
_symmetry_cell_setting 'orthorhombic'
loop_
_space_group_symop_operation_xyz
x,y,z
-x,-y,z
x,-y,-z
-x,y,-z
-x,-y,-z
x,y,-z
-x,y,z
x,-y,z
1/2+x,1/2+y,z
1/2-x,1/2-y,z
1/2+x,1/2-y,-z
1/2-x,1/2+y,-z
1/2-x,1/2-y,-z
1/2+x,1/2+y,-z
1/2-x,1/2+y,z
1/2+x,1/2-y,z
loop_
_atom_site_type_symbol
_atom_site_label
_atom_site_fract_x
_atom_site_fract_y
_atom_site_fract_z
Si Si1 0.000000 0.360347 0.104816
Si Si2 0.369861 0.861056 0.726995
Si Si3 0.549460 0.500000 0.109565
Si Si4 0.782092 0.637515 0.608721
Si Si5 0.049071 0.358284 0.605406
Si Si6 0.089083 0.753202 0.889349
O O1 0.045691 0.316864 0.150960
O O2 0.000000 0.500000 0.104561
O O3 0.000000 0.303884 0.000000
O O4 0.324623 0.836686 0.672335
O O5 0.411098 0.805264 0.668057
O O6 0.369125 0.794415 0.828539
O O7 0.376765 0.000000 0.746589
O O8 0.500000 0.500000 0.157834
O O9 0.580102 0.610621 0.137553
O O10 0.540207 0.500000 0.000000
O O11 0.796385 0.644058 0.500000
O O12 0.763586 0.500000 0.628826
O O13 0.750000 0.750000 0.632396
O O14 0.053622 0.306126 0.500000
O O15 0.054157 0.500000 0.601277
O O16 0.000000 0.324608 0.646705
O O17 0.098665 0.731135 0.000000
#
# Coordination Sequence:
#
# PCOD8267255 Si02
#       6
#     8  16   8  16  16  16
#     4   9  16  25  39  61  90 123 159 200 241 276
#     4  10  19  29  46  73 101 127 158 199 247 295
#     4   9  16  30  46  58  83 131 183 219 242 270
#     4   9  18  35  58  81 104 128 158 202 254 304
#     4   8  14  24  38  60  93 129 159 186 223 278
#     4  10  19  30  44  64  93 130 170 207 243 284
#
# _framework density 16.745640999999999
#
# number of rings (size 3 to 8) (size 9 to 14) (size 15 to 20)
#    0.000    2.800    1.000    1.800    1.400    3.600 
#    1.800    0.000    0.000    0.600    0.000    0.000 
#    0.000    3.200    0.000    0.000    0.000    0.000 
#
# Total GULP energy -495522.291620 kJ/mol
# GULP energy per Si atom -12388.057290 kJ/mol
# Density = 1.670753 g / cm^3
# Si number density = 16.745641 Si / 1000 Ang^3
#
#
#
# Elastic Constant Matrix: (Units=GPa)
#
#
# Indices 1 2 3 4 5 6 
#
# 1 86.9140 54.3056 54.4872 0.0000 0.0000 0.0000
# 2 54.3056 84.4829 43.1306 0.0000 0.0000 0.0000
# 3 54.4872 43.1306 74.0113 0.0000 0.0000 0.0000
# 4 0.0000 0.0000 0.0000 15.5712 0.0000 0.0000
# 5 0.0000 0.0000 0.0000 0.0000 27.0602 0.0000
# 6 0.0000 0.0000 0.0000 0.0000 0.0000 28.1172
#
#
#
# Elastic Compliance Matrix: (Units=1/GPa)
#
#
# Indices 1 2 3 4 5 6 
#
# 1 0.026157 -0.009940 -0.013464 0.000000 0.000000 0.000000
# 2 -0.009940 0.020627 -0.004703 0.000000 0.000000 0.000000
# 3 -0.013464 -0.004703 0.026165 0.000000 0.000000 0.000000
# 4 0.000000 0.000000 0.000000 0.064221 0.000000 0.000000
# 5 0.000000 0.000000 0.000000 0.000000 0.036955 0.000000
# 6 0.000000 0.000000 0.000000 0.000000 0.000000 0.035565
#
#
# Mechanical properties :
#
#
# Convention : Reuss Voigt Hill
#
# Bulk Modulus (GPa) = 59.75655 61.02834 60.39244
# Shear Modulus (GPa) = 18.41739 20.38203 19.39971
#
# Velocity S-wave (km/s) = 3.31997 3.49256 3.40736
# Velocity P-wave (km/s) = 7.10342 7.26549 7.18491
#
# Compressibility (1/GPa) = 0.01673457
#
# Stress axis : x y z
#
# Youngs Moduli (GPa) = 38.23017 48.48026 38.21970
#
# Poissons Ratio (x) = 0.48189 0.51461
# Poissons Ratio (y) = 0.38001 0.17973
# Poissons Ratio (z) = 0.51475 0.22799
#
# Static dielectric constant tensor:
#      x y z
#    x 2.953930 0.000000 0.000000 
#    y 0.000000 4.100710 0.000000 
#    z 0.000000 0.000000 3.203500 
# 
# 
# High freq. dielectric constant tensor:
#      x y z
#    x 1.615660 0.000000 0.000000 
#    y 0.000000 1.626940 0.000000 
#    z 0.000000 0.000000 1.639600 
# 
# From -- ./inp_files/45360.got.cif
#   From: 2010.03.12/outbox.cif.g09.slc.cpg/sg65_23_cif.got.tgz:45360.got - 2010.04.10 20:52:16.
