data_PCOD8267955
_publ_section_title
;
Structure prediction by ZEFSAII (Michael W. Deem and Ramdas Pophale) SiO2 
 PCOD8267955
Probable space group: C M M M
;
_chemical_formula_sum "Si O2"
_cell_formula_units_Z 104
_cell_length_a 28.945746
_cell_length_b 8.986951
_cell_length_c 24.284992
_cell_angle_alpha 90.000000
_cell_angle_beta 90.000000
_cell_angle_gamma 90.000000
_cell_volume 6317.352132
_symmetry_space_group_name_H-M "C M M M"
_symmetry_group_IT_number 65
_symmetry_cell_setting 'orthorhombic'
loop_
_space_group_symop_operation_xyz
x,y,z
-x,-y,z
x,-y,-z
-x,y,-z
-x,-y,-z
x,y,-z
-x,y,z
x,-y,z
1/2+x,1/2+y,z
1/2-x,1/2-y,z
1/2+x,1/2-y,-z
1/2-x,1/2+y,-z
1/2-x,1/2-y,-z
1/2+x,1/2+y,-z
1/2-x,1/2+y,z
1/2+x,1/2-y,z
loop_
_atom_site_type_symbol
_atom_site_label
_atom_site_fract_x
_atom_site_fract_y
_atom_site_fract_z
Si Si1 0.702707 0.823294 0.380582
Si Si2 0.554651 0.166585 0.892401
Si Si3 0.614558 0.828334 0.688700
Si Si4 0.444819 0.667922 0.000000
Si Si5 0.078683 0.163247 0.500000
Si Si6 0.329391 0.174133 0.500000
Si Si7 0.553254 0.675987 0.219659
Si Si8 0.550477 0.664692 0.382849
O O1 0.750000 0.750000 0.360142
O O2 0.665127 0.778790 0.333406
O O3 0.691839 0.760904 0.442611
O O4 0.706932 0.000000 0.382772
O O5 0.500000 0.159709 0.897531
O O6 0.574915 0.249070 0.946067
O O7 0.569195 0.256467 0.838311
O O8 0.575285 0.000000 0.889327
O O9 0.591922 0.730129 0.737046
O O10 0.582166 0.800067 0.636306
O O11 0.613818 0.000000 0.706527
O O12 0.425875 0.500000 0.000000
O O13 0.500000 0.668193 0.000000
O O14 0.116884 0.290233 0.500000
O O15 0.045481 0.179234 0.448028
O O16 0.103203 0.000000 0.500000
O O17 0.322077 0.000000 0.500000
O O18 0.500000 0.725215 0.234043
O O19 0.555797 0.500000 0.215446
O O20 0.500000 0.681726 0.355950
O O21 0.570099 0.500000 0.366165
#
# Coordination Sequence:
#
# PCOD8267955 Si02
#       8
#    16  16  16   8   8   8  16  16
#     4  10  22  37  55  74  93 115 143 183 232 287
#     4   9  16  26  41  62  89 123 164 206 243 277
#     4  11  22  35  50  69  92 118 150 189 231 277
#     4   9  15  23  37  59  89 125 164 205 244 279
#     4  10  19  31  49  69  89 117 148 180 220 267
#     4  10  19  36  54  72  96 115 138 180 230 283
#     4  10  20  33  48  67  93 127 165 201 235 274
#     4  10  20  33  48  67  91 119 151 185 221 265
#
# _framework density 16.462592999999998
#
# number of rings (size 3 to 8) (size 9 to 14) (size 15 to 20)
#    0.000    2.077    1.538    2.538    0.000    8.615 
#    0.000    0.000    0.000    1.385    0.000    0.000 
#    0.000    0.000    0.000    0.692    0.000    9.462 
#
# Total GULP energy -644322.439150 kJ/mol
# GULP energy per Si atom -12390.816137 kJ/mol
# Density = 1.642512 g / cm^3
# Si number density = 16.462593 Si / 1000 Ang^3
#
#
#
# Elastic Constant Matrix: (Units=GPa)
#
#
# Indices 1 2 3 4 5 6 
#
# 1 79.5966 30.9737 38.2782 0.0000 0.0000 0.0000
# 2 30.9737 67.4679 48.2558 0.0000 0.0000 0.0000
# 3 38.2782 48.2558 121.2279 0.0000 0.0000 0.0000
# 4 0.0000 0.0000 0.0000 29.6586 0.0000 0.0000
# 5 0.0000 0.0000 0.0000 0.0000 2.8664 0.0000
# 6 0.0000 0.0000 0.0000 0.0000 0.0000 19.6941
#
#
#
# Elastic Compliance Matrix: (Units=1/GPa)
#
#
# Indices 1 2 3 4 5 6 
#
# 1 0.016031 -0.005228 -0.002981 0.000000 0.000000 0.000000
# 2 -0.005228 0.022426 -0.007276 0.000000 0.000000 0.000000
# 3 -0.002981 -0.007276 0.012087 0.000000 0.000000 0.000000
# 4 0.000000 0.000000 0.000000 0.033717 0.000000 0.000000
# 5 0.000000 0.000000 0.000000 0.000000 0.348866 0.000000
# 6 0.000000 0.000000 0.000000 0.000000 0.000000 0.050777
#
#
# Mechanical properties :
#
#
# Convention : Reuss Voigt Hill
#
# Bulk Modulus (GPa) = 51.08794 55.92307 53.50550
# Shear Modulus (GPa) = 9.58961 20.49613 15.04287
#
# Velocity S-wave (km/s) = 2.41614 3.53230 3.02613
# Velocity P-wave (km/s) = 6.23568 7.11897 6.69192
#
# Compressibility (1/GPa) = 0.01957409
#
# Stress axis : x y z
#
# Youngs Moduli (GPa) = 62.37849 44.59093 82.73642
#
# Poissons Ratio (x) = 0.23310 0.24664
# Poissons Ratio (y) = 0.32609 0.60201
# Poissons Ratio (z) = 0.18595 0.32446
#
# Static dielectric constant tensor:
#      x y z
#    x 2.786130 0.000000 0.000000 
#    y 0.000000 3.175890 0.000000 
#    z 0.000000 0.000000 3.224330 
# 
# 
# High freq. dielectric constant tensor:
#      x y z
#    x 1.583190 0.000000 0.000000 
#    y 0.000000 1.640350 0.000000 
#    z 0.000000 0.000000 1.631520 
# 
# From -- ./inp_files/71922.got.cif
#   From: 2010.03.12/outbox.cif.g09.slc.cpg/sg65_36_cif.got.tgz:71922.got - 2010.04.10 20:52:16.
