data_PCOD8267059
_publ_section_title
;
Structure prediction by ZEFSAII (Michael W. Deem and Ramdas Pophale) SiO2 
 PCOD8267059
Probable space group: C M M M
;
_chemical_formula_sum "Si O2"
_cell_formula_units_Z 104
_cell_length_a 9.497271
_cell_length_b 25.605719
_cell_length_c 26.171438
_cell_angle_alpha 90.000000
_cell_angle_beta 90.000000
_cell_angle_gamma 90.000000
_cell_volume 6364.486821
_symmetry_space_group_name_H-M "C M M M"
_symmetry_group_IT_number 65
_symmetry_cell_setting 'orthorhombic'
loop_
_space_group_symop_operation_xyz
x,y,z
-x,-y,z
x,-y,-z
-x,y,-z
-x,-y,-z
x,y,-z
-x,y,z
x,-y,z
1/2+x,1/2+y,z
1/2-x,1/2-y,z
1/2+x,1/2-y,-z
1/2-x,1/2+y,-z
1/2-x,1/2-y,-z
1/2+x,1/2+y,-z
1/2-x,1/2+y,z
1/2+x,1/2-y,z
loop_
_atom_site_type_symbol
_atom_site_label
_atom_site_fract_x
_atom_site_fract_y
_atom_site_fract_z
Si Si1 0.338450 0.440177 0.440271
Si Si2 0.160301 0.301473 0.722658
Si Si3 0.848235 0.941271 0.279241
Si Si4 0.339974 0.894019 0.202293
Si Si5 0.840040 0.560208 0.095101
Si Si6 0.658430 0.438045 0.000000
Si Si7 0.334439 0.113423 0.358706
O O1 0.323552 0.429328 0.500000
O O2 0.500000 0.432568 0.422551
O O3 0.291217 0.500000 0.427915
O O4 0.241537 0.396011 0.413116
O O5 0.250000 0.250000 0.727118
O O6 0.191919 0.337374 0.772521
O O7 0.194725 0.330822 0.668832
O O8 0.000000 0.283598 0.722766
O O9 0.774326 0.933424 0.224806
O O10 0.734935 0.928946 0.322276
O O11 0.000000 0.910561 0.283194
O O12 0.889518 0.000000 0.285873
O O13 0.500000 0.910257 0.217252
O O14 0.320018 0.898641 0.141482
O O15 0.804643 0.500000 0.111150
O O16 0.000000 0.562534 0.075018
O O17 0.738740 0.581353 0.050570
O O18 0.658062 0.500000 0.000000
O O19 0.500000 0.415398 0.000000
O O20 0.500000 0.103359 0.364879
#
# Coordination Sequence:
#
# PCOD8267059 Si02
#       7
#    16  16  16  16  16   8  16
#     4   9  18  32  49  71 100 130 157 185 219 263
#     4   9  19  34  50  69  91 115 147 189 236 282
#     4  10  19  28  40  62  92 123 152 181 218 268
#     4   9  18  31  46  66  90 116 150 190 230 273
#     4   9  16  27  44  64  89 123 157 185 218 264
#     4   9  17  27  39  59  90 125 158 191 220 251
#     4  10  20  32  47  68  92 119 154 192 226 266
#
# _framework density 16.340672999999999
#
# number of rings (size 3 to 8) (size 9 to 14) (size 15 to 20)
#    0.000    2.692    0.000    3.462    0.000    8.923 
#    0.000    2.308    0.000    0.462    0.000    0.538 
#    0.000    0.000    0.000    0.000    0.000    0.000 
#
# Total GULP energy -644208.106527 kJ/mol
# GULP energy per Si atom -12388.617433 kJ/mol
# Density = 1.630348 g / cm^3
# Si number density = 16.340673 Si / 1000 Ang^3
#
#
#
# Elastic Constant Matrix: (Units=GPa)
#
#
# Indices 1 2 3 4 5 6 
#
# 1 100.2111 42.2802 56.3422 0.0000 0.0000 0.0000
# 2 42.2802 67.5357 37.0652 0.0000 0.0000 0.0000
# 3 56.3422 37.0652 97.4213 0.0000 0.0000 0.0000
# 4 0.0000 0.0000 0.0000 16.1819 0.0000 0.0000
# 5 0.0000 0.0000 0.0000 0.0000 51.3507 0.0000
# 6 0.0000 0.0000 0.0000 0.0000 0.0000 24.5696
#
#
#
# Elastic Compliance Matrix: (Units=1/GPa)
#
#
# Indices 1 2 3 4 5 6 
#
# 1 0.016808 -0.006557 -0.007226 0.000000 0.000000 0.000000
# 2 -0.006557 0.021272 -0.004301 0.000000 0.000000 0.000000
# 3 -0.007226 -0.004301 0.016080 0.000000 0.000000 0.000000
# 4 0.000000 0.000000 0.000000 0.061797 0.000000 0.000000
# 5 0.000000 0.000000 0.000000 0.000000 0.019474 0.000000
# 6 0.000000 0.000000 0.000000 0.000000 0.000000 0.040701
#
#
# Mechanical properties :
#
#
# Convention : Reuss Voigt Hill
#
# Bulk Modulus (GPa) = 55.57898 59.61594 57.59746
# Shear Modulus (GPa) = 22.90439 27.05247 24.97843
#
# Velocity S-wave (km/s) = 3.74796 4.07323 3.91398
# Velocity P-wave (km/s) = 7.26747 7.66055 7.46660
#
# Compressibility (1/GPa) = 0.01799241
#
# Stress axis : x y z
#
# Youngs Moduli (GPa) = 59.49532 47.00911 62.18767
#
# Poissons Ratio (x) = 0.30822 0.44938
# Poissons Ratio (y) = 0.39009 0.26750
# Poissons Ratio (z) = 0.42992 0.20221
#
# Static dielectric constant tensor:
#      x y z
#    x 5.363320 0.000000 0.000000 
#    y 0.000000 2.758940 0.000000 
#    z 0.000000 0.000000 3.196620 
# 
# 
# High freq. dielectric constant tensor:
#      x y z
#    x 1.645460 0.000000 0.000000 
#    y 0.000000 1.580300 0.000000 
#    z 0.000000 0.000000 1.626370 
# 
# From -- ./inp_files/73785.got.cif
#   From: 2010.03.12/outbox.cif.g09.slc.cpg/sg65_37_cif.got.tgz:73785.got - 2010.04.10 20:52:16.
