data_PCOD8267350
_publ_section_title
;
Structure prediction by ZEFSAII (Michael W. Deem and Ramdas Pophale) SiO2 
 PCOD8267350
Probable space group: C M M M
;
_chemical_formula_sum "Si O2"
_cell_formula_units_Z 96
_cell_length_a 32.167333
_cell_length_b 19.016352
_cell_length_c 9.231938
_cell_angle_alpha 90.000000
_cell_angle_beta 90.000000
_cell_angle_gamma 90.000000
_cell_volume 5647.225655
_symmetry_space_group_name_H-M "C M M M"
_symmetry_group_IT_number 65
_symmetry_cell_setting 'orthorhombic'
loop_
_space_group_symop_operation_xyz
x,y,z
-x,-y,z
x,-y,-z
-x,y,-z
-x,-y,-z
x,y,-z
-x,y,z
x,-y,z
1/2+x,1/2+y,z
1/2-x,1/2-y,z
1/2+x,1/2-y,-z
1/2-x,1/2+y,-z
1/2-x,1/2-y,-z
1/2+x,1/2+y,-z
1/2-x,1/2+y,z
1/2+x,1/2-y,z
loop_
_atom_site_type_symbol
_atom_site_label
_atom_site_fract_x
_atom_site_fract_y
_atom_site_fract_z
Si Si1 0.334641 0.423504 0.671470
Si Si2 0.740474 0.081196 0.332936
Si Si3 0.046333 0.700686 0.331991
Si Si4 0.587165 0.079374 0.831201
Si Si5 0.670094 0.159984 0.169589
Si Si6 0.873315 0.218230 0.328981
O O1 0.335144 0.428832 0.500000
O O2 0.348583 0.500000 0.735161
O O3 0.287657 0.406197 0.719625
O O4 0.365758 0.361980 0.723941
O O5 0.734404 0.103381 0.500000
O O6 0.712641 0.130002 0.232049
O O7 0.728025 0.000000 0.311442
O O8 0.051360 0.683257 0.500000
O O9 0.053914 0.628005 0.249021
O O10 0.079592 0.760307 0.285233
O O11 0.000000 0.728583 0.295722
O O12 0.633825 0.104184 0.796892
O O13 0.582202 0.000000 0.774001
O O14 0.577394 0.084450 0.000000
O O15 0.659765 0.233131 0.247556
O O16 0.675267 0.174115 0.000000
O O17 0.865661 0.226102 0.500000
#
# Coordination Sequence:
#
# PCOD8267350 Si02
#       6
#    16  16  16  16  16  16
#     4   8  15  29  49  70  88 111 148 188 221 259
#     4   9  17  29  45  65  89 118 154 191 221 253
#     4   9  18  31  46  66  90 114 142 178 221 266
#     4   9  18  31  45  62  86 118 154 186 214 249
#     4  10  19  30  44  64  93 124 153 185 220 258
#     4   9  17  31  50  67  86 116 150 182 220 266
#
# _framework density 16.999497999999999
#
# number of rings (size 3 to 8) (size 9 to 14) (size 15 to 20)
#    0.000    3.000    0.000    2.000    0.000    3.333 
#    0.000    5.833    0.000    2.000    0.000    3.500 
#    0.000    0.000    0.000    8.333    0.000    8.667 
#
# Total GULP energy -595054.205157 kJ/mol
# GULP energy per Si atom -12396.962607 kJ/mol
# Density = 1.696081 g / cm^3
# Si number density = 16.999498 Si / 1000 Ang^3
#
#
#
# Elastic Constant Matrix: (Units=GPa)
#
#
# Indices 1 2 3 4 5 6 
#
# 1 93.4639 78.8325 27.2486 0.0000 0.0000 0.0000
# 2 78.8325 142.2555 38.3111 0.0000 0.0000 0.0000
# 3 27.2486 38.3111 38.2958 0.0000 0.0000 0.0000
# 4 0.0000 0.0000 0.0000 12.5209 0.0000 0.0000
# 5 0.0000 0.0000 0.0000 0.0000 15.7182 0.0000
# 6 0.0000 0.0000 0.0000 0.0000 0.0000 17.1983
#
#
#
# Elastic Compliance Matrix: (Units=1/GPa)
#
#
# Indices 1 2 3 4 5 6 
#
# 1 0.020626 -0.010235 -0.004437 0.000000 0.000000 0.000000
# 2 -0.010235 0.014701 -0.007424 0.000000 0.000000 0.000000
# 3 -0.004437 -0.007424 0.036696 0.000000 0.000000 0.000000
# 4 0.000000 0.000000 0.000000 0.079866 0.000000 0.000000
# 5 0.000000 0.000000 0.000000 0.000000 0.063620 0.000000
# 6 0.000000 0.000000 0.000000 0.000000 0.000000 0.058145
#
#
# Mechanical properties :
#
#
# Convention : Reuss Voigt Hill
#
# Bulk Modulus (GPa) = 35.93079 62.53327 49.23203
# Shear Modulus (GPa) = 15.28472 17.72901 16.50687
#
# Velocity S-wave (km/s) = 3.00180 3.23292 3.11950
# Velocity P-wave (km/s) = 5.76165 7.12748 6.48065
#
# Compressibility (1/GPa) = 0.02783129
#
# Stress axis : x y z
#
# Youngs Moduli (GPa) = 48.48341 68.02277 27.25056
#
# Poissons Ratio (x) = 0.69622 0.12090
# Poissons Ratio (y) = 0.49623 0.20232
# Poissons Ratio (z) = 0.21510 0.50502
#
# Static dielectric constant tensor:
#      x y z
#    x 3.185450 0.000000 0.000000 
#    y 0.000000 3.486180 0.000000 
#    z 0.000000 0.000000 2.994500 
# 
# 
# High freq. dielectric constant tensor:
#      x y z
#    x 1.645280 0.000000 0.000000 
#    y 0.000000 1.650580 0.000000 
#    z 0.000000 0.000000 1.636650 
# 
# From -- ./inp_files/12277.got.cif
#   From: 2010.03.12/outbox.cif.g09.slc.cpg/sg65_7_cif.got.tgz:12277.got - 2010.04.10 20:52:16.
