data_PCOD8267586
_publ_section_title
;
Structure prediction by ZEFSAII (Michael W. Deem and Ramdas Pophale) SiO2 
 PCOD8267586
Probable space group: C M M M
;
_chemical_formula_sum "Si O2"
_cell_formula_units_Z 128
_cell_length_a 17.993202
_cell_length_b 21.304988
_cell_length_c 17.814200
_cell_angle_alpha 90.000000
_cell_angle_beta 90.000000
_cell_angle_gamma 90.000000
_cell_volume 6828.983656
_symmetry_space_group_name_H-M "C M M M"
_symmetry_group_IT_number 65
_symmetry_cell_setting 'orthorhombic'
loop_
_space_group_symop_operation_xyz
x,y,z
-x,-y,z
x,-y,-z
-x,y,-z
-x,-y,-z
x,y,-z
-x,y,z
x,-y,z
1/2+x,1/2+y,z
1/2-x,1/2-y,z
1/2+x,1/2-y,-z
1/2-x,1/2+y,-z
1/2-x,1/2-y,-z
1/2+x,1/2+y,-z
1/2-x,1/2+y,z
1/2+x,1/2-y,z
loop_
_atom_site_type_symbol
_atom_site_label
_atom_site_fract_x
_atom_site_fract_y
_atom_site_fract_z
Si Si1 0.418565 0.427243 0.273478
Si Si2 0.631772 0.068106 0.269333
Si Si3 0.788299 0.316176 0.087479
Si Si4 0.350863 0.626426 0.415066
Si Si5 0.917209 0.689693 0.201482
Si Si6 0.779004 0.073612 0.178628
Si Si7 0.165760 0.744490 0.337246
Si Si8 0.821957 0.616227 0.583339
O O1 0.500000 0.396831 0.256404
O O2 0.423496 0.500000 0.257791
O O3 0.398023 0.418081 0.360737
O O4 0.355222 0.401259 0.217029
O O5 0.576891 0.120169 0.237207
O O6 0.715359 0.080982 0.240838
O O7 0.636318 0.069746 0.359710
O O8 0.602234 0.000000 0.243851
O O9 0.750000 0.250000 0.106275
O O10 0.868230 0.314287 0.126928
O O11 0.739235 0.376907 0.112392
O O12 0.803006 0.324197 0.000000
O O13 0.382199 0.622470 0.500000
O O14 0.361293 0.696441 0.384191
O O15 0.265884 0.604725 0.413844
O O16 0.883950 0.737359 0.262863
O O17 0.000000 0.711799 0.179706
O O18 0.783649 0.000000 0.151023
O O19 0.250000 0.750000 0.307944
O O20 0.158240 0.686988 0.394043
O O21 0.852513 0.603176 0.500000
#
# Coordination Sequence:
#
# PCOD8267586 Si02
#       8
#    16  16  16  16  16  16  16  16
#     4  10  21  35  50  72 105 144 184 228 276 322
#     4   9  17  31  51  74 101 134 178 226 264 310
#     4  10  22  39  61  89 118 143 169 213 274 326
#     4  10  19  30  47  73 104 139 182 231 281 327
#     4  10  21  35  55  81 108 142 176 210 261 324
#     4   9  18  36  59  80 105 143 190 225 255 314
#     4   9  18  32  51  73 102 140 185 228 267 313
#     4   9  16  27  46  72 100 133 177 232 281 317
#
# _framework density 18.743638000000001
#
# number of rings (size 3 to 8) (size 9 to 14) (size 15 to 20)
#    0.000    2.500    1.250    0.750    3.500    3.500 
#    0.000    1.875    0.000   10.125    0.000    8.750 
#    0.000    0.000    0.000    0.000    0.000    0.000 
#
# Total GULP energy -793291.077269 kJ/mol
# GULP energy per Si atom -12395.173082 kJ/mol
# Density = 1.870098 g / cm^3
# Si number density = 18.743638 Si / 1000 Ang^3
#
#
#
# Elastic Constant Matrix: (Units=GPa)
#
#
# Indices 1 2 3 4 5 6 
#
# 1 91.4567 15.0973 45.7399 0.0000 0.0000 0.0000
# 2 15.0973 55.6382 27.6722 0.0000 0.0000 0.0000
# 3 45.7399 27.6722 115.6168 0.0000 0.0000 0.0000
# 4 0.0000 0.0000 0.0000 22.7314 0.0000 0.0000
# 5 0.0000 0.0000 0.0000 0.0000 13.5439 0.0000
# 6 0.0000 0.0000 0.0000 0.0000 0.0000 15.5202
#
#
#
# Elastic Compliance Matrix: (Units=1/GPa)
#
#
# Indices 1 2 3 4 5 6 
#
# 1 0.013697 -0.001160 -0.005141 0.000000 0.000000 0.000000
# 2 -0.001160 0.020500 -0.004448 0.000000 0.000000 0.000000
# 3 -0.005141 -0.004448 0.011748 0.000000 0.000000 0.000000
# 4 0.000000 0.000000 0.000000 0.043992 0.000000 0.000000
# 5 0.000000 0.000000 0.000000 0.000000 0.073834 0.000000
# 6 0.000000 0.000000 0.000000 0.000000 0.000000 0.064432
#
#
# Mechanical properties :
#
#
# Convention : Reuss Voigt Hill
#
# Bulk Modulus (GPa) = 40.90399 48.85896 44.88147
# Shear Modulus (GPa) = 19.39119 21.97258 20.68188
#
# Velocity S-wave (km/s) = 3.21993 3.42756 3.32536
# Velocity P-wave (km/s) = 5.97446 6.46434 6.22422
#
# Compressibility (1/GPa) = 0.02444749
#
# Stress axis : x y z
#
# Youngs Moduli (GPa) = 73.00995 48.78028 85.12279
#
# Poissons Ratio (x) = 0.05657 0.43763
# Poissons Ratio (y) = 0.08466 0.37861
# Poissons Ratio (z) = 0.37535 0.21697
#
# Static dielectric constant tensor:
#      x y z
#    x 3.394740 0.000000 0.000000 
#    y 0.000000 3.563760 0.000000 
#    z 0.000000 0.000000 3.315370 
# 
# 
# High freq. dielectric constant tensor:
#      x y z
#    x 1.706280 0.000000 0.000000 
#    y 0.000000 1.732440 0.000000 
#    z 0.000000 0.000000 1.711120 
# 
# From -- ./inp_files/55129.got.cif
#   From: 2010.03.12/outbox.cif.g09.slc.cpg/sg65_28_cif.got.tgz:55129.got - 2010.04.10 20:52:16.
