data_PCOD8267876
_publ_section_title
;
Structure prediction by ZEFSAII (Michael W. Deem and Ramdas Pophale) SiO2 
 PCOD8267876
Probable space group: C M M M
;
_chemical_formula_sum "Si O2"
_cell_formula_units_Z 104
_cell_length_a 9.532879
_cell_length_b 27.039732
_cell_length_c 23.536300
_cell_angle_alpha 90.000000
_cell_angle_beta 90.000000
_cell_angle_gamma 90.000000
_cell_volume 6066.869517
_symmetry_space_group_name_H-M "C M M M"
_symmetry_group_IT_number 65
_symmetry_cell_setting 'orthorhombic'
loop_
_space_group_symop_operation_xyz
x,y,z
-x,-y,z
x,-y,-z
-x,y,-z
-x,-y,-z
x,y,-z
-x,y,z
x,-y,z
1/2+x,1/2+y,z
1/2-x,1/2-y,z
1/2+x,1/2-y,-z
1/2-x,1/2+y,-z
1/2-x,1/2-y,-z
1/2+x,1/2+y,-z
1/2-x,1/2+y,z
1/2+x,1/2-y,z
loop_
_atom_site_type_symbol
_atom_site_label
_atom_site_fract_x
_atom_site_fract_y
_atom_site_fract_z
Si Si1 0.843004 0.295001 0.746676
Si Si2 0.345226 0.000000 0.432829
Si Si3 0.658540 0.638171 0.322053
Si Si4 0.156389 0.624353 0.156301
Si Si5 0.841940 0.089701 0.436184
Si Si6 0.336360 0.798168 0.934300
Si Si7 0.663147 0.556722 0.230409
O O1 0.750000 0.250000 0.769592
O O2 0.765857 0.318161 0.692063
O O3 0.848709 0.334923 0.795335
O O4 0.000000 0.277880 0.729703
O O5 0.262035 0.951988 0.413132
O O6 0.500000 0.000000 0.405108
O O7 0.355257 0.000000 0.500000
O O8 0.500000 0.653738 0.305527
O O9 0.671618 0.632917 0.390112
O O10 0.696542 0.587623 0.287831
O O11 0.212258 0.652674 0.099917
O O12 0.256609 0.579613 0.175717
O O13 0.000000 0.602859 0.145867
O O14 0.802882 0.108452 0.500000
O O15 0.000000 0.068137 0.436221
O O16 0.500000 0.787253 0.922094
O O17 0.250000 0.750000 0.914178
O O18 0.306770 0.809495 0.000000
O O19 0.500000 0.558862 0.215259
O O20 0.712135 0.500000 0.240171
#
# Coordination Sequence:
#
# PCOD8267876 Si02
#       7
#    16   8  16  16  16  16  16
#     4  10  19  31  48  69  94 119 150 187 227 272
#     4   9  17  27  39  59  87 117 147 179 216 259
#     4   9  18  31  48  68  92 119 149 186 230 275
#     4   9  18  31  47  69  95 123 154 188 226 270
#     4   9  17  29  46  66  88 117 151 185 224 275
#     4   9  17  29  46  70  99 127 154 186 226 272
#     4   9  18  31  47  67  91 121 156 192 229 270
#
# _framework density 17.142285000000001
#
# number of rings (size 3 to 8) (size 9 to 14) (size 15 to 20)
#    0.000    2.846    0.000    1.154    1.077    3.077 
#    0.000    0.000    0.000    0.923    0.000    3.231 
#    0.000    0.000    0.000    0.000    0.000    0.000 
#
# Total GULP energy -644516.345384 kJ/mol
# GULP energy per Si atom -12394.545104 kJ/mol
# Density = 1.710327 g / cm^3
# Si number density = 17.142285 Si / 1000 Ang^3
#
#
#
# Elastic Constant Matrix: (Units=GPa)
#
#
# Indices 1 2 3 4 5 6 
#
# 1 77.1014 25.5716 21.1464 0.0000 0.0000 0.0000
# 2 25.5716 49.1767 15.4157 0.0000 0.0000 0.0000
# 3 21.1464 15.4157 70.1704 0.0000 0.0000 0.0000
# 4 0.0000 0.0000 0.0000 16.6572 0.0000 0.0000
# 5 0.0000 0.0000 0.0000 0.0000 20.3777 0.0000
# 6 0.0000 0.0000 0.0000 0.0000 0.0000 35.7006
#
#
#
# Elastic Compliance Matrix: (Units=1/GPa)
#
#
# Indices 1 2 3 4 5 6 
#
# 1 0.016349 -0.007471 -0.003285 0.000000 0.000000 0.000000
# 2 -0.007471 0.025253 -0.003296 0.000000 0.000000 0.000000
# 3 -0.003285 -0.003296 0.015965 0.000000 0.000000 0.000000
# 4 0.000000 0.000000 0.000000 0.060034 0.000000 0.000000
# 5 0.000000 0.000000 0.000000 0.000000 0.049073 0.000000
# 6 0.000000 0.000000 0.000000 0.000000 0.000000 0.028011
#
#
# Mechanical properties :
#
#
# Convention : Reuss Voigt Hill
#
# Bulk Modulus (GPa) = 33.94312 35.63510 34.78911
# Shear Modulus (GPa) = 21.49496 23.50142 22.49819
#
# Velocity S-wave (km/s) = 3.54491 3.70667 3.62669
# Velocity P-wave (km/s) = 6.04971 6.25717 6.15431
#
# Compressibility (1/GPa) = 0.02946105
#
# Stress axis : x y z
#
# Youngs Moduli (GPa) = 61.16571 39.59884 62.63583
#
# Poissons Ratio (x) = 0.29586 0.20579
# Poissons Ratio (y) = 0.45700 0.20647
# Poissons Ratio (z) = 0.20096 0.13053
#
# Static dielectric constant tensor:
#      x y z
#    x 3.533560 0.000000 0.000000 
#    y 0.000000 3.046800 0.000000 
#    z 0.000000 0.000000 3.175330 
# 
# 
# High freq. dielectric constant tensor:
#      x y z
#    x 1.666750 0.000000 0.000000 
#    y 0.000000 1.633940 0.000000 
#    z 0.000000 0.000000 1.649280 
# 
# From -- ./inp_files/68150.got.cif
#   From: 2010.03.12/outbox.cif.g09.slc.cpg/sg65_35_cif.got.tgz:68150.got - 2010.04.10 20:52:16.
