data_PCOD8267499
_publ_section_title
;
Structure prediction by ZEFSAII (Michael W. Deem and Ramdas Pophale) SiO2 
 PCOD8267499
Probable space group: C M M M
;
_chemical_formula_sum "Si O2"
_cell_formula_units_Z 88
_cell_length_a 20.445634
_cell_length_b 25.402508
_cell_length_c 8.893948
_cell_angle_alpha 90.000000
_cell_angle_beta 90.000000
_cell_angle_gamma 90.000000
_cell_volume 4619.253164
_symmetry_space_group_name_H-M "C M M M"
_symmetry_group_IT_number 65
_symmetry_cell_setting 'orthorhombic'
loop_
_space_group_symop_operation_xyz
x,y,z
-x,-y,z
x,-y,-z
-x,y,-z
-x,-y,-z
x,y,-z
-x,y,z
x,-y,z
1/2+x,1/2+y,z
1/2-x,1/2-y,z
1/2+x,1/2-y,-z
1/2-x,1/2+y,-z
1/2-x,1/2-y,-z
1/2+x,1/2+y,-z
1/2-x,1/2+y,z
1/2+x,1/2-y,z
loop_
_atom_site_type_symbol
_atom_site_label
_atom_site_fract_x
_atom_site_fract_y
_atom_site_fract_z
Si Si1 0.251234 0.898631 0.171485
Si Si2 0.626987 0.438426 0.666493
Si Si3 0.500000 0.437042 0.830773
Si Si4 0.298564 0.795792 0.323062
Si Si5 0.073234 0.330518 0.177661
Si Si6 0.888613 0.556699 0.828000
O O1 0.187115 0.928007 0.224993
O O2 0.263571 0.849446 0.278730
O O3 0.310408 0.939612 0.185625
O O4 0.243238 0.879189 0.000000
O O5 0.636838 0.413504 0.500000
O O6 0.616854 0.500000 0.649890
O O7 0.562782 0.413993 0.743864
O O8 0.500000 0.500000 0.833881
O O9 0.500000 0.414727 0.000000
O O10 0.308455 0.792052 0.500000
O O11 0.250000 0.750000 0.264799
O O12 0.371558 0.792790 0.250059
O O13 0.079106 0.390619 0.243640
O O14 0.000000 0.309430 0.213955
O O15 0.087032 0.331788 0.000000
O O16 0.909441 0.500000 0.752828
O O17 0.911110 0.554620 0.000000
#
# Coordination Sequence:
#
# PCOD8267499 Si02
#       6
#    16  16   8  16  16  16
#     4  10  19  31  50  75 101 131 170 216 260 308
#     4  10  19  30  46  70 102 137 170 208 257 310
#     4   9  17  29  45  65  91 129 175 213 247 297
#     4  10  21  37  57  78 100 130 172 220 271 327
#     4   9  18  32  52  80 110 140 175 213 256 309
#     4   8  14  25  43  71 106 139 170 203 239 283
#
# _framework density 19.050698000000001
#
# number of rings (size 3 to 8) (size 9 to 14) (size 15 to 20)
#    0.000    2.636    0.000    3.545    0.000    5.091 
#    0.000    1.818    2.000    4.909    0.000    5.091 
#    0.000    0.000    0.000    0.000    0.000    0.000 
#
# Total GULP energy -545240.407314 kJ/mol
# GULP energy per Si atom -12391.827439 kJ/mol
# Density = 1.900734 g / cm^3
# Si number density = 19.050698 Si / 1000 Ang^3
#
#
#
# Elastic Constant Matrix: (Units=GPa)
#
#
# Indices 1 2 3 4 5 6 
#
# 1 130.0388 22.3441 48.8045 0.0000 0.0000 0.0000
# 2 22.3441 59.4720 18.1717 0.0000 0.0000 0.0000
# 3 48.8045 18.1717 57.6929 0.0000 0.0000 0.0000
# 4 0.0000 0.0000 0.0000 20.9300 0.0000 0.0000
# 5 0.0000 0.0000 0.0000 0.0000 26.0449 0.0000
# 6 0.0000 0.0000 0.0000 0.0000 0.0000 18.4023
#
#
#
# Elastic Compliance Matrix: (Units=1/GPa)
#
#
# Indices 1 2 3 4 5 6 
#
# 1 0.011383 -0.001477 -0.009164 0.000000 0.000000 0.000000
# 2 -0.001477 0.018797 -0.004671 0.000000 0.000000 0.000000
# 3 -0.009164 -0.004671 0.026557 0.000000 0.000000 0.000000
# 4 0.000000 0.000000 0.000000 0.047778 0.000000 0.000000
# 5 0.000000 0.000000 0.000000 0.000000 0.038395 0.000000
# 6 0.000000 0.000000 0.000000 0.000000 0.000000 0.054341
#
#
# Mechanical properties :
#
#
# Convention : Reuss Voigt Hill
#
# Bulk Modulus (GPa) = 38.29614 47.31603 42.80608
# Shear Modulus (GPa) = 21.13448 23.60099 22.36774
#
# Velocity S-wave (km/s) = 3.33435 3.52355 3.43026
# Velocity P-wave (km/s) = 5.91352 6.43776 6.18120
#
# Compressibility (1/GPa) = 0.02611229
#
# Stress axis : x y z
#
# Youngs Moduli (GPa) = 87.84894 53.20071 37.65490
#
# Poissons Ratio (x) = 0.07856 0.34508
# Poissons Ratio (y) = 0.12972 0.17590
# Poissons Ratio (z) = 0.80508 0.24852
#
# Static dielectric constant tensor:
#      x y z
#    x 3.594740 0.000000 0.000000 
#    y 0.000000 3.274560 0.000000 
#    z 0.000000 0.000000 3.409650 
# 
# 
# High freq. dielectric constant tensor:
#      x y z
#    x 1.751110 0.000000 0.000000 
#    y 0.000000 1.702670 0.000000 
#    z 0.000000 0.000000 1.724790 
# 
# From -- ./inp_files/11823.got.cif
#   From: 2010.03.12/outbox.cif.g09.slc.cpg/sg65_6_cif.got.tgz:11823.got - 2010.04.10 20:52:16.
