data_PCOD8267128
_publ_section_title
;
Structure prediction by ZEFSAII (Michael W. Deem and Ramdas Pophale) SiO2 
 PCOD8267128
Probable space group: C M M M
;
_chemical_formula_sum "Si O2"
_cell_formula_units_Z 112
_cell_length_a 25.556105
_cell_length_b 23.210141
_cell_length_c 11.770407
_cell_angle_alpha 90.000000
_cell_angle_beta 90.000000
_cell_angle_gamma 90.000000
_cell_volume 6981.744038
_symmetry_space_group_name_H-M "C M M M"
_symmetry_group_IT_number 65
_symmetry_cell_setting 'orthorhombic'
loop_
_space_group_symop_operation_xyz
x,y,z
-x,-y,z
x,-y,-z
-x,y,-z
-x,-y,-z
x,y,-z
-x,y,z
x,-y,z
1/2+x,1/2+y,z
1/2-x,1/2-y,z
1/2+x,1/2-y,-z
1/2-x,1/2+y,-z
1/2-x,1/2-y,-z
1/2+x,1/2+y,-z
1/2-x,1/2+y,z
1/2+x,1/2-y,z
loop_
_atom_site_type_symbol
_atom_site_label
_atom_site_fract_x
_atom_site_fract_y
_atom_site_fract_z
Si Si1 0.783472 0.431960 0.500000
Si Si2 0.441937 0.348802 0.134613
Si Si3 0.439687 0.888995 0.739683
Si Si4 0.249023 0.431276 0.740662
Si Si5 0.938207 0.277865 0.873540
Si Si6 0.151293 0.565854 0.876244
Si Si7 0.647232 0.566723 0.133116
Si Si8 0.094885 0.569144 0.500000
O O1 0.779621 0.500000 0.500000
O O2 0.754481 0.407293 0.388298
O O3 0.844304 0.414802 0.500000
O O4 0.500000 0.359792 0.186933
O O5 0.419486 0.285496 0.167886
O O6 0.402243 0.397419 0.179789
O O7 0.446062 0.352809 0.000000
O O8 0.500000 0.899940 0.773189
O O9 0.421356 0.824959 0.779438
O O10 0.403256 0.932649 0.808731
O O11 0.432282 0.900138 0.606738
O O12 0.246104 0.500000 0.740638
O O13 0.199066 0.404878 0.807506
O O14 0.302161 0.410250 0.799560
O O15 0.000000 0.274861 0.883820
O O16 0.915566 0.292797 0.000000
O O17 0.166376 0.500000 0.893229
O O18 0.145742 0.595636 0.000000
O O19 0.635888 0.500000 0.158933
O O20 0.657510 0.576996 0.000000
O O21 0.085113 0.500000 0.500000
#
# Coordination Sequence:
#
# PCOD8267128 Si02
#       8
#     8  16  16  16  16  16  16   8
#     4   9  16  29  48  62  79 113 156 192 219 264
#     4   8  14  26  45  69  98 129 153 177 218 268
#     4  11  21  31  45  64  86 116 152 189 230 274
#     4   9  16  28  44  63  87 118 155 189 222 264
#     4   8  15  29  47  65  86 116 157 196 222 256
#     4  10  19  29  42  61  87 117 146 182 231 279
#     4   9  16  25  42  72 104 126 146 179 222 269
#     4  11  21  34  47  65  90 116 150 193 239 282
#
# _framework density 16.041837999999998
#
# number of rings (size 3 to 8) (size 9 to 14) (size 15 to 20)
#    0.000    2.714    1.429    2.357    0.000    4.286 
#    0.000    2.143    0.000    1.714    0.000    6.500 
#    0.000    2.857    0.000    0.000    0.000    0.000 
#
# Total GULP energy -693969.235085 kJ/mol
# GULP energy per Si atom -12392.307769 kJ/mol
# Density = 1.600533 g / cm^3
# Si number density = 16.041838 Si / 1000 Ang^3
#
#
#
# Elastic Constant Matrix: (Units=GPa)
#
#
# Indices 1 2 3 4 5 6 
#
# 1 100.6316 36.9259 47.4121 0.0000 0.0000 0.0000
# 2 36.9259 60.8236 30.6916 0.0000 0.0000 0.0000
# 3 47.4121 30.6916 102.3798 0.0000 0.0000 0.0000
# 4 0.0000 0.0000 0.0000 13.6767 0.0000 0.0000
# 5 0.0000 0.0000 0.0000 0.0000 19.5612 0.0000
# 6 0.0000 0.0000 0.0000 0.0000 0.0000 5.6907
#
#
#
# Elastic Compliance Matrix: (Units=1/GPa)
#
#
# Indices 1 2 3 4 5 6 
#
# 1 0.014560 -0.006406 -0.004822 0.000000 0.000000 0.000000
# 2 -0.006406 0.022190 -0.003685 0.000000 0.000000 0.000000
# 3 -0.004822 -0.003685 0.013106 0.000000 0.000000 0.000000
# 4 0.000000 0.000000 0.000000 0.073117 0.000000 0.000000
# 5 0.000000 0.000000 0.000000 0.000000 0.051122 0.000000
# 6 0.000000 0.000000 0.000000 0.000000 0.000000 0.175724
#
#
# Mechanical properties :
#
#
# Convention : Reuss Voigt Hill
#
# Bulk Modulus (GPa) = 49.93072 54.87712 52.40392
# Shear Modulus (GPa) = 12.94259 17.70609 15.32434
#
# Velocity S-wave (km/s) = 2.84351 3.32587 3.09410
# Velocity P-wave (km/s) = 6.47870 7.00225 6.74556
#
# Compressibility (1/GPa) = 0.02002775
#
# Stress axis : x y z
#
# Youngs Moduli (GPa) = 68.68211 45.06596 76.30327
#
# Poissons Ratio (x) = 0.28869 0.36796
# Poissons Ratio (y) = 0.43997 0.28121
# Poissons Ratio (z) = 0.33120 0.16609
#
# Static dielectric constant tensor:
#      x y z
#    x 3.096610 0.000000 0.000000 
#    y 0.000000 2.982390 0.000000 
#    z 0.000000 0.000000 3.158590 
# 
# 
# High freq. dielectric constant tensor:
#      x y z
#    x 1.610670 0.000000 0.000000 
#    y 0.000000 1.581290 0.000000 
#    z 0.000000 0.000000 1.603320 
# 
# From -- ./inp_files/31282.got.cif
#   From: 2010.03.12/outbox.cif.g09.slc.cpg/sg65_16_cif.got.tgz:31282.got - 2010.04.10 20:52:16.
