data_PCOD8267683
_publ_section_title
;
Structure prediction by ZEFSAII (Michael W. Deem and Ramdas Pophale) SiO2 
 PCOD8267683
Probable space group: C M M M
;
_chemical_formula_sum "Si O2"
_cell_formula_units_Z 80
_cell_length_a 8.035385
_cell_length_b 28.510384
_cell_length_c 22.186863
_cell_angle_alpha 90.000000
_cell_angle_beta 90.000000
_cell_angle_gamma 90.000000
_cell_volume 5082.830865
_symmetry_space_group_name_H-M "C M M M"
_symmetry_group_IT_number 65
_symmetry_cell_setting 'orthorhombic'
loop_
_space_group_symop_operation_xyz
x,y,z
-x,-y,z
x,-y,-z
-x,y,-z
-x,-y,-z
x,y,-z
-x,y,z
x,-y,z
1/2+x,1/2+y,z
1/2-x,1/2-y,z
1/2+x,1/2-y,-z
1/2-x,1/2+y,-z
1/2-x,1/2-y,-z
1/2+x,1/2+y,-z
1/2-x,1/2+y,z
1/2+x,1/2-y,z
loop_
_atom_site_type_symbol
_atom_site_label
_atom_site_fract_x
_atom_site_fract_y
_atom_site_fract_z
Si Si1 0.500000 0.055986 0.431598
Si Si2 0.308129 0.605189 0.117794
Si Si3 0.801830 0.947043 0.000000
Si Si4 0.195706 0.300713 0.931153
Si Si5 0.316127 0.555692 0.641647
Si Si6 0.309391 0.947382 0.231583
O O1 0.500000 0.074124 0.500000
O O2 0.332215 0.076295 0.399963
O O3 0.500000 0.000000 0.428701
O O4 0.500000 0.592392 0.126361
O O5 0.284804 0.660791 0.110336
O O6 0.211337 0.587755 0.176206
O O7 0.232487 0.579181 0.059106
O O8 0.000000 0.945348 0.000000
O O9 0.734096 0.000000 0.000000
O O10 0.250000 0.250000 0.906387
O O11 0.000000 0.307055 0.926394
O O12 0.258400 0.306585 0.000000
O O13 0.500000 0.572906 0.619736
O O14 0.305882 0.500000 0.638652
O O15 0.293377 0.571489 0.711062
O O16 0.500000 0.948424 0.252023
O O17 0.250949 0.000000 0.212913
#
# Coordination Sequence:
#
# PCOD8267683 Si02
#       6
#     8  16   8  16  16  16
#     4   9  16  26  40  60  86 113 147 191 229 262
#     4  11  20  31  47  66  87 111 146 185 228 281
#     4   9  18  30  42  59  86 113 140 183 232 272
#     4  10  20  34  51  67  85 107 137 179 230 280
#     4   9  16  27  42  59  82 114 151 189 227 267
#     4  10  19  31  45  62  87 119 154 192 229 269
#
# _framework density 15.739261000000001
#
# number of rings (size 3 to 8) (size 9 to 14) (size 15 to 20)
#    0.000    2.200    2.000    2.400    0.000    3.200 
#    0.000    2.000    0.000    2.400    0.000    0.000 
#    0.000    0.000    0.000    0.000    0.000    1.000 
#
# Total GULP energy -495979.693576 kJ/mol
# GULP energy per Si atom -12399.492339 kJ/mol
# Density = 1.570344 g / cm^3
# Si number density = 15.739261 Si / 1000 Ang^3
#
#
#
# Elastic Constant Matrix: (Units=GPa)
#
#
# Indices 1 2 3 4 5 6 
#
# 1 83.2650 9.9283 40.7940 0.0000 0.0000 0.0000
# 2 9.9283 67.9193 29.2425 0.0000 0.0000 0.0000
# 3 40.7940 29.2425 97.2016 0.0000 0.0000 0.0000
# 4 0.0000 0.0000 0.0000 4.6452 0.0000 0.0000
# 5 0.0000 0.0000 0.0000 0.0000 21.0575 0.0000
# 6 0.0000 0.0000 0.0000 0.0000 0.0000 15.6644
#
#
#
# Elastic Compliance Matrix: (Units=1/GPa)
#
#
# Indices 1 2 3 4 5 6 
#
# 1 0.015140 0.000600 -0.006535 0.000000 0.000000 0.000000
# 2 0.000600 0.016938 -0.005348 0.000000 0.000000 0.000000
# 3 -0.006535 -0.005348 0.014639 0.000000 0.000000 0.000000
# 4 0.000000 0.000000 0.000000 0.215274 0.000000 0.000000
# 5 0.000000 0.000000 0.000000 0.000000 0.047489 0.000000
# 6 0.000000 0.000000 0.000000 0.000000 0.000000 0.063839
#
#
# Mechanical properties :
#
#
# Convention : Reuss Voigt Hill
#
# Bulk Modulus (GPa) = 41.40235 45.36838 43.38536
# Shear Modulus (GPa) = 12.37826 19.50150 15.93988
#
# Velocity S-wave (km/s) = 2.80743 3.52381 3.18582
# Velocity P-wave (km/s) = 6.07216 6.74121 6.41541
#
# Compressibility (1/GPa) = 0.02415322
#
# Stress axis : x y z
#
# Youngs Moduli (GPa) = 66.05146 59.03876 68.31005
#
# Poissons Ratio (x) = -0.03544 0.44637
# Poissons Ratio (y) = -0.03965 0.36530
# Poissons Ratio (z) = 0.43161 0.31572
#
# Static dielectric constant tensor:
#      x y z
#    x 3.115030 0.000000 0.000000 
#    y 0.000000 2.655960 0.000000 
#    z 0.000000 0.000000 2.888120 
# 
# 
# High freq. dielectric constant tensor:
#      x y z
#    x 1.618480 0.000000 0.000000 
#    y 0.000000 1.551760 0.000000 
#    z 0.000000 0.000000 1.585380 
# 
# From -- ./inp_files/60049.got.cif
#   From: 2010.03.12/outbox.cif.g09.slc.cpg/sg65_31_cif.got.tgz:60049.got - 2010.04.10 20:52:16.
