data_PCOD8267282
_publ_section_title
;
Structure prediction by ZEFSAII (Michael W. Deem and Ramdas Pophale) SiO2 
 PCOD8267282
Probable space group: C M M M
;
_chemical_formula_sum "Si O2"
_cell_formula_units_Z 112
_cell_length_a 21.818039
_cell_length_b 21.314403
_cell_length_c 19.650010
_cell_angle_alpha 90.000000
_cell_angle_beta 90.000000
_cell_angle_gamma 90.000000
_cell_volume 9138.010702
_symmetry_space_group_name_H-M "C M M M"
_symmetry_group_IT_number 65
_symmetry_cell_setting 'orthorhombic'
loop_
_space_group_symop_operation_xyz
x,y,z
-x,-y,z
x,-y,-z
-x,y,-z
-x,-y,-z
x,y,-z
-x,y,z
x,-y,z
1/2+x,1/2+y,z
1/2-x,1/2-y,z
1/2+x,1/2-y,-z
1/2-x,1/2+y,-z
1/2-x,1/2-y,-z
1/2+x,1/2+y,-z
1/2-x,1/2+y,z
1/2+x,1/2-y,z
loop_
_atom_site_type_symbol
_atom_site_label
_atom_site_fract_x
_atom_site_fract_y
_atom_site_fract_z
Si Si1 0.068520 0.074372 0.571957
Si Si2 0.000000 0.928240 0.927010
Si Si3 0.568878 0.000000 0.918629
Si Si4 0.612379 0.628222 0.852953
Si Si5 0.926819 0.927391 0.719074
Si Si6 0.427402 0.245872 0.920248
Si Si7 0.362461 0.880009 0.919914
Si Si8 0.769282 0.926643 0.079209
O O1 0.101808 0.095398 0.500000
O O2 0.098478 0.094906 0.644125
O O3 0.000000 0.101848 0.569666
O O4 0.064879 0.000000 0.574384
O O5 0.939593 0.914143 0.885841
O O6 0.000000 0.000000 0.944068
O O7 0.000000 0.891243 0.000000
O O8 0.601391 0.938636 0.887753
O O9 0.500000 0.000000 0.892208
O O10 0.572911 0.000000 0.000000
O O11 0.606804 0.618911 0.771887
O O12 0.601868 0.699589 0.874828
O O13 0.677781 0.603397 0.876154
O O14 0.000000 0.919286 0.723153
O O15 0.909418 0.000000 0.734136
O O16 0.500000 0.240100 0.906855
O O17 0.392539 0.184127 0.892938
O O18 0.414178 0.258123 0.000000
O O19 0.291092 0.886947 0.901199
O O20 0.371687 0.882233 0.000000
O O21 0.759402 0.000000 0.096346
O O22 0.785717 0.918540 0.000000
#
# Coordination Sequence:
#
# PCOD8267282 Si02
#       8
#    16   8   8  16  16  16  16  16
#     4   7  10  17  30  47  65  85 111 147 190 225
#     4  11  20  28  36  46  61  90 136 174 191 200
#     4   9  14  24  44  64  72  77 101 147 204 248
#     4  12  20  27  37  50  72 101 128 156 185 211
#     4   9  15  23  34  48  67  92 125 160 187 212
#     4  10  19  30  41  54  72  93 121 156 194 232
#     4   9  17  29  43  56  70  87 111 151 199 242
#     4  10  19  30  41  53  70  93 124 159 193 228
#
# _framework density 12.256497
#
# number of rings (size 3 to 8) (size 9 to 14) (size 15 to 20)
#    0.000    2.429    2.143    4.286    0.000    3.429 
#    0.000    2.143    0.000    0.000    0.000    0.000 
#    0.000    0.000    0.000    2.571    0.000    2.571 
#
# Total GULP energy -693792.287423 kJ/mol
# GULP energy per Si atom -12389.147990 kJ/mol
# Density = 1.222860 g / cm^3
# Si number density = 12.256497 Si / 1000 Ang^3
#
#
#
# Elastic Constant Matrix: (Units=GPa)
#
#
# Indices 1 2 3 4 5 6 
#
# 1 50.3240 28.6516 28.7691 0.0000 0.0000 0.0000
# 2 28.6516 76.9397 34.9303 0.0000 0.0000 0.0000
# 3 28.7691 34.9303 84.3106 0.0000 0.0000 0.0000
# 4 0.0000 0.0000 0.0000 33.3311 0.0000 0.0000
# 5 0.0000 0.0000 0.0000 0.0000 4.8861 0.0000
# 6 0.0000 0.0000 0.0000 0.0000 0.0000 19.6463
#
#
#
# Elastic Compliance Matrix: (Units=1/GPa)
#
#
# Indices 1 2 3 4 5 6 
#
# 1 0.027758 -0.007435 -0.006391 0.000000 0.000000 0.000000
# 2 -0.007435 0.018000 -0.004920 0.000000 0.000000 0.000000
# 3 -0.006391 -0.004920 0.016080 0.000000 0.000000 0.000000
# 4 0.000000 0.000000 0.000000 0.030002 0.000000 0.000000
# 5 0.000000 0.000000 0.000000 0.000000 0.204662 0.000000
# 6 0.000000 0.000000 0.000000 0.000000 0.000000 0.050900
#
#
# Mechanical properties :
#
#
# Convention : Reuss Voigt Hill
#
# Bulk Modulus (GPa) = 41.07705 44.03068 42.55387
# Shear Modulus (GPa) = 12.72227 19.52092 16.12159
#
# Velocity S-wave (km/s) = 3.22530 3.99519 3.63071
# Velocity P-wave (km/s) = 6.88893 7.56865 7.23677
#
# Compressibility (1/GPa) = 0.02434449
#
# Stress axis : x y z
#
# Youngs Moduli (GPa) = 36.02533 55.55621 62.18770
#
# Poissons Ratio (x) = 0.41307 0.39747
# Poissons Ratio (y) = 0.26786 0.30598
# Poissons Ratio (z) = 0.23025 0.27335
#
# Static dielectric constant tensor:
#      x y z
#    x 2.430510 0.000000 0.000000 
#    y 0.000000 2.523550 0.000000 
#    z 0.000000 0.000000 2.599320 
# 
# 
# High freq. dielectric constant tensor:
#      x y z
#    x 1.449450 0.000000 0.000000 
#    y 0.000000 1.452510 0.000000 
#    z 0.000000 0.000000 1.430610 
# 
# From -- ./inp_files/64921.got.cif
#   From: 2010.03.12/outbox.cif.g09.slc.cpg/sg65_33_cif.got.tgz:64921.got - 2010.04.10 20:52:16.
