data_PCOD8267979
_publ_section_title
;
Structure prediction by ZEFSAII (Michael W. Deem and Ramdas Pophale) SiO2 
 PCOD8267979
Probable space group: C M M M
;
_chemical_formula_sum "Si O2"
_cell_formula_units_Z 88
_cell_length_a 8.863314
_cell_length_b 19.857648
_cell_length_c 28.273428
_cell_angle_alpha 90.000000
_cell_angle_beta 90.000000
_cell_angle_gamma 90.000000
_cell_volume 4976.252524
_symmetry_space_group_name_H-M "C M M M"
_symmetry_group_IT_number 65
_symmetry_cell_setting 'orthorhombic'
loop_
_space_group_symop_operation_xyz
x,y,z
-x,-y,z
x,-y,-z
-x,y,-z
-x,-y,-z
x,y,-z
-x,y,z
x,-y,z
1/2+x,1/2+y,z
1/2-x,1/2-y,z
1/2+x,1/2-y,-z
1/2-x,1/2+y,-z
1/2-x,1/2-y,-z
1/2+x,1/2+y,-z
1/2-x,1/2+y,z
1/2+x,1/2-y,z
loop_
_atom_site_type_symbol
_atom_site_label
_atom_site_fract_x
_atom_site_fract_y
_atom_site_fract_z
Si Si1 0.330295 0.919637 0.500000
Si Si2 0.319291 0.321343 0.130683
Si Si3 0.830595 0.080146 0.593401
Si Si4 0.323016 0.076369 0.688538
Si Si5 0.820889 0.924949 0.947517
Si Si6 0.820431 0.678944 0.229964
O O1 0.500000 0.892962 0.500000
O O2 0.250606 0.890500 0.546890
O O3 0.323548 0.000000 0.500000
O O4 0.500000 0.317012 0.133430
O O5 0.250000 0.250000 0.116144
O O6 0.259071 0.373604 0.091545
O O7 0.252875 0.344937 0.180826
O O8 0.750895 0.106055 0.640997
O O9 0.000000 0.107573 0.593286
O O10 0.824471 0.000000 0.592060
O O11 0.500000 0.078099 0.680348
O O12 0.273901 0.122932 0.732010
O O13 0.268092 0.000000 0.699027
O O14 0.000000 0.924843 0.946462
O O15 0.761066 0.000000 0.935706
O O16 0.764948 0.903277 0.000000
O O17 0.750000 0.750000 0.245971
O O18 0.000000 0.686305 0.224376
#
# Coordination Sequence:
#
# PCOD8267979 Si02
#       6
#     8  16  16  16  16  16
#     4   9  15  23  37  57  86 125 160 189 228 279
#     4  10  19  31  49  71  94 121 154 193 234 276
#     4   9  16  25  39  62  91 120 152 193 236 275
#     4   9  18  32  48  67  92 122 155 190 233 283
#     4   8  15  29  48  70  96 125 157 192 230 274
#     4  10  20  34  51  69  93 125 158 194 234 279
#
# _framework density 17.683990000000001
#
# number of rings (size 3 to 8) (size 9 to 14) (size 15 to 20)
#    0.000    2.818    0.000    3.545    0.000    5.818 
#    0.000    0.000    0.000    3.273    0.000    5.727 
#    0.000    0.000    0.000    0.000    0.000    0.000 
#
# Total GULP energy -545474.964966 kJ/mol
# GULP energy per Si atom -12397.158295 kJ/mol
# Density = 1.764374 g / cm^3
# Si number density = 17.683990 Si / 1000 Ang^3
#
#
#
# Elastic Constant Matrix: (Units=GPa)
#
#
# Indices 1 2 3 4 5 6 
#
# 1 73.3730 36.0653 61.2674 0.0000 0.0000 0.0000
# 2 36.0653 78.3603 92.9444 0.0000 0.0000 0.0000
# 3 61.2674 92.9444 182.2127 0.0000 0.0000 0.0000
# 4 0.0000 0.0000 0.0000 7.4588 0.0000 0.0000
# 5 0.0000 0.0000 0.0000 0.0000 25.7856 0.0000
# 6 0.0000 0.0000 0.0000 0.0000 0.0000 16.5799
#
#
#
# Elastic Compliance Matrix: (Units=1/GPa)
#
#
# Indices 1 2 3 4 5 6 
#
# 1 0.019222 -0.002990 -0.004938 0.000000 0.000000 0.000000
# 2 -0.002990 0.032775 -0.015713 0.000000 0.000000 0.000000
# 3 -0.004938 -0.015713 0.015163 0.000000 0.000000 0.000000
# 4 0.000000 0.000000 0.000000 0.134071 0.000000 0.000000
# 5 0.000000 0.000000 0.000000 0.000000 0.038781 0.000000
# 6 0.000000 0.000000 0.000000 0.000000 0.000000 0.060314
#
#
# Mechanical properties :
#
#
# Convention : Reuss Voigt Hill
#
# Bulk Modulus (GPa) = 50.30458 79.38891 64.84675
# Shear Modulus (GPa) = 14.11500 19.54278 16.82889
#
# Velocity S-wave (km/s) = 2.82827 3.32793 3.08822
# Velocity P-wave (km/s) = 6.25889 7.73029 7.03317
#
# Compressibility (1/GPa) = 0.01987890
#
# Stress axis : x y z
#
# Youngs Moduli (GPa) = 52.02378 30.51149 65.94833
#
# Poissons Ratio (x) = 0.09122 0.32567
# Poissons Ratio (y) = 0.15553 1.03622
# Poissons Ratio (z) = 0.25691 0.47942
#
# Static dielectric constant tensor:
#      x y z
#    x 3.210420 0.000000 0.000000 
#    y 0.000000 3.104530 0.000000 
#    z 0.000000 0.000000 3.525590 
# 
# 
# High freq. dielectric constant tensor:
#      x y z
#    x 1.678470 0.000000 0.000000 
#    y 0.000000 1.647370 0.000000 
#    z 0.000000 0.000000 1.697850 
# 
# From -- ./inp_files/76576.got.cif
#   From: 2010.03.12/outbox.cif.g09.slc.cpg/sg65_39_cif.got.tgz:76576.got - 2010.04.10 20:52:16.
