data_PCOD8267841
_publ_section_title
;
Structure prediction by ZEFSAII (Michael W. Deem and Ramdas Pophale) SiO2 
 PCOD8267841
Probable space group: C M M M
;
_chemical_formula_sum "Si O2"
_cell_formula_units_Z 104
_cell_length_a 24.426077
_cell_length_b 8.902530
_cell_length_c 26.371365
_cell_angle_alpha 90.000000
_cell_angle_beta 90.000000
_cell_angle_gamma 90.000000
_cell_volume 5734.555727
_symmetry_space_group_name_H-M "C M M M"
_symmetry_group_IT_number 65
_symmetry_cell_setting 'orthorhombic'
loop_
_space_group_symop_operation_xyz
x,y,z
-x,-y,z
x,-y,-z
-x,y,-z
-x,-y,-z
x,y,-z
-x,y,z
x,-y,z
1/2+x,1/2+y,z
1/2-x,1/2-y,z
1/2+x,1/2-y,-z
1/2-x,1/2+y,-z
1/2-x,1/2-y,-z
1/2+x,1/2+y,-z
1/2-x,1/2+y,z
1/2+x,1/2-y,z
loop_
_atom_site_type_symbol
_atom_site_label
_atom_site_fract_x
_atom_site_fract_y
_atom_site_fract_z
Si Si1 0.193717 0.676335 0.557488
Si Si2 0.000000 0.178226 0.326656
Si Si3 0.085120 0.178696 0.870630
Si Si4 0.609372 0.176962 0.357909
Si Si5 0.195099 0.675248 0.724569
Si Si6 0.193856 0.322308 0.159451
Si Si7 0.500000 0.173919 0.940228
Si Si8 0.500000 0.323057 0.787608
O O1 0.180275 0.726238 0.500000
O O2 0.202388 0.500000 0.562159
O O3 0.250000 0.750000 0.576683
O O4 0.143153 0.727798 0.592422
O O5 0.947513 0.235414 0.357352
O O6 0.000000 0.246310 0.269092
O O7 0.000000 0.000000 0.325785
O O8 0.145012 0.250291 0.872410
O O9 0.053732 0.228545 0.818937
O O10 0.053695 0.244142 0.918956
O O11 0.088395 0.000000 0.875142
O O12 0.643366 0.227089 0.308334
O O13 0.597550 0.000000 0.358206
O O14 0.204571 0.500000 0.719327
O O15 0.250000 0.750000 0.702898
O O16 0.184511 0.724574 0.782197
O O17 0.195517 0.500000 0.151640
O O18 0.250000 0.250000 0.139181
O O19 0.500000 0.000000 0.923632
O O20 0.500000 0.192503 0.000000
O O21 0.500000 0.500000 0.782712
#
# Coordination Sequence:
#
# PCOD8267841 Si02
#       8
#    16   8  16  16  16  16   8   8
#     4   9  18  33  54  77  97 119 151 195 247 299
#     4  11  22  34  49  70  97 132 171 204 239 285
#     4  10  19  33  54  78 104 135 171 210 253 296
#     4  10  20  34  49  68  97 129 162 200 246 297
#     4   9  18  30  47  72 100 132 166 203 246 292
#     4  10  19  31  47  71 104 139 174 207 245 296
#     4  10  21  37  57  81 107 134 167 210 256 298
#     4   8  17  32  49  72 101 131 165 207 249 290
#
# _framework density 18.135669
#
# number of rings (size 3 to 8) (size 9 to 14) (size 15 to 20)
#    0.000    2.385    0.000    3.231    0.000    2.462 
#    0.000    4.231    0.000    2.769    0.000    0.000 
#    0.000    0.000    0.000    0.000    0.000    0.000 
#
# Total GULP energy -644876.120036 kJ/mol
# GULP energy per Si atom -12401.463847 kJ/mol
# Density = 1.809439 g / cm^3
# Si number density = 18.135669 Si / 1000 Ang^3
#
#
#
# Elastic Constant Matrix: (Units=GPa)
#
#
# Indices 1 2 3 4 5 6 
#
# 1 170.3535 59.1703 59.3475 0.0000 0.0000 0.0000
# 2 59.1703 69.1550 35.6230 0.0000 0.0000 0.0000
# 3 59.3475 35.6230 80.4514 0.0000 0.0000 0.0000
# 4 0.0000 0.0000 0.0000 21.1293 0.0000 0.0000
# 5 0.0000 0.0000 0.0000 0.0000 251.0395 0.0000
# 6 0.0000 0.0000 0.0000 0.0000 0.0000 36.6331
#
#
#
# Elastic Compliance Matrix: (Units=1/GPa)
#
#
# Indices 1 2 3 4 5 6 
#
# 1 0.009407 -0.005796 -0.004373 0.000000 0.000000 0.000000
# 2 -0.005796 0.022304 -0.005600 0.000000 0.000000 0.000000
# 3 -0.004373 -0.005600 0.018135 0.000000 0.000000 0.000000
# 4 0.000000 0.000000 0.000000 0.047328 0.000000 0.000000
# 5 0.000000 0.000000 0.000000 0.000000 0.003983 0.000000
# 6 0.000000 0.000000 0.000000 0.000000 0.000000 0.027298
#
#
# Mechanical properties :
#
#
# Convention : Reuss Voigt Hill
#
# Bulk Modulus (GPa) = 54.62114 69.80459 62.21287
# Shear Modulus (GPa) = 30.10297 72.81498 51.45897
#
# Velocity S-wave (km/s) = 4.07858 6.34329 5.33255
# Velocity P-wave (km/s) = 7.23624 9.60331 8.50255
#
# Compressibility (1/GPa) = 0.01830793
#
# Stress axis : x y z
#
# Youngs Moduli (GPa) = 106.30711 44.83418 55.14093
#
# Poissons Ratio (x) = 0.25986 0.24111
# Poissons Ratio (y) = 0.61617 0.30882
# Poissons Ratio (z) = 0.46485 0.25109
#
# Static dielectric constant tensor:
#      x y z
#    x 3.387510 0.000000 0.000000 
#    y 0.000000 3.244910 0.000000 
#    z 0.000000 0.000000 3.328320 
# 
# 
# High freq. dielectric constant tensor:
#      x y z
#    x 1.706550 0.000000 0.000000 
#    y 0.000000 1.699850 0.000000 
#    z 0.000000 0.000000 1.682870 
# 
# From -- ./inp_files/75857.got.cif
#   From: 2010.03.12/outbox.cif.g09.slc.cpg/sg65_38_cif.got.tgz:75857.got - 2010.04.10 20:52:16.
