data_PCOD8267068
_publ_section_title
;
Structure prediction by ZEFSAII (Michael W. Deem and Ramdas Pophale) SiO2 
 PCOD8267068
Probable space group: C M M M
;
_chemical_formula_sum "Si O2"
_cell_formula_units_Z 96
_cell_length_a 9.156386
_cell_length_b 26.841936
_cell_length_c 23.923107
_cell_angle_alpha 90.000000
_cell_angle_beta 90.000000
_cell_angle_gamma 90.000000
_cell_volume 5879.704661
_symmetry_space_group_name_H-M "C M M M"
_symmetry_group_IT_number 65
_symmetry_cell_setting 'orthorhombic'
loop_
_space_group_symop_operation_xyz
x,y,z
-x,-y,z
x,-y,-z
-x,y,-z
-x,-y,-z
x,y,-z
-x,y,z
x,-y,z
1/2+x,1/2+y,z
1/2-x,1/2-y,z
1/2+x,1/2-y,-z
1/2-x,1/2+y,-z
1/2-x,1/2-y,-z
1/2+x,1/2+y,-z
1/2-x,1/2+y,z
1/2+x,1/2-y,z
loop_
_atom_site_type_symbol
_atom_site_label
_atom_site_fract_x
_atom_site_fract_y
_atom_site_fract_z
Si Si1 0.836336 0.440917 0.561386
Si Si2 0.666374 0.444672 0.127233
Si Si3 0.829094 0.058088 0.669475
Si Si4 0.669837 0.652508 0.936425
Si Si5 0.329866 0.899370 0.773480
Si Si6 0.670506 0.798970 0.836685
O O1 0.786765 0.420913 0.500000
O O2 0.835647 0.500000 0.559969
O O3 0.725943 0.422284 0.609163
O O4 0.000000 0.421784 0.574939
O O5 0.500000 0.438230 0.148284
O O6 0.692772 0.500000 0.102753
O O7 0.701768 0.405222 0.078603
O O8 0.769986 0.437349 0.180339
O O9 0.750501 0.091669 0.715391
O O10 0.000000 0.067415 0.673200
O O11 0.789709 0.000000 0.678713
O O12 0.500000 0.665353 0.927729
O O13 0.764793 0.688343 0.897559
O O14 0.718918 0.661283 0.000000
O O15 0.500000 0.909785 0.765530
O O16 0.298050 0.842999 0.792926
O O17 0.500000 0.788629 0.843771
O O18 0.750000 0.750000 0.812903
#
# Coordination Sequence:
#
# PCOD8267068 Si02
#       6
#    16  16  16  16  16  16
#     4   8  14  25  40  58  84 121 161 195 225 256
#     4   9  17  29  45  65  90 119 149 181 216 254
#     4  10  19  28  41  64  93 125 158 189 221 256
#     4   9  18  32  49  69  92 117 145 177 214 259
#     4  10  20  32  46  65  88 114 147 184 221 266
#     4  10  21  36  53  70  87 110 140 178 226 274
#
# _framework density 16.327352000000001
#
# number of rings (size 3 to 8) (size 9 to 14) (size 15 to 20)
#    0.000    2.667    0.000    2.500    0.000    6.667 
#    0.000    3.333    0.000    0.000    0.000    4.667 
#    0.000    0.667    0.000    2.167    0.000    2.667 
#
# Total GULP energy -595146.923015 kJ/mol
# GULP energy per Si atom -12398.894229 kJ/mol
# Density = 1.629019 g / cm^3
# Si number density = 16.327352 Si / 1000 Ang^3
#
#
#
# Elastic Constant Matrix: (Units=GPa)
#
#
# Indices 1 2 3 4 5 6 
#
# 1 92.3413 38.0545 59.9503 0.0000 0.0000 0.0000
# 2 38.0545 65.5965 27.6164 0.0000 0.0000 0.0000
# 3 59.9503 27.6164 114.7904 0.0000 0.0000 0.0000
# 4 0.0000 0.0000 0.0000 13.2408 0.0000 0.0000
# 5 0.0000 0.0000 0.0000 0.0000 30.1639 0.0000
# 6 0.0000 0.0000 0.0000 0.0000 0.0000 21.9429
#
#
#
# Elastic Compliance Matrix: (Units=1/GPa)
#
#
# Indices 1 2 3 4 5 6 
#
# 1 0.019395 -0.007775 -0.008259 0.000000 0.000000 0.000000
# 2 -0.007775 0.020079 -0.000770 0.000000 0.000000 0.000000
# 3 -0.008259 -0.000770 0.013210 0.000000 0.000000 0.000000
# 4 0.000000 0.000000 0.000000 0.075524 0.000000 0.000000
# 5 0.000000 0.000000 0.000000 0.000000 0.033152 0.000000
# 6 0.000000 0.000000 0.000000 0.000000 0.000000 0.045573
#
#
# Mechanical properties :
#
#
# Convention : Reuss Voigt Hill
#
# Bulk Modulus (GPa) = 52.41938 58.21895 55.31916
# Shear Modulus (GPa) = 20.25105 22.87664 21.56384
#
# Velocity S-wave (km/s) = 3.52563 3.74722 3.63811
# Velocity P-wave (km/s) = 6.98200 7.37949 7.18350
#
# Compressibility (1/GPa) = 0.01907691
#
# Stress axis : x y z
#
# Youngs Moduli (GPa) = 51.55882 49.80235 75.69939
#
# Poissons Ratio (x) = 0.38720 0.62520
# Poissons Ratio (y) = 0.40086 0.05831
# Poissons Ratio (z) = 0.42582 0.03836
#
# Static dielectric constant tensor:
#      x y z
#    x 3.170990 0.000000 0.000000 
#    y 0.000000 2.896120 0.000000 
#    z 0.000000 0.000000 3.189540 
# 
# 
# High freq. dielectric constant tensor:
#      x y z
#    x 1.636250 0.000000 0.000000 
#    y 0.000000 1.596170 0.000000 
#    z 0.000000 0.000000 1.621960 
# 
# From -- ./inp_files/67838.got.cif
#   From: 2010.03.12/outbox.cif.g09.slc.cpg/sg65_34_cif.got.tgz:67838.got - 2010.04.10 20:52:16.
