data_PCOD8267520
_publ_section_title
;
Structure prediction by ZEFSAII (Michael W. Deem and Ramdas Pophale) SiO2 
 PCOD8267520
Probable space group: C M M M
;
_chemical_formula_sum "Si O2"
_cell_formula_units_Z 72
_cell_length_a 17.476597
_cell_length_b 20.404096
_cell_length_c 11.555630
_cell_angle_alpha 90.000000
_cell_angle_beta 90.000000
_cell_angle_gamma 90.000000
_cell_volume 4120.670207
_symmetry_space_group_name_H-M "C M M M"
_symmetry_group_IT_number 65
_symmetry_cell_setting 'orthorhombic'
loop_
_space_group_symop_operation_xyz
x,y,z
-x,-y,z
x,-y,-z
-x,y,-z
-x,-y,-z
x,y,-z
-x,y,z
x,-y,z
1/2+x,1/2+y,z
1/2-x,1/2-y,z
1/2+x,1/2-y,-z
1/2-x,1/2+y,-z
1/2-x,1/2-y,-z
1/2+x,1/2+y,-z
1/2-x,1/2+y,z
1/2+x,1/2-y,z
loop_
_atom_site_type_symbol
_atom_site_label
_atom_site_fract_x
_atom_site_fract_y
_atom_site_fract_z
Si Si1 0.410589 0.570345 0.500000
Si Si2 0.344820 0.378292 0.729013
Si Si3 0.915462 0.500000 0.636909
Si Si4 0.911980 0.000000 0.863310
Si Si5 0.180362 0.376079 0.634095
Si Si6 0.410684 0.742771 0.634018
O O1 0.369150 0.500000 0.500000
O O2 0.500000 0.562329 0.500000
O O3 0.386523 0.607476 0.388559
O O4 0.370519 0.432799 0.822446
O O5 0.253746 0.376843 0.717613
O O6 0.377065 0.303791 0.738060
O O7 0.922754 0.500000 0.500000
O O8 0.871097 0.564231 0.678564
O O9 0.000000 0.500000 0.692880
O O10 0.000000 0.000000 0.818775
O O11 0.908435 0.000000 0.000000
O O12 0.205985 0.384893 0.500000
O O13 0.132764 0.310708 0.651300
O O14 0.397293 0.718332 0.500000
O O15 0.500000 0.754147 0.656231
#
# Coordination Sequence:
#
# PCOD8267520 Si02
#       6
#     8  16   8   8  16  16
#     4  11  20  28  45  74 104 131 160 201 253 313
#     4  12  20  32  52  75 104 135 171 212 259 310
#     4   9  17  28  42  60  96 147 183 203 238 297
#     4  11  25  41  55  73  99 135 178 220 263 311
#     4  10  19  30  46  75 109 139 172 210 253 303
#     4  10  19  30  47  74 112 148 174 202 248 311
#
# _framework density 17.472885000000002
#
# number of rings (size 3 to 8) (size 9 to 14) (size 15 to 20)
#    0.000    1.444    3.333    4.000    0.000    4.444 
#    0.000    0.000    0.000    2.667    0.000    0.000 
#    0.000   15.111    0.000    0.000    0.000    0.000 
#
# Total GULP energy -446015.061617 kJ/mol
# GULP energy per Si atom -12389.307267 kJ/mol
# Density = 1.743312 g / cm^3
# Si number density = 17.472885 Si / 1000 Ang^3
#
#
#
# Elastic Constant Matrix: (Units=GPa)
#
#
# Indices 1 2 3 4 5 6 
#
# 1 151.7766 62.6871 26.2320 0.0000 0.0000 0.0000
# 2 62.6871 123.0324 27.0862 0.0000 0.0000 0.0000
# 3 26.2320 27.0862 38.5908 0.0000 0.0000 0.0000
# 4 0.0000 0.0000 0.0000 12.5923 0.0000 0.0000
# 5 0.0000 0.0000 0.0000 0.0000 14.6004 0.0000
# 6 0.0000 0.0000 0.0000 0.0000 0.0000 33.3010
#
#
#
# Elastic Compliance Matrix: (Units=1/GPa)
#
#
# Indices 1 2 3 4 5 6 
#
# 1 0.008688 -0.003698 -0.003310 0.000000 0.000000 0.000000
# 2 -0.003698 0.011187 -0.005339 0.000000 0.000000 0.000000
# 3 -0.003310 -0.005339 0.031910 0.000000 0.000000 0.000000
# 4 0.000000 0.000000 0.000000 0.079414 0.000000 0.000000
# 5 0.000000 0.000000 0.000000 0.000000 0.068491 0.000000
# 6 0.000000 0.000000 0.000000 0.000000 0.000000 0.030029
#
#
# Mechanical properties :
#
#
# Convention : Reuss Voigt Hill
#
# Bulk Modulus (GPa) = 36.91106 60.60115 48.75611
# Shear Modulus (GPa) = 18.97936 25.25836 22.11886
#
# Velocity S-wave (km/s) = 3.29936 3.80620 3.56180
# Velocity P-wave (km/s) = 5.97369 7.35353 6.69923
#
# Compressibility (1/GPa) = 0.02709215
#
# Stress axis : x y z
#
# Youngs Moduli (GPa) = 115.10020 89.38588 31.33807
#
# Poissons Ratio (x) = 0.33055 0.10373
# Poissons Ratio (y) = 0.42564 0.16730
# Poissons Ratio (z) = 0.38100 0.47720
#
# Static dielectric constant tensor:
#      x y z
#    x 3.469480 0.000000 0.000000 
#    y 0.000000 4.434110 0.000000 
#    z 0.000000 0.000000 2.599230 
# 
# 
# High freq. dielectric constant tensor:
#      x y z
#    x 1.693700 0.000000 0.000000 
#    y 0.000000 1.704770 0.000000 
#    z 0.000000 0.000000 1.592010 
# 
# From -- ./inp_files/26603.got.cif
#   From: 2010.03.12/outbox.cif.g09.slc.cpg/sg65_14_cif.got.tgz:26603.got - 2010.04.10 20:52:16.
