data_PCOD8267306
_publ_section_title
;
Structure prediction by ZEFSAII (Michael W. Deem and Ramdas Pophale) SiO2 
 PCOD8267306
Probable space group: C M M M
;
_chemical_formula_sum "Si O2"
_cell_formula_units_Z 104
_cell_length_a 24.205179
_cell_length_b 27.485782
_cell_length_c 9.208478
_cell_angle_alpha 90.000000
_cell_angle_beta 90.000000
_cell_angle_gamma 90.000000
_cell_volume 6126.384513
_symmetry_space_group_name_H-M "C M M M"
_symmetry_group_IT_number 65
_symmetry_cell_setting 'orthorhombic'
loop_
_space_group_symop_operation_xyz
x,y,z
-x,-y,z
x,-y,-z
-x,y,-z
-x,-y,-z
x,y,-z
-x,y,z
x,-y,z
1/2+x,1/2+y,z
1/2-x,1/2-y,z
1/2+x,1/2-y,-z
1/2-x,1/2+y,-z
1/2-x,1/2-y,-z
1/2+x,1/2+y,-z
1/2-x,1/2+y,z
1/2+x,1/2-y,z
loop_
_atom_site_type_symbol
_atom_site_label
_atom_site_fract_x
_atom_site_fract_y
_atom_site_fract_z
Si Si1 0.317453 0.137843 0.665614
Si Si2 0.000000 0.305947 0.338229
Si Si3 0.378830 0.056392 0.829397
Si Si4 0.500000 0.310292 0.663854
Si Si5 0.605459 0.306645 0.161296
Si Si6 0.500000 0.946522 0.171053
Si Si7 0.217008 0.798090 0.334621
Si Si8 0.399258 0.805930 0.159638
O O1 0.338189 0.135378 0.500000
O O2 0.332310 0.087204 0.744317
O O3 0.253081 0.152298 0.672238
O O4 0.344639 0.183136 0.749787
O O5 0.000000 0.247814 0.343004
O O6 0.051055 0.328497 0.251588
O O7 0.000000 0.327493 0.500000
O O8 0.440464 0.077285 0.785139
O O9 0.372709 0.000000 0.784565
O O10 0.368147 0.062555 0.000000
O O11 0.500000 0.331373 0.500000
O O12 0.444926 0.329989 0.746103
O O13 0.664008 0.311502 0.239658
O O14 0.591340 0.250619 0.141275
O O15 0.608220 0.330702 0.000000
O O16 0.500000 0.000000 0.241766
O O17 0.500000 0.952527 0.000000
O O18 0.198086 0.787271 0.500000
O O19 0.250000 0.750000 0.277132
O O20 0.396981 0.830799 0.000000
#
# Coordination Sequence:
#
# PCOD8267306 Si02
#       8
#    16   8  16   8  16   8  16  16
#     4  11  22  33  47  67  91 121 158 199 240 288
#     4   9  17  28  42  59  82 113 150 191 235 279
#     4   9  18  34  54  72  92 120 156 201 252 303
#     4   9  17  29  46  64  87 120 154 187 233 287
#     4  10  19  30  47  68  90 116 154 201 239 273
#     4   7  12  27  51  72  87 112 151 191 238 295
#     4  10  20  34  49  64  90 128 165 197 238 292
#     4  10  19  30  43  61  86 115 149 191 238 284
#
# _framework density 16.975753999999998
#
# number of rings (size 3 to 8) (size 9 to 14) (size 15 to 20)
#    0.000    2.385    1.538    2.769    0.000    5.538 
#    0.000    2.692    0.000    1.385    0.000    0.000 
#    0.000    0.000    0.000    0.692    0.000   12.923 
#
# Total GULP energy -644208.304130 kJ/mol
# GULP energy per Si atom -12388.621233 kJ/mol
# Density = 1.693712 g / cm^3
# Si number density = 16.975754 Si / 1000 Ang^3
#
#
#
# Elastic Constant Matrix: (Units=GPa)
#
#
# Indices 1 2 3 4 5 6 
#
# 1 113.6007 17.8553 68.8906 0.0000 0.0000 0.0000
# 2 17.8553 39.7383 16.2125 0.0000 0.0000 0.0000
# 3 68.8906 16.2125 130.9642 0.0000 0.0000 0.0000
# 4 0.0000 0.0000 0.0000 18.3280 0.0000 0.0000
# 5 0.0000 0.0000 0.0000 0.0000 27.8415 0.0000
# 6 0.0000 0.0000 0.0000 0.0000 0.0000 3.5190
#
#
#
# Elastic Compliance Matrix: (Units=1/GPa)
#
#
# Indices 1 2 3 4 5 6 
#
# 1 0.013323 -0.003294 -0.006601 0.000000 0.000000 0.000000
# 2 -0.003294 0.027317 -0.001649 0.000000 0.000000 0.000000
# 3 -0.006601 -0.001649 0.011312 0.000000 0.000000 0.000000
# 4 0.000000 0.000000 0.000000 0.054561 0.000000 0.000000
# 5 0.000000 0.000000 0.000000 0.000000 0.035918 0.000000
# 6 0.000000 0.000000 0.000000 0.000000 0.000000 0.284173
#
#
# Mechanical properties :
#
#
# Convention : Reuss Voigt Hill
#
# Bulk Modulus (GPa) = 34.64311 54.46888 44.55600
# Shear Modulus (GPa) = 10.88581 22.02734 16.45658
#
# Velocity S-wave (km/s) = 2.53505 3.60610 3.11692
# Velocity P-wave (km/s) = 5.38705 7.03523 6.26558
#
# Compressibility (1/GPa) = 0.02886577
#
# Stress axis : x y z
#
# Youngs Moduli (GPa) = 75.05678 36.60676 88.40200
#
# Poissons Ratio (x) = 0.12056 0.58351
# Poissons Ratio (y) = 0.24720 0.14580
# Poissons Ratio (z) = 0.49542 0.06037
#
# Static dielectric constant tensor:
#      x y z
#    x 3.185290 0.000000 0.000000 
#    y 0.000000 2.686370 0.000000 
#    z 0.000000 0.000000 3.356460 
# 
# 
# High freq. dielectric constant tensor:
#      x y z
#    x 1.649810 0.000000 0.000000 
#    y 0.000000 1.593090 0.000000 
#    z 0.000000 0.000000 1.664160 
# 
# From -- ./inp_files/14822.got.cif
#   From: 2010.03.12/outbox.cif.g09.slc.cpg/sg65_8_cif.got.tgz:14822.got - 2010.04.10 20:52:16.
