data_PCOD8267896
_publ_section_title
;
Structure prediction by ZEFSAII (Michael W. Deem and Ramdas Pophale) SiO2 
 PCOD8267896
Probable space group: C M M M
;
_chemical_formula_sum "Si O2"
_cell_formula_units_Z 104
_cell_length_a 23.922670
_cell_length_b 9.049302
_cell_length_c 28.326600
_cell_angle_alpha 90.000000
_cell_angle_beta 90.000000
_cell_angle_gamma 90.000000
_cell_volume 6132.240533
_symmetry_space_group_name_H-M "C M M M"
_symmetry_group_IT_number 65
_symmetry_cell_setting 'orthorhombic'
loop_
_space_group_symop_operation_xyz
x,y,z
-x,-y,z
x,-y,-z
-x,y,-z
-x,-y,-z
x,y,-z
-x,y,z
x,-y,z
1/2+x,1/2+y,z
1/2-x,1/2-y,z
1/2+x,1/2-y,-z
1/2-x,1/2+y,-z
1/2-x,1/2-y,-z
1/2+x,1/2+y,-z
1/2-x,1/2+y,z
1/2+x,1/2-y,z
loop_
_atom_site_type_symbol
_atom_site_label
_atom_site_fract_x
_atom_site_fract_y
_atom_site_fract_z
Si Si1 0.500000 0.665224 0.555989
Si Si2 0.690561 0.327352 0.000000
Si Si3 0.190572 0.173525 0.625272
Si Si4 0.000000 0.324602 0.054918
Si Si5 0.387392 0.325536 0.913815
Si Si6 0.192485 0.830597 0.273426
Si Si7 0.309966 0.326631 0.829129
Si Si8 0.609929 0.828355 0.444649
O O1 0.500000 0.500000 0.577467
O O2 0.500000 0.658304 0.500000
O O3 0.446525 0.753672 0.574073
O O4 0.750000 0.250000 0.000000
O O5 0.654990 0.278232 0.045129
O O6 0.702459 0.500000 0.000000
O O7 0.250000 0.250000 0.627223
O O8 0.159862 0.200719 0.676845
O O9 0.159314 0.250410 0.582665
O O10 0.196192 0.000000 0.614228
O O11 0.945557 0.259905 0.080721
O O12 0.000000 0.500000 0.060274
O O13 0.000000 0.276348 0.000000
O O14 0.400059 0.500000 0.914819
O O15 0.357296 0.273328 0.865584
O O16 0.250000 0.750000 0.276023
O O17 0.163864 0.788622 0.223199
O O18 0.208779 0.000000 0.271866
O O19 0.299220 0.500000 0.836065
O O20 0.250000 0.250000 0.837827
O O21 0.619379 0.801675 0.500000
O O22 0.607475 0.000000 0.432241
#
# Coordination Sequence:
#
# PCOD8267896 Si02
#       8
#     8   8  16   8  16  16  16  16
#     4   9  17  31  51  72  93 120 157 198 239 284
#     4  10  20  31  46  71 101 130 156 186 229 278
#     4  10  19  31  48  70  98 131 165 202 243 291
#     4  11  23  37  53  72  93 126 171 212 244 279
#     4  10  20  34  52  72  98 131 163 196 236 286
#     4   8  15  28  46  69  96 125 160 198 237 286
#     4   9  17  30  50  76 102 128 158 195 243 291
#     4  10  20  33  49  70  97 128 162 202 246 293
#
# _framework density 16.959543
#
# number of rings (size 3 to 8) (size 9 to 14) (size 15 to 20)
#    0.000    2.462    0.769    1.846    0.000    4.308 
#    0.000    0.000    0.000    0.923    0.000    3.231 
#    0.000    0.000    0.000    0.000    0.000    0.000 
#
# Total GULP energy -644280.736476 kJ/mol
# GULP energy per Si atom -12390.014163 kJ/mol
# Density = 1.692094 g / cm^3
# Si number density = 16.959543 Si / 1000 Ang^3
#
#
#
# Elastic Constant Matrix: (Units=GPa)
#
#
# Indices 1 2 3 4 5 6 
#
# 1 104.7607 49.4670 59.7975 0.0000 0.0000 0.0000
# 2 49.4670 81.6688 55.4424 0.0000 0.0000 0.0000
# 3 59.7975 55.4424 106.4548 0.0000 0.0000 0.0000
# 4 0.0000 0.0000 0.0000 17.7238 0.0000 0.0000
# 5 0.0000 0.0000 0.0000 0.0000 3.3697 0.0000
# 6 0.0000 0.0000 0.0000 0.0000 0.0000 32.1493
#
#
#
# Elastic Compliance Matrix: (Units=1/GPa)
#
#
# Indices 1 2 3 4 5 6 
#
# 1 0.015429 -0.005355 -0.005878 0.000000 0.000000 0.000000
# 2 -0.005355 0.020800 -0.007825 0.000000 0.000000 0.000000
# 3 -0.005878 -0.007825 0.016771 0.000000 0.000000 0.000000
# 4 0.000000 0.000000 0.000000 0.056421 0.000000 0.000000
# 5 0.000000 0.000000 0.000000 0.000000 0.296762 0.000000
# 6 0.000000 0.000000 0.000000 0.000000 0.000000 0.031105
#
#
# Mechanical properties :
#
#
# Convention : Reuss Voigt Hill
#
# Bulk Modulus (GPa) = 67.18473 69.14424 68.16448
# Shear Modulus (GPa) = 10.40874 19.19372 14.80123
#
# Velocity S-wave (km/s) = 2.48006 3.36778 2.95742
# Velocity P-wave (km/s) = 6.92110 7.48206 7.20704
#
# Compressibility (1/GPa) = 0.01488433
#
# Stress axis : x y z
#
# Youngs Moduli (GPa) = 64.81134 48.07623 59.62832
#
# Poissons Ratio (x) = 0.25746 0.35049
# Poissons Ratio (y) = 0.34709 0.46658
# Poissons Ratio (z) = 0.38095 0.37619
#
# Static dielectric constant tensor:
#      x y z
#    x 2.933960 0.000000 0.000000 
#    y 0.000000 3.020900 0.000000 
#    z 0.000000 0.000000 3.730480 
# 
# 
# High freq. dielectric constant tensor:
#      x y z
#    x 1.626490 0.000000 0.000000 
#    y 0.000000 1.662220 0.000000 
#    z 0.000000 0.000000 1.661990 
# 
# From -- ./inp_files/73622.got.cif
#   From: 2010.03.12/outbox.cif.g09.slc.cpg/sg65_37_cif.got.tgz:73622.got - 2010.04.10 20:52:16.
