data_PCOD8267329
_publ_section_title
;
Structure prediction by ZEFSAII (Michael W. Deem and Ramdas Pophale) SiO2 
 PCOD8267329
Probable space group: C M M M
;
_chemical_formula_sum "Si O2"
_cell_formula_units_Z 88
_cell_length_a 9.268224
_cell_length_b 27.183353
_cell_length_c 21.822524
_cell_angle_alpha 90.000000
_cell_angle_beta 90.000000
_cell_angle_gamma 90.000000
_cell_volume 5497.997350
_symmetry_space_group_name_H-M "C M M M"
_symmetry_group_IT_number 65
_symmetry_cell_setting 'orthorhombic'
loop_
_space_group_symop_operation_xyz
x,y,z
-x,-y,z
x,-y,-z
-x,y,-z
-x,-y,-z
x,y,-z
-x,y,z
x,-y,z
1/2+x,1/2+y,z
1/2-x,1/2-y,z
1/2+x,1/2-y,-z
1/2-x,1/2+y,-z
1/2-x,1/2-y,-z
1/2+x,1/2+y,-z
1/2-x,1/2+y,z
1/2+x,1/2-y,z
loop_
_atom_site_type_symbol
_atom_site_label
_atom_site_fract_x
_atom_site_fract_y
_atom_site_fract_z
Si Si1 0.666250 0.200090 0.000000
Si Si2 0.831344 0.649944 0.255010
Si Si3 0.667349 0.054790 0.325229
Si Si4 0.668746 0.701966 0.639901
Si Si5 0.667449 0.396111 0.430719
Si Si6 0.832104 0.698874 0.867962
O O1 0.750000 0.250000 0.000000
O O2 0.703936 0.173555 0.934896
O O3 0.500000 0.214024 0.000000
O O4 0.789970 0.593658 0.272069
O O5 0.737459 0.687294 0.295095
O O6 0.789802 0.659338 0.184116
O O7 0.000000 0.660083 0.267747
O O8 0.500000 0.059075 0.341024
O O9 0.749709 0.065505 0.388187
O O10 0.707631 0.000000 0.301984
O O11 0.500000 0.712760 0.649252
O O12 0.750000 0.750000 0.614598
O O13 0.696865 0.659597 0.590334
O O14 0.723699 0.401872 0.500000
O O15 0.500000 0.409008 0.425702
O O16 0.750000 0.750000 0.857979
O O17 0.000000 0.711920 0.863117
#
# Coordination Sequence:
#
# PCOD8267329 Si02
#       6
#     8  16  16  16  16  16
#     4   8  14  24  36  54  81 111 141 169 196 230
#     4   9  17  29  44  62  83 109 141 173 207 247
#     4   9  18  32  48  65  84 105 133 172 214 253
#     4  10  19  30  44  62  85 112 140 170 203 240
#     4   9  19  34  48  63  84 109 137 168 204 249
#     4   9  16  25  39  59  84 113 141 168 199 236
#
# _framework density 16.005827
#
# number of rings (size 3 to 8) (size 9 to 14) (size 15 to 20)
#    0.000    2.909    0.000    1.091    0.000    4.364 
#    0.000    1.818    0.000    0.000    0.000    0.636 
#    0.000    5.091    0.000    0.000    0.000   49.182 
#
# Total GULP energy -545276.023832 kJ/mol
# GULP energy per Si atom -12392.636905 kJ/mol
# Density = 1.596940 g / cm^3
# Si number density = 16.005827 Si / 1000 Ang^3
#
#
#
# Elastic Constant Matrix: (Units=GPa)
#
#
# Indices 1 2 3 4 5 6 
#
# 1 40.6470 27.7749 29.1441 0.0000 0.0000 0.0000
# 2 27.7749 85.9322 48.4215 0.0000 0.0000 0.0000
# 3 29.1441 48.4215 141.9019 0.0000 0.0000 0.0000
# 4 0.0000 0.0000 0.0000 15.2945 0.0000 0.0000
# 5 0.0000 0.0000 0.0000 0.0000 19.3508 0.0000
# 6 0.0000 0.0000 0.0000 0.0000 0.0000 20.3545
#
#
#
# Elastic Compliance Matrix: (Units=1/GPa)
#
#
# Indices 1 2 3 4 5 6 
#
# 1 0.033243 -0.008540 -0.003914 0.000000 0.000000 0.000000
# 2 -0.008540 0.016601 -0.003911 0.000000 0.000000 0.000000
# 3 -0.003914 -0.003911 0.009185 0.000000 0.000000 0.000000
# 4 0.000000 0.000000 0.000000 0.065383 0.000000 0.000000
# 5 0.000000 0.000000 0.000000 0.000000 0.051677 0.000000
# 6 0.000000 0.000000 0.000000 0.000000 0.000000 0.049129
#
#
# Mechanical properties :
#
#
# Convention : Reuss Voigt Hill
#
# Bulk Modulus (GPa) = 38.02056 53.24025 45.63040
# Shear Modulus (GPa) = 18.74661 21.87601 20.31131
#
# Velocity S-wave (km/s) = 3.42605 3.70097 3.56616
# Velocity P-wave (km/s) = 6.28141 7.18319 6.74738
#
# Compressibility (1/GPa) = 0.02630156
#
# Stress axis : x y z
#
# Youngs Moduli (GPa) = 30.08109 60.23738 108.86799
#
# Poissons Ratio (x) = 0.51441 0.42607
# Poissons Ratio (y) = 0.25688 0.42577
# Poissons Ratio (z) = 0.11773 0.23558
#
# Static dielectric constant tensor:
#      x y z
#    x 3.024220 0.000000 0.000000 
#    y 0.000000 2.952400 0.000000 
#    z 0.000000 0.000000 3.421400 
# 
# 
# High freq. dielectric constant tensor:
#      x y z
#    x 1.618320 0.000000 0.000000 
#    y 0.000000 1.588880 0.000000 
#    z 0.000000 0.000000 1.615450 
# 
# From -- ./inp_files/60211.got.cif
#   From: 2010.03.12/outbox.cif.g09.slc.cpg/sg65_31_cif.got.tgz:60211.got - 2010.04.10 20:52:16.
