data_PCOD8267093
_publ_section_title
;
Structure prediction by ZEFSAII (Michael W. Deem and Ramdas Pophale) SiO2 
 PCOD8267093
Probable space group: C M M M
;
_chemical_formula_sum "Si O2"
_cell_formula_units_Z 80
_cell_length_a 29.043329
_cell_length_b 15.981037
_cell_length_c 9.274952
_cell_angle_alpha 90.000000
_cell_angle_beta 90.000000
_cell_angle_gamma 90.000000
_cell_volume 4304.899551
_symmetry_space_group_name_H-M "C M M M"
_symmetry_group_IT_number 65
_symmetry_cell_setting 'orthorhombic'
loop_
_space_group_symop_operation_xyz
x,y,z
-x,-y,z
x,-y,-z
-x,y,-z
-x,-y,-z
x,y,-z
-x,y,z
x,-y,z
1/2+x,1/2+y,z
1/2-x,1/2-y,z
1/2+x,1/2-y,-z
1/2-x,1/2+y,-z
1/2-x,1/2-y,-z
1/2+x,1/2+y,-z
1/2-x,1/2+y,z
1/2+x,1/2-y,z
loop_
_atom_site_type_symbol
_atom_site_label
_atom_site_fract_x
_atom_site_fract_y
_atom_site_fract_z
Si Si1 0.118379 0.000000 0.171983
Si Si2 0.714229 0.500000 0.331350
Si Si3 0.949201 0.141287 0.171138
Si Si4 0.143613 0.405123 0.830364
Si Si5 0.050384 0.328472 0.171283
Si Si6 0.773094 0.662639 0.668711
O O1 0.090414 0.080504 0.230251
O O2 0.168011 0.000000 0.241307
O O3 0.123601 0.000000 0.000000
O O4 0.702663 0.500000 0.500000
O O5 0.741769 0.416394 0.287154
O O6 0.939460 0.234807 0.227877
O O7 0.000000 0.111888 0.223739
O O8 0.948247 0.138989 0.000000
O O9 0.156116 0.500000 0.790147
O O10 0.091606 0.387713 0.774330
O O11 0.178596 0.343163 0.751365
O O12 0.147374 0.388399 0.000000
O O13 0.000000 0.359216 0.228565
O O14 0.048880 0.328359 0.000000
O O15 0.783685 0.661756 0.500000
O O16 0.750000 0.750000 0.716036
#
# Coordination Sequence:
#
# PCOD8267093 Si02
#       6
#     8   8  16  16  16  16
#     4  10  19  28  48  78 102 129 169 210 247 293
#     4  10  22  39  53  73 105 133 166 213 259 314
#     4   8  14  26  44  69 102 136 168 202 243 295
#     4  10  20  33  53  81 108 134 168 212 260 306
#     4   8  15  28  46  71 105 138 165 200 250 303
#     4  10  22  40  59  75  97 138 181 214 260 316
#
# _framework density 18.583476999999998
#
# number of rings (size 3 to 8) (size 9 to 14) (size 15 to 20)
#    0.000    2.800    1.000    1.500    2.800    2.800 
#    0.000    2.000    0.000    1.800    0.000    4.200 
#    0.000    0.000    0.000    0.000    0.000    0.000 
#
# Total GULP energy -495799.919345 kJ/mol
# GULP energy per Si atom -12394.997984 kJ/mol
# Density = 1.854118 g / cm^3
# Si number density = 18.583477 Si / 1000 Ang^3
#
#
#
# Elastic Constant Matrix: (Units=GPa)
#
#
# Indices 1 2 3 4 5 6 
#
# 1 159.0462 69.3503 39.8224 0.0000 0.0000 0.0000
# 2 69.3503 109.4279 25.5403 0.0000 0.0000 0.0000
# 3 39.8224 25.5403 21.5617 0.0000 0.0000 0.0000
# 4 0.0000 0.0000 0.0000 13.8856 0.0000 0.0000
# 5 0.0000 0.0000 0.0000 0.0000 -4.4741 0.0000
# 6 0.0000 0.0000 0.0000 0.0000 0.0000 34.7887
#
#
#
# Elastic Compliance Matrix: (Units=1/GPa)
#
#
# Indices 1 2 3 4 5 6 
#
# 1 0.012613 -0.003533 -0.019109 0.000000 0.000000 0.000000
# 2 -0.003533 0.013620 -0.009608 0.000000 0.000000 0.000000
# 3 -0.019109 -0.009608 0.093052 0.000000 0.000000 0.000000
# 4 0.000000 0.000000 0.000000 0.072017 0.000000 0.000000
# 5 0.000000 0.000000 0.000000 0.000000 -0.223510 0.000000
# 6 0.000000 0.000000 0.000000 0.000000 0.000000 0.028745
#
#
# Mechanical properties :
#
#
# Convention : Reuss Voigt Hill
#
# Bulk Modulus (GPa) = 18.25331 62.16241 40.20786
# Shear Modulus (GPa) = 63.05232 19.19489 41.12361
#
# Velocity S-wave (km/s) = 5.83120 3.21736 4.70926
# Velocity P-wave (km/s) = 7.42838 6.87931 7.15911
#
# Compressibility (1/GPa) = 0.05478459
#
# Stress axis : x y z
#
# Youngs Moduli (GPa) = 79.28455 73.42096 10.74663
#
# Poissons Ratio (x) = 0.25942 0.20536
# Poissons Ratio (y) = 0.28014 0.10325
# Poissons Ratio (z) = 1.51508 0.70540
#
# Static dielectric constant tensor:
#      x y z
#    x 3.637450 0.000000 0.000000 
#    y 0.000000 3.665220 0.000000 
#    z 0.000000 0.000000 2.872960 
# 
# 
# High freq. dielectric constant tensor:
#      x y z
#    x 1.735440 0.000000 0.000000 
#    y 0.000000 1.728070 0.000000 
#    z 0.000000 0.000000 1.662970 
# 
# From -- ./inp_files/16081.got.cif
#   From: 2010.03.12/outbox.cif.g09.slc.cpg/sg65_9_cif.got.tgz:16081.got - 2010.04.10 20:52:16.
