data_PCOD8267397
_publ_section_title
;
Structure prediction by ZEFSAII (Michael W. Deem and Ramdas Pophale) SiO2 
 PCOD8267397
Probable space group: C M M M
;
_chemical_formula_sum "Si O2"
_cell_formula_units_Z 104
_cell_length_a 9.245137
_cell_length_b 29.893527
_cell_length_c 22.958344
_cell_angle_alpha 90.000000
_cell_angle_beta 90.000000
_cell_angle_gamma 90.000000
_cell_volume 6344.991850
_symmetry_space_group_name_H-M "C M M M"
_symmetry_group_IT_number 65
_symmetry_cell_setting 'orthorhombic'
loop_
_space_group_symop_operation_xyz
x,y,z
-x,-y,z
x,-y,-z
-x,y,-z
-x,-y,-z
x,y,-z
-x,y,z
x,-y,z
1/2+x,1/2+y,z
1/2-x,1/2-y,z
1/2+x,1/2-y,-z
1/2-x,1/2+y,-z
1/2-x,1/2-y,-z
1/2+x,1/2+y,-z
1/2-x,1/2+y,z
1/2+x,1/2-y,z
loop_
_atom_site_type_symbol
_atom_site_label
_atom_site_fract_x
_atom_site_fract_y
_atom_site_fract_z
Si Si1 0.668010 0.050725 0.826158
Si Si2 0.828467 0.050045 0.500000
Si Si3 0.671401 0.881716 0.275709
Si Si4 0.172715 0.888398 0.394970
Si Si5 0.342129 0.290226 0.404514
Si Si6 0.163265 0.946843 0.063610
Si Si7 0.163327 0.207802 0.266642
O O1 0.500000 0.051727 0.839502
O O2 0.707428 0.079520 0.769918
O O3 0.742162 0.072365 0.883345
O O4 0.721679 0.000000 0.814335
O O5 0.775823 0.075208 0.441946
O O6 0.000000 0.048990 0.500000
O O7 0.763556 0.000000 0.500000
O O8 0.500000 0.873572 0.283489
O O9 0.740952 0.898374 0.336035
O O10 0.746513 0.836744 0.252104
O O11 0.218279 0.839544 0.420046
O O12 0.000000 0.889392 0.382511
O O13 0.500000 0.284803 0.432061
O O14 0.250000 0.250000 0.432320
O O15 0.347899 0.285861 0.335358
O O16 0.000000 0.930253 0.072953
O O17 0.171355 0.000000 0.064576
O O18 0.219549 0.929928 0.000000
O O19 0.250000 0.250000 0.239394
O O20 0.000000 0.205043 0.240563
#
# Coordination Sequence:
#
# PCOD8267397 Si02
#       7
#    16   8  16  16  16  16  16
#     4   9  18  30  42  60  89 124 158 189 223 264
#     4   9  18  34  54  69  81 105 147 195 235 273
#     4  10  19  30  45  66  93 122 151 186 227 269
#     4   9  18  32  48  66  86 109 142 185 230 272
#     4   8  14  24  40  62  86 108 129 158 200 254
#     4   8  14  25  41  61  85 114 149 188 227 265
#     4   9  16  27  44  66  91 118 148 181 220 267
#
# _framework density 16.390881
#
# number of rings (size 3 to 8) (size 9 to 14) (size 15 to 20)
#    0.000    3.154    0.000    2.308    0.000    5.846 
#    0.000    2.308    0.000    0.462    0.000    0.000 
#    0.000    0.615    0.000    2.000    0.000    3.077 
#
# Total GULP energy -644437.921381 kJ/mol
# GULP energy per Si atom -12393.036950 kJ/mol
# Density = 1.635357 g / cm^3
# Si number density = 16.390881 Si / 1000 Ang^3
#
#
#
# Elastic Constant Matrix: (Units=GPa)
#
#
# Indices 1 2 3 4 5 6 
#
# 1 75.8386 49.6031 51.4834 0.0000 0.0000 0.0000
# 2 49.6031 111.6001 61.4763 0.0000 0.0000 0.0000
# 3 51.4834 61.4763 95.7378 0.0000 0.0000 0.0000
# 4 0.0000 0.0000 0.0000 -0.0790 0.0000 0.0000
# 5 0.0000 0.0000 0.0000 0.0000 16.1704 0.0000
# 6 0.0000 0.0000 0.0000 0.0000 0.0000 22.1299
#
#
#
# Elastic Compliance Matrix: (Units=1/GPa)
#
#
# Indices 1 2 3 4 5 6 
#
# 1 0.022544 -0.005171 -0.008802 0.000000 0.000000 0.000000
# 2 -0.005171 0.015051 -0.006884 0.000000 0.000000 0.000000
# 3 -0.008802 -0.006884 0.019599 0.000000 0.000000 0.000000
# 4 0.000000 0.000000 0.000000-12.662836 0.000000 0.000000
# 5 0.000000 0.000000 0.000000 0.000000 0.061841 0.000000
# 6 0.000000 0.000000 0.000000 0.000000 0.000000 0.045188
#
#
# Mechanical properties :
#
#
# Convention : Reuss Voigt Hill
#
# Bulk Modulus (GPa) = 64.60415 67.58913 66.09664
# Shear Modulus (GPa) = -0.40155 15.68519 7.64182
#
# Velocity S-wave (km/s) = -0.49550 3.09681 2.16156
# Velocity P-wave (km/s) = 6.25883 7.35611 6.82954
#
# Compressibility (1/GPa) = 0.01547888
#
# Stress axis : x y z
#
# Youngs Moduli (GPa) = 44.35829 66.44022 51.02253
#
# Poissons Ratio (x) = 0.34357 0.44912
# Poissons Ratio (y) = 0.22938 0.35124
# Poissons Ratio (z) = 0.39046 0.45738
#
# Static dielectric constant tensor:
#      x y z
#    x 3.188200 0.000000 0.000000 
#    y 0.000000 3.155250 0.000000 
#    z 0.000000 0.000000 2.999550 
# 
# 
# High freq. dielectric constant tensor:
#      x y z
#    x 1.627780 0.000000 0.000000 
#    y 0.000000 1.615210 0.000000 
#    z 0.000000 0.000000 1.602890 
# 
# From -- ./inp_files/68549.got.cif
#   From: 2010.03.12/outbox.cif.g09.slc.cpg/sg65_35_cif.got.tgz:68549.got - 2010.04.10 20:52:16.
