data_PCOD8267098
_publ_section_title
;
Structure prediction by ZEFSAII (Michael W. Deem and Ramdas Pophale) SiO2 
 PCOD8267098
Probable space group: C M M M
;
_chemical_formula_sum "Si O2"
_cell_formula_units_Z 88
_cell_length_a 22.932893
_cell_length_b 13.242099
_cell_length_c 18.934091
_cell_angle_alpha 90.000000
_cell_angle_beta 90.000000
_cell_angle_gamma 90.000000
_cell_volume 5749.897928
_symmetry_space_group_name_H-M "C M M M"
_symmetry_group_IT_number 65
_symmetry_cell_setting 'orthorhombic'
loop_
_space_group_symop_operation_xyz
x,y,z
-x,-y,z
x,-y,-z
-x,y,-z
-x,-y,-z
x,y,-z
-x,y,z
x,-y,z
1/2+x,1/2+y,z
1/2-x,1/2-y,z
1/2+x,1/2-y,-z
1/2-x,1/2+y,-z
1/2-x,1/2-y,-z
1/2+x,1/2+y,-z
1/2-x,1/2+y,z
1/2+x,1/2-y,z
loop_
_atom_site_type_symbol
_atom_site_label
_atom_site_fract_x
_atom_site_fract_y
_atom_site_fract_z
Si Si1 0.783734 0.390543 0.416390
Si Si2 0.569325 0.694878 0.162069
Si Si3 0.066696 0.117191 0.310798
Si Si4 0.569532 0.500000 0.079888
Si Si5 0.430668 0.887986 0.079887
Si Si6 0.160509 0.810325 0.416560
O O1 0.779665 0.388713 0.500000
O O2 0.803929 0.500000 0.387612
O O3 0.830930 0.306898 0.393575
O O4 0.718321 0.367937 0.389520
O O5 0.500000 0.693715 0.156233
O O6 0.588176 0.682658 0.243654
O O7 0.594407 0.600520 0.117520
O O8 0.594685 0.800622 0.131317
O O9 0.104364 0.144750 0.378806
O O10 0.000000 0.142648 0.329917
O O11 0.073393 0.000000 0.290880
O O12 0.500000 0.500000 0.083077
O O13 0.592432 0.500000 0.000000
O O14 0.500000 0.885180 0.081797
O O15 0.409139 0.000000 0.104216
O O16 0.409259 0.866408 0.000000
O O17 0.150532 0.822759 0.500000
#
# Coordination Sequence:
#
# PCOD8267098 Si02
#       6
#    16  16  16   8  16  16
#     4   8  14  27  47  67  83  97 124 175 228 263
#     4   9  15  24  34  48  73 104 137 166 197 242
#     4  10  19  29  39  54  83 119 146 170 205 248
#     4   9  14  20  34  52  67  93 135 173 198 228
#     4   8  13  21  34  51  69  92 127 171 209 236
#     4   9  17  28  44  65  83 105 141 176 212 257
#
# _framework density 15.304619000000001
#
# number of rings (size 3 to 8) (size 9 to 14) (size 15 to 20)
#    0.000    3.182    0.909    2.727    0.000    3.636 
#    0.000    1.818    0.000    1.636    0.000    2.545 
#    0.000    0.000    0.000   13.091   14.545    5.818 
#
# Total GULP energy -545226.805845 kJ/mol
# GULP energy per Si atom -12391.518315 kJ/mol
# Density = 1.526979 g / cm^3
# Si number density = 15.304619 Si / 1000 Ang^3
#
#
#
# Elastic Constant Matrix: (Units=GPa)
#
#
# Indices 1 2 3 4 5 6 
#
# 1 31.4388 15.2056 23.1634 0.0000 0.0000 0.0000
# 2 15.2056 109.5719 36.2031 0.0000 0.0000 0.0000
# 3 23.1634 36.2031 69.9182 0.0000 0.0000 0.0000
# 4 0.0000 0.0000 0.0000 24.0566 0.0000 0.0000
# 5 0.0000 0.0000 0.0000 0.0000 1.3421 0.0000
# 6 0.0000 0.0000 0.0000 0.0000 0.0000 12.3388
#
#
#
# Elastic Compliance Matrix: (Units=1/GPa)
#
#
# Indices 1 2 3 4 5 6 
#
# 1 0.042281 -0.001495 -0.013233 0.000000 0.000000 0.000000
# 2 -0.001495 0.011063 -0.005233 0.000000 0.000000 0.000000
# 3 -0.013233 -0.005233 0.021396 0.000000 0.000000 0.000000
# 4 0.000000 0.000000 0.000000 0.041569 0.000000 0.000000
# 5 0.000000 0.000000 0.000000 0.000000 0.745126 0.000000
# 6 0.000000 0.000000 0.000000 0.000000 0.000000 0.081045
#
#
# Mechanical properties :
#
#
# Convention : Reuss Voigt Hill
#
# Bulk Modulus (GPa) = 28.72132 40.00813 34.36473
# Shear Modulus (GPa) = 5.03014 16.63794 10.83404
#
# Velocity S-wave (km/s) = 1.81489 3.30073 2.66351
# Velocity P-wave (km/s) = 4.81653 6.38156 5.65346
#
# Compressibility (1/GPa) = 0.03481734
#
# Stress axis : x y z
#
# Youngs Moduli (GPa) = 23.65132 90.39215 46.73754
#
# Poissons Ratio (x) = 0.13515 0.61849
# Poissons Ratio (y) = 0.03536 0.24458
# Poissons Ratio (z) = 0.31298 0.47302
#
# Static dielectric constant tensor:
#      x y z
#    x 2.380540 0.000000 0.000000 
#    y 0.000000 3.479490 0.000000 
#    z 0.000000 0.000000 2.793680 
# 
# 
# High freq. dielectric constant tensor:
#      x y z
#    x 1.518290 0.000000 0.000000 
#    y 0.000000 1.604860 0.000000 
#    z 0.000000 0.000000 1.570330 
# 
# From -- ./inp_files/46890.got.cif
#   From: 2010.03.12/outbox.cif.g09.slc.cpg/sg65_24_cif.got.tgz:46890.got - 2010.04.10 20:52:16.
