data_PCOD8267102
_publ_section_title
;
Structure prediction by ZEFSAII (Michael W. Deem and Ramdas Pophale) SiO2 
 PCOD8267102
Probable space group: C M M M
;
_chemical_formula_sum "Si O2"
_cell_formula_units_Z 88
_cell_length_a 19.356222
_cell_length_b 21.216833
_cell_length_c 14.476865
_cell_angle_alpha 90.000000
_cell_angle_beta 90.000000
_cell_angle_gamma 90.000000
_cell_volume 5945.326051
_symmetry_space_group_name_H-M "C M M M"
_symmetry_group_IT_number 65
_symmetry_cell_setting 'orthorhombic'
loop_
_space_group_symop_operation_xyz
x,y,z
-x,-y,z
x,-y,-z
-x,y,-z
-x,-y,-z
x,y,-z
-x,y,z
x,-y,z
1/2+x,1/2+y,z
1/2-x,1/2-y,z
1/2+x,1/2-y,-z
1/2-x,1/2+y,-z
1/2-x,1/2-y,-z
1/2+x,1/2+y,-z
1/2-x,1/2+y,z
1/2+x,1/2-y,z
loop_
_atom_site_type_symbol
_atom_site_label
_atom_site_fract_x
_atom_site_fract_y
_atom_site_fract_z
Si Si1 0.697200 0.427900 0.395667
Si Si2 0.579758 0.243008 0.606546
Si Si3 0.081470 0.929612 0.101053
Si Si4 0.159751 0.380190 0.609723
Si Si5 0.422205 0.000000 0.389667
Si Si6 0.580273 0.369238 0.713507
O O1 0.681351 0.407735 0.500000
O O2 0.721455 0.500000 0.389877
O O3 0.760747 0.385788 0.355983
O O4 0.626541 0.419075 0.340811
O O5 0.596601 0.261832 0.500000
O O6 0.500000 0.222557 0.614456
O O7 0.627132 0.185776 0.641925
O O8 0.597114 0.299754 0.676083
O O9 0.101324 0.877666 0.178626
O O10 0.000000 0.933676 0.094732
O O11 0.109598 0.000000 0.126455
O O12 0.110877 0.908900 0.000000
O O13 0.157837 0.384903 0.500000
O O14 0.115128 0.437836 0.650489
O O15 0.500000 0.000000 0.351989
O O16 0.420901 0.000000 0.500000
O O17 0.500000 0.386163 0.696400
#
# Coordination Sequence:
#
# PCOD8267102 Si02
#       6
#    16  16  16  16   8  16
#     4  10  19  29  40  56  82 113 145 179 206 234
#     4   9  17  28  41  59  84 112 143 175 202 239
#     4   8  14  26  44  63  80  99 130 174 215 246
#     4   9  16  27  40  56  79 107 141 179 214 244
#     4   9  14  22  40  60  75  99 136 179 225 253
#     4  10  19  29  41  59  84 113 141 166 197 241
#
# _framework density 14.801543000000001
#
# number of rings (size 3 to 8) (size 9 to 14) (size 15 to 20)
#    0.000    2.818    0.909    2.182    0.000    5.091 
#    0.000    3.636    0.000    0.000    0.000    2.545 
#    0.000    0.000    0.000    0.182    0.000   18.000 
#
# Total GULP energy -545260.095669 kJ/mol
# GULP energy per Si atom -12392.274902 kJ/mol
# Density = 1.476785 g / cm^3
# Si number density = 14.801543 Si / 1000 Ang^3
#
#
#
# Elastic Constant Matrix: (Units=GPa)
#
#
# Indices 1 2 3 4 5 6 
#
# 1 67.8609 36.3279 34.0995 0.0000 0.0000 0.0000
# 2 36.3279 87.4325 51.8681 0.0000 0.0000 0.0000
# 3 34.0995 51.8681 76.3488 0.0000 0.0000 0.0000
# 4 0.0000 0.0000 0.0000 3.6940 0.0000 0.0000
# 5 0.0000 0.0000 0.0000 0.0000 5.8575 0.0000
# 6 0.0000 0.0000 0.0000 0.0000 0.0000 24.6152
#
#
#
# Elastic Compliance Matrix: (Units=1/GPa)
#
#
# Indices 1 2 3 4 5 6 
#
# 1 0.020279 -0.005114 -0.005583 0.000000 0.000000 0.000000
# 2 -0.005114 0.020448 -0.011608 0.000000 0.000000 0.000000
# 3 -0.005583 -0.011608 0.023477 0.000000 0.000000 0.000000
# 4 0.000000 0.000000 0.000000 0.270708 0.000000 0.000000
# 5 0.000000 0.000000 0.000000 0.000000 0.170721 0.000000
# 6 0.000000 0.000000 0.000000 0.000000 0.000000 0.040625
#
#
# Mechanical properties :
#
#
# Convention : Reuss Voigt Hill
#
# Bulk Modulus (GPa) = 51.03277 52.91479 51.97378
# Shear Modulus (GPa) = 8.36961 14.12312 11.24637
#
# Velocity S-wave (km/s) = 2.38051 3.09231 2.75946
# Velocity P-wave (km/s) = 6.48912 6.96972 6.73371
#
# Compressibility (1/GPa) = 0.01959525
#
# Stress axis : x y z
#
# Youngs Moduli (GPa) = 49.31202 48.90386 42.59460
#
# Poissons Ratio (x) = 0.25008 0.23781
# Poissons Ratio (y) = 0.25217 0.49443
# Poissons Ratio (z) = 0.27531 0.56766
#
# Static dielectric constant tensor:
#      x y z
#    x 2.837140 0.000000 0.000000 
#    y 0.000000 2.887410 0.000000 
#    z 0.000000 0.000000 2.784840 
# 
# 
# High freq. dielectric constant tensor:
#      x y z
#    x 1.559530 0.000000 0.000000 
#    y 0.000000 1.565250 0.000000 
#    z 0.000000 0.000000 1.516150 
# 
# From -- ./inp_files/42736.got.cif
#   From: 2010.03.12/outbox.cif.g09.slc.cpg/sg65_22_cif.got.tgz:42736.got - 2010.04.10 20:52:16.
