data_PCOD8267645
_publ_section_title
;
Structure prediction by ZEFSAII (Michael W. Deem and Ramdas Pophale) SiO2 
 PCOD8267645
Probable space group: C M M M
;
_chemical_formula_sum "Si O2"
_cell_formula_units_Z 104
_cell_length_a 9.358529
_cell_length_b 28.545577
_cell_length_c 20.374980
_cell_angle_alpha 90.000000
_cell_angle_beta 90.000000
_cell_angle_gamma 90.000000
_cell_volume 5443.066089
_symmetry_space_group_name_H-M "C M M M"
_symmetry_group_IT_number 65
_symmetry_cell_setting 'orthorhombic'
loop_
_space_group_symop_operation_xyz
x,y,z
-x,-y,z
x,-y,-z
-x,y,-z
-x,-y,-z
x,y,-z
-x,y,z
x,-y,z
1/2+x,1/2+y,z
1/2-x,1/2-y,z
1/2+x,1/2-y,-z
1/2-x,1/2+y,-z
1/2-x,1/2-y,-z
1/2+x,1/2+y,-z
1/2-x,1/2+y,z
1/2+x,1/2-y,z
loop_
_atom_site_type_symbol
_atom_site_label
_atom_site_fract_x
_atom_site_fract_y
_atom_site_fract_z
Si Si1 0.331930 0.701349 0.500000
Si Si2 0.334201 0.296176 0.740499
Si Si3 0.333296 0.361691 0.377382
Si Si4 0.833385 0.552915 0.424642
Si Si5 0.841539 0.950142 0.858550
Si Si6 0.829832 0.849353 0.869338
Si Si7 0.339757 0.149437 0.000000
Si Si8 0.249739 0.549643 0.000000
O O1 0.500000 0.711959 0.500000
O O2 0.250000 0.750000 0.500000
O O3 0.284580 0.672058 0.563629
O O4 0.500000 0.284409 0.733134
O O5 0.250000 0.250000 0.720684
O O6 0.291369 0.337554 0.691017
O O7 0.294970 0.310920 0.814538
O O8 0.500000 0.372738 0.382395
O O9 0.252671 0.411184 0.379403
O O10 0.786204 0.559552 0.500000
O O11 0.798022 0.500000 0.401650
O O12 0.000000 0.563296 0.416699
O O13 0.772194 0.899823 0.839568
O O14 0.852440 0.947889 0.937328
O O15 0.000000 0.952294 0.828810
O O16 0.763287 0.000000 0.837339
O O17 0.746672 0.834054 0.935266
O O18 0.000000 0.852804 0.883569
O O19 0.358847 0.093212 0.000000
O O20 0.500000 0.171238 0.000000
O O21 0.163192 0.500000 0.000000
#
# Coordination Sequence:
#
# PCOD8267645 Si02
#       8
#     8  16  16  16  16  16   8   8
#     4  10  20  32  49  76 109 141 178 225 273 320
#     4  10  22  39  58  79 105 138 180 225 276 336
#     4  10  20  35  54  81 113 145 182 227 274 323
#     4   9  18  33  54  82 115 151 191 229 265 314
#     4   8  12  20  39  66  93 123 159 197 239 292
#     4   9  18  34  53  74 102 136 172 217 267 321
#     4  10  19  30  49  77 103 130 170 218 266 322
#     4   8  13  21  35  60  96 130 156 188 236 294
#
# _framework density 19.106878999999999
#
# number of rings (size 3 to 8) (size 9 to 14) (size 15 to 20)
#    0.000    2.769    0.769    1.385    0.000    5.077 
#    0.000    1.923    0.000    2.769    0.000    0.000 
#    0.000    0.000    0.000    0.000    0.000    0.000 
#
# Total GULP energy -644217.020981 kJ/mol
# GULP energy per Si atom -12388.788865 kJ/mol
# Density = 1.906339 g / cm^3
# Si number density = 19.106879 Si / 1000 Ang^3
#
#
#
# Elastic Constant Matrix: (Units=GPa)
#
#
# Indices 1 2 3 4 5 6 
#
# 1 62.4102 50.9980 42.8002 0.0000 0.0000 0.0000
# 2 50.9980 117.4138 44.8016 0.0000 0.0000 0.0000
# 3 42.8002 44.8016 92.7229 0.0000 0.0000 0.0000
# 4 0.0000 0.0000 0.0000 21.2837 0.0000 0.0000
# 5 0.0000 0.0000 0.0000 0.0000 16.2590 0.0000
# 6 0.0000 0.0000 0.0000 0.0000 0.0000 28.5625
#
#
#
# Elastic Compliance Matrix: (Units=1/GPa)
#
#
# Indices 1 2 3 4 5 6 
#
# 1 0.030252 -0.009577 -0.009337 0.000000 0.000000 0.000000
# 2 -0.009577 0.013474 -0.002090 0.000000 0.000000 0.000000
# 3 -0.009337 -0.002090 0.016104 0.000000 0.000000 0.000000
# 4 0.000000 0.000000 0.000000 0.046984 0.000000 0.000000
# 5 0.000000 0.000000 0.000000 0.000000 0.061504 0.000000
# 6 0.000000 0.000000 0.000000 0.000000 0.000000 0.035011
#
#
# Mechanical properties :
#
#
# Convention : Reuss Voigt Hill
#
# Bulk Modulus (GPa) = 56.10612 61.08295 58.59453
# Shear Modulus (GPa) = 19.89833 22.15083 21.02458
#
# Velocity S-wave (km/s) = 3.23061 3.40856 3.32078
# Velocity P-wave (km/s) = 6.58361 6.89417 6.74068
#
# Compressibility (1/GPa) = 0.01782337
#
# Stress axis : x y z
#
# Youngs Moduli (GPa) = 33.05586 74.21705 62.09576
#
# Poissons Ratio (x) = 0.71079 0.57976
# Poissons Ratio (y) = 0.31658 0.12975
# Poissons Ratio (z) = 0.30863 0.15508
#
# Static dielectric constant tensor:
#      x y z
#    x 3.109440 0.000000 0.000000 
#    y 0.000000 3.616880 0.000000 
#    z 0.000000 0.000000 3.335940 
# 
# 
# High freq. dielectric constant tensor:
#      x y z
#    x 1.709180 0.000000 0.000000 
#    y 0.000000 1.751130 0.000000 
#    z 0.000000 0.000000 1.722990 
# 
# From -- ./inp_files/60938.got.cif
#   From: 2010.03.12/outbox.cif.g09.slc.cpg/sg65_31_cif.got.tgz:60938.got - 2010.04.10 20:52:16.
