data_PCOD8267281
_publ_section_title
;
Structure prediction by ZEFSAII (Michael W. Deem and Ramdas Pophale) SiO2 
 PCOD8267281
Probable space group: C M M M
;
_chemical_formula_sum "Si O2"
_cell_formula_units_Z 88
_cell_length_a 20.339274
_cell_length_b 19.592140
_cell_length_c 11.897430
_cell_angle_alpha 90.000000
_cell_angle_beta 90.000000
_cell_angle_gamma 90.000000
_cell_volume 4741.005735
_symmetry_space_group_name_H-M "C M M M"
_symmetry_group_IT_number 65
_symmetry_cell_setting 'orthorhombic'
loop_
_space_group_symop_operation_xyz
x,y,z
-x,-y,z
x,-y,-z
-x,y,-z
-x,-y,-z
x,y,-z
-x,y,z
x,-y,z
1/2+x,1/2+y,z
1/2-x,1/2-y,z
1/2+x,1/2-y,-z
1/2-x,1/2+y,-z
1/2-x,1/2-y,-z
1/2+x,1/2+y,-z
1/2-x,1/2+y,z
1/2+x,1/2-y,z
loop_
_atom_site_type_symbol
_atom_site_label
_atom_site_fract_x
_atom_site_fract_y
_atom_site_fract_z
Si Si1 0.362770 0.781662 0.500000
Si Si2 0.124647 0.078291 0.726609
Si Si3 0.575389 0.305745 0.870656
Si Si4 0.924473 0.142660 0.500000
Si Si5 0.339905 0.072519 0.500000
Si Si6 0.182219 0.282360 0.747463
Si Si7 0.222428 0.574152 0.264778
O O1 0.420556 0.725526 0.500000
O O2 0.388661 0.861252 0.500000
O O3 0.319613 0.772251 0.387430
O O4 0.084110 0.118232 0.821745
O O5 0.111742 0.112216 0.606992
O O6 0.200864 0.086063 0.756485
O O7 0.101333 0.000000 0.726089
O O8 0.500000 0.283008 0.855595
O O9 0.619366 0.251847 0.803634
O O10 0.596672 0.306234 0.000000
O O11 0.000000 0.120707 0.500000
O O12 0.289748 0.074046 0.602873
O O13 0.380275 0.000000 0.500000
O O14 0.250000 0.250000 0.791702
O O15 0.181738 0.362213 0.786336
O O16 0.200992 0.500000 0.213081
#
# Coordination Sequence:
#
# PCOD8267281 Si02
#       7
#     8  16  16   8   8  16  16
#     4  10  19  29  54  85 115 142 178 227 283 338
#     4  11  22  37  56  81 115 150 187 230 280 336
#     4  11  25  42  58  78 108 150 198 242 282 329
#     4  12  22  33  50  80 117 152 189 227 275 338
#     4   8  15  27  47  77 115 149 174 209 267 339
#     4  11  19  35  59  87 113 147 187 231 282 341
#     4   9  17  31  53  84 116 145 179 224 277 331
#
# _framework density 18.561463
#
# number of rings (size 3 to 8) (size 9 to 14) (size 15 to 20)
#    0.000    1.636    3.636    1.636    0.000    5.455 
#    0.000    0.909    0.000    1.364    0.000    6.364 
#    0.000    0.000    0.000    0.000    0.000    0.000 
#
# Total GULP energy -545265.170028 kJ/mol
# GULP energy per Si atom -12392.390228 kJ/mol
# Density = 1.851922 g / cm^3
# Si number density = 18.561463 Si / 1000 Ang^3
#
#
#
# Elastic Constant Matrix: (Units=GPa)
#
#
# Indices 1 2 3 4 5 6 
#
# 1 63.0502 55.3673 31.1625 0.0000 0.0000 0.0000
# 2 55.3673 171.5392 48.0504 0.0000 0.0000 0.0000
# 3 31.1625 48.0504 83.1924 0.0000 0.0000 0.0000
# 4 0.0000 0.0000 0.0000 3.8891 0.0000 0.0000
# 5 0.0000 0.0000 0.0000 0.0000 15.1430 0.0000
# 6 0.0000 0.0000 0.0000 0.0000 0.0000 25.0848
#
#
#
# Elastic Compliance Matrix: (Units=1/GPa)
#
#
# Indices 1 2 3 4 5 6 
#
# 1 0.024001 -0.006237 -0.005388 0.000000 0.000000 0.000000
# 2 -0.006237 0.008576 -0.002617 0.000000 0.000000 0.000000
# 3 -0.005388 -0.002617 0.015550 0.000000 0.000000 0.000000
# 4 0.000000 0.000000 0.000000 0.257129 0.000000 0.000000
# 5 0.000000 0.000000 0.000000 0.000000 0.066037 0.000000
# 6 0.000000 0.000000 0.000000 0.000000 0.000000 0.039865
#
#
# Mechanical properties :
#
#
# Convention : Reuss Voigt Hill
#
# Bulk Modulus (GPa) = 50.90982 65.21579 58.06280
# Shear Modulus (GPa) = 11.20604 21.03683 16.12143
#
# Velocity S-wave (km/s) = 2.45975 3.37019 2.95030
# Velocity P-wave (km/s) = 5.96275 7.09617 6.55401
#
# Compressibility (1/GPa) = 0.01964258
#
# Stress axis : x y z
#
# Youngs Moduli (GPa) = 41.66558 116.60687 64.30938
#
# Poissons Ratio (x) = 0.72733 0.34647
# Poissons Ratio (y) = 0.25989 0.16828
# Poissons Ratio (z) = 0.22448 0.30513
#
# Static dielectric constant tensor:
#      x y z
#    x 3.087160 0.000000 0.000000 
#    y 0.000000 4.075560 0.000000 
#    z 0.000000 0.000000 3.259260 
# 
# 
# High freq. dielectric constant tensor:
#      x y z
#    x 1.689550 0.000000 0.000000 
#    y 0.000000 1.745350 0.000000 
#    z 0.000000 0.000000 1.695690 
# 
# From -- ./inp_files/26873.got.cif
#   From: 2010.03.12/outbox.cif.g09.slc.cpg/sg65_14_cif.got.tgz:26873.got - 2010.04.10 20:52:16.
