data_PCOD8267919
_publ_section_title
;
Structure prediction by ZEFSAII (Michael W. Deem and Ramdas Pophale) SiO2 
 PCOD8267919
Probable space group: C M M M
;
_chemical_formula_sum "Si O2"
_cell_formula_units_Z 64
_cell_length_a 25.846728
_cell_length_b 7.859045
_cell_length_c 18.405147
_cell_angle_alpha 90.000000
_cell_angle_beta 90.000000
_cell_angle_gamma 90.000000
_cell_volume 3738.648525
_symmetry_space_group_name_H-M "C M M M"
_symmetry_group_IT_number 65
_symmetry_cell_setting 'orthorhombic'
loop_
_space_group_symop_operation_xyz
x,y,z
-x,-y,z
x,-y,-z
-x,y,-z
-x,-y,-z
x,y,-z
-x,y,z
x,-y,z
1/2+x,1/2+y,z
1/2-x,1/2-y,z
1/2+x,1/2-y,-z
1/2-x,1/2+y,-z
1/2-x,1/2-y,-z
1/2+x,1/2+y,-z
1/2-x,1/2+y,z
1/2+x,1/2-y,z
loop_
_atom_site_type_symbol
_atom_site_label
_atom_site_fract_x
_atom_site_fract_y
_atom_site_fract_z
Si Si1 0.805790 0.799661 0.081198
Si Si2 0.000000 0.302828 0.914503
Si Si3 0.938527 0.000000 0.418846
Si Si4 0.440052 0.809829 0.678998
Si Si5 0.098316 0.196482 0.828314
O O1 0.750000 0.750000 0.114271
O O2 0.850816 0.725900 0.132645
O O3 0.812172 0.000000 0.076933
O O4 0.811189 0.720735 0.000000
O O5 0.949552 0.214046 0.882507
O O6 0.000000 0.500000 0.892684
O O7 0.000000 0.273711 0.000000
O O8 0.918921 0.829524 0.378072
O O9 0.914932 0.000000 0.500000
O O10 0.000000 0.000000 0.422984
O O11 0.500000 0.772440 0.696571
O O12 0.409262 0.799624 0.754227
O O13 0.432672 0.000000 0.646387
O O14 0.105544 0.000000 0.807685
#
# Coordination Sequence:
#
# PCOD8267919 Si02
#       5
#    16   8   8  16  16
#     4   9  19  34  50  68  92 127 170 216 262 303
#     4  11  23  33  43  67  97 128 173 217 253 301
#     4   9  18  32  50  72 100 136 170 200 244 301
#     4  10  19  31  48  72 102 135 169 204 249 297
#     4  11  20  32  50  69  96 133 171 210 255 305
#
# _framework density 17.118485
#
# number of rings (size 3 to 8) (size 9 to 14) (size 15 to 20)
#    0.000    2.000    2.500    1.875    0.000    4.500 
#    0.000    5.000    0.000    0.000    0.000    0.000 
#    0.000    1.000    0.500    0.000    0.000    0.000 
#
# Total GULP energy -396820.613172 kJ/mol
# GULP energy per Si atom -12400.644162 kJ/mol
# Density = 1.707952 g / cm^3
# Si number density = 17.118485 Si / 1000 Ang^3
#
#
#
# Elastic Constant Matrix: (Units=GPa)
#
#
# Indices 1 2 3 4 5 6 
#
# 1 100.0726 18.0484 46.6666 0.0000 0.0000 0.0000
# 2 18.0484 84.0234 41.2585 0.0000 0.0000 0.0000
# 3 46.6666 41.2585 112.1003 0.0000 0.0000 0.0000
# 4 0.0000 0.0000 0.0000 19.4564 0.0000 0.0000
# 5 0.0000 0.0000 0.0000 0.0000 14.0132 0.0000
# 6 0.0000 0.0000 0.0000 0.0000 0.0000 17.6005
#
#
#
# Elastic Compliance Matrix: (Units=1/GPa)
#
#
# Indices 1 2 3 4 5 6 
#
# 1 0.012402 -0.000157 -0.005105 0.000000 0.000000 0.000000
# 2 -0.000157 0.014529 -0.005282 0.000000 0.000000 0.000000
# 3 -0.005105 -0.005282 0.012990 0.000000 0.000000 0.000000
# 4 0.000000 0.000000 0.000000 0.051397 0.000000 0.000000
# 5 0.000000 0.000000 0.000000 0.000000 0.071361 0.000000
# 6 0.000000 0.000000 0.000000 0.000000 0.000000 0.056817
#
#
# Mechanical properties :
#
#
# Convention : Reuss Voigt Hill
#
# Bulk Modulus (GPa) = 53.10047 56.46038 54.78042
# Shear Modulus (GPa) = 20.25434 22.89551 21.57493
#
# Velocity S-wave (km/s) = 3.44348 3.66112 3.55396
# Velocity P-wave (km/s) = 6.84812 7.13620 6.99365
#
# Compressibility (1/GPa) = 0.01883222
#
# Stress axis : x y z
#
# Youngs Moduli (GPa) = 80.63452 68.82873 76.98406
#
# Poissons Ratio (x) = 0.01082 0.39299
# Poissons Ratio (y) = 0.01268 0.40662
# Poissons Ratio (z) = 0.41163 0.36355
#
# Static dielectric constant tensor:
#      x y z
#    x 3.073700 0.000000 0.000000 
#    y 0.000000 3.255340 0.000000 
#    z 0.000000 0.000000 3.192750 
# 
# 
# High freq. dielectric constant tensor:
#      x y z
#    x 1.624800 0.000000 0.000000 
#    y 0.000000 1.671750 0.000000 
#    z 0.000000 0.000000 1.643570 
# 
# From -- ./inp_files/36391.got.cif
#   From: 2010.03.12/outbox.cif.g09.slc.cpg/sg65_19_cif.got.tgz:36391.got - 2010.04.10 20:52:16.
