data_PCOD8267095
_publ_section_title
;
Structure prediction by ZEFSAII (Michael W. Deem and Ramdas Pophale) SiO2 
 PCOD8267095
Probable space group: C M M M
;
_chemical_formula_sum "Si O2"
_cell_formula_units_Z 88
_cell_length_a 25.536762
_cell_length_b 21.665769
_cell_length_c 7.937552
_cell_angle_alpha 90.000000
_cell_angle_beta 90.000000
_cell_angle_gamma 90.000000
_cell_volume 4391.637863
_symmetry_space_group_name_H-M "C M M M"
_symmetry_group_IT_number 65
_symmetry_cell_setting 'orthorhombic'
loop_
_space_group_symop_operation_xyz
x,y,z
-x,-y,z
x,-y,-z
-x,y,-z
-x,-y,-z
x,y,-z
-x,y,z
x,-y,z
1/2+x,1/2+y,z
1/2-x,1/2-y,z
1/2+x,1/2-y,-z
1/2-x,1/2+y,-z
1/2-x,1/2-y,-z
1/2+x,1/2+y,-z
1/2-x,1/2+y,z
1/2+x,1/2-y,z
loop_
_atom_site_type_symbol
_atom_site_label
_atom_site_fract_x
_atom_site_fract_y
_atom_site_fract_z
Si Si1 0.388720 0.570296 0.700891
Si Si2 0.696543 0.332711 0.697665
Si Si3 0.500000 0.615538 0.691068
Si Si4 0.811579 0.308192 0.300446
Si Si5 0.500000 0.750343 0.806708
Si Si6 0.560253 0.065589 0.500000
Si Si7 0.583329 0.148641 0.188037
O O1 0.389408 0.575779 0.500000
O O2 0.375996 0.500000 0.757239
O O3 0.343741 0.616580 0.776728
O O4 0.446196 0.589417 0.774623
O O5 0.690474 0.337432 0.500000
O O6 0.757400 0.343070 0.747230
O O7 0.685054 0.263161 0.755655
O O8 0.500000 0.592565 0.500000
O O9 0.500000 0.689597 0.693783
O O10 0.822630 0.314278 0.500000
O O11 0.855072 0.340219 0.188145
O O12 0.551490 0.789845 0.761852
O O13 0.500000 0.729232 0.000000
O O14 0.500000 0.053314 0.500000
O O15 0.573572 0.097968 0.326582
O O16 0.590360 0.000000 0.500000
O O17 0.566223 0.126715 0.000000
#
# Coordination Sequence:
#
# PCOD8267095 Si02
#       7
#    16  16   8  16   8   8  16
#     4   9  16  27  43  71 109 143 186 237 280 330
#     4   8  15  27  46  74 105 153 195 239 294 339
#     4  10  19  28  50  80 105 143 185 224 281 333
#     4   9  16  30  53  77 110 145 190 242 292 349
#     4  10  22  35  51  82 116 141 171 222 280 333
#     4  11  24  42  64  85 110 152 192 222 277 351
#     4  11  22  37  58  88 119 148 185 236 289 338
#
# _framework density 20.038083
#
# number of rings (size 3 to 8) (size 9 to 14) (size 15 to 20)
#    0.000    2.455    1.818    2.455    1.273    2.909 
#    0.000    3.636    0.000    2.182    0.000    0.000 
#    0.000    0.000    0.000    0.000    0.000    0.000 
#
# Total GULP energy -545157.911897 kJ/mol
# GULP energy per Si atom -12389.952543 kJ/mol
# Density = 1.999248 g / cm^3
# Si number density = 20.038083 Si / 1000 Ang^3
#
#
#
# Elastic Constant Matrix: (Units=GPa)
#
#
# Indices 1 2 3 4 5 6 
#
# 1 153.7335 70.0061 17.4328 0.0000 0.0000 0.0000
# 2 70.0061 130.8833 30.6433 0.0000 0.0000 0.0000
# 3 17.4328 30.6433 52.5322 0.0000 0.0000 0.0000
# 4 0.0000 0.0000 0.0000 -1.1928 0.0000 0.0000
# 5 0.0000 0.0000 0.0000 0.0000 -3.6955 0.0000
# 6 0.0000 0.0000 0.0000 0.0000 0.0000 27.2953
#
#
#
# Elastic Compliance Matrix: (Units=1/GPa)
#
#
# Indices 1 2 3 4 5 6 
#
# 1 0.008601 -0.004554 -0.000198 0.000000 0.000000 0.000000
# 2 -0.004554 0.011260 -0.005057 0.000000 0.000000 0.000000
# 3 -0.000198 -0.005057 0.022051 0.000000 0.000000 0.000000
# 4 0.000000 0.000000 0.000000 -0.838383 0.000000 0.000000
# 5 0.000000 0.000000 0.000000 0.000000 -0.270599 0.000000
# 6 0.000000 0.000000 0.000000 0.000000 0.000000 0.036636
#
#
# Mechanical properties :
#
#
# Convention : Reuss Voigt Hill
#
# Bulk Modulus (GPa) = 44.85336 63.70149 54.27742
# Shear Modulus (GPa) = -4.98314 19.08586 7.05136
#
# Velocity S-wave (km/s) = -1.57868 3.08957 1.87793
# Velocity P-wave (km/s) = 4.37146 6.67731 5.64341
#
# Compressibility (1/GPa) = 0.02229487
#
# Stress axis : x y z
#
# Youngs Moduli (GPa) = 116.26505 88.80736 45.34841
#
# Poissons Ratio (x) = 0.40445 0.00896
# Poissons Ratio (y) = 0.52949 0.22933
# Poissons Ratio (z) = 0.02298 0.44911
#
# Static dielectric constant tensor:
#      x y z
#    x 4.043690 0.000000 0.000000 
#    y 0.000000 2.972840 0.000000 
#    z 0.000000 0.000000 3.172720 
# 
# 
# High freq. dielectric constant tensor:
#      x y z
#    x 1.795090 0.000000 0.000000 
#    y 0.000000 1.763670 0.000000 
#    z 0.000000 0.000000 1.748520 
# 
# From -- ./inp_files/14078.got.cif
#   From: 2010.03.12/outbox.cif.g09.slc.cpg/sg65_8_cif.got.tgz:14078.got - 2010.04.10 20:52:16.
