data_PCOD8267615
_publ_section_title
;
Structure prediction by ZEFSAII (Michael W. Deem and Ramdas Pophale) SiO2 
 PCOD8267615
Probable space group: C M M M
;
_chemical_formula_sum "Si O2"
_cell_formula_units_Z 104
_cell_length_a 25.096006
_cell_length_b 14.208514
_cell_length_c 17.296505
_cell_angle_alpha 90.000000
_cell_angle_beta 90.000000
_cell_angle_gamma 90.000000
_cell_volume 6167.535043
_symmetry_space_group_name_H-M "C M M M"
_symmetry_group_IT_number 65
_symmetry_cell_setting 'orthorhombic'
loop_
_space_group_symop_operation_xyz
x,y,z
-x,-y,z
x,-y,-z
-x,y,-z
-x,-y,-z
x,y,-z
-x,y,z
x,-y,z
1/2+x,1/2+y,z
1/2-x,1/2-y,z
1/2+x,1/2-y,-z
1/2-x,1/2+y,-z
1/2-x,1/2-y,-z
1/2+x,1/2+y,-z
1/2-x,1/2+y,z
1/2+x,1/2-y,z
loop_
_atom_site_type_symbol
_atom_site_label
_atom_site_fract_x
_atom_site_fract_y
_atom_site_fract_z
Si Si1 0.637984 0.398607 0.143124
Si Si2 0.821958 0.659386 0.000000
Si Si3 0.792958 0.127110 0.000000
Si Si4 0.672486 0.888628 0.287882
Si Si5 0.000000 0.611534 0.089154
Si Si6 0.891306 0.690337 0.856328
Si Si7 0.793708 0.894454 0.706339
Si Si8 0.186954 0.251016 0.585258
O O1 0.605906 0.500000 0.149192
O O2 0.679437 0.415052 0.074819
O O3 0.602894 0.304177 0.131693
O O4 0.671423 0.381385 0.219009
O O5 0.799165 0.762630 0.000000
O O6 0.769164 0.594369 0.000000
O O7 0.856785 0.641094 0.923705
O O8 0.634832 0.837905 0.225236
O O9 0.734019 0.860967 0.270526
O O10 0.662505 0.844384 0.373276
O O11 0.661287 0.000000 0.288765
O O12 0.950085 0.649608 0.137150
O O13 0.000000 0.500000 0.090718
O O14 0.000000 0.647910 0.000000
O O15 0.824714 0.838076 0.639568
O O16 0.790127 0.000000 0.675205
O O17 0.160314 0.242553 0.500000
O O18 0.250000 0.250000 0.574889
#
# Coordination Sequence:
#
# PCOD8267615 Si02
#       8
#    16   8   8  16   8  16  16  16
#     4  10  19  31  49  74 105 135 163 200 248 300
#     4   9  18  29  49  71  97 135 171 200 242 291
#     4   9  17  28  44  73 104 136 168 199 233 288
#     4  10  19  30  48  73  99 136 178 210 247 300
#     4  11  24  42  57  73  96 126 172 227 271 301
#     4  11  20  36  55  71  97 132 171 217 263 300
#     4   9  17  29  46  72 106 139 170 205 243 293
#     4   9  17  29  45  68 103 141 170 204 246 294
#
# _framework density 16.862490999999999
#
# number of rings (size 3 to 8) (size 9 to 14) (size 15 to 20)
#    0.000    2.231    2.308    1.615    0.000    1.846 
#    0.000    5.769    0.000    0.462    0.000    0.538 
#    0.000    1.846    0.000    3.385    0.000    0.154 
#
# Total GULP energy -644222.259114 kJ/mol
# GULP energy per Si atom -12388.889598 kJ/mol
# Density = 1.682411 g / cm^3
# Si number density = 16.862491 Si / 1000 Ang^3
#
#
#
# Elastic Constant Matrix: (Units=GPa)
#
#
# Indices 1 2 3 4 5 6 
#
# 1 60.1823 32.4808 22.8641 0.0000 0.0000 0.0000
# 2 32.4808 102.0877 39.6511 0.0000 0.0000 0.0000
# 3 22.8641 39.6511 119.4446 0.0000 0.0000 0.0000
# 4 0.0000 0.0000 0.0000 24.8362 0.0000 0.0000
# 5 0.0000 0.0000 0.0000 0.0000 15.0237 0.0000
# 6 0.0000 0.0000 0.0000 0.0000 0.0000 15.4729
#
#
#
# Elastic Compliance Matrix: (Units=1/GPa)
#
#
# Indices 1 2 3 4 5 6 
#
# 1 0.020476 -0.005731 -0.002017 0.000000 0.000000 0.000000
# 2 -0.005731 0.012850 -0.003169 0.000000 0.000000 0.000000
# 3 -0.002017 -0.003169 0.009810 0.000000 0.000000 0.000000
# 4 0.000000 0.000000 0.000000 0.040264 0.000000 0.000000
# 5 0.000000 0.000000 0.000000 0.000000 0.066561 0.000000
# 6 0.000000 0.000000 0.000000 0.000000 0.000000 0.064629
#
#
# Mechanical properties :
#
#
# Convention : Reuss Voigt Hill
#
# Bulk Modulus (GPa) = 46.94412 52.41183 49.67798
# Shear Modulus (GPa) = 20.53187 23.51446 22.02316
#
# Velocity S-wave (km/s) = 3.49321 3.73833 3.61784
# Velocity P-wave (km/s) = 6.64604 7.05570 6.85393
#
# Compressibility (1/GPa) = 0.02130192
#
# Stress axis : x y z
#
# Youngs Moduli (GPa) = 48.83856 77.82312 101.93699
#
# Poissons Ratio (x) = 0.44603 0.20559
# Poissons Ratio (y) = 0.27991 0.32299
# Poissons Ratio (z) = 0.09850 0.24658
#
# Static dielectric constant tensor:
#      x y z
#    x 2.756210 0.000000 0.000000 
#    y 0.000000 3.454550 0.000000 
#    z 0.000000 0.000000 3.280470 
# 
# 
# High freq. dielectric constant tensor:
#      x y z
#    x 1.589690 0.000000 0.000000 
#    y 0.000000 1.670590 0.000000 
#    z 0.000000 0.000000 1.650640 
# 
# From -- ./inp_files/55914.got.cif
#   From: 2010.03.12/outbox.cif.g09.slc.cpg/sg65_28_cif.got.tgz:55914.got - 2010.04.10 20:52:16.
