data_PCOD8267714
_publ_section_title
;
Structure prediction by ZEFSAII (Michael W. Deem and Ramdas Pophale) SiO2 
 PCOD8267714
Probable space group: C M M M
;
_chemical_formula_sum "Si O2"
_cell_formula_units_Z 80
_cell_length_a 8.806341
_cell_length_b 36.052157
_cell_length_c 16.908150
_cell_angle_alpha 90.000000
_cell_angle_beta 90.000000
_cell_angle_gamma 90.000000
_cell_volume 5368.127767
_symmetry_space_group_name_H-M "C M M M"
_symmetry_group_IT_number 65
_symmetry_cell_setting 'orthorhombic'
loop_
_space_group_symop_operation_xyz
x,y,z
-x,-y,z
x,-y,-z
-x,y,-z
-x,-y,-z
x,y,-z
-x,y,z
x,-y,z
1/2+x,1/2+y,z
1/2-x,1/2-y,z
1/2+x,1/2-y,-z
1/2-x,1/2+y,-z
1/2-x,1/2-y,-z
1/2+x,1/2+y,-z
1/2-x,1/2+y,z
1/2+x,1/2-y,z
loop_
_atom_site_type_symbol
_atom_site_label
_atom_site_fract_x
_atom_site_fract_y
_atom_site_fract_z
Si Si1 0.670565 0.713256 0.406169
Si Si2 0.322732 0.862685 0.407845
Si Si3 0.679761 0.429314 0.684739
Si Si4 0.680565 0.500000 0.411625
Si Si5 0.179221 0.457323 0.160602
Si Si6 0.828987 0.044045 0.000000
O O1 0.664570 0.716217 0.500000
O O2 0.500000 0.709884 0.371957
O O3 0.750000 0.750000 0.370754
O O4 0.769229 0.677888 0.380252
O O5 0.285688 0.869214 0.500000
O O6 0.500000 0.866986 0.390219
O O7 0.228498 0.891736 0.357132
O O8 0.500000 0.430554 0.693243
O O9 0.741544 0.463665 0.632901
O O10 0.752752 0.431602 0.771128
O O11 0.500000 0.500000 0.414393
O O12 0.748505 0.500000 0.500000
O O13 0.230329 0.500000 0.174237
O O14 0.000000 0.453661 0.159459
O O15 0.242927 0.441578 0.077933
O O16 0.000000 0.059599 0.000000
O O17 0.826851 0.000000 0.000000
#
# Coordination Sequence:
#
# PCOD8267714 Si02
#       6
#    16  16  16   8  16   8
#     4   9  16  27  44  64  84 108 139 176 218 264
#     4  10  20  32  44  61  86 115 148 186 226 266
#     4  11  20  31  46  62  84 113 149 188 225 263
#     4   9  18  30  43  58  77 106 147 191 228 259
#     4  10  19  31  46  64  87 111 139 176 222 268
#     4   9  17  29  47  67  85 105 136 173 214 263
#
# _framework density 14.902775
#
# number of rings (size 3 to 8) (size 9 to 14) (size 15 to 20)
#    0.000    2.200    1.000    3.300    0.000    6.400 
#    0.000    0.000    0.000    2.400    0.000    0.000 
#    0.000    0.000    0.000    0.900    0.000   12.600 
#
# Total GULP energy -496070.356792 kJ/mol
# GULP energy per Si atom -12401.758920 kJ/mol
# Density = 1.486886 g / cm^3
# Si number density = 14.902775 Si / 1000 Ang^3
#
#
#
# Elastic Constant Matrix: (Units=GPa)
#
#
# Indices 1 2 3 4 5 6 
#
# 1 70.8931 20.3051 32.4470 0.0000 0.0000 0.0000
# 2 20.3051 79.2281 36.2160 0.0000 0.0000 0.0000
# 3 32.4470 36.2160 90.1032 0.0000 0.0000 0.0000
# 4 0.0000 0.0000 0.0000 3.0507 0.0000 0.0000
# 5 0.0000 0.0000 0.0000 0.0000 23.3572 0.0000
# 6 0.0000 0.0000 0.0000 0.0000 0.0000 25.0585
#
#
#
# Elastic Compliance Matrix: (Units=1/GPa)
#
#
# Indices 1 2 3 4 5 6 
#
# 1 0.017125 -0.001923 -0.005394 0.000000 0.000000 0.000000
# 2 -0.001923 0.015679 -0.005609 0.000000 0.000000 0.000000
# 3 -0.005394 -0.005609 0.015295 0.000000 0.000000 0.000000
# 4 0.000000 0.000000 0.000000 0.327798 0.000000 0.000000
# 5 0.000000 0.000000 0.000000 0.000000 0.042813 0.000000
# 6 0.000000 0.000000 0.000000 0.000000 0.000000 0.039907
#
#
# Mechanical properties :
#
#
# Convention : Reuss Voigt Hill
#
# Bulk Modulus (GPa) = 44.95120 46.46229 45.70675
# Shear Modulus (GPa) = 10.16495 20.37703 15.27099
#
# Velocity S-wave (km/s) = 2.61451 3.70176 3.20458
# Velocity P-wave (km/s) = 6.27237 7.03671 6.66551
#
# Compressibility (1/GPa) = 0.02224635
#
# Stress axis : x y z
#
# Youngs Moduli (GPa) = 58.39287 63.78043 65.37925
#
# Poissons Ratio (x) = 0.12267 0.35265
# Poissons Ratio (y) = 0.11231 0.36673
# Poissons Ratio (z) = 0.31497 0.35776
#
# Static dielectric constant tensor:
#      x y z
#    x 2.949520 0.000000 0.000000 
#    y 0.000000 2.779460 0.000000 
#    z 0.000000 0.000000 2.755930 
# 
# 
# High freq. dielectric constant tensor:
#      x y z
#    x 1.584610 0.000000 0.000000 
#    y 0.000000 1.546900 0.000000 
#    z 0.000000 0.000000 1.541680 
# 
# From -- ./inp_files/50189.got.cif
#   From: 2010.03.12/outbox.cif.g09.slc.cpg/sg65_26_cif.got.tgz:50189.got - 2010.04.10 20:52:16.
