data_PCOD8267031
_publ_section_title
;
Structure prediction by ZEFSAII (Michael W. Deem and Ramdas Pophale) SiO2 
 PCOD8267031
Probable space group: C M M M
;
_chemical_formula_sum "Si O2"
_cell_formula_units_Z 104
_cell_length_a 26.859695
_cell_length_b 8.842305
_cell_length_c 26.455158
_cell_angle_alpha 90.000000
_cell_angle_beta 90.000000
_cell_angle_gamma 90.000000
_cell_volume 6283.142761
_symmetry_space_group_name_H-M "C M M M"
_symmetry_group_IT_number 65
_symmetry_cell_setting 'orthorhombic'
loop_
_space_group_symop_operation_xyz
x,y,z
-x,-y,z
x,-y,-z
-x,y,-z
-x,-y,-z
x,y,-z
-x,y,z
x,-y,z
1/2+x,1/2+y,z
1/2-x,1/2-y,z
1/2+x,1/2-y,-z
1/2-x,1/2+y,-z
1/2-x,1/2-y,-z
1/2+x,1/2+y,-z
1/2-x,1/2+y,z
1/2+x,1/2-y,z
loop_
_atom_site_type_symbol
_atom_site_label
_atom_site_fract_x
_atom_site_fract_y
_atom_site_fract_z
Si Si1 0.851622 0.679179 0.401846
Si Si2 0.800264 0.175246 0.307200
Si Si3 0.055994 0.322822 0.154773
Si Si4 0.398704 0.328195 0.248927
Si Si5 0.442953 0.676066 0.354092
Si Si6 0.559114 0.671281 0.945091
Si Si7 0.304626 0.319751 0.500000
O O1 0.846988 0.500000 0.408707
O O2 0.816262 0.733797 0.356839
O O3 0.908903 0.724039 0.390922
O O4 0.834979 0.763856 0.451893
O O5 0.750000 0.250000 0.286046
O O6 0.841057 0.192576 0.263376
O O7 0.792514 0.000000 0.321600
O O8 0.054225 0.500000 0.152387
O O9 0.090459 0.274984 0.201070
O O10 0.080307 0.266433 0.102019
O O11 0.000000 0.256942 0.162209
O O12 0.410898 0.500000 0.234028
O O13 0.433136 0.277281 0.295993
O O14 0.500000 0.707873 0.368252
O O15 0.428439 0.500000 0.360943
O O16 0.500000 0.681605 0.944795
O O17 0.577152 0.500000 0.937970
O O18 0.578352 0.732344 0.000000
O O19 0.300604 0.500000 0.500000
O O20 0.250000 0.250000 0.500000
#
# Coordination Sequence:
#
# PCOD8267031 Si02
#       7
#    16  16  16  16  16  16   8
#     4  11  22  36  54  78 104 128 157 192 232 279
#     4  10  20  35  53  73  96 124 156 190 234 282
#     4  10  19  27  38  61  92 123 155 193 234 271
#     4   9  18  31  47  67  92 123 158 192 226 273
#     4   9  18  34  54  74  98 130 165 198 234 275
#     4   8  14  25  40  56  77 112 156 194 229 273
#     4  12  24  40  59  78 101 126 156 195 239 283
#
# _framework density 16.552225
#
# number of rings (size 3 to 8) (size 9 to 14) (size 15 to 20)
#    0.000    2.308    0.000    5.308    0.000    5.231 
#    0.000    1.923    0.000    2.308    0.000    0.000 
#    0.000    0.615    0.000    2.000    0.000    2.462 
#
# Total GULP energy -644741.127140 kJ/mol
# GULP energy per Si atom -12398.867830 kJ/mol
# Density = 1.651455 g / cm^3
# Si number density = 16.552225 Si / 1000 Ang^3
#
#
#
# Elastic Constant Matrix: (Units=GPa)
#
#
# Indices 1 2 3 4 5 6 
#
# 1 78.1621 37.6961 40.4867 0.0000 0.0000 0.0000
# 2 37.6961 99.5601 54.0409 0.0000 0.0000 0.0000
# 3 40.4867 54.0409 123.8885 0.0000 0.0000 0.0000
# 4 0.0000 0.0000 0.0000 21.7576 0.0000 0.0000
# 5 0.0000 0.0000 0.0000 0.0000 12.9267 0.0000
# 6 0.0000 0.0000 0.0000 0.0000 0.0000 26.3603
#
#
#
# Elastic Compliance Matrix: (Units=1/GPa)
#
#
# Indices 1 2 3 4 5 6 
#
# 1 0.016765 -0.004420 -0.003551 0.000000 0.000000 0.000000
# 2 -0.004420 0.014326 -0.004804 0.000000 0.000000 0.000000
# 3 -0.003551 -0.004804 0.011328 0.000000 0.000000 0.000000
# 4 0.000000 0.000000 0.000000 0.045961 0.000000 0.000000
# 5 0.000000 0.000000 0.000000 0.000000 0.077359 0.000000
# 6 0.000000 0.000000 0.000000 0.000000 0.000000 0.037936
#
#
# Mechanical properties :
#
#
# Convention : Reuss Voigt Hill
#
# Bulk Modulus (GPa) = 59.28481 62.89533 61.09007
# Shear Modulus (GPa) = 21.29039 23.50138 22.39589
#
# Velocity S-wave (km/s) = 3.59033 3.77215 3.68237
# Velocity P-wave (km/s) = 7.28573 7.55333 7.42074
#
# Compressibility (1/GPa) = 0.01686773
#
# Stress axis : x y z
#
# Youngs Moduli (GPa) = 59.64823 69.80482 88.27861
#
# Poissons Ratio (x) = 0.30857 0.31344
# Poissons Ratio (y) = 0.26367 0.42412
# Poissons Ratio (z) = 0.21178 0.33537
#
# Static dielectric constant tensor:
#      x y z
#    x 3.003020 0.000000 0.000000 
#    y 0.000000 3.148570 0.000000 
#    z 0.000000 0.000000 3.301570 
# 
# 
# High freq. dielectric constant tensor:
#      x y z
#    x 1.609670 0.000000 0.000000 
#    y 0.000000 1.643920 0.000000 
#    z 0.000000 0.000000 1.633790 
# 
# From -- ./inp_files/71778.got.cif
#   From: 2010.03.12/outbox.cif.g09.slc.cpg/sg65_36_cif.got.tgz:71778.got - 2010.04.10 20:52:16.
