data_PCOD8267354
_publ_section_title
;
Structure prediction by ZEFSAII (Michael W. Deem and Ramdas Pophale) SiO2 
 PCOD8267354
Probable space group: C M M M
;
_chemical_formula_sum "Si O2"
_cell_formula_units_Z 72
_cell_length_a 7.783079
_cell_length_b 18.981350
_cell_length_c 25.234306
_cell_angle_alpha 90.000000
_cell_angle_beta 90.000000
_cell_angle_gamma 90.000000
_cell_volume 3727.948474
_symmetry_space_group_name_H-M "C M M M"
_symmetry_group_IT_number 65
_symmetry_cell_setting 'orthorhombic'
loop_
_space_group_symop_operation_xyz
x,y,z
-x,-y,z
x,-y,-z
-x,y,-z
-x,-y,-z
x,y,-z
-x,y,z
x,-y,z
1/2+x,1/2+y,z
1/2-x,1/2-y,z
1/2+x,1/2-y,-z
1/2-x,1/2+y,-z
1/2-x,1/2-y,-z
1/2+x,1/2+y,-z
1/2-x,1/2+y,z
1/2+x,1/2-y,z
loop_
_atom_site_type_symbol
_atom_site_label
_atom_site_fract_x
_atom_site_fract_y
_atom_site_fract_z
Si Si1 0.308617 0.416099 0.631213
Si Si2 0.500000 0.084118 0.440194
Si Si3 0.795668 0.079197 0.058597
Si Si4 0.296315 0.578356 0.748612
Si Si5 0.702380 0.330840 0.155112
O O1 0.500000 0.386611 0.617705
O O2 0.315133 0.500000 0.629911
O O3 0.170978 0.386790 0.588951
O O4 0.248069 0.392690 0.690103
O O5 0.500000 0.113079 0.500000
O O6 0.500000 0.000000 0.439253
O O7 0.719160 0.132513 0.102431
O O8 0.000000 0.081282 0.059296
O O9 0.733006 0.000000 0.071858
O O10 0.729168 0.101568 0.000000
O O11 0.500000 0.573850 0.753055
O O12 0.219080 0.500000 0.757722
O O13 0.219468 0.631047 0.792820
O O14 0.500000 0.340407 0.155108
O O15 0.750000 0.250000 0.155793
#
# Coordination Sequence:
#
# PCOD8267354 Si02
#       5
#    16   8  16  16  16
#     4   8  14  25  40  59  84 117 157 195 232 278
#     4   9  16  24  36  60  94 126 153 185 232 287
#     4   8  14  26  46  69  88 113 157 202 231 266
#     4   8  14  27  47  64  80 114 159 195 227 270
#     4  10  19  30  44  65  94 121 146 189 239 286
#
# _framework density 19.313573000000002
#
# number of rings (size 3 to 8) (size 9 to 14) (size 15 to 20)
#    0.000    3.444    0.000    2.667    0.000    3.556 
#    2.000    2.222    0.000    2.000    0.000    1.556 
#    0.000    0.889    0.444    0.000    0.000    0.000 
#
# Total GULP energy -446100.810658 kJ/mol
# GULP energy per Si atom -12391.689185 kJ/mol
# Density = 1.926961 g / cm^3
# Si number density = 19.313573 Si / 1000 Ang^3
#
#
#
# Elastic Constant Matrix: (Units=GPa)
#
#
# Indices 1 2 3 4 5 6 
#
# 1 55.3052 16.6517 54.1735 0.0000 0.0000 0.0000
# 2 16.6517 85.7291 75.3154 0.0000 0.0000 0.0000
# 3 54.1735 75.3154 204.5317 0.0000 0.0000 0.0000
# 4 0.0000 0.0000 0.0000 7.6318 0.0000 0.0000
# 5 0.0000 0.0000 0.0000 0.0000 10.8403 0.0000
# 6 0.0000 0.0000 0.0000 0.0000 0.0000 14.6175
#
#
#
# Elastic Compliance Matrix: (Units=1/GPa)
#
#
# Indices 1 2 3 4 5 6 
#
# 1 0.024528 0.001394 -0.007010 0.000000 0.000000 0.000000
# 2 0.001394 0.017322 -0.006748 0.000000 0.000000 0.000000
# 3 -0.007010 -0.006748 0.009231 0.000000 0.000000 0.000000
# 4 0.000000 0.000000 0.000000 0.131031 0.000000 0.000000
# 5 0.000000 0.000000 0.000000 0.000000 0.092248 0.000000
# 6 0.000000 0.000000 0.000000 0.000000 0.000000 0.068411
#
#
# Mechanical properties :
#
#
# Convention : Reuss Voigt Hill
#
# Bulk Modulus (GPa) = 37.94530 70.87194 54.40862
# Shear Modulus (GPa) = 13.28786 19.91294 16.60040
#
# Velocity S-wave (km/s) = 2.62583 3.21445 2.93494
# Velocity P-wave (km/s) = 5.37429 7.10999 6.30218
#
# Compressibility (1/GPa) = 0.02635373
#
# Stress axis : x y z
#
# Youngs Moduli (GPa) = 40.76910 57.73010 108.33345
#
# Poissons Ratio (x) = -0.08049 0.75944
# Poissons Ratio (y) = -0.05685 0.73102
# Poissons Ratio (z) = 0.28580 0.38955
#
# Static dielectric constant tensor:
#      x y z
#    x 3.316870 0.000000 0.000000 
#    y 0.000000 2.084680 0.000000 
#    z 0.000000 0.000000 4.005070 
# 
# 
# High freq. dielectric constant tensor:
#      x y z
#    x 1.724400 0.000000 0.000000 
#    y 0.000000 1.696690 0.000000 
#    z 0.000000 0.000000 1.762810 
# 
# From -- ./inp_files/67081.got.cif
#   From: 2010.03.12/outbox.cif.g09.slc.cpg/sg65_34_cif.got.tgz:67081.got - 2010.04.10 20:52:16.
