data_PCOD8267219
_publ_section_title
;
Structure prediction by ZEFSAII (Michael W. Deem and Ramdas Pophale) SiO2 
 PCOD8267219
Probable space group: C M M M
;
_chemical_formula_sum "Si O2"
_cell_formula_units_Z 120
_cell_length_a 17.099951
_cell_length_b 17.266443
_cell_length_c 26.605713
_cell_angle_alpha 90.000000
_cell_angle_beta 90.000000
_cell_angle_gamma 90.000000
_cell_volume 7855.478552
_symmetry_space_group_name_H-M "C M M M"
_symmetry_group_IT_number 65
_symmetry_cell_setting 'orthorhombic'
loop_
_space_group_symop_operation_xyz
x,y,z
-x,-y,z
x,-y,-z
-x,y,-z
-x,-y,-z
x,y,-z
-x,y,z
x,-y,z
1/2+x,1/2+y,z
1/2-x,1/2-y,z
1/2+x,1/2-y,-z
1/2-x,1/2+y,-z
1/2-x,1/2-y,-z
1/2+x,1/2+y,-z
1/2-x,1/2+y,z
1/2+x,1/2-y,z
loop_
_atom_site_type_symbol
_atom_site_label
_atom_site_fract_x
_atom_site_fract_y
_atom_site_fract_z
Si Si1 0.408911 0.785234 0.232897
Si Si2 0.783509 0.589435 0.234300
Si Si3 0.089752 0.785510 0.125570
Si Si4 0.784411 0.088378 0.875238
Si Si5 0.685429 0.312640 0.309507
Si Si6 0.183756 0.685147 0.943404
Si Si7 0.084437 0.090822 0.500000
Si Si8 0.093342 0.089950 0.390631
O O1 0.500000 0.801427 0.238802
O O2 0.366286 0.867516 0.236402
O O3 0.387509 0.745568 0.180296
O O4 0.380830 0.728971 0.276879
O O5 0.800115 0.500000 0.244626
O O6 0.743871 0.604393 0.180903
O O7 0.725924 0.621036 0.276764
O O8 0.138308 0.862432 0.113641
O O9 0.107798 0.718728 0.084810
O O10 0.000000 0.808980 0.121843
O O11 0.715264 0.110201 0.913899
O O12 0.807388 0.000000 0.884012
O O13 0.750000 0.250000 0.328150
O O14 0.642095 0.353244 0.355478
O O15 0.250000 0.750000 0.942512
O O16 0.160788 0.661379 0.000000
O O17 0.125633 0.111805 0.446955
O O18 0.000000 0.132399 0.500000
O O19 0.070066 0.000000 0.500000
O O20 0.000000 0.104679 0.386044
O O21 0.111137 0.000000 0.377682
#
# Coordination Sequence:
#
# PCOD8267219 Si02
#       8
#    16  16  16  16  16  16   8  16
#     4  10  19  31  47  66  89 121 153 186 226 270
#     4  10  19  31  47  66  89 121 153 186 226 270
#     4  10  19  32  50  69  94 121 148 182 224 271
#     4  10  19  32  50  69  94 121 148 182 224 271
#     4  10  19  29  45  66  94 126 150 187 232 274
#     4   9  18  32  52  71  87 113 151 184 217 263
#     4   7  12  24  43  64  88 124 159 189 226 262
#     4   9  16  28  46  68  94 122 158 196 226 264
#
# _framework density 15.275963000000001
#
# number of rings (size 3 to 8) (size 9 to 14) (size 15 to 20)
#    0.000    2.467    2.667    1.600    0.000    1.067 
#    0.000    0.333    0.000    0.400    0.000    4.667 
#    0.000    0.000    0.000    0.000    0.000   80.000 
#
# Total GULP energy -743736.832807 kJ/mol
# GULP energy per Si atom -12395.613880 kJ/mol
# Density = 1.524119 g / cm^3
# Si number density = 15.275963 Si / 1000 Ang^3
#
#
#
# Elastic Constant Matrix: (Units=GPa)
#
#
# Indices 1 2 3 4 5 6 
#
# 1 60.3656 57.2380 41.7773 0.0000 0.0000 0.0000
# 2 57.2380 90.1464 57.9946 0.0000 0.0000 0.0000
# 3 41.7773 57.9946 122.5875 0.0000 0.0000 0.0000
# 4 0.0000 0.0000 0.0000 42.3262 0.0000 0.0000
# 5 0.0000 0.0000 0.0000 0.0000 13.7115 0.0000
# 6 0.0000 0.0000 0.0000 0.0000 0.0000 19.9157
#
#
#
# Elastic Compliance Matrix: (Units=1/GPa)
#
#
# Indices 1 2 3 4 5 6 
#
# 1 0.042132 -0.025177 -0.002448 0.000000 0.000000 0.000000
# 2 -0.025177 0.030991 -0.006081 0.000000 0.000000 0.000000
# 3 -0.002448 -0.006081 0.011869 0.000000 0.000000 0.000000
# 4 0.000000 0.000000 0.000000 0.023626 0.000000 0.000000
# 5 0.000000 0.000000 0.000000 0.000000 0.072932 0.000000
# 6 0.000000 0.000000 0.000000 0.000000 0.000000 0.050212
#
#
# Mechanical properties :
#
#
# Convention : Reuss Voigt Hill
#
# Bulk Modulus (GPa) = 56.88199 65.23547 61.05873
# Shear Modulus (GPa) = 16.39163 22.92998 19.66080
#
# Velocity S-wave (km/s) = 3.27927 3.87854 3.59143
# Velocity P-wave (km/s) = 7.18716 7.92810 7.56671
#
# Compressibility (1/GPa) = 0.01758026
#
# Stress axis : x y z
#
# Youngs Moduli (GPa) = 23.73485 32.26693 84.25583
#
# Poissons Ratio (x) = 0.81238 0.20622
# Poissons Ratio (y) = 0.59757 0.51240
# Poissons Ratio (z) = 0.05809 0.19623
#
# Static dielectric constant tensor:
#      x y z
#    x 2.757690 0.000000 0.000000 
#    y 0.000000 2.814070 0.000000 
#    z 0.000000 0.000000 3.088000 
# 
# 
# High freq. dielectric constant tensor:
#      x y z
#    x 1.572770 0.000000 0.000000 
#    y 0.000000 1.575940 0.000000 
#    z 0.000000 0.000000 1.586400 
# 
# From -- ./inp_files/75269.got.cif
#   From: 2010.03.12/outbox.cif.g09.slc.cpg/sg65_38_cif.got.tgz:75269.got - 2010.04.10 20:52:16.
