data_PCOD8267984
_publ_section_title
;
Structure prediction by ZEFSAII (Michael W. Deem and Ramdas Pophale) SiO2 
 PCOD8267984
Probable space group: C M M M
;
_chemical_formula_sum "Si O2"
_cell_formula_units_Z 104
_cell_length_a 9.588169
_cell_length_b 18.921531
_cell_length_c 32.988750
_cell_angle_alpha 90.000000
_cell_angle_beta 90.000000
_cell_angle_gamma 90.000000
_cell_volume 5984.912613
_symmetry_space_group_name_H-M "C M M M"
_symmetry_group_IT_number 65
_symmetry_cell_setting 'orthorhombic'
loop_
_space_group_symop_operation_xyz
x,y,z
-x,-y,z
x,-y,-z
-x,y,-z
-x,-y,-z
x,y,-z
-x,y,z
x,-y,z
1/2+x,1/2+y,z
1/2-x,1/2-y,z
1/2+x,1/2-y,-z
1/2-x,1/2+y,-z
1/2-x,1/2-y,-z
1/2+x,1/2+y,-z
1/2-x,1/2+y,z
1/2+x,1/2-y,z
loop_
_atom_site_type_symbol
_atom_site_label
_atom_site_fract_x
_atom_site_fract_y
_atom_site_fract_z
Si Si1 0.835591 0.579248 0.574417
Si Si2 0.338908 0.081231 0.192050
Si Si3 0.839231 0.683117 0.736698
Si Si4 0.833464 0.676484 0.500000
Si Si5 0.161227 0.081293 0.117372
Si Si6 0.838799 0.817473 0.045815
Si Si7 0.337548 0.181384 0.355490
O O1 0.769520 0.500000 0.571453
O O2 0.784515 0.630372 0.538514
O O3 0.791666 0.615120 0.616946
O O4 0.000000 0.571338 0.571393
O O5 0.500000 0.092195 0.180954
O O6 0.298337 0.119499 0.233708
O O7 0.249770 0.112585 0.154782
O O8 0.300739 0.000000 0.199248
O O9 0.750000 0.750000 0.750049
O O10 0.805030 0.659580 0.690792
O O11 0.000000 0.704451 0.741090
O O12 0.750000 0.750000 0.500000
O O13 0.000000 0.691509 0.500000
O O14 0.203008 0.119687 0.075850
O O15 0.000000 0.092423 0.128197
O O16 0.199128 0.000000 0.110220
O O17 0.750000 0.750000 0.058463
O O18 0.000000 0.796737 0.050200
O O19 0.804213 0.842125 0.000000
O O20 0.500000 0.199736 0.362030
O O21 0.250000 0.250000 0.368440
#
# Coordination Sequence:
#
# PCOD8267984 Si02
#       7
#    16  16  16   8  16  16  16
#     4   9  17  29  47  71  95 120 154 194 231 269
#     4   9  18  32  48  66  90 119 150 186 227 268
#     4   9  18  31  47  68  92 119 152 189 228 270
#     4  10  19  31  49  71  95 124 156 190 230 276
#     4   9  18  32  49  69  92 119 152 187 223 266
#     4   9  18  32  49  69  93 120 149 183 223 265
#     4   9  17  30  48  68  91 120 153 189 228 271
#
# _framework density 17.377030000000001
#
# number of rings (size 3 to 8) (size 9 to 14) (size 15 to 20)
#    0.000    2.923    0.000    0.692    0.000    3.692 
#    0.000    7.692    0.000    2.308    0.000    8.615 
#    0.000    0.000    0.000    0.000    0.000    0.000 
#
# Total GULP energy -644744.027657 kJ/mol
# GULP energy per Si atom -12398.923609 kJ/mol
# Density = 1.733748 g / cm^3
# Si number density = 17.377030 Si / 1000 Ang^3
#
#
#
# Elastic Constant Matrix: (Units=GPa)
#
#
# Indices 1 2 3 4 5 6 
#
# 1 41.3799 45.0526 46.4925 0.0000 0.0000 0.0000
# 2 45.0526 120.8400 83.1253 0.0000 0.0000 0.0000
# 3 46.4925 83.1253 129.3497 0.0000 0.0000 0.0000
# 4 0.0000 0.0000 0.0000 33.1998 0.0000 0.0000
# 5 0.0000 0.0000 0.0000 0.0000 22.4833 0.0000
# 6 0.0000 0.0000 0.0000 0.0000 0.0000 26.5563
#
#
#
# Elastic Compliance Matrix: (Units=1/GPa)
#
#
# Indices 1 2 3 4 5 6 
#
# 1 0.047051 -0.010590 -0.010106 0.000000 0.000000 0.000000
# 2 -0.010590 0.017216 -0.007257 0.000000 0.000000 0.000000
# 3 -0.010106 -0.007257 0.016027 0.000000 0.000000 0.000000
# 4 0.000000 0.000000 0.000000 0.030121 0.000000 0.000000
# 5 0.000000 0.000000 0.000000 0.000000 0.044477 0.000000
# 6 0.000000 0.000000 0.000000 0.000000 0.000000 0.037656
#
#
# Mechanical properties :
#
#
# Convention : Reuss Voigt Hill
#
# Bulk Modulus (GPa) = 41.00478 71.21227 56.10852
# Shear Modulus (GPa) = 19.48682 24.24115 21.86398
#
# Velocity S-wave (km/s) = 3.35238 3.73904 3.55098
# Velocity P-wave (km/s) = 6.21554 7.72724 7.01224
#
# Compressibility (1/GPa) = 0.02438740
#
# Stress axis : x y z
#
# Youngs Moduli (GPa) = 21.25360 58.08596 62.39385
#
# Poissons Ratio (x) = 0.61513 0.63056
# Poissons Ratio (y) = 0.22507 0.45281
# Poissons Ratio (z) = 0.21479 0.42154
#
# Static dielectric constant tensor:
#      x y z
#    x 3.102650 0.000000 0.000000 
#    y 0.000000 3.272060 0.000000 
#    z 0.000000 0.000000 3.445120 
# 
# 
# High freq. dielectric constant tensor:
#      x y z
#    x 1.650660 0.000000 0.000000 
#    y 0.000000 1.665340 0.000000 
#    z 0.000000 0.000000 1.683370 
# 
# From -- ./inp_files/74400.got.cif
#   From: 2010.03.12/outbox.cif.g09.slc.cpg/sg65_38_cif.got.tgz:74400.got - 2010.04.10 20:52:16.
