data_PCOD8267215
_publ_section_title
;
Structure prediction by ZEFSAII (Michael W. Deem and Ramdas Pophale) SiO2 
 PCOD8267215
Probable space group: C M M M
;
_chemical_formula_sum "Si O2"
_cell_formula_units_Z 88
_cell_length_a 18.666326
_cell_length_b 15.784081
_cell_length_c 16.964698
_cell_angle_alpha 90.000000
_cell_angle_beta 90.000000
_cell_angle_gamma 90.000000
_cell_volume 4998.322570
_symmetry_space_group_name_H-M "C M M M"
_symmetry_group_IT_number 65
_symmetry_cell_setting 'orthorhombic'
loop_
_space_group_symop_operation_xyz
x,y,z
-x,-y,z
x,-y,-z
-x,y,-z
-x,-y,-z
x,y,-z
-x,y,z
x,-y,z
1/2+x,1/2+y,z
1/2-x,1/2-y,z
1/2+x,1/2-y,-z
1/2-x,1/2+y,-z
1/2-x,1/2-y,-z
1/2+x,1/2+y,-z
1/2-x,1/2+y,z
1/2+x,1/2-y,z
loop_
_atom_site_type_symbol
_atom_site_label
_atom_site_fract_x
_atom_site_fract_y
_atom_site_fract_z
Si Si1 0.084541 0.000000 0.586091
Si Si2 0.664806 0.653235 0.000000
Si Si3 0.335461 0.155552 0.000000
Si Si4 0.583626 0.316285 0.592389
Si Si5 0.335124 0.406544 0.833099
Si Si6 0.835157 0.250587 0.729647
Si Si7 0.164916 0.593450 0.833384
O O1 0.106616 0.089469 0.625658
O O2 0.120330 0.000000 0.500000
O O3 0.000000 0.000000 0.575249
O O4 0.635883 0.748819 0.000000
O O5 0.750175 0.653539 0.000000
O O6 0.635582 0.606429 0.921992
O O7 0.364953 0.109660 0.921555
O O8 0.602223 0.306426 0.500000
O O9 0.500000 0.299404 0.606528
O O10 0.629529 0.249576 0.642869
O O11 0.360344 0.500000 0.803195
O O12 0.363905 0.331555 0.777368
O O13 0.250011 0.401238 0.834992
O O14 0.750000 0.250000 0.720850
O O15 0.863398 0.335060 0.773348
O O16 0.139298 0.500000 0.805590
#
# Coordination Sequence:
#
# PCOD8267215 Si02
#       7
#     8   8   8  16  16  16  16
#     4   7  12  26  48  72  92 111 142 182 220 269
#     4   9  13  21  35  54  89 126 160 186 216 268
#     4   9  13  21  37  56  83 124 160 190 225 269
#     4   9  18  33  52  71  93 122 154 188 230 284
#     4   9  16  24  37  60  93 129 156 184 228 276
#     4  10  19  29  44  70  98 123 152 194 237 278
#     4   9  16  26  39  59  90 124 158 195 233 269
#
# _framework density 17.605906000000001
#
# number of rings (size 3 to 8) (size 9 to 14) (size 15 to 20)
#    0.000    3.000    1.818    1.636    1.273    2.545 
#    0.000    0.000    0.000    1.091    0.000    3.818 
#    0.000    2.909    0.000    0.000    0.000    0.000 
#
# Total GULP energy -545101.455256 kJ/mol
# GULP energy per Si atom -12388.669438 kJ/mol
# Density = 1.756583 g / cm^3
# Si number density = 17.605906 Si / 1000 Ang^3
#
#
#
# Elastic Constant Matrix: (Units=GPa)
#
#
# Indices 1 2 3 4 5 6 
#
# 1 14.8384 19.2416 26.6271 0.0000 0.0000 0.0000
# 2 19.2416 147.3605 68.0549 0.0000 0.0000 0.0000
# 3 26.6271 68.0549 110.6481 0.0000 0.0000 0.0000
# 4 0.0000 0.0000 0.0000 25.1684 0.0000 0.0000
# 5 0.0000 0.0000 0.0000 0.0000 2.5316 0.0000
# 6 0.0000 0.0000 0.0000 0.0000 0.0000 11.2023
#
#
#
# Elastic Compliance Matrix: (Units=1/GPa)
#
#
# Indices 1 2 3 4 5 6 
#
# 1 0.119719 -0.003250 -0.026811 0.000000 0.000000 0.000000
# 2 -0.003250 0.009567 -0.005102 0.000000 0.000000 0.000000
# 3 -0.026811 -0.005102 0.018628 0.000000 0.000000 0.000000
# 4 0.000000 0.000000 0.000000 0.039732 0.000000 0.000000
# 5 0.000000 0.000000 0.000000 0.000000 0.395007 0.000000
# 6 0.000000 0.000000 0.000000 0.000000 0.000000 0.089267
#
#
# Mechanical properties :
#
#
# Convention : Reuss Voigt Hill
#
# Bulk Modulus (GPa) = 12.88879 55.63271 34.26075
# Shear Modulus (GPa) = 6.50950 18.37535 12.44243
#
# Velocity S-wave (km/s) = 1.92493 3.23415 2.66130
# Velocity P-wave (km/s) = 3.50387 6.75379 5.38010
#
# Compressibility (1/GPa) = 0.07758679
#
# Stress axis : x y z
#
# Youngs Moduli (GPa) = 8.35292 104.52958 53.68400
#
# Poissons Ratio (x) = 0.33976 1.43931
# Poissons Ratio (y) = 0.02715 0.27389
# Poissons Ratio (z) = 0.22395 0.53329
#
# Static dielectric constant tensor:
#      x y z
#    x 2.506960 0.000000 0.000000 
#    y 0.000000 3.571460 0.000000 
#    z 0.000000 0.000000 3.246390 
# 
# 
# High freq. dielectric constant tensor:
#      x y z
#    x 1.598610 0.000000 0.000000 
#    y 0.000000 1.688980 0.000000 
#    z 0.000000 0.000000 1.680010 
# 
# From -- ./inp_files/55805.got.cif
#   From: 2010.03.12/outbox.cif.g09.slc.cpg/sg65_28_cif.got.tgz:55805.got - 2010.04.10 20:52:16.
