data_PCOD8267589
_publ_section_title
;
Structure prediction by ZEFSAII (Michael W. Deem and Ramdas Pophale) SiO2 
 PCOD8267589
Probable space group: C M M M
;
_chemical_formula_sum "Si O2"
_cell_formula_units_Z 96
_cell_length_a 28.166701
_cell_length_b 14.853308
_cell_length_c 11.834186
_cell_angle_alpha 90.000000
_cell_angle_beta 90.000000
_cell_angle_gamma 90.000000
_cell_volume 4951.052838
_symmetry_space_group_name_H-M "C M M M"
_symmetry_group_IT_number 65
_symmetry_cell_setting 'orthorhombic'
loop_
_space_group_symop_operation_xyz
x,y,z
-x,-y,z
x,-y,-z
-x,y,-z
-x,-y,-z
x,y,-z
-x,y,z
x,-y,z
1/2+x,1/2+y,z
1/2-x,1/2-y,z
1/2+x,1/2-y,-z
1/2-x,1/2+y,-z
1/2-x,1/2-y,-z
1/2+x,1/2+y,-z
1/2-x,1/2+y,z
1/2+x,1/2-y,z
loop_
_atom_site_type_symbol
_atom_site_label
_atom_site_fract_x
_atom_site_fract_y
_atom_site_fract_z
Si Si1 0.760941 0.647500 0.500000
Si Si2 0.403857 0.893573 0.740331
Si Si3 0.269114 0.648906 0.739208
Si Si4 0.131044 0.603818 0.500000
Si Si5 0.446816 0.739623 0.128872
Si Si6 0.815713 0.600520 0.121326
Si Si7 0.136806 0.894797 0.131291
O O1 0.750000 0.750000 0.500000
O O2 0.737696 0.604651 0.386133
O O3 0.817729 0.648578 0.500000
O O4 0.400515 0.870449 0.607997
O O5 0.443571 0.830344 0.795518
O O6 0.354269 0.857614 0.794205
O O7 0.414728 0.000000 0.759674
O O8 0.250000 0.750000 0.738411
O O9 0.236509 0.595643 0.826811
O O10 0.322493 0.641451 0.784441
O O11 0.144052 0.500000 0.500000
O O12 0.500000 0.701057 0.144269
O O13 0.410586 0.660388 0.163774
O O14 0.437449 0.769311 0.000000
O O15 0.832800 0.500000 0.098805
O O16 0.815421 0.652519 0.000000
O O17 0.127173 0.000000 0.154515
O O18 0.151071 0.879505 0.000000
#
# Coordination Sequence:
#
# PCOD8267589 Si02
#       7
#     8  16  16   8  16  16  16
#     4  10  22  34  50  78 113 158 196 231 272 318
#     4  10  20  35  57  85 117 151 187 230 281 344
#     4  11  21  33  51  78 113 150 188 232 275 331
#     4  10  20  36  57  79 111 157 197 227 268 334
#     4  10  22  40  62  86 111 144 187 238 299 355
#     4  10  19  30  47  73 107 145 179 212 262 327
#     4  10  22  39  58  83 115 151 195 243 287 336
#
# _framework density 19.389814999999999
#
# number of rings (size 3 to 8) (size 9 to 14) (size 15 to 20)
#    0.000    1.833    1.667    2.500    2.333    6.333 
#    0.000    2.917    0.000    1.500    0.000    0.000 
#    0.000    2.667    0.000    0.000    0.000    0.000 
#
# Total GULP energy -594885.484527 kJ/mol
# GULP energy per Si atom -12393.447594 kJ/mol
# Density = 1.934568 g / cm^3
# Si number density = 19.389815 Si / 1000 Ang^3
#
#
#
# Elastic Constant Matrix: (Units=GPa)
#
#
# Indices 1 2 3 4 5 6 
#
# 1 105.7791 39.9093 43.7652 0.0000 0.0000 0.0000
# 2 39.9093 86.0719 37.8112 0.0000 0.0000 0.0000
# 3 43.7652 37.8112 136.8966 0.0000 0.0000 0.0000
# 4 0.0000 0.0000 0.0000 17.8286 0.0000 0.0000
# 5 0.0000 0.0000 0.0000 0.0000 18.9780 0.0000
# 6 0.0000 0.0000 0.0000 0.0000 0.0000 24.4535
#
#
#
# Elastic Compliance Matrix: (Units=1/GPa)
#
#
# Indices 1 2 3 4 5 6 
#
# 1 0.012262 -0.004511 -0.002674 0.000000 0.000000 0.000000
# 2 -0.004511 0.014882 -0.002668 0.000000 0.000000 0.000000
# 3 -0.002674 -0.002668 0.008897 0.000000 0.000000 0.000000
# 4 0.000000 0.000000 0.000000 0.056090 0.000000 0.000000
# 5 0.000000 0.000000 0.000000 0.000000 0.052693 0.000000
# 6 0.000000 0.000000 0.000000 0.000000 0.000000 0.040894
#
#
# Mechanical properties :
#
#
# Convention : Reuss Voigt Hill
#
# Bulk Modulus (GPa) = 61.22221 63.52432 62.37327
# Shear Modulus (GPa) = 23.71150 26.06949 24.89050
#
# Velocity S-wave (km/s) = 3.50077 3.67071 3.58675
# Velocity P-wave (km/s) = 6.92701 7.12729 7.02787
#
# Compressibility (1/GPa) = 0.01633394
#
# Stress axis : x y z
#
# Youngs Moduli (GPa) = 81.55311 67.19562 112.40096
#
# Poissons Ratio (x) = 0.30310 0.30058
# Poissons Ratio (y) = 0.36787 0.29993
# Poissons Ratio (z) = 0.21809 0.17930
#
# Static dielectric constant tensor:
#      x y z
#    x 3.345820 0.000000 0.000000 
#    y 0.000000 3.432280 0.000000 
#    z 0.000000 0.000000 5.680310 
# 
# 
# High freq. dielectric constant tensor:
#      x y z
#    x 1.734730 0.000000 0.000000 
#    y 0.000000 1.745880 0.000000 
#    z 0.000000 0.000000 1.761290 
# 
# From -- ./inp_files/33886.got.cif
#   From: 2010.03.12/outbox.cif.g09.slc.cpg/sg65_17_cif.got.tgz:33886.got - 2010.04.10 20:52:16.
