data_PCOD8267791
_publ_section_title
;
Structure prediction by ZEFSAII (Michael W. Deem and Ramdas Pophale) SiO2 
 PCOD8267791
Probable space group: C M M M
;
_chemical_formula_sum "Si O2"
_cell_formula_units_Z 88
_cell_length_a 8.587457
_cell_length_b 19.367703
_cell_length_c 28.464653
_cell_angle_alpha 90.000000
_cell_angle_beta 90.000000
_cell_angle_gamma 90.000000
_cell_volume 4734.221637
_symmetry_space_group_name_H-M "C M M M"
_symmetry_group_IT_number 65
_symmetry_cell_setting 'orthorhombic'
loop_
_space_group_symop_operation_xyz
x,y,z
-x,-y,z
x,-y,-z
-x,y,-z
-x,-y,-z
x,y,-z
-x,y,z
x,-y,z
1/2+x,1/2+y,z
1/2-x,1/2-y,z
1/2+x,1/2-y,-z
1/2-x,1/2+y,-z
1/2-x,1/2-y,-z
1/2+x,1/2+y,-z
1/2-x,1/2+y,z
1/2+x,1/2-y,z
loop_
_atom_site_type_symbol
_atom_site_label
_atom_site_fract_x
_atom_site_fract_y
_atom_site_fract_z
Si Si1 0.814864 0.577610 0.133723
Si Si2 0.170709 0.082072 0.500000
Si Si3 0.815665 0.323084 0.052886
Si Si4 0.814897 0.824769 0.317054
Si Si5 0.315205 0.174808 0.217650
Si Si6 0.186353 0.077284 0.600639
O O1 0.745361 0.500000 0.134854
O O2 0.753645 0.616457 0.086966
O O3 0.757110 0.619805 0.179154
O O4 0.000000 0.574462 0.133218
O O5 0.253993 0.103118 0.549475
O O6 0.000000 0.116490 0.500000
O O7 0.153353 0.000000 0.500000
O O8 0.750000 0.250000 0.070550
O O9 0.000000 0.318369 0.055099
O O10 0.757628 0.339491 0.000000
O O11 0.750000 0.750000 0.328977
O O12 0.749530 0.851541 0.267452
O O13 0.750984 0.874421 0.357924
O O14 0.000000 0.823106 0.314634
O O15 0.500000 0.179905 0.219850
O O16 0.250000 0.250000 0.204515
O O17 0.000000 0.078587 0.598126
O O18 0.245377 0.000000 0.611532
#
# Coordination Sequence:
#
# PCOD8267791 Si02
#       6
#    16   8  16  16  16  16
#     4   9  18  31  47  70  97 121 149 188 230 270
#     4   7  10  20  39  62  87 113 144 181 220 262
#     4   9  17  30  50  73  95 122 155 189 224 265
#     4  10  19  31  47  67  93 120 148 185 226 269
#     4  10  19  32  50  67  87 119 155 188 223 266
#     4   8  14  25  43  66  89 115 148 186 224 261
#
# _framework density 18.588061
#
# number of rings (size 3 to 8) (size 9 to 14) (size 15 to 20)
#    0.000    3.000    0.000    3.818    0.000    1.091 
#    0.000    3.182    0.000    6.000    0.000    4.455 
#    0.000    8.727    0.000    0.000    0.000    0.000 
#
# Total GULP energy -545278.830489 kJ/mol
# GULP energy per Si atom -12392.700693 kJ/mol
# Density = 1.854575 g / cm^3
# Si number density = 18.588061 Si / 1000 Ang^3
#
#
#
# Elastic Constant Matrix: (Units=GPa)
#
#
# Indices 1 2 3 4 5 6 
#
# 1 33.3048 16.3488 21.9723 0.0000 0.0000 0.0000
# 2 16.3488 134.0058 113.8110 0.0000 0.0000 0.0000
# 3 21.9723 113.8110 187.8368 0.0000 0.0000 0.0000
# 4 0.0000 0.0000 0.0000 39.7094 0.0000 0.0000
# 5 0.0000 0.0000 0.0000 0.0000 14.3049 0.0000
# 6 0.0000 0.0000 0.0000 0.0000 0.0000 16.8179
#
#
#
# Elastic Compliance Matrix: (Units=1/GPa)
#
#
# Indices 1 2 3 4 5 6 
#
# 1 0.032687 -0.001525 -0.002899 0.000000 0.000000 0.000000
# 2 -0.001525 0.015445 -0.009180 0.000000 0.000000 0.000000
# 3 -0.002899 -0.009180 0.011225 0.000000 0.000000 0.000000
# 4 0.000000 0.000000 0.000000 0.025183 0.000000 0.000000
# 5 0.000000 0.000000 0.000000 0.000000 0.069906 0.000000
# 6 0.000000 0.000000 0.000000 0.000000 0.000000 0.059460
#
#
# Mechanical properties :
#
#
# Convention : Reuss Voigt Hill
#
# Bulk Modulus (GPa) = 31.10598 73.26795 52.18697
# Shear Modulus (GPa) = 19.85457 27.70079 23.77768
#
# Velocity S-wave (km/s) = 3.27178 3.86456 3.58046
# Velocity P-wave (km/s) = 5.57166 7.70813 6.72528
#
# Compressibility (1/GPa) = 0.03214816
#
# Stress axis : x y z
#
# Youngs Moduli (GPa) = 30.59288 64.74750 89.08836
#
# Poissons Ratio (x) = 0.09877 0.25830
# Poissons Ratio (y) = 0.04667 0.81779
# Poissons Ratio (z) = 0.08870 0.59435
#
# Static dielectric constant tensor:
#      x y z
#    x 2.991280 0.000000 0.000000 
#    y 0.000000 3.481990 0.000000 
#    z 0.000000 0.000000 3.941800 
# 
# 
# High freq. dielectric constant tensor:
#      x y z
#    x 1.679030 0.000000 0.000000 
#    y 0.000000 1.706230 0.000000 
#    z 0.000000 0.000000 1.742950 
# 
# From -- ./inp_files/76708.got.cif
#   From: 2010.03.12/outbox.cif.g09.slc.cpg/sg65_39_cif.got.tgz:76708.got - 2010.04.10 20:52:16.
