data_PCOD8267773
_publ_section_title
;
Structure prediction by ZEFSAII (Michael W. Deem and Ramdas Pophale) SiO2 
 PCOD8267773
Probable space group: C M M M
;
_chemical_formula_sum "Si O2"
_cell_formula_units_Z 88
_cell_length_a 27.583738
_cell_length_b 8.929722
_cell_length_c 21.727747
_cell_angle_alpha 90.000000
_cell_angle_beta 90.000000
_cell_angle_gamma 90.000000
_cell_volume 5351.872437
_symmetry_space_group_name_H-M "C M M M"
_symmetry_group_IT_number 65
_symmetry_cell_setting 'orthorhombic'
loop_
_space_group_symop_operation_xyz
x,y,z
-x,-y,z
x,-y,-z
-x,y,-z
-x,-y,-z
x,y,-z
-x,y,z
x,-y,z
1/2+x,1/2+y,z
1/2-x,1/2-y,z
1/2+x,1/2-y,-z
1/2-x,1/2+y,-z
1/2-x,1/2-y,-z
1/2+x,1/2+y,-z
1/2-x,1/2+y,z
1/2+x,1/2-y,z
loop_
_atom_site_type_symbol
_atom_site_label
_atom_site_fract_x
_atom_site_fract_y
_atom_site_fract_z
Si Si1 0.609264 0.327222 0.429662
Si Si2 0.445317 0.823841 0.324512
Si Si3 0.197440 0.677301 0.867354
Si Si4 0.355267 0.175647 0.749247
Si Si5 0.198983 0.673667 0.000000
Si Si6 0.699050 0.176396 0.627379
O O1 0.592939 0.307853 0.500000
O O2 0.617154 0.500000 0.412205
O O3 0.566402 0.259184 0.388172
O O4 0.659453 0.240097 0.419511
O O5 0.500000 0.786624 0.303786
O O6 0.408570 0.765355 0.271126
O O7 0.437576 0.000000 0.336019
O O8 0.203971 0.500000 0.858983
O O9 0.250000 0.750000 0.860386
O O10 0.162020 0.744781 0.814561
O O11 0.173179 0.716077 0.934784
O O12 0.316307 0.218605 0.696989
O O13 0.358754 0.000000 0.757348
O O14 0.250000 0.750000 0.000000
O O15 0.209860 0.500000 0.000000
O O16 0.750000 0.250000 0.611547
O O17 0.702812 0.000000 0.617886
#
# Coordination Sequence:
#
# PCOD8267773 Si02
#       6
#    16  16  16  16   8  16
#     4  10  21  35  49  66  88 113 141 173 212 259
#     4   9  18  33  51  68  85 107 138 177 221 265
#     4   9  15  24  38  58  86 116 145 174 205 243
#     4   8  15  27  43  63  85 110 142 178 213 252
#     4   8  14  22  34  54  81 115 147 173 202 238
#     4  10  19  31  47  66  89 117 148 180 214 252
#
# _framework density 16.442843
#
# number of rings (size 3 to 8) (size 9 to 14) (size 15 to 20)
#    0.000    2.909    0.000    2.727    0.000    2.545 
#    0.000    5.455    0.000    0.000    0.000    0.636 
#    0.000    5.091    0.000    0.000    0.000   40.364 
#
# Total GULP energy -545197.657482 kJ/mol
# GULP energy per Si atom -12390.855852 kJ/mol
# Density = 1.640542 g / cm^3
# Si number density = 16.442843 Si / 1000 Ang^3
#
#
#
# Elastic Constant Matrix: (Units=GPa)
#
#
# Indices 1 2 3 4 5 6 
#
# 1 95.7705 25.6696 46.8481 0.0000 0.0000 0.0000
# 2 25.6696 42.7101 27.6037 0.0000 0.0000 0.0000
# 3 46.8481 27.6037 127.1120 0.0000 0.0000 0.0000
# 4 0.0000 0.0000 0.0000 15.3061 0.0000 0.0000
# 5 0.0000 0.0000 0.0000 0.0000 16.4083 0.0000
# 6 0.0000 0.0000 0.0000 0.0000 0.0000 20.4955
#
#
#
# Elastic Compliance Matrix: (Units=1/GPa)
#
#
# Indices 1 2 3 4 5 6 
#
# 1 0.013896 -0.005865 -0.003848 0.000000 0.000000 0.000000
# 2 -0.005865 0.029712 -0.004291 0.000000 0.000000 0.000000
# 3 -0.003848 -0.004291 0.010217 0.000000 0.000000 0.000000
# 4 0.000000 0.000000 0.000000 0.065333 0.000000 0.000000
# 5 0.000000 0.000000 0.000000 0.000000 0.060945 0.000000
# 6 0.000000 0.000000 0.000000 0.000000 0.000000 0.048791
#
#
# Mechanical properties :
#
#
# Convention : Reuss Voigt Hill
#
# Bulk Modulus (GPa) = 38.73288 51.75948 45.24618
# Shear Modulus (GPa) = 18.83197 21.47341 20.15269
#
# Velocity S-wave (km/s) = 3.38790 3.61770 3.50468
# Velocity P-wave (km/s) = 6.23787 6.99979 6.62979
#
# Compressibility (1/GPa) = 0.02581786
#
# Stress axis : x y z
#
# Youngs Moduli (GPa) = 71.96402 33.65683 97.87625
#
# Poissons Ratio (x) = 0.19739 0.37661
# Poissons Ratio (y) = 0.42206 0.41995
# Poissons Ratio (z) = 0.27690 0.14441
#
# Static dielectric constant tensor:
#      x y z
#    x 3.021060 0.000000 0.000000 
#    y 0.000000 3.204830 0.000000 
#    z 0.000000 0.000000 3.611620 
# 
# 
# High freq. dielectric constant tensor:
#      x y z
#    x 1.607120 0.000000 0.000000 
#    y 0.000000 1.623870 0.000000 
#    z 0.000000 0.000000 1.635170 
# 
# From -- ./inp_files/66205.got.cif
#   From: 2010.03.12/outbox.cif.g09.slc.cpg/sg65_34_cif.got.tgz:66205.got - 2010.04.10 20:52:16.
