data_PCOD8267063
_publ_section_title
;
Structure prediction by ZEFSAII (Michael W. Deem and Ramdas Pophale) SiO2 
 PCOD8267063
Probable space group: C M M M
;
_chemical_formula_sum "Si O2"
_cell_formula_units_Z 104
_cell_length_a 27.243040
_cell_length_b 8.638548
_cell_length_c 26.475950
_cell_angle_alpha 90.000000
_cell_angle_beta 90.000000
_cell_angle_gamma 90.000000
_cell_volume 6230.858246
_symmetry_space_group_name_H-M "C M M M"
_symmetry_group_IT_number 65
_symmetry_cell_setting 'orthorhombic'
loop_
_space_group_symop_operation_xyz
x,y,z
-x,-y,z
x,-y,-z
-x,y,-z
-x,-y,-z
x,y,-z
-x,y,z
x,-y,z
1/2+x,1/2+y,z
1/2-x,1/2-y,z
1/2+x,1/2-y,-z
1/2-x,1/2+y,-z
1/2-x,1/2-y,-z
1/2+x,1/2+y,-z
1/2-x,1/2+y,z
1/2+x,1/2-y,z
loop_
_atom_site_type_symbol
_atom_site_label
_atom_site_fract_x
_atom_site_fract_y
_atom_site_fract_z
Si Si1 0.695940 0.818124 0.000000
Si Si2 0.941781 0.174246 0.555096
Si Si3 0.801559 0.317283 0.197678
Si Si4 0.150531 0.183528 0.099523
Si Si5 0.553666 0.682819 0.848004
Si Si6 0.390736 0.318853 0.250268
Si Si7 0.442817 0.178410 0.656717
O O1 0.750000 0.750000 0.000000
O O2 0.665884 0.765120 0.048446
O O3 0.701099 0.000000 0.000000
O O4 0.922103 0.231764 0.500000
O O5 0.923261 0.284813 0.600174
O O6 0.000000 0.176520 0.553705
O O7 0.923070 0.000000 0.565422
O O8 0.798916 0.500000 0.189799
O O9 0.750000 0.250000 0.216520
O O10 0.814432 0.236417 0.144703
O O11 0.840745 0.275146 0.240961
O O12 0.094499 0.236750 0.111519
O O13 0.155039 0.000000 0.093478
O O14 0.500000 0.756423 0.860170
O O15 0.549619 0.500000 0.849880
O O16 0.569802 0.734263 0.791866
O O17 0.379018 0.500000 0.245363
O O18 0.411990 0.282208 0.304996
O O19 0.500000 0.222447 0.661893
O O20 0.433484 0.000000 0.668806
#
# Coordination Sequence:
#
# PCOD8267063 Si02
#       7
#     8  16  16  16  16  16  16
#     4  12  24  38  55  74  97 123 154 195 243 286
#     4   8  14  25  40  57  80 116 161 202 239 282
#     4  11  21  35  53  73  98 125 154 189 234 285
#     4  10  20  35  54  77 101 125 157 192 229 277
#     4   8  15  29  50  73  95 122 157 193 225 263
#     4  10  19  31  48  70  95 125 162 199 235 278
#     4  10  19  28  40  63  95 128 161 199 242 283
#
# _framework density 16.691120000000002
#
# number of rings (size 3 to 8) (size 9 to 14) (size 15 to 20)
#    0.000    2.308    0.000    5.769    0.000    1.846 
#    0.000    1.923    0.000   11.538    0.000    0.000 
#    0.000    0.615    0.000    2.308    0.000    3.538 
#
# Total GULP energy -644667.773407 kJ/mol
# GULP energy per Si atom -12397.457181 kJ/mol
# Density = 1.665313 g / cm^3
# Si number density = 16.691120 Si / 1000 Ang^3
#
#
#
# Elastic Constant Matrix: (Units=GPa)
#
#
# Indices 1 2 3 4 5 6 
#
# 1 105.4504 29.9400 47.4231 0.0000 0.0000 0.0000
# 2 29.9400 77.3029 30.4947 0.0000 0.0000 0.0000
# 3 47.4231 30.4947 114.8387 0.0000 0.0000 0.0000
# 4 0.0000 0.0000 0.0000 28.3757 0.0000 0.0000
# 5 0.0000 0.0000 0.0000 0.0000 15.0882 0.0000
# 6 0.0000 0.0000 0.0000 0.0000 0.0000 20.8574
#
#
#
# Elastic Compliance Matrix: (Units=1/GPa)
#
#
# Indices 1 2 3 4 5 6 
#
# 1 0.012267 -0.003075 -0.004249 0.000000 0.000000 0.000000
# 2 -0.003075 0.015221 -0.002772 0.000000 0.000000 0.000000
# 3 -0.004249 -0.002772 0.011199 0.000000 0.000000 0.000000
# 4 0.000000 0.000000 0.000000 0.035241 0.000000 0.000000
# 5 0.000000 0.000000 0.000000 0.000000 0.066277 0.000000
# 6 0.000000 0.000000 0.000000 0.000000 0.000000 0.047945
#
#
# Mechanical properties :
#
#
# Convention : Reuss Voigt Hill
#
# Bulk Modulus (GPa) = 54.07097 57.03418 55.55257
# Shear Modulus (GPa) = 23.30934 25.51320 24.41127
#
# Velocity S-wave (km/s) = 3.74105 3.91391 3.82845
# Velocity P-wave (km/s) = 7.15024 7.39388 7.27308
#
# Compressibility (1/GPa) = 0.01849421
#
# Stress axis : x y z
#
# Youngs Moduli (GPa) = 81.51860 65.70069 89.29626
#
# Poissons Ratio (x) = 0.20202 0.37944
# Poissons Ratio (y) = 0.25066 0.24752
# Poissons Ratio (z) = 0.34639 0.18212
#
# Static dielectric constant tensor:
#      x y z
#    x 3.218230 0.000000 0.000000 
#    y 0.000000 3.114330 0.000000 
#    z 0.000000 0.000000 3.268160 
# 
# 
# High freq. dielectric constant tensor:
#      x y z
#    x 1.618320 0.000000 0.000000 
#    y 0.000000 1.643560 0.000000 
#    z 0.000000 0.000000 1.638880 
# 
# From -- ./inp_files/71801.got.cif
#   From: 2010.03.12/outbox.cif.g09.slc.cpg/sg65_36_cif.got.tgz:71801.got - 2010.04.10 20:52:16.
