data_PCOD8267412
_publ_section_title
;
Structure prediction by ZEFSAII (Michael W. Deem and Ramdas Pophale) SiO2 
 PCOD8267412
Probable space group: C M M M
;
_chemical_formula_sum "Si O2"
_cell_formula_units_Z 104
_cell_length_a 27.049140
_cell_length_b 8.912706
_cell_length_c 26.267147
_cell_angle_alpha 90.000000
_cell_angle_beta 90.000000
_cell_angle_gamma 90.000000
_cell_volume 6332.510916
_symmetry_space_group_name_H-M "C M M M"
_symmetry_group_IT_number 65
_symmetry_cell_setting 'orthorhombic'
loop_
_space_group_symop_operation_xyz
x,y,z
-x,-y,z
x,-y,-z
-x,y,-z
-x,-y,-z
x,y,-z
-x,y,z
x,-y,z
1/2+x,1/2+y,z
1/2-x,1/2-y,z
1/2+x,1/2-y,-z
1/2-x,1/2+y,-z
1/2-x,1/2-y,-z
1/2+x,1/2+y,-z
1/2-x,1/2+y,z
1/2+x,1/2-y,z
loop_
_atom_site_type_symbol
_atom_site_label
_atom_site_fract_x
_atom_site_fract_y
_atom_site_fract_z
Si Si1 0.801528 0.174534 0.058782
Si Si2 0.859483 0.322124 0.144849
Si Si3 0.943133 0.827730 0.203556
Si Si4 0.399470 0.823353 0.299193
Si Si5 0.557677 0.323772 0.603027
Si Si6 0.558604 0.831133 0.500000
Si Si7 0.800920 0.673713 0.243279
O O1 0.750000 0.250000 0.073828
O O2 0.844768 0.250461 0.091173
O O3 0.797615 0.000000 0.071857
O O4 0.814524 0.202778 0.000000
O O5 0.863066 0.500000 0.139963
O O6 0.912922 0.259066 0.160112
O O7 0.819966 0.272467 0.187900
O O8 0.935649 0.752966 0.258541
O O9 0.000000 0.815299 0.187955
O O10 0.925687 0.000000 0.206489
O O11 0.409940 0.755695 0.354137
O O12 0.342540 0.788092 0.285170
O O13 0.410052 0.000000 0.298726
O O14 0.500000 0.287363 0.611919
O O15 0.567636 0.500000 0.603689
O O16 0.576978 0.257751 0.549644
O O17 0.500000 0.836091 0.500000
O O18 0.580342 0.000000 0.500000
O O19 0.789790 0.500000 0.241283
O O20 0.750000 0.750000 0.259028
#
# Coordination Sequence:
#
# PCOD8267412 Si02
#       7
#    16  16  16  16  16   8  16
#     4  10  20  33  50  73 100 128 158 194 237 283
#     4  10  20  33  50  72  97 126 159 194 235 283
#     4  10  20  33  49  70  96 126 160 196 235 280
#     4  10  20  32  46  68  96 125 159 195 233 279
#     4  10  19  30  45  67  95 125 158 195 233 275
#     4   9  17  29  45  65  90 123 158 191 233 279
#     4   9  19  32  46  67  93 121 153 189 229 274
#
# _framework density 16.423185
#
# number of rings (size 3 to 8) (size 9 to 14) (size 15 to 20)
#    0.000    2.231    0.000    4.385    0.000   10.769 
#    0.000    0.000    0.000    0.462    0.000    3.769 
#    0.000    0.000    0.000    0.000    0.000    0.000 
#
# Total GULP energy -644931.910191 kJ/mol
# GULP energy per Si atom -12402.536734 kJ/mol
# Density = 1.638580 g / cm^3
# Si number density = 16.423185 Si / 1000 Ang^3
#
#
#
# Elastic Constant Matrix: (Units=GPa)
#
#
# Indices 1 2 3 4 5 6 
#
# 1 79.4942 48.0481 49.4250 0.0000 0.0000 0.0000
# 2 48.0481 107.3863 59.3184 0.0000 0.0000 0.0000
# 3 49.4250 59.3184 115.4962 0.0000 0.0000 0.0000
# 4 0.0000 0.0000 0.0000 33.3732 0.0000 0.0000
# 5 0.0000 0.0000 0.0000 0.0000 28.1029 0.0000
# 6 0.0000 0.0000 0.0000 0.0000 0.0000 28.8395
#
#
#
# Elastic Compliance Matrix: (Units=1/GPa)
#
#
# Indices 1 2 3 4 5 6 
#
# 1 0.019355 -0.005703 -0.005354 0.000000 0.000000 0.000000
# 2 -0.005703 0.014681 -0.005100 0.000000 0.000000 0.000000
# 3 -0.005354 -0.005100 0.013569 0.000000 0.000000 0.000000
# 4 0.000000 0.000000 0.000000 0.029964 0.000000 0.000000
# 5 0.000000 0.000000 0.000000 0.000000 0.035584 0.000000
# 6 0.000000 0.000000 0.000000 0.000000 0.000000 0.034675
#
#
# Mechanical properties :
#
#
# Convention : Reuss Voigt Hill
#
# Bulk Modulus (GPa) = 65.39344 68.43996 66.91670
# Shear Modulus (GPa) = 26.99256 27.76879 27.38068
#
# Velocity S-wave (km/s) = 4.05849 4.11643 4.08756
# Velocity P-wave (km/s) = 7.86549 8.02225 7.94426
#
# Compressibility (1/GPa) = 0.01529205
#
# Stress axis : x y z
#
# Youngs Moduli (GPa) = 51.66594 68.11680 73.70011
#
# Poissons Ratio (x) = 0.38845 0.39458
# Poissons Ratio (y) = 0.29464 0.37584
# Poissons Ratio (z) = 0.27661 0.34736
#
# Static dielectric constant tensor:
#      x y z
#    x 2.914340 0.000000 0.000000 
#    y 0.000000 3.254920 0.000000 
#    z 0.000000 0.000000 3.094780 
# 
# 
# High freq. dielectric constant tensor:
#      x y z
#    x 1.607570 0.000000 0.000000 
#    y 0.000000 1.652400 0.000000 
#    z 0.000000 0.000000 1.626450 
# 
# From -- ./inp_files/68270.got.cif
#   From: 2010.03.12/outbox.cif.g09.slc.cpg/sg65_35_cif.got.tgz:68270.got - 2010.04.10 20:52:16.
