data_PCOD8267340
_publ_section_title
;
Structure prediction by ZEFSAII (Michael W. Deem and Ramdas Pophale) SiO2 
 PCOD8267340
Probable space group: C M M M
;
_chemical_formula_sum "Si O2"
_cell_formula_units_Z 104
_cell_length_a 9.285649
_cell_length_b 27.279064
_cell_length_c 26.240083
_cell_angle_alpha 90.000000
_cell_angle_beta 90.000000
_cell_angle_gamma 90.000000
_cell_volume 6646.713087
_symmetry_space_group_name_H-M "C M M M"
_symmetry_group_IT_number 65
_symmetry_cell_setting 'orthorhombic'
loop_
_space_group_symop_operation_xyz
x,y,z
-x,-y,z
x,-y,-z
-x,y,-z
-x,-y,-z
x,y,-z
-x,y,z
x,-y,z
1/2+x,1/2+y,z
1/2-x,1/2-y,z
1/2+x,1/2-y,-z
1/2-x,1/2+y,-z
1/2-x,1/2-y,-z
1/2+x,1/2+y,-z
1/2-x,1/2+y,z
1/2+x,1/2-y,z
loop_
_atom_site_type_symbol
_atom_site_label
_atom_site_fract_x
_atom_site_fract_y
_atom_site_fract_z
Si Si1 0.337562 0.441753 0.000000
Si Si2 0.167462 0.555185 0.701236
Si Si3 0.332587 0.299115 0.442606
Si Si4 0.832764 0.614748 0.198913
Si Si5 0.669691 0.698826 0.750452
Si Si6 0.667678 0.056450 0.901773
Si Si7 0.666828 0.362472 0.651116
O O1 0.256373 0.422688 0.949700
O O2 0.334341 0.500000 0.000000
O O3 0.500000 0.421308 0.000000
O O4 0.226858 0.500000 0.698140
O O5 0.200251 0.575113 0.757490
O O6 0.246866 0.587489 0.658874
O O7 0.000000 0.557203 0.688666
O O8 0.295979 0.316696 0.500000
O O9 0.500000 0.287164 0.436033
O O10 0.250000 0.250000 0.428309
O O11 0.284694 0.341239 0.403491
O O12 0.733906 0.662460 0.206790
O O13 0.789030 0.589664 0.146047
O O14 0.000000 0.630491 0.199780
O O15 0.500000 0.705741 0.759713
O O16 0.750000 0.750000 0.755668
O O17 0.703588 0.677198 0.694637
O O18 0.500000 0.061134 0.914915
O O19 0.707207 0.000000 0.889527
O O20 0.500000 0.376036 0.652226
#
# Coordination Sequence:
#
# PCOD8267340 Si02
#       7
#     8  16  16  16  16  16  16
#     4   9  17  27  39  59  88 119 148 179 215 251
#     4   9  17  29  45  65  88 114 145 179 214 253
#     4   9  17  29  45  65  88 112 140 176 217 260
#     4   9  17  29  45  65  88 114 144 178 216 255
#     4  10  19  30  44  63  88 115 143 175 212 256
#     4   9  16  27  44  64  87 116 148 179 211 251
#     4   9  18  30  44  64  88 114 143 175 213 257
#
# _framework density 15.646831000000001
#
# number of rings (size 3 to 8) (size 9 to 14) (size 15 to 20)
#    0.000    2.846    0.000    1.615    0.000    4.923 
#    0.000    0.000    0.000    3.231    0.000    3.769 
#    0.000    0.000    0.000    0.000    0.000    0.000 
#
# Total GULP energy -644823.807313 kJ/mol
# GULP energy per Si atom -12400.457833 kJ/mol
# Density = 1.561122 g / cm^3
# Si number density = 15.646831 Si / 1000 Ang^3
#
#
#
# Elastic Constant Matrix: (Units=GPa)
#
#
# Indices 1 2 3 4 5 6 
#
# 1 66.8080 58.4588 51.5519 0.0000 0.0000 0.0000
# 2 58.4588 120.8229 64.2783 0.0000 0.0000 0.0000
# 3 51.5519 64.2783 113.7370 0.0000 0.0000 0.0000
# 4 0.0000 0.0000 0.0000 22.3326 0.0000 0.0000
# 5 0.0000 0.0000 0.0000 0.0000 23.1158 0.0000
# 6 0.0000 0.0000 0.0000 0.0000 0.0000 27.3826
#
#
#
# Elastic Compliance Matrix: (Units=1/GPa)
#
#
# Indices 1 2 3 4 5 6 
#
# 1 0.030062 -0.010433 -0.007730 0.000000 0.000000 0.000000
# 2 -0.010433 0.015456 -0.004006 0.000000 0.000000 0.000000
# 3 -0.007730 -0.004006 0.014560 0.000000 0.000000 0.000000
# 4 0.000000 0.000000 0.000000 0.044778 0.000000 0.000000
# 5 0.000000 0.000000 0.000000 0.000000 0.043260 0.000000
# 6 0.000000 0.000000 0.000000 0.000000 0.000000 0.036520
#
#
# Mechanical properties :
#
#
# Convention : Reuss Voigt Hill
#
# Bulk Modulus (GPa) = 63.53138 72.21622 67.87380
# Shear Modulus (GPa) = 21.34764 23.03814 22.19289
#
# Velocity S-wave (km/s) = 3.69771 3.84133 3.77020
# Velocity P-wave (km/s) = 7.67608 8.11964 7.90097
#
# Compressibility (1/GPa) = 0.01574025
#
# Stress axis : x y z
#
# Youngs Moduli (GPa) = 33.26481 64.70146 68.68319
#
# Poissons Ratio (x) = 0.67503 0.53089
# Poissons Ratio (y) = 0.34705 0.27514
# Poissons Ratio (z) = 0.25712 0.25919
#
# Static dielectric constant tensor:
#      x y z
#    x 3.016720 0.000000 0.000000 
#    y 0.000000 2.873150 0.000000 
#    z 0.000000 0.000000 3.030250 
# 
# 
# High freq. dielectric constant tensor:
#      x y z
#    x 1.603710 0.000000 0.000000 
#    y 0.000000 1.579860 0.000000 
#    z 0.000000 0.000000 1.594260 
# 
# From -- ./inp_files/71810.got.cif
#   From: 2010.03.12/outbox.cif.g09.slc.cpg/sg65_36_cif.got.tgz:71810.got - 2010.04.10 20:52:16.
