data_PCOD8267103
_publ_section_title
;
Structure prediction by ZEFSAII (Michael W. Deem and Ramdas Pophale) SiO2 
 PCOD8267103
Probable space group: C M M M
;
_chemical_formula_sum "Si O2"
_cell_formula_units_Z 88
_cell_length_a 25.601102
_cell_length_b 8.843484
_cell_length_c 25.212494
_cell_angle_alpha 90.000000
_cell_angle_beta 90.000000
_cell_angle_gamma 90.000000
_cell_volume 5708.182663
_symmetry_space_group_name_H-M "C M M M"
_symmetry_group_IT_number 65
_symmetry_cell_setting 'orthorhombic'
loop_
_space_group_symop_operation_xyz
x,y,z
-x,-y,z
x,-y,-z
-x,y,-z
-x,-y,-z
x,y,-z
-x,y,z
x,-y,z
1/2+x,1/2+y,z
1/2-x,1/2-y,z
1/2+x,1/2-y,-z
1/2-x,1/2+y,-z
1/2-x,1/2-y,-z
1/2+x,1/2+y,-z
1/2-x,1/2+y,z
1/2+x,1/2-y,z
loop_
_atom_site_type_symbol
_atom_site_label
_atom_site_fract_x
_atom_site_fract_y
_atom_site_fract_z
Si Si1 0.804851 0.822206 0.939300
Si Si2 0.399158 0.179056 0.122403
Si Si3 0.058546 0.320236 0.443841
Si Si4 0.560879 0.675782 0.775191
Si Si5 0.500000 0.820227 0.059502
Si Si6 0.437706 0.829989 0.330686
O O1 0.750000 0.750000 0.922954
O O2 0.847848 0.753873 0.900935
O O3 0.801308 0.000000 0.930714
O O4 0.818961 0.780812 0.000000
O O5 0.405707 0.228490 0.183106
O O6 0.448791 0.240444 0.089351
O O7 0.394025 0.000000 0.118690
O O8 0.086806 0.270400 0.500000
O O9 0.056433 0.500000 0.440954
O O10 0.084935 0.267661 0.387829
O O11 0.000000 0.255076 0.446329
O O12 0.500000 0.717796 0.781765
O O13 0.571144 0.500000 0.784478
O O14 0.581001 0.720981 0.716592
O O15 0.500000 0.000000 0.058984
O O16 0.500000 0.754532 0.000000
O O17 0.500000 0.830311 0.335101
O O18 0.417644 0.000000 0.318773
#
# Coordination Sequence:
#
# PCOD8267103 Si02
#       6
#    16  16  16  16   8  16
#     4  10  21  37  55  74  94 116 143 176 215 260
#     4  11  20  32  50  69  91 117 147 182 219 262
#     4   7   9  14  26  45  66  88 121 169 216 251
#     4  10  19  29  40  56  83 114 145 180 218 260
#     4   9  18  30  45  67  91 113 138 171 214 261
#     4   8  13  21  34  50  69  97 135 174 212 255
#
# _framework density 15.416465000000001
#
# number of rings (size 3 to 8) (size 9 to 14) (size 15 to 20)
#    0.000    2.818    0.909    3.818    0.000    2.545 
#    0.000    0.000    0.000    2.727    0.000    3.818 
#    0.000    0.000    0.000    0.000    0.000    0.909 
#
# Total GULP energy -545154.674268 kJ/mol
# GULP energy per Si atom -12389.878961 kJ/mol
# Density = 1.538138 g / cm^3
# Si number density = 15.416465 Si / 1000 Ang^3
#
#
#
# Elastic Constant Matrix: (Units=GPa)
#
#
# Indices 1 2 3 4 5 6 
#
# 1 60.1176 24.8045 45.4043 0.0000 0.0000 0.0000
# 2 24.8045 46.8609 29.7351 0.0000 0.0000 0.0000
# 3 45.4043 29.7351 141.7605 0.0000 0.0000 0.0000
# 4 0.0000 0.0000 0.0000 16.9469 0.0000 0.0000
# 5 0.0000 0.0000 0.0000 0.0000 83.5612 0.0000
# 6 0.0000 0.0000 0.0000 0.0000 0.0000 16.7574
#
#
#
# Elastic Compliance Matrix: (Units=1/GPa)
#
#
# Indices 1 2 3 4 5 6 
#
# 1 0.025108 -0.009445 -0.006061 0.000000 0.000000 0.000000
# 2 -0.009445 0.028169 -0.002884 0.000000 0.000000 0.000000
# 3 -0.006061 -0.002884 0.009600 0.000000 0.000000 0.000000
# 4 0.000000 0.000000 0.000000 0.059008 0.000000 0.000000
# 5 0.000000 0.000000 0.000000 0.000000 0.011967 0.000000
# 6 0.000000 0.000000 0.000000 0.000000 0.000000 0.059675
#
#
# Mechanical properties :
#
#
# Convention : Reuss Voigt Hill
#
# Bulk Modulus (GPa) = 38.31518 49.84742 44.08130
# Shear Modulus (GPa) = 20.92003 33.37278 27.14641
#
# Velocity S-wave (km/s) = 3.68773 4.65773 4.20083
# Velocity P-wave (km/s) = 6.56048 7.83135 7.22392
#
# Compressibility (1/GPa) = 0.02609931
#
# Stress axis : x y z
#
# Youngs Moduli (GPa) = 39.82725 35.50039 104.16418
#
# Poissons Ratio (x) = 0.33529 0.63133
# Poissons Ratio (y) = 0.37615 0.30036
# Poissons Ratio (z) = 0.24139 0.10237
#
# Static dielectric constant tensor:
#      x y z
#    x 2.515800 0.000000 0.000000 
#    y 0.000000 2.779140 0.000000 
#    z 0.000000 0.000000 3.455760 
# 
# 
# High freq. dielectric constant tensor:
#      x y z
#    x 1.520870 0.000000 0.000000 
#    y 0.000000 1.578360 0.000000 
#    z 0.000000 0.000000 1.613080 
# 
# From -- ./inp_files/70959.got.cif
#   From: 2010.03.12/outbox.cif.g09.slc.cpg/sg65_36_cif.got.tgz:70959.got - 2010.04.10 20:52:16.
