data_PCOD8267768
_publ_section_title
;
Structure prediction by ZEFSAII (Michael W. Deem and Ramdas Pophale) SiO2 
 PCOD8267768
Probable space group: C M M M
;
_chemical_formula_sum "Si O2"
_cell_formula_units_Z 80
_cell_length_a 10.185433
_cell_length_b 28.306454
_cell_length_c 16.486376
_cell_angle_alpha 90.000000
_cell_angle_beta 90.000000
_cell_angle_gamma 90.000000
_cell_volume 4753.244613
_symmetry_space_group_name_H-M "C M M M"
_symmetry_group_IT_number 65
_symmetry_cell_setting 'orthorhombic'
loop_
_space_group_symop_operation_xyz
x,y,z
-x,-y,z
x,-y,-z
-x,y,-z
-x,-y,-z
x,y,-z
-x,y,z
x,-y,z
1/2+x,1/2+y,z
1/2-x,1/2-y,z
1/2+x,1/2-y,-z
1/2-x,1/2+y,-z
1/2-x,1/2-y,-z
1/2+x,1/2+y,-z
1/2-x,1/2+y,z
1/2+x,1/2-y,z
loop_
_atom_site_type_symbol
_atom_site_label
_atom_site_fract_x
_atom_site_fract_y
_atom_site_fract_z
Si Si1 0.651071 0.665106 0.000000
Si Si2 0.142375 0.417119 0.000000
Si Si3 0.655188 0.447088 0.589647
Si Si4 0.349044 0.613052 0.740106
Si Si5 0.354693 0.051924 0.172851
Si Si6 0.649482 0.709470 0.825875
O O1 0.681841 0.694179 0.081909
O O2 0.500000 0.648398 0.000000
O O3 0.741153 0.619911 0.000000
O O4 0.150712 0.451511 0.923690
O O5 0.000000 0.390290 0.000000
O O6 0.712550 0.435300 0.500000
O O7 0.500000 0.447583 0.584757
O O8 0.703145 0.500000 0.616638
O O9 0.699675 0.405445 0.651517
O O10 0.500000 0.597924 0.754607
O O11 0.258079 0.587894 0.804534
O O12 0.332332 0.668615 0.757608
O O13 0.500000 0.068979 0.202122
O O14 0.325841 0.000000 0.208772
O O15 0.500000 0.728379 0.821968
O O16 0.750000 0.750000 0.799749
#
# Coordination Sequence:
#
# PCOD8267768 Si02
#       6
#     8   8  16  16  16  16
#     4  10  19  34  50  68  94 121 158 210 254 289
#     4  10  19  31  47  65  91 131 168 196 232 283
#     4   8  14  26  47  76 105 129 155 189 231 283
#     4  10  19  32  51  74  98 124 159 204 248 286
#     4  10  20  32  46  67  97 132 166 197 233 283
#     4  10  21  34  50  70  94 124 161 205 250 294
#
# _framework density 16.830608999999999
#
# number of rings (size 3 to 8) (size 9 to 14) (size 15 to 20)
#    0.000    2.400    2.000    1.800    0.000    4.000 
#    0.000    0.000    0.000    3.000    0.000    2.800 
#    0.000    0.000    0.000    0.000    0.000    0.000 
#
# Total GULP energy -495555.097949 kJ/mol
# GULP energy per Si atom -12388.877449 kJ/mol
# Density = 1.679230 g / cm^3
# Si number density = 16.830609 Si / 1000 Ang^3
#
#
#
# Elastic Constant Matrix: (Units=GPa)
#
#
# Indices 1 2 3 4 5 6 
#
# 1 74.3093 51.3868 21.0552 0.0000 0.0000 0.0000
# 2 51.3868 91.1618 42.0939 0.0000 0.0000 0.0000
# 3 21.0552 42.0939 95.4753 0.0000 0.0000 0.0000
# 4 0.0000 0.0000 0.0000 19.0272 0.0000 0.0000
# 5 0.0000 0.0000 0.0000 0.0000 7.2310 0.0000
# 6 0.0000 0.0000 0.0000 0.0000 0.0000 26.2181
#
#
#
# Elastic Compliance Matrix: (Units=1/GPa)
#
#
# Indices 1 2 3 4 5 6 
#
# 1 0.022100 -0.012816 0.000777 0.000000 0.000000 0.000000
# 2 -0.012816 0.021206 -0.006523 0.000000 0.000000 0.000000
# 3 0.000777 -0.006523 0.013179 0.000000 0.000000 0.000000
# 4 0.000000 0.000000 0.000000 0.052556 0.000000 0.000000
# 5 0.000000 0.000000 0.000000 0.000000 0.138294 0.000000
# 6 0.000000 0.000000 0.000000 0.000000 0.000000 0.038142
#
#
# Mechanical properties :
#
#
# Convention : Reuss Voigt Hill
#
# Bulk Modulus (GPa) = 51.65435 54.44647 53.05041
# Shear Modulus (GPa) = 15.19507 20.25595 17.72551
#
# Velocity S-wave (km/s) = 3.00796 3.47294 3.24878
# Velocity P-wave (km/s) = 6.54379 6.96431 6.75732
#
# Compressibility (1/GPa) = 0.01935945
#
# Stress axis : x y z
#
# Youngs Moduli (GPa) = 45.24922 47.15687 75.88091
#
# Poissons Ratio (x) = 0.60437 -0.05894
# Poissons Ratio (y) = 0.57992 0.49498
# Poissons Ratio (z) = -0.03515 0.30761
#
# Static dielectric constant tensor:
#      x y z
#    x 3.103800 0.000000 0.000000 
#    y 0.000000 2.977250 0.000000 
#    z 0.000000 0.000000 3.372680 
# 
# 
# High freq. dielectric constant tensor:
#      x y z
#    x 1.640250 0.000000 0.000000 
#    y 0.000000 1.630480 0.000000 
#    z 0.000000 0.000000 1.637790 
# 
# From -- ./inp_files/50186.got.cif
#   From: 2010.03.12/outbox.cif.g09.slc.cpg/sg65_26_cif.got.tgz:50186.got - 2010.04.10 20:52:16.
