data_PCOD8267289
_publ_section_title
;
Structure prediction by ZEFSAII (Michael W. Deem and Ramdas Pophale) SiO2 
 PCOD8267289
Probable space group: C M M M
;
_chemical_formula_sum "Si O2"
_cell_formula_units_Z 128
_cell_length_a 26.981863
_cell_length_b 26.037808
_cell_length_c 12.978787
_cell_angle_alpha 90.000000
_cell_angle_beta 90.000000
_cell_angle_gamma 90.000000
_cell_volume 9118.228225
_symmetry_space_group_name_H-M "C M M M"
_symmetry_group_IT_number 65
_symmetry_cell_setting 'orthorhombic'
loop_
_space_group_symop_operation_xyz
x,y,z
-x,-y,z
x,-y,-z
-x,y,-z
-x,-y,-z
x,y,-z
-x,y,z
x,-y,z
1/2+x,1/2+y,z
1/2-x,1/2-y,z
1/2+x,1/2-y,-z
1/2-x,1/2+y,-z
1/2-x,1/2-y,-z
1/2+x,1/2+y,-z
1/2-x,1/2+y,z
1/2+x,1/2-y,z
loop_
_atom_site_type_symbol
_atom_site_label
_atom_site_fract_x
_atom_site_fract_y
_atom_site_fract_z
Si Si1 0.651337 0.797790 0.382321
Si Si2 0.293315 0.284787 0.257807
Si Si3 0.196737 0.058794 0.732610
Si Si4 0.763642 0.368497 0.379479
Si Si5 0.403242 0.557950 0.380268
Si Si6 0.848688 0.862272 0.878532
Si Si7 0.555054 0.747435 0.382025
Si Si8 0.056385 0.147374 0.749903
O O1 0.666135 0.785965 0.500000
O O2 0.667221 0.750498 0.313187
O O3 0.679310 0.851162 0.352335
O O4 0.591605 0.796898 0.366632
O O5 0.250000 0.250000 0.209296
O O6 0.272717 0.322606 0.346018
O O7 0.318956 0.313415 0.163409
O O8 0.248205 0.081722 0.687178
O O9 0.154470 0.066807 0.646516
O O10 0.178170 0.086639 0.836229
O O11 0.206759 0.000000 0.760593
O O12 0.757433 0.380560 0.500000
O O13 0.410335 0.567470 0.500000
O O14 0.418869 0.500000 0.348884
O O15 0.438615 0.597619 0.322391
O O16 0.906193 0.858608 0.845397
O O17 0.845828 0.863284 0.000000
O O18 0.557687 0.728357 0.500000
O O19 0.500000 0.766846 0.353452
O O20 0.570220 0.698639 0.313046
O O21 0.000000 0.149842 0.791292
#
# Coordination Sequence:
#
# PCOD8267289 Si02
#       8
#    16  16  16  16  16  16  16  16
#     4   9  15  24  39  60  86 111 132 156 190 235
#     4   9  16  27  41  59  82 106 130 160 195 238
#     4   9  18  31  44  59  79 104 132 165 205 247
#     4   9  16  24  39  63  86 107 129 154 189 239
#     4   9  17  28  42  59  79 102 126 158 203 251
#     4  10  20  32  44  58  73  98 138 178 211 241
#     4   9  16  25  39  59  82 109 137 163 194 236
#     4  10  19  30  42  56  76 103 135 172 208 243
#
# _framework density 14.037815
#
# number of rings (size 3 to 8) (size 9 to 14) (size 15 to 20)
#    0.000    2.750    1.250    1.125    0.000    4.000 
#    0.000    0.625    0.000    0.000    0.000    3.500 
#    0.000    0.500    0.000    4.875    0.000    0.000 
#
# Total GULP energy -793134.176414 kJ/mol
# GULP energy per Si atom -12392.721506 kJ/mol
# Density = 1.400586 g / cm^3
# Si number density = 14.037815 Si / 1000 Ang^3
#
#
#
# Elastic Constant Matrix: (Units=GPa)
#
#
# Indices 1 2 3 4 5 6 
#
# 1 87.5314 48.0155 38.0572 0.0000 0.0000 0.0000
# 2 48.0155 66.4421 32.2611 0.0000 0.0000 0.0000
# 3 38.0572 32.2611 73.7982 0.0000 0.0000 0.0000
# 4 0.0000 0.0000 0.0000 11.5523 0.0000 0.0000
# 5 0.0000 0.0000 0.0000 0.0000 13.2539 0.0000
# 6 0.0000 0.0000 0.0000 0.0000 0.0000 20.7646
#
#
#
# Elastic Compliance Matrix: (Units=1/GPa)
#
#
# Indices 1 2 3 4 5 6 
#
# 1 0.020369 -0.012212 -0.005166 0.000000 0.000000 0.000000
# 2 -0.012212 0.026428 -0.005255 0.000000 0.000000 0.000000
# 3 -0.005166 -0.005255 0.018512 0.000000 0.000000 0.000000
# 4 0.000000 0.000000 0.000000 0.086563 0.000000 0.000000
# 5 0.000000 0.000000 0.000000 0.000000 0.075450 0.000000
# 6 0.000000 0.000000 0.000000 0.000000 0.000000 0.048159
#
#
# Mechanical properties :
#
#
# Convention : Reuss Voigt Hill
#
# Bulk Modulus (GPa) = 49.89375 51.60439 50.74907
# Shear Modulus (GPa) = 15.27057 16.41002 15.84030
#
# Velocity S-wave (km/s) = 3.30178 3.42275 3.36281
# Velocity P-wave (km/s) = 7.08204 7.24301 7.16297
#
# Compressibility (1/GPa) = 0.02004259
#
# Stress axis : x y z
#
# Youngs Moduli (GPa) = 49.09317 37.83914 54.01958
#
# Poissons Ratio (x) = 0.46209 0.27906
# Poissons Ratio (y) = 0.59953 0.28389
# Poissons Ratio (z) = 0.25361 0.19886
#
# Static dielectric constant tensor:
#      x y z
#    x 2.900520 0.000000 0.000000 
#    y 0.000000 2.778750 0.000000 
#    z 0.000000 0.000000 2.481560 
# 
# 
# High freq. dielectric constant tensor:
#      x y z
#    x 1.533250 0.000000 0.000000 
#    y 0.000000 1.516420 0.000000 
#    z 0.000000 0.000000 1.512220 
# 
# From -- ./inp_files/32953.got.cif
#   From: 2010.03.12/outbox.cif.g09.slc.cpg/sg65_17_cif.got.tgz:32953.got - 2010.04.10 20:52:16.
