data_PCOD8267434
_publ_section_title
;
Structure prediction by ZEFSAII (Michael W. Deem and Ramdas Pophale) SiO2 
 PCOD8267434
Probable space group: C M M M
;
_chemical_formula_sum "Si O2"
_cell_formula_units_Z 112
_cell_length_a 17.374709
_cell_length_b 19.579621
_cell_length_c 18.263604
_cell_angle_alpha 90.000000
_cell_angle_beta 90.000000
_cell_angle_gamma 90.000000
_cell_volume 6213.099412
_symmetry_space_group_name_H-M "C M M M"
_symmetry_group_IT_number 65
_symmetry_cell_setting 'orthorhombic'
loop_
_space_group_symop_operation_xyz
x,y,z
-x,-y,z
x,-y,-z
-x,y,-z
-x,-y,-z
x,y,-z
-x,y,z
x,-y,z
1/2+x,1/2+y,z
1/2-x,1/2-y,z
1/2+x,1/2-y,-z
1/2-x,1/2+y,-z
1/2-x,1/2-y,-z
1/2+x,1/2+y,-z
1/2-x,1/2+y,z
1/2+x,1/2-y,z
loop_
_atom_site_type_symbol
_atom_site_label
_atom_site_fract_x
_atom_site_fract_y
_atom_site_fract_z
Si Si1 0.699091 0.420512 0.695468
Si Si2 0.853521 0.575619 0.222285
Si Si3 0.591238 0.673153 0.221748
Si Si4 0.778911 0.326597 0.583284
Si Si5 0.163216 0.228922 0.916949
Si Si6 0.913906 0.306963 0.310686
Si Si7 0.588924 0.872899 0.081581
O O1 0.687377 0.500000 0.675653
O O2 0.766888 0.408011 0.753675
O O3 0.621489 0.391859 0.732429
O O4 0.719693 0.378693 0.621938
O O5 0.877216 0.500000 0.248285
O O6 0.913583 0.629358 0.255328
O O7 0.858218 0.581538 0.134555
O O8 0.500000 0.666838 0.212436
O O9 0.631712 0.674060 0.141768
O O10 0.616134 0.740650 0.267018
O O11 0.787427 0.351331 0.500000
O O12 0.750000 0.250000 0.588468
O O13 0.862480 0.327157 0.620142
O O14 0.250000 0.250000 0.896729
O O15 0.107212 0.293292 0.909794
O O16 0.160067 0.198764 0.000000
O O17 0.000000 0.294300 0.339569
O O18 0.500000 0.884305 0.100776
O O19 0.608209 0.898028 0.000000
#
# Coordination Sequence:
#
# PCOD8267434 Si02
#       7
#    16  16  16  16  16  16  16
#     4  10  22  39  59  83 110 142 184 235 281 331
#     4  10  20  33  51  74 104 145 185 224 274 331
#     4  11  21  34  57  83 110 149 190 235 285 335
#     4  10  20  36  60  86 112 146 181 220 270 330
#     4  10  20  32  51  79 110 146 189 240 291 334
#     4  10  20  33  53  83 112 145 183 223 274 330
#     4  10  19  30  45  69 104 142 180 224 274 330
#
# _framework density 18.026430000000001
#
# number of rings (size 3 to 8) (size 9 to 14) (size 15 to 20)
#    0.000    1.857    2.857    1.714    2.000    3.143 
#    0.000    0.714    0.000    1.714    0.000    6.000 
#    0.000    0.000    0.000    0.000    0.000    0.000 
#
# Total GULP energy -694418.450762 kJ/mol
# GULP energy per Si atom -12400.329478 kJ/mol
# Density = 1.798540 g / cm^3
# Si number density = 18.026430 Si / 1000 Ang^3
#
#
#
# Elastic Constant Matrix: (Units=GPa)
#
#
# Indices 1 2 3 4 5 6 
#
# 1 69.4952 24.4531 53.0607 0.0000 0.0000 0.0000
# 2 24.4531 92.4942 44.5123 0.0000 0.0000 0.0000
# 3 53.0607 44.5123 132.4015 0.0000 0.0000 0.0000
# 4 0.0000 0.0000 0.0000 12.8091 0.0000 0.0000
# 5 0.0000 0.0000 0.0000 0.0000 21.3371 0.0000
# 6 0.0000 0.0000 0.0000 0.0000 0.0000 19.1425
#
#
#
# Elastic Compliance Matrix: (Units=1/GPa)
#
#
# Indices 1 2 3 4 5 6 
#
# 1 0.020979 -0.001790 -0.007806 0.000000 0.000000 0.000000
# 2 -0.001790 0.013051 -0.003670 0.000000 0.000000 0.000000
# 3 -0.007806 -0.003670 0.011915 0.000000 0.000000 0.000000
# 4 0.000000 0.000000 0.000000 0.078070 0.000000 0.000000
# 5 0.000000 0.000000 0.000000 0.000000 0.046867 0.000000
# 6 0.000000 0.000000 0.000000 0.000000 0.000000 0.052240
#
#
# Mechanical properties :
#
#
# Convention : Reuss Voigt Hill
#
# Bulk Modulus (GPa) = 51.51162 59.82702 55.66932
# Shear Modulus (GPa) = 19.52178 22.14872 20.83525
#
# Velocity S-wave (km/s) = 3.29440 3.50906 3.40342
# Velocity P-wave (km/s) = 6.56570 7.04830 6.81127
#
# Compressibility (1/GPa) = 0.01941309
#
# Stress axis : x y z
#
# Youngs Moduli (GPa) = 47.66650 76.62242 83.92831
#
# Poissons Ratio (x) = 0.13714 0.65512
# Poissons Ratio (y) = 0.08532 0.30805
# Poissons Ratio (z) = 0.37207 0.28123
#
# Static dielectric constant tensor:
#      x y z
#    x 3.212420 0.000000 0.000000 
#    y 0.000000 3.206750 0.000000 
#    z 0.000000 0.000000 3.442080 
# 
# 
# High freq. dielectric constant tensor:
#      x y z
#    x 1.694970 0.000000 0.000000 
#    y 0.000000 1.680490 0.000000 
#    z 0.000000 0.000000 1.697790 
# 
# From -- ./inp_files/54816.got.cif
#   From: 2010.03.12/outbox.cif.g09.slc.cpg/sg65_28_cif.got.tgz:54816.got - 2010.04.10 20:52:16.
