data_PCOD8267383
_publ_section_title
;
Structure prediction by ZEFSAII (Michael W. Deem and Ramdas Pophale) SiO2 
 PCOD8267383
Probable space group: C M M M
;
_chemical_formula_sum "Si O2"
_cell_formula_units_Z 80
_cell_length_a 18.759557
_cell_length_b 9.771029
_cell_length_c 25.981695
_cell_angle_alpha 90.000000
_cell_angle_beta 90.000000
_cell_angle_gamma 90.000000
_cell_volume 4762.449253
_symmetry_space_group_name_H-M "C M M M"
_symmetry_group_IT_number 65
_symmetry_cell_setting 'orthorhombic'
loop_
_space_group_symop_operation_xyz
x,y,z
-x,-y,z
x,-y,-z
-x,y,-z
-x,-y,-z
x,y,-z
-x,y,z
x,-y,z
1/2+x,1/2+y,z
1/2-x,1/2-y,z
1/2+x,1/2-y,-z
1/2-x,1/2+y,-z
1/2-x,1/2-y,-z
1/2+x,1/2+y,-z
1/2-x,1/2+y,z
1/2+x,1/2-y,z
loop_
_atom_site_type_symbol
_atom_site_label
_atom_site_fract_x
_atom_site_fract_y
_atom_site_fract_z
Si Si1 0.079320 0.662178 0.557158
Si Si2 0.584784 0.346788 0.942969
Si Si3 0.415111 0.847772 0.855015
Si Si4 0.079000 0.662337 0.741874
Si Si5 0.678763 0.163433 0.649134
O O1 0.103100 0.710966 0.500000
O O2 0.076018 0.500000 0.559376
O O3 0.135681 0.714202 0.598937
O O4 0.000000 0.719370 0.569698
O O5 0.500000 0.345583 0.939323
O O6 0.613248 0.500000 0.933094
O O7 0.618064 0.248473 0.899377
O O8 0.608355 0.296590 0.000000
O O9 0.500000 0.852493 0.858693
O O10 0.393972 0.789739 0.798447
O O11 0.383920 0.000000 0.863414
O O12 0.073168 0.500000 0.742097
O O13 0.134088 0.711086 0.698814
O O14 0.000000 0.722659 0.729944
O O15 0.750000 0.250000 0.650048
O O16 0.693543 0.000000 0.648750
#
# Coordination Sequence:
#
# PCOD8267383 Si02
#       5
#    16  16  16  16  16
#     4   8  14  26  46  70  90 111 147 188 215 242
#     4   8  13  20  29  44  71 105 133 156 192 247
#     4   8  13  21  34  52  71  93 129 174 209 238
#     4   8  14  26  44  62  79 106 146 184 214 248
#     4  10  19  30  45  65  90 117 143 176 218 260
#
# _framework density 16.798078
#
# number of rings (size 3 to 8) (size 9 to 14) (size 15 to 20)
#    0.000    3.600    0.000    3.000    0.000    3.200 
#    0.000    3.000    0.000    3.600    0.000    1.400 
#    0.000    0.800    0.000    1.800    0.000    4.800 
#
# Total GULP energy -495595.715889 kJ/mol
# GULP energy per Si atom -12389.892897 kJ/mol
# Density = 1.675985 g / cm^3
# Si number density = 16.798078 Si / 1000 Ang^3
#
#
#
# Elastic Constant Matrix: (Units=GPa)
#
#
# Indices 1 2 3 4 5 6 
#
# 1 73.7234 31.3489 69.6692 0.0000 0.0000 0.0000
# 2 31.3489 45.9807 56.7116 0.0000 0.0000 0.0000
# 3 69.6692 56.7116 181.5761 0.0000 0.0000 0.0000
# 4 0.0000 0.0000 0.0000 14.4776 0.0000 0.0000
# 5 0.0000 0.0000 0.0000 0.0000 3.2999 0.0000
# 6 0.0000 0.0000 0.0000 0.0000 0.0000 18.0197
#
#
#
# Elastic Compliance Matrix: (Units=1/GPa)
#
#
# Indices 1 2 3 4 5 6 
#
# 1 0.022863 -0.007756 -0.006350 0.000000 0.000000 0.000000
# 2 -0.007756 0.038007 -0.008895 0.000000 0.000000 0.000000
# 3 -0.006350 -0.008895 0.010722 0.000000 0.000000 0.000000
# 4 0.000000 0.000000 0.000000 0.069072 0.000000 0.000000
# 5 0.000000 0.000000 0.000000 0.000000 0.303038 0.000000
# 6 0.000000 0.000000 0.000000 0.000000 0.000000 0.055495
#
#
# Mechanical properties :
#
#
# Convention : Reuss Voigt Hill
#
# Bulk Modulus (GPa) = 39.07697 68.52662 53.80179
# Shear Modulus (GPa) = 9.02971 16.72947 12.87959
#
# Velocity S-wave (km/s) = 2.32102 3.15924 2.77199
# Velocity P-wave (km/s) = 5.52233 7.36143 6.50718
#
# Compressibility (1/GPa) = 0.02559052
#
# Stress axis : x y z
#
# Youngs Moduli (GPa) = 43.73916 26.31124 93.26716
#
# Poissons Ratio (x) = 0.20406 0.59224
# Poissons Ratio (y) = 0.33922 0.82960
# Poissons Ratio (z) = 0.27774 0.23403
#
# Static dielectric constant tensor:
#      x y z
#    x 2.819300 0.000000 0.000000 
#    y 0.000000 2.896710 0.000000 
#    z 0.000000 0.000000 3.755510 
# 
# 
# High freq. dielectric constant tensor:
#      x y z
#    x 1.599230 0.000000 0.000000 
#    y 0.000000 1.602360 0.000000 
#    z 0.000000 0.000000 1.669970 
# 
# From -- ./inp_files/68816.got.cif
#   From: 2010.03.12/outbox.cif.g09.slc.cpg/sg65_35_cif.got.tgz:68816.got - 2010.04.10 20:52:16.
