data_PCOD8267058
_publ_section_title
;
Structure prediction by ZEFSAII (Michael W. Deem and Ramdas Pophale) SiO2 
 PCOD8267058
Probable space group: C M M M
;
_chemical_formula_sum "Si O2"
_cell_formula_units_Z 96
_cell_length_a 9.219308
_cell_length_b 26.091664
_cell_length_c 22.985305
_cell_angle_alpha 90.000000
_cell_angle_beta 90.000000
_cell_angle_gamma 90.000000
_cell_volume 5529.048153
_symmetry_space_group_name_H-M "C M M M"
_symmetry_group_IT_number 65
_symmetry_cell_setting 'orthorhombic'
loop_
_space_group_symop_operation_xyz
x,y,z
-x,-y,z
x,-y,-z
-x,y,-z
-x,-y,-z
x,y,-z
-x,y,z
x,-y,z
1/2+x,1/2+y,z
1/2-x,1/2-y,z
1/2+x,1/2-y,-z
1/2-x,1/2+y,-z
1/2-x,1/2-y,-z
1/2+x,1/2+y,-z
1/2-x,1/2+y,z
1/2+x,1/2-y,z
loop_
_atom_site_type_symbol
_atom_site_label
_atom_site_fract_x
_atom_site_fract_y
_atom_site_fract_z
Si Si1 0.656741 0.706811 0.737639
Si Si2 0.168575 0.301760 0.064843
Si Si3 0.332213 0.855095 0.177978
Si Si4 0.169471 0.558310 0.734189
Si Si5 0.161540 0.879478 0.355226
Si Si6 0.166922 0.698072 0.431330
O O1 0.500000 0.728490 0.755830
O O2 0.750000 0.750000 0.704238
O O3 0.744119 0.691848 0.795041
O O4 0.638170 0.659645 0.696130
O O5 0.250000 0.250000 0.083828
O O6 0.200421 0.349844 0.108742
O O7 0.000000 0.287927 0.066361
O O8 0.216970 0.319250 0.000000
O O9 0.500000 0.846298 0.191541
O O10 0.284001 0.908698 0.208436
O O11 0.208511 0.500000 0.749591
O O12 0.253532 0.573187 0.674510
O O13 0.000000 0.565565 0.720749
O O14 0.255559 0.852606 0.405712
O O15 0.000000 0.895919 0.378307
O O16 0.172124 0.691185 0.500000
O O17 0.250000 0.750000 0.412579
O O18 0.000000 0.701692 0.409275
#
# Coordination Sequence:
#
# PCOD8267058 Si02
#       6
#    16  16  16  16  16  16
#     4  10  19  28  40  62  91 120 149 183 225 272
#     4   9  17  28  42  62  90 123 156 189 225 269
#     4   9  17  29  45  64  87 117 152 189 230 278
#     4   9  18  33  52  71  91 118 153 195 244 294
#     4  10  20  32  48  70  95 124 157 194 236 282
#     4  10  20  33  50  73 102 135 167 196 227 268
#
# _framework density 17.362843000000002
#
# number of rings (size 3 to 8) (size 9 to 14) (size 15 to 20)
#    0.000    2.500    0.000    2.500    0.000    6.667 
#    0.000    0.000    0.000    1.000    0.000    7.000 
#    0.000    0.000    0.000   12.500    0.000   13.000 
#
# Total GULP energy -594730.257929 kJ/mol
# GULP energy per Si atom -12390.213707 kJ/mol
# Density = 1.732332 g / cm^3
# Si number density = 17.362843 Si / 1000 Ang^3
#
#
#
# Elastic Constant Matrix: (Units=GPa)
#
#
# Indices 1 2 3 4 5 6 
#
# 1 97.1154 39.5065 33.0520 0.0000 0.0000 0.0000
# 2 39.5065 82.1882 32.7444 0.0000 0.0000 0.0000
# 3 33.0520 32.7444 70.8398 0.0000 0.0000 0.0000
# 4 0.0000 0.0000 0.0000 22.9273 0.0000 0.0000
# 5 0.0000 0.0000 0.0000 0.0000 31.1412 0.0000
# 6 0.0000 0.0000 0.0000 0.0000 0.0000 21.9988
#
#
#
# Elastic Compliance Matrix: (Units=1/GPa)
#
#
# Indices 1 2 3 4 5 6 
#
# 1 0.013710 -0.004954 -0.004107 0.000000 0.000000 0.000000
# 2 -0.004954 0.016704 -0.005410 0.000000 0.000000 0.000000
# 3 -0.004107 -0.005410 0.018533 0.000000 0.000000 0.000000
# 4 0.000000 0.000000 0.000000 0.043616 0.000000 0.000000
# 5 0.000000 0.000000 0.000000 0.000000 0.032112 0.000000
# 6 0.000000 0.000000 0.000000 0.000000 0.000000 0.045457
#
#
# Mechanical properties :
#
#
# Convention : Reuss Voigt Hill
#
# Bulk Modulus (GPa) = 49.98529 51.19435 50.58982
# Shear Modulus (GPa) = 24.30240 24.86951 24.58595
#
# Velocity S-wave (km/s) = 3.74529 3.78873 3.76707
# Velocity P-wave (km/s) = 6.89594 6.97770 6.93694
#
# Compressibility (1/GPa) = 0.02000589
#
# Stress axis : x y z
#
# Youngs Moduli (GPa) = 72.93931 59.86695 53.95787
#
# Poissons Ratio (x) = 0.29658 0.22160
# Poissons Ratio (y) = 0.36134 0.29189
# Poissons Ratio (z) = 0.29955 0.32385
#
# Static dielectric constant tensor:
#      x y z
#    x 3.776610 0.000000 0.000000 
#    y 0.000000 3.090560 0.000000 
#    z 0.000000 0.000000 3.301500 
# 
# 
# High freq. dielectric constant tensor:
#      x y z
#    x 1.682930 0.000000 0.000000 
#    y 0.000000 1.637000 0.000000 
#    z 0.000000 0.000000 1.662530 
# 
# From -- ./inp_files/67831.got.cif
#   From: 2010.03.12/outbox.cif.g09.slc.cpg/sg65_34_cif.got.tgz:67831.got - 2010.04.10 20:52:16.
