data_PCOD8267684
_publ_section_title
;
Structure prediction by ZEFSAII (Michael W. Deem and Ramdas Pophale) SiO2 
 PCOD8267684
Probable space group: C M M M
;
_chemical_formula_sum "Si O2"
_cell_formula_units_Z 128
_cell_length_a 19.762240
_cell_length_b 18.008091
_cell_length_c 20.325057
_cell_angle_alpha 90.000000
_cell_angle_beta 90.000000
_cell_angle_gamma 90.000000
_cell_volume 7233.285681
_symmetry_space_group_name_H-M "C M M M"
_symmetry_group_IT_number 65
_symmetry_cell_setting 'orthorhombic'
loop_
_space_group_symop_operation_xyz
x,y,z
-x,-y,z
x,-y,-z
-x,y,-z
-x,-y,-z
x,y,-z
-x,y,z
x,-y,z
1/2+x,1/2+y,z
1/2-x,1/2-y,z
1/2+x,1/2-y,-z
1/2-x,1/2+y,-z
1/2-x,1/2-y,-z
1/2+x,1/2+y,-z
1/2-x,1/2+y,z
1/2+x,1/2-y,z
loop_
_atom_site_type_symbol
_atom_site_label
_atom_site_fract_x
_atom_site_fract_y
_atom_site_fract_z
Si Si1 0.075484 0.911751 0.573686
Si Si2 0.175534 0.083499 0.683789
Si Si3 0.779881 0.331283 0.756717
Si Si4 0.133556 0.134450 0.071510
Si Si5 0.618598 0.802819 0.928297
Si Si6 0.574560 0.378004 0.207594
Si Si7 0.426602 0.795324 0.212912
Si Si8 0.227840 0.584491 0.889194
O O1 0.095531 0.886178 0.500000
O O2 0.130711 0.880273 0.625001
O O3 0.000000 0.881785 0.591122
O O4 0.074575 0.000000 0.578417
O O5 0.243050 0.133663 0.692710
O O6 0.130295 0.079613 0.749743
O O7 0.198522 0.000000 0.666160
O O8 0.750000 0.250000 0.770472
O O9 0.862042 0.332054 0.750043
O O10 0.759144 0.383783 0.816577
O O11 0.152245 0.221632 0.080193
O O12 0.084492 0.107510 0.129798
O O13 0.201788 0.086946 0.072481
O O14 0.098559 0.121309 0.000000
O O15 0.570790 0.815458 0.865108
O O16 0.675144 0.865952 0.928981
O O17 0.580905 0.807421 0.000000
O O18 0.500000 0.407938 0.226144
O O19 0.580821 0.291638 0.224107
O O20 0.500000 0.822679 0.241152
O O21 0.201261 0.500000 0.885309
#
# Coordination Sequence:
#
# PCOD8267684 Si02
#       8
#    16  16  16  16  16  16  16  16
#     4   8  15  29  49  77 116 153 176 197 235 292
#     4  11  20  31  52  80 105 134 169 208 247 286
#     4  11  19  34  52  72  99 131 165 208 252 298
#     4  10  19  31  45  62  90 128 165 203 250 306
#     4   9  18  31  47  65  87 116 156 205 264 321
#     4  10  19  31  47  70  98 129 166 207 247 296
#     4   9  18  32  50  70  93 125 166 209 255 304
#     4  11  20  30  46  67  89 117 159 212 263 310
#
# _framework density 17.695968000000001
#
# number of rings (size 3 to 8) (size 9 to 14) (size 15 to 20)
#    0.000    2.125    2.500    3.375    0.000    3.250 
#    0.000    2.500    0.000    9.750    0.000    5.250 
#    0.000    0.500    0.000    3.125    0.000    0.000 
#
# Total GULP energy -793044.189533 kJ/mol
# GULP energy per Si atom -12391.315461 kJ/mol
# Density = 1.765569 g / cm^3
# Si number density = 17.695968 Si / 1000 Ang^3
#
#
#
# Elastic Constant Matrix: (Units=GPa)
#
#
# Indices 1 2 3 4 5 6 
#
# 1 113.3143 18.7158 39.2557 0.0000 0.0000 0.0000
# 2 18.7158 51.6636 14.2149 0.0000 0.0000 0.0000
# 3 39.2557 14.2149 82.9605 0.0000 0.0000 0.0000
# 4 0.0000 0.0000 0.0000 13.3806 0.0000 0.0000
# 5 0.0000 0.0000 0.0000 0.0000 20.0116 0.0000
# 6 0.0000 0.0000 0.0000 0.0000 0.0000 13.6898
#
#
#
# Elastic Compliance Matrix: (Units=1/GPa)
#
#
# Indices 1 2 3 4 5 6 
#
# 1 0.010891 -0.002652 -0.004699 0.000000 0.000000 0.000000
# 2 -0.002652 0.020960 -0.002336 0.000000 0.000000 0.000000
# 3 -0.004699 -0.002336 0.014678 0.000000 0.000000 0.000000
# 4 0.000000 0.000000 0.000000 0.074735 0.000000 0.000000
# 5 0.000000 0.000000 0.000000 0.000000 0.049971 0.000000
# 6 0.000000 0.000000 0.000000 0.000000 0.000000 0.073047
#
#
# Mechanical properties :
#
#
# Convention : Reuss Voigt Hill
#
# Bulk Modulus (GPa) = 36.82834 43.59013 40.20924
# Shear Modulus (GPa) = 18.33462 21.13319 19.73391
#
# Velocity S-wave (km/s) = 3.22233 3.45952 3.34303
# Velocity P-wave (km/s) = 5.89079 6.37527 6.13781
#
# Compressibility (1/GPa) = 0.02715300
#
# Stress axis : x y z
#
# Youngs Moduli (GPa) = 91.81909 47.71066 68.13050
#
# Poissons Ratio (x) = 0.12655 0.32014
# Poissons Ratio (y) = 0.24355 0.15917
# Poissons Ratio (z) = 0.43145 0.11146
#
# Static dielectric constant tensor:
#      x y z
#    x 3.355390 0.000000 0.000000 
#    y 0.000000 3.058990 0.000000 
#    z 0.000000 0.000000 3.224740 
# 
# 
# High freq. dielectric constant tensor:
#      x y z
#    x 1.673040 0.000000 0.000000 
#    y 0.000000 1.655400 0.000000 
#    z 0.000000 0.000000 1.655430 
# 
# From -- ./inp_files/64885.got.cif
#   From: 2010.03.12/outbox.cif.g09.slc.cpg/sg65_33_cif.got.tgz:64885.got - 2010.04.10 20:52:16.
