data_PCOD8267961
_publ_section_title
;
Structure prediction by ZEFSAII (Michael W. Deem and Ramdas Pophale) SiO2 
 PCOD8267961
Probable space group: C M M M
;
_chemical_formula_sum "Si O2"
_cell_formula_units_Z 104
_cell_length_a 18.482592
_cell_length_b 9.158450
_cell_length_c 33.822613
_cell_angle_alpha 90.000000
_cell_angle_beta 90.000000
_cell_angle_gamma 90.000000
_cell_volume 5725.217786
_symmetry_space_group_name_H-M "C M M M"
_symmetry_group_IT_number 65
_symmetry_cell_setting 'orthorhombic'
loop_
_space_group_symop_operation_xyz
x,y,z
-x,-y,z
x,-y,-z
-x,y,-z
-x,-y,-z
x,y,-z
-x,y,z
x,-y,z
1/2+x,1/2+y,z
1/2-x,1/2-y,z
1/2+x,1/2-y,-z
1/2-x,1/2+y,-z
1/2-x,1/2-y,-z
1/2+x,1/2+y,-z
1/2-x,1/2+y,z
1/2+x,1/2-y,z
loop_
_atom_site_type_symbol
_atom_site_label
_atom_site_fract_x
_atom_site_fract_y
_atom_site_fract_z
Si Si1 0.827470 0.673645 0.500000
Si Si2 0.825032 0.329910 0.201900
Si Si3 0.081686 0.327017 0.424476
Si Si4 0.580399 0.826849 0.043083
Si Si5 0.080883 0.326725 0.725806
Si Si6 0.824381 0.670516 0.886332
Si Si7 0.172847 0.326543 0.348971
O O1 0.815755 0.500000 0.500000
O O2 0.750000 0.750000 0.500000
O O3 0.873035 0.727492 0.462191
O O4 0.809463 0.500000 0.208300
O O5 0.750000 0.250000 0.209902
O O6 0.884738 0.272797 0.232828
O O7 0.855409 0.299058 0.157698
O O8 0.076037 0.500000 0.425004
O O9 0.123703 0.274029 0.385527
O O10 0.000000 0.261487 0.425121
O O11 0.500000 0.761918 0.045863
O O12 0.624177 0.761280 0.080003
O O13 0.577453 0.000000 0.046947
O O14 0.614037 0.783685 0.000000
O O15 0.075749 0.500000 0.724546
O O16 0.131448 0.271792 0.690199
O O17 0.000000 0.260392 0.721914
O O18 0.811909 0.500000 0.893116
O O19 0.750000 0.750000 0.891931
O O20 0.184617 0.500000 0.349187
O O21 0.250000 0.250000 0.351497
#
# Coordination Sequence:
#
# PCOD8267961 Si02
#       7
#     8  16  16  16  16  16  16
#     4  10  19  31  49  71  95 122 152 188 226 266
#     4   9  17  29  45  64  87 114 142 175 214 256
#     4   9  17  30  49  71  92 118 155 192 222 257
#     4   8  14  25  41  61  84 109 139 176 214 250
#     4   9  17  29  46  68  90 113 146 185 219 252
#     4   9  17  28  43  64  87 111 140 174 213 255
#     4  10  19  31  49  70  92 119 149 183 222 264
#
# _framework density 18.165247000000001
#
# number of rings (size 3 to 8) (size 9 to 14) (size 15 to 20)
#    0.000    2.923    0.000    2.077    0.000    3.692 
#    0.000    3.077    0.000    5.538    0.000    5.385 
#    0.000    0.000    0.000    0.000    0.000    0.000 
#
# Total GULP energy -644533.234640 kJ/mol
# GULP energy per Si atom -12394.869897 kJ/mol
# Density = 1.812390 g / cm^3
# Si number density = 18.165247 Si / 1000 Ang^3
#
#
#
# Elastic Constant Matrix: (Units=GPa)
#
#
# Indices 1 2 3 4 5 6 
#
# 1 154.9704 26.0608 105.8041 0.0000 0.0000 0.0000
# 2 26.0608 15.9719 23.0202 0.0000 0.0000 0.0000
# 3 105.8041 23.0202 189.4697 0.0000 0.0000 0.0000
# 4 0.0000 0.0000 0.0000 11.1903 0.0000 0.0000
# 5 0.0000 0.0000 0.0000 0.0000 39.8640 0.0000
# 6 0.0000 0.0000 0.0000 0.0000 0.0000 22.7380
#
#
#
# Elastic Compliance Matrix: (Units=1/GPa)
#
#
# Indices 1 2 3 4 5 6 
#
# 1 0.012099 -0.012127 -0.005283 0.000000 0.000000 0.000000
# 2 -0.012127 0.088057 -0.003926 0.000000 0.000000 0.000000
# 3 -0.005283 -0.003926 0.008705 0.000000 0.000000 0.000000
# 4 0.000000 0.000000 0.000000 0.089363 0.000000 0.000000
# 5 0.000000 0.000000 0.000000 0.000000 0.025085 0.000000
# 6 0.000000 0.000000 0.000000 0.000000 0.000000 0.043979
#
#
# Mechanical properties :
#
#
# Convention : Reuss Voigt Hill
#
# Bulk Modulus (GPa) = 15.10859 74.46467 44.78663
# Shear Modulus (GPa) = 15.05907 28.46024 21.75965
#
# Velocity S-wave (km/s) = 2.88237 3.96250 3.46478
# Velocity P-wave (km/s) = 4.40599 7.87510 6.38083
#
# Compressibility (1/GPa) = 0.06618752
#
# Stress axis : x y z
#
# Youngs Moduli (GPa) = 82.65029 11.35626 114.87541
#
# Poissons Ratio (x) = 0.13772 0.60688
# Poissons Ratio (y) = 1.00234 0.45106
# Poissons Ratio (z) = 0.43664 0.04459
#
# Static dielectric constant tensor:
#      x y z
#    x 3.519700 0.000000 0.000000 
#    y 0.000000 2.839130 0.000000 
#    z 0.000000 0.000000 3.826290 
# 
# 
# High freq. dielectric constant tensor:
#      x y z
#    x 1.706470 0.000000 0.000000 
#    y 0.000000 1.644890 0.000000 
#    z 0.000000 0.000000 1.727660 
# 
# From -- ./inp_files/78052.got.cif
#   From: 2010.03.12/outbox.cif.g09.slc.cpg/sg65_40_cif.got.tgz:78052.got - 2010.04.10 20:52:16.
