data_PCOD8267852
_publ_section_title
;
Structure prediction by ZEFSAII (Michael W. Deem and Ramdas Pophale) SiO2 
 PCOD8267852
Probable space group: C M M M
;
_chemical_formula_sum "Si O2"
_cell_formula_units_Z 88
_cell_length_a 16.784278
_cell_length_b 24.158534
_cell_length_c 12.501019
_cell_angle_alpha 90.000000
_cell_angle_beta 90.000000
_cell_angle_gamma 90.000000
_cell_volume 5068.957572
_symmetry_space_group_name_H-M "C M M M"
_symmetry_group_IT_number 65
_symmetry_cell_setting 'orthorhombic'
loop_
_space_group_symop_operation_xyz
x,y,z
-x,-y,z
x,-y,-z
-x,y,-z
-x,-y,-z
x,y,-z
-x,y,z
x,-y,z
1/2+x,1/2+y,z
1/2-x,1/2-y,z
1/2+x,1/2-y,-z
1/2-x,1/2+y,-z
1/2-x,1/2-y,-z
1/2+x,1/2+y,-z
1/2-x,1/2+y,z
1/2+x,1/2-y,z
loop_
_atom_site_type_symbol
_atom_site_label
_atom_site_fract_x
_atom_site_fract_y
_atom_site_fract_z
Si Si1 0.316784 0.627032 0.181454
Si Si2 0.591137 0.434762 0.000000
Si Si3 0.592886 0.268817 0.124922
Si Si4 0.860591 0.352197 0.120888
Si Si5 0.746252 0.564275 0.379607
Si Si6 0.912695 0.562743 0.287160
O O1 0.360452 0.685797 0.194635
O O2 0.232466 0.635212 0.125214
O O3 0.306530 0.600395 0.298718
O O4 0.368506 0.586955 0.107632
O O5 0.598186 0.500000 0.000000
O O6 0.500000 0.414221 0.000000
O O7 0.500000 0.275416 0.146742
O O8 0.621984 0.209093 0.165847
O O9 0.613756 0.278164 0.000000
O O10 0.910331 0.397128 0.185754
O O11 0.891755 0.355507 0.000000
O O12 0.721360 0.580273 0.500000
O O13 0.729144 0.500000 0.356369
O O14 0.840889 0.577225 0.367974
O O15 0.902132 0.500000 0.245142
O O16 0.000000 0.569692 0.342851
#
# Coordination Sequence:
#
# PCOD8267852 Si02
#       6
#    16   8  16  16  16  16
#     4  11  19  33  53  76 102 136 172 216 259 309
#     4  11  22  34  51  78 109 137 167 210 264 314
#     4  10  19  31  50  74 104 138 175 210 250 308
#     4  10  19  31  47  75 107 142 172 210 253 310
#     4   9  19  35  54  76 101 133 176 221 262 306
#     4   9  18  31  48  73 104 138 176 215 258 307
#
# _framework density 17.360572000000001
#
# number of rings (size 3 to 8) (size 9 to 14) (size 15 to 20)
#    0.000    2.091    1.818    2.182    0.000    4.000 
#    0.000    2.727    0.000   10.909    0.000    6.364 
#    0.000    0.000    0.000    0.000    0.000    0.000 
#
# Total GULP energy -545592.564284 kJ/mol
# GULP energy per Si atom -12399.831006 kJ/mol
# Density = 1.732106 g / cm^3
# Si number density = 17.360572 Si / 1000 Ang^3
#
#
#
# Elastic Constant Matrix: (Units=GPa)
#
#
# Indices 1 2 3 4 5 6 
#
# 1 90.1544 39.6263 32.7357 0.0000 0.0000 0.0000
# 2 39.6263 99.4325 53.6727 0.0000 0.0000 0.0000
# 3 32.7357 53.6727 96.2567 0.0000 0.0000 0.0000
# 4 0.0000 0.0000 0.0000 4.7493 0.0000 0.0000
# 5 0.0000 0.0000 0.0000 0.0000 15.3869 0.0000
# 6 0.0000 0.0000 0.0000 0.0000 0.0000 10.5131
#
#
#
# Elastic Compliance Matrix: (Units=1/GPa)
#
#
# Indices 1 2 3 4 5 6 
#
# 1 0.013803 -0.004244 -0.002327 0.000000 0.000000 0.000000
# 2 -0.004244 0.015693 -0.007307 0.000000 0.000000 0.000000
# 3 -0.002327 -0.007307 0.015255 0.000000 0.000000 0.000000
# 4 0.000000 0.000000 0.000000 0.210555 0.000000 0.000000
# 5 0.000000 0.000000 0.000000 0.000000 0.064990 0.000000
# 6 0.000000 0.000000 0.000000 0.000000 0.000000 0.095120
#
#
# Mechanical properties :
#
#
# Convention : Reuss Voigt Hill
#
# Bulk Modulus (GPa) = 58.84825 59.76813 59.30819
# Shear Modulus (GPa) = 11.13990 16.78379 13.96185
#
# Velocity S-wave (km/s) = 2.53589 3.11268 2.83897
# Velocity P-wave (km/s) = 6.52269 6.88626 6.70694
#
# Compressibility (1/GPa) = 0.01699286
#
# Stress axis : x y z
#
# Youngs Moduli (GPa) = 72.44910 63.72395 65.55368
#
# Poissons Ratio (x) = 0.27047 0.15258
# Poissons Ratio (y) = 0.30750 0.47898
# Poissons Ratio (z) = 0.16862 0.46562
#
# Static dielectric constant tensor:
#      x y z
#    x 3.325000 0.000000 0.000000 
#    y 0.000000 3.364850 0.000000 
#    z 0.000000 0.000000 2.933330 
# 
# 
# High freq. dielectric constant tensor:
#      x y z
#    x 1.679440 0.000000 0.000000 
#    y 0.000000 1.681130 0.000000 
#    z 0.000000 0.000000 1.633050 
# 
# From -- ./inp_files/40232.got.cif
#   From: 2010.03.12/outbox.cif.g09.slc.cpg/sg65_21_cif.got.tgz:40232.got - 2010.04.10 20:52:16.
