data_PCOD8267828
_publ_section_title
;
Structure prediction by ZEFSAII (Michael W. Deem and Ramdas Pophale) SiO2 
 PCOD8267828
Probable space group: C M M M
;
_chemical_formula_sum "Si O2"
_cell_formula_units_Z 120
_cell_length_a 9.029512
_cell_length_b 28.962225
_cell_length_c 25.353525
_cell_angle_alpha 90.000000
_cell_angle_beta 90.000000
_cell_angle_gamma 90.000000
_cell_volume 6630.320959
_symmetry_space_group_name_H-M "C M M M"
_symmetry_group_IT_number 65
_symmetry_cell_setting 'orthorhombic'
loop_
_space_group_symop_operation_xyz
x,y,z
-x,-y,z
x,-y,-z
-x,y,-z
-x,-y,-z
x,y,-z
-x,y,z
x,-y,z
1/2+x,1/2+y,z
1/2-x,1/2-y,z
1/2+x,1/2-y,-z
1/2-x,1/2+y,-z
1/2-x,1/2-y,-z
1/2+x,1/2+y,-z
1/2-x,1/2+y,z
1/2+x,1/2-y,z
loop_
_atom_site_type_symbol
_atom_site_label
_atom_site_fract_x
_atom_site_fract_y
_atom_site_fract_z
Si Si1 0.323191 0.446873 0.000000
Si Si2 0.676237 0.393227 0.897852
Si Si3 0.672417 0.296825 0.143283
Si Si4 0.669201 0.446435 0.797895
Si Si5 0.824930 0.797843 0.735145
Si Si6 0.827164 0.644541 0.646595
Si Si7 0.170059 0.550758 0.307901
Si Si8 0.172564 0.797539 0.561126
O O1 0.260513 0.418737 0.949618
O O2 0.265283 0.500000 0.000000
O O3 0.500000 0.447153 0.000000
O O4 0.500000 0.397335 0.897896
O O5 0.724001 0.339308 0.894124
O O6 0.741213 0.419033 0.846640
O O7 0.500000 0.287708 0.137375
O O8 0.750000 0.250000 0.124120
O O9 0.711187 0.309225 0.203918
O O10 0.500000 0.431440 0.790556
O O11 0.686044 0.500000 0.811021
O O12 0.748082 0.432314 0.744338
O O13 0.750000 0.750000 0.718382
O O14 0.750852 0.836497 0.698997
O O15 0.000000 0.795407 0.724384
O O16 0.805611 0.588907 0.646709
O O17 0.747542 0.661696 0.593870
O O18 0.000000 0.658344 0.646133
O O19 0.227571 0.500000 0.326884
O O20 0.000000 0.547503 0.292075
O O21 0.199127 0.808729 0.500000
O O22 0.250000 0.750000 0.577714
O O23 0.000000 0.793736 0.575029
#
# Coordination Sequence:
#
# PCOD8267828 Si02
#       8
#     8  16  16  16  16  16  16  16
#     4   9  16  26  43  68  95 119 145 185 238 291
#     4   9  16  27  43  65  93 122 152 189 237 285
#     4   9  18  31  46  64  90 124 158 193 230 273
#     4   9  16  27  46  71  96 121 152 192 238 289
#     4  10  19  31  47  69  99 130 160 195 237 286
#     4  11  21  32  50  74 100 131 165 201 241 285
#     4   9  19  34  49  69  99 132 165 200 239 285
#     4  10  21  37  56  77 102 131 163 199 238 282
#
# _framework density 18.098672000000001
#
# number of rings (size 3 to 8) (size 9 to 14) (size 15 to 20)
#    0.000    2.467    0.000    2.800    0.000    5.067 
#    0.000    1.000    0.000    0.400    0.000    4.200 
#    0.000    4.267    0.000    0.000    0.000    0.000 
#
# Total GULP energy -743855.539057 kJ/mol
# GULP energy per Si atom -12397.592318 kJ/mol
# Density = 1.805748 g / cm^3
# Si number density = 18.098672 Si / 1000 Ang^3
#
#
#
# Elastic Constant Matrix: (Units=GPa)
#
#
# Indices 1 2 3 4 5 6 
#
# 1 66.5106 46.2527 37.5538 0.0000 0.0000 0.0000
# 2 46.2527 131.2263 75.4819 0.0000 0.0000 0.0000
# 3 37.5538 75.4819 91.3076 0.0000 0.0000 0.0000
# 4 0.0000 0.0000 0.0000 30.9555 0.0000 0.0000
# 5 0.0000 0.0000 0.0000 0.0000 8.3825 0.0000
# 6 0.0000 0.0000 0.0000 0.0000 0.0000 22.8864
#
#
#
# Elastic Compliance Matrix: (Units=1/GPa)
#
#
# Indices 1 2 3 4 5 6 
#
# 1 0.020962 -0.004632 -0.004793 0.000000 0.000000 0.000000
# 2 -0.004632 0.015553 -0.010952 0.000000 0.000000 0.000000
# 3 -0.004793 -0.010952 0.021977 0.000000 0.000000 0.000000
# 4 0.000000 0.000000 0.000000 0.032304 0.000000 0.000000
# 5 0.000000 0.000000 0.000000 0.000000 0.119296 0.000000
# 6 0.000000 0.000000 0.000000 0.000000 0.000000 0.043694
#
#
# Mechanical properties :
#
#
# Convention : Reuss Voigt Hill
#
# Bulk Modulus (GPa) = 56.37267 67.51346 61.94306
# Shear Modulus (GPa) = 16.64163 21.09528 18.86846
#
# Velocity S-wave (km/s) = 3.03561 3.41775 3.23233
# Velocity P-wave (km/s) = 6.59557 7.27727 6.94479
#
# Compressibility (1/GPa) = 0.01773909
#
# Stress axis : x y z
#
# Youngs Moduli (GPa) = 47.70489 64.29807 45.50244
#
# Poissons Ratio (x) = 0.29781 0.21807
# Poissons Ratio (y) = 0.22096 0.49834
# Poissons Ratio (z) = 0.22863 0.70419
#
# Static dielectric constant tensor:
#      x y z
#    x 3.211770 0.000000 0.000000 
#    y 0.000000 3.545850 0.000000 
#    z 0.000000 0.000000 3.258350 
# 
# 
# High freq. dielectric constant tensor:
#      x y z
#    x 1.682200 0.000000 0.000000 
#    y 0.000000 1.711100 0.000000 
#    z 0.000000 0.000000 1.681830 
# 
# From -- ./inp_files/73993.got.cif
#   From: 2010.03.12/outbox.cif.g09.slc.cpg/sg65_37_cif.got.tgz:73993.got - 2010.04.10 20:52:16.
