data_PCOD8267994
_publ_section_title
;
Structure prediction by ZEFSAII (Michael W. Deem and Ramdas Pophale) SiO2 
 PCOD8267994
Probable space group: C M M M
;
_chemical_formula_sum "Si O2"
_cell_formula_units_Z 80
_cell_length_a 18.452649
_cell_length_b 8.919596
_cell_length_c 25.613665
_cell_angle_alpha 90.000000
_cell_angle_beta 90.000000
_cell_angle_gamma 90.000000
_cell_volume 4215.757585
_symmetry_space_group_name_H-M "C M M M"
_symmetry_group_IT_number 65
_symmetry_cell_setting 'orthorhombic'
loop_
_space_group_symop_operation_xyz
x,y,z
-x,-y,z
x,-y,-z
-x,y,-z
-x,-y,-z
x,y,-z
-x,y,z
x,-y,z
1/2+x,1/2+y,z
1/2-x,1/2-y,z
1/2+x,1/2-y,-z
1/2-x,1/2+y,-z
1/2-x,1/2-y,-z
1/2+x,1/2+y,-z
1/2-x,1/2+y,z
1/2+x,1/2-y,z
loop_
_atom_site_type_symbol
_atom_site_label
_atom_site_fract_x
_atom_site_fract_y
_atom_site_fract_z
Si Si1 0.672253 0.823030 0.147646
Si Si2 0.581097 0.178073 0.557831
Si Si3 0.581218 0.178021 0.246254
Si Si4 0.083052 0.827197 0.060321
Si Si5 0.172259 0.321722 0.345380
O O1 0.750000 0.750000 0.153374
O O2 0.622813 0.763148 0.195113
O O3 0.635496 0.777802 0.093381
O O4 0.681602 0.000000 0.149372
O O5 0.606641 0.230368 0.500000
O O6 0.500000 0.239076 0.569097
O O7 0.636340 0.240278 0.601157
O O8 0.579223 0.000000 0.560786
O O9 0.500000 0.245251 0.246287
O O10 0.622589 0.234347 0.297730
O O11 0.577687 0.000000 0.245865
O O12 0.000000 0.784946 0.072536
O O13 0.097734 0.000000 0.074421
O O14 0.100694 0.796976 0.000000
O O15 0.179880 0.500000 0.345774
O O16 0.250000 0.250000 0.338534
#
# Coordination Sequence:
#
# PCOD8267994 Si02
#       5
#    16  16  16  16  16
#     4  11  22  35  53  77 106 137 170 210 254 302
#     4   8  14  26  46  71  95 123 166 212 245 281
#     4   9  18  33  53  75  97 126 168 212 251 295
#     4   9  19  37  59  81 106 136 170 209 253 301
#     4  10  19  31  49  72 100 131 161 200 250 299
#
# _framework density 18.976421999999999
#
# number of rings (size 3 to 8) (size 9 to 14) (size 15 to 20)
#    0.000    2.600    0.000    3.600    0.000    4.800 
#    0.000    2.000    0.000    4.800    0.000    1.400 
#    0.000    0.000    0.000    0.000    0.000    0.000 
#
# Total GULP energy -495982.477785 kJ/mol
# GULP energy per Si atom -12399.561945 kJ/mol
# Density = 1.893323 g / cm^3
# Si number density = 18.976422 Si / 1000 Ang^3
#
#
#
# Elastic Constant Matrix: (Units=GPa)
#
#
# Indices 1 2 3 4 5 6 
#
# 1 172.6502 37.6592 96.4656 0.0000 0.0000 0.0000
# 2 37.6592 36.5047 33.8005 0.0000 0.0000 0.0000
# 3 96.4656 33.8005 147.2984 0.0000 0.0000 0.0000
# 4 0.0000 0.0000 0.0000 13.4337 0.0000 0.0000
# 5 0.0000 0.0000 0.0000 0.0000 28.0433 0.0000
# 6 0.0000 0.0000 0.0000 0.0000 0.0000 17.6867
#
#
#
# Elastic Compliance Matrix: (Units=1/GPa)
#
#
# Indices 1 2 3 4 5 6 
#
# 1 0.009892 -0.005341 -0.005253 0.000000 0.000000 0.000000
# 2 -0.005341 0.037668 -0.005146 0.000000 0.000000 0.000000
# 3 -0.005253 -0.005146 0.011410 0.000000 0.000000 0.000000
# 4 0.000000 0.000000 0.000000 0.074439 0.000000 0.000000
# 5 0.000000 0.000000 0.000000 0.000000 0.035659 0.000000
# 6 0.000000 0.000000 0.000000 0.000000 0.000000 0.056540
#
#
# Mechanical properties :
#
#
# Convention : Reuss Voigt Hill
#
# Bulk Modulus (GPa) = 36.37578 76.92265 56.64922
# Shear Modulus (GPa) = 18.77928 24.40129 21.59029
#
# Velocity S-wave (km/s) = 3.14922 3.58980 3.37670
# Velocity P-wave (km/s) = 5.69509 7.60303 6.71715
#
# Compressibility (1/GPa) = 0.02749082
#
# Stress axis : x y z
#
# Youngs Moduli (GPa) = 101.09285 26.54740 87.64551
#
# Poissons Ratio (x) = 0.14180 0.46036
# Poissons Ratio (y) = 0.53997 0.45100
# Poissons Ratio (z) = 0.53099 0.13661
#
# Static dielectric constant tensor:
#      x y z
#    x 3.573050 0.000000 0.000000 
#    y 0.000000 3.006910 0.000000 
#    z 0.000000 0.000000 3.755800 
# 
# 
# High freq. dielectric constant tensor:
#      x y z
#    x 1.745890 0.000000 0.000000 
#    y 0.000000 1.691000 0.000000 
#    z 0.000000 0.000000 1.754820 
# 
# From -- ./inp_files/68828.got.cif
#   From: 2010.03.12/outbox.cif.g09.slc.cpg/sg65_35_cif.got.tgz:68828.got - 2010.04.10 20:52:16.
