data_PCOD8267132
_publ_section_title
;
Structure prediction by ZEFSAII (Michael W. Deem and Ramdas Pophale) SiO2 
 PCOD8267132
Probable space group: C M M M
;
_chemical_formula_sum "Si O2"
_cell_formula_units_Z 96
_cell_length_a 20.810405
_cell_length_b 30.398560
_cell_length_c 9.346708
_cell_angle_alpha 90.000000
_cell_angle_beta 90.000000
_cell_angle_gamma 90.000000
_cell_volume 5912.786786
_symmetry_space_group_name_H-M "C M M M"
_symmetry_group_IT_number 65
_symmetry_cell_setting 'orthorhombic'
loop_
_space_group_symop_operation_xyz
x,y,z
-x,-y,z
x,-y,-z
-x,y,-z
-x,-y,-z
x,y,-z
-x,y,z
x,-y,z
1/2+x,1/2+y,z
1/2-x,1/2-y,z
1/2+x,1/2-y,-z
1/2-x,1/2+y,-z
1/2-x,1/2-y,-z
1/2+x,1/2+y,-z
1/2-x,1/2+y,z
1/2+x,1/2-y,z
loop_
_atom_site_type_symbol
_atom_site_label
_atom_site_fract_x
_atom_site_fract_y
_atom_site_fract_z
Si Si1 0.402512 0.341320 0.836780
Si Si2 0.292791 0.548865 0.666459
Si Si3 0.701834 0.789167 0.333828
Si Si4 0.571008 0.256570 0.661234
Si Si5 0.068781 0.076476 0.337618
Si Si6 0.242601 0.132718 0.834971
O O1 0.426009 0.296354 0.769973
O O2 0.437752 0.381007 0.760073
O O3 0.326649 0.345721 0.818418
O O4 0.424102 0.341772 0.000000
O O5 0.282155 0.560255 0.500000
O O6 0.266256 0.500000 0.701853
O O7 0.369155 0.547737 0.705215
O O8 0.255115 0.584661 0.760857
O O9 0.715315 0.799393 0.500000
O O10 0.750000 0.750000 0.282934
O O11 0.627654 0.777457 0.303461
O O12 0.710171 0.833637 0.243685
O O13 0.581318 0.274511 0.500000
O O14 0.500000 0.234259 0.675918
O O15 0.077667 0.092658 0.500000
O O16 0.000000 0.050637 0.320986
O O17 0.262963 0.126998 0.000000
#
# Coordination Sequence:
#
# PCOD8267132 Si02
#       6
#    16  16  16  16  16  16
#     4  10  19  29  42  62  89 121 158 197 234 273
#     4   9  18  32  49  67  88 116 152 196 242 285
#     4  10  19  32  51  71  92 124 162 196 231 277
#     4  10  20  32  46  66  93 123 156 195 236 274
#     4   9  17  28  42  60  84 116 154 195 238 281
#     4  10  20  32  48  69  93 122 156 197 238 278
#
# _framework density 16.235997999999999
#
# number of rings (size 3 to 8) (size 9 to 14) (size 15 to 20)
#    0.000    2.333    1.667    1.500    0.000    5.667 
#    0.000    1.667    0.000    0.000    0.000    4.667 
#    0.000    0.667    0.000    7.667    0.000    2.167 
#
# Total GULP energy -594921.740978 kJ/mol
# GULP energy per Si atom -12394.202937 kJ/mol
# Density = 1.619904 g / cm^3
# Si number density = 16.235998 Si / 1000 Ang^3
#
#
#
# Elastic Constant Matrix: (Units=GPa)
#
#
# Indices 1 2 3 4 5 6 
#
# 1 68.0133 39.4994 29.8383 0.0000 0.0000 0.0000
# 2 39.4994 103.1958 55.2759 0.0000 0.0000 0.0000
# 3 29.8383 55.2759 81.5033 0.0000 0.0000 0.0000
# 4 0.0000 0.0000 0.0000 -266.5610 0.0000 0.0000
# 5 0.0000 0.0000 0.0000 0.0000 12.2377 0.0000
# 6 0.0000 0.0000 0.0000 0.0000 0.0000 -8.5551
#
#
#
# Elastic Compliance Matrix: (Units=1/GPa)
#
#
# Indices 1 2 3 4 5 6 
#
# 1 0.019439 -0.005699 -0.003252 0.000000 0.000000 0.000000
# 2 -0.005699 0.016890 -0.009368 0.000000 0.000000 0.000000
# 3 -0.003252 -0.009368 0.019814 0.000000 0.000000 0.000000
# 4 0.000000 0.000000 0.000000 -0.003751 0.000000 0.000000
# 5 0.000000 0.000000 0.000000 0.000000 0.081715 0.000000
# 6 0.000000 0.000000 0.000000 0.000000 0.000000 -0.116889
#
#
# Mechanical properties :
#
#
# Convention : Reuss Voigt Hill
#
# Bulk Modulus (GPa) = 51.26969 55.77106 53.52037
# Shear Modulus (GPa) = 82.84220 -44.03578 19.40321
#
# Velocity S-wave (km/s) = 7.15084 -5.21356 3.46073
# Velocity P-wave (km/s) = 9.99128 1.34787 7.00032
#
# Compressibility (1/GPa) = 0.01950470
#
# Stress axis : x y z
#
# Youngs Moduli (GPa) = 51.44232 59.20785 50.47058
#
# Poissons Ratio (x) = 0.33742 0.16412
# Poissons Ratio (y) = 0.29316 0.47282
# Poissons Ratio (z) = 0.16728 0.55468
#
# Static dielectric constant tensor:
#      x y z
#    x 3.026180 0.000000 0.000000 
#    y 0.000000 2.918470 0.000000 
#    z 0.000000 0.000000 3.118610 
# 
# 
# High freq. dielectric constant tensor:
#      x y z
#    x 1.599900 0.000000 0.000000 
#    y 0.000000 1.600050 0.000000 
#    z 0.000000 0.000000 1.628850 
# 
# From -- ./inp_files/12184.got.cif
#   From: 2010.03.12/outbox.cif.g09.slc.cpg/sg65_7_cif.got.tgz:12184.got - 2010.04.10 20:52:16.
