data_PCOD8267334
_publ_section_title
;
Structure prediction by ZEFSAII (Michael W. Deem and Ramdas Pophale) SiO2 
 PCOD8267334
Probable space group: C M M M
;
_chemical_formula_sum "Si O2"
_cell_formula_units_Z 96
_cell_length_a 15.136750
_cell_length_b 17.042385
_cell_length_c 24.167442
_cell_angle_alpha 90.000000
_cell_angle_beta 90.000000
_cell_angle_gamma 90.000000
_cell_volume 6234.386104
_symmetry_space_group_name_H-M "C M M M"
_symmetry_group_IT_number 65
_symmetry_cell_setting 'orthorhombic'
loop_
_space_group_symop_operation_xyz
x,y,z
-x,-y,z
x,-y,-z
-x,y,-z
-x,-y,-z
x,y,-z
-x,y,z
x,-y,z
1/2+x,1/2+y,z
1/2-x,1/2-y,z
1/2+x,1/2-y,-z
1/2-x,1/2+y,-z
1/2-x,1/2-y,-z
1/2+x,1/2+y,-z
1/2-x,1/2+y,z
1/2+x,1/2-y,z
loop_
_atom_site_type_symbol
_atom_site_label
_atom_site_fract_x
_atom_site_fract_y
_atom_site_fract_z
Si Si1 0.748659 0.911610 0.803857
Si Si2 0.101302 0.858555 0.118261
Si Si3 0.396104 0.412741 0.000000
Si Si4 0.895875 0.912588 0.618342
Si Si5 0.598702 0.210746 0.811816
Si Si6 0.403892 0.407418 0.500000
Si Si7 0.822880 0.808772 0.287023
O O1 0.832213 0.909925 0.844966
O O2 0.667406 0.858258 0.824248
O O3 0.777212 0.881455 0.743826
O O4 0.714122 0.000000 0.798721
O O5 0.133180 0.865625 0.054752
O O6 0.107596 0.767919 0.135624
O O7 0.000000 0.889370 0.126451
O O8 0.353395 0.500000 0.000000
O O9 0.500000 0.421470 0.000000
O O10 0.854657 0.885854 0.558247
O O11 0.877192 0.845606 0.663033
O O12 0.000000 0.918498 0.610713
O O13 0.860392 0.000000 0.635441
O O14 0.500000 0.175709 0.807509
O O15 0.616969 0.260152 0.755978
O O16 0.416495 0.500000 0.500000
O O17 0.500000 0.365860 0.500000
O O18 0.750000 0.750000 0.312058
#
# Coordination Sequence:
#
# PCOD8267334 Si02
#       7
#    16  16   8  16  16   8  16
#     4  10  19  30  44  63  86 110 139 174 208 245
#     4   9  17  30  47  66  89 112 133 164 207 250
#     4   9  16  26  43  68  92 112 135 163 200 248
#     4   9  15  24  40  60  80 104 135 166 197 237
#     4   9  18  32  46  60  82 112 143 173 206 244
#     4   7  12  22  35  54  80 106 131 161 194 232
#     4   9  17  28  41  59  83 107 132 167 210 250
#
# _framework density 15.398469
#
# number of rings (size 3 to 8) (size 9 to 14) (size 15 to 20)
#    0.000    3.000    0.000    4.000    0.000    2.000 
#    0.000    2.083    0.000    0.000    0.000    0.000 
#    0.000    5.333    0.000    0.000    0.000  100.000 
#
# Total GULP energy -594673.553381 kJ/mol
# GULP energy per Si atom -12389.032362 kJ/mol
# Density = 1.536342 g / cm^3
# Si number density = 15.398469 Si / 1000 Ang^3
#
#
#
# Elastic Constant Matrix: (Units=GPa)
#
#
# Indices 1 2 3 4 5 6 
#
# 1 62.7077 35.2726 27.3754 0.0000 0.0000 0.0000
# 2 35.2726 87.0938 47.6049 0.0000 0.0000 0.0000
# 3 27.3754 47.6049 105.8979 0.0000 0.0000 0.0000
# 4 0.0000 0.0000 0.0000 11.9776 0.0000 0.0000
# 5 0.0000 0.0000 0.0000 0.0000 13.2807 0.0000
# 6 0.0000 0.0000 0.0000 0.0000 0.0000 19.6662
#
#
#
# Elastic Compliance Matrix: (Units=1/GPa)
#
#
# Indices 1 2 3 4 5 6 
#
# 1 0.021008 -0.007344 -0.002129 0.000000 0.000000 0.000000
# 2 -0.007344 0.017790 -0.006099 0.000000 0.000000 0.000000
# 3 -0.002129 -0.006099 0.012735 0.000000 0.000000 0.000000
# 4 0.000000 0.000000 0.000000 0.083489 0.000000 0.000000
# 5 0.000000 0.000000 0.000000 0.000000 0.075297 0.000000
# 6 0.000000 0.000000 0.000000 0.000000 0.000000 0.050849
#
#
# Mechanical properties :
#
#
# Convention : Reuss Voigt Hill
#
# Bulk Modulus (GPa) = 49.04747 52.91169 50.97958
# Shear Modulus (GPa) = 16.71639 18.68132 17.69885
#
# Velocity S-wave (km/s) = 3.29840 3.48687 3.39394
# Velocity P-wave (km/s) = 6.81375 7.11669 6.96687
#
# Compressibility (1/GPa) = 0.02038841
#
# Stress axis : x y z
#
# Youngs Moduli (GPa) = 47.60200 56.21242 78.52390
#
# Poissons Ratio (x) = 0.41283 0.16719
# Poissons Ratio (y) = 0.34960 0.47888
# Poissons Ratio (z) = 0.10135 0.34281
#
# Static dielectric constant tensor:
#      x y z
#    x 2.788790 0.000000 0.000000 
#    y 0.000000 2.803780 0.000000 
#    z 0.000000 0.000000 3.145420 
# 
# 
# High freq. dielectric constant tensor:
#      x y z
#    x 1.564160 0.000000 0.000000 
#    y 0.000000 1.574590 0.000000 
#    z 0.000000 0.000000 1.591520 
# 
# From -- ./inp_files/69901.got.cif
#   From: 2010.03.12/outbox.cif.g09.slc.cpg/sg65_35_cif.got.tgz:69901.got - 2010.04.10 20:52:16.
