data_PCOD8267168
_publ_section_title
;
Structure prediction by ZEFSAII (Michael W. Deem and Ramdas Pophale) SiO2 
 PCOD8267168
Probable space group: C M M M
;
_chemical_formula_sum "Si O2"
_cell_formula_units_Z 96
_cell_length_a 27.410313
_cell_length_b 14.078241
_cell_length_c 14.962824
_cell_angle_alpha 90.000000
_cell_angle_beta 90.000000
_cell_angle_gamma 90.000000
_cell_volume 5773.989075
_symmetry_space_group_name_H-M "C M M M"
_symmetry_group_IT_number 65
_symmetry_cell_setting 'orthorhombic'
loop_
_space_group_symop_operation_xyz
x,y,z
-x,-y,z
x,-y,-z
-x,y,-z
-x,-y,-z
x,y,-z
-x,y,z
x,-y,z
1/2+x,1/2+y,z
1/2-x,1/2-y,z
1/2+x,1/2-y,-z
1/2-x,1/2+y,-z
1/2-x,1/2-y,-z
1/2+x,1/2+y,-z
1/2-x,1/2+y,z
1/2+x,1/2-y,z
loop_
_atom_site_type_symbol
_atom_site_label
_atom_site_fract_x
_atom_site_fract_y
_atom_site_fract_z
Si Si1 0.056666 0.890665 0.102217
Si Si2 0.828170 0.786507 0.402876
Si Si3 0.769587 0.605999 0.632465
Si Si4 0.135695 0.214690 0.211949
Si Si5 0.188149 0.394815 0.824607
Si Si6 0.214534 0.111021 0.098830
O O1 0.086048 0.824808 0.170460
O O2 0.000000 0.874403 0.121908
O O3 0.071169 0.000000 0.118871
O O4 0.069036 0.863075 0.000000
O O5 0.853259 0.807690 0.500000
O O6 0.807614 0.679442 0.410328
O O7 0.785152 0.861727 0.388203
O O8 0.866033 0.796070 0.320056
O O9 0.777777 0.500000 0.592901
O O10 0.777803 0.605682 0.737693
O O11 0.141808 0.325246 0.183956
O O12 0.183134 0.162930 0.173749
O O13 0.167012 0.500000 0.844568
O O14 0.227738 0.361146 0.898669
O O15 0.209282 0.000000 0.118486
O O16 0.194578 0.136299 0.000000
#
# Coordination Sequence:
#
# PCOD8267168 Si02
#       6
#    16  16  16  16  16  16
#     4   9  19  36  57  79  96 110 140 190 241 286
#     4  10  20  29  40  65  93 121 164 201 225 265
#     4   9  16  29  44  58  88 131 165 197 231 258
#     4  11  19  30  49  68  91 125 156 190 235 277
#     4   9  18  30  42  63  97 130 160 189 219 266
#     4  10  19  29  43  65  93 124 156 189 226 274
#
# _framework density 16.626287000000001
#
# number of rings (size 3 to 8) (size 9 to 14) (size 15 to 20)
#    0.000    2.333    1.667    3.000    0.000    5.333 
#    0.000    0.000    0.000    1.000    0.000    2.333 
#    0.000    0.000    0.000    8.333    0.000    0.000 
#
# Total GULP energy -594842.430264 kJ/mol
# GULP energy per Si atom -12392.550630 kJ/mol
# Density = 1.658844 g / cm^3
# Si number density = 16.626287 Si / 1000 Ang^3
#
#
#
# Elastic Constant Matrix: (Units=GPa)
#
#
# Indices 1 2 3 4 5 6 
#
# 1 61.9635 36.5816 37.6108 0.0000 0.0000 0.0000
# 2 36.5816 80.6960 37.8665 0.0000 0.0000 0.0000
# 3 37.6108 37.8665 98.0364 0.0000 0.0000 0.0000
# 4 0.0000 0.0000 0.0000 9.1757 0.0000 0.0000
# 5 0.0000 0.0000 0.0000 0.0000 14.3189 0.0000
# 6 0.0000 0.0000 0.0000 0.0000 0.0000 21.8941
#
#
#
# Elastic Compliance Matrix: (Units=1/GPa)
#
#
# Indices 1 2 3 4 5 6 
#
# 1 0.024893 -0.008309 -0.006340 0.000000 0.000000 0.000000
# 2 -0.008309 0.017909 -0.003730 0.000000 0.000000 0.000000
# 3 -0.006340 -0.003730 0.014073 0.000000 0.000000 0.000000
# 4 0.000000 0.000000 0.000000 0.108984 0.000000 0.000000
# 5 0.000000 0.000000 0.000000 0.000000 0.069838 0.000000
# 6 0.000000 0.000000 0.000000 0.000000 0.000000 0.045674
#
#
# Mechanical properties :
#
#
# Convention : Reuss Voigt Hill
#
# Bulk Modulus (GPa) = 49.71044 51.64598 50.67821
# Shear Modulus (GPa) = 15.39243 17.65355 16.52299
#
# Velocity S-wave (km/s) = 3.04598 3.26204 3.15586
# Velocity P-wave (km/s) = 6.50648 6.73188 6.62014
#
# Compressibility (1/GPa) = 0.02011650
#
# Stress axis : x y z
#
# Youngs Moduli (GPa) = 40.17265 55.83755 71.05663
#
# Poissons Ratio (x) = 0.46397 0.45053
# Poissons Ratio (y) = 0.33380 0.26501
# Poissons Ratio (z) = 0.25471 0.20825
#
# Static dielectric constant tensor:
#      x y z
#    x 2.588120 0.000000 0.000000 
#    y 0.000000 3.393330 0.000000 
#    z 0.000000 0.000000 3.320380 
# 
# 
# High freq. dielectric constant tensor:
#      x y z
#    x 1.571080 0.000000 0.000000 
#    y 0.000000 1.649520 0.000000 
#    z 0.000000 0.000000 1.651300 
# 
# From -- ./inp_files/47893.got.cif
#   From: 2010.03.12/outbox.cif.g09.slc.cpg/sg65_24_cif.got.tgz:47893.got - 2010.04.10 20:52:16.
