data_PCOD8267804
_publ_section_title
;
Structure prediction by ZEFSAII (Michael W. Deem and Ramdas Pophale) SiO2 
 PCOD8267804
Probable space group: C M M M
;
_chemical_formula_sum "Si O2"
_cell_formula_units_Z 96
_cell_length_a 9.673384
_cell_length_b 26.390794
_cell_length_c 22.074406
_cell_angle_alpha 90.000000
_cell_angle_beta 90.000000
_cell_angle_gamma 90.000000
_cell_volume 5635.337237
_symmetry_space_group_name_H-M "C M M M"
_symmetry_group_IT_number 65
_symmetry_cell_setting 'orthorhombic'
loop_
_space_group_symop_operation_xyz
x,y,z
-x,-y,z
x,-y,-z
-x,y,-z
-x,-y,-z
x,y,-z
-x,y,z
x,-y,z
1/2+x,1/2+y,z
1/2-x,1/2-y,z
1/2+x,1/2-y,-z
1/2-x,1/2+y,-z
1/2-x,1/2-y,-z
1/2+x,1/2+y,-z
1/2-x,1/2+y,z
1/2+x,1/2-y,z
loop_
_atom_site_type_symbol
_atom_site_label
_atom_site_fract_x
_atom_site_fract_y
_atom_site_fract_z
Si Si1 0.157502 0.364770 0.116407
Si Si2 0.156668 0.295473 0.773030
Si Si3 0.840877 0.596034 0.571564
Si Si4 0.661438 0.200736 0.634340
Si Si5 0.339935 0.500000 0.572005
Si Si6 0.338749 0.200317 0.000000
Si Si7 0.653522 0.442277 0.068139
O O1 0.185233 0.341565 0.182148
O O2 0.248182 0.415004 0.115667
O O3 0.000000 0.380781 0.107975
O O4 0.203418 0.329311 0.060797
O O5 0.250000 0.250000 0.796089
O O6 0.192274 0.311456 0.704594
O O7 0.000000 0.276517 0.778229
O O8 0.828388 0.601080 0.500000
O O9 0.792267 0.650094 0.598839
O O10 0.741552 0.550435 0.595236
O O11 0.000000 0.584180 0.590517
O O12 0.500000 0.212864 0.622557
O O13 0.750000 0.250000 0.613113
O O14 0.500000 0.500000 0.595432
O O15 0.338145 0.500000 0.500000
O O16 0.250000 0.250000 0.000000
O O17 0.500000 0.214273 0.000000
O O18 0.500000 0.418998 0.071647
O O19 0.649576 0.500000 0.088113
O O20 0.712041 0.436369 0.000000
#
# Coordination Sequence:
#
# PCOD8267804 Si02
#       7
#    16  16  16  16   8   8  16
#     4  10  19  31  47  68  92 117 149 188 228 270
#     4   9  18  32  49  68  92 123 158 191 225 272
#     4   9  17  30  49  72  98 129 163 198 238 285
#     4   9  18  32  49  70  97 129 163 197 235 281
#     4   9  17  29  47  73 101 127 159 200 243 284
#     4  10  20  30  41  64  93 115 140 179 223 266
#     4   9  18  32  49  69  91 116 148 184 225 276
#
# _framework density 17.035360000000001
#
# number of rings (size 3 to 8) (size 9 to 14) (size 15 to 20)
#    0.000    2.750    0.833    1.250    0.000    3.667 
#    0.000    0.833    1.833    0.000    0.000    0.000 
#    0.000    0.000    0.000    0.000    0.000    0.000 
#
# Total GULP energy -595046.873482 kJ/mol
# GULP energy per Si atom -12396.809864 kJ/mol
# Density = 1.699659 g / cm^3
# Si number density = 17.035360 Si / 1000 Ang^3
#
#
#
# Elastic Constant Matrix: (Units=GPa)
#
#
# Indices 1 2 3 4 5 6 
#
# 1 84.0900 75.0792 30.3465 0.0000 0.0000 0.0000
# 2 75.0792 120.9886 35.9868 0.0000 0.0000 0.0000
# 3 30.3465 35.9868 41.8290 0.0000 0.0000 0.0000
# 4 0.0000 0.0000 0.0000 18.2585 0.0000 0.0000
# 5 0.0000 0.0000 0.0000 0.0000 18.4703 0.0000
# 6 0.0000 0.0000 0.0000 0.0000 0.0000 38.1066
#
#
#
# Elastic Compliance Matrix: (Units=1/GPa)
#
#
# Indices 1 2 3 4 5 6 
#
# 1 0.028220 -0.015350 -0.007267 0.000000 0.000000 0.000000
# 2 -0.015350 0.019458 -0.005603 0.000000 0.000000 0.000000
# 3 -0.007267 -0.005603 0.034000 0.000000 0.000000 0.000000
# 4 0.000000 0.000000 0.000000 0.054769 0.000000 0.000000
# 5 0.000000 0.000000 0.000000 0.000000 0.054141 0.000000
# 6 0.000000 0.000000 0.000000 0.000000 0.000000 0.026242
#
#
# Mechanical properties :
#
#
# Convention : Reuss Voigt Hill
#
# Bulk Modulus (GPa) = 39.62610 58.85916 49.24263
# Shear Modulus (GPa) = 17.75047 22.00009 19.87528
#
# Velocity S-wave (km/s) = 3.23147 3.59756 3.41942
# Velocity P-wave (km/s) = 6.10203 7.20297 6.67523
#
# Compressibility (1/GPa) = 0.02523589
#
# Stress axis : x y z
#
# Youngs Moduli (GPa) = 35.43586 51.39391 29.41201
#
# Poissons Ratio (x) = 0.78892 0.21373
# Poissons Ratio (y) = 0.54395 0.16481
# Poissons Ratio (z) = 0.25751 0.28798
#
# Static dielectric constant tensor:
#      x y z
#    x 3.361110 0.000000 0.000000 
#    y 0.000000 3.147640 0.000000 
#    z 0.000000 0.000000 3.070800 
# 
# 
# High freq. dielectric constant tensor:
#      x y z
#    x 1.660420 0.000000 0.000000 
#    y 0.000000 1.652670 0.000000 
#    z 0.000000 0.000000 1.635960 
# 
# From -- ./inp_files/68096.got.cif
#   From: 2010.03.12/outbox.cif.g09.slc.cpg/sg65_35_cif.got.tgz:68096.got - 2010.04.10 20:52:16.
