data_PCOD8267032
_publ_section_title
;
Structure prediction by ZEFSAII (Michael W. Deem and Ramdas Pophale) SiO2 
 PCOD8267032
Probable space group: C M M M
;
_chemical_formula_sum "Si O2"
_cell_formula_units_Z 112
_cell_length_a 35.287329
_cell_length_b 13.819705
_cell_length_c 13.453343
_cell_angle_alpha 90.000000
_cell_angle_beta 90.000000
_cell_angle_gamma 90.000000
_cell_volume 6560.663665
_symmetry_space_group_name_H-M "C M M M"
_symmetry_group_IT_number 65
_symmetry_cell_setting 'orthorhombic'
loop_
_space_group_symop_operation_xyz
x,y,z
-x,-y,z
x,-y,-z
-x,y,-z
-x,-y,-z
x,y,-z
-x,y,z
x,-y,z
1/2+x,1/2+y,z
1/2-x,1/2-y,z
1/2+x,1/2-y,-z
1/2-x,1/2+y,-z
1/2-x,1/2-y,-z
1/2+x,1/2+y,-z
1/2-x,1/2+y,z
1/2+x,1/2-y,z
loop_
_atom_site_type_symbol
_atom_site_label
_atom_site_fract_x
_atom_site_fract_y
_atom_site_fract_z
Si Si1 0.774549 0.614352 0.890153
Si Si2 0.041128 0.387728 0.291756
Si Si3 0.542414 0.605789 0.882299
Si Si4 0.311404 0.611445 0.884048
Si Si5 0.420354 0.800014 0.115151
Si Si6 0.156856 0.709738 0.210071
Si Si7 0.382179 0.113602 0.385500
O O1 0.775769 0.500000 0.886763
O O2 0.731690 0.647306 0.866257
O O3 0.804022 0.655830 0.811966
O O4 0.785928 0.651808 0.000000
O O5 0.036665 0.500000 0.309095
O O6 0.051901 0.369169 0.176884
O O7 0.074800 0.350143 0.363588
O O8 0.000000 0.339241 0.316608
O O9 0.500000 0.627920 0.841871
O O10 0.556125 0.500000 0.842734
O O11 0.571352 0.689543 0.848603
O O12 0.541093 0.603086 0.000000
O O13 0.316992 0.500000 0.853612
O O14 0.337635 0.675746 0.811306
O O15 0.322644 0.626128 0.000000
O O16 0.376914 0.827208 0.138548
O O17 0.429300 0.816677 0.000000
O O18 0.146248 0.682345 0.323217
O O19 0.372478 0.130475 0.500000
O O20 0.377283 0.000000 0.356113
#
# Coordination Sequence:
#
# PCOD8267032 Si02
#       7
#    16  16  16  16  16  16  16
#     4   9  17  29  46  69  97 129 162 191 220 263
#     4   9  18  31  46  65  88 117 154 189 222 269
#     4   8  14  25  39  53  74 111 155 188 212 246
#     4   9  18  31  47  70 100 133 165 191 216 256
#     4  10  19  27  38  62  95 125 149 180 227 280
#     4  11  19  29  47  69  93 122 157 195 238 284
#     4   9  19  35  52  70  91 115 150 200 252 293
#
# _framework density 17.071444
#
# number of rings (size 3 to 8) (size 9 to 14) (size 15 to 20)
#    0.000    2.714    0.000    3.857    0.000    3.714 
#    0.000    3.571    0.000    2.143    0.000    2.000 
#    0.000    0.000    0.000   15.143    0.000    0.857 
#
# Total GULP energy -693966.692794 kJ/mol
# GULP energy per Si atom -12392.262371 kJ/mol
# Density = 1.703259 g / cm^3
# Si number density = 17.071444 Si / 1000 Ang^3
#
#
#
# Elastic Constant Matrix: (Units=GPa)
#
#
# Indices 1 2 3 4 5 6 
#
# 1 80.0240 30.5035 41.8822 0.0000 0.0000 0.0000
# 2 30.5035 26.4043 31.5969 0.0000 0.0000 0.0000
# 3 41.8822 31.5969 84.7686 0.0000 0.0000 0.0000
# 4 0.0000 0.0000 0.0000 19.2235 0.0000 0.0000
# 5 0.0000 0.0000 0.0000 0.0000 15.5075 0.0000
# 6 0.0000 0.0000 0.0000 0.0000 0.0000 26.2535
#
#
#
# Elastic Compliance Matrix: (Units=1/GPa)
#
#
# Indices 1 2 3 4 5 6 
#
# 1 0.022641 -0.023051 -0.002594 0.000000 0.000000 0.000000
# 2 -0.023051 0.091838 -0.022843 0.000000 0.000000 0.000000
# 3 -0.002594 -0.022843 0.021593 0.000000 0.000000 0.000000
# 4 0.000000 0.000000 0.000000 0.052020 0.000000 0.000000
# 5 0.000000 0.000000 0.000000 0.000000 0.064485 0.000000
# 6 0.000000 0.000000 0.000000 0.000000 0.000000 0.038090
#
#
# Mechanical properties :
#
#
# Convention : Reuss Voigt Hill
#
# Bulk Modulus (GPa) = 25.57868 44.35132 34.96500
# Shear Modulus (GPa) = 12.47899 18.01119 15.24509
#
# Velocity S-wave (km/s) = 2.70661 3.25167 2.99158
# Velocity P-wave (km/s) = 4.97830 6.33515 5.69726
#
# Compressibility (1/GPa) = 0.03909505
#
# Stress axis : x y z
#
# Youngs Moduli (GPa) = 44.16854 10.88878 46.31165
#
# Poissons Ratio (x) = 0.25100 0.12013
# Poissons Ratio (y) = 1.01815 1.05788
# Poissons Ratio (z) = 0.11457 0.24873
#
# Static dielectric constant tensor:
#      x y z
#    x 3.474170 0.000000 0.000000 
#    y 0.000000 3.361350 0.000000 
#    z 0.000000 0.000000 2.795220 
# 
# 
# High freq. dielectric constant tensor:
#      x y z
#    x 1.667290 0.000000 0.000000 
#    y 0.000000 1.656820 0.000000 
#    z 0.000000 0.000000 1.603910 
# 
# From -- ./inp_files/47979.got.cif
#   From: 2010.03.12/outbox.cif.g09.slc.cpg/sg65_24_cif.got.tgz:47979.got - 2010.04.10 20:52:16.
