data_PCOD8267649
_publ_section_title
;
Structure prediction by ZEFSAII (Michael W. Deem and Ramdas Pophale) SiO2 
 PCOD8267649
Probable space group: C M M M
;
_chemical_formula_sum "Si O2"
_cell_formula_units_Z 64
_cell_length_a 32.471981
_cell_length_b 9.786579
_cell_length_c 11.548020
_cell_angle_alpha 90.000000
_cell_angle_beta 90.000000
_cell_angle_gamma 90.000000
_cell_volume 3669.840741
_symmetry_space_group_name_H-M "C M M M"
_symmetry_group_IT_number 65
_symmetry_cell_setting 'orthorhombic'
loop_
_space_group_symop_operation_xyz
x,y,z
-x,-y,z
x,-y,-z
-x,y,-z
-x,-y,-z
x,y,-z
-x,y,z
x,-y,z
1/2+x,1/2+y,z
1/2-x,1/2-y,z
1/2+x,1/2-y,-z
1/2-x,1/2+y,-z
1/2-x,1/2-y,-z
1/2+x,1/2+y,-z
1/2-x,1/2+y,z
1/2+x,1/2-y,z
loop_
_atom_site_type_symbol
_atom_site_label
_atom_site_fract_x
_atom_site_fract_y
_atom_site_fract_z
Si Si1 0.000000 0.341459 0.862825
Si Si2 0.454380 0.339554 0.500000
Si Si3 0.689331 0.000000 0.137128
Si Si4 0.431247 0.343274 0.750240
Si Si5 0.653941 0.282154 0.136684
Si Si6 0.219344 0.000000 0.863623
O O1 0.959668 0.261813 0.819940
O O2 0.000000 0.500000 0.819704
O O3 0.000000 0.338370 0.000000
O O4 0.459205 0.500000 0.500000
O O5 0.500000 0.272434 0.500000
O O6 0.430465 0.294700 0.616131
O O7 0.662804 0.871135 0.177542
O O8 0.735154 0.000000 0.193588
O O9 0.694510 0.000000 0.000000
O O10 0.447717 0.500000 0.762242
O O11 0.385303 0.338860 0.797339
O O12 0.694104 0.366762 0.174972
O O13 0.645702 0.295659 0.000000
O O14 0.224949 0.000000 0.000000
#
# Coordination Sequence:
#
# PCOD8267649 Si02
#       6
#     8   8   8  16  16   8
#     4  11  25  38  53  78 112 145 170 205 266 329
#     4   9  18  36  58  78  97 131 182 233 266 304
#     4   9  18  30  48  72 109 148 168 204 263 315
#     4  11  21  37  58  78 103 139 181 225 264 304
#     4  10  19  30  49  78 109 138 173 214 260 319
#     4   9  16  30  48  74 105 138 180 212 249 315
#
# _framework density 17.439449
#
# number of rings (size 3 to 8) (size 9 to 14) (size 15 to 20)
#    0.000    2.000    2.500    1.875    1.750    5.000 
#    0.000    1.250    0.000    0.000    0.000    5.250 
#    0.000    0.000    0.000    0.000    0.000    0.000 
#
# Total GULP energy -396681.093432 kJ/mol
# GULP energy per Si atom -12396.284170 kJ/mol
# Density = 1.739976 g / cm^3
# Si number density = 17.439449 Si / 1000 Ang^3
#
#
#
# Elastic Constant Matrix: (Units=GPa)
#
#
# Indices 1 2 3 4 5 6 
#
# 1 83.3111 22.8492 35.1760 0.0000 0.0000 0.0000
# 2 22.8492 114.3943 29.4141 0.0000 0.0000 0.0000
# 3 35.1760 29.4141 75.6172 0.0000 0.0000 0.0000
# 4 0.0000 0.0000 0.0000 12.3760 0.0000 0.0000
# 5 0.0000 0.0000 0.0000 0.0000 -2.7612 0.0000
# 6 0.0000 0.0000 0.0000 0.0000 0.0000 34.3366
#
#
#
# Elastic Compliance Matrix: (Units=1/GPa)
#
#
# Indices 1 2 3 4 5 6 
#
# 1 0.015121 -0.001346 -0.006511 0.000000 0.000000 0.000000
# 2 -0.001346 0.009833 -0.003199 0.000000 0.000000 0.000000
# 3 -0.006511 -0.003199 0.017497 0.000000 0.000000 0.000000
# 4 0.000000 0.000000 0.000000 0.080802 0.000000 0.000000
# 5 0.000000 0.000000 0.000000 0.000000 -0.362166 0.000000
# 6 0.000000 0.000000 0.000000 0.000000 0.000000 0.029123
#
#
# Mechanical properties :
#
#
# Convention : Reuss Voigt Hill
#
# Bulk Modulus (GPa) = 49.16230 49.80012 49.48121
# Shear Modulus (GPa) = -27.63997 21.18249 -3.22874
#
# Velocity S-wave (km/s) = -3.98541 3.48894 -1.36214
# Velocity P-wave (km/s) = 2.65960 6.69688 5.09518
#
# Compressibility (1/GPa) = 0.02034079
#
# Stress axis : x y z
#
# Youngs Moduli (GPa) = 66.13172 101.69758 57.15155
#
# Poissons Ratio (x) = 0.13692 0.37209
# Poissons Ratio (y) = 0.08903 0.18281
# Poissons Ratio (z) = 0.43055 0.32530
#
# Static dielectric constant tensor:
#      x y z
#    x 3.316400 0.000000 0.000000 
#    y 0.000000 3.490800 0.000000 
#    z 0.000000 0.000000 3.074910 
# 
# 
# High freq. dielectric constant tensor:
#      x y z
#    x 1.680550 0.000000 0.000000 
#    y 0.000000 1.679620 0.000000 
#    z 0.000000 0.000000 1.631420 
# 
# From -- ./inp_files/33311.got.cif
#   From: 2010.03.12/outbox.cif.g09.slc.cpg/sg65_17_cif.got.tgz:33311.got - 2010.04.10 20:52:16.
