data_PCOD8267046
_publ_section_title
;
Structure prediction by ZEFSAII (Michael W. Deem and Ramdas Pophale) SiO2 
 PCOD8267046
Probable space group: C M M M
;
_chemical_formula_sum "Si O2"
_cell_formula_units_Z 80
_cell_length_a 24.240599
_cell_length_b 24.104682
_cell_length_c 9.206654
_cell_angle_alpha 90.000000
_cell_angle_beta 90.000000
_cell_angle_gamma 90.000000
_cell_volume 5379.557771
_symmetry_space_group_name_H-M "C M M M"
_symmetry_group_IT_number 65
_symmetry_cell_setting 'orthorhombic'
loop_
_space_group_symop_operation_xyz
x,y,z
-x,-y,z
x,-y,-z
-x,y,-z
-x,-y,-z
x,y,-z
-x,y,z
x,-y,z
1/2+x,1/2+y,z
1/2-x,1/2-y,z
1/2+x,1/2-y,-z
1/2-x,1/2+y,-z
1/2-x,1/2-y,-z
1/2+x,1/2+y,-z
1/2-x,1/2+y,z
1/2+x,1/2-y,z
loop_
_atom_site_type_symbol
_atom_site_label
_atom_site_fract_x
_atom_site_fract_y
_atom_site_fract_z
Si Si1 0.231280 0.665433 0.672107
Si Si2 0.663562 0.272265 0.328546
Si Si3 0.061536 0.625957 0.333611
Si Si4 0.167416 0.561023 0.671859
Si Si5 0.562113 0.760170 0.169380
O O1 0.229489 0.664602 0.500000
O O2 0.293822 0.679301 0.721437
O O3 0.189212 0.713452 0.722233
O O4 0.211068 0.606082 0.735491
O O5 0.653246 0.274350 0.500000
O O6 0.605474 0.281258 0.246641
O O7 0.072106 0.644971 0.500000
O O8 0.105123 0.578981 0.287414
O O9 0.069941 0.678727 0.232757
O O10 0.000000 0.601103 0.315124
O O11 0.173984 0.557923 0.500000
O O12 0.178848 0.500000 0.739688
O O13 0.500000 0.738440 0.199615
O O14 0.575023 0.762334 0.000000
#
# Coordination Sequence:
#
# PCOD8267046 Si02
#       5
#    16  16  16  16  16
#     4   8  14  24  39  60  81 102 130 163 200 234
#     4   9  15  26  44  59  77 104 133 163 193 238
#     4   9  16  26  40  56  76 106 142 171 195 227
#     4   9  15  23  38  60  83 103 130 170 205 229
#     4  10  19  28  39  58  83 106 130 165 205 238
#
# _framework density 14.871111000000001
#
# number of rings (size 3 to 8) (size 9 to 14) (size 15 to 20)
#    0.000    3.000    2.000    1.800    0.000    1.600 
#    0.000    4.000    0.000    0.600    0.000    2.800 
#    0.000    0.800    0.000   10.000    0.000    1.600 
#
# Total GULP energy -495654.063311 kJ/mol
# GULP energy per Si atom -12391.351583 kJ/mol
# Density = 1.483726 g / cm^3
# Si number density = 14.871111 Si / 1000 Ang^3
#
#
#
# Elastic Constant Matrix: (Units=GPa)
#
#
# Indices 1 2 3 4 5 6 
#
# 1 128.9414 68.6697 39.9607 0.0000 0.0000 0.0000
# 2 68.6697 83.5772 16.5588 0.0000 0.0000 0.0000
# 3 39.9607 16.5588 38.6946 0.0000 0.0000 0.0000
# 4 0.0000 0.0000 0.0000 4.3019 0.0000 0.0000
# 5 0.0000 0.0000 0.0000 0.0000 14.4019 0.0000
# 6 0.0000 0.0000 0.0000 0.0000 0.0000 21.3987
#
#
#
# Elastic Compliance Matrix: (Units=1/GPa)
#
#
# Indices 1 2 3 4 5 6 
#
# 1 0.018901 -0.012743 -0.014067 0.000000 0.000000 0.000000
# 2 -0.012743 0.021665 0.003889 0.000000 0.000000 0.000000
# 3 -0.014067 0.003889 0.038706 0.000000 0.000000 0.000000
# 4 0.000000 0.000000 0.000000 0.232454 0.000000 0.000000
# 5 0.000000 0.000000 0.000000 0.000000 0.069435 0.000000
# 6 0.000000 0.000000 0.000000 0.000000 0.000000 0.046732
#
#
# Mechanical properties :
#
#
# Convention : Reuss Voigt Hill
#
# Bulk Modulus (GPa) = 29.91270 55.73241 42.82255
# Shear Modulus (GPa) = 10.31185 16.42208 13.36697
#
# Velocity S-wave (km/s) = 2.63613 3.32670 3.00134
# Velocity P-wave (km/s) = 5.42438 7.23286 6.39289
#
# Compressibility (1/GPa) = 0.03343062
#
# Stress axis : x y z
#
# Youngs Moduli (GPa) = 52.90606 46.15830 25.83565
#
# Poissons Ratio (x) = 0.58820 0.36342
# Poissons Ratio (y) = 0.67418 -0.10047
# Poissons Ratio (z) = 0.74421 -0.17951
#
# Static dielectric constant tensor:
#      x y z
#    x 3.199090 0.000000 0.000000 
#    y 0.000000 2.934070 0.000000 
#    z 0.000000 0.000000 2.568220 
# 
# 
# High freq. dielectric constant tensor:
#      x y z
#    x 1.576810 0.000000 0.000000 
#    y 0.000000 1.528400 0.000000 
#    z 0.000000 0.000000 1.533710 
# 
# From -- ./inp_files/12505.got.cif
#   From: 2010.03.12/outbox.cif.g09.slc.cpg/sg65_7_cif.got.tgz:12505.got - 2010.04.10 20:52:16.
