data_PCOD8267843
_publ_section_title
;
Structure prediction by ZEFSAII (Michael W. Deem and Ramdas Pophale) SiO2 
 PCOD8267843
Probable space group: C M M M
;
_chemical_formula_sum "Si O2"
_cell_formula_units_Z 64
_cell_length_a 18.444019
_cell_length_b 7.641047
_cell_length_c 22.093968
_cell_angle_alpha 90.000000
_cell_angle_beta 90.000000
_cell_angle_gamma 90.000000
_cell_volume 3113.738615
_symmetry_space_group_name_H-M "C M M M"
_symmetry_group_IT_number 65
_symmetry_cell_setting 'orthorhombic'
loop_
_space_group_symop_operation_xyz
x,y,z
-x,-y,z
x,-y,-z
-x,y,-z
-x,-y,-z
x,y,-z
-x,y,z
x,-y,z
1/2+x,1/2+y,z
1/2-x,1/2-y,z
1/2+x,1/2-y,-z
1/2-x,1/2+y,-z
1/2-x,1/2-y,-z
1/2+x,1/2+y,-z
1/2-x,1/2+y,z
1/2+x,1/2-y,z
loop_
_atom_site_type_symbol
_atom_site_label
_atom_site_fract_x
_atom_site_fract_y
_atom_site_fract_z
Si Si1 0.919355 0.208064 0.613058
Si Si2 0.166727 0.696091 0.861775
Si Si3 0.083720 0.000000 0.071436
Si Si4 0.583750 0.294327 0.252475
Si Si5 0.667128 0.705225 0.500000
O O1 0.892710 0.265536 0.679868
O O2 0.867996 0.287239 0.560765
O O3 0.000000 0.280445 0.601168
O O4 0.920580 0.000000 0.610985
O O5 0.159942 0.500000 0.888430
O O6 0.250000 0.750000 0.860034
O O7 0.121281 0.825738 0.903827
O O8 0.135246 0.694254 0.793942
O O9 0.000000 0.000000 0.092280
O O10 0.091552 0.000000 0.000000
O O11 0.500000 0.243926 0.241228
O O12 0.594990 0.500000 0.242699
O O13 0.653229 0.500000 0.500000
O O14 0.750000 0.750000 0.500000
#
# Coordination Sequence:
#
# PCOD8267843 Si02
#       5
#    16  16   8  16   8
#     4   8  15  29  52  78 103 144 196 246 297 358
#     4  12  24  42  66  98 133 173 215 260 319 379
#     4  11  26  48  72 100 135 172 214 264 312 372
#     4   9  17  33  58  86 119 156 200 256 316 375
#     4  10  19  31  47  71 105 142 192 242 300 362
#
# _framework density 20.554068999999998
#
# number of rings (size 3 to 8) (size 9 to 14) (size 15 to 20)
#    0.000    2.125    2.500    2.625    0.000    5.500 
#    0.000    5.000    0.000    3.000    0.000    0.000 
#    0.000    0.000    0.000    0.000    0.000    0.000 
#
# Total GULP energy -396730.823351 kJ/mol
# GULP energy per Si atom -12397.838230 kJ/mol
# Density = 2.050729 g / cm^3
# Si number density = 20.554069 Si / 1000 Ang^3
#
#
#
# Elastic Constant Matrix: (Units=GPa)
#
#
# Indices 1 2 3 4 5 6 
#
# 1 148.8396 47.4444 78.9797 0.0000 0.0000 0.0000
# 2 47.4444 102.9463 39.5820 0.0000 0.0000 0.0000
# 3 78.9797 39.5820 129.8243 0.0000 0.0000 0.0000
# 4 0.0000 0.0000 0.0000 7.3740 0.0000 0.0000
# 5 0.0000 0.0000 0.0000 0.0000 15.7254 0.0000
# 6 0.0000 0.0000 0.0000 0.0000 0.0000 24.6657
#
#
#
# Elastic Compliance Matrix: (Units=1/GPa)
#
#
# Indices 1 2 3 4 5 6 
#
# 1 0.010550 -0.002712 -0.005591 0.000000 0.000000 0.000000
# 2 -0.002712 0.011701 -0.001917 0.000000 0.000000 0.000000
# 3 -0.005591 -0.001917 0.011689 0.000000 0.000000 0.000000
# 4 0.000000 0.000000 0.000000 0.135611 0.000000 0.000000
# 5 0.000000 0.000000 0.000000 0.000000 0.063591 0.000000
# 6 0.000000 0.000000 0.000000 0.000000 0.000000 0.040542
#
#
# Mechanical properties :
#
#
# Convention : Reuss Voigt Hill
#
# Bulk Modulus (GPa) = 74.08591 79.29139 76.68865
# Shear Modulus (GPa) = 16.74334 23.92662 20.33498
#
# Velocity S-wave (km/s) = 2.85722 3.41557 3.14879
# Velocity P-wave (km/s) = 6.85621 7.36312 7.11418
#
# Compressibility (1/GPa) = 0.01349784
#
# Stress axis : x y z
#
# Youngs Moduli (GPa) = 94.78473 85.46214 85.55156
#
# Poissons Ratio (x) = 0.23181 0.47835
# Poissons Ratio (y) = 0.25710 0.16404
# Poissons Ratio (z) = 0.52997 0.16387
#
# Static dielectric constant tensor:
#      x y z
#    x 3.696500 0.000000 0.000000 
#    y 0.000000 3.533080 0.000000 
#    z 0.000000 0.000000 3.992150 
# 
# 
# High freq. dielectric constant tensor:
#      x y z
#    x 1.800160 0.000000 0.000000 
#    y 0.000000 1.787530 0.000000 
#    z 0.000000 0.000000 1.811510 
# 
# From -- ./inp_files/63284.got.cif
#   From: 2010.03.12/outbox.cif.g09.slc.cpg/sg65_32_cif.got.tgz:63284.got - 2010.04.10 20:52:16.
