data_PCOD8267598
_publ_section_title
;
Structure prediction by ZEFSAII (Michael W. Deem and Ramdas Pophale) SiO2 
 PCOD8267598
Probable space group: C M M M
;
_chemical_formula_sum "Si O2"
_cell_formula_units_Z 56
_cell_length_a 26.683914
_cell_length_b 12.396792
_cell_length_c 8.887734
_cell_angle_alpha 90.000000
_cell_angle_beta 90.000000
_cell_angle_gamma 90.000000
_cell_volume 2940.017361
_symmetry_space_group_name_H-M "C M M M"
_symmetry_group_IT_number 65
_symmetry_cell_setting 'orthorhombic'
loop_
_space_group_symop_operation_xyz
x,y,z
-x,-y,z
x,-y,-z
-x,y,-z
-x,-y,-z
x,y,-z
-x,y,z
x,-y,z
1/2+x,1/2+y,z
1/2-x,1/2-y,z
1/2+x,1/2-y,-z
1/2-x,1/2+y,-z
1/2-x,1/2-y,-z
1/2+x,1/2+y,-z
1/2-x,1/2+y,z
1/2+x,1/2-y,z
loop_
_atom_site_type_symbol
_atom_site_label
_atom_site_fract_x
_atom_site_fract_y
_atom_site_fract_z
Si Si1 0.174417 0.378358 0.174037
Si Si2 0.556992 0.500000 0.322665
Si Si3 0.773050 0.876705 0.333132
Si Si4 0.626129 0.668337 0.827183
O O1 0.159852 0.500000 0.224870
O O2 0.221200 0.324204 0.266800
O O3 0.126538 0.298872 0.198581
O O4 0.190804 0.378022 0.000000
O O5 0.500000 0.500000 0.265685
O O6 0.560845 0.500000 0.500000
O O7 0.582857 0.390212 0.266161
O O8 0.785645 0.830243 0.500000
O O9 0.819747 0.873702 0.221584
O O10 0.756903 0.000000 0.346173
O O11 0.617346 0.638021 0.000000
#
# Coordination Sequence:
#
# PCOD8267598 Si02
#       4
#    16   8  16  16
#     4   9  19  34  51  76 112 149 183 217 258 314
#     4  11  25  43  61  81 105 135 175 229 288 335
#     4  10  19  30  47  75 112 151 186 220 261 313
#     4  11  21  34  56  80 105 141 181 224 272 321
#
# _framework density 19.047505000000001
#
# number of rings (size 3 to 8) (size 9 to 14) (size 15 to 20)
#    0.000    1.857    1.429    3.000    0.000    8.000 
#    0.000    0.000    0.000    0.857    0.000    6.000 
#    0.000    0.000    0.000    0.000    0.000    0.000 
#
# Total GULP energy -347048.170289 kJ/mol
# GULP energy per Si atom -12394.577510 kJ/mol
# Density = 1.900415 g / cm^3
# Si number density = 19.047505 Si / 1000 Ang^3
#
#
#
# Elastic Constant Matrix: (Units=GPa)
#
#
# Indices 1 2 3 4 5 6 
#
# 1 111.8968 59.6195 36.2617 0.0000 0.0000 0.0000
# 2 59.6195 104.5780 27.6959 0.0000 0.0000 0.0000
# 3 36.2617 27.6959 65.2372 0.0000 0.0000 0.0000
# 4 0.0000 0.0000 0.0000 21.6152 0.0000 0.0000
# 5 0.0000 0.0000 0.0000 0.0000 21.7716 0.0000
# 6 0.0000 0.0000 0.0000 0.0000 0.0000 22.2097
#
#
#
# Elastic Compliance Matrix: (Units=1/GPa)
#
#
# Indices 1 2 3 4 5 6 
#
# 1 0.014150 -0.006742 -0.005003 0.000000 0.000000 0.000000
# 2 -0.006742 0.013986 -0.002190 0.000000 0.000000 0.000000
# 3 -0.005003 -0.002190 0.019039 0.000000 0.000000 0.000000
# 4 0.000000 0.000000 0.000000 0.046264 0.000000 0.000000
# 5 0.000000 0.000000 0.000000 0.000000 0.045931 0.000000
# 6 0.000000 0.000000 0.000000 0.000000 0.000000 0.045025
#
#
# Mechanical properties :
#
#
# Convention : Reuss Voigt Hill
#
# Bulk Modulus (GPa) = 51.79954 58.76289 55.28121
# Shear Modulus (GPa) = 22.86222 23.66164 23.26193
#
# Velocity S-wave (km/s) = 3.46826 3.52837 3.49844
# Velocity P-wave (km/s) = 6.57969 6.89325 6.73829
#
# Compressibility (1/GPa) = 0.01930519
#
# Stress axis : x y z
#
# Youngs Moduli (GPa) = 70.66966 71.50077 52.52271
#
# Poissons Ratio (x) = 0.48206 0.26278
# Poissons Ratio (y) = 0.47646 0.11503
# Poissons Ratio (z) = 0.35357 0.15659
#
# Static dielectric constant tensor:
#      x y z
#    x 3.087440 0.000000 0.000000 
#    y 0.000000 4.094570 0.000000 
#    z 0.000000 0.000000 3.677730 
# 
# 
# High freq. dielectric constant tensor:
#      x y z
#    x 1.681470 0.000000 0.000000 
#    y 0.000000 1.773910 0.000000 
#    z 0.000000 0.000000 1.751410 
# 
# From -- ./inp_files/6543.got.cif
#   From: 2010.03.12/outbox.cif.g09.slc.cpg/sg65_4_cif.got.tgz:6543.got - 2010.04.10 20:52:16.
