data_PCOD8267922
_publ_section_title
;
Structure prediction by ZEFSAII (Michael W. Deem and Ramdas Pophale) SiO2 
 PCOD8267922
Probable space group: C M M M
;
_chemical_formula_sum "Si O2"
_cell_formula_units_Z 104
_cell_length_a 8.995317
_cell_length_b 28.879140
_cell_length_c 23.304636
_cell_angle_alpha 90.000000
_cell_angle_beta 90.000000
_cell_angle_gamma 90.000000
_cell_volume 6054.008869
_symmetry_space_group_name_H-M "C M M M"
_symmetry_group_IT_number 65
_symmetry_cell_setting 'orthorhombic'
loop_
_space_group_symop_operation_xyz
x,y,z
-x,-y,z
x,-y,-z
-x,y,-z
-x,-y,-z
x,y,-z
-x,y,z
x,-y,z
1/2+x,1/2+y,z
1/2-x,1/2-y,z
1/2+x,1/2-y,-z
1/2-x,1/2+y,-z
1/2-x,1/2-y,-z
1/2+x,1/2+y,-z
1/2-x,1/2+y,z
1/2+x,1/2-y,z
loop_
_atom_site_type_symbol
_atom_site_label
_atom_site_fract_x
_atom_site_fract_y
_atom_site_fract_z
Si Si1 0.670349 0.140407 0.935381
Si Si2 0.329513 0.202118 0.500000
Si Si3 0.326950 0.552286 0.100494
Si Si4 0.824931 0.200399 0.839443
Si Si5 0.676321 0.550016 0.230684
Si Si6 0.325487 0.799837 0.624254
Si Si7 0.174702 0.145801 0.275940
O O1 0.500000 0.140944 0.914624
O O2 0.730708 0.087856 0.936450
O O3 0.767300 0.172203 0.893893
O O4 0.683723 0.160048 0.000000
O O5 0.500000 0.215136 0.500000
O O6 0.250000 0.250000 0.500000
O O7 0.291008 0.177322 0.439162
O O8 0.500000 0.565851 0.095684
O O9 0.301531 0.500000 0.077718
O O10 0.269120 0.556708 0.165712
O O11 0.750000 0.250000 0.836920
O O12 0.783448 0.173600 0.781314
O O13 0.000000 0.206661 0.846075
O O14 0.500000 0.549969 0.229121
O O15 0.733771 0.500000 0.254660
O O16 0.731427 0.592734 0.269334
O O17 0.500000 0.793217 0.634604
O O18 0.250000 0.750000 0.631531
O O19 0.262313 0.835004 0.670190
O O20 0.000000 0.148731 0.288293
#
# Coordination Sequence:
#
# PCOD8267922 Si02
#       7
#    16   8  16  16  16  16  16
#     4  11  24  39  54  74 101 132 167 208 255 305
#     4   8  16  30  46  66  97 136 175 209 244 285
#     4   9  17  33  57  80 101 129 165 203 248 304
#     4  11  23  39  57  76  99 130 166 208 254 304
#     4   8  14  28  51  76 101 128 159 197 243 294
#     4  10  19  31  48  72 103 139 174 209 246 289
#     4  10  19  32  52  79 105 130 163 203 249 296
#
# _framework density 17.178699000000002
#
# number of rings (size 3 to 8) (size 9 to 14) (size 15 to 20)
#    0.000    2.308    1.538    2.769    0.000    5.231 
#    0.000    1.538    0.000    0.462    0.000    0.538 
#    0.000    4.308    0.000    0.000    0.000    0.000 
#
# Total GULP energy -644463.754137 kJ/mol
# GULP energy per Si atom -12393.533733 kJ/mol
# Density = 1.713960 g / cm^3
# Si number density = 17.178699 Si / 1000 Ang^3
#
#
#
# Elastic Constant Matrix: (Units=GPa)
#
#
# Indices 1 2 3 4 5 6 
#
# 1 63.8976 43.2001 50.2482 0.0000 0.0000 0.0000
# 2 43.2001 118.8132 60.7718 0.0000 0.0000 0.0000
# 3 50.2482 60.7718 119.4971 0.0000 0.0000 0.0000
# 4 0.0000 0.0000 0.0000 6.3918 0.0000 0.0000
# 5 0.0000 0.0000 0.0000 0.0000 23.6835 0.0000
# 6 0.0000 0.0000 0.0000 0.0000 0.0000 25.6545
#
#
#
# Elastic Compliance Matrix: (Units=1/GPa)
#
#
# Indices 1 2 3 4 5 6 
#
# 1 0.025493 -0.005117 -0.008117 0.000000 0.000000 0.000000
# 2 -0.005117 0.012403 -0.004156 0.000000 0.000000 0.000000
# 3 -0.008117 -0.004156 0.013895 0.000000 0.000000 0.000000
# 4 0.000000 0.000000 0.000000 0.156450 0.000000 0.000000
# 5 0.000000 0.000000 0.000000 0.000000 0.042223 0.000000
# 6 0.000000 0.000000 0.000000 0.000000 0.000000 0.038979
#
#
# Mechanical properties :
#
#
# Convention : Reuss Voigt Hill
#
# Bulk Modulus (GPa) = 58.78787 67.84979 63.31883
# Shear Modulus (GPa) = 15.15634 21.01183 18.08408
#
# Velocity S-wave (km/s) = 2.97353 3.50113 3.24806
# Velocity P-wave (km/s) = 6.78858 7.47837 7.14181
#
# Compressibility (1/GPa) = 0.01701031
#
# Stress axis : x y z
#
# Youngs Moduli (GPa) = 39.22630 80.62645 71.96722
#
# Poissons Ratio (x) = 0.41259 0.58418
# Poissons Ratio (y) = 0.20073 0.29908
# Poissons Ratio (z) = 0.31841 0.33507
#
# Static dielectric constant tensor:
#      x y z
#    x 3.123740 0.000000 0.000000 
#    y 0.000000 3.447180 0.000000 
#    z 0.000000 0.000000 3.445980 
# 
# 
# High freq. dielectric constant tensor:
#      x y z
#    x 1.656110 0.000000 0.000000 
#    y 0.000000 1.655210 0.000000 
#    z 0.000000 0.000000 1.655510 
# 
# From -- ./inp_files/60786.got.cif
#   From: 2010.03.12/outbox.cif.g09.slc.cpg/sg65_31_cif.got.tgz:60786.got - 2010.04.10 20:52:16.
