data_PCOD8267911
_publ_section_title
;
Structure prediction by ZEFSAII (Michael W. Deem and Ramdas Pophale) SiO2 
 PCOD8267911
Probable space group: C M M M
;
_chemical_formula_sum "Si O2"
_cell_formula_units_Z 48
_cell_length_a 9.283405
_cell_length_b 18.445650
_cell_length_c 17.020211
_cell_angle_alpha 90.000000
_cell_angle_beta 90.000000
_cell_angle_gamma 90.000000
_cell_volume 2914.514371
_symmetry_space_group_name_H-M "C M M M"
_symmetry_group_IT_number 65
_symmetry_cell_setting 'orthorhombic'
loop_
_space_group_symop_operation_xyz
x,y,z
-x,-y,z
x,-y,-z
-x,y,-z
-x,-y,-z
x,y,-z
-x,y,z
x,-y,z
1/2+x,1/2+y,z
1/2-x,1/2-y,z
1/2+x,1/2-y,-z
1/2-x,1/2+y,-z
1/2-x,1/2-y,-z
1/2+x,1/2+y,-z
1/2-x,1/2+y,z
1/2+x,1/2-y,z
loop_
_atom_site_type_symbol
_atom_site_label
_atom_site_fract_x
_atom_site_fract_y
_atom_site_fract_z
Si Si1 0.670821 0.081116 0.500000
Si Si2 0.328796 0.174381 0.647459
Si Si3 0.160669 0.579578 0.791453
Si Si4 0.169372 0.000000 0.909489
O O1 0.500000 0.076786 0.500000
O O2 0.725256 0.123500 0.423129
O O3 0.736589 0.000000 0.500000
O O4 0.500000 0.185624 0.644618
O O5 0.250000 0.250000 0.639049
O O6 0.279912 0.137732 0.729426
O O7 0.155096 0.500000 0.749636
O O8 0.264407 0.572523 0.868035
O O9 0.000000 0.601644 0.819519
O O10 0.000000 0.000000 0.897780
O O11 0.214566 0.000000 0.000000
#
# Coordination Sequence:
#
# PCOD8267911 Si02
#       4
#     8  16  16   8
#     4   9  17  30  51  71  92 127 170 206 233 270
#     4  10  19  31  48  71  98 130 164 199 238 280
#     4   8  16  30  48  69  94 124 162 195 228 280
#     4   9  17  29  49  76  99 118 148 195 247 289
#
# _framework density 16.469296
#
# number of rings (size 3 to 8) (size 9 to 14) (size 15 to 20)
#    1.000    2.000    0.000    1.500    0.000    6.667 
#    0.000    0.000    0.000    2.000    0.000    0.000 
#    0.000    0.000    0.000    0.000    0.000    0.000 
#
# Total GULP energy -297356.742891 kJ/mol
# GULP energy per Si atom -12389.864287 kJ/mol
# Density = 1.643181 g / cm^3
# Si number density = 16.469296 Si / 1000 Ang^3
#
#
#
# Elastic Constant Matrix: (Units=GPa)
#
#
# Indices 1 2 3 4 5 6 
#
# 1 49.0271 35.4158 56.9698 0.0000 0.0000 0.0000
# 2 35.4158 113.6221 68.8670 0.0000 0.0000 0.0000
# 3 56.9698 68.8670 149.8757 0.0000 0.0000 0.0000
# 4 0.0000 0.0000 0.0000 12.9896 0.0000 0.0000
# 5 0.0000 0.0000 0.0000 0.0000 20.8867 0.0000
# 6 0.0000 0.0000 0.0000 0.0000 0.0000 25.6775
#
#
#
# Elastic Compliance Matrix: (Units=1/GPa)
#
#
# Indices 1 2 3 4 5 6 
#
# 1 0.037978 -0.004280 -0.012469 0.000000 0.000000 0.000000
# 2 -0.004280 0.012681 -0.004200 0.000000 0.000000 0.000000
# 3 -0.012469 -0.004200 0.013342 0.000000 0.000000 0.000000
# 4 0.000000 0.000000 0.000000 0.076985 0.000000 0.000000
# 5 0.000000 0.000000 0.000000 0.000000 0.047877 0.000000
# 6 0.000000 0.000000 0.000000 0.000000 0.000000 0.038945
#
#
# Mechanical properties :
#
#
# Convention : Reuss Voigt Hill
#
# Bulk Modulus (GPa) = 45.24431 70.55889 57.90160
# Shear Modulus (GPa) = 18.04580 21.99558 20.02069
#
# Velocity S-wave (km/s) = 3.31376 3.65848 3.49038
# Velocity P-wave (km/s) = 6.49407 7.79626 7.17477
#
# Compressibility (1/GPa) = 0.02210223
#
# Stress axis : x y z
#
# Youngs Moduli (GPa) = 26.33103 78.85996 74.95261
#
# Poissons Ratio (x) = 0.33752 0.93461
# Poissons Ratio (y) = 0.11270 0.31479
# Poissons Ratio (z) = 0.32833 0.33120
#
# Static dielectric constant tensor:
#      x y z
#    x 2.851570 0.000000 0.000000 
#    y 0.000000 2.968210 0.000000 
#    z 0.000000 0.000000 3.058270 
# 
# 
# High freq. dielectric constant tensor:
#      x y z
#    x 1.614650 0.000000 0.000000 
#    y 0.000000 1.617270 0.000000 
#    z 0.000000 0.000000 1.629280 
# 
# From -- ./inp_files/48942.got.cif
#   From: 2010.03.12/outbox.cif.g09.slc.cpg/sg65_25_cif.got.tgz:48942.got - 2010.04.10 20:52:16.
