data_PCOD8267398
_publ_section_title
;
Structure prediction by ZEFSAII (Michael W. Deem and Ramdas Pophale) SiO2 
 PCOD8267398
Probable space group: C M M M
;
_chemical_formula_sum "Si O2"
_cell_formula_units_Z 88
_cell_length_a 9.119453
_cell_length_b 19.103729
_cell_length_c 28.249942
_cell_angle_alpha 90.000000
_cell_angle_beta 90.000000
_cell_angle_gamma 90.000000
_cell_volume 4921.579430
_symmetry_space_group_name_H-M "C M M M"
_symmetry_group_IT_number 65
_symmetry_cell_setting 'orthorhombic'
loop_
_space_group_symop_operation_xyz
x,y,z
-x,-y,z
x,-y,-z
-x,y,-z
-x,-y,-z
x,y,-z
-x,y,z
x,-y,z
1/2+x,1/2+y,z
1/2-x,1/2-y,z
1/2+x,1/2-y,-z
1/2-x,1/2+y,-z
1/2-x,1/2-y,-z
1/2+x,1/2+y,-z
1/2-x,1/2+y,z
1/2+x,1/2-y,z
loop_
_atom_site_type_symbol
_atom_site_label
_atom_site_fract_x
_atom_site_fract_y
_atom_site_fract_z
Si Si1 0.334319 0.582512 0.123457
Si Si2 0.160131 0.082879 0.500000
Si Si3 0.828613 0.320265 0.054264
Si Si4 0.825311 0.824615 0.313108
Si Si5 0.173866 0.077671 0.229082
Si Si6 0.175302 0.078592 0.601578
O O1 0.500000 0.609650 0.114825
O O2 0.327900 0.500000 0.116637
O O3 0.225180 0.615699 0.085792
O O4 0.280664 0.602504 0.176428
O O5 0.239668 0.103271 0.549811
O O6 0.000000 0.118793 0.500000
O O7 0.140950 0.000000 0.500000
O O8 0.750000 0.250000 0.071822
O O9 0.000000 0.309861 0.061208
O O10 0.787594 0.336871 0.000000
O O11 0.750000 0.750000 0.313606
O O12 0.767644 0.866533 0.267079
O O13 0.769894 0.867505 0.358870
O O14 0.000000 0.815818 0.312710
O O15 0.000000 0.072460 0.232126
O O16 0.238411 0.000000 0.239904
O O17 0.000000 0.077857 0.598919
O O18 0.230359 0.000000 0.614239
#
# Coordination Sequence:
#
# PCOD8267398 Si02
#       6
#    16   8  16  16  16  16
#     4   9  18  33  53  76 100 125 155 194 240 287
#     4   7  10  18  35  62  89 107 138 193 238 262
#     4  10  21  36  53  73  99 131 165 199 234 276
#     4  10  19  30  45  66  93 122 152 187 228 275
#     4   8  15  30  51  71  90 117 156 196 229 267
#     4   8  13  23  42  65  86 113 151 192 230 267
#
# _framework density 17.880438000000002
#
# number of rings (size 3 to 8) (size 9 to 14) (size 15 to 20)
#    0.000    3.182    0.000    3.273    0.000    4.727 
#    0.000    5.000    0.000    3.273    0.000    0.000 
#    0.000    2.182    0.000    0.000    0.000    0.000 
#
# Total GULP energy -545261.746167 kJ/mol
# GULP energy per Si atom -12392.312413 kJ/mol
# Density = 1.783974 g / cm^3
# Si number density = 17.880438 Si / 1000 Ang^3
#
#
#
# Elastic Constant Matrix: (Units=GPa)
#
#
# Indices 1 2 3 4 5 6 
#
# 1 33.0782 28.4166 35.4789 0.0000 0.0000 0.0000
# 2 28.4166 100.2487 78.0882 0.0000 0.0000 0.0000
# 3 35.4789 78.0882 144.7525 0.0000 0.0000 0.0000
# 4 0.0000 0.0000 0.0000 15.2873 0.0000 0.0000
# 5 0.0000 0.0000 0.0000 0.0000 11.9447 0.0000
# 6 0.0000 0.0000 0.0000 0.0000 0.0000 28.6555
#
#
#
# Elastic Compliance Matrix: (Units=1/GPa)
#
#
# Indices 1 2 3 4 5 6 
#
# 1 0.043665 -0.006970 -0.006943 0.000000 0.000000 0.000000
# 2 -0.006970 0.018317 -0.008173 0.000000 0.000000 0.000000
# 3 -0.006943 -0.008173 0.013019 0.000000 0.000000 0.000000
# 4 0.000000 0.000000 0.000000 0.065414 0.000000 0.000000
# 5 0.000000 0.000000 0.000000 0.000000 0.083719 0.000000
# 6 0.000000 0.000000 0.000000 0.000000 0.000000 0.034897
#
#
# Mechanical properties :
#
#
# Convention : Reuss Voigt Hill
#
# Bulk Modulus (GPa) = 32.43492 62.44963 47.44227
# Shear Modulus (GPa) = 15.95002 20.25056 18.10029
#
# Velocity S-wave (km/s) = 2.98994 3.36899 3.18511
# Velocity P-wave (km/s) = 5.48625 7.08065 6.33382
#
# Compressibility (1/GPa) = 0.03083097
#
# Stress axis : x y z
#
# Youngs Moduli (GPa) = 22.90152 54.59345 76.81043
#
# Poissons Ratio (x) = 0.38049 0.53326
# Poissons Ratio (y) = 0.15961 0.62778
# Poissons Ratio (z) = 0.15900 0.44620
#
# Static dielectric constant tensor:
#      x y z
#    x 2.824470 0.000000 0.000000 
#    y 0.000000 3.206980 0.000000 
#    z 0.000000 0.000000 3.808660 
# 
# 
# High freq. dielectric constant tensor:
#      x y z
#    x 1.637780 0.000000 0.000000 
#    y 0.000000 1.678980 0.000000 
#    z 0.000000 0.000000 1.712090 
# 
# From -- ./inp_files/76709.got.cif
#   From: 2010.03.12/outbox.cif.g09.slc.cpg/sg65_39_cif.got.tgz:76709.got - 2010.04.10 20:52:16.
