data_PCOD8267670
_publ_section_title
;
Structure prediction by ZEFSAII (Michael W. Deem and Ramdas Pophale) SiO2 
 PCOD8267670
Probable space group: C M M M
;
_chemical_formula_sum "Si O2"
_cell_formula_units_Z 112
_cell_length_a 32.080777
_cell_length_b 31.911123
_cell_length_c 8.892882
_cell_angle_alpha 90.000000
_cell_angle_beta 90.000000
_cell_angle_gamma 90.000000
_cell_volume 9103.942289
_symmetry_space_group_name_H-M "C M M M"
_symmetry_group_IT_number 65
_symmetry_cell_setting 'orthorhombic'
loop_
_space_group_symop_operation_xyz
x,y,z
-x,-y,z
x,-y,-z
-x,y,-z
-x,-y,-z
x,y,-z
-x,y,z
x,-y,z
1/2+x,1/2+y,z
1/2-x,1/2-y,z
1/2+x,1/2-y,-z
1/2-x,1/2+y,-z
1/2-x,1/2-y,-z
1/2+x,1/2+y,-z
1/2-x,1/2+y,z
1/2+x,1/2-y,z
loop_
_atom_site_type_symbol
_atom_site_label
_atom_site_fract_x
_atom_site_fract_y
_atom_site_fract_z
Si Si1 0.581390 0.500000 0.676914
Si Si2 0.951496 0.083467 0.826217
Si Si3 0.336454 0.712723 0.666282
Si Si4 0.383082 0.366457 0.321090
Si Si5 0.321004 0.500000 0.677444
Si Si6 0.693341 0.414331 0.821167
Si Si7 0.790427 0.279160 0.832046
Si Si8 0.243581 0.846148 0.331917
O O1 0.573226 0.500000 0.500000
O O2 0.559759 0.459845 0.747805
O O3 0.630067 0.500000 0.714994
O O4 0.928079 0.121785 0.743937
O O5 0.000000 0.092771 0.807807
O O6 0.938178 0.081158 0.000000
O O7 0.345814 0.730037 0.500000
O O8 0.373892 0.682236 0.721121
O O9 0.330287 0.752938 0.772514
O O10 0.295338 0.684725 0.663930
O O11 0.380798 0.373379 0.500000
O O12 0.349600 0.397093 0.246324
O O13 0.312608 0.500000 0.500000
O O14 0.299165 0.539816 0.753788
O O15 0.732574 0.385812 0.771968
O O16 0.690361 0.415520 0.000000
O O17 0.750000 0.250000 0.826155
O O18 0.783142 0.321039 0.734687
O O19 0.800595 0.293550 0.000000
O O20 0.254592 0.861470 0.500000
#
# Coordination Sequence:
#
# PCOD8267670 Si02
#       8
#     8  16  16  16   8  16  16  16
#     4  11  22  34  49  60  69  84 108 138 172 218
#     4  11  23  35  46  59  73  87 106 137 177 217
#     4   8  15  25  37  52  70  90 110 130 156 190
#     4  10  19  31  44  57  71  89 111 134 163 206
#     4  11  21  32  44  57  71  88 113 141 173 214
#     4  11  20  29  42  57  71  88 110 139 172 203
#     4   9  15  22  34  53  73  91 112 133 155 185
#     4   9  16  26  38  51  71  94 113 133 158 191
#
# _framework density 12.302363
#
# number of rings (size 3 to 8) (size 9 to 14) (size 15 to 20)
#    0.000    2.143    1.429    4.500    0.000    8.286 
#    0.000    0.000    0.000    0.000    0.000    0.000 
#    0.000    0.000    0.000    0.000    0.000    0.000 
#
# Total GULP energy -694286.970806 kJ/mol
# GULP energy per Si atom -12397.981622 kJ/mol
# Density = 1.227436 g / cm^3
# Si number density = 12.302363 Si / 1000 Ang^3
#
#
#
# Elastic Constant Matrix: (Units=GPa)
#
#
# Indices 1 2 3 4 5 6 
#
# 1 36.7626 39.1036 29.6128 0.0000 0.0000 0.0000
# 2 39.1036 67.0361 43.0542 0.0000 0.0000 0.0000
# 3 29.6128 43.0542 95.9371 0.0000 0.0000 0.0000
# 4 0.0000 0.0000 0.0000 20.6030 0.0000 0.0000
# 5 0.0000 0.0000 0.0000 0.0000 15.2728 0.0000
# 6 0.0000 0.0000 0.0000 0.0000 0.0000 15.1300
#
#
#
# Elastic Compliance Matrix: (Units=1/GPa)
#
#
# Indices 1 2 3 4 5 6 
#
# 1 0.073226 -0.039616 -0.004824 0.000000 0.000000 0.000000
# 2 -0.039616 0.042391 -0.006796 0.000000 0.000000 0.000000
# 3 -0.004824 -0.006796 0.014962 0.000000 0.000000 0.000000
# 4 0.000000 0.000000 0.000000 0.048537 0.000000 0.000000
# 5 0.000000 0.000000 0.000000 0.000000 0.065476 0.000000
# 6 0.000000 0.000000 0.000000 0.000000 0.000000 0.066094
#
#
# Mechanical properties :
#
#
# Convention : Reuss Voigt Hill
#
# Bulk Modulus (GPa) = 35.57745 47.03078 41.30411
# Shear Modulus (GPa) = 11.83358 16.06550 13.94954
#
# Velocity S-wave (km/s) = 3.10481 3.61763 3.37098
# Velocity P-wave (km/s) = 6.46801 7.46737 6.98558
#
# Compressibility (1/GPa) = 0.02810769
#
# Stress axis : x y z
#
# Youngs Moduli (GPa) = 13.65634 23.58999 66.83514
#
# Poissons Ratio (x) = 0.93455 0.32240
# Poissons Ratio (y) = 0.54101 0.45419
# Poissons Ratio (z) = 0.06588 0.16031
#
# Static dielectric constant tensor:
#      x y z
#    x 2.285380 0.000000 0.000000 
#    y 0.000000 2.557110 0.000000 
#    z 0.000000 0.000000 2.729340 
# 
# 
# High freq. dielectric constant tensor:
#      x y z
#    x 1.411190 0.000000 0.000000 
#    y 0.000000 1.451580 0.000000 
#    z 0.000000 0.000000 1.488360 
# 
# From -- ./inp_files/19241.got.cif
#   From: 2010.03.12/outbox.cif.g09.slc.cpg/sg65_10_cif.got.tgz:19241.got - 2010.04.10 20:52:16.
