data_PCOD8267279
_publ_section_title
;
Structure prediction by ZEFSAII (Michael W. Deem and Ramdas Pophale) SiO2 
 PCOD8267279
Probable space group: C M M M
;
_chemical_formula_sum "Si O2"
_cell_formula_units_Z 88
_cell_length_a 28.805055
_cell_length_b 18.430401
_cell_length_c 9.219312
_cell_angle_alpha 90.000000
_cell_angle_beta 90.000000
_cell_angle_gamma 90.000000
_cell_volume 4894.428696
_symmetry_space_group_name_H-M "C M M M"
_symmetry_group_IT_number 65
_symmetry_cell_setting 'orthorhombic'
loop_
_space_group_symop_operation_xyz
x,y,z
-x,-y,z
x,-y,-z
-x,y,-z
-x,-y,-z
x,y,-z
-x,y,z
x,-y,z
1/2+x,1/2+y,z
1/2-x,1/2-y,z
1/2+x,1/2-y,-z
1/2-x,1/2+y,-z
1/2-x,1/2-y,-z
1/2+x,1/2+y,-z
1/2-x,1/2+y,z
1/2+x,1/2-y,z
loop_
_atom_site_type_symbol
_atom_site_label
_atom_site_fract_x
_atom_site_fract_y
_atom_site_fract_z
Si Si1 0.389013 0.363282 0.328032
Si Si2 0.554204 0.917943 0.832758
Si Si3 0.447386 0.500000 0.326875
Si Si4 0.207781 0.920484 0.327807
Si Si5 0.613158 0.201598 0.327701
Si Si6 0.217122 0.312498 0.328337
O O1 0.389866 0.368265 0.500000
O O2 0.422359 0.426981 0.266110
O O3 0.336382 0.374767 0.270747
O O4 0.404660 0.282171 0.280053
O O5 0.500000 0.907583 0.803817
O O6 0.580566 0.859834 0.736191
O O7 0.569046 0.000000 0.789308
O O8 0.566187 0.903766 0.000000
O O9 0.500000 0.500000 0.268979
O O10 0.445948 0.500000 0.500000
O O11 0.204448 0.924451 0.500000
O O12 0.257250 0.886736 0.282705
O O13 0.205363 0.000000 0.258125
O O14 0.612212 0.193749 0.500000
O O15 0.665190 0.189635 0.264957
O O16 0.213591 0.302103 0.500000
O O17 0.250000 0.250000 0.262955
#
# Coordination Sequence:
#
# PCOD8267279 Si02
#       6
#    16  16   8  16  16  16
#     4   9  15  24  38  60  92 132 166 195 240 289
#     4   9  20  40  60  73  92 129 170 203 246 312
#     4   9  16  24  34  52  87 131 169 203 238 283
#     4   9  14  21  35  54  83 129 174 195 216 274
#     4  10  19  29  49  80 108 127 156 209 260 295
#     4   9  15  24  38  62  99 136 161 189 237 291
#
# _framework density 17.979626
#
# number of rings (size 3 to 8) (size 9 to 14) (size 15 to 20)
#    0.000    2.818    2.727    0.545    0.000    2.182 
#    0.000    4.545    0.000    0.545    0.000    0.636 
#    0.000    2.182    0.000    0.000    0.000    0.000 
#
# Total GULP energy -545206.894159 kJ/mol
# GULP energy per Si atom -12391.065776 kJ/mol
# Density = 1.793870 g / cm^3
# Si number density = 17.979626 Si / 1000 Ang^3
#
#
#
# Elastic Constant Matrix: (Units=GPa)
#
#
# Indices 1 2 3 4 5 6 
#
# 1 105.7686 75.1535 20.7062 0.0000 0.0000 0.0000
# 2 75.1535 169.8490 29.5627 0.0000 0.0000 0.0000
# 3 20.7062 29.5627 15.9873 0.0000 0.0000 0.0000
# 4 0.0000 0.0000 0.0000 8.6673 0.0000 0.0000
# 5 0.0000 0.0000 0.0000 0.0000 5.4480 0.0000
# 6 0.0000 0.0000 0.0000 0.0000 0.0000 35.8175
#
#
#
# Elastic Compliance Matrix: (Units=1/GPa)
#
#
# Indices 1 2 3 4 5 6 
#
# 1 0.014892 -0.004766 -0.010474 0.000000 0.000000 0.000000
# 2 -0.004766 0.010207 -0.012702 0.000000 0.000000 0.000000
# 3 -0.010474 -0.012702 0.099602 0.000000 0.000000 0.000000
# 4 0.000000 0.000000 0.000000 0.115377 0.000000 0.000000
# 5 0.000000 0.000000 0.000000 0.000000 0.183553 0.000000
# 6 0.000000 0.000000 0.000000 0.000000 0.000000 0.027919
#
#
# Mechanical properties :
#
#
# Convention : Reuss Voigt Hill
#
# Bulk Modulus (GPa) = 14.53118 60.27219 37.40169
# Shear Modulus (GPa) = 9.42735 21.06539 15.24637
#
# Velocity S-wave (km/s) = 2.29232 3.42662 2.91517
# Velocity P-wave (km/s) = 3.88663 7.01790 5.67260
#
# Compressibility (1/GPa) = 0.06881752
#
# Stress axis : x y z
#
# Youngs Moduli (GPa) = 67.15188 97.97004 10.03997
#
# Poissons Ratio (x) = 0.46694 0.10516
# Poissons Ratio (y) = 0.32005 0.12752
# Poissons Ratio (z) = 0.70334 1.24437
#
# Static dielectric constant tensor:
#      x y z
#    x 3.457260 0.000000 0.000000 
#    y 0.000000 3.629280 0.000000 
#    z 0.000000 0.000000 2.573140 
# 
# 
# High freq. dielectric constant tensor:
#      x y z
#    x 1.700250 0.000000 0.000000 
#    y 0.000000 1.715110 0.000000 
#    z 0.000000 0.000000 1.609970 
# 
# From -- ./inp_files/10091.got.cif
#   From: 2010.03.12/outbox.cif.g09.slc.cpg/sg65_6_cif.got.tgz:10091.got - 2010.04.10 20:52:16.
