data_PCOD8267618
_publ_section_title
;
Structure prediction by ZEFSAII (Michael W. Deem and Ramdas Pophale) SiO2 
 PCOD8267618
Probable space group: C M M M
;
_chemical_formula_sum "Si O2"
_cell_formula_units_Z 96
_cell_length_a 19.014984
_cell_length_b 9.075790
_cell_length_c 30.914293
_cell_angle_alpha 90.000000
_cell_angle_beta 90.000000
_cell_angle_gamma 90.000000
_cell_volume 5335.065079
_symmetry_space_group_name_H-M "C M M M"
_symmetry_group_IT_number 65
_symmetry_cell_setting 'orthorhombic'
loop_
_space_group_symop_operation_xyz
x,y,z
-x,-y,z
x,-y,-z
-x,y,-z
-x,-y,-z
x,y,-z
-x,y,z
x,-y,z
1/2+x,1/2+y,z
1/2-x,1/2-y,z
1/2+x,1/2-y,-z
1/2-x,1/2+y,-z
1/2-x,1/2-y,-z
1/2+x,1/2+y,-z
1/2-x,1/2+y,z
1/2+x,1/2-y,z
loop_
_atom_site_type_symbol
_atom_site_label
_atom_site_fract_x
_atom_site_fract_y
_atom_site_fract_z
Si Si1 0.078507 0.174913 0.451924
Si Si2 0.324543 0.672541 0.139179
Si Si3 0.174702 0.175145 0.374461
Si Si4 0.418709 0.830184 0.694250
Si Si5 0.323663 0.328602 0.954352
Si Si6 0.418330 0.166688 0.793803
O O1 0.100816 0.228935 0.500000
O O2 0.134211 0.234706 0.417124
O O3 0.000000 0.234290 0.440910
O O4 0.077116 0.000000 0.450447
O O5 0.311889 0.500000 0.144020
O O6 0.250000 0.750000 0.145257
O O7 0.359687 0.712686 0.091775
O O8 0.376994 0.721360 0.176293
O O9 0.250000 0.250000 0.373163
O O10 0.130092 0.221738 0.332888
O O11 0.183626 0.000000 0.374535
O O12 0.500000 0.791747 0.685159
O O13 0.399763 0.801187 0.744086
O O14 0.403600 0.000000 0.682053
O O15 0.307410 0.500000 0.953773
O O16 0.250000 0.250000 0.955722
O O17 0.365031 0.288889 0.000000
O O18 0.500000 0.192797 0.802076
O O19 0.397139 0.000000 0.805743
#
# Coordination Sequence:
#
# PCOD8267618 Si02
#       6
#    16  16  16  16  16  16
#     4   8  15  30  52  76 101 131 169 210 249 291
#     4  10  19  30  48  74 101 129 162 202 246 291
#     4  11  22  34  51  77 107 138 170 205 248 294
#     4   9  19  37  58  76  96 126 164 206 252 300
#     4   8  14  25  41  63  92 124 158 196 238 284
#     4   9  19  36  55  73  96 128 163 201 249 300
#
# _framework density 17.994157999999999
#
# number of rings (size 3 to 8) (size 9 to 14) (size 15 to 20)
#    0.000    2.833    0.000    3.000    0.000    3.667 
#    0.000    1.667    0.000    2.000    0.000    9.333 
#    0.000    0.000    0.000    0.000    0.000    0.000 
#
# Total GULP energy -594695.356959 kJ/mol
# GULP energy per Si atom -12389.486603 kJ/mol
# Density = 1.795320 g / cm^3
# Si number density = 17.994158 Si / 1000 Ang^3
#
#
#
# Elastic Constant Matrix: (Units=GPa)
#
#
# Indices 1 2 3 4 5 6 
#
# 1 83.6402 39.7669 72.3730 0.0000 0.0000 0.0000
# 2 39.7669 60.2909 51.0859 0.0000 0.0000 0.0000
# 3 72.3730 51.0859 140.6389 0.0000 0.0000 0.0000
# 4 0.0000 0.0000 0.0000 21.1096 0.0000 0.0000
# 5 0.0000 0.0000 0.0000 0.0000 -97.8231 0.0000
# 6 0.0000 0.0000 0.0000 0.0000 0.0000 19.1714
#
#
#
# Elastic Compliance Matrix: (Units=1/GPa)
#
#
# Indices 1 2 3 4 5 6 
#
# 1 0.023784 -0.007681 -0.009449 0.000000 0.000000 0.000000
# 2 -0.007681 0.026442 -0.005652 0.000000 0.000000 0.000000
# 3 -0.009449 -0.005652 0.014026 0.000000 0.000000 0.000000
# 4 0.000000 0.000000 0.000000 0.047372 0.000000 0.000000
# 5 0.000000 0.000000 0.000000 0.000000 -0.010223 0.000000
# 6 0.000000 0.000000 0.000000 0.000000 0.000000 0.052161
#
#
# Mechanical properties :
#
#
# Convention : Reuss Voigt Hill
#
# Bulk Modulus (GPa) = 53.51260 67.89129 60.70194
# Shear Modulus (GPa) = 24.34787 -3.41882 10.46453
#
# Velocity S-wave (km/s) = 3.68244 -1.37989 2.41415
# Velocity P-wave (km/s) = 6.91982 5.93909 6.44813
#
# Compressibility (1/GPa) = 0.01868719
#
# Stress axis : x y z
#
# Youngs Moduli (GPa) = 42.04421 37.81909 71.29551
#
# Poissons Ratio (x) = 0.29049 0.67370
# Poissons Ratio (y) = 0.32295 0.40296
# Poissons Ratio (z) = 0.39729 0.21375
#
# Static dielectric constant tensor:
#      x y z
#    x 3.074760 0.000000 0.000000 
#    y 0.000000 3.124300 0.000000 
#    z 0.000000 0.000000 3.889730 
# 
# 
# High freq. dielectric constant tensor:
#      x y z
#    x 1.666970 0.000000 0.000000 
#    y 0.000000 1.684730 0.000000 
#    z 0.000000 0.000000 1.720860 
# 
# From -- ./inp_files/75392.got.cif
#   From: 2010.03.12/outbox.cif.g09.slc.cpg/sg65_38_cif.got.tgz:75392.got - 2010.04.10 20:52:16.
