data_PCOD8267894
_publ_section_title
;
Structure prediction by ZEFSAII (Michael W. Deem and Ramdas Pophale) SiO2 
 PCOD8267894
Probable space group: C M M M
;
_chemical_formula_sum "Si O2"
_cell_formula_units_Z 88
_cell_length_a 18.523972
_cell_length_b 9.662443
_cell_length_c 28.420360
_cell_angle_alpha 90.000000
_cell_angle_beta 90.000000
_cell_angle_gamma 90.000000
_cell_volume 5086.869962
_symmetry_space_group_name_H-M "C M M M"
_symmetry_group_IT_number 65
_symmetry_cell_setting 'orthorhombic'
loop_
_space_group_symop_operation_xyz
x,y,z
-x,-y,z
x,-y,-z
-x,y,-z
-x,-y,-z
x,y,-z
-x,y,z
x,-y,z
1/2+x,1/2+y,z
1/2-x,1/2-y,z
1/2+x,1/2-y,-z
1/2-x,1/2+y,-z
1/2-x,1/2-y,-z
1/2+x,1/2+y,-z
1/2-x,1/2+y,z
1/2+x,1/2-y,z
loop_
_atom_site_type_symbol
_atom_site_label
_atom_site_fract_x
_atom_site_fract_y
_atom_site_fract_z
Si Si1 0.583628 0.841038 0.138547
Si Si2 0.318685 0.840343 0.052939
Si Si3 0.676833 0.664795 0.588125
Si Si4 0.419654 0.664262 0.674467
Si Si5 0.419121 0.663164 0.500000
Si Si6 0.914058 0.154096 0.777927
O O1 0.500000 0.807825 0.132408
O O2 0.618827 0.798618 0.089100
O O3 0.617569 0.753028 0.181453
O O4 0.597947 0.000000 0.151081
O O5 0.250000 0.750000 0.065876
O O6 0.296544 0.000000 0.058228
O O7 0.346334 0.808846 0.000000
O O8 0.692617 0.500000 0.587446
O O9 0.750000 0.750000 0.582943
O O10 0.637560 0.714501 0.635855
O O11 0.624450 0.710795 0.545925
O O12 0.500000 0.725149 0.663898
O O13 0.425720 0.500000 0.673616
O O14 0.391659 0.711177 0.726222
O O15 0.427083 0.500000 0.500000
O O16 0.500000 0.728678 0.500000
O O17 0.000000 0.150893 0.779916
O O18 0.882925 0.000000 0.786321
#
# Coordination Sequence:
#
# PCOD8267894 Si02
#       6
#    16  16  16  16   8  16
#     4   9  17  29  46  69  94 117 144 182 227 270
#     4   9  18  32  48  65  87 117 150 182 219 265
#     4  10  19  31  48  70  97 124 150 186 231 274
#     4   8  14  27  48  69  87 115 157 194 219 254
#     4   9  17  30  51  75  92 115 158 200 226 259
#     4   8  14  26  45  67  89 115 149 187 224 261
#
# _framework density 17.299441000000002
#
# number of rings (size 3 to 8) (size 9 to 14) (size 15 to 20)
#    0.000    3.182    0.000    1.909    0.000    3.273 
#    0.000    3.636    0.000    8.182    0.000    5.091 
#    0.000    0.000    0.000    0.000    0.000    0.000 
#
# Total GULP energy -545371.963555 kJ/mol
# GULP energy per Si atom -12394.817354 kJ/mol
# Density = 1.726007 g / cm^3
# Si number density = 17.299441 Si / 1000 Ang^3
#
#
#
# Elastic Constant Matrix: (Units=GPa)
#
#
# Indices 1 2 3 4 5 6 
#
# 1 93.2152 39.1777 74.2567 0.0000 0.0000 0.0000
# 2 39.1777 45.8141 55.2372 0.0000 0.0000 0.0000
# 3 74.2567 55.2372 165.8315 0.0000 0.0000 0.0000
# 4 0.0000 0.0000 0.0000 21.7719 0.0000 0.0000
# 5 0.0000 0.0000 0.0000 0.0000 5.5805 0.0000
# 6 0.0000 0.0000 0.0000 0.0000 0.0000 22.7810
#
#
#
# Elastic Compliance Matrix: (Units=1/GPa)
#
#
# Indices 1 2 3 4 5 6 
#
# 1 0.019100 -0.010063 -0.005201 0.000000 0.000000 0.000000
# 2 -0.010063 0.041778 -0.009410 0.000000 0.000000 0.000000
# 3 -0.005201 -0.009410 0.011493 0.000000 0.000000 0.000000
# 4 0.000000 0.000000 0.000000 0.045931 0.000000 0.000000
# 5 0.000000 0.000000 0.000000 0.000000 0.179195 0.000000
# 6 0.000000 0.000000 0.000000 0.000000 0.000000 0.043896
#
#
# Mechanical properties :
#
#
# Convention : Reuss Voigt Hill
#
# Bulk Modulus (GPa) = 43.43247 71.35599 57.39423
# Shear Modulus (GPa) = 12.54971 19.10598 15.82784
#
# Velocity S-wave (km/s) = 2.69632 3.32690 3.02807
# Velocity P-wave (km/s) = 5.90375 7.48965 6.74348
#
# Compressibility (1/GPa) = 0.02302425
#
# Stress axis : x y z
#
# Youngs Moduli (GPa) = 52.35482 23.93610 87.00585
#
# Poissons Ratio (x) = 0.24087 0.45252
# Poissons Ratio (y) = 0.52684 0.81871
# Poissons Ratio (z) = 0.27230 0.22524
#
# Static dielectric constant tensor:
#      x y z
#    x 3.095920 0.000000 0.000000 
#    y 0.000000 3.036650 0.000000 
#    z 0.000000 0.000000 3.695980 
# 
# 
# High freq. dielectric constant tensor:
#      x y z
#    x 1.644940 0.000000 0.000000 
#    y 0.000000 1.635250 0.000000 
#    z 0.000000 0.000000 1.687280 
# 
# From -- ./inp_files/63629.got.cif
#   From: 2010.03.12/outbox.cif.g09.slc.cpg/sg65_32_cif.got.tgz:63629.got - 2010.04.10 20:52:16.
