data_PCOD8267165
_publ_section_title
;
Structure prediction by ZEFSAII (Michael W. Deem and Ramdas Pophale) SiO2 
 PCOD8267165
Probable space group: C M M M
;
_chemical_formula_sum "Si O2"
_cell_formula_units_Z 80
_cell_length_a 18.487791
_cell_length_b 8.796819
_cell_length_c 26.034771
_cell_angle_alpha 90.000000
_cell_angle_beta 90.000000
_cell_angle_gamma 90.000000
_cell_volume 4234.132468
_symmetry_space_group_name_H-M "C M M M"
_symmetry_group_IT_number 65
_symmetry_cell_setting 'orthorhombic'
loop_
_space_group_symop_operation_xyz
x,y,z
-x,-y,z
x,-y,-z
-x,y,-z
-x,-y,-z
x,y,-z
-x,y,z
x,-y,z
1/2+x,1/2+y,z
1/2-x,1/2-y,z
1/2+x,1/2-y,-z
1/2-x,1/2+y,-z
1/2-x,1/2-y,-z
1/2+x,1/2+y,-z
1/2-x,1/2+y,z
1/2+x,1/2-y,z
loop_
_atom_site_type_symbol
_atom_site_label
_atom_site_fract_x
_atom_site_fract_y
_atom_site_fract_z
Si Si1 0.580772 0.319473 0.904868
Si Si2 0.328045 0.681212 0.000000
Si Si3 0.671603 0.680638 0.696001
Si Si4 0.418478 0.680543 0.401888
Si Si5 0.918808 0.819394 0.791374
Si Si6 0.170712 0.819296 0.500000
O O1 0.500000 0.257156 0.914609
O O2 0.579679 0.500000 0.907611
O O3 0.607625 0.266910 0.848185
O O4 0.632288 0.254425 0.949211
O O5 0.250000 0.750000 0.000000
O O6 0.325143 0.500000 0.000000
O O7 0.678252 0.500000 0.696481
O O8 0.750000 0.750000 0.688680
O O9 0.620912 0.737244 0.649636
O O10 0.636286 0.744238 0.748718
O O11 0.500000 0.747339 0.403624
O O12 0.422262 0.500000 0.403043
O O13 0.372997 0.740331 0.450452
O O14 0.000000 0.757636 0.780866
O O15 0.920804 0.000000 0.788195
O O16 0.250000 0.750000 0.500000
O O17 0.177664 0.000000 0.500000
#
# Coordination Sequence:
#
# PCOD8267165 Si02
#       6
#    16   8  16  16  16   8
#     4   8  14  26  45  66  85 109 147 189 219 248
#     4  10  19  29  43  65  91 116 142 176 220 264
#     4  10  19  30  46  68  93 119 146 180 222 265
#     4   9  17  30  49  70  89 115 155 193 218 249
#     4   8  14  26  45  67  87 110 146 188 221 251
#     4  10  19  31  49  71  95 120 146 182 226 268
#
# _framework density 18.894072000000001
#
# number of rings (size 3 to 8) (size 9 to 14) (size 15 to 20)
#    0.000    3.000    0.000    3.000    0.000    5.600 
#    0.000    0.000    0.000    6.000    0.000    2.800 
#    0.000    0.000    0.000    0.000    0.000    0.000 
#
# Total GULP energy -495810.307335 kJ/mol
# GULP energy per Si atom -12395.257683 kJ/mol
# Density = 1.885107 g / cm^3
# Si number density = 18.894072 Si / 1000 Ang^3
#
#
#
# Elastic Constant Matrix: (Units=GPa)
#
#
# Indices 1 2 3 4 5 6 
#
# 1 177.4778 16.1131 115.7095 0.0000 0.0000 0.0000
# 2 16.1131 8.5587 16.7948 0.0000 0.0000 0.0000
# 3 115.7095 16.7948 200.4790 0.0000 0.0000 0.0000
# 4 0.0000 0.0000 0.0000 7.2171 0.0000 0.0000
# 5 0.0000 0.0000 0.0000 0.0000 31.7084 0.0000
# 6 0.0000 0.0000 0.0000 0.0000 0.0000 26.2273
#
#
#
# Elastic Compliance Matrix: (Units=1/GPa)
#
#
# Indices 1 2 3 4 5 6 
#
# 1 0.009530 -0.008555 -0.004784 0.000000 0.000000 0.000000
# 2 -0.008555 0.147504 -0.007420 0.000000 0.000000 0.000000
# 3 -0.004784 -0.007420 0.008371 0.000000 0.000000 0.000000
# 4 0.000000 0.000000 0.000000 0.138561 0.000000 0.000000
# 5 0.000000 0.000000 0.000000 0.000000 0.031537 0.000000
# 6 0.000000 0.000000 0.000000 0.000000 0.000000 0.038128
#
#
# Mechanical properties :
#
#
# Convention : Reuss Voigt Hill
#
# Bulk Modulus (GPa) = 8.07172 75.97227 42.02200
# Shear Modulus (GPa) = 10.95426 28.89043 19.92234
#
# Velocity S-wave (km/s) = 2.41046 3.91458 3.25071
# Velocity P-wave (km/s) = 3.46820 7.79287 6.03147
#
# Compressibility (1/GPa) = 0.12388938
#
# Stress axis : x y z
#
# Youngs Moduli (GPa) = 104.93162 6.77946 119.46544
#
# Poissons Ratio (x) = 0.05800 0.57149
# Poissons Ratio (y) = 0.89765 0.88637
# Poissons Ratio (z) = 0.50197 0.05030
#
# Static dielectric constant tensor:
#      x y z
#    x 3.569840 0.000000 0.000000 
#    y 0.000000 2.764040 0.000000 
#    z 0.000000 0.000000 3.995390 
# 
# 
# High freq. dielectric constant tensor:
#      x y z
#    x 1.740180 0.000000 0.000000 
#    y 0.000000 1.659830 0.000000 
#    z 0.000000 0.000000 1.757480 
# 
# From -- ./inp_files/74191.got.cif
#   From: 2010.03.12/outbox.cif.g09.slc.cpg/sg65_38_cif.got.tgz:74191.got - 2010.04.10 20:52:16.
