data_PCOD8267882
_publ_section_title
;
Structure prediction by ZEFSAII (Michael W. Deem and Ramdas Pophale) SiO2 
 PCOD8267882
Probable space group: C M M M
;
_chemical_formula_sum "Si O2"
_cell_formula_units_Z 88
_cell_length_a 8.915272
_cell_length_b 18.431827
_cell_length_c 28.463629
_cell_angle_alpha 90.000000
_cell_angle_beta 90.000000
_cell_angle_gamma 90.000000
_cell_volume 4677.278753
_symmetry_space_group_name_H-M "C M M M"
_symmetry_group_IT_number 65
_symmetry_cell_setting 'orthorhombic'
loop_
_space_group_symop_operation_xyz
x,y,z
-x,-y,z
x,-y,-z
-x,y,-z
-x,-y,-z
x,y,-z
-x,y,z
x,-y,z
1/2+x,1/2+y,z
1/2-x,1/2-y,z
1/2+x,1/2-y,-z
1/2-x,1/2+y,-z
1/2-x,1/2-y,-z
1/2+x,1/2+y,-z
1/2-x,1/2+y,z
1/2+x,1/2-y,z
loop_
_atom_site_type_symbol
_atom_site_label
_atom_site_fract_x
_atom_site_fract_y
_atom_site_fract_z
Si Si1 0.321692 0.327947 0.188896
Si Si2 0.821819 0.081324 0.721890
Si Si3 0.327084 0.916852 0.445742
Si Si4 0.320463 0.581488 0.899271
Si Si5 0.335751 0.586099 0.000000
Si Si6 0.322996 0.672189 0.633010
O O1 0.500000 0.320818 0.189000
O O2 0.250000 0.250000 0.194357
O O3 0.264463 0.376971 0.231991
O O4 0.262083 0.364510 0.140867
O O5 0.763334 0.122553 0.675673
O O6 0.000000 0.077944 0.721894
O O7 0.754786 0.000000 0.722003
O O8 0.296806 0.898978 0.500000
O O9 0.500000 0.902303 0.433056
O O10 0.222290 0.864398 0.415880
O O11 0.284588 0.000000 0.434869
O O12 0.500000 0.581339 0.901521
O O13 0.264252 0.500000 0.887571
O O14 0.255128 0.607902 0.950543
O O15 0.353284 0.500000 0.000000
O O16 0.500000 0.622565 0.000000
O O17 0.500000 0.681562 0.634531
O O18 0.250000 0.750000 0.638333
#
# Coordination Sequence:
#
# PCOD8267882 Si02
#       6
#    16  16  16  16   8  16
#     4  10  19  31  48  69  96 127 157 193 239 291
#     4   9  18  33  53  75  96 122 162 208 247 287
#     4   9  19  37  59  81 106 136 170 209 251 294
#     4   8  13  23  42  66  89 118 158 200 239 278
#     4   7  10  18  35  62  91 113 146 201 246 272
#     4  11  22  35  53  77 106 137 168 205 249 297
#
# _framework density 18.814357000000001
#
# number of rings (size 3 to 8) (size 9 to 14) (size 15 to 20)
#    0.000    2.818    0.000    3.818    0.000    4.000 
#    0.000    2.273    0.000    4.364    0.000    0.000 
#    0.000    2.182    0.000    0.000    0.000    0.000 
#
# Total GULP energy -545382.255627 kJ/mol
# GULP energy per Si atom -12395.051264 kJ/mol
# Density = 1.877154 g / cm^3
# Si number density = 18.814357 Si / 1000 Ang^3
#
#
#
# Elastic Constant Matrix: (Units=GPa)
#
#
# Indices 1 2 3 4 5 6 
#
# 1 31.7148 32.3678 31.8579 0.0000 0.0000 0.0000
# 2 32.3678 153.5099 91.0645 0.0000 0.0000 0.0000
# 3 31.8579 91.0645 158.8545 0.0000 0.0000 0.0000
# 4 0.0000 0.0000 0.0000 19.5460 0.0000 0.0000
# 5 0.0000 0.0000 0.0000 0.0000 10.1523 0.0000
# 6 0.0000 0.0000 0.0000 0.0000 0.0000 16.1398
#
#
#
# Elastic Compliance Matrix: (Units=1/GPa)
#
#
# Indices 1 2 3 4 5 6 
#
# 1 0.042805 -0.005960 -0.005168 0.000000 0.000000 0.000000
# 2 -0.005960 0.010701 -0.004939 0.000000 0.000000 0.000000
# 3 -0.005168 -0.004939 0.010163 0.000000 0.000000 0.000000
# 4 0.000000 0.000000 0.000000 0.051161 0.000000 0.000000
# 5 0.000000 0.000000 0.000000 0.000000 0.098500 0.000000
# 6 0.000000 0.000000 0.000000 0.000000 0.000000 0.061959
#
#
# Mechanical properties :
#
#
# Convention : Reuss Voigt Hill
#
# Bulk Modulus (GPa) = 31.71091 72.73993 52.22542
# Shear Modulus (GPa) = 15.72654 21.75355 18.74004
#
# Velocity S-wave (km/s) = 2.89430 3.40401 3.15945
# Velocity P-wave (km/s) = 5.29721 7.36177 6.41311
#
# Compressibility (1/GPa) = 0.03153489
#
# Stress axis : x y z
#
# Youngs Moduli (GPa) = 23.36188 93.45083 98.39750
#
# Poissons Ratio (x) = 0.55694 0.50851
# Poissons Ratio (y) = 0.13923 0.48600
# Poissons Ratio (z) = 0.12073 0.46156
#
# Static dielectric constant tensor:
#      x y z
#    x 2.925300 0.000000 0.000000 
#    y 0.000000 3.415280 0.000000 
#    z 0.000000 0.000000 3.865750 
# 
# 
# High freq. dielectric constant tensor:
#      x y z
#    x 1.676370 0.000000 0.000000 
#    y 0.000000 1.726010 0.000000 
#    z 0.000000 0.000000 1.754440 
# 
# From -- ./inp_files/76435.got.cif
#   From: 2010.03.12/outbox.cif.g09.slc.cpg/sg65_39_cif.got.tgz:76435.got - 2010.04.10 20:52:16.
