data_PCOD8267053
_publ_section_title
;
Structure prediction by ZEFSAII (Michael W. Deem and Ramdas Pophale) SiO2 
 PCOD8267053
Probable space group: C M M M
;
_chemical_formula_sum "Si O2"
_cell_formula_units_Z 104
_cell_length_a 28.747314
_cell_length_b 18.183812
_cell_length_c 13.690306
_cell_angle_alpha 90.000000
_cell_angle_beta 90.000000
_cell_angle_gamma 90.000000
_cell_volume 7156.412420
_symmetry_space_group_name_H-M "C M M M"
_symmetry_group_IT_number 65
_symmetry_cell_setting 'orthorhombic'
loop_
_space_group_symop_operation_xyz
x,y,z
-x,-y,z
x,-y,-z
-x,y,-z
-x,-y,-z
x,y,-z
-x,y,z
x,-y,z
1/2+x,1/2+y,z
1/2-x,1/2-y,z
1/2+x,1/2-y,-z
1/2-x,1/2+y,-z
1/2-x,1/2-y,-z
1/2+x,1/2+y,-z
1/2-x,1/2+y,z
1/2+x,1/2-y,z
loop_
_atom_site_type_symbol
_atom_site_label
_atom_site_fract_x
_atom_site_fract_y
_atom_site_fract_z
Si Si1 0.205139 0.339526 0.115216
Si Si2 0.098869 0.859145 0.793848
Si Si3 0.553320 0.500000 0.113265
Si Si4 0.446450 0.414291 0.388250
Si Si5 0.692515 0.672564 0.115842
Si Si6 0.446355 0.783832 0.115269
Si Si7 0.615356 0.918645 0.883794
O O1 0.257559 0.363198 0.145213
O O2 0.193294 0.257281 0.148941
O O3 0.166159 0.394691 0.157809
O O4 0.202757 0.339449 0.000000
O O5 0.073661 0.925902 0.845059
O O6 0.088286 0.865662 0.678238
O O7 0.153409 0.866898 0.818923
O O8 0.079855 0.782083 0.832350
O O9 0.500000 0.500000 0.141847
O O10 0.563032 0.500000 0.000000
O O11 0.433313 0.397753 0.500000
O O12 0.500000 0.392245 0.367947
O O13 0.439260 0.500000 0.363801
O O14 0.682062 0.663560 0.000000
O O15 0.500000 0.784793 0.146243
O O16 0.423848 0.860891 0.150331
O O17 0.440068 0.772798 0.000000
O O18 0.603450 0.000000 0.842612
O O19 0.616971 0.920754 0.000000
#
# Coordination Sequence:
#
# PCOD8267053 Si02
#       7
#    16  16   8  16  16  16  16
#     4   8  14  27  42  58  81 117 156 182 212 248
#     4  12  19  29  45  63  86 116 149 181 218 261
#     4  11  22  30  37  57  93 129 152 170 200 254
#     4   9  18  33  49  62  80 111 151 190 225 261
#     4   9  16  26  43  62  87 119 148 180 213 255
#     4  10  19  28  40  60  87 117 146 177 215 260
#     4   9  16  27  41  56  80 116 155 187 213 245
#
# _framework density 14.532420999999999
#
# number of rings (size 3 to 8) (size 9 to 14) (size 15 to 20)
#    0.000    2.385    2.308    4.154    0.000    1.538 
#    1.385    1.538    0.000    0.000    0.000    2.154 
#    0.000    0.615    0.000    3.231    0.000    0.154 
#
# Total GULP energy -644494.138036 kJ/mol
# GULP energy per Si atom -12394.118039 kJ/mol
# Density = 1.449934 g / cm^3
# Si number density = 14.532421 Si / 1000 Ang^3
#
#
#
# Elastic Constant Matrix: (Units=GPa)
#
#
# Indices 1 2 3 4 5 6 
#
# 1 94.1807 22.0743 18.4175 0.0000 0.0000 0.0000
# 2 22.0743 67.9028 8.9284 0.0000 0.0000 0.0000
# 3 18.4175 8.9284 43.5035 0.0000 0.0000 0.0000
# 4 0.0000 0.0000 0.0000 3.8607 0.0000 0.0000
# 5 0.0000 0.0000 0.0000 0.0000 -26.1982 0.0000
# 6 0.0000 0.0000 0.0000 0.0000 0.0000 25.6648
#
#
#
# Elastic Compliance Matrix: (Units=1/GPa)
#
#
# Indices 1 2 3 4 5 6 
#
# 1 0.012297 -0.003405 -0.004507 0.000000 0.000000 0.000000
# 2 -0.003405 0.016078 -0.001858 0.000000 0.000000 0.000000
# 3 -0.004507 -0.001858 0.025276 0.000000 0.000000 0.000000
# 4 0.000000 0.000000 0.000000 0.259020 0.000000 0.000000
# 5 0.000000 0.000000 0.000000 0.000000 -0.038171 0.000000
# 6 0.000000 0.000000 0.000000 0.000000 0.000000 0.038964
#
#
# Mechanical properties :
#
#
# Convention : Reuss Voigt Hill
#
# Bulk Modulus (GPa) = 29.31643 33.82526 31.57085
# Shear Modulus (GPa) = 14.51899 11.07658 12.79778
#
# Velocity S-wave (km/s) = 3.16424 2.76379 2.97077
# Velocity P-wave (km/s) = 5.79369 5.78886 5.79128
#
# Compressibility (1/GPa) = 0.03411056
#
# Stress axis : x y z
#
# Youngs Moduli (GPa) = 81.31797 62.19601 39.56286
#
# Poissons Ratio (x) = 0.21178 0.17832
# Poissons Ratio (y) = 0.27689 0.07352
# Poissons Ratio (z) = 0.36653 0.11557
#
# Static dielectric constant tensor:
#      x y z
#    x 3.134680 0.000000 0.000000 
#    y 0.000000 2.879270 0.000000 
#    z 0.000000 0.000000 2.509810 
# 
# 
# High freq. dielectric constant tensor:
#      x y z
#    x 1.566420 0.000000 0.000000 
#    y 0.000000 1.551630 0.000000 
#    z 0.000000 0.000000 1.494390 
# 
# From -- ./inp_files/47172.got.cif
#   From: 2010.03.12/outbox.cif.g09.slc.cpg/sg65_24_cif.got.tgz:47172.got - 2010.04.10 20:52:16.
