data_PCOD8267549
_publ_section_title
;
Structure prediction by ZEFSAII (Michael W. Deem and Ramdas Pophale) SiO2 
 PCOD8267549
Probable space group: C M M M
;
_chemical_formula_sum "Si O2"
_cell_formula_units_Z 80
_cell_length_a 8.948808
_cell_length_b 16.682570
_cell_length_c 27.434833
_cell_angle_alpha 90.000000
_cell_angle_beta 90.000000
_cell_angle_gamma 90.000000
_cell_volume 4095.721963
_symmetry_space_group_name_H-M "C M M M"
_symmetry_group_IT_number 65
_symmetry_cell_setting 'orthorhombic'
loop_
_space_group_symop_operation_xyz
x,y,z
-x,-y,z
x,-y,-z
-x,y,-z
-x,-y,-z
x,y,-z
-x,y,z
x,-y,z
1/2+x,1/2+y,z
1/2-x,1/2-y,z
1/2+x,1/2-y,-z
1/2-x,1/2+y,-z
1/2-x,1/2-y,-z
1/2+x,1/2+y,-z
1/2-x,1/2+y,z
1/2+x,1/2-y,z
loop_
_atom_site_type_symbol
_atom_site_label
_atom_site_fract_x
_atom_site_fract_y
_atom_site_fract_z
Si Si1 0.323390 0.000000 0.944268
Si Si2 0.176960 0.587687 0.795719
Si Si3 0.822691 0.332888 0.697994
Si Si4 0.677841 0.088749 0.599723
Si Si5 0.177682 0.665061 0.500000
Si Si6 0.322871 0.165480 0.892948
O O1 0.265040 0.915457 0.920935
O O2 0.500000 0.000000 0.938028
O O3 0.270879 0.000000 0.000000
O O4 0.242676 0.500000 0.808820
O O5 0.231673 0.609264 0.741399
O O6 0.226568 0.652058 0.836529
O O7 0.000000 0.583251 0.796375
O O8 0.750000 0.250000 0.711095
O O9 0.760129 0.361547 0.645639
O O10 0.000000 0.325477 0.696524
O O11 0.500000 0.089063 0.599897
O O12 0.737946 0.121539 0.548378
O O13 0.741302 0.000000 0.605739
O O14 0.250000 0.750000 0.500000
O O15 0.000000 0.670733 0.500000
O O16 0.500000 0.174647 0.899784
O O17 0.250000 0.250000 0.911245
#
# Coordination Sequence:
#
# PCOD8267549 Si02
#       6
#     8  16  16  16   8  16
#     4   9  18  34  55  77 103 139 179 212 248 304
#     4   9  16  29  50  73  96 128 169 206 240 289
#     4  10  19  30  47  70  96 123 155 197 241 286
#     4   9  17  30  48  69  89 116 157 197 229 270
#     4  10  19  31  49  69  91 118 148 188 234 280
#     4  10  19  33  54  78 104 135 173 214 256 303
#
# _framework density 19.532575999999999
#
# number of rings (size 3 to 8) (size 9 to 14) (size 15 to 20)
#    0.000    2.500    1.000    2.100    0.000    4.000 
#    0.000    0.500    0.000    6.600    0.000    0.000 
#    0.000    0.000    0.000    0.000    0.000    0.000 
#
# Total GULP energy -495639.187937 kJ/mol
# GULP energy per Si atom -12390.979698 kJ/mol
# Density = 1.948812 g / cm^3
# Si number density = 19.532576 Si / 1000 Ang^3
#
#
#
# Elastic Constant Matrix: (Units=GPa)
#
#
# Indices 1 2 3 4 5 6 
#
# 1 10.7246 20.5396 15.7909 0.0000 0.0000 0.0000
# 2 20.5396 158.2902 57.0145 0.0000 0.0000 0.0000
# 3 15.7909 57.0145 140.0811 0.0000 0.0000 0.0000
# 4 0.0000 0.0000 0.0000 48.6957 0.0000 0.0000
# 5 0.0000 0.0000 0.0000 0.0000 9.7909 0.0000
# 6 0.0000 0.0000 0.0000 0.0000 0.0000 28.1747
#
#
#
# Elastic Compliance Matrix: (Units=1/GPa)
#
#
# Indices 1 2 3 4 5 6 
#
# 1 0.133866 -0.013985 -0.009398 0.000000 0.000000 0.000000
# 2 -0.013985 0.008864 -0.002031 0.000000 0.000000 0.000000
# 3 -0.009398 -0.002031 0.009025 0.000000 0.000000 0.000000
# 4 0.000000 0.000000 0.000000 0.020536 0.000000 0.000000
# 5 0.000000 0.000000 0.000000 0.000000 0.102136 0.000000
# 6 0.000000 0.000000 0.000000 0.000000 0.000000 0.035493
#
#
# Mechanical properties :
#
#
# Convention : Reuss Voigt Hill
#
# Bulk Modulus (GPa) = 9.90827 55.08730 32.49779
# Shear Modulus (GPa) = 12.67780 31.71564 22.19672
#
# Velocity S-wave (km/s) = 2.55043 4.03393 3.37470
# Velocity P-wave (km/s) = 3.70899 7.06829 5.64435
#
# Compressibility (1/GPa) = 0.10092582
#
# Stress axis : x y z
#
# Youngs Moduli (GPa) = 7.47014 112.81807 110.80523
#
# Poissons Ratio (x) = 1.57779 1.04136
# Poissons Ratio (y) = 0.10447 0.22506
# Poissons Ratio (z) = 0.07021 0.22915
#
# Static dielectric constant tensor:
#      x y z
#    x 2.916760 0.000000 0.000000 
#    y 0.000000 3.694120 0.000000 
#    z 0.000000 0.000000 3.041510 
# 
# 
# High freq. dielectric constant tensor:
#      x y z
#    x 1.690120 0.000000 0.000000 
#    y 0.000000 1.776170 0.000000 
#    z 0.000000 0.000000 1.777120 
# 
# From -- ./inp_files/72900.got.cif
#   From: 2010.03.12/outbox.cif.g09.slc.cpg/sg65_37_cif.got.tgz:72900.got - 2010.04.10 20:52:16.
