data_PCOD8267432
_publ_section_title
;
Structure prediction by ZEFSAII (Michael W. Deem and Ramdas Pophale) SiO2 
 PCOD8267432
Probable space group: C M M M
;
_chemical_formula_sum "Si O2"
_cell_formula_units_Z 72
_cell_length_a 9.974415
_cell_length_b 32.907890
_cell_length_c 13.746603
_cell_angle_alpha 90.000000
_cell_angle_beta 90.000000
_cell_angle_gamma 90.000000
_cell_volume 4512.143064
_symmetry_space_group_name_H-M "C M M M"
_symmetry_group_IT_number 65
_symmetry_cell_setting 'orthorhombic'
loop_
_space_group_symop_operation_xyz
x,y,z
-x,-y,z
x,-y,-z
-x,y,-z
-x,-y,-z
x,y,-z
-x,y,z
x,-y,z
1/2+x,1/2+y,z
1/2-x,1/2-y,z
1/2+x,1/2-y,-z
1/2-x,1/2+y,-z
1/2-x,1/2-y,-z
1/2+x,1/2+y,-z
1/2-x,1/2+y,z
1/2+x,1/2-y,z
loop_
_atom_site_type_symbol
_atom_site_label
_atom_site_fract_x
_atom_site_fract_y
_atom_site_fract_z
Si Si1 0.154552 0.076030 0.268528
Si Si2 0.500000 0.719038 0.614365
Si Si3 0.846695 0.547039 0.112280
Si Si4 0.841186 0.000000 0.392413
Si Si5 0.000000 0.309121 0.615034
Si Si6 0.720433 0.655863 0.385002
O O1 0.246839 0.075937 0.172674
O O2 0.167022 0.117557 0.326802
O O3 0.000000 0.069218 0.237870
O O4 0.208848 0.040011 0.337067
O O5 0.500000 0.724665 0.500000
O O6 0.500000 0.763928 0.662585
O O7 0.367669 0.694667 0.646068
O O8 0.808382 0.500000 0.129143
O O9 0.000000 0.554873 0.144750
O O10 0.828317 0.558710 0.000000
O O11 0.776765 0.000000 0.500000
O O12 0.000000 0.000000 0.400361
O O13 0.128890 0.334527 0.648425
O O14 0.000000 0.304140 0.500000
O O15 0.707396 0.646891 0.500000
#
# Coordination Sequence:
#
# PCOD8267432 Si02
#       6
#    16   8  16   8   8  16
#     4  11  20  31  48  72  98 129 168 201 238 278
#     4   9  16  30  48  65  92 131 168 203 244 289
#     4   9  19  36  55  72  93 123 158 201 255 299
#     4   9  18  30  44  63  94 136 171 195 220 271
#     4   9  18  30  46  67  92 129 172 205 244 287
#     4  10  19  30  45  69 101 134 166 204 240 280
#
# _framework density 15.956939999999999
#
# number of rings (size 3 to 8) (size 9 to 14) (size 15 to 20)
#    0.000    2.333    2.222    2.000    1.556    4.000 
#    0.000    1.111    0.000    0.667    0.000    0.000 
#    0.000    5.333    0.000    0.000    0.000    0.000 
#
# Total GULP energy -446373.688954 kJ/mol
# GULP energy per Si atom -12399.269138 kJ/mol
# Density = 1.592062 g / cm^3
# Si number density = 15.956940 Si / 1000 Ang^3
#
#
#
# Elastic Constant Matrix: (Units=GPa)
#
#
# Indices 1 2 3 4 5 6 
#
# 1 95.8854 18.3317 32.8685 0.0000 0.0000 0.0000
# 2 18.3317 67.0706 23.6760 0.0000 0.0000 0.0000
# 3 32.8685 23.6760 59.4425 0.0000 0.0000 0.0000
# 4 0.0000 0.0000 0.0000 4.6173 0.0000 0.0000
# 5 0.0000 0.0000 0.0000 0.0000 23.3004 0.0000
# 6 0.0000 0.0000 0.0000 0.0000 0.0000 24.5335
#
#
#
# Elastic Compliance Matrix: (Units=1/GPa)
#
#
# Indices 1 2 3 4 5 6 
#
# 1 0.012948 -0.001177 -0.006690 0.000000 0.000000 0.000000
# 2 -0.001177 0.017456 -0.006302 0.000000 0.000000 0.000000
# 3 -0.006690 -0.006302 0.023032 0.000000 0.000000 0.000000
# 4 0.000000 0.000000 0.000000 0.216575 0.000000 0.000000
# 5 0.000000 0.000000 0.000000 0.000000 0.042918 0.000000
# 6 0.000000 0.000000 0.000000 0.000000 0.000000 0.040761
#
#
# Mechanical properties :
#
#
# Convention : Reuss Voigt Hill
#
# Bulk Modulus (GPa) = 39.84513 41.35013 40.59763
# Shear Modulus (GPa) = 12.80758 20.32506 16.56632
#
# Velocity S-wave (km/s) = 2.83615 3.57283 3.22559
# Velocity P-wave (km/s) = 5.97910 6.55667 6.27454
#
# Compressibility (1/GPa) = 0.02509717
#
# Stress axis : x y z
#
# Youngs Moduli (GPa) = 77.23450 57.28707 43.41695
#
# Poissons Ratio (x) = 0.06743 0.29048
# Poissons Ratio (y) = 0.09091 0.27361
# Poissons Ratio (z) = 0.51674 0.36101
#
# Static dielectric constant tensor:
#      x y z
#    x 3.116040 0.000000 0.000000 
#    y 0.000000 3.020220 0.000000 
#    z 0.000000 0.000000 2.739350 
# 
# 
# High freq. dielectric constant tensor:
#      x y z
#    x 1.620320 0.000000 0.000000 
#    y 0.000000 1.609290 0.000000 
#    z 0.000000 0.000000 1.571080 
# 
# From -- ./inp_files/37082.got.cif
#   From: 2010.03.12/outbox.cif.g09.slc.cpg/sg65_19_cif.got.tgz:37082.got - 2010.04.10 20:52:16.
