data_PCOD8267514
_publ_section_title
;
Structure prediction by ZEFSAII (Michael W. Deem and Ramdas Pophale) SiO2 
 PCOD8267514
Probable space group: C M M M
;
_chemical_formula_sum "Si O2"
_cell_formula_units_Z 104
_cell_length_a 24.180416
_cell_length_b 26.552887
_cell_length_c 9.202348
_cell_angle_alpha 90.000000
_cell_angle_beta 90.000000
_cell_angle_gamma 90.000000
_cell_volume 5908.458210
_symmetry_space_group_name_H-M "C M M M"
_symmetry_group_IT_number 65
_symmetry_cell_setting 'orthorhombic'
loop_
_space_group_symop_operation_xyz
x,y,z
-x,-y,z
x,-y,-z
-x,y,-z
-x,-y,-z
x,y,-z
-x,y,z
x,-y,z
1/2+x,1/2+y,z
1/2-x,1/2-y,z
1/2+x,1/2-y,-z
1/2-x,1/2+y,-z
1/2-x,1/2-y,-z
1/2+x,1/2+y,-z
1/2-x,1/2+y,z
1/2+x,1/2-y,z
loop_
_atom_site_type_symbol
_atom_site_label
_atom_site_fract_x
_atom_site_fract_y
_atom_site_fract_z
Si Si1 0.061444 0.106949 0.674103
Si Si2 0.647787 0.786348 0.829914
Si Si3 0.934605 0.000000 0.342047
Si Si4 0.936455 0.628857 0.170613
Si Si5 0.853892 0.442628 0.330973
Si Si6 0.272534 0.856244 0.333718
Si Si7 0.152999 0.181454 0.331002
O O1 0.062954 0.103190 0.500000
O O2 0.102414 0.149220 0.732137
O O3 0.000000 0.121050 0.728362
O O4 0.080898 0.052321 0.739296
O O5 0.592140 0.817594 0.790238
O O6 0.700390 0.816990 0.775309
O O7 0.650143 0.732996 0.754090
O O8 0.653255 0.777781 0.000000
O O9 0.905234 0.000000 0.500000
O O10 0.000000 0.000000 0.365435
O O11 0.905207 0.583048 0.248906
O O12 0.000000 0.630974 0.223426
O O13 0.932415 0.618444 0.000000
O O14 0.868927 0.441866 0.500000
O O15 0.845976 0.500000 0.275497
O O16 0.796585 0.412204 0.301519
O O17 0.286250 0.840852 0.500000
O O18 0.207333 0.852502 0.303957
O O19 0.146259 0.194275 0.500000
#
# Coordination Sequence:
#
# PCOD8267514 Si02
#       7
#    16  16   8  16  16  16  16
#     4   8  14  25  41  64  94 123 151 186 228 272
#     4  10  20  33  50  69  91 123 159 195 234 278
#     4   7  10  20  38  58  85 119 147 175 214 257
#     4   9  19  35  52  71  96 126 161 198 237 285
#     4   9  18  33  51  71  98 129 159 195 239 285
#     4   9  18  33  49  67  94 126 157 192 235 280
#     4  10  19  30  46  71  97 123 156 194 236 280
#
# _framework density 17.601883999999998
#
# number of rings (size 3 to 8) (size 9 to 14) (size 15 to 20)
#    0.000    3.000    0.000    1.846    0.000    4.615 
#    1.385    1.538    0.000    0.000    0.000    0.538 
#    0.000    1.846    0.000    0.000    0.000    0.000 
#
# Total GULP energy -644408.290576 kJ/mol
# GULP energy per Si atom -12392.467126 kJ/mol
# Density = 1.756182 g / cm^3
# Si number density = 17.601884 Si / 1000 Ang^3
#
#
#
# Elastic Constant Matrix: (Units=GPa)
#
#
# Indices 1 2 3 4 5 6 
#
# 1 123.0097 74.4632 36.5767 0.0000 0.0000 0.0000
# 2 74.4632 128.3370 40.4328 0.0000 0.0000 0.0000
# 3 36.5767 40.4328 39.8752 0.0000 0.0000 0.0000
# 4 0.0000 0.0000 0.0000 8.5624 0.0000 0.0000
# 5 0.0000 0.0000 0.0000 0.0000 16.7336 0.0000
# 6 0.0000 0.0000 0.0000 0.0000 0.0000 13.6533
#
#
#
# Elastic Compliance Matrix: (Units=1/GPa)
#
#
# Indices 1 2 3 4 5 6 
#
# 1 0.013612 -0.005825 -0.006580 0.000000 0.000000 0.000000
# 2 -0.005825 0.013942 -0.008794 0.000000 0.000000 0.000000
# 3 -0.006580 -0.008794 0.040031 0.000000 0.000000 0.000000
# 4 0.000000 0.000000 0.000000 0.116789 0.000000 0.000000
# 5 0.000000 0.000000 0.000000 0.000000 0.059760 0.000000
# 6 0.000000 0.000000 0.000000 0.000000 0.000000 0.073242
#
#
# Mechanical properties :
#
#
# Convention : Reuss Voigt Hill
#
# Bulk Modulus (GPa) = 39.70212 66.01859 52.86035
# Shear Modulus (GPa) = 13.58069 17.10649 15.34359
#
# Velocity S-wave (km/s) = 2.78069 3.12084 2.95566
# Velocity P-wave (km/s) = 5.73709 7.11155 6.46097
#
# Compressibility (1/GPa) = 0.02518757
#
# Stress axis : x y z
#
# Youngs Moduli (GPa) = 73.46470 71.72386 24.98089
#
# Poissons Ratio (x) = 0.41779 0.16436
# Poissons Ratio (y) = 0.42793 0.21969
# Poissons Ratio (z) = 0.48336 0.63075
#
# Static dielectric constant tensor:
#      x y z
#    x 3.351600 0.000000 0.000000 
#    y 0.000000 3.588670 0.000000 
#    z 0.000000 0.000000 3.033330 
# 
# 
# High freq. dielectric constant tensor:
#      x y z
#    x 1.674640 0.000000 0.000000 
#    y 0.000000 1.689750 0.000000 
#    z 0.000000 0.000000 1.649500 
# 
# From -- ./inp_files/14778.got.cif
#   From: 2010.03.12/outbox.cif.g09.slc.cpg/sg65_8_cif.got.tgz:14778.got - 2010.04.10 20:52:16.
