data_PCOD8267169
_publ_section_title
;
Structure prediction by ZEFSAII (Michael W. Deem and Ramdas Pophale) SiO2 
 PCOD8267169
Probable space group: C M M M
;
_chemical_formula_sum "Si O2"
_cell_formula_units_Z 120
_cell_length_a 14.626523
_cell_length_b 33.112879
_cell_length_c 14.356121
_cell_angle_alpha 90.000000
_cell_angle_beta 90.000000
_cell_angle_gamma 90.000000
_cell_volume 6953.046769
_symmetry_space_group_name_H-M "C M M M"
_symmetry_group_IT_number 65
_symmetry_cell_setting 'orthorhombic'
loop_
_space_group_symop_operation_xyz
x,y,z
-x,-y,z
x,-y,-z
-x,y,-z
-x,-y,-z
x,y,-z
-x,y,z
x,-y,z
1/2+x,1/2+y,z
1/2-x,1/2-y,z
1/2+x,1/2-y,-z
1/2-x,1/2+y,-z
1/2-x,1/2-y,-z
1/2+x,1/2+y,-z
1/2-x,1/2+y,z
1/2+x,1/2-y,z
loop_
_atom_site_type_symbol
_atom_site_label
_atom_site_fract_x
_atom_site_fract_y
_atom_site_fract_z
Si Si1 0.103524 0.653816 0.107502
Si Si2 0.391286 0.424639 0.267541
Si Si3 0.392437 0.648403 0.603663
Si Si4 0.107938 0.000000 0.606488
Si Si5 0.648388 0.262667 0.400341
Si Si6 0.399722 0.312948 0.103439
Si Si7 0.215649 0.111663 0.890619
Si Si8 0.645208 0.763603 0.210306
O O1 0.175244 0.617330 0.128445
O O2 0.128131 0.693007 0.167055
O O3 0.000000 0.639058 0.130203
O O4 0.112589 0.666645 0.000000
O O5 0.500000 0.426654 0.244725
O O6 0.361272 0.384993 0.323437
O O7 0.360362 0.461474 0.333437
O O8 0.330644 0.423849 0.172025
O O9 0.359703 0.635744 0.500000
O O10 0.500000 0.653282 0.605945
O O11 0.349654 0.690910 0.634036
O O12 0.148944 0.000000 0.500000
O O13 0.000000 0.000000 0.595998
O O14 0.594383 0.258485 0.500000
O O15 0.750000 0.250000 0.420357
O O16 0.606951 0.235520 0.317006
O O17 0.500000 0.333382 0.105346
O O18 0.330075 0.346178 0.142559
O O19 0.408597 0.271139 0.157381
O O20 0.367870 0.301456 0.000000
O O21 0.196525 0.102201 0.000000
O O22 0.750000 0.750000 0.209331
#
# Coordination Sequence:
#
# PCOD8267169 Si02
#       8
#    16  16  16   8  16  16  16  16
#     4  10  21  35  49  66  91 126 169 218 268 309
#     4  10  19  31  52  79 107 137 165 195 239 294
#     4   9  17  29  46  67  90 122 166 208 242 283
#     4   9  18  34  55  83 118 145 165 195 237 290
#     4   9  19  31  41  58  86 121 162 206 249 290
#     4  10  19  29  43  65  93 124 160 206 255 299
#     4  10  20  33  48  68  97 131 168 205 243 294
#     4  11  19  28  45  63  86 123 167 215 264 307
#
# _framework density 17.258621000000002
#
# number of rings (size 3 to 8) (size 9 to 14) (size 15 to 20)
#    0.000    2.200    1.333    2.400    1.867    6.133 
#    0.000    0.333    0.000    1.200    0.000    0.467 
#    0.000    2.667    0.000    0.000    0.000    0.000 
#
# Total GULP energy -743383.136526 kJ/mol
# GULP energy per Si atom -12389.718942 kJ/mol
# Density = 1.721934 g / cm^3
# Si number density = 17.258621 Si / 1000 Ang^3
#
#
#
# Elastic Constant Matrix: (Units=GPa)
#
#
# Indices 1 2 3 4 5 6 
#
# 1 65.4400 15.3004 31.4728 0.0000 0.0000 0.0000
# 2 15.3004 50.7009 48.2450 0.0000 0.0000 0.0000
# 3 31.4728 48.2450 118.2384 0.0000 0.0000 0.0000
# 4 0.0000 0.0000 0.0000 27.6039 0.0000 0.0000
# 5 0.0000 0.0000 0.0000 0.0000 12.4738 0.0000
# 6 0.0000 0.0000 0.0000 0.0000 0.0000 16.7173
#
#
#
# Elastic Compliance Matrix: (Units=1/GPa)
#
#
# Indices 1 2 3 4 5 6 
#
# 1 0.017585 -0.001394 -0.004112 0.000000 0.000000 0.000000
# 2 -0.001394 0.032353 -0.012830 0.000000 0.000000 0.000000
# 3 -0.004112 -0.012830 0.014787 0.000000 0.000000 0.000000
# 4 0.000000 0.000000 0.000000 0.036227 0.000000 0.000000
# 5 0.000000 0.000000 0.000000 0.000000 0.080168 0.000000
# 6 0.000000 0.000000 0.000000 0.000000 0.000000 0.059818
#
#
# Mechanical properties :
#
#
# Convention : Reuss Voigt Hill
#
# Bulk Modulus (GPa) = 35.64697 47.15729 41.40213
# Shear Modulus (GPa) = 17.42405 20.64974 19.03690
#
# Velocity S-wave (km/s) = 3.18084 3.46278 3.32480
# Velocity P-wave (km/s) = 5.84720 6.58567 6.22739
#
# Compressibility (1/GPa) = 0.02805288
#
# Stress axis : x y z
#
# Youngs Moduli (GPa) = 56.86764 30.90951 67.62702
#
# Poissons Ratio (x) = 0.04308 0.27808
# Poissons Ratio (y) = 0.07927 0.86764
# Poissons Ratio (z) = 0.23384 0.39656
#
# Static dielectric constant tensor:
#      x y z
#    x 3.041950 0.000000 0.000000 
#    y 0.000000 2.948850 0.000000 
#    z 0.000000 0.000000 3.730880 
# 
# 
# High freq. dielectric constant tensor:
#      x y z
#    x 1.645120 0.000000 0.000000 
#    y 0.000000 1.620270 0.000000 
#    z 0.000000 0.000000 1.686730 
# 
# From -- ./inp_files/41464.got.cif
#   From: 2010.03.12/outbox.cif.g09.slc.cpg/sg65_21_cif.got.tgz:41464.got - 2010.04.10 20:52:16.
