data_PCOD8267993
_publ_section_title
;
Structure prediction by ZEFSAII (Michael W. Deem and Ramdas Pophale) SiO2 
 PCOD8267993
Probable space group: C M M M
;
_chemical_formula_sum "Si O2"
_cell_formula_units_Z 104
_cell_length_a 18.194339
_cell_length_b 15.701760
_cell_length_c 20.797694
_cell_angle_alpha 90.000000
_cell_angle_beta 90.000000
_cell_angle_gamma 90.000000
_cell_volume 5941.550617
_symmetry_space_group_name_H-M "C M M M"
_symmetry_group_IT_number 65
_symmetry_cell_setting 'orthorhombic'
loop_
_space_group_symop_operation_xyz
x,y,z
-x,-y,z
x,-y,-z
-x,y,-z
-x,-y,-z
x,y,-z
-x,y,z
x,-y,z
1/2+x,1/2+y,z
1/2-x,1/2-y,z
1/2+x,1/2-y,-z
1/2-x,1/2+y,-z
1/2-x,1/2-y,-z
1/2+x,1/2+y,-z
1/2-x,1/2+y,z
1/2+x,1/2-y,z
loop_
_atom_site_type_symbol
_atom_site_label
_atom_site_fract_x
_atom_site_fract_y
_atom_site_fract_z
Si Si1 0.417023 0.099841 0.500000
Si Si2 0.690543 0.402242 0.692165
Si Si3 0.192314 0.093521 0.161671
Si Si4 0.417064 0.263320 0.854313
Si Si5 0.583103 0.748604 0.703640
Si Si6 0.197868 0.331766 0.927625
Si Si7 0.345494 0.098771 0.367110
O O1 0.500000 0.140618 0.500000
O O2 0.368961 0.127530 0.438566
O O3 0.427391 0.000000 0.500000
O O4 0.660865 0.500000 0.685316
O O5 0.716392 0.383461 0.765369
O O6 0.628258 0.332442 0.675522
O O7 0.758389 0.388068 0.643596
O O8 0.127168 0.150266 0.133302
O O9 0.264359 0.097396 0.116986
O O10 0.158834 0.000000 0.159721
O O11 0.500000 0.276018 0.877899
O O12 0.412058 0.241869 0.779709
O O13 0.381443 0.188830 0.897223
O O14 0.500000 0.733354 0.680562
O O15 0.610916 0.839742 0.680080
O O16 0.250000 0.250000 0.925656
O O17 0.187538 0.366053 0.000000
O O18 0.366894 0.000000 0.353214
#
# Coordination Sequence:
#
# PCOD8267993 Si02
#       7
#     8  16  16  16  16  16  16
#     4   9  18  32  49  72 102 130 159 201 250 294
#     4   9  18  32  50  72  98 128 162 200 241 287
#     4   9  17  30  49  71  93 119 154 197 240 280
#     4   9  18  31  47  69  95 123 156 193 235 283
#     4  10  19  31  49  72 100 131 161 198 241 288
#     4   9  17  29  45  64  88 120 154 187 227 278
#     4  10  19  32  52  75  98 126 160 200 245 288
#
# _framework density 17.503848000000001
#
# number of rings (size 3 to 8) (size 9 to 14) (size 15 to 20)
#    0.000    2.692    0.000    1.846    0.000    4.615 
#    0.000    4.615    0.000    1.385    0.000    5.385 
#    0.000    4.923    0.000    0.000    0.000    0.000 
#
# Total GULP energy -644525.922665 kJ/mol
# GULP energy per Si atom -12394.729282 kJ/mol
# Density = 1.746401 g / cm^3
# Si number density = 17.503848 Si / 1000 Ang^3
#
#
#
# Elastic Constant Matrix: (Units=GPa)
#
#
# Indices 1 2 3 4 5 6 
#
# 1 133.2172 52.7232 46.9026 0.0000 0.0000 0.0000
# 2 52.7232 79.4991 31.6433 0.0000 0.0000 0.0000
# 3 46.9026 31.6433 40.4644 0.0000 0.0000 0.0000
# 4 0.0000 0.0000 0.0000 15.9588 0.0000 0.0000
# 5 0.0000 0.0000 0.0000 0.0000 19.3491 0.0000
# 6 0.0000 0.0000 0.0000 0.0000 0.0000 22.0275
#
#
#
# Elastic Compliance Matrix: (Units=1/GPa)
#
#
# Indices 1 2 3 4 5 6 
#
# 1 0.013486 -0.003952 -0.012541 0.000000 0.000000 0.000000
# 2 -0.003952 0.019422 -0.010607 0.000000 0.000000 0.000000
# 3 -0.012541 -0.010607 0.047545 0.000000 0.000000 0.000000
# 4 0.000000 0.000000 0.000000 0.062661 0.000000 0.000000
# 5 0.000000 0.000000 0.000000 0.000000 0.051682 0.000000
# 6 0.000000 0.000000 0.000000 0.000000 0.000000 0.045398
#
#
# Mechanical properties :
#
#
# Convention : Reuss Voigt Hill
#
# Bulk Modulus (GPa) = 38.09293 57.30211 47.69752
# Shear Modulus (GPa) = 16.49377 19.59453 18.04415
#
# Velocity S-wave (km/s) = 3.07301 3.34943 3.21420
# Velocity P-wave (km/s) = 5.86524 6.91131 6.40965
#
# Compressibility (1/GPa) = 0.02625159
#
# Stress axis : x y z
#
# Youngs Moduli (GPa) = 74.15021 51.48888 21.03287
#
# Poissons Ratio (x) = 0.20348 0.26378
# Poissons Ratio (y) = 0.29304 0.22310
# Poissons Ratio (z) = 0.92995 0.54614
#
# Static dielectric constant tensor:
#      x y z
#    x 3.335250 0.000000 0.000000 
#    y 0.000000 3.179070 0.000000 
#    z 0.000000 0.000000 3.353960 
# 
# 
# High freq. dielectric constant tensor:
#      x y z
#    x 1.670680 0.000000 0.000000 
#    y 0.000000 1.665340 0.000000 
#    z 0.000000 0.000000 1.665890 
# 
# From -- ./inp_files/62816.got.cif
#   From: 2010.03.12/outbox.cif.g09.slc.cpg/sg65_32_cif.got.tgz:62816.got - 2010.04.10 20:52:16.
