data_PCOD8267395
_publ_section_title
;
Structure prediction by ZEFSAII (Michael W. Deem and Ramdas Pophale) SiO2 
 PCOD8267395
Probable space group: C M M M
;
_chemical_formula_sum "Si O2"
_cell_formula_units_Z 96
_cell_length_a 9.607867
_cell_length_b 19.024124
_cell_length_c 30.860666
_cell_angle_alpha 90.000000
_cell_angle_beta 90.000000
_cell_angle_gamma 90.000000
_cell_volume 5640.751206
_symmetry_space_group_name_H-M "C M M M"
_symmetry_group_IT_number 65
_symmetry_cell_setting 'orthorhombic'
loop_
_space_group_symop_operation_xyz
x,y,z
-x,-y,z
x,-y,-z
-x,y,-z
-x,-y,-z
x,y,-z
-x,y,z
x,-y,z
1/2+x,1/2+y,z
1/2-x,1/2-y,z
1/2+x,1/2-y,-z
1/2-x,1/2+y,-z
1/2-x,1/2-y,-z
1/2+x,1/2+y,-z
1/2-x,1/2+y,z
1/2+x,1/2-y,z
loop_
_atom_site_type_symbol
_atom_site_label
_atom_site_fract_x
_atom_site_fract_y
_atom_site_fract_z
Si Si1 0.166242 0.821853 0.124738
Si Si2 0.834970 0.921728 0.951741
Si Si3 0.165170 0.921774 0.201990
Si Si4 0.339068 0.183074 0.450925
Si Si5 0.339125 0.919128 0.624775
Si Si6 0.345132 0.583634 0.297181
O O1 0.250000 0.750000 0.125608
O O2 0.218235 0.864506 0.082502
O O3 0.215936 0.866724 0.166190
O O4 0.000000 0.808403 0.124599
O O5 0.000000 0.924318 0.950027
O O6 0.778340 0.000000 0.940164
O O7 0.784279 0.900009 0.000000
O O8 0.212553 0.894333 0.249628
O O9 0.000000 0.927485 0.201474
O O10 0.226284 0.000000 0.192251
O O11 0.304787 0.159219 0.500000
O O12 0.500000 0.203605 0.445990
O O13 0.250000 0.250000 0.437149
O O14 0.297249 0.119693 0.419406
O O15 0.500000 0.909061 0.636150
O O16 0.254618 0.886550 0.665253
O O17 0.300379 0.000000 0.617167
O O18 0.500000 0.614180 0.304947
O O19 0.349079 0.500000 0.298713
#
# Coordination Sequence:
#
# PCOD8267395 Si02
#       6
#    16  16  16  16  16  16
#     4  10  19  30  45  66  93 121 147 180 223 267
#     4   8  14  26  46  70  90 111 148 193 225 253
#     4   8  14  27  48  68  83 109 153 192 216 248
#     4   9  18  32  48  65  87 117 150 181 214 255
#     4   9  17  29  46  69  94 116 141 177 221 266
#     4   8  14  26  45  67  88 111 143 183 222 258
#
# _framework density 17.019010000000002
#
# number of rings (size 3 to 8) (size 9 to 14) (size 15 to 20)
#    0.000    3.333    0.000    2.000    0.000    3.333 
#    0.000    3.333    0.000    7.000    0.000    5.833 
#    0.000    0.000    0.000    0.000    0.000    0.000 
#
# Total GULP energy -594902.205496 kJ/mol
# GULP energy per Si atom -12393.795948 kJ/mol
# Density = 1.698027 g / cm^3
# Si number density = 17.019010 Si / 1000 Ang^3
#
#
#
# Elastic Constant Matrix: (Units=GPa)
#
#
# Indices 1 2 3 4 5 6 
#
# 1 38.1423 38.3600 49.5074 0.0000 0.0000 0.0000
# 2 38.3600 100.7626 84.3901 0.0000 0.0000 0.0000
# 3 49.5074 84.3901 160.4501 0.0000 0.0000 0.0000
# 4 0.0000 0.0000 0.0000 11.7932 0.0000 0.0000
# 5 0.0000 0.0000 0.0000 0.0000 18.7905 0.0000
# 6 0.0000 0.0000 0.0000 0.0000 0.0000 24.3300
#
#
#
# Elastic Compliance Matrix: (Units=1/GPa)
#
#
# Indices 1 2 3 4 5 6 
#
# 1 0.049569 -0.010833 -0.009597 0.000000 0.000000 0.000000
# 2 -0.010833 0.020105 -0.007232 0.000000 0.000000 0.000000
# 3 -0.009597 -0.007232 0.012997 0.000000 0.000000 0.000000
# 4 0.000000 0.000000 0.000000 0.084794 0.000000 0.000000
# 5 0.000000 0.000000 0.000000 0.000000 0.053218 0.000000
# 6 0.000000 0.000000 0.000000 0.000000 0.000000 0.041102
#
#
# Mechanical properties :
#
#
# Convention : Reuss Voigt Hill
#
# Bulk Modulus (GPa) = 36.56621 71.54110 54.05366
# Shear Modulus (GPa) = 15.32678 19.45590 17.39134
#
# Velocity S-wave (km/s) = 3.00420 3.38477 3.20015
# Velocity P-wave (km/s) = 5.79360 7.57647 6.74421
#
# Compressibility (1/GPa) = 0.02734765
#
# Stress axis : x y z
#
# Youngs Moduli (GPa) = 20.17380 49.73790 76.93895
#
# Poissons Ratio (x) = 0.53883 0.73837
# Poissons Ratio (y) = 0.21855 0.55642
# Poissons Ratio (z) = 0.19361 0.35970
#
# Static dielectric constant tensor:
#      x y z
#    x 2.908840 0.000000 0.000000 
#    y 0.000000 3.078300 0.000000 
#    z 0.000000 0.000000 3.673950 
# 
# 
# High freq. dielectric constant tensor:
#      x y z
#    x 1.616770 0.000000 0.000000 
#    y 0.000000 1.634870 0.000000 
#    z 0.000000 0.000000 1.674090 
# 
# From -- ./inp_files/74370.got.cif
#   From: 2010.03.12/outbox.cif.g09.slc.cpg/sg65_38_cif.got.tgz:74370.got - 2010.04.10 20:52:16.
