data_PCOD8267565
_publ_section_title
;
Structure prediction by ZEFSAII (Michael W. Deem and Ramdas Pophale) SiO2 
 PCOD8267565
Probable space group: C M M M
;
_chemical_formula_sum "Si O2"
_cell_formula_units_Z 104
_cell_length_a 27.683253
_cell_length_b 8.115075
_cell_length_c 27.538799
_cell_angle_alpha 90.000000
_cell_angle_beta 90.000000
_cell_angle_gamma 90.000000
_cell_volume 6186.637305
_symmetry_space_group_name_H-M "C M M M"
_symmetry_group_IT_number 65
_symmetry_cell_setting 'orthorhombic'
loop_
_space_group_symop_operation_xyz
x,y,z
-x,-y,z
x,-y,-z
-x,y,-z
-x,-y,-z
x,y,-z
-x,y,z
x,-y,z
1/2+x,1/2+y,z
1/2-x,1/2-y,z
1/2+x,1/2-y,-z
1/2-x,1/2+y,-z
1/2-x,1/2-y,-z
1/2+x,1/2+y,-z
1/2-x,1/2+y,z
1/2+x,1/2-y,z
loop_
_atom_site_type_symbol
_atom_site_label
_atom_site_fract_x
_atom_site_fract_y
_atom_site_fract_z
Si Si1 0.802366 0.193990 0.054825
Si Si2 0.860243 0.307923 0.142987
Si Si3 0.945677 0.810800 0.198771
Si Si4 0.394805 0.811184 0.291136
Si Si5 0.556263 0.314175 0.616204
Si Si6 0.557256 0.000000 0.445729
Si Si7 0.803297 0.693339 0.234479
O O1 0.750000 0.250000 0.073733
O O2 0.843215 0.271835 0.088600
O O3 0.806077 0.000000 0.057541
O O4 0.810811 0.258818 0.000000
O O5 0.867749 0.500000 0.150764
O O6 0.911757 0.221337 0.152086
O O7 0.821212 0.237022 0.182177
O O8 0.928824 0.701072 0.244083
O O9 0.000000 0.761064 0.184177
O O10 0.942495 0.000000 0.214755
O O11 0.413960 0.696372 0.334046
O O12 0.340756 0.750810 0.276521
O O13 0.395211 0.000000 0.309000
O O14 0.500000 0.285800 0.628138
O O15 0.564230 0.500000 0.594552
O O16 0.574827 0.169716 0.580094
O O17 0.500000 0.000000 0.447943
O O18 0.579142 0.000000 0.500000
O O19 0.803630 0.500000 0.230955
O O20 0.750000 0.750000 0.248217
#
# Coordination Sequence:
#
# PCOD8267565 Si02
#       7
#    16  16  16  16  16   8  16
#     4  10  20  33  50  72  96 121 151 191 236 283
#     4  10  20  33  49  69  93 124 159 191 235 285
#     4  10  20  32  47  69  95 124 161 200 237 281
#     4  10  19  31  46  67  97 131 164 201 240 285
#     4  10  19  30  47  71  97 131 170 204 243 290
#     4   9  18  32  48  68  98 134 166 204 251 289
#     4   9  19  31  44  65  93 126 158 191 232 283
#
# _framework density 16.810424999999999
#
# number of rings (size 3 to 8) (size 9 to 14) (size 15 to 20)
#    0.000    2.231    0.769    3.692    0.000    9.231 
#    0.000    1.538    0.000    0.462    0.000    3.231 
#    0.000    0.615    0.308    0.000    0.000    0.000 
#
# Total GULP energy -644700.889449 kJ/mol
# GULP energy per Si atom -12398.094028 kJ/mol
# Density = 1.677216 g / cm^3
# Si number density = 16.810425 Si / 1000 Ang^3
#
#
#
# Elastic Constant Matrix: (Units=GPa)
#
#
# Indices 1 2 3 4 5 6 
#
# 1 113.7964 29.9949 47.9591 0.0000 0.0000 0.0000
# 2 29.9949 71.6700 31.2076 0.0000 0.0000 0.0000
# 3 47.9591 31.2076 90.0901 0.0000 0.0000 0.0000
# 4 0.0000 0.0000 0.0000 22.4499 0.0000 0.0000
# 5 0.0000 0.0000 0.0000 0.0000 21.6852 0.0000
# 6 0.0000 0.0000 0.0000 0.0000 0.0000 23.8658
#
#
#
# Elastic Compliance Matrix: (Units=1/GPa)
#
#
# Indices 1 2 3 4 5 6 
#
# 1 0.011720 -0.002577 -0.005346 0.000000 0.000000 0.000000
# 2 -0.002577 0.016998 -0.004516 0.000000 0.000000 0.000000
# 3 -0.005346 -0.004516 0.015511 0.000000 0.000000 0.000000
# 4 0.000000 0.000000 0.000000 0.044544 0.000000 0.000000
# 5 0.000000 0.000000 0.000000 0.000000 0.046114 0.000000
# 6 0.000000 0.000000 0.000000 0.000000 0.000000 0.041901
#
#
# Mechanical properties :
#
#
# Convention : Reuss Voigt Hill
#
# Bulk Modulus (GPa) = 51.68191 54.87551 53.27871
# Shear Modulus (GPa) = 24.02496 24.69318 24.35907
#
# Velocity S-wave (km/s) = 3.78454 3.83681 3.81076
# Velocity P-wave (km/s) = 7.06454 7.23483 7.15019
#
# Compressibility (1/GPa) = 0.01934913
#
# Stress axis : x y z
#
# Youngs Moduli (GPa) = 85.32324 58.83085 64.47193
#
# Poissons Ratio (x) = 0.15161 0.34470
# Poissons Ratio (y) = 0.21988 0.29117
# Poissons Ratio (z) = 0.45618 0.26570
#
# Static dielectric constant tensor:
#      x y z
#    x 2.625420 0.000000 0.000000 
#    y 0.000000 3.240480 0.000000 
#    z 0.000000 0.000000 3.102380 
# 
# 
# High freq. dielectric constant tensor:
#      x y z
#    x 1.626390 0.000000 0.000000 
#    y 0.000000 1.661740 0.000000 
#    z 0.000000 0.000000 1.623810 
# 
# From -- ./inp_files/71794.got.cif
#   From: 2010.03.12/outbox.cif.g09.slc.cpg/sg65_36_cif.got.tgz:71794.got - 2010.04.10 20:52:16.
