data_PCOD8267448
_publ_section_title
;
Structure prediction by ZEFSAII (Michael W. Deem and Ramdas Pophale) SiO2 
 PCOD8267448
Probable space group: C M M M
;
_chemical_formula_sum "Si O2"
_cell_formula_units_Z 72
_cell_length_a 9.577435
_cell_length_b 33.924337
_cell_length_c 13.145669
_cell_angle_alpha 90.000000
_cell_angle_beta 90.000000
_cell_angle_gamma 90.000000
_cell_volume 4271.134766
_symmetry_space_group_name_H-M "C M M M"
_symmetry_group_IT_number 65
_symmetry_cell_setting 'orthorhombic'
loop_
_space_group_symop_operation_xyz
x,y,z
-x,-y,z
x,-y,-z
-x,y,-z
-x,-y,-z
x,y,-z
-x,y,z
x,-y,z
1/2+x,1/2+y,z
1/2-x,1/2-y,z
1/2+x,1/2-y,-z
1/2-x,1/2+y,-z
1/2-x,1/2-y,-z
1/2+x,1/2+y,-z
1/2-x,1/2+y,z
1/2+x,1/2-y,z
loop_
_atom_site_type_symbol
_atom_site_label
_atom_site_fract_x
_atom_site_fract_y
_atom_site_fract_z
Si Si1 0.346927 0.783269 0.616537
Si Si2 0.339335 0.712194 0.115032
Si Si3 0.840840 0.927104 0.617570
Si Si4 0.659201 0.656166 0.703142
Si Si5 0.657650 0.000000 0.379300
O O1 0.368783 0.772274 0.500000
O O2 0.500000 0.784505 0.669497
O O3 0.250000 0.750000 0.670225
O O4 0.267500 0.824659 0.624491
O O5 0.500000 0.724704 0.124135
O O6 0.250000 0.750000 0.149670
O O7 0.307154 0.673842 0.185015
O O8 0.300622 0.699692 0.000000
O O9 0.808128 0.915339 0.500000
O O10 0.816520 0.890545 0.694201
O O11 0.000000 0.942220 0.625453
O O12 0.738844 0.961195 0.658419
O O13 0.500000 0.666393 0.670992
O O14 0.500000 0.000000 0.335507
O O15 0.656650 0.000000 0.500000
#
# Coordination Sequence:
#
# PCOD8267448 Si02
#       5
#    16  16  16  16   8
#     4  10  20  31  42  58  84 118 151 182 217 259
#     4   9  18  32  48  66  89 117 150 189 231 271
#     4   9  17  29  45  65  90 119 148 178 215 262
#     4  10  19  30  46  67  89 115 148 186 226 267
#     4   9  17  29  45  65  90 119 148 178 213 255
#
# _framework density 16.857347000000001
#
# number of rings (size 3 to 8) (size 9 to 14) (size 15 to 20)
#    0.000    2.556    0.000    2.333    0.000    7.111 
#    0.000    2.222    0.000    0.000    0.000    0.778 
#    0.000    6.222    0.000    0.000    0.000    0.000 
#
# Total GULP energy -446207.172834 kJ/mol
# GULP energy per Si atom -12394.643690 kJ/mol
# Density = 1.681898 g / cm^3
# Si number density = 16.857347 Si / 1000 Ang^3
#
#
#
# Elastic Constant Matrix: (Units=GPa)
#
#
# Indices 1 2 3 4 5 6 
#
# 1 126.4131 76.4263 28.8196 0.0000 0.0000 0.0000
# 2 76.4263 127.8910 40.7569 0.0000 0.0000 0.0000
# 3 28.8196 40.7569 59.4779 0.0000 0.0000 0.0000
# 4 0.0000 0.0000 0.0000 20.9750 0.0000 0.0000
# 5 0.0000 0.0000 0.0000 0.0000 12.7859 0.0000
# 6 0.0000 0.0000 0.0000 0.0000 0.0000 29.7464
#
#
#
# Elastic Compliance Matrix: (Units=1/GPa)
#
#
# Indices 1 2 3 4 5 6 
#
# 1 0.012451 -0.007060 -0.001196 0.000000 0.000000 0.000000
# 2 -0.007060 0.014007 -0.006177 0.000000 0.000000 0.000000
# 3 -0.001196 -0.006177 0.021625 0.000000 0.000000 0.000000
# 4 0.000000 0.000000 0.000000 0.047676 0.000000 0.000000
# 5 0.000000 0.000000 0.000000 0.000000 0.078211 0.000000
# 6 0.000000 0.000000 0.000000 0.000000 0.000000 0.033618
#
#
# Mechanical properties :
#
#
# Convention : Reuss Voigt Hill
#
# Bulk Modulus (GPa) = 52.03433 67.30973 59.67203
# Shear Modulus (GPa) = 20.58815 23.88674 22.23745
#
# Velocity S-wave (km/s) = 3.49852 3.76838 3.63596
# Velocity P-wave (km/s) = 6.87416 7.67789 7.28711
#
# Compressibility (1/GPa) = 0.01921808
#
# Stress axis : x y z
#
# Youngs Moduli (GPa) = 80.31295 71.39507 46.24250
#
# Poissons Ratio (x) = 0.50403 0.05528
# Poissons Ratio (y) = 0.56699 0.28565
# Poissons Ratio (z) = 0.09602 0.44102
#
# Static dielectric constant tensor:
#      x y z
#    x 3.473290 0.000000 0.000000 
#    y 0.000000 3.049840 0.000000 
#    z 0.000000 0.000000 2.948210 
# 
# 
# High freq. dielectric constant tensor:
#      x y z
#    x 1.662920 0.000000 0.000000 
#    y 0.000000 1.633240 0.000000 
#    z 0.000000 0.000000 1.614640 
# 
# From -- ./inp_files/36966.got.cif
#   From: 2010.03.12/outbox.cif.g09.slc.cpg/sg65_19_cif.got.tgz:36966.got - 2010.04.10 20:52:16.
