data_PCOD8267455
_publ_section_title
;
Structure prediction by ZEFSAII (Michael W. Deem and Ramdas Pophale) SiO2 
 PCOD8267455
Probable space group: C M M M
;
_chemical_formula_sum "Si O2"
_cell_formula_units_Z 96
_cell_length_a 26.059356
_cell_length_b 13.906053
_cell_length_c 16.539373
_cell_angle_alpha 90.000000
_cell_angle_beta 90.000000
_cell_angle_gamma 90.000000
_cell_volume 5993.584061
_symmetry_space_group_name_H-M "C M M M"
_symmetry_group_IT_number 65
_symmetry_cell_setting 'orthorhombic'
loop_
_space_group_symop_operation_xyz
x,y,z
-x,-y,z
x,-y,-z
-x,y,-z
-x,-y,-z
x,y,-z
-x,y,z
x,-y,z
1/2+x,1/2+y,z
1/2-x,1/2-y,z
1/2+x,1/2-y,-z
1/2-x,1/2+y,-z
1/2-x,1/2-y,-z
1/2+x,1/2+y,-z
1/2-x,1/2+y,z
1/2+x,1/2-y,z
loop_
_atom_site_type_symbol
_atom_site_label
_atom_site_fract_x
_atom_site_fract_y
_atom_site_fract_z
Si Si1 0.711566 0.113727 0.409392
Si Si2 0.645895 0.201838 0.277741
Si Si3 0.308373 0.607506 0.305009
Si Si4 0.441145 0.111772 0.825293
Si Si5 0.094031 0.614048 0.000000
Si Si6 0.770594 0.392101 0.171979
Si Si7 0.291526 0.887112 0.000000
O O1 0.709094 0.155875 0.500000
O O2 0.661237 0.146672 0.360058
O O3 0.765291 0.146241 0.368155
O O4 0.710896 0.000000 0.409425
O O5 0.645220 0.315954 0.300307
O O6 0.591375 0.170438 0.241585
O O7 0.689794 0.181343 0.211868
O O8 0.328437 0.500000 0.328031
O O9 0.283521 0.605369 0.216260
O O10 0.500000 0.127381 0.801351
O O11 0.432809 0.150823 0.917062
O O12 0.425202 0.000000 0.819909
O O13 0.090726 0.500000 0.000000
O O14 0.151318 0.656665 0.000000
O O15 0.795170 0.500000 0.173823
O O16 0.760898 0.355569 0.080338
O O17 0.298320 0.000000 0.000000
#
# Coordination Sequence:
#
# PCOD8267455 Si02
#       7
#    16  16  16  16   8  16   8
#     4   9  17  29  47  72  98 121 145 174 212 262
#     4  11  18  28  45  63  87 117 150 181 218 260
#     4   9  19  31  42  59  87 120 152 185 216 249
#     4  10  19  30  46  68  91 113 141 181 229 277
#     4   9  15  26  42  64  91 117 141 175 224 269
#     4   9  15  25  40  61  87 114 140 168 210 262
#     4   9  14  21  38  60  88 117 140 168 208 262
#
# _framework density 16.017128
#
# number of rings (size 3 to 8) (size 9 to 14) (size 15 to 20)
#    0.000    2.500    1.667    4.750    0.000    2.333 
#    0.000    2.500    0.000    1.000    0.000    2.333 
#    0.000    1.333    0.000    5.667    0.000    0.167 
#
# Total GULP energy -594793.984480 kJ/mol
# GULP energy per Si atom -12391.541343 kJ/mol
# Density = 1.598067 g / cm^3
# Si number density = 16.017128 Si / 1000 Ang^3
#
#
#
# Elastic Constant Matrix: (Units=GPa)
#
#
# Indices 1 2 3 4 5 6 
#
# 1 61.2836 26.7272 35.7931 0.0000 0.0000 0.0000
# 2 26.7272 62.7690 24.0805 0.0000 0.0000 0.0000
# 3 35.7931 24.0805 130.3886 0.0000 0.0000 0.0000
# 4 0.0000 0.0000 0.0000 5.2679 0.0000 0.0000
# 5 0.0000 0.0000 0.0000 0.0000 12.6772 0.0000
# 6 0.0000 0.0000 0.0000 0.0000 0.0000 17.0380
#
#
#
# Elastic Compliance Matrix: (Units=1/GPa)
#
#
# Indices 1 2 3 4 5 6 
#
# 1 0.022462 -0.007748 -0.004735 0.000000 0.000000 0.000000
# 2 -0.007748 0.019819 -0.001533 0.000000 0.000000 0.000000
# 3 -0.004735 -0.001533 0.009252 0.000000 0.000000 0.000000
# 4 0.000000 0.000000 0.000000 0.189828 0.000000 0.000000
# 5 0.000000 0.000000 0.000000 0.000000 0.078882 0.000000
# 6 0.000000 0.000000 0.000000 0.000000 0.000000 0.058692
#
#
# Mechanical properties :
#
#
# Convention : Reuss Voigt Hill
#
# Bulk Modulus (GPa) = 42.55212 47.51586 45.03399
# Shear Modulus (GPa) = 12.05395 18.18597 15.11996
#
# Velocity S-wave (km/s) = 2.74627 3.37324 3.07577
# Velocity P-wave (km/s) = 6.05643 6.70087 6.38678
#
# Compressibility (1/GPa) = 0.02350059
#
# Stress axis : x y z
#
# Youngs Moduli (GPa) = 44.51908 50.45732 108.07971
#
# Poissons Ratio (x) = 0.39094 0.51178
# Poissons Ratio (y) = 0.34493 0.16572
# Poissons Ratio (z) = 0.21081 0.07737
#
# Static dielectric constant tensor:
#      x y z
#    x 2.634020 0.000000 0.000000 
#    y 0.000000 2.990330 0.000000 
#    z 0.000000 0.000000 3.440160 
# 
# 
# High freq. dielectric constant tensor:
#      x y z
#    x 1.557790 0.000000 0.000000 
#    y 0.000000 1.600840 0.000000 
#    z 0.000000 0.000000 1.624470 
# 
# From -- ./inp_files/58288.got.cif
#   From: 2010.03.12/outbox.cif.g09.slc.cpg/sg65_30_cif.got.tgz:58288.got - 2010.04.10 20:52:16.
