data_PCOD8267440
_publ_section_title
;
Structure prediction by ZEFSAII (Michael W. Deem and Ramdas Pophale) SiO2 
 PCOD8267440
Probable space group: C M M M
;
_chemical_formula_sum "Si O2"
_cell_formula_units_Z 104
_cell_length_a 25.746133
_cell_length_b 9.088341
_cell_length_c 25.749118
_cell_angle_alpha 90.000000
_cell_angle_beta 90.000000
_cell_angle_gamma 90.000000
_cell_volume 6025.026752
_symmetry_space_group_name_H-M "C M M M"
_symmetry_group_IT_number 65
_symmetry_cell_setting 'orthorhombic'
loop_
_space_group_symop_operation_xyz
x,y,z
-x,-y,z
x,-y,-z
-x,y,-z
-x,-y,-z
x,y,-z
-x,y,z
x,-y,z
1/2+x,1/2+y,z
1/2-x,1/2-y,z
1/2+x,1/2-y,-z
1/2-x,1/2+y,-z
1/2-x,1/2-y,-z
1/2+x,1/2+y,-z
1/2-x,1/2+y,z
1/2+x,1/2-y,z
loop_
_atom_site_type_symbol
_atom_site_label
_atom_site_fract_x
_atom_site_fract_y
_atom_site_fract_z
Si Si1 0.402876 0.171953 0.702891
Si Si2 0.198347 0.672254 0.883655
Si Si3 0.060390 0.827430 0.397134
Si Si4 0.438273 0.166262 0.500000
Si Si5 0.000000 0.825593 0.116620
Si Si6 0.593918 0.170302 0.938985
Si Si7 0.500000 0.829402 0.225522
Si Si8 0.698435 0.827716 0.765164
O O1 0.407014 0.265417 0.650715
O O2 0.449621 0.210805 0.741280
O O3 0.349943 0.221667 0.730411
O O4 0.403581 0.000000 0.688630
O O5 0.207712 0.500000 0.888275
O O6 0.250000 0.750000 0.905296
O O7 0.149823 0.722700 0.918320
O O8 0.187227 0.720613 0.824379
O O9 0.082073 0.750389 0.449055
O O10 0.000000 0.789355 0.388282
O O11 0.069628 0.000000 0.402662
O O12 0.500000 0.167868 0.500000
O O13 0.416645 0.000000 0.500000
O O14 0.050695 0.768564 0.087598
O O15 0.000000 0.771375 0.175354
O O16 0.000000 0.000000 0.115685
O O17 0.583944 0.000000 0.924378
O O18 0.591678 0.195987 0.000000
O O19 0.500000 0.000000 0.208612
O O20 0.750000 0.750000 0.743453
O O21 0.707526 0.000000 0.761550
#
# Coordination Sequence:
#
# PCOD8267440 Si02
#       8
#    16  16  16   8   8  16   8  16
#     4  10  19  32  52  75 100 134 174 211 248 296
#     4   9  18  34  55  78 103 129 163 205 254 306
#     4  10  19  30  45  70 106 139 169 210 261 305
#     4   9  17  29  47  67  94 137 184 217 245 294
#     4  12  25  37  52  75 103 133 168 213 258 299
#     4  10  21  38  58  76  98 133 172 205 245 305
#     4  10  20  35  55  75 101 135 170 207 249 307
#     4   9  18  32  50  72  98 130 167 206 247 296
#
# _framework density 17.261334999999999
#
# number of rings (size 3 to 8) (size 9 to 14) (size 15 to 20)
#    0.000    2.231    0.769    2.538    0.000    7.385 
#    0.000    3.077    0.000    0.000    0.000    0.538 
#    0.000    0.000    0.000    0.000    0.000    0.000 
#
# Total GULP energy -644968.717458 kJ/mol
# GULP energy per Si atom -12403.244566 kJ/mol
# Density = 1.722205 g / cm^3
# Si number density = 17.261335 Si / 1000 Ang^3
#
#
#
# Elastic Constant Matrix: (Units=GPa)
#
#
# Indices 1 2 3 4 5 6 
#
# 1 119.6907 53.9214 62.3517 0.0000 0.0000 0.0000
# 2 53.9214 79.4841 60.6670 0.0000 0.0000 0.0000
# 3 62.3517 60.6670 116.0867 0.0000 0.0000 0.0000
# 4 0.0000 0.0000 0.0000 22.4068 0.0000 0.0000
# 5 0.0000 0.0000 0.0000 0.0000 39.7539 0.0000
# 6 0.0000 0.0000 0.0000 0.0000 0.0000 28.7505
#
#
#
# Elastic Compliance Matrix: (Units=1/GPa)
#
#
# Indices 1 2 3 4 5 6 
#
# 1 0.013042 -0.005824 -0.003962 0.000000 0.000000 0.000000
# 2 -0.005824 0.023530 -0.009169 0.000000 0.000000 0.000000
# 3 -0.003962 -0.009169 0.015534 0.000000 0.000000 0.000000
# 4 0.000000 0.000000 0.000000 0.044629 0.000000 0.000000
# 5 0.000000 0.000000 0.000000 0.000000 0.025155 0.000000
# 6 0.000000 0.000000 0.000000 0.000000 0.000000 0.034782
#
#
# Mechanical properties :
#
#
# Convention : Reuss Voigt Hill
#
# Bulk Modulus (GPa) = 70.43501 74.34907 72.39204
# Shear Modulus (GPa) = 25.08608 27.40368 26.24488
#
# Velocity S-wave (km/s) = 3.81637 3.98876 3.90352
# Velocity P-wave (km/s) = 7.76616 8.02370 7.89598
#
# Compressibility (1/GPa) = 0.01419749
#
# Stress axis : x y z
#
# Youngs Moduli (GPa) = 76.67281 42.49834 64.37656
#
# Poissons Ratio (x) = 0.24752 0.25503
# Poissons Ratio (y) = 0.44656 0.59025
# Poissons Ratio (z) = 0.30374 0.38965
#
# Static dielectric constant tensor:
#      x y z
#    x 3.188960 0.000000 0.000000 
#    y 0.000000 3.174030 0.000000 
#    z 0.000000 0.000000 3.255970 
# 
# 
# High freq. dielectric constant tensor:
#      x y z
#    x 1.652250 0.000000 0.000000 
#    y 0.000000 1.664330 0.000000 
#    z 0.000000 0.000000 1.668710 
# 
# From -- ./inp_files/68328.got.cif
#   From: 2010.03.12/outbox.cif.g09.slc.cpg/sg65_35_cif.got.tgz:68328.got - 2010.04.10 20:52:16.
