data_PCOD8267665
_publ_section_title
;
Structure prediction by ZEFSAII (Michael W. Deem and Ramdas Pophale) SiO2 
 PCOD8267665
Probable space group: C M M M
;
_chemical_formula_sum "Si O2"
_cell_formula_units_Z 72
_cell_length_a 16.707324
_cell_length_b 25.160307
_cell_length_c 8.188895
_cell_angle_alpha 90.000000
_cell_angle_beta 90.000000
_cell_angle_gamma 90.000000
_cell_volume 3442.295375
_symmetry_space_group_name_H-M "C M M M"
_symmetry_group_IT_number 65
_symmetry_cell_setting 'orthorhombic'
loop_
_space_group_symop_operation_xyz
x,y,z
-x,-y,z
x,-y,-z
-x,y,-z
-x,-y,-z
x,y,-z
-x,y,z
x,-y,z
1/2+x,1/2+y,z
1/2-x,1/2-y,z
1/2+x,1/2-y,-z
1/2-x,1/2+y,-z
1/2-x,1/2-y,-z
1/2+x,1/2+y,-z
1/2-x,1/2+y,z
1/2+x,1/2-y,z
loop_
_atom_site_type_symbol
_atom_site_label
_atom_site_fract_x
_atom_site_fract_y
_atom_site_fract_z
Si Si1 0.153727 0.058251 0.307283
Si Si2 0.681611 0.105000 0.692842
Si Si3 0.500000 0.380269 0.305797
Si Si4 0.332187 0.222421 0.809736
Si Si5 0.500000 0.264877 0.812637
Si Si6 0.909345 0.500000 0.306213
O O1 0.150780 0.051491 0.500000
O O2 0.227593 0.094438 0.256246
O O3 0.075064 0.086515 0.243423
O O4 0.161244 0.000000 0.226773
O O5 0.669037 0.112161 0.500000
O O6 0.660685 0.159558 0.781488
O O7 0.630693 0.054504 0.759378
O O8 0.500000 0.369228 0.500000
O O9 0.500000 0.327360 0.203269
O O10 0.250000 0.250000 0.734695
O O11 0.415820 0.244661 0.731287
O O12 0.331563 0.235708 0.000000
O O13 0.500000 0.246558 0.000000
O O14 0.900784 0.500000 0.500000
O O15 0.000000 0.500000 0.245210
#
# Coordination Sequence:
#
# PCOD8267665 Si02
#       6
#    16  16   8  16   8   8
#     4   9  16  29  49  77 109 137 164 201 254 307
#     4  10  19  33  56  80 105 136 172 214 256 305
#     4  10  19  30  52  80 103 131 172 215 247 293
#     4  10  22  39  56  75 104 141 176 214 263 312
#     4  10  22  39  55  72 101 140 173 209 264 315
#     4   9  18  32  51  78 108 136 165 205 263 315
#
# _framework density 20.916276
#
# number of rings (size 3 to 8) (size 9 to 14) (size 15 to 20)
#    0.000    2.333    1.111    1.667    1.556    2.667 
#    0.000    0.556    0.000    3.333    0.000    0.000 
#    0.000    0.000    0.000    0.000    0.000    0.000 
#
# Total GULP energy -446121.681754 kJ/mol
# GULP energy per Si atom -12392.268938 kJ/mol
# Density = 2.086867 g / cm^3
# Si number density = 20.916276 Si / 1000 Ang^3
#
#
#
# Elastic Constant Matrix: (Units=GPa)
#
#
# Indices 1 2 3 4 5 6 
#
# 1 159.9775 42.7662 9.6963 0.0000 0.0000 0.0000
# 2 42.7662 127.4492 1.3995 0.0000 0.0000 0.0000
# 3 9.6963 1.3995 8.2859 0.0000 0.0000 0.0000
# 4 0.0000 0.0000 0.0000********** 0.0000 0.0000
# 5 0.0000 0.0000 0.0000 0.0000 47.3887 0.0000
# 6 0.0000 0.0000 0.0000 0.0000 0.0000 25.2987
#
#
#
# Elastic Compliance Matrix: (Units=1/GPa)
#
#
# Indices 1 2 3 4 5 6 
#
# 1 0.007389 -0.002389 -0.008243 0.000000 0.000000 0.000000
# 2 -0.002389 0.008633 0.001337 0.000000 0.000000 0.000000
# 3 -0.008243 0.001337 0.130107 0.000000 0.000000 0.000000
# 4 0.000000 0.000000 0.000000 -0.000050 0.000000 0.000000
# 5 0.000000 0.000000 0.000000 0.000000 0.021102 0.000000
# 6 0.000000 0.000000 0.000000 0.000000 0.000000 0.039528
#
#
# Mechanical properties :
#
#
# Convention : Reuss Voigt Hill
#
# Bulk Modulus (GPa) = 7.84071 44.82630 26.33351
# Shear Modulus (GPa) = 18.66982 -3960.69741 -1971.01379
#
# Velocity S-wave (km/s) = 2.99088 -43.56268 -30.73078
# Velocity P-wave (km/s) = 3.96029 50.08790 35.30661
#
# Compressibility (1/GPa) = 0.12753945
#
# Stress axis : x y z
#
# Youngs Moduli (GPa) = 135.33377 115.83187 7.68599
#
# Poissons Ratio (x) = 0.27672 0.06336
# Poissons Ratio (y) = 0.32330 -0.01028
# Poissons Ratio (z) = 1.11560 -0.15491
#
# Static dielectric constant tensor:
#      x y z
#    x 14.147330 0.000000 0.000000 
#    y 0.000000 3.847180 0.000000 
#    z 0.000000 0.000000 3.210060 
# 
# 
# High freq. dielectric constant tensor:
#      x y z
#    x 1.840390 0.000000 0.000000 
#    y 0.000000 1.833350 0.000000 
#    z 0.000000 0.000000 1.760020 
# 
# From -- ./inp_files/7364.got.cif
#   From: 2010.03.12/outbox.cif.g09.slc.cpg/sg65_4_cif.got.tgz:7364.got - 2010.04.10 20:52:16.
