data_PCOD8267926
_publ_section_title
;
Structure prediction by ZEFSAII (Michael W. Deem and Ramdas Pophale) SiO2 
 PCOD8267926
Probable space group: C M M M
;
_chemical_formula_sum "Si O2"
_cell_formula_units_Z 104
_cell_length_a 8.775850
_cell_length_b 21.761524
_cell_length_c 29.258570
_cell_angle_alpha 90.000000
_cell_angle_beta 90.000000
_cell_angle_gamma 90.000000
_cell_volume 5587.680872
_symmetry_space_group_name_H-M "C M M M"
_symmetry_group_IT_number 65
_symmetry_cell_setting 'orthorhombic'
loop_
_space_group_symop_operation_xyz
x,y,z
-x,-y,z
x,-y,-z
-x,y,-z
-x,-y,-z
x,y,-z
-x,y,z
x,-y,z
1/2+x,1/2+y,z
1/2-x,1/2-y,z
1/2+x,1/2-y,-z
1/2-x,1/2+y,-z
1/2-x,1/2-y,-z
1/2+x,1/2+y,-z
1/2-x,1/2+y,z
1/2+x,1/2-y,z
loop_
_atom_site_type_symbol
_atom_site_label
_atom_site_fract_x
_atom_site_fract_y
_atom_site_fract_z
Si Si1 0.322206 0.893880 0.382654
Si Si2 0.669847 0.072519 0.198881
Si Si3 0.175915 0.813145 0.548840
Si Si4 0.175354 0.686059 0.946020
Si Si5 0.679965 0.570953 0.104649
Si Si6 0.681529 0.000000 0.551401
Si Si7 0.822550 0.928668 0.290166
O O1 0.500000 0.902028 0.372801
O O2 0.280271 0.832248 0.408454
O O3 0.258162 0.943147 0.419022
O O4 0.236445 0.894233 0.334687
O O5 0.500000 0.099487 0.192058
O O6 0.773021 0.090361 0.155748
O O7 0.741925 0.099809 0.245273
O O8 0.664413 0.000000 0.203989
O O9 0.188889 0.850890 0.500000
O O10 0.250000 0.750000 0.535827
O O11 0.000000 0.809598 0.564299
O O12 0.250000 0.750000 0.927249
O O13 0.250100 0.622615 0.928364
O O14 0.000000 0.686708 0.930798
O O15 0.195044 0.684115 0.000000
O O16 0.500000 0.573828 0.099977
O O17 0.735107 0.500000 0.093449
O O18 0.500000 0.000000 0.548396
O O19 0.750462 0.000000 0.500000
O O20 0.000000 0.917453 0.284056
O O21 0.782064 0.000000 0.296133
#
# Coordination Sequence:
#
# PCOD8267926 Si02
#       7
#    16  16  16  16  16   8  16
#     4  11  20  32  51  74 102 133 167 205 249 301
#     4   9  17  30  50  75 104 138 178 222 268 316
#     4  10  21  37  55  74  95 123 162 206 251 300
#     4  10  21  37  57  81 112 152 196 239 284 337
#     4  10  20  34  54  82 115 149 188 235 287 336
#     4   9  18  30  45  69 101 133 163 197 242 297
#     4  10  19  31  48  72 105 139 173 212 258 311
#
# _framework density 18.612372000000001
#
# number of rings (size 3 to 8) (size 9 to 14) (size 15 to 20)
#    0.000    2.077    0.769    3.231    0.000    6.154 
#    0.000    1.538    0.000    2.769    0.000    6.462 
#    0.000    0.000    0.000    0.000    0.000    0.000 
#
# Total GULP energy -644301.275282 kJ/mol
# GULP energy per Si atom -12390.409140 kJ/mol
# Density = 1.857001 g / cm^3
# Si number density = 18.612372 Si / 1000 Ang^3
#
#
#
# Elastic Constant Matrix: (Units=GPa)
#
#
# Indices 1 2 3 4 5 6 
#
# 1 72.4332 30.5352 31.8972 0.0000 0.0000 0.0000
# 2 30.5352 72.2507 33.6108 0.0000 0.0000 0.0000
# 3 31.8972 33.6108 76.4985 0.0000 0.0000 0.0000
# 4 0.0000 0.0000 0.0000 12.8915 0.0000 0.0000
# 5 0.0000 0.0000 0.0000 0.0000 34.6192 0.0000
# 6 0.0000 0.0000 0.0000 0.0000 0.0000 25.7845
#
#
#
# Elastic Compliance Matrix: (Units=1/GPa)
#
#
# Indices 1 2 3 4 5 6 
#
# 1 0.018387 -0.005285 -0.005345 0.000000 0.000000 0.000000
# 2 -0.005285 0.018915 -0.006107 0.000000 0.000000 0.000000
# 3 -0.005345 -0.006107 0.017984 0.000000 0.000000 0.000000
# 4 0.000000 0.000000 0.000000 0.077570 0.000000 0.000000
# 5 0.000000 0.000000 0.000000 0.000000 0.028886 0.000000
# 6 0.000000 0.000000 0.000000 0.000000 0.000000 0.038783
#
#
# Mechanical properties :
#
#
# Convention : Reuss Voigt Hill
#
# Bulk Modulus (GPa) = 45.84401 45.91877 45.88139
# Shear Modulus (GPa) = 20.72365 23.00166 21.86265
#
# Velocity S-wave (km/s) = 3.34044 3.51925 3.43101
# Velocity P-wave (km/s) = 6.28987 6.42169 6.35612
#
# Compressibility (1/GPa) = 0.02181310
#
# Stress axis : x y z
#
# Youngs Moduli (GPa) = 54.38509 52.86771 55.60456
#
# Poissons Ratio (x) = 0.27938 0.29721
# Poissons Ratio (y) = 0.28740 0.33959
# Poissons Ratio (z) = 0.29069 0.32287
#
# Static dielectric constant tensor:
#      x y z
#    x 3.465430 0.000000 0.000000 
#    y 0.000000 3.251650 0.000000 
#    z 0.000000 0.000000 3.483560 
# 
# 
# High freq. dielectric constant tensor:
#      x y z
#    x 1.729880 0.000000 0.000000 
#    y 0.000000 1.687050 0.000000 
#    z 0.000000 0.000000 1.728730 
# 
# From -- ./inp_files/73350.got.cif
#   From: 2010.03.12/outbox.cif.g09.slc.cpg/sg65_37_cif.got.tgz:73350.got - 2010.04.10 20:52:16.
