data_PCOD8267719
_publ_section_title
;
Structure prediction by ZEFSAII (Michael W. Deem and Ramdas Pophale) SiO2 
 PCOD8267719
Probable space group: C M M M
;
_chemical_formula_sum "Si O2"
_cell_formula_units_Z 96
_cell_length_a 9.008320
_cell_length_b 27.315742
_cell_length_c 24.261590
_cell_angle_alpha 90.000000
_cell_angle_beta 90.000000
_cell_angle_gamma 90.000000
_cell_volume 5970.023855
_symmetry_space_group_name_H-M "C M M M"
_symmetry_group_IT_number 65
_symmetry_cell_setting 'orthorhombic'
loop_
_space_group_symop_operation_xyz
x,y,z
-x,-y,z
x,-y,-z
-x,y,-z
-x,-y,-z
x,y,-z
-x,y,z
x,-y,z
1/2+x,1/2+y,z
1/2-x,1/2-y,z
1/2+x,1/2-y,-z
1/2-x,1/2+y,-z
1/2-x,1/2-y,-z
1/2+x,1/2+y,-z
1/2-x,1/2+y,z
1/2+x,1/2-y,z
loop_
_atom_site_type_symbol
_atom_site_label
_atom_site_fract_x
_atom_site_fract_y
_atom_site_fract_z
Si Si1 0.173627 0.554749 0.886069
Si Si2 0.673736 0.110807 0.776373
Si Si3 0.327491 0.641524 0.938750
Si Si4 0.675914 0.301572 0.832016
Si Si5 0.324085 0.445310 0.558226
Si Si6 0.327707 0.558152 0.677702
O O1 0.237227 0.500000 0.892931
O O2 0.211915 0.572635 0.824652
O O3 0.247865 0.589580 0.931137
O O4 0.000000 0.555841 0.897085
O O5 0.500000 0.123093 0.774018
O O6 0.763864 0.160722 0.786505
O O7 0.724134 0.086743 0.719694
O O8 0.500000 0.631329 0.930957
O O9 0.273857 0.680746 0.893251
O O10 0.290774 0.661805 0.000000
O O11 0.500000 0.296968 0.826752
O O12 0.750000 0.250000 0.819939
O O13 0.273764 0.418660 0.500000
O O14 0.500000 0.448269 0.559822
O O15 0.258909 0.500000 0.556376
O O16 0.276064 0.421706 0.616787
O O17 0.500000 0.570284 0.689493
O O18 0.300882 0.500000 0.682051
#
# Coordination Sequence:
#
# PCOD8267719 Si02
#       6
#    16  16  16  16  16  16
#     4   9  18  31  45  62  86 117 150 181 213 250
#     4  10  19  31  46  64  88 117 149 184 221 263
#     4   9  19  34  49  67  90 113 139 172 210 256
#     4  10  20  35  53  70  88 110 137 173 219 268
#     4   7  10  18  33  54  82 117 155 190 220 251
#     4   9  16  25  40  64  92 122 156 191 224 257
#
# _framework density 16.080338000000001
#
# number of rings (size 3 to 8) (size 9 to 14) (size 15 to 20)
#    0.000    3.000    0.000    3.000    0.000    3.667 
#    0.000    1.667    0.000    0.500    0.000    2.333 
#    0.000    0.667    0.000    1.833    0.000    2.667 
#
# Total GULP energy -594750.629634 kJ/mol
# GULP energy per Si atom -12390.638117 kJ/mol
# Density = 1.604374 g / cm^3
# Si number density = 16.080338 Si / 1000 Ang^3
#
#
#
# Elastic Constant Matrix: (Units=GPa)
#
#
# Indices 1 2 3 4 5 6 
#
# 1 42.8250 25.8974 24.9934 0.0000 0.0000 0.0000
# 2 25.8974 72.1586 21.6746 0.0000 0.0000 0.0000
# 3 24.9934 21.6746 101.3595 0.0000 0.0000 0.0000
# 4 0.0000 0.0000 0.0000 10.7734 0.0000 0.0000
# 5 0.0000 0.0000 0.0000 0.0000 17.7534 0.0000
# 6 0.0000 0.0000 0.0000 0.0000 0.0000 24.5432
#
#
#
# Elastic Compliance Matrix: (Units=1/GPa)
#
#
# Indices 1 2 3 4 5 6 
#
# 1 0.032888 -0.010010 -0.005969 0.000000 0.000000 0.000000
# 2 -0.010010 0.017857 -0.001350 0.000000 0.000000 0.000000
# 3 -0.005969 -0.001350 0.011626 0.000000 0.000000 0.000000
# 4 0.000000 0.000000 0.000000 0.092822 0.000000 0.000000
# 5 0.000000 0.000000 0.000000 0.000000 0.056327 0.000000
# 6 0.000000 0.000000 0.000000 0.000000 0.000000 0.040745
#
#
# Mechanical properties :
#
#
# Convention : Reuss Voigt Hill
#
# Bulk Modulus (GPa) = 36.08529 40.16375 38.12452
# Shear Modulus (GPa) = 16.88274 20.19918 18.54096
#
# Velocity S-wave (km/s) = 3.24373 3.54805 3.39930
# Velocity P-wave (km/s) = 6.04305 6.46653 6.25837
#
# Compressibility (1/GPa) = 0.02771212
#
# Stress axis : x y z
#
# Youngs Moduli (GPa) = 30.40623 56.00176 86.01117
#
# Poissons Ratio (x) = 0.56060 0.51340
# Poissons Ratio (y) = 0.30438 0.11612
# Poissons Ratio (z) = 0.18149 0.07560
#
# Static dielectric constant tensor:
#      x y z
#    x 2.892610 0.000000 0.000000 
#    y 0.000000 2.828250 0.000000 
#    z 0.000000 0.000000 3.399940 
# 
# 
# High freq. dielectric constant tensor:
#      x y z
#    x 1.606720 0.000000 0.000000 
#    y 0.000000 1.580970 0.000000 
#    z 0.000000 0.000000 1.624320 
# 
# From -- ./inp_files/67839.got.cif
#   From: 2010.03.12/outbox.cif.g09.slc.cpg/sg65_34_cif.got.tgz:67839.got - 2010.04.10 20:52:16.
