data_PCOD8267083
_publ_section_title
;
Structure prediction by ZEFSAII (Michael W. Deem and Ramdas Pophale) SiO2 
 PCOD8267083
Probable space group: C M M M
;
_chemical_formula_sum "Si O2"
_cell_formula_units_Z 96
_cell_length_a 14.733478
_cell_length_b 33.631650
_cell_length_c 10.301301
_cell_angle_alpha 90.000000
_cell_angle_beta 90.000000
_cell_angle_gamma 90.000000
_cell_volume 5104.409766
_symmetry_space_group_name_H-M "C M M M"
_symmetry_group_IT_number 65
_symmetry_cell_setting 'orthorhombic'
loop_
_space_group_symop_operation_xyz
x,y,z
-x,-y,z
x,-y,-z
-x,y,-z
-x,-y,-z
x,y,-z
-x,y,z
x,-y,z
1/2+x,1/2+y,z
1/2-x,1/2-y,z
1/2+x,1/2-y,-z
1/2-x,1/2+y,-z
1/2-x,1/2-y,-z
1/2+x,1/2+y,-z
1/2-x,1/2+y,z
1/2+x,1/2-y,z
loop_
_atom_site_type_symbol
_atom_site_label
_atom_site_fract_x
_atom_site_fract_y
_atom_site_fract_z
Si Si1 0.500000 0.782104 0.355092
Si Si2 0.602541 0.579447 0.144012
Si Si3 0.171075 0.661573 0.649807
Si Si4 0.000000 0.212677 0.852387
Si Si5 0.602336 0.076396 0.345584
Si Si6 0.178818 0.161733 0.151296
Si Si7 0.200514 0.500000 0.640355
Si Si8 0.601270 0.500000 0.695704
O O1 0.500000 0.763091 0.500000
O O2 0.587018 0.809395 0.337338
O O3 0.500000 0.748757 0.246716
O O4 0.500000 0.595285 0.146551
O O5 0.663093 0.615900 0.194688
O O6 0.612823 0.539587 0.223263
O O7 0.632909 0.567954 0.000000
O O8 0.206353 0.660347 0.500000
O O9 0.142747 0.618123 0.702582
O O10 0.246833 0.678601 0.748526
O O11 0.088056 0.186385 0.826487
O O12 0.000000 0.229063 0.000000
O O13 0.602602 0.077584 0.500000
O O14 0.500000 0.070798 0.292697
O O15 0.664782 0.040191 0.288984
O O16 0.209791 0.164623 0.000000
O O17 0.152282 0.500000 0.500000
O O18 0.308843 0.500000 0.608613
O O19 0.500000 0.500000 0.627504
#
# Coordination Sequence:
#
# PCOD8267083 Si02
#       8
#     8  16  16   8  16  16   8   8
#     4  10  22  40  60  81 109 145 181 224 278 330
#     4   9  16  30  51  73 100 136 179 221 260 309
#     4  10  20  36  58  83 111 144 182 225 273 326
#     4  10  22  40  60  81 111 145 179 222 274 330
#     4   9  16  30  52  75 101 136 180 226 269 316
#     4  10  20  36  58  83 111 146 182 223 272 324
#     4  10  19  28  43  71 104 140 181 223 264 312
#     4  10  19  28  43  71 104 140 181 223 264 309
#
# _framework density 18.807267
#
# number of rings (size 3 to 8) (size 9 to 14) (size 15 to 20)
#    0.000    2.333    1.667    1.500    0.000    4.167 
#    0.000    3.333    0.000    1.000    0.000    0.000 
#    0.000    5.333    0.000    0.000    0.000    0.000 
#
# Total GULP energy -594734.814239 kJ/mol
# GULP energy per Si atom -12390.308630 kJ/mol
# Density = 1.876446 g / cm^3
# Si number density = 18.807267 Si / 1000 Ang^3
#
#
#
# Elastic Constant Matrix: (Units=GPa)
#
#
# Indices 1 2 3 4 5 6 
#
# 1 125.8875 39.6008 54.4467 0.0000 0.0000 0.0000
# 2 39.6008 106.5409 56.9915 0.0000 0.0000 0.0000
# 3 54.4467 56.9915 84.8405 0.0000 0.0000 0.0000
# 4 0.0000 0.0000 0.0000 28.8378 0.0000 0.0000
# 5 0.0000 0.0000 0.0000 0.0000 35.8660 0.0000
# 6 0.0000 0.0000 0.0000 0.0000 0.0000 18.1510
#
#
#
# Elastic Compliance Matrix: (Units=1/GPa)
#
#
# Indices 1 2 3 4 5 6 
#
# 1 0.011012 -0.000488 -0.006739 0.000000 0.000000 0.000000
# 2 -0.000488 0.014672 -0.009543 0.000000 0.000000 0.000000
# 3 -0.006739 -0.009543 0.022522 0.000000 0.000000 0.000000
# 4 0.000000 0.000000 0.000000 0.034677 0.000000 0.000000
# 5 0.000000 0.000000 0.000000 0.000000 0.027882 0.000000
# 6 0.000000 0.000000 0.000000 0.000000 0.000000 0.055093
#
#
# Mechanical properties :
#
#
# Convention : Reuss Voigt Hill
#
# Bulk Modulus (GPa) = 68.18413 68.81629 68.50021
# Shear Modulus (GPa) = 24.47554 27.65297 26.06425
#
# Velocity S-wave (km/s) = 3.61139 3.83865 3.72675
# Velocity P-wave (km/s) = 7.32955 7.50445 7.41752
#
# Compressibility (1/GPa) = 0.01466617
#
# Stress axis : x y z
#
# Youngs Moduli (GPa) = 90.81197 68.15628 44.40144
#
# Poissons Ratio (x) = 0.03328 0.29922
# Poissons Ratio (y) = 0.04434 0.42371
# Poissons Ratio (z) = 0.61197 0.65039
#
# Static dielectric constant tensor:
#      x y z
#    x 3.556390 0.000000 0.000000 
#    y 0.000000 3.555430 0.000000 
#    z 0.000000 0.000000 3.200850 
# 
# 
# High freq. dielectric constant tensor:
#      x y z
#    x 1.736550 0.000000 0.000000 
#    y 0.000000 1.737500 0.000000 
#    z 0.000000 0.000000 1.696550 
# 
# From -- ./inp_files/25527.got.cif
#   From: 2010.03.12/outbox.cif.g09.slc.cpg/sg65_13_cif.got.tgz:25527.got - 2010.04.10 20:52:16.
