data_PCOD8267439
_publ_section_title
;
Structure prediction by ZEFSAII (Michael W. Deem and Ramdas Pophale) SiO2 
 PCOD8267439
Probable space group: C M M M
;
_chemical_formula_sum "Si O2"
_cell_formula_units_Z 104
_cell_length_a 28.889061
_cell_length_b 13.778051
_cell_length_c 14.959220
_cell_angle_alpha 90.000000
_cell_angle_beta 90.000000
_cell_angle_gamma 90.000000
_cell_volume 5954.292472
_symmetry_space_group_name_H-M "C M M M"
_symmetry_group_IT_number 65
_symmetry_cell_setting 'orthorhombic'
loop_
_space_group_symop_operation_xyz
x,y,z
-x,-y,z
x,-y,-z
-x,y,-z
-x,-y,-z
x,y,-z
-x,y,z
x,-y,z
1/2+x,1/2+y,z
1/2-x,1/2-y,z
1/2+x,1/2-y,-z
1/2-x,1/2+y,-z
1/2-x,1/2-y,-z
1/2+x,1/2+y,-z
1/2-x,1/2+y,z
1/2+x,1/2-y,z
loop_
_atom_site_type_symbol
_atom_site_label
_atom_site_fract_x
_atom_site_fract_y
_atom_site_fract_z
Si Si1 0.372413 0.614017 0.220922
Si Si2 0.250000 0.250000 0.656846
Si Si3 0.612959 0.891580 0.899452
Si Si4 0.172210 0.111800 0.598670
Si Si5 0.291325 0.614338 0.097609
Si Si6 0.703373 0.113555 0.206226
Si Si7 0.446223 0.711694 0.101814
O O1 0.373756 0.500000 0.210720
O O2 0.365201 0.643226 0.325304
O O3 0.328655 0.658694 0.166649
O O4 0.419762 0.651214 0.177568
O O5 0.217938 0.178546 0.598983
O O6 0.285335 0.181493 0.710646
O O7 0.652735 0.860367 0.830328
O O8 0.568507 0.823476 0.888026
O O9 0.595760 0.000000 0.878260
O O10 0.633265 0.885210 0.000000
O O11 0.149306 0.121828 0.500000
O O12 0.187448 0.000000 0.616791
O O13 0.298014 0.500000 0.093052
O O14 0.239910 0.640282 0.128922
O O15 0.299906 0.660475 0.000000
O O16 0.707228 0.000000 0.232943
O O17 0.500000 0.701945 0.123179
O O18 0.435425 0.674956 0.000000
#
# Coordination Sequence:
#
# PCOD8267439 Si02
#       7
#    16   8  16  16  16  16  16
#     4  10  19  34  52  72 100 133 165 199 246 301
#     4  12  19  30  49  72 100 138 169 206 249 296
#     4   9  18  32  47  65  95 136 177 212 243 278
#     4  10  21  36  53  73  98 130 170 211 249 293
#     4   9  16  27  44  67  98 135 168 196 229 279
#     4  10  19  30  45  70 104 137 170 205 240 287
#     4  10  21  35  51  75 103 129 164 208 252 300
#
# _framework density 17.466391000000002
#
# number of rings (size 3 to 8) (size 9 to 14) (size 15 to 20)
#    0.000    2.154    1.538    2.538    0.000    3.385 
#    0.000    3.077    0.000    0.462    0.000    2.154 
#    0.000    0.000    0.000    5.538    0.000    0.154 
#
# Total GULP energy -644556.921762 kJ/mol
# GULP energy per Si atom -12395.325418 kJ/mol
# Density = 1.742664 g / cm^3
# Si number density = 17.466391 Si / 1000 Ang^3
#
#
#
# Elastic Constant Matrix: (Units=GPa)
#
#
# Indices 1 2 3 4 5 6 
#
# 1 93.0622 21.3406 50.6286 0.0000 0.0000 0.0000
# 2 21.3406 45.6673 32.9075 0.0000 0.0000 0.0000
# 3 50.6286 32.9075 122.3594 0.0000 0.0000 0.0000
# 4 0.0000 0.0000 0.0000 17.2857 0.0000 0.0000
# 5 0.0000 0.0000 0.0000 0.0000 16.8411 0.0000
# 6 0.0000 0.0000 0.0000 0.0000 0.0000 24.5866
#
#
#
# Elastic Compliance Matrix: (Units=1/GPa)
#
#
# Indices 1 2 3 4 5 6 
#
# 1 0.014186 -0.002976 -0.005069 0.000000 0.000000 0.000000
# 2 -0.002976 0.027786 -0.006241 0.000000 0.000000 0.000000
# 3 -0.005069 -0.006241 0.011949 0.000000 0.000000 0.000000
# 4 0.000000 0.000000 0.000000 0.057851 0.000000 0.000000
# 5 0.000000 0.000000 0.000000 0.000000 0.059378 0.000000
# 6 0.000000 0.000000 0.000000 0.000000 0.000000 0.040672
#
#
# Mechanical properties :
#
#
# Convention : Reuss Voigt Hill
#
# Bulk Modulus (GPa) = 39.45283 52.31581 45.88432
# Shear Modulus (GPa) = 20.09286 22.15685 21.12486
#
# Velocity S-wave (km/s) = 3.39539 3.56552 3.48150
# Velocity P-wave (km/s) = 6.16510 6.85331 6.51830
#
# Compressibility (1/GPa) = 0.02534672
#
# Stress axis : x y z
#
# Youngs Moduli (GPa) = 70.49298 35.98974 83.69147
#
# Poissons Ratio (x) = 0.10712 0.42425
# Poissons Ratio (y) = 0.20981 0.52234
# Poissons Ratio (z) = 0.35734 0.22462
#
# Static dielectric constant tensor:
#      x y z
#    x 2.980940 0.000000 0.000000 
#    y 0.000000 3.419080 0.000000 
#    z 0.000000 0.000000 3.244180 
# 
# 
# High freq. dielectric constant tensor:
#      x y z
#    x 1.642100 0.000000 0.000000 
#    y 0.000000 1.688840 0.000000 
#    z 0.000000 0.000000 1.657320 
# 
# From -- ./inp_files/47169.got.cif
#   From: 2010.03.12/outbox.cif.g09.slc.cpg/sg65_24_cif.got.tgz:47169.got - 2010.04.10 20:52:16.
