data_PCOD8267837
_publ_section_title
;
Structure prediction by ZEFSAII (Michael W. Deem and Ramdas Pophale) SiO2 
 PCOD8267837
Probable space group: C M M M
;
_chemical_formula_sum "Si O2"
_cell_formula_units_Z 112
_cell_length_a 13.975136
_cell_length_b 33.320125
_cell_length_c 14.307406
_cell_angle_alpha 90.000000
_cell_angle_beta 90.000000
_cell_angle_gamma 90.000000
_cell_volume 6662.290509
_symmetry_space_group_name_H-M "C M M M"
_symmetry_group_IT_number 65
_symmetry_cell_setting 'orthorhombic'
loop_
_space_group_symop_operation_xyz
x,y,z
-x,-y,z
x,-y,-z
-x,y,-z
-x,-y,-z
x,y,-z
-x,y,z
x,-y,z
1/2+x,1/2+y,z
1/2-x,1/2-y,z
1/2+x,1/2-y,-z
1/2-x,1/2+y,-z
1/2-x,1/2-y,-z
1/2+x,1/2+y,-z
1/2-x,1/2+y,z
1/2+x,1/2-y,z
loop_
_atom_site_type_symbol
_atom_site_label
_atom_site_fract_x
_atom_site_fract_y
_atom_site_fract_z
Si Si1 0.232365 0.545770 0.605096
Si Si2 0.389555 0.648843 0.791704
Si Si3 0.274044 0.889908 0.889312
Si Si4 0.608728 0.390014 0.604120
Si Si5 0.894075 0.314714 0.889411
Si Si6 0.109652 0.453208 0.220110
Si Si7 0.386170 0.727201 0.104164
O O1 0.194253 0.553564 0.500000
O O2 0.265685 0.500000 0.618127
O O3 0.324572 0.572410 0.627824
O O4 0.146396 0.556436 0.675363
O O5 0.500000 0.642805 0.819519
O O6 0.331845 0.613762 0.845473
O O7 0.373459 0.645136 0.679960
O O8 0.353232 0.692795 0.824039
O O9 0.330369 0.850905 0.850328
O O10 0.327055 0.929863 0.855519
O O11 0.266679 0.891506 0.000000
O O12 0.629835 0.372781 0.500000
O O13 0.500000 0.405722 0.611242
O O14 0.846214 0.271178 0.864798
O O15 0.000000 0.318628 0.844686
O O16 0.902507 0.318394 0.000000
O O17 0.119556 0.500000 0.196294
O O18 0.000000 0.439036 0.213331
O O19 0.500000 0.731672 0.101156
O O20 0.348551 0.715547 0.000000
#
# Coordination Sequence:
#
# PCOD8267837 Si02
#       7
#    16  16  16  16  16  16  16
#     4   9  17  31  52  76  99 121 150 194 248 298
#     4  10  19  31  47  70  98 128 161 196 237 286
#     4  11  21  32  49  71  95 129 169 202 238 283
#     4   9  17  30  49  73  99 125 156 195 238 285
#     4   8  15  28  45  67  95 124 158 203 246 280
#     4  10  21  36  52  72  98 126 160 200 241 287
#     4   8  14  26  44  67  97 128 156 193 240 283
#
# _framework density 16.811035
#
# number of rings (size 3 to 8) (size 9 to 14) (size 15 to 20)
#    0.000    2.714    1.429    1.714    0.000    3.143 
#    0.000    5.714    0.000    0.429    0.000    4.000 
#    0.000    4.571    0.000    0.000    0.000    0.000 
#
# Total GULP energy -694173.792271 kJ/mol
# GULP energy per Si atom -12395.960576 kJ/mol
# Density = 1.677277 g / cm^3
# Si number density = 16.811035 Si / 1000 Ang^3
#
#
#
# Elastic Constant Matrix: (Units=GPa)
#
#
# Indices 1 2 3 4 5 6 
#
# 1 64.5123 38.1149 36.7267 0.0000 0.0000 0.0000
# 2 38.1149 79.6208 48.8739 0.0000 0.0000 0.0000
# 3 36.7267 48.8739 90.5992 0.0000 0.0000 0.0000
# 4 0.0000 0.0000 0.0000 16.0256 0.0000 0.0000
# 5 0.0000 0.0000 0.0000 0.0000 19.6010 0.0000
# 6 0.0000 0.0000 0.0000 0.0000 0.0000 24.5449
#
#
#
# Elastic Compliance Matrix: (Units=1/GPa)
#
#
# Indices 1 2 3 4 5 6 
#
# 1 0.023077 -0.007931 -0.005076 0.000000 0.000000 0.000000
# 2 -0.007931 0.021503 -0.008385 0.000000 0.000000 0.000000
# 3 -0.005076 -0.008385 0.017619 0.000000 0.000000 0.000000
# 4 0.000000 0.000000 0.000000 0.062400 0.000000 0.000000
# 5 0.000000 0.000000 0.000000 0.000000 0.051018 0.000000
# 6 0.000000 0.000000 0.000000 0.000000 0.000000 0.040742
#
#
# Mechanical properties :
#
#
# Convention : Reuss Voigt Hill
#
# Bulk Modulus (GPa) = 51.50895 53.57370 52.54132
# Shear Modulus (GPa) = 18.82437 19.43542 19.12989
#
# Velocity S-wave (km/s) = 3.34992 3.40385 3.37699
# Velocity P-wave (km/s) = 6.75789 6.88372 6.82110
#
# Compressibility (1/GPa) = 0.01941410
#
# Stress axis : x y z
#
# Youngs Moduli (GPa) = 43.33405 46.50529 56.75792
#
# Poissons Ratio (x) = 0.36882 0.28813
# Poissons Ratio (y) = 0.34367 0.47591
# Poissons Ratio (z) = 0.21998 0.38994
#
# Static dielectric constant tensor:
#      x y z
#    x 3.266290 0.000000 0.000000 
#    y 0.000000 3.211410 0.000000 
#    z 0.000000 0.000000 3.088000 
# 
# 
# High freq. dielectric constant tensor:
#      x y z
#    x 1.654850 0.000000 0.000000 
#    y 0.000000 1.638480 0.000000 
#    z 0.000000 0.000000 1.626050 
# 
# From -- ./inp_files/41079.got.cif
#   From: 2010.03.12/outbox.cif.g09.slc.cpg/sg65_21_cif.got.tgz:41079.got - 2010.04.10 20:52:16.
