data_PCOD8267723
_publ_section_title
;
Structure prediction by ZEFSAII (Michael W. Deem and Ramdas Pophale) SiO2 
 PCOD8267723
Probable space group: C M M M
;
_chemical_formula_sum "Si O2"
_cell_formula_units_Z 80
_cell_length_a 25.482090
_cell_length_b 17.492058
_cell_length_c 11.945368
_cell_angle_alpha 90.000000
_cell_angle_beta 90.000000
_cell_angle_gamma 90.000000
_cell_volume 5324.459004
_symmetry_space_group_name_H-M "C M M M"
_symmetry_group_IT_number 65
_symmetry_cell_setting 'orthorhombic'
loop_
_space_group_symop_operation_xyz
x,y,z
-x,-y,z
x,-y,-z
-x,y,-z
-x,-y,-z
x,y,-z
-x,y,z
x,-y,z
1/2+x,1/2+y,z
1/2-x,1/2-y,z
1/2+x,1/2-y,-z
1/2-x,1/2+y,-z
1/2-x,1/2-y,-z
1/2+x,1/2+y,-z
1/2-x,1/2+y,z
1/2+x,1/2-y,z
loop_
_atom_site_type_symbol
_atom_site_label
_atom_site_fract_x
_atom_site_fract_y
_atom_site_fract_z
Si Si1 0.381238 0.589702 0.000000
Si Si2 0.252213 0.411189 0.766878
Si Si3 0.350854 0.351378 0.367856
Si Si4 0.228593 0.836908 0.000000
Si Si5 0.441400 0.589362 0.227064
Si Si6 0.697413 0.799713 0.377567
O O1 0.334253 0.651304 0.000000
O O2 0.415892 0.608033 0.892161
O O3 0.361843 0.500000 0.000000
O O4 0.240503 0.500000 0.770390
O O5 0.307350 0.397189 0.703752
O O6 0.203175 0.370770 0.705350
O O7 0.250288 0.378739 0.891019
O O8 0.342303 0.368496 0.500000
O O9 0.408363 0.375786 0.329193
O O10 0.347767 0.260267 0.342671
O O11 0.250000 0.750000 0.000000
O O12 0.500000 0.624357 0.230069
O O13 0.443892 0.500000 0.246793
O O14 0.686391 0.834109 0.500000
O O15 0.750000 0.750000 0.377322
#
# Coordination Sequence:
#
# PCOD8267723 Si02
#       6
#     8  16  16   8  16  16
#     4  10  19  34  50  65  88 123 157 184 221 270
#     4  11  20  30  45  67  92 119 153 188 225 271
#     4  10  19  31  46  64  91 125 156 187 225 269
#     4  12  22  31  47  68  91 122 154 184 224 270
#     4  10  20  32  47  66  89 119 157 198 230 259
#     4   8  16  30  45  62  87 120 153 182 219 270
#
# _framework density 15.025
#
# number of rings (size 3 to 8) (size 9 to 14) (size 15 to 20)
#    0.000    2.000    2.000    5.400    0.000    4.400 
#    0.000    1.000    0.000    0.000    0.000    0.000 
#    0.000    0.800    0.000    6.200    0.000    0.000 
#
# Total GULP energy -495778.219357 kJ/mol
# GULP energy per Si atom -12394.455484 kJ/mol
# Density = 1.499080 g / cm^3
# Si number density = 15.025000 Si / 1000 Ang^3
#
#
#
# Elastic Constant Matrix: (Units=GPa)
#
#
# Indices 1 2 3 4 5 6 
#
# 1 60.5668 34.5026 27.3011 0.0000 0.0000 0.0000
# 2 34.5026 97.3481 54.6845 0.0000 0.0000 0.0000
# 3 27.3011 54.6845 104.4722 0.0000 0.0000 0.0000
# 4 0.0000 0.0000 0.0000 14.6151 0.0000 0.0000
# 5 0.0000 0.0000 0.0000 0.0000 15.7547 0.0000
# 6 0.0000 0.0000 0.0000 0.0000 0.0000 21.7025
#
#
#
# Elastic Compliance Matrix: (Units=1/GPa)
#
#
# Indices 1 2 3 4 5 6 
#
# 1 0.021058 -0.006193 -0.002261 0.000000 0.000000 0.000000
# 2 -0.006193 0.016372 -0.006951 0.000000 0.000000 0.000000
# 3 -0.002261 -0.006951 0.013801 0.000000 0.000000 0.000000
# 4 0.000000 0.000000 0.000000 0.068423 0.000000 0.000000
# 5 0.000000 0.000000 0.000000 0.000000 0.063473 0.000000
# 6 0.000000 0.000000 0.000000 0.000000 0.000000 0.046078
#
#
# Mechanical properties :
#
#
# Convention : Reuss Voigt Hill
#
# Bulk Modulus (GPa) = 48.97149 55.04041 52.00595
# Shear Modulus (GPa) = 18.73897 20.14105 19.44001
#
# Velocity S-wave (km/s) = 3.53538 3.66526 3.60091
# Velocity P-wave (km/s) = 7.02349 7.39082 7.20949
#
# Compressibility (1/GPa) = 0.02042004
#
# Stress axis : x y z
#
# Youngs Moduli (GPa) = 47.48788 61.07847 72.45613
#
# Poissons Ratio (x) = 0.37828 0.16384
# Poissons Ratio (y) = 0.29411 0.50367
# Poissons Ratio (z) = 0.10738 0.42458
#
# Static dielectric constant tensor:
#      x y z
#    x 2.861330 0.000000 0.000000 
#    y 0.000000 2.961210 0.000000 
#    z 0.000000 0.000000 3.129210 
# 
# 
# High freq. dielectric constant tensor:
#      x y z
#    x 1.538930 0.000000 0.000000 
#    y 0.000000 1.557410 0.000000 
#    z 0.000000 0.000000 1.597740 
# 
# From -- ./inp_files/27038.got.cif
#   From: 2010.03.12/outbox.cif.g09.slc.cpg/sg65_14_cif.got.tgz:27038.got - 2010.04.10 20:52:16.
