data_PCOD8267782
_publ_section_title
;
Structure prediction by ZEFSAII (Michael W. Deem and Ramdas Pophale) SiO2 
 PCOD8267782
Probable space group: C M M M
;
_chemical_formula_sum "Si O2"
_cell_formula_units_Z 80
_cell_length_a 18.794217
_cell_length_b 9.191162
_cell_length_c 26.122588
_cell_angle_alpha 90.000000
_cell_angle_beta 90.000000
_cell_angle_gamma 90.000000
_cell_volume 4512.433957
_symmetry_space_group_name_H-M "C M M M"
_symmetry_group_IT_number 65
_symmetry_cell_setting 'orthorhombic'
loop_
_space_group_symop_operation_xyz
x,y,z
-x,-y,z
x,-y,-z
-x,y,-z
-x,-y,-z
x,y,-z
-x,y,z
x,-y,z
1/2+x,1/2+y,z
1/2-x,1/2-y,z
1/2+x,1/2-y,-z
1/2-x,1/2+y,-z
1/2-x,1/2-y,-z
1/2+x,1/2+y,-z
1/2-x,1/2+y,z
1/2+x,1/2-y,z
loop_
_atom_site_type_symbol
_atom_site_label
_atom_site_fract_x
_atom_site_fract_y
_atom_site_fract_z
Si Si1 0.920842 0.173005 0.093136
Si Si2 0.915102 0.663668 0.697775
Si Si3 0.584816 0.664572 0.400932
Si Si4 0.825018 0.826638 0.000000
Si Si5 0.415303 0.337854 0.794465
Si Si6 0.415169 0.835215 0.500000
O O1 0.867315 0.229632 0.049884
O O2 0.892865 0.222481 0.149372
O O3 0.000000 0.236155 0.082370
O O4 0.925310 0.000000 0.092142
O O5 0.885818 0.500000 0.693065
O O6 0.886212 0.756856 0.650007
O O7 0.885057 0.732672 0.750361
O O8 0.000000 0.664332 0.697976
O O9 0.500000 0.663824 0.401140
O O10 0.614170 0.500000 0.402477
O O11 0.613903 0.751868 0.450039
O O12 0.750000 0.750000 0.000000
O O13 0.815859 0.000000 0.000000
O O14 0.500000 0.344448 0.792117
O O15 0.384584 0.500000 0.785248
O O16 0.500000 0.836263 0.500000
O O17 0.385875 0.000000 0.500000
#
# Coordination Sequence:
#
# PCOD8267782 Si02
#       6
#    16  16  16   8  16   8
#     4   8  14  26  46  67  83 106 144 182 210 244
#     4   9  15  21  29  43  63  85 108 139 186 239
#     4   9  15  21  28  37  51  75 108 145 184 227
#     4  10  19  31  47  67  91 116 142 174 212 254
#     4   8  13  22  36  53  70  88 116 156 197 234
#     4   9  15  21  27  35  49  71 103 145 190 233
#
# _framework density 17.728791000000001
#
# number of rings (size 3 to 8) (size 9 to 14) (size 15 to 20)
#    0.000    3.300    0.000    3.000    0.000    7.200 
#    0.000    1.000    0.000    2.400    0.000    0.000 
#    0.000    0.000    0.000    0.000    0.000    0.000 
#
# Total GULP energy -495765.074718 kJ/mol
# GULP energy per Si atom -12394.126868 kJ/mol
# Density = 1.768844 g / cm^3
# Si number density = 17.728791 Si / 1000 Ang^3
#
#
#
# Elastic Constant Matrix: (Units=GPa)
#
#
# Indices 1 2 3 4 5 6 
#
# 1 30.4060 18.0258 34.9440 0.0000 0.0000 0.0000
# 2 18.0258 121.3417 84.3489 0.0000 0.0000 0.0000
# 3 34.9440 84.3489 200.1358 0.0000 0.0000 0.0000
# 4 0.0000 0.0000 0.0000 21.1608 0.0000 0.0000
# 5 0.0000 0.0000 0.0000 0.0000 0.8899 0.0000
# 6 0.0000 0.0000 0.0000 0.0000 0.0000 9.4069
#
#
#
# Elastic Compliance Matrix: (Units=1/GPa)
#
#
# Indices 1 2 3 4 5 6 
#
# 1 0.041360 -0.001590 -0.006551 0.000000 0.000000 0.000000
# 2 -0.001590 0.011717 -0.004661 0.000000 0.000000 0.000000
# 3 -0.006551 -0.004661 0.008105 0.000000 0.000000 0.000000
# 4 0.000000 0.000000 0.000000 0.047257 0.000000 0.000000
# 5 0.000000 0.000000 0.000000 0.000000 1.123760 0.000000
# 6 0.000000 0.000000 0.000000 0.000000 0.000000 0.106305
#
#
# Mechanical properties :
#
#
# Convention : Reuss Voigt Hill
#
# Bulk Modulus (GPa) = 28.10746 69.61343 48.86044
# Shear Modulus (GPa) = 3.63381 20.59584 12.11482
#
# Velocity S-wave (km/s) = 1.43322 3.41209 2.61692
# Velocity P-wave (km/s) = 4.31594 7.40771 6.06224
#
# Compressibility (1/GPa) = 0.03557774
#
# Stress axis : x y z
#
# Youngs Moduli (GPa) = 24.17791 85.34452 123.38414
#
# Poissons Ratio (x) = 0.13571 0.80834
# Poissons Ratio (y) = 0.03845 0.57505
# Poissons Ratio (z) = 0.15840 0.39776
#
# Static dielectric constant tensor:
#      x y z
#    x 2.505480 0.000000 0.000000 
#    y 0.000000 3.267460 0.000000 
#    z 0.000000 0.000000 3.759010 
# 
# 
# High freq. dielectric constant tensor:
#      x y z
#    x 1.591580 0.000000 0.000000 
#    y 0.000000 1.673260 0.000000 
#    z 0.000000 0.000000 1.710500 
# 
# From -- ./inp_files/70814.got.cif
#   From: 2010.03.12/outbox.cif.g09.slc.cpg/sg65_36_cif.got.tgz:70814.got - 2010.04.10 20:52:16.
