data_PCOD8267819
_publ_section_title
;
Structure prediction by ZEFSAII (Michael W. Deem and Ramdas Pophale) SiO2 
 PCOD8267819
Probable space group: C M M M
;
_chemical_formula_sum "Si O2"
_cell_formula_units_Z 104
_cell_length_a 8.916572
_cell_length_b 28.519869
_cell_length_c 23.299863
_cell_angle_alpha 90.000000
_cell_angle_beta 90.000000
_cell_angle_gamma 90.000000
_cell_volume 5925.142704
_symmetry_space_group_name_H-M "C M M M"
_symmetry_group_IT_number 65
_symmetry_cell_setting 'orthorhombic'
loop_
_space_group_symop_operation_xyz
x,y,z
-x,-y,z
x,-y,-z
-x,y,-z
-x,-y,-z
x,y,-z
-x,y,z
x,-y,z
1/2+x,1/2+y,z
1/2-x,1/2-y,z
1/2+x,1/2-y,-z
1/2-x,1/2+y,-z
1/2-x,1/2-y,-z
1/2+x,1/2+y,-z
1/2-x,1/2+y,z
1/2+x,1/2-y,z
loop_
_atom_site_type_symbol
_atom_site_label
_atom_site_fract_x
_atom_site_fract_y
_atom_site_fract_z
Si Si1 0.321922 0.103860 0.113143
Si Si2 0.177739 0.110402 0.670939
Si Si3 0.672313 0.055371 0.771237
Si Si4 0.322007 0.552354 0.436513
Si Si5 0.820770 0.446623 0.000000
Si Si6 0.176424 0.297877 0.713091
Si Si7 0.675517 0.202627 0.845567
O O1 0.500000 0.102604 0.110836
O O2 0.267166 0.074452 0.168037
O O3 0.266567 0.157848 0.118138
O O4 0.255873 0.080180 0.055780
O O5 0.223719 0.076064 0.722079
O O6 0.237959 0.088024 0.611510
O O7 0.256264 0.160452 0.675621
O O8 0.000000 0.117007 0.671649
O O9 0.500000 0.071457 0.761138
O O10 0.687361 0.000000 0.771356
O O11 0.269166 0.568979 0.500000
O O12 0.500000 0.550685 0.433893
O O13 0.259374 0.500000 0.424085
O O14 0.761793 0.500000 0.000000
O O15 0.000000 0.446121 0.000000
O O16 0.250000 0.250000 0.690760
O O17 0.219506 0.306475 0.779466
O O18 0.000000 0.295244 0.703877
O O19 0.500000 0.209341 0.852241
O O20 0.750000 0.250000 0.869645
#
# Coordination Sequence:
#
# PCOD8267819 Si02
#       7
#    16  16  16  16   8  16  16
#     4   9  16  29  45  67  96 127 161 204 251 293
#     4  11  20  30  49  77 104 129 164 207 250 298
#     4  10  19  31  47  68  99 134 164 202 255 304
#     4   8  15  29  48  70  99 135 171 206 244 288
#     4   9  16  26  45  70  93 123 167 209 242 287
#     4  10  19  33  51  73 102 133 165 201 249 303
#     4   9  17  30  48  68  95 125 156 195 242 295
#
# _framework density 17.552320000000002
#
# number of rings (size 3 to 8) (size 9 to 14) (size 15 to 20)
#    0.000    2.538    1.538    2.308    0.000    3.385 
#    0.000    0.385    0.000    2.308    0.000    7.000 
#    0.000    3.692    0.000    0.000    0.000    0.000 
#
# Total GULP energy -644719.055601 kJ/mol
# GULP energy per Si atom -12398.443377 kJ/mol
# Density = 1.751237 g / cm^3
# Si number density = 17.552320 Si / 1000 Ang^3
#
#
#
# Elastic Constant Matrix: (Units=GPa)
#
#
# Indices 1 2 3 4 5 6 
#
# 1 35.5115 33.6086 26.5651 0.0000 0.0000 0.0000
# 2 33.6086 158.4131 84.2615 0.0000 0.0000 0.0000
# 3 26.5651 84.2615 133.2083 0.0000 0.0000 0.0000
# 4 0.0000 0.0000 0.0000 31.7674 0.0000 0.0000
# 5 0.0000 0.0000 0.0000 0.0000 -473.5817 0.0000
# 6 0.0000 0.0000 0.0000 0.0000 0.0000 27.7797
#
#
#
# Elastic Compliance Matrix: (Units=1/GPa)
#
#
# Indices 1 2 3 4 5 6 
#
# 1 0.036328 -0.005808 -0.003571 0.000000 0.000000 0.000000
# 2 -0.005808 0.010442 -0.005447 0.000000 0.000000 0.000000
# 3 -0.003571 -0.005447 0.011665 0.000000 0.000000 0.000000
# 4 0.000000 0.000000 0.000000 0.031479 0.000000 0.000000
# 5 0.000000 0.000000 0.000000 0.000000 -0.002112 0.000000
# 6 0.000000 0.000000 0.000000 0.000000 0.000000 0.035998
#
#
# Mechanical properties :
#
#
# Convention : Reuss Voigt Hill
#
# Bulk Modulus (GPa) = 34.74255 68.44480 51.59368
# Shear Modulus (GPa) = 30.66636 -70.62709 -19.98037
#
# Velocity S-wave (km/s) = 4.18441 -6.35023 -3.37758
# Velocity P-wave (km/s) = 6.57134 3.83247 3.77456
#
# Compressibility (1/GPa) = 0.02878315
#
# Stress axis : x y z
#
# Youngs Moduli (GPa) = 27.52713 95.76637 85.72894
#
# Poissons Ratio (x) = 0.55619 0.30613
# Poissons Ratio (y) = 0.15987 0.46696
# Poissons Ratio (z) = 0.09830 0.52164
#
# Static dielectric constant tensor:
#      x y z
#    x 2.979630 0.000000 0.000000 
#    y 0.000000 3.474600 0.000000 
#    z 0.000000 0.000000 3.391430 
# 
# 
# High freq. dielectric constant tensor:
#      x y z
#    x 1.642160 0.000000 0.000000 
#    y 0.000000 1.691640 0.000000 
#    z 0.000000 0.000000 1.664580 
# 
# From -- ./inp_files/60909.got.cif
#   From: 2010.03.12/outbox.cif.g09.slc.cpg/sg65_31_cif.got.tgz:60909.got - 2010.04.10 20:52:16.
