data_PCOD8267596
_publ_section_title
;
Structure prediction by ZEFSAII (Michael W. Deem and Ramdas Pophale) SiO2 
 PCOD8267596
Probable space group: C M M M
;
_chemical_formula_sum "Si O2"
_cell_formula_units_Z 120
_cell_length_a 27.318638
_cell_length_b 8.733777
_cell_length_c 26.350819
_cell_angle_alpha 90.000000
_cell_angle_beta 90.000000
_cell_angle_gamma 90.000000
_cell_volume 6287.170820
_symmetry_space_group_name_H-M "C M M M"
_symmetry_group_IT_number 65
_symmetry_cell_setting 'orthorhombic'
loop_
_space_group_symop_operation_xyz
x,y,z
-x,-y,z
x,-y,-z
-x,y,-z
-x,-y,-z
x,y,-z
-x,y,z
x,-y,z
1/2+x,1/2+y,z
1/2-x,1/2-y,z
1/2+x,1/2-y,-z
1/2-x,1/2+y,-z
1/2-x,1/2-y,-z
1/2+x,1/2+y,-z
1/2-x,1/2+y,z
1/2+x,1/2-y,z
loop_
_atom_site_type_symbol
_atom_site_label
_atom_site_fract_x
_atom_site_fract_y
_atom_site_fract_z
Si Si1 0.556948 0.172569 0.704824
Si Si2 0.698731 0.680817 0.249165
Si Si3 0.500000 0.318914 0.558332
Si Si4 0.446458 0.671036 0.806037
Si Si5 0.352198 0.671140 0.144694
Si Si6 0.303770 0.817693 0.357630
Si Si7 0.900797 0.177840 0.613147
Si Si8 0.199488 0.321835 0.943996
O O1 0.500000 0.194219 0.692943
O O2 0.568297 0.207920 0.763094
O O3 0.586633 0.294342 0.671757
O O4 0.574253 0.000000 0.692252
O O5 0.702252 0.500000 0.260188
O O6 0.750000 0.750000 0.232097
O O7 0.664352 0.719299 0.201344
O O8 0.681288 0.764297 0.300738
O O9 0.500000 0.500000 0.566491
O O10 0.500000 0.269658 0.500000
O O11 0.551727 0.255278 0.581850
O O12 0.500000 0.707927 0.827575
O O13 0.443901 0.500000 0.782005
O O14 0.410805 0.682051 0.854053
O O15 0.333105 0.500000 0.132221
O O16 0.338963 0.783680 0.099432
O O17 0.250000 0.750000 0.372654
O O18 0.347614 0.760634 0.395939
O O19 0.300247 0.000000 0.360278
O O20 0.893323 0.000000 0.600802
O O21 0.206764 0.500000 0.947077
O O22 0.250000 0.250000 0.925882
O O23 0.183930 0.258874 0.000000
#
# Coordination Sequence:
#
# PCOD8267596 Si02
#       8
#    16  16   8  16  16  16  16  16
#     4  10  19  30  47  75 110 143 180 220 261 312
#     4  10  19  31  47  72 107 142 179 216 255 309
#     4   9  20  38  61  89 115 143 183 229 280 333
#     4   9  18  32  49  70 101 139 177 213 252 301
#     4  10  20  32  49  73  99 131 169 210 255 305
#     4  11  22  36  54  79 112 150 189 227 266 318
#     4  11  20  34  57  82 110 146 184 226 275 326
#     4  10  21  36  54  75  97 122 155 199 252 310
#
# _framework density 19.086486000000001
#
# number of rings (size 3 to 8) (size 9 to 14) (size 15 to 20)
#    0.000    1.933    0.667    4.800    0.000    5.067 
#    0.000    0.000    0.000    4.000    0.000    2.800 
#    0.000    0.000    0.000    0.000    0.000    0.000 
#
# Total GULP energy -743498.978538 kJ/mol
# GULP energy per Si atom -12391.649642 kJ/mol
# Density = 1.904304 g / cm^3
# Si number density = 19.086486 Si / 1000 Ang^3
#
#
#
# Elastic Constant Matrix: (Units=GPa)
#
#
# Indices 1 2 3 4 5 6 
#
# 1 125.3642 38.0132 63.3831 0.0000 0.0000 0.0000
# 2 38.0132 79.5039 26.6270 0.0000 0.0000 0.0000
# 3 63.3831 26.6270 59.7186 0.0000 0.0000 0.0000
# 4 0.0000 0.0000 0.0000 15.0075 0.0000 0.0000
# 5 0.0000 0.0000 0.0000 0.0000 18.1361 0.0000
# 6 0.0000 0.0000 0.0000 0.0000 0.0000 27.6134
#
#
#
# Elastic Compliance Matrix: (Units=1/GPa)
#
#
# Indices 1 2 3 4 5 6 
#
# 1 0.017641 -0.002544 -0.017590 0.000000 0.000000 0.000000
# 2 -0.002544 0.015153 -0.004056 0.000000 0.000000 0.000000
# 3 -0.017590 -0.004056 0.037223 0.000000 0.000000 0.000000
# 4 0.000000 0.000000 0.000000 0.066634 0.000000 0.000000
# 5 0.000000 0.000000 0.000000 0.000000 0.055139 0.000000
# 6 0.000000 0.000000 0.000000 0.000000 0.000000 0.036214
#
#
# Mechanical properties :
#
#
# Convention : Reuss Voigt Hill
#
# Bulk Modulus (GPa) = 46.21636 57.84816 52.03226
# Shear Modulus (GPa) = 17.63077 21.25561 19.44319
#
# Velocity S-wave (km/s) = 3.04259 3.34076 3.19515
# Velocity P-wave (km/s) = 6.05061 6.72719 6.39785
#
# Compressibility (1/GPa) = 0.02163736
#
# Stress axis : x y z
#
# Youngs Moduli (GPa) = 56.68546 65.99444 26.86532
#
# Poissons Ratio (x) = 0.16788 0.47255
# Poissons Ratio (y) = 0.14420 0.10898
# Poissons Ratio (z) = 0.99707 0.26770
#
# Static dielectric constant tensor:
#      x y z
#    x 3.849100 0.000000 0.000000 
#    y 0.000000 3.514180 0.000000 
#    z 0.000000 0.000000 3.182650 
# 
# 
# High freq. dielectric constant tensor:
#      x y z
#    x 1.756620 0.000000 0.000000 
#    y 0.000000 1.739030 0.000000 
#    z 0.000000 0.000000 1.699090 
# 
# From -- ./inp_files/76122.got.cif
#   From: 2010.03.12/outbox.cif.g09.slc.cpg/sg65_39_cif.got.tgz:76122.got - 2010.04.10 20:52:16.
