data_PCOD8267106
_publ_section_title
;
Structure prediction by ZEFSAII (Michael W. Deem and Ramdas Pophale) SiO2 
 PCOD8267106
Probable space group: C M M M
;
_chemical_formula_sum "Si O2"
_cell_formula_units_Z 72
_cell_length_a 7.708287
_cell_length_b 28.251847
_cell_length_c 23.897325
_cell_angle_alpha 90.000000
_cell_angle_beta 90.000000
_cell_angle_gamma 90.000000
_cell_volume 5204.200401
_symmetry_space_group_name_H-M "C M M M"
_symmetry_group_IT_number 65
_symmetry_cell_setting 'orthorhombic'
loop_
_space_group_symop_operation_xyz
x,y,z
-x,-y,z
x,-y,-z
-x,y,-z
-x,-y,-z
x,y,-z
-x,y,z
x,-y,z
1/2+x,1/2+y,z
1/2-x,1/2-y,z
1/2+x,1/2-y,-z
1/2-x,1/2+y,-z
1/2-x,1/2-y,-z
1/2+x,1/2+y,-z
1/2-x,1/2+y,z
1/2+x,1/2-y,z
loop_
_atom_site_type_symbol
_atom_site_label
_atom_site_fract_x
_atom_site_fract_y
_atom_site_fract_z
Si Si1 0.500000 0.130802 0.566100
Si Si2 0.000000 0.443431 0.063002
Si Si3 0.192837 0.943719 0.860648
Si Si4 0.692678 0.556165 0.264270
Si Si5 0.306350 0.300925 0.566409
Si Si6 0.000000 0.556250 0.657309
O O1 0.500000 0.121183 0.500000
O O2 0.329637 0.159400 0.585881
O O3 0.500000 0.080244 0.596575
O O4 0.169437 0.423418 0.094944
O O5 0.000000 0.500000 0.062636
O O6 0.000000 0.423435 0.000000
O O7 0.237600 0.925089 0.798158
O O8 0.000000 0.926787 0.878253
O O9 0.201267 0.000000 0.860518
O O10 0.500000 0.573417 0.282051
O O11 0.699224 0.500000 0.262936
O O12 0.832238 0.574717 0.308714
O O13 0.303950 0.297657 0.500000
O O14 0.500000 0.313932 0.587839
O O15 0.250000 0.250000 0.591194
O O16 0.000000 0.500000 0.648304
#
# Coordination Sequence:
#
# PCOD8267106 Si02
#       6
#     8   8  16  16  16   8
#     4  10  20  30  41  61  83 103 126 148 184 236
#     4   9  15  19  24  38  61  85 105 131 177 235
#     4   8  13  21  32  44  57  76 108 149 187 220
#     4   8  14  25  40  53  63  83 121 164 197 219
#     4   9  15  26  45  64  80  96 116 147 182 217
#     4  10  19  29  41  55  75 103 130 158 190 228
#
# _framework density 13.834977
#
# number of rings (size 3 to 8) (size 9 to 14) (size 15 to 20)
#    0.000    3.222    1.111    2.000    0.000    4.222 
#    0.000    2.222    0.000    0.000    0.000    6.222 
#    0.000    0.000    0.000    0.000    0.000    0.000 
#
# Total GULP energy -446103.216574 kJ/mol
# GULP energy per Si atom -12391.756016 kJ/mol
# Density = 1.380349 g / cm^3
# Si number density = 13.834977 Si / 1000 Ang^3
#
#
#
# Elastic Constant Matrix: (Units=GPa)
#
#
# Indices 1 2 3 4 5 6 
#
# 1 128.2274 28.2337 53.3097 0.0000 0.0000 0.0000
# 2 28.2337 28.9240 26.2253 0.0000 0.0000 0.0000
# 3 53.3097 26.2253 73.0504 0.0000 0.0000 0.0000
# 4 0.0000 0.0000 0.0000 1.2861 0.0000 0.0000
# 5 0.0000 0.0000 0.0000 0.0000 10.9930 0.0000
# 6 0.0000 0.0000 0.0000 0.0000 0.0000 8.9123
#
#
#
# Elastic Compliance Matrix: (Units=1/GPa)
#
#
# Indices 1 2 3 4 5 6 
#
# 1 0.011753 -0.005479 -0.006610 0.000000 0.000000 0.000000
# 2 -0.005479 0.053813 -0.015320 0.000000 0.000000 0.000000
# 3 -0.006610 -0.015320 0.024013 0.000000 0.000000 0.000000
# 4 0.000000 0.000000 0.000000 0.777553 0.000000 0.000000
# 5 0.000000 0.000000 0.000000 0.000000 0.090967 0.000000
# 6 0.000000 0.000000 0.000000 0.000000 0.000000 0.112204
#
#
# Mechanical properties :
#
#
# Convention : Reuss Voigt Hill
#
# Bulk Modulus (GPa) = 28.76901 49.52656 39.14778
# Shear Modulus (GPa) = 4.39866 12.40049 8.39958
#
# Velocity S-wave (km/s) = 1.78502 2.99710 2.46667
# Velocity P-wave (km/s) = 5.00878 6.91756 6.03906
#
# Compressibility (1/GPa) = 0.03475963
#
# Stress axis : x y z
#
# Youngs Moduli (GPa) = 85.08343 18.58299 41.64437
#
# Poissons Ratio (x) = 0.10182 0.27527
# Poissons Ratio (y) = 0.46621 0.63800
# Poissons Ratio (z) = 0.56240 0.28469
#
# Static dielectric constant tensor:
#      x y z
#    x 3.192910 0.000000 0.000000 
#    y 0.000000 2.158270 0.000000 
#    z 0.000000 0.000000 2.643700 
# 
# 
# High freq. dielectric constant tensor:
#      x y z
#    x 1.552410 0.000000 0.000000 
#    y 0.000000 1.450670 0.000000 
#    z 0.000000 0.000000 1.506340 
# 
# From -- ./inp_files/59551.got.cif
#   From: 2010.03.12/outbox.cif.g09.slc.cpg/sg65_30_cif.got.tgz:59551.got - 2010.04.10 20:52:16.
