data_PCOD8267522
_publ_section_title
;
Structure prediction by ZEFSAII (Michael W. Deem and Ramdas Pophale) SiO2 
 PCOD8267522
Probable space group: C M M M
;
_chemical_formula_sum "Si O2"
_cell_formula_units_Z 72
_cell_length_a 37.144321
_cell_length_b 14.323680
_cell_length_c 7.840716
_cell_angle_alpha 90.000000
_cell_angle_beta 90.000000
_cell_angle_gamma 90.000000
_cell_volume 4171.600947
_symmetry_space_group_name_H-M "C M M M"
_symmetry_group_IT_number 65
_symmetry_cell_setting 'orthorhombic'
loop_
_space_group_symop_operation_xyz
x,y,z
-x,-y,z
x,-y,-z
-x,y,-z
-x,-y,-z
x,y,-z
-x,y,z
x,-y,z
1/2+x,1/2+y,z
1/2-x,1/2-y,z
1/2+x,1/2-y,-z
1/2-x,1/2+y,-z
1/2-x,1/2-y,-z
1/2+x,1/2+y,-z
1/2-x,1/2+y,z
1/2+x,1/2-y,z
loop_
_atom_site_type_symbol
_atom_site_label
_atom_site_fract_x
_atom_site_fract_y
_atom_site_fract_z
Si Si1 0.731328 0.607532 0.697805
Si Si2 0.408377 0.390361 0.697825
Si Si3 0.460055 0.610198 0.000000
Si Si4 0.162641 0.789804 0.694657
Si Si5 0.190191 0.603771 0.804842
O O1 0.736778 0.632133 0.500000
O O2 0.721949 0.500000 0.727461
O O3 0.698358 0.665772 0.781159
O O4 0.768352 0.635749 0.789330
O O5 0.418210 0.365693 0.500000
O O6 0.399932 0.500000 0.715104
O O7 0.373943 0.333116 0.769087
O O8 0.440314 0.358754 0.824767
O O9 0.463089 0.500000 0.000000
O O10 0.500000 0.655178 0.000000
O O11 0.163280 0.821105 0.500000
O O12 0.163813 0.677558 0.713439
O O13 0.185188 0.500000 0.723043
O O14 0.178815 0.601201 0.000000
#
# Coordination Sequence:
#
# PCOD8267522 Si02
#       5
#    16  16   8  16  16
#     4   9  17  30  46  62  84 116 154 195 237 282
#     4   9  18  32  49  73 103 129 157 193 229 272
#     4   9  18  32  50  74 102 133 163 183 214 270
#     4  10  19  30  47  67  87 118 157 195 239 282
#     4  10  21  33  42  58  86 119 158 202 243 282
#
# _framework density 17.25956
#
# number of rings (size 3 to 8) (size 9 to 14) (size 15 to 20)
#    0.000    2.556    0.000    2.000    1.556    8.000 
#    0.000    2.222    0.000    0.000    0.000    0.000 
#    0.000    1.778    0.000    4.889    0.000    0.222 
#
# Total GULP energy -446227.973400 kJ/mol
# GULP energy per Si atom -12395.221483 kJ/mol
# Density = 1.722028 g / cm^3
# Si number density = 17.259560 Si / 1000 Ang^3
#
#
#
# Elastic Constant Matrix: (Units=GPa)
#
#
# Indices 1 2 3 4 5 6 
#
# 1 107.8053 57.9918 34.1783 0.0000 0.0000 0.0000
# 2 57.9918 71.5387 19.9184 0.0000 0.0000 0.0000
# 3 34.1783 19.9184 56.7226 0.0000 0.0000 0.0000
# 4 0.0000 0.0000 0.0000 16.2177 0.0000 0.0000
# 5 0.0000 0.0000 0.0000 0.0000 7.3205 0.0000
# 6 0.0000 0.0000 0.0000 0.0000 0.0000 15.9163
#
#
#
# Elastic Compliance Matrix: (Units=1/GPa)
#
#
# Indices 1 2 3 4 5 6 
#
# 1 0.018368 -0.013088 -0.006472 0.000000 0.000000 0.000000
# 2 -0.013088 0.024819 -0.000829 0.000000 0.000000 0.000000
# 3 -0.006472 -0.000829 0.021820 0.000000 0.000000 0.000000
# 4 0.000000 0.000000 0.000000 0.061661 0.000000 0.000000
# 5 0.000000 0.000000 0.000000 0.000000 0.136602 0.000000
# 6 0.000000 0.000000 0.000000 0.000000 0.000000 0.062829
#
#
# Mechanical properties :
#
#
# Convention : Reuss Voigt Hill
#
# Bulk Modulus (GPa) = 41.27177 51.13818 46.20497
# Shear Modulus (GPa) = 13.33495 16.15610 14.74552
#
# Velocity S-wave (km/s) = 2.78261 3.06284 2.92608
# Velocity P-wave (km/s) = 5.85561 6.49625 6.18423
#
# Compressibility (1/GPa) = 0.02422964
#
# Stress axis : x y z
#
# Youngs Moduli (GPa) = 54.44172 40.29193 45.82851
#
# Poissons Ratio (x) = 0.52734 0.29660
# Poissons Ratio (y) = 0.71253 0.03799
# Poissons Ratio (z) = 0.35234 0.03340
#
# Static dielectric constant tensor:
#      x y z
#    x 3.202850 0.000000 0.000000 
#    y 0.000000 3.155200 0.000000 
#    z 0.000000 0.000000 3.149160 
# 
# 
# High freq. dielectric constant tensor:
#      x y z
#    x 1.632150 0.000000 0.000000 
#    y 0.000000 1.648450 0.000000 
#    z 0.000000 0.000000 1.664220 
# 
# From -- ./inp_files/7651.got.cif
#   From: 2010.03.12/outbox.cif.g09.slc.cpg/sg65_4_cif.got.tgz:7651.got - 2010.04.10 20:52:16.
