data_PCOD8267450
_publ_section_title
;
Structure prediction by ZEFSAII (Michael W. Deem and Ramdas Pophale) SiO2 
 PCOD8267450
Probable space group: C M M M
;
_chemical_formula_sum "Si O2"
_cell_formula_units_Z 88
_cell_length_a 9.202264
_cell_length_b 18.831024
_cell_length_c 28.211639
_cell_angle_alpha 90.000000
_cell_angle_beta 90.000000
_cell_angle_gamma 90.000000
_cell_volume 4888.740029
_symmetry_space_group_name_H-M "C M M M"
_symmetry_group_IT_number 65
_symmetry_cell_setting 'orthorhombic'
loop_
_space_group_symop_operation_xyz
x,y,z
-x,-y,z
x,-y,-z
-x,y,-z
-x,-y,-z
x,y,-z
-x,y,z
x,-y,z
1/2+x,1/2+y,z
1/2-x,1/2-y,z
1/2+x,1/2-y,-z
1/2-x,1/2+y,-z
1/2-x,1/2-y,-z
1/2+x,1/2+y,-z
1/2-x,1/2+y,z
1/2+x,1/2-y,z
loop_
_atom_site_type_symbol
_atom_site_label
_atom_site_fract_x
_atom_site_fract_y
_atom_site_fract_z
Si Si1 0.673027 0.674895 0.138286
Si Si2 0.330025 0.677883 0.309588
Si Si3 0.327825 0.420724 0.225880
Si Si4 0.670046 0.678139 0.583163
Si Si5 0.672594 0.421549 0.500000
Si Si6 0.327498 0.579278 0.052746
O O1 0.500000 0.685731 0.138345
O O2 0.750000 0.750000 0.142603
O O3 0.725875 0.626279 0.181851
O O4 0.730208 0.636320 0.090563
O O5 0.500000 0.692412 0.303103
O O6 0.250000 0.750000 0.295418
O O7 0.275834 0.615592 0.274839
O O8 0.292399 0.654368 0.363231
O O9 0.500000 0.426388 0.224585
O O10 0.260337 0.500000 0.222903
O O11 0.500000 0.691978 0.576791
O O12 0.750000 0.750000 0.569294
O O13 0.726817 0.617840 0.547456
O O14 0.741398 0.500000 0.500000
O O15 0.500000 0.425977 0.500000
O O16 0.500000 0.577256 0.054935
O O17 0.269025 0.500000 0.064876
O O18 0.275114 0.601787 0.000000
#
# Coordination Sequence:
#
# PCOD8267450 Si02
#       6
#    16  16  16  16   8  16
#     4  10  19  30  46  67  90 116 145 179 218 257
#     4   9  17  29  46  67  89 113 142 177 216 257
#     4   9  17  29  46  67  88 112 146 184 216 250
#     4   9  17  29  46  66  87 114 145 176 213 257
#     4   9  17  28  43  65  90 113 142 182 220 251
#     4   8  14  26  45  67  88 112 146 184 216 250
#
# _framework density 18.000547999999998
#
# number of rings (size 3 to 8) (size 9 to 14) (size 15 to 20)
#    0.000    3.000    0.000    1.909    0.000    3.273 
#    0.000    3.636    0.000    4.909    0.000    6.364 
#    0.000    0.000    0.000    0.000    0.000    0.000 
#
# Total GULP energy -545452.389723 kJ/mol
# GULP energy per Si atom -12396.645221 kJ/mol
# Density = 1.795958 g / cm^3
# Si number density = 18.000548 Si / 1000 Ang^3
#
#
#
# Elastic Constant Matrix: (Units=GPa)
#
#
# Indices 1 2 3 4 5 6 
#
# 1 16.3778 28.1345 21.7811 0.0000 0.0000 0.0000
# 2 28.1345 182.2478 114.7943 0.0000 0.0000 0.0000
# 3 21.7811 114.7943 157.2871 0.0000 0.0000 0.0000
# 4 0.0000 0.0000 0.0000 37.8314 0.0000 0.0000
# 5 0.0000 0.0000 0.0000 0.0000 11.5411 0.0000
# 6 0.0000 0.0000 0.0000 0.0000 0.0000 23.5906
#
#
#
# Elastic Compliance Matrix: (Units=1/GPa)
#
#
# Indices 1 2 3 4 5 6 
#
# 1 0.084455 -0.010496 -0.004035 0.000000 0.000000 0.000000
# 2 -0.010496 0.011460 -0.006911 0.000000 0.000000 0.000000
# 3 -0.004035 -0.006911 0.011960 0.000000 0.000000 0.000000
# 4 0.000000 0.000000 0.000000 0.026433 0.000000 0.000000
# 5 0.000000 0.000000 0.000000 0.000000 0.086647 0.000000
# 6 0.000000 0.000000 0.000000 0.000000 0.000000 0.042390
#
#
# Mechanical properties :
#
#
# Convention : Reuss Voigt Hill
#
# Bulk Modulus (GPa) = 15.38649 76.14807 45.76728
# Shear Modulus (GPa) = 15.24889 27.33947 21.29418
#
# Velocity S-wave (km/s) = 2.91372 3.90142 3.44317
# Velocity P-wave (km/s) = 4.45937 7.91769 6.42557
#
# Compressibility (1/GPa) = 0.06499208
#
# Stress axis : x y z
#
# Youngs Moduli (GPa) = 11.84063 87.25792 83.61093
#
# Poissons Ratio (x) = 0.91589 0.33734
# Poissons Ratio (y) = 0.12428 0.57780
# Poissons Ratio (z) = 0.04777 0.60301
#
# Static dielectric constant tensor:
#      x y z
#    x 2.822410 0.000000 0.000000 
#    y 0.000000 3.521340 0.000000 
#    z 0.000000 0.000000 3.688060 
# 
# 
# High freq. dielectric constant tensor:
#      x y z
#    x 1.639190 0.000000 0.000000 
#    y 0.000000 1.698780 0.000000 
#    z 0.000000 0.000000 1.716490 
# 
# From -- ./inp_files/74265.got.cif
#   From: 2010.03.12/outbox.cif.g09.slc.cpg/sg65_38_cif.got.tgz:74265.got - 2010.04.10 20:52:16.
