data_PCOD8267536
_publ_section_title
;
Structure prediction by ZEFSAII (Michael W. Deem and Ramdas Pophale) SiO2 
 PCOD8267536
Probable space group: C M M M
;
_chemical_formula_sum "Si O2"
_cell_formula_units_Z 64
_cell_length_a 8.985773
_cell_length_b 16.422931
_cell_length_c 22.235700
_cell_angle_alpha 90.000000
_cell_angle_beta 90.000000
_cell_angle_gamma 90.000000
_cell_volume 3281.382952
_symmetry_space_group_name_H-M "C M M M"
_symmetry_group_IT_number 65
_symmetry_cell_setting 'orthorhombic'
loop_
_space_group_symop_operation_xyz
x,y,z
-x,-y,z
x,-y,-z
-x,y,-z
-x,-y,-z
x,y,-z
-x,y,z
x,-y,z
1/2+x,1/2+y,z
1/2-x,1/2-y,z
1/2+x,1/2-y,-z
1/2-x,1/2+y,-z
1/2-x,1/2-y,-z
1/2+x,1/2+y,-z
1/2-x,1/2+y,z
1/2+x,1/2-y,z
loop_
_atom_site_type_symbol
_atom_site_label
_atom_site_fract_x
_atom_site_fract_y
_atom_site_fract_z
Si Si1 0.823684 0.000000 0.568495
Si Si2 0.176304 0.911114 0.754353
Si Si3 0.677258 0.590556 0.000000
Si Si4 0.176698 0.165569 0.123555
Si Si5 0.676401 0.665573 0.633745
O O1 0.765583 0.084567 0.598540
O O2 0.768421 0.000000 0.500000
O O3 0.000000 0.000000 0.574260
O O4 0.231708 0.890324 0.821411
O O5 0.226394 0.846755 0.703460
O O6 0.000000 0.914519 0.754133
O O7 0.240641 0.000000 0.737612
O O8 0.738978 0.633387 0.059935
O O9 0.741074 0.500000 0.000000
O O10 0.500000 0.590106 0.000000
O O11 0.250000 0.250000 0.137513
O O12 0.000000 0.173109 0.121542
O O13 0.500000 0.674729 0.625963
O O14 0.750000 0.750000 0.610050
#
# Coordination Sequence:
#
# PCOD8267536 Si02
#       5
#     8  16   8  16  16
#     4   9  18  34  55  77 103 138 176 208 243 299
#     4   9  16  29  50  73  95 126 168 206 239 287
#     4   9  17  30  47  67  88 117 160 202 236 279
#     4  10  19  30  47  69  94 122 155 198 244 290
#     4  10  19  33  54  78 104 134 171 212 253 299
#
# _framework density 19.503971
#
# number of rings (size 3 to 8) (size 9 to 14) (size 15 to 20)
#    0.000    2.500    1.250    1.875    0.000    3.500 
#    0.000    0.625    0.000    6.000    0.000    0.000 
#    0.000    0.000    0.000    0.000    0.000    0.000 
#
# Total GULP energy -396533.134052 kJ/mol
# GULP energy per Si atom -12391.660439 kJ/mol
# Density = 1.945958 g / cm^3
# Si number density = 19.503971 Si / 1000 Ang^3
#
#
#
# Elastic Constant Matrix: (Units=GPa)
#
#
# Indices 1 2 3 4 5 6 
#
# 1 12.2608 22.3955 16.3253 0.0000 0.0000 0.0000
# 2 22.3955 162.0981 58.6879 0.0000 0.0000 0.0000
# 3 16.3253 58.6879 138.1586 0.0000 0.0000 0.0000
# 4 0.0000 0.0000 0.0000 35.2407 0.0000 0.0000
# 5 0.0000 0.0000 0.0000 0.0000 7.6831 0.0000
# 6 0.0000 0.0000 0.0000 0.0000 0.0000 26.5160
#
#
#
# Elastic Compliance Matrix: (Units=1/GPa)
#
#
# Indices 1 2 3 4 5 6 
#
# 1 0.116426 -0.013123 -0.008183 0.000000 0.000000 0.000000
# 2 -0.013123 0.008769 -0.002174 0.000000 0.000000 0.000000
# 3 -0.008183 -0.002174 0.009129 0.000000 0.000000 0.000000
# 4 0.000000 0.000000 0.000000 0.028376 0.000000 0.000000
# 5 0.000000 0.000000 0.000000 0.000000 0.130156 0.000000
# 6 0.000000 0.000000 0.000000 0.000000 0.000000 0.037713
#
#
# Mechanical properties :
#
#
# Convention : Reuss Voigt Hill
#
# Bulk Modulus (GPa) = 11.44637 56.37055 33.90846
# Shear Modulus (GPa) = 12.29554 28.22855 20.26205
#
# Velocity S-wave (km/s) = 2.51353 3.80850 3.22664
# Velocity P-wave (km/s) = 3.78222 6.95013 5.59507
#
# Compressibility (1/GPa) = 0.08736396
#
# Stress axis : x y z
#
# Youngs Moduli (GPa) = 8.58912 114.03239 109.54481
#
# Poissons Ratio (x) = 1.49643 0.89640
# Poissons Ratio (y) = 0.11271 0.23820
# Poissons Ratio (z) = 0.07028 0.24796
#
# Static dielectric constant tensor:
#      x y z
#    x 2.896910 0.000000 0.000000 
#    y 0.000000 3.668660 0.000000 
#    z 0.000000 0.000000 3.989230 
# 
# 
# High freq. dielectric constant tensor:
#      x y z
#    x 1.688930 0.000000 0.000000 
#    y 0.000000 1.774280 0.000000 
#    z 0.000000 0.000000 1.773540 
# 
# From -- ./inp_files/66830.got.cif
#   From: 2010.03.12/outbox.cif.g09.slc.cpg/sg65_34_cif.got.tgz:66830.got - 2010.04.10 20:52:16.
