data_PCOD8267757
_publ_section_title
;
Structure prediction by ZEFSAII (Michael W. Deem and Ramdas Pophale) SiO2 
 PCOD8267757
Probable space group: C M M M
;
_chemical_formula_sum "Si O2"
_cell_formula_units_Z 80
_cell_length_a 13.653399
_cell_length_b 26.989516
_cell_length_c 12.923682
_cell_angle_alpha 90.000000
_cell_angle_beta 90.000000
_cell_angle_gamma 90.000000
_cell_volume 4762.359121
_symmetry_space_group_name_H-M "C M M M"
_symmetry_group_IT_number 65
_symmetry_cell_setting 'orthorhombic'
loop_
_space_group_symop_operation_xyz
x,y,z
-x,-y,z
x,-y,-z
-x,y,-z
-x,-y,-z
x,y,-z
-x,y,z
x,-y,z
1/2+x,1/2+y,z
1/2-x,1/2-y,z
1/2+x,1/2-y,-z
1/2-x,1/2+y,-z
1/2-x,1/2-y,-z
1/2+x,1/2+y,-z
1/2-x,1/2+y,z
1/2+x,1/2-y,z
loop_
_atom_site_type_symbol
_atom_site_label
_atom_site_fract_x
_atom_site_fract_y
_atom_site_fract_z
Si Si1 0.390749 0.558778 0.000000
Si Si2 0.280055 0.558155 0.204102
Si Si3 0.886493 0.111367 0.617205
Si Si4 0.615893 0.055217 0.500000
Si Si5 0.732826 0.805004 0.619247
Si Si6 0.614398 0.113162 0.703867
O O1 0.334918 0.577415 0.898081
O O2 0.396832 0.500000 0.000000
O O3 0.500000 0.581483 0.000000
O O4 0.258760 0.500000 0.200382
O O5 0.346226 0.570292 0.303942
O O6 0.175923 0.587165 0.204941
O O7 0.869682 0.091753 0.500000
O O8 0.831937 0.163639 0.633942
O O9 0.000000 0.121131 0.639527
O O10 0.500000 0.052225 0.500000
O O11 0.650943 0.084521 0.600737
O O12 0.661171 0.000000 0.500000
O O13 0.699128 0.802252 0.500000
O O14 0.750000 0.750000 0.663410
O O15 0.645056 0.829732 0.686401
O O16 0.500000 0.108402 0.728190
#
# Coordination Sequence:
#
# PCOD8267757 Si02
#       6
#     8  16  16   8  16  16
#     4   9  18  34  53  71  92 125 171 212 244 285
#     4  10  20  32  49  71  97 129 166 204 242 285
#     4   9  18  31  45  67  98 126 155 195 246 300
#     4   9  16  26  41  62  93 133 168 193 222 272
#     4   9  17  29  45  66  94 129 167 205 243 289
#     4  10  19  31  46  69  99 131 167 201 240 292
#
# _framework density 16.798397000000001
#
# number of rings (size 3 to 8) (size 9 to 14) (size 15 to 20)
#    0.000    2.600    1.000    1.200    1.400    3.600 
#    0.000    3.500    0.000    1.800    0.000   11.200 
#    0.000   12.800    0.000    0.000    0.000    0.000 
#
# Total GULP energy -495965.854864 kJ/mol
# GULP energy per Si atom -12399.146372 kJ/mol
# Density = 1.676016 g / cm^3
# Si number density = 16.798397 Si / 1000 Ang^3
#
#
#
# Elastic Constant Matrix: (Units=GPa)
#
#
# Indices 1 2 3 4 5 6 
#
# 1 125.5775 32.7064 55.7314 0.0000 0.0000 0.0000
# 2 32.7064 95.0497 33.6523 0.0000 0.0000 0.0000
# 3 55.7314 33.6523 84.2132 0.0000 0.0000 0.0000
# 4 0.0000 0.0000 0.0000 9.3919 0.0000 0.0000
# 5 0.0000 0.0000 0.0000 0.0000 26.0430 0.0000
# 6 0.0000 0.0000 0.0000 0.0000 0.0000 18.7210
#
#
#
# Elastic Compliance Matrix: (Units=1/GPa)
#
#
# Indices 1 2 3 4 5 6 
#
# 1 0.011447 -0.001464 -0.006990 0.000000 0.000000 0.000000
# 2 -0.001464 0.012442 -0.004003 0.000000 0.000000 0.000000
# 3 -0.006990 -0.004003 0.018100 0.000000 0.000000 0.000000
# 4 0.000000 0.000000 0.000000 0.106475 0.000000 0.000000
# 5 0.000000 0.000000 0.000000 0.000000 0.038398 0.000000
# 6 0.000000 0.000000 0.000000 0.000000 0.000000 0.053416
#
#
# Mechanical properties :
#
#
# Convention : Reuss Voigt Hill
#
# Bulk Modulus (GPa) = 58.56728 61.00229 59.78479
# Shear Modulus (GPa) = 18.45808 23.01453 20.73631
#
# Velocity S-wave (km/s) = 3.31841 3.70542 3.51725
# Velocity P-wave (km/s) = 7.04436 7.39595 7.22229
#
# Compressibility (1/GPa) = 0.01707438
#
# Stress axis : x y z
#
# Youngs Moduli (GPa) = 87.36044 80.37410 55.24717
#
# Poissons Ratio (x) = 0.11766 0.38620
# Poissons Ratio (y) = 0.12788 0.22116
# Poissons Ratio (z) = 0.61069 0.32174
#
# Static dielectric constant tensor:
#      x y z
#    x 3.214450 0.000000 0.000000 
#    y 0.000000 3.073550 0.000000 
#    z 0.000000 0.000000 3.017530 
# 
# 
# High freq. dielectric constant tensor:
#      x y z
#    x 1.658070 0.000000 0.000000 
#    y 0.000000 1.631260 0.000000 
#    z 0.000000 0.000000 1.615130 
# 
# From -- ./inp_files/25020.got.cif
#   From: 2010.03.12/outbox.cif.g09.slc.cpg/sg65_13_cif.got.tgz:25020.got - 2010.04.10 20:52:16.
