data_PCOD8267286
_publ_section_title
;
Structure prediction by ZEFSAII (Michael W. Deem and Ramdas Pophale) SiO2 
 PCOD8267286
Probable space group: C M M M
;
_chemical_formula_sum "Si O2"
_cell_formula_units_Z 104
_cell_length_a 36.060622
_cell_length_b 8.951746
_cell_length_c 24.769564
_cell_angle_alpha 90.000000
_cell_angle_beta 90.000000
_cell_angle_gamma 90.000000
_cell_volume 7995.752204
_symmetry_space_group_name_H-M "C M M M"
_symmetry_group_IT_number 65
_symmetry_cell_setting 'orthorhombic'
loop_
_space_group_symop_operation_xyz
x,y,z
-x,-y,z
x,-y,-z
-x,y,-z
-x,-y,-z
x,y,-z
-x,y,z
x,-y,z
1/2+x,1/2+y,z
1/2-x,1/2-y,z
1/2+x,1/2-y,-z
1/2-x,1/2+y,-z
1/2-x,1/2-y,-z
1/2+x,1/2+y,-z
1/2-x,1/2+y,z
1/2+x,1/2-y,z
loop_
_atom_site_type_symbol
_atom_site_label
_atom_site_fract_x
_atom_site_fract_y
_atom_site_fract_z
Si Si1 0.955903 0.331988 0.940753
Si Si2 0.213682 0.831795 0.435927
Si Si3 0.071427 0.822306 0.624877
Si Si4 0.500000 0.677502 0.439634
Si Si5 0.543057 0.824731 0.271192
Si Si6 0.638374 0.175074 0.562922
Si Si7 0.955933 0.833388 0.836892
O O1 0.941059 0.500000 0.932698
O O2 0.939169 0.230106 0.893005
O O3 0.000000 0.332345 0.937303
O O4 0.943492 0.271344 0.000000
O O5 0.216432 0.837639 0.500000
O O6 0.250000 0.750000 0.412009
O O7 0.177970 0.737498 0.417966
O O8 0.211228 0.000000 0.412567
O O9 0.036332 0.763070 0.590765
O O10 0.068006 0.760144 0.685197
O O11 0.108015 0.760013 0.597551
O O12 0.073178 0.000000 0.626456
O O13 0.500000 0.500000 0.441115
O O14 0.500000 0.743965 0.500000
O O15 0.500000 0.782521 0.280246
O O16 0.556805 0.770489 0.212592
O O17 0.549761 0.000000 0.275921
O O18 0.631356 0.209661 0.500000
O O19 0.636879 0.000000 0.574995
O O20 0.000000 0.835014 0.840475
O O21 0.940375 0.000000 0.828093
#
# Coordination Sequence:
#
# PCOD8267286 Si02
#       7
#    16  16  16   8  16  16  16
#     4   8  13  21  32  46  65  87 108 131 166 212
#     4   9  16  27  44  64  83 102 121 141 169 209
#     4  11  20  31  45  58  74  94 121 155 190 228
#     4   9  18  30  43  57  71  89 114 147 188 231
#     4  10  19  30  42  53  68  89 117 151 188 226
#     4  10  20  32  44  60  81 101 121 147 180 221
#     4   9  16  24  35  50  66  84 110 142 176 213
#
# _framework density 13.006906000000001
#
# number of rings (size 3 to 8) (size 9 to 14) (size 15 to 20)
#    0.000    2.538    0.769    3.231    0.000    6.154 
#    0.000    1.538    0.000    1.846    0.000    0.000 
#    0.000    0.000    0.000    0.000    0.000    0.000 
#
# Total GULP energy -644698.561726 kJ/mol
# GULP energy per Si atom -12398.049264 kJ/mol
# Density = 1.297730 g / cm^3
# Si number density = 13.006906 Si / 1000 Ang^3
#
#
#
# Elastic Constant Matrix: (Units=GPa)
#
#
# Indices 1 2 3 4 5 6 
#
# 1 62.1061 30.6863 33.5151 0.0000 0.0000 0.0000
# 2 30.6863 82.5238 41.6009 0.0000 0.0000 0.0000
# 3 33.5151 41.6009 88.1968 0.0000 0.0000 0.0000
# 4 0.0000 0.0000 0.0000 22.5951 0.0000 0.0000
# 5 0.0000 0.0000 0.0000 0.0000 1.9121 0.0000
# 6 0.0000 0.0000 0.0000 0.0000 0.0000 17.9185
#
#
#
# Elastic Compliance Matrix: (Units=1/GPa)
#
#
# Indices 1 2 3 4 5 6 
#
# 1 0.021810 -0.005159 -0.005855 0.000000 0.000000 0.000000
# 2 -0.005159 0.017118 -0.006114 0.000000 0.000000 0.000000
# 3 -0.005855 -0.006114 0.016447 0.000000 0.000000 0.000000
# 4 0.000000 0.000000 0.000000 0.044257 0.000000 0.000000
# 5 0.000000 0.000000 0.000000 0.000000 0.522977 0.000000
# 6 0.000000 0.000000 0.000000 0.000000 0.000000 0.055808
#
#
# Mechanical properties :
#
#
# Convention : Reuss Voigt Hill
#
# Bulk Modulus (GPa) = 47.34764 49.38123 48.36443
# Shear Modulus (GPa) = 6.94723 16.95344 11.95033
#
# Velocity S-wave (km/s) = 2.31361 3.61421 3.03441
# Velocity P-wave (km/s) = 6.60439 7.44745 7.03855
#
# Compressibility (1/GPa) = 0.02112038
#
# Stress axis : x y z
#
# Youngs Moduli (GPa) = 45.85123 58.41795 60.80170
#
# Poissons Ratio (x) = 0.30135 0.35597
# Poissons Ratio (y) = 0.23653 0.37174
# Poissons Ratio (z) = 0.26844 0.35717
#
# Static dielectric constant tensor:
#      x y z
#    x 2.329730 0.000000 0.000000 
#    y 0.000000 2.744790 0.000000 
#    z 0.000000 0.000000 2.648220 
# 
# 
# High freq. dielectric constant tensor:
#      x y z
#    x 1.442020 0.000000 0.000000 
#    y 0.000000 1.508880 0.000000 
#    z 0.000000 0.000000 1.480240 
# 
# From -- ./inp_files/72145.got.cif
#   From: 2010.03.12/outbox.cif.g09.slc.cpg/sg65_37_cif.got.tgz:72145.got - 2010.04.10 20:52:16.
