data_PCOD8267218
_publ_section_title
;
Structure prediction by ZEFSAII (Michael W. Deem and Ramdas Pophale) SiO2 
 PCOD8267218
Probable space group: C M M M
;
_chemical_formula_sum "Si O2"
_cell_formula_units_Z 112
_cell_length_a 28.846314
_cell_length_b 14.634747
_cell_length_c 14.451482
_cell_angle_alpha 90.000000
_cell_angle_beta 90.000000
_cell_angle_gamma 90.000000
_cell_volume 6100.816069
_symmetry_space_group_name_H-M "C M M M"
_symmetry_group_IT_number 65
_symmetry_cell_setting 'orthorhombic'
loop_
_space_group_symop_operation_xyz
x,y,z
-x,-y,z
x,-y,-z
-x,y,-z
-x,-y,-z
x,y,-z
-x,y,z
x,-y,z
1/2+x,1/2+y,z
1/2-x,1/2-y,z
1/2+x,1/2-y,-z
1/2-x,1/2+y,-z
1/2-x,1/2-y,-z
1/2+x,1/2+y,-z
1/2-x,1/2+y,z
1/2+x,1/2-y,z
loop_
_atom_site_type_symbol
_atom_site_label
_atom_site_fract_x
_atom_site_fract_y
_atom_site_fract_z
Si Si1 0.772023 0.897743 0.210133
Si Si2 0.908112 0.714339 0.894624
Si Si3 0.051670 0.605332 0.739684
Si Si4 0.138716 0.895643 0.106554
Si Si5 0.765797 0.352324 0.602523
Si Si6 0.368847 0.891835 0.602851
Si Si7 0.684315 0.894822 0.892973
O O1 0.820332 0.857306 0.172952
O O2 0.768130 0.898013 0.321973
O O3 0.726918 0.849984 0.164973
O O4 0.771967 0.000000 0.171158
O O5 0.947119 0.670058 0.829870
O O6 0.903408 0.824040 0.878215
O O7 0.860286 0.664380 0.868916
O O8 0.922529 0.694228 0.000000
O O9 0.062094 0.500000 0.766786
O O10 0.089431 0.643712 0.667070
O O11 0.000000 0.613454 0.696808
O O12 0.123026 0.000000 0.131039
O O13 0.155641 0.890078 0.000000
O O14 0.761766 0.399332 0.500000
O O15 0.750000 0.250000 0.593146
O O16 0.818772 0.357912 0.639077
O O17 0.377643 0.852673 0.500000
O O18 0.368658 0.000000 0.601809
O O19 0.674379 0.000000 0.863229
O O20 0.697615 0.888351 0.000000
#
# Coordination Sequence:
#
# PCOD8267218 Si02
#       7
#    16  16  16  16  16  16  16
#     4  10  19  29  45  66  91 130 170 210 255 291
#     4  10  20  32  49  70  96 135 171 202 249 308
#     4  10  21  35  53  80 108 132 164 208 257 310
#     4   9  19  34  49  69  97 129 170 218 260 296
#     4  10  21  32  44  68 100 134 171 208 245 293
#     4   9  18  34  54  73  99 137 174 208 249 297
#     4   9  17  28  43  68  99 128 164 204 243 298
#
# _framework density 18.358198999999999
#
# number of rings (size 3 to 8) (size 9 to 14) (size 15 to 20)
#    0.000    2.429    0.000    2.143    4.000    6.286 
#    0.000    4.286    0.000    0.429    0.000    2.000 
#    0.000    0.000    0.000    1.286    0.000    0.143 
#
# Total GULP energy -694081.431337 kJ/mol
# GULP energy per Si atom -12394.311274 kJ/mol
# Density = 1.831642 g / cm^3
# Si number density = 18.358199 Si / 1000 Ang^3
#
#
#
# Elastic Constant Matrix: (Units=GPa)
#
#
# Indices 1 2 3 4 5 6 
#
# 1 48.8033 9.8507 30.9219 0.0000 0.0000 0.0000
# 2 9.8507 53.3580 13.1816 0.0000 0.0000 0.0000
# 3 30.9219 13.1816 77.7224 0.0000 0.0000 0.0000
# 4 0.0000 0.0000 0.0000 18.9791 0.0000 0.0000
# 5 0.0000 0.0000 0.0000 0.0000 24.9590 0.0000
# 6 0.0000 0.0000 0.0000 0.0000 0.0000 19.2218
#
#
#
# Elastic Compliance Matrix: (Units=1/GPa)
#
#
# Indices 1 2 3 4 5 6 
#
# 1 0.027712 -0.002497 -0.010602 0.000000 0.000000 0.000000
# 2 -0.002497 0.019786 -0.002362 0.000000 0.000000 0.000000
# 3 -0.010602 -0.002362 0.017485 0.000000 0.000000 0.000000
# 4 0.000000 0.000000 0.000000 0.052689 0.000000 0.000000
# 5 0.000000 0.000000 0.000000 0.000000 0.040066 0.000000
# 6 0.000000 0.000000 0.000000 0.000000 0.000000 0.052024
#
#
# Mechanical properties :
#
#
# Convention : Reuss Voigt Hill
#
# Bulk Modulus (GPa) = 29.35937 31.97689 30.66813
# Shear Modulus (GPa) = 19.83839 21.02730 20.43285
#
# Velocity S-wave (km/s) = 3.29086 3.38803 3.33980
# Velocity P-wave (km/s) = 5.51968 5.72374 5.62263
#
# Compressibility (1/GPa) = 0.03406068
#
# Stress axis : x y z
#
# Youngs Moduli (GPa) = 36.08599 50.54111 57.19262
#
# Poissons Ratio (x) = 0.12620 0.60633
# Poissons Ratio (y) = 0.09011 0.13510
# Poissons Ratio (z) = 0.38257 0.11939
#
# Static dielectric constant tensor:
#      x y z
#    x 3.116020 0.000000 0.000000 
#    y 0.000000 3.423870 0.000000 
#    z 0.000000 0.000000 3.691670 
# 
# 
# High freq. dielectric constant tensor:
#      x y z
#    x 1.679780 0.000000 0.000000 
#    y 0.000000 1.696670 0.000000 
#    z 0.000000 0.000000 1.714560 
# 
# From -- ./inp_files/40821.got.cif
#   From: 2010.03.12/outbox.cif.g09.slc.cpg/sg65_21_cif.got.tgz:40821.got - 2010.04.10 20:52:16.
