data_PCOD8267807
_publ_section_title
;
Structure prediction by ZEFSAII (Michael W. Deem and Ramdas Pophale) SiO2 
 PCOD8267807
Probable space group: C M M M
;
_chemical_formula_sum "Si O2"
_cell_formula_units_Z 88
_cell_length_a 27.111582
_cell_length_b 8.747198
_cell_length_c 21.489301
_cell_angle_alpha 90.000000
_cell_angle_beta 90.000000
_cell_angle_gamma 90.000000
_cell_volume 5096.195809
_symmetry_space_group_name_H-M "C M M M"
_symmetry_group_IT_number 65
_symmetry_cell_setting 'orthorhombic'
loop_
_space_group_symop_operation_xyz
x,y,z
-x,-y,z
x,-y,-z
-x,y,-z
-x,-y,-z
x,y,-z
-x,y,z
x,-y,z
1/2+x,1/2+y,z
1/2-x,1/2-y,z
1/2+x,1/2-y,-z
1/2-x,1/2+y,-z
1/2-x,1/2-y,-z
1/2+x,1/2+y,-z
1/2-x,1/2+y,z
1/2+x,1/2-y,z
loop_
_atom_site_type_symbol
_atom_site_label
_atom_site_fract_x
_atom_site_fract_y
_atom_site_fract_z
Si Si1 0.055757 0.681819 0.932040
Si Si2 0.800425 0.319077 0.740059
Si Si3 0.848438 0.819352 0.377978
Si Si4 0.554971 0.677805 0.691949
Si Si5 0.695586 0.180693 0.500000
Si Si6 0.397884 0.179728 0.192107
O O1 0.056981 0.500000 0.931253
O O2 0.089768 0.748024 0.876304
O O3 0.000000 0.739260 0.921184
O O4 0.074725 0.739919 0.000000
O O5 0.796972 0.500000 0.729955
O O6 0.750000 0.250000 0.767147
O O7 0.810922 0.237966 0.674548
O O8 0.842361 0.273471 0.789755
O O9 0.904497 0.772435 0.359317
O O10 0.835607 0.734023 0.441015
O O11 0.842211 0.000000 0.387039
O O12 0.500000 0.718475 0.667258
O O13 0.560828 0.500000 0.705448
O O14 0.563492 0.760038 0.757386
O O15 0.750000 0.250000 0.500000
O O16 0.700852 0.000000 0.500000
O O17 0.404290 0.000000 0.191323
#
# Coordination Sequence:
#
# PCOD8267807 Si02
#       6
#    16  16  16  16   8  16
#     4   8  13  22  39  65  94 120 148 186 231 275
#     4  10  19  31  47  68  93 120 153 193 237 280
#     4  10  20  35  53  73  97 124 155 189 227 272
#     4   9  18  32  50  72  98 127 156 187 226 273
#     4  12  24  38  55  74  97 123 154 191 233 278
#     4   9  17  28  45  69  93 120 156 196 234 273
#
# _framework density 17.267782
#
# number of rings (size 3 to 8) (size 9 to 14) (size 15 to 20)
#    0.000    2.545    0.000    3.545    0.000    2.545 
#    0.000    0.455    0.000    3.818    0.000    2.545 
#    0.000    0.000    0.000    0.000    0.000    0.545 
#
# Total GULP energy -545455.785609 kJ/mol
# GULP energy per Si atom -12396.722400 kJ/mol
# Density = 1.722848 g / cm^3
# Si number density = 17.267782 Si / 1000 Ang^3
#
#
#
# Elastic Constant Matrix: (Units=GPa)
#
#
# Indices 1 2 3 4 5 6 
#
# 1 122.9337 30.6395 72.0755 0.0000 0.0000 0.0000
# 2 30.6395 50.1316 35.9521 0.0000 0.0000 0.0000
# 3 72.0755 35.9521 154.6862 0.0000 0.0000 0.0000
# 4 0.0000 0.0000 0.0000 10.7541 0.0000 0.0000
# 5 0.0000 0.0000 0.0000 0.0000 25.4354 0.0000
# 6 0.0000 0.0000 0.0000 0.0000 0.0000 21.1916
#
#
#
# Elastic Compliance Matrix: (Units=1/GPa)
#
#
# Indices 1 2 3 4 5 6 
#
# 1 0.011802 -0.003923 -0.004587 0.000000 0.000000 0.000000
# 2 -0.003923 0.025242 -0.004039 0.000000 0.000000 0.000000
# 3 -0.004587 -0.004039 0.009541 0.000000 0.000000 0.000000
# 4 0.000000 0.000000 0.000000 0.092988 0.000000 0.000000
# 5 0.000000 0.000000 0.000000 0.000000 0.039315 0.000000
# 6 0.000000 0.000000 0.000000 0.000000 0.000000 0.047188
#
#
# Mechanical properties :
#
#
# Convention : Reuss Voigt Hill
#
# Bulk Modulus (GPa) = 46.54192 67.23175 56.88684
# Shear Modulus (GPa) = 19.35468 24.08186 21.71827
#
# Velocity S-wave (km/s) = 3.35155 3.73850 3.55030
# Velocity P-wave (km/s) = 6.47987 7.59306 7.05844
#
# Compressibility (1/GPa) = 0.02148601
#
# Stress axis : x y z
#
# Youngs Moduli (GPa) = 84.73352 39.61705 104.81415
#
# Poissons Ratio (x) = 0.15543 0.48079
# Poissons Ratio (y) = 0.33244 0.42330
# Poissons Ratio (z) = 0.38868 0.16000
#
# Static dielectric constant tensor:
#      x y z
#    x 3.435400 0.000000 0.000000 
#    y 0.000000 3.102600 0.000000 
#    z 0.000000 0.000000 3.548870 
# 
# 
# High freq. dielectric constant tensor:
#      x y z
#    x 1.666450 0.000000 0.000000 
#    y 0.000000 1.655750 0.000000 
#    z 0.000000 0.000000 1.659290 
# 
# From -- ./inp_files/57968.got.cif
#   From: 2010.03.12/outbox.cif.g09.slc.cpg/sg65_29_cif.got.tgz:57968.got - 2010.04.10 20:52:16.
