data_PCOD8267076
_publ_section_title
;
Structure prediction by ZEFSAII (Michael W. Deem and Ramdas Pophale) SiO2 
 PCOD8267076
Probable space group: C M M M
;
_chemical_formula_sum "Si O2"
_cell_formula_units_Z 88
_cell_length_a 13.797230
_cell_length_b 27.023312
_cell_length_c 15.629240
_cell_angle_alpha 90.000000
_cell_angle_beta 90.000000
_cell_angle_gamma 90.000000
_cell_volume 5827.312918
_symmetry_space_group_name_H-M "C M M M"
_symmetry_group_IT_number 65
_symmetry_cell_setting 'orthorhombic'
loop_
_space_group_symop_operation_xyz
x,y,z
-x,-y,z
x,-y,-z
-x,y,-z
-x,-y,-z
x,y,-z
-x,y,z
x,-y,z
1/2+x,1/2+y,z
1/2-x,1/2-y,z
1/2+x,1/2-y,-z
1/2-x,1/2+y,-z
1/2-x,1/2-y,-z
1/2+x,1/2+y,-z
1/2-x,1/2+y,z
1/2+x,1/2-y,z
loop_
_atom_site_type_symbol
_atom_site_label
_atom_site_fract_x
_atom_site_fract_y
_atom_site_fract_z
Si Si1 0.735146 0.805102 0.401434
Si Si2 0.112840 0.111515 0.402529
Si Si3 0.608140 0.558667 0.094063
Si Si4 0.614548 0.944997 0.500000
Si Si5 0.775758 0.058382 0.743608
Si Si6 0.886453 0.613874 0.667248
O O1 0.701821 0.802708 0.500000
O O2 0.750000 0.750000 0.365009
O O3 0.834258 0.835795 0.389568
O O4 0.648243 0.829758 0.346119
O O5 0.128296 0.092325 0.500000
O O6 0.156520 0.071351 0.337394
O O7 0.000000 0.119538 0.382491
O O8 0.500000 0.580114 0.107119
O O9 0.603797 0.500000 0.100183
O O10 0.676042 0.578939 0.169348
O O11 0.647653 0.574735 0.000000
O O12 0.500000 0.948794 0.500000
O O13 0.649023 0.915338 0.582653
O O14 0.660336 0.000000 0.500000
O O15 0.671968 0.086363 0.742340
O O16 0.757925 0.000000 0.745345
O O17 0.000000 0.611325 0.686411
#
# Coordination Sequence:
#
# PCOD8267076 Si02
#       6
#    16  16  16   8  16  16
#     4   9  17  29  44  60  78 105 145 189 228 261
#     4   9  18  30  40  56  85 115 142 172 210 260
#     4   8  14  26  44  64  84 108 143 185 223 256
#     4   9  16  26  39  54  77 113 152 183 206 230
#     4  10  19  28  42  62  86 117 149 180 212 251
#     4  10  19  30  42  60  85 113 149 186 216 252
#
# _framework density 15.1013
#
# number of rings (size 3 to 8) (size 9 to 14) (size 15 to 20)
#    0.000    2.818    0.909    1.636    1.273    3.273 
#    0.000    2.727    0.000    0.545    0.000    2.545 
#    0.000   11.636    0.000   14.545    0.000    0.364 
#
# Total GULP energy -545415.788719 kJ/mol
# GULP energy per Si atom -12395.813380 kJ/mol
# Density = 1.506693 g / cm^3
# Si number density = 15.101300 Si / 1000 Ang^3
#
#
#
# Elastic Constant Matrix: (Units=GPa)
#
#
# Indices 1 2 3 4 5 6 
#
# 1 106.8974 29.3900 53.2106 0.0000 0.0000 0.0000
# 2 29.3900 79.7133 30.6460 0.0000 0.0000 0.0000
# 3 53.2106 30.6460 87.6979 0.0000 0.0000 0.0000
# 4 0.0000 0.0000 0.0000 4.0117 0.0000 0.0000
# 5 0.0000 0.0000 0.0000 0.0000 21.9297 0.0000
# 6 0.0000 0.0000 0.0000 0.0000 0.0000 16.1269
#
#
#
# Elastic Compliance Matrix: (Units=1/GPa)
#
#
# Indices 1 2 3 4 5 6 
#
# 1 0.013713 -0.002145 -0.007571 0.000000 0.000000 0.000000
# 2 -0.002145 0.014828 -0.003880 0.000000 0.000000 0.000000
# 3 -0.007571 -0.003880 0.017352 0.000000 0.000000 0.000000
# 4 0.000000 0.000000 0.000000 0.249271 0.000000 0.000000
# 5 0.000000 0.000000 0.000000 0.000000 0.045600 0.000000
# 6 0.000000 0.000000 0.000000 0.000000 0.000000 0.062008
#
#
# Mechanical properties :
#
#
# Convention : Reuss Voigt Hill
#
# Bulk Modulus (GPa) = 53.47308 55.64466 54.55887
# Shear Modulus (GPa) = 11.46269 19.15113 15.30691
#
# Velocity S-wave (km/s) = 2.75808 3.56501 3.18719
# Velocity P-wave (km/s) = 6.75493 7.33985 7.05346
#
# Compressibility (1/GPa) = 0.01870100
#
# Stress axis : x y z
#
# Youngs Moduli (GPa) = 72.92297 67.44206 57.63002
#
# Poissons Ratio (x) = 0.14469 0.43630
# Poissons Ratio (y) = 0.15645 0.22359
# Poissons Ratio (z) = 0.55208 0.26166
#
# Static dielectric constant tensor:
#      x y z
#    x 2.941850 0.000000 0.000000 
#    y 0.000000 2.781200 0.000000 
#    z 0.000000 0.000000 2.910470 
# 
# 
# High freq. dielectric constant tensor:
#      x y z
#    x 1.582530 0.000000 0.000000 
#    y 0.000000 1.555490 0.000000 
#    z 0.000000 0.000000 1.548700 
# 
# From -- ./inp_files/40918.got.cif
#   From: 2010.03.12/outbox.cif.g09.slc.cpg/sg65_21_cif.got.tgz:40918.got - 2010.04.10 20:52:16.
