data_PCOD8267519
_publ_section_title
;
Structure prediction by ZEFSAII (Michael W. Deem and Ramdas Pophale) SiO2 
 PCOD8267519
Probable space group: C M M M
;
_chemical_formula_sum "Si O2"
_cell_formula_units_Z 104
_cell_length_a 23.887460
_cell_length_b 8.592267
_cell_length_c 28.134108
_cell_angle_alpha 90.000000
_cell_angle_beta 90.000000
_cell_angle_gamma 90.000000
_cell_volume 5774.453483
_symmetry_space_group_name_H-M "C M M M"
_symmetry_group_IT_number 65
_symmetry_cell_setting 'orthorhombic'
loop_
_space_group_symop_operation_xyz
x,y,z
-x,-y,z
x,-y,-z
-x,y,-z
-x,-y,-z
x,y,-z
-x,y,z
x,-y,z
1/2+x,1/2+y,z
1/2-x,1/2-y,z
1/2+x,1/2-y,-z
1/2-x,1/2+y,-z
1/2-x,1/2-y,-z
1/2+x,1/2+y,-z
1/2-x,1/2+y,z
1/2+x,1/2-y,z
loop_
_atom_site_type_symbol
_atom_site_label
_atom_site_fract_x
_atom_site_fract_y
_atom_site_fract_z
Si Si1 0.310157 0.815981 0.947465
Si Si2 0.188146 0.184073 0.231158
Si Si3 0.500000 0.184074 0.839777
Si Si4 0.500000 0.185079 0.264913
Si Si5 0.066139 0.673913 0.500000
Si Si6 0.121485 0.314941 0.141714
Si Si7 0.564497 0.316475 0.598592
Si Si8 0.113375 0.684262 0.311225
O O1 0.250000 0.750000 0.935339
O O2 0.350623 0.751793 0.906556
O O3 0.307164 0.000000 0.945787
O O4 0.330321 0.760271 0.000000
O O5 0.250000 0.250000 0.223354
O O6 0.148481 0.241341 0.188534
O O7 0.164476 0.239644 0.282192
O O8 0.191191 0.000000 0.230272
O O9 0.500000 0.256150 0.787432
O O10 0.556976 0.238933 0.865166
O O11 0.500000 0.000000 0.835885
O O12 0.555407 0.248646 0.289801
O O13 0.500000 0.000000 0.265423
O O14 0.091912 0.500000 0.500000
O O15 0.085840 0.766839 0.546561
O O16 0.000000 0.664109 0.500000
O O17 0.126937 0.500000 0.147352
O O18 0.500000 0.259192 0.607625
O O19 0.567957 0.500000 0.603701
O O20 0.609555 0.237722 0.634109
O O21 0.120097 0.500000 0.307565
#
# Coordination Sequence:
#
# PCOD8267519 Si02
#       8
#    16  16   8   8   8  16  16  16
#     4   9  18  32  51  75 101 131 172 220 266 310
#     4  12  25  39  54  76 104 135 172 217 265 313
#     4   9  16  30  51  76 102 137 172 204 251 309
#     4   9  16  28  50  74 101 134 173 207 247 303
#     4   9  17  29  45  67  98 141 186 223 265 318
#     4  10  19  34  55  77 104 138 173 210 256 314
#     4  10  19  30  46  73 108 142 177 221 268 313
#     4  11  20  34  54  77 104 140 179 215 258 315
#
# _framework density 18.010362000000001
#
# number of rings (size 3 to 8) (size 9 to 14) (size 15 to 20)
#    0.000    1.923    2.308    3.000    0.000    3.385 
#    0.000    1.538    0.000    2.308    0.000    0.538 
#    0.000    3.692    0.000    0.000    0.000    0.000 
#
# Total GULP energy -644603.188562 kJ/mol
# GULP energy per Si atom -12396.215165 kJ/mol
# Density = 1.796937 g / cm^3
# Si number density = 18.010362 Si / 1000 Ang^3
#
#
#
# Elastic Constant Matrix: (Units=GPa)
#
#
# Indices 1 2 3 4 5 6 
#
# 1 103.2212 28.9937 63.2615 0.0000 0.0000 0.0000
# 2 28.9937 66.3457 29.8410 0.0000 0.0000 0.0000
# 3 63.2615 29.8410 142.1451 0.0000 0.0000 0.0000
# 4 0.0000 0.0000 0.0000 23.2558 0.0000 0.0000
# 5 0.0000 0.0000 0.0000 0.0000 25.5428 0.0000
# 6 0.0000 0.0000 0.0000 0.0000 0.0000 20.7159
#
#
#
# Elastic Compliance Matrix: (Units=1/GPa)
#
#
# Indices 1 2 3 4 5 6 
#
# 1 0.014093 -0.003686 -0.005498 0.000000 0.000000 0.000000
# 2 -0.003686 0.017608 -0.002056 0.000000 0.000000 0.000000
# 3 -0.005498 -0.002056 0.009914 0.000000 0.000000 0.000000
# 4 0.000000 0.000000 0.000000 0.043000 0.000000 0.000000
# 5 0.000000 0.000000 0.000000 0.000000 0.039150 0.000000
# 6 0.000000 0.000000 0.000000 0.000000 0.000000 0.048272
#
#
# Mechanical properties :
#
#
# Convention : Reuss Voigt Hill
#
# Bulk Modulus (GPa) = 52.26203 61.76716 57.01460
# Shear Modulus (GPa) = 24.88856 26.54396 25.71626
#
# Velocity S-wave (km/s) = 3.72143 3.84320 3.78280
# Velocity P-wave (km/s) = 6.89537 7.35278 7.12774
#
# Compressibility (1/GPa) = 0.01913435
#
# Stress axis : x y z
#
# Youngs Moduli (GPa) = 70.95733 56.79205 100.87005
#
# Poissons Ratio (x) = 0.20932 0.55461
# Poissons Ratio (y) = 0.26153 0.20741
# Poissons Ratio (z) = 0.39014 0.11678
#
# Static dielectric constant tensor:
#      x y z
#    x 3.320390 0.000000 0.000000 
#    y 0.000000 3.205060 0.000000 
#    z 0.000000 0.000000 3.610470 
# 
# 
# High freq. dielectric constant tensor:
#      x y z
#    x 1.670890 0.000000 0.000000 
#    y 0.000000 1.688650 0.000000 
#    z 0.000000 0.000000 1.705840 
# 
# From -- ./inp_files/75831.got.cif
#   From: 2010.03.12/outbox.cif.g09.slc.cpg/sg65_38_cif.got.tgz:75831.got - 2010.04.10 20:52:16.
