data_PCOD8267071
_publ_section_title
;
Structure prediction by ZEFSAII (Michael W. Deem and Ramdas Pophale) SiO2 
 PCOD8267071
Probable space group: C M M M
;
_chemical_formula_sum "Si O2"
_cell_formula_units_Z 96
_cell_length_a 27.329941
_cell_length_b 9.000751
_cell_length_c 23.842814
_cell_angle_alpha 90.000000
_cell_angle_beta 90.000000
_cell_angle_gamma 90.000000
_cell_volume 5865.093668
_symmetry_space_group_name_H-M "C M M M"
_symmetry_group_IT_number 65
_symmetry_cell_setting 'orthorhombic'
loop_
_space_group_symop_operation_xyz
x,y,z
-x,-y,z
x,-y,-z
-x,y,-z
-x,-y,-z
x,y,-z
-x,y,z
x,-y,z
1/2+x,1/2+y,z
1/2-x,1/2-y,z
1/2+x,1/2-y,-z
1/2-x,1/2+y,-z
1/2-x,1/2-y,-z
1/2+x,1/2+y,-z
1/2-x,1/2+y,z
1/2+x,1/2-y,z
loop_
_atom_site_type_symbol
_atom_site_label
_atom_site_fract_x
_atom_site_fract_y
_atom_site_fract_z
Si Si1 0.389331 0.325651 0.228007
Si Si2 0.358603 0.172671 0.937670
Si Si3 0.942472 0.671906 0.328751
Si Si4 0.801635 0.323820 0.829093
Si Si5 0.941980 0.833492 0.561581
Si Si6 0.945284 0.826203 0.883742
O O1 0.377940 0.500000 0.231514
O O2 0.412898 0.271273 0.285333
O O3 0.339085 0.237738 0.217191
O O4 0.427328 0.287707 0.178694
O O5 0.319317 0.226060 0.891436
O O6 0.410518 0.252231 0.929717
O O7 0.368800 0.000000 0.929902
O O8 0.338435 0.209854 0.000000
O O9 0.930044 0.500000 0.319498
O O10 0.923983 0.719780 0.390661
O O11 0.000000 0.703608 0.321251
O O12 0.797355 0.500000 0.823485
O O13 0.750000 0.250000 0.817052
O O14 0.922362 0.782854 0.500000
O O15 0.000000 0.834313 0.560160
O O16 0.923012 0.000000 0.575194
O O17 0.000000 0.762464 0.890683
O O18 0.944233 0.000000 0.894827
#
# Coordination Sequence:
#
# PCOD8267071 Si02
#       6
#    16  16  16  16  16  16
#     4  10  19  32  49  67  89 118 153 191 229 272
#     4   9  19  34  49  67  91 117 146 180 218 265
#     4  10  19  28  41  65  96 128 160 194 232 271
#     4  10  20  35  53  71  91 114 142 180 228 279
#     4   8  14  25  40  58  84 122 165 201 230 263
#     4   9  18  31  46  65  89 118 151 186 223 262
#
# _framework density 16.368024999999999
#
# number of rings (size 3 to 8) (size 9 to 14) (size 15 to 20)
#    0.000    2.667    0.000    2.500    0.000    4.667 
#    0.000    3.333    0.000    0.000    0.000    0.000 
#    0.000    0.667    0.000    2.500    0.000    3.833 
#
# Total GULP energy -595119.357833 kJ/mol
# GULP energy per Si atom -12398.319955 kJ/mol
# Density = 1.633077 g / cm^3
# Si number density = 16.368025 Si / 1000 Ang^3
#
#
#
# Elastic Constant Matrix: (Units=GPa)
#
#
# Indices 1 2 3 4 5 6 
#
# 1 73.5389 30.5714 22.0884 0.0000 0.0000 0.0000
# 2 30.5714 59.9392 30.8422 0.0000 0.0000 0.0000
# 3 22.0884 30.8422 88.6129 0.0000 0.0000 0.0000
# 4 0.0000 0.0000 0.0000 28.0186 0.0000 0.0000
# 5 0.0000 0.0000 0.0000 0.0000 11.0199 0.0000
# 6 0.0000 0.0000 0.0000 0.0000 0.0000 25.3708
#
#
#
# Elastic Compliance Matrix: (Units=1/GPa)
#
#
# Indices 1 2 3 4 5 6 
#
# 1 0.017424 -0.008104 -0.001523 0.000000 0.000000 0.000000
# 2 -0.008104 0.024092 -0.006365 0.000000 0.000000 0.000000
# 3 -0.001523 -0.006365 0.013880 0.000000 0.000000 0.000000
# 4 0.000000 0.000000 0.000000 0.035691 0.000000 0.000000
# 5 0.000000 0.000000 0.000000 0.000000 0.090745 0.000000
# 6 0.000000 0.000000 0.000000 0.000000 0.000000 0.039415
#
#
# Mechanical properties :
#
#
# Convention : Reuss Voigt Hill
#
# Bulk Modulus (GPa) = 42.71133 43.23277 42.97205
# Shear Modulus (GPa) = 19.15446 22.12113 20.63780
#
# Velocity S-wave (km/s) = 3.42458 3.68024 3.55471
# Velocity P-wave (km/s) = 6.46437 6.67302 6.56952
#
# Compressibility (1/GPa) = 0.02341299
#
# Stress axis : x y z
#
# Youngs Moduli (GPa) = 57.39064 41.50742 72.04532
#
# Poissons Ratio (x) = 0.33636 0.10972
# Poissons Ratio (y) = 0.46507 0.45860
# Poissons Ratio (z) = 0.08740 0.26421
#
# Static dielectric constant tensor:
#      x y z
#    x 2.880490 0.000000 0.000000 
#    y 0.000000 3.132480 0.000000 
#    z 0.000000 0.000000 3.264240 
# 
# 
# High freq. dielectric constant tensor:
#      x y z
#    x 1.593940 0.000000 0.000000 
#    y 0.000000 1.636920 0.000000 
#    z 0.000000 0.000000 1.628420 
# 
# From -- ./inp_files/60237.got.cif
#   From: 2010.03.12/outbox.cif.g09.slc.cpg/sg65_31_cif.got.tgz:60237.got - 2010.04.10 20:52:16.
