data_PCOD8267254
_publ_section_title
;
Structure prediction by ZEFSAII (Michael W. Deem and Ramdas Pophale) SiO2 
 PCOD8267254
Probable space group: C M M M
;
_chemical_formula_sum "Si O2"
_cell_formula_units_Z 112
_cell_length_a 16.794613
_cell_length_b 15.362582
_cell_length_c 23.532717
_cell_angle_alpha 90.000000
_cell_angle_beta 90.000000
_cell_angle_gamma 90.000000
_cell_volume 6071.643823
_symmetry_space_group_name_H-M "C M M M"
_symmetry_group_IT_number 65
_symmetry_cell_setting 'orthorhombic'
loop_
_space_group_symop_operation_xyz
x,y,z
-x,-y,z
x,-y,-z
-x,y,-z
-x,-y,-z
x,y,-z
-x,y,z
x,-y,z
1/2+x,1/2+y,z
1/2-x,1/2-y,z
1/2+x,1/2-y,-z
1/2-x,1/2+y,-z
1/2-x,1/2-y,-z
1/2+x,1/2+y,-z
1/2-x,1/2+y,z
1/2+x,1/2-y,z
loop_
_atom_site_type_symbol
_atom_site_label
_atom_site_fract_x
_atom_site_fract_y
_atom_site_fract_z
Si Si1 0.909011 0.100326 0.163652
Si Si2 0.905005 0.777394 0.936661
Si Si3 0.360796 0.598084 0.433780
Si Si4 0.410763 0.249132 0.356777
Si Si5 0.208341 0.597234 0.363254
Si Si6 0.088800 0.408414 0.932612
Si Si7 0.693430 0.675260 0.262301
O O1 0.877724 0.150138 0.107786
O O2 0.847349 0.117634 0.214131
O O3 0.000000 0.127768 0.179823
O O4 0.906205 0.000000 0.147718
O O5 0.870104 0.683131 0.914483
O O6 0.000000 0.770405 0.939373
O O7 0.872475 0.800560 0.000000
O O8 0.367939 0.617839 0.500000
O O9 0.392649 0.500000 0.419815
O O10 0.411345 0.670859 0.401080
O O11 0.269061 0.605091 0.415468
O O12 0.500000 0.215856 0.348444
O O13 0.359629 0.166825 0.377787
O O14 0.378020 0.280150 0.296495
O O15 0.171891 0.500000 0.359691
O O16 0.254223 0.615757 0.304277
O O17 0.132295 0.500000 0.913324
O O18 0.000000 0.411429 0.906865
O O19 0.083354 0.405782 0.000000
O O20 0.750000 0.750000 0.235482
#
# Coordination Sequence:
#
# PCOD8267254 Si02
#       7
#    16  16  16  16  16  16  16
#     4  10  19  29  46  73 100 125 155 196 243 287
#     4   8  14  24  38  61  95 128 154 185 232 291
#     4   9  18  33  52  73 100 136 174 207 239 280
#     4  10  20  32  49  75 103 128 157 201 252 295
#     4   9  18  33  53  74  96 129 169 202 237 288
#     4   7   9  15  30  51  75 108 148 182 212 252
#     4   9  18  34  53  69  90 123 164 205 244 288
#
# _framework density 18.446404000000001
#
# number of rings (size 3 to 8) (size 9 to 14) (size 15 to 20)
#    0.000    3.143    0.000    3.429    0.000    2.857 
#    0.000    2.143    0.000    4.714    0.000    7.000 
#    0.000    0.000    0.000    0.000    0.000    0.000 
#
# Total GULP energy -693753.780856 kJ/mol
# GULP energy per Si atom -12388.460372 kJ/mol
# Density = 1.840442 g / cm^3
# Si number density = 18.446404 Si / 1000 Ang^3
#
#
#
# Elastic Constant Matrix: (Units=GPa)
#
#
# Indices 1 2 3 4 5 6 
#
# 1 62.5418 35.7053 22.0487 0.0000 0.0000 0.0000
# 2 35.7053 122.9850 40.6045 0.0000 0.0000 0.0000
# 3 22.0487 40.6045 70.2691 0.0000 0.0000 0.0000
# 4 0.0000 0.0000 0.0000 28.2471 0.0000 0.0000
# 5 0.0000 0.0000 0.0000 0.0000 8.1905 0.0000
# 6 0.0000 0.0000 0.0000 0.0000 0.0000 13.6562
#
#
#
# Elastic Compliance Matrix: (Units=1/GPa)
#
#
# Indices 1 2 3 4 5 6 
#
# 1 0.019871 -0.004585 -0.003585 0.000000 0.000000 0.000000
# 2 -0.004585 0.011106 -0.004979 0.000000 0.000000 0.000000
# 3 -0.003585 -0.004979 0.018233 0.000000 0.000000 0.000000
# 4 0.000000 0.000000 0.000000 0.035402 0.000000 0.000000
# 5 0.000000 0.000000 0.000000 0.000000 0.122092 0.000000
# 6 0.000000 0.000000 0.000000 0.000000 0.000000 0.073227
#
#
# Mechanical properties :
#
#
# Convention : Reuss Voigt Hill
#
# Bulk Modulus (GPa) = 43.64710 50.27921 46.96315
# Shear Modulus (GPa) = 15.93031 20.51459 18.22245
#
# Velocity S-wave (km/s) = 2.94190 3.33846 3.14643
# Velocity P-wave (km/s) = 5.93739 6.49435 6.22210
#
# Compressibility (1/GPa) = 0.02291103
#
# Stress axis : x y z
#
# Youngs Moduli (GPa) = 50.32443 90.04083 54.84559
#
# Poissons Ratio (x) = 0.41286 0.19665
# Poissons Ratio (y) = 0.23075 0.27307
# Poissons Ratio (z) = 0.18044 0.44830
#
# Static dielectric constant tensor:
#      x y z
#    x 3.022260 0.000000 0.000000 
#    y 0.000000 3.830980 0.000000 
#    z 0.000000 0.000000 3.167740 
# 
# 
# High freq. dielectric constant tensor:
#      x y z
#    x 1.676730 0.000000 0.000000 
#    y 0.000000 1.733670 0.000000 
#    z 0.000000 0.000000 1.690750 
# 
# From -- ./inp_files/70009.got.cif
#   From: 2010.03.12/outbox.cif.g09.slc.cpg/sg65_36_cif.got.tgz:70009.got - 2010.04.10 20:52:16.
