data_PCOD8267414
_publ_section_title
;
Structure prediction by ZEFSAII (Michael W. Deem and Ramdas Pophale) SiO2 
 PCOD8267414
Probable space group: C M M M
;
_chemical_formula_sum "Si O2"
_cell_formula_units_Z 96
_cell_length_a 18.996353
_cell_length_b 9.093175
_cell_length_c 30.729365
_cell_angle_alpha 90.000000
_cell_angle_beta 90.000000
_cell_angle_gamma 90.000000
_cell_volume 5308.103306
_symmetry_space_group_name_H-M "C M M M"
_symmetry_group_IT_number 65
_symmetry_cell_setting 'orthorhombic'
loop_
_space_group_symop_operation_xyz
x,y,z
-x,-y,z
x,-y,-z
-x,y,-z
-x,-y,-z
x,y,-z
-x,y,z
x,-y,z
1/2+x,1/2+y,z
1/2-x,1/2-y,z
1/2+x,1/2-y,-z
1/2-x,1/2+y,-z
1/2-x,1/2-y,-z
1/2+x,1/2+y,-z
1/2-x,1/2+y,z
1/2+x,1/2-y,z
loop_
_atom_site_type_symbol
_atom_site_label
_atom_site_fract_x
_atom_site_fract_y
_atom_site_fract_z
Si Si1 0.916547 0.167319 0.116092
Si Si2 0.578608 0.174579 0.548366
Si Si3 0.325044 0.824653 0.373745
Si Si4 0.916318 0.663622 0.199822
Si Si5 0.921545 0.325137 0.704703
Si Si6 0.321291 0.171601 0.949568
O O1 0.887958 0.228654 0.162250
O O2 0.886357 0.262964 0.076831
O O3 0.000000 0.180564 0.113445
O O4 0.891055 0.000000 0.111582
O O5 0.601684 0.227060 0.500000
O O6 0.500000 0.233906 0.558991
O O7 0.633887 0.234213 0.583615
O O8 0.576867 0.000000 0.550454
O O9 0.250000 0.750000 0.372986
O O10 0.368014 0.767606 0.331764
O O11 0.316845 0.000000 0.373863
O O12 0.885459 0.500000 0.191573
O O13 0.893548 0.724358 0.247483
O O14 0.000000 0.655752 0.198946
O O15 0.925969 0.500000 0.703660
O O16 0.000000 0.261401 0.695557
O O17 0.250000 0.250000 0.934078
O O18 0.314054 0.000000 0.939882
O O19 0.336336 0.203873 0.000000
#
# Coordination Sequence:
#
# PCOD8267414 Si02
#       6
#    16  16  16  16  16  16
#     4  10  20  33  51  77 107 135 164 201 245 292
#     4   8  14  26  46  70  91 115 155 202 237 269
#     4  10  19  30  45  67  96 125 153 190 237 287
#     4   8  14  27  48  71  93 119 156 202 246 285
#     4   8  14  27  49  71  87 114 161 206 237 271
#     4  10  21  37  56  76 100 132 169 207 247 293
#
# _framework density 18.085554999999999
#
# number of rings (size 3 to 8) (size 9 to 14) (size 15 to 20)
#    0.000    3.000    0.000    3.000    0.000    4.667 
#    0.000    3.333    0.000    5.000    0.000    1.167 
#    0.000    0.000    0.000    0.000    0.000    0.000 
#
# Total GULP energy -595007.483612 kJ/mol
# GULP energy per Si atom -12395.989242 kJ/mol
# Density = 1.804439 g / cm^3
# Si number density = 18.085555 Si / 1000 Ang^3
#
#
#
# Elastic Constant Matrix: (Units=GPa)
#
#
# Indices 1 2 3 4 5 6 
#
# 1 85.6658 33.7110 67.4991 0.0000 0.0000 0.0000
# 2 33.7110 61.9676 50.7047 0.0000 0.0000 0.0000
# 3 67.4991 50.7047 142.9531 0.0000 0.0000 0.0000
# 4 0.0000 0.0000 0.0000 15.2795 0.0000 0.0000
# 5 0.0000 0.0000 0.0000 0.0000 12.3420 0.0000
# 6 0.0000 0.0000 0.0000 0.0000 0.0000 27.5380
#
#
#
# Elastic Compliance Matrix: (Units=1/GPa)
#
#
# Indices 1 2 3 4 5 6 
#
# 1 0.019371 -0.004303 -0.007620 0.000000 0.000000 0.000000
# 2 -0.004303 0.023692 -0.006372 0.000000 0.000000 0.000000
# 3 -0.007620 -0.006372 0.012853 0.000000 0.000000 0.000000
# 4 0.000000 0.000000 0.000000 0.065447 0.000000 0.000000
# 5 0.000000 0.000000 0.000000 0.000000 0.081024 0.000000
# 6 0.000000 0.000000 0.000000 0.000000 0.000000 0.036313
#
#
# Mechanical properties :
#
#
# Convention : Reuss Voigt Hill
#
# Bulk Modulus (GPa) = 51.74203 66.04623 58.89413
# Shear Modulus (GPa) = 17.74738 20.27670 19.01204
#
# Velocity S-wave (km/s) = 3.13597 3.35200 3.24578
# Velocity P-wave (km/s) = 6.46406 7.18187 6.83240
#
# Compressibility (1/GPa) = 0.01932665
#
# Stress axis : x y z
#
# Youngs Moduli (GPa) = 51.62439 42.20871 77.80013
#
# Poissons Ratio (x) = 0.18161 0.59286
# Poissons Ratio (y) = 0.22212 0.49572
# Poissons Ratio (z) = 0.39339 0.26894
#
# Static dielectric constant tensor:
#      x y z
#    x 3.163870 0.000000 0.000000 
#    y 0.000000 3.085390 0.000000 
#    z 0.000000 0.000000 3.779800 
# 
# 
# High freq. dielectric constant tensor:
#      x y z
#    x 1.678290 0.000000 0.000000 
#    y 0.000000 1.665760 0.000000 
#    z 0.000000 0.000000 1.717520 
# 
# From -- ./inp_files/75319.got.cif
#   From: 2010.03.12/outbox.cif.g09.slc.cpg/sg65_38_cif.got.tgz:75319.got - 2010.04.10 20:52:16.
