data_PCOD8267759
_publ_section_title
;
Structure prediction by ZEFSAII (Michael W. Deem and Ramdas Pophale) SiO2 
 PCOD8267759
Probable space group: C M M M
;
_chemical_formula_sum "Si O2"
_cell_formula_units_Z 72
_cell_length_a 26.982391
_cell_length_b 10.003875
_cell_length_c 16.782678
_cell_angle_alpha 90.000000
_cell_angle_beta 90.000000
_cell_angle_gamma 90.000000
_cell_volume 4530.122541
_symmetry_space_group_name_H-M "C M M M"
_symmetry_group_IT_number 65
_symmetry_cell_setting 'orthorhombic'
loop_
_space_group_symop_operation_xyz
x,y,z
-x,-y,z
x,-y,-z
-x,y,-z
-x,-y,-z
x,y,-z
-x,y,z
x,-y,z
1/2+x,1/2+y,z
1/2-x,1/2-y,z
1/2+x,1/2-y,-z
1/2-x,1/2+y,-z
1/2-x,1/2-y,-z
1/2+x,1/2+y,-z
1/2-x,1/2+y,z
1/2+x,1/2-y,z
loop_
_atom_site_type_symbol
_atom_site_label
_atom_site_fract_x
_atom_site_fract_y
_atom_site_fract_z
Si Si1 0.637888 0.157346 0.153967
Si Si2 0.057147 0.848380 0.093067
Si Si3 0.193886 0.500000 0.587755
Si Si4 0.808771 0.253207 0.689507
Si Si5 0.688542 0.500000 0.409633
Si Si6 0.204273 0.348781 0.000000
O O1 0.586757 0.237048 0.142697
O O2 0.666053 0.229600 0.225590
O O3 0.627671 0.000000 0.170054
O O4 0.671352 0.178293 0.076896
O O5 0.000000 0.831511 0.116706
O O6 0.074794 0.000000 0.113405
O O7 0.064916 0.820506 0.000000
O O8 0.170544 0.500000 0.500000
O O9 0.174030 0.627266 0.633692
O O10 0.252775 0.500000 0.582274
O O11 0.750000 0.250000 0.703353
O O12 0.829166 0.125239 0.642424
O O13 0.666040 0.500000 0.500000
O O14 0.250000 0.250000 0.000000
O O15 0.224856 0.500000 0.000000
#
# Coordination Sequence:
#
# PCOD8267759 Si02
#       6
#    16  16   8  16   8   8
#     4  11  21  34  49  72 102 134 173 207 247 293
#     4   9  19  36  56  76  96 122 162 210 260 305
#     4   9  16  30  48  65  94 133 166 205 252 295
#     4  10  19  31  46  70 102 135 170 208 245 290
#     4   9  18  30  48  71  94 129 174 209 248 295
#     4  10  22  36  47  66  99 141 180 209 233 280
#
# _framework density 15.893610000000001
#
# number of rings (size 3 to 8) (size 9 to 14) (size 15 to 20)
#    0.000    2.222    2.222    2.000    1.556    4.000 
#    0.000    1.111    0.000    0.000    0.000    0.000 
#    0.000    5.333    0.000    0.000    0.000    0.000 
#
# Total GULP energy -446293.899879 kJ/mol
# GULP energy per Si atom -12397.052774 kJ/mol
# Density = 1.585744 g / cm^3
# Si number density = 15.893610 Si / 1000 Ang^3
#
#
#
# Elastic Constant Matrix: (Units=GPa)
#
#
# Indices 1 2 3 4 5 6 
#
# 1 56.5557 46.1712 35.1128 0.0000 0.0000 0.0000
# 2 46.1712 137.3902 66.5116 0.0000 0.0000 0.0000
# 3 35.1128 66.5116 130.9327 0.0000 0.0000 0.0000
# 4 0.0000 0.0000 0.0000 26.7244 0.0000 0.0000
# 5 0.0000 0.0000 0.0000 0.0000 -11.6970 0.0000
# 6 0.0000 0.0000 0.0000 0.0000 0.0000 35.2075
#
#
#
# Elastic Compliance Matrix: (Units=1/GPa)
#
#
# Indices 1 2 3 4 5 6 
#
# 1 0.025387 -0.006943 -0.003281 0.000000 0.000000 0.000000
# 2 -0.006943 0.011551 -0.004006 0.000000 0.000000 0.000000
# 3 -0.003281 -0.004006 0.010552 0.000000 0.000000 0.000000
# 4 0.000000 0.000000 0.000000 0.037419 0.000000 0.000000
# 5 0.000000 0.000000 0.000000 0.000000 -0.085492 0.000000
# 6 0.000000 0.000000 0.000000 0.000000 0.000000 0.028403
#
#
# Mechanical properties :
#
#
# Convention : Reuss Voigt Hill
#
# Bulk Modulus (GPa) = 52.54777 68.94108 60.74443
# Shear Modulus (GPa) = 79.84114 21.85248 50.84681
#
# Velocity S-wave (km/s) = 7.09534 3.71202 5.66228
# Velocity P-wave (km/s) = 10.01294 7.86402 9.00283
#
# Compressibility (1/GPa) = 0.01903030
#
# Stress axis : x y z
#
# Youngs Moduli (GPa) = 39.39013 86.57212 94.76591
#
# Poissons Ratio (x) = 0.60108 0.31095
# Poissons Ratio (y) = 0.27349 0.37961
# Poissons Ratio (z) = 0.12925 0.34679
#
# Static dielectric constant tensor:
#      x y z
#    x 2.649070 0.000000 0.000000 
#    y 0.000000 3.250590 0.000000 
#    z 0.000000 0.000000 3.166850 
# 
# 
# High freq. dielectric constant tensor:
#      x y z
#    x 1.564300 0.000000 0.000000 
#    y 0.000000 1.629920 0.000000 
#    z 0.000000 0.000000 1.613950 
# 
# From -- ./inp_files/47532.got.cif
#   From: 2010.03.12/outbox.cif.g09.slc.cpg/sg65_24_cif.got.tgz:47532.got - 2010.04.10 20:52:16.
