data_PCOD8267808
_publ_section_title
;
Structure prediction by ZEFSAII (Michael W. Deem and Ramdas Pophale) SiO2 
 PCOD8267808
Probable space group: C M M M
;
_chemical_formula_sum "Si O2"
_cell_formula_units_Z 96
_cell_length_a 27.483252
_cell_length_b 9.111081
_cell_length_c 23.371182
_cell_angle_alpha 90.000000
_cell_angle_beta 90.000000
_cell_angle_gamma 90.000000
_cell_volume 5852.193873
_symmetry_space_group_name_H-M "C M M M"
_symmetry_group_IT_number 65
_symmetry_cell_setting 'orthorhombic'
loop_
_space_group_symop_operation_xyz
x,y,z
-x,-y,z
x,-y,-z
-x,y,-z
-x,-y,-z
x,y,-z
-x,y,z
x,-y,z
1/2+x,1/2+y,z
1/2-x,1/2-y,z
1/2+x,1/2-y,-z
1/2-x,1/2+y,-z
1/2-x,1/2-y,-z
1/2+x,1/2+y,-z
1/2-x,1/2+y,z
1/2+x,1/2-y,z
loop_
_atom_site_type_symbol
_atom_site_label
_atom_site_fract_x
_atom_site_fract_y
_atom_site_fract_z
Si Si1 0.200321 0.328398 0.564441
Si Si2 0.362858 0.829399 0.668992
Si Si3 0.055783 0.331866 0.933658
Si Si4 0.698423 0.827049 0.780044
Si Si5 0.113990 0.827639 0.839829
Si Si6 0.945317 0.828178 0.728039
O O1 0.183934 0.287021 0.500000
O O2 0.210194 0.500000 0.571087
O O3 0.250000 0.250000 0.581475
O O4 0.158456 0.277087 0.608043
O O5 0.323832 0.790518 0.717961
O O6 0.413290 0.745259 0.678464
O O7 0.375213 0.000000 0.669217
O O8 0.064412 0.500000 0.914788
O O9 0.091217 0.224791 0.899286
O O10 0.000000 0.286929 0.921925
O O11 0.068429 0.311730 0.000000
O O12 0.750000 0.750000 0.784595
O O13 0.664003 0.759122 0.828982
O O14 0.703993 0.000000 0.790250
O O15 0.075731 0.787961 0.790115
O O16 0.125162 0.000000 0.842572
O O17 0.000000 0.765957 0.724480
O O18 0.944286 0.000000 0.717244
#
# Coordination Sequence:
#
# PCOD8267808 Si02
#       6
#    16  16  16  16  16  16
#     4   9  17  29  45  66  92 119 148 184 225 269
#     4   9  18  30  45  67  92 119 151 186 225 270
#     4   9  18  32  49  70  97 127 156 187 225 268
#     4  10  19  31  47  68  94 122 153 188 227 272
#     4  10  19  31  48  70  95 122 153 189 229 272
#     4   9  18  31  46  66  92 120 150 187 229 269
#
# _framework density 16.404105000000001
#
# number of rings (size 3 to 8) (size 9 to 14) (size 15 to 20)
#    0.000    2.667    0.000    2.500    0.000    3.667 
#    0.000    0.833    0.000    1.000    0.000    3.500 
#    0.000    0.000    0.000    0.000    0.000    0.000 
#
# Total GULP energy -595271.201143 kJ/mol
# GULP energy per Si atom -12401.483357 kJ/mol
# Density = 1.636677 g / cm^3
# Si number density = 16.404105 Si / 1000 Ang^3
#
#
#
# Elastic Constant Matrix: (Units=GPa)
#
#
# Indices 1 2 3 4 5 6 
#
# 1 136.7024 55.3673 56.2052 0.0000 0.0000 0.0000
# 2 55.3673 62.1401 37.2867 0.0000 0.0000 0.0000
# 3 56.2052 37.2867 81.7369 0.0000 0.0000 0.0000
# 4 0.0000 0.0000 0.0000 24.0902 0.0000 0.0000
# 5 0.0000 0.0000 0.0000 0.0000 26.6823 0.0000
# 6 0.0000 0.0000 0.0000 0.0000 0.0000 32.5235
#
#
#
# Elastic Compliance Matrix: (Units=1/GPa)
#
#
# Indices 1 2 3 4 5 6 
#
# 1 0.012743 -0.008394 -0.004934 0.000000 0.000000 0.000000
# 2 -0.008394 0.027687 -0.006858 0.000000 0.000000 0.000000
# 3 -0.004934 -0.006858 0.018755 0.000000 0.000000 0.000000
# 4 0.000000 0.000000 0.000000 0.041511 0.000000 0.000000
# 5 0.000000 0.000000 0.000000 0.000000 0.037478 0.000000
# 6 0.000000 0.000000 0.000000 0.000000 0.000000 0.030747
#
#
# Mechanical properties :
#
#
# Convention : Reuss Voigt Hill
#
# Bulk Modulus (GPa) = 53.15146 64.25531 58.70339
# Shear Modulus (GPa) = 23.19487 25.44053 24.31770
#
# Velocity S-wave (km/s) = 3.76436 3.94237 3.85439
# Velocity P-wave (km/s) = 7.16697 7.74457 7.46136
#
# Compressibility (1/GPa) = 0.01881416
#
# Stress axis : x y z
#
# Youngs Moduli (GPa) = 78.47212 36.11790 53.31777
#
# Poissons Ratio (x) = 0.30318 0.26305
# Poissons Ratio (y) = 0.65870 0.36567
# Poissons Ratio (z) = 0.38715 0.24770
#
# Static dielectric constant tensor:
#      x y z
#    x 3.092200 0.000000 0.000000 
#    y 0.000000 3.082990 0.000000 
#    z 0.000000 0.000000 3.065740 
# 
# 
# High freq. dielectric constant tensor:
#      x y z
#    x 1.623740 0.000000 0.000000 
#    y 0.000000 1.635530 0.000000 
#    z 0.000000 0.000000 1.619430 
# 
# From -- ./inp_files/60181.got.cif
#   From: 2010.03.12/outbox.cif.g09.slc.cpg/sg65_31_cif.got.tgz:60181.got - 2010.04.10 20:52:16.
