data_PCOD8267950
_publ_section_title
;
Structure prediction by ZEFSAII (Michael W. Deem and Ramdas Pophale) SiO2 
 PCOD8267950
Probable space group: C M M M
;
_chemical_formula_sum "Si O2"
_cell_formula_units_Z 120
_cell_length_a 18.075848
_cell_length_b 18.604406
_cell_length_c 19.096820
_cell_angle_alpha 90.000000
_cell_angle_beta 90.000000
_cell_angle_gamma 90.000000
_cell_volume 6422.077523
_symmetry_space_group_name_H-M "C M M M"
_symmetry_group_IT_number 65
_symmetry_cell_setting 'orthorhombic'
loop_
_space_group_symop_operation_xyz
x,y,z
-x,-y,z
x,-y,-z
-x,y,-z
-x,-y,-z
x,y,-z
-x,y,z
x,-y,z
1/2+x,1/2+y,z
1/2-x,1/2-y,z
1/2+x,1/2-y,-z
1/2-x,1/2+y,-z
1/2-x,1/2-y,-z
1/2+x,1/2+y,-z
1/2-x,1/2+y,z
1/2+x,1/2-y,z
loop_
_atom_site_type_symbol
_atom_site_label
_atom_site_fract_x
_atom_site_fract_y
_atom_site_fract_z
Si Si1 0.416164 0.845690 0.292284
Si Si2 0.415773 0.320148 0.689125
Si Si3 0.084502 0.916478 0.820163
Si Si4 0.787057 0.914885 0.078331
Si Si5 0.856264 0.585373 0.839677
Si Si6 0.000000 0.414506 0.078451
Si Si7 0.154591 0.417114 0.420303
Si Si8 0.791472 0.178891 0.579825
O O1 0.500000 0.868375 0.274009
O O2 0.405295 0.761003 0.285464
O O3 0.359766 0.883318 0.238626
O O4 0.399339 0.871453 0.370988
O O5 0.500000 0.334965 0.666003
O O6 0.392172 0.371858 0.752233
O O7 0.364748 0.337727 0.623250
O O8 0.136713 0.892176 0.884161
O O9 0.000000 0.900462 0.842467
O O10 0.096352 0.000000 0.802054
O O11 0.717263 0.885122 0.122297
O O12 0.780476 0.000000 0.073313
O O13 0.786284 0.881833 0.000000
O O14 0.855590 0.500000 0.834430
O O15 0.926936 0.614051 0.882750
O O16 0.000000 0.500000 0.076824
O O17 0.000000 0.383306 0.000000
O O18 0.126647 0.406413 0.500000
O O19 0.152663 0.500000 0.397862
O O20 0.238367 0.389610 0.412850
O O21 0.816050 0.192358 0.500000
O O22 0.750000 0.250000 0.608781
#
# Coordination Sequence:
#
# PCOD8267950 Si02
#       8
#    16  16  16  16  16   8  16  16
#     4  11  22  36  54  79 113 153 191 225 270 330
#     4  10  22  37  56  83 111 146 187 229 276 329
#     4   9  19  36  57  82 109 138 177 229 285 336
#     4   9  18  32  53  82 109 135 176 228 280 335
#     4  10  19  31  48  76 110 143 181 226 268 317
#     4   9  16  28  48  70  99 143 186 224 267 312
#     4  10  22  38  57  84 115 147 185 231 279 326
#     4  10  20  37  58  80 108 145 188 229 272 326
#
# _framework density 18.685542000000002
#
# number of rings (size 3 to 8) (size 9 to 14) (size 15 to 20)
#    0.000    2.200    2.000    0.800    1.867    3.733 
#    0.000    3.333    0.000    2.400    0.000    3.733 
#    0.000    0.000    0.000    0.000    0.000    0.000 
#
# Total GULP energy -744140.760216 kJ/mol
# GULP energy per Si atom -12402.346004 kJ/mol
# Density = 1.864301 g / cm^3
# Si number density = 18.685542 Si / 1000 Ang^3
#
#
#
# Elastic Constant Matrix: (Units=GPa)
#
#
# Indices 1 2 3 4 5 6 
#
# 1 116.2601 28.7356 73.6103 0.0000 0.0000 0.0000
# 2 28.7356 56.9888 35.6782 0.0000 0.0000 0.0000
# 3 73.6103 35.6782 130.5590 0.0000 0.0000 0.0000
# 4 0.0000 0.0000 0.0000 17.2168 0.0000 0.0000
# 5 0.0000 0.0000 0.0000 0.0000 37.4414 0.0000
# 6 0.0000 0.0000 0.0000 0.0000 0.0000 20.0080
#
#
#
# Elastic Compliance Matrix: (Units=1/GPa)
#
#
# Indices 1 2 3 4 5 6 
#
# 1 0.013664 -0.002493 -0.007023 0.000000 0.000000 0.000000
# 2 -0.002493 0.021624 -0.004503 0.000000 0.000000 0.000000
# 3 -0.007023 -0.004503 0.012849 0.000000 0.000000 0.000000
# 4 0.000000 0.000000 0.000000 0.058083 0.000000 0.000000
# 5 0.000000 0.000000 0.000000 0.000000 0.026708 0.000000
# 6 0.000000 0.000000 0.000000 0.000000 0.000000 0.049980
#
#
# Mechanical properties :
#
#
# Convention : Reuss Voigt Hill
#
# Bulk Modulus (GPa) = 49.75447 64.42846 57.09147
# Shear Modulus (GPa) = 22.97301 25.98549 24.47925
#
# Velocity S-wave (km/s) = 3.51016 3.73322 3.62341
# Velocity P-wave (km/s) = 6.56608 7.28957 6.93726
#
# Compressibility (1/GPa) = 0.02009870
#
# Stress axis : x y z
#
# Youngs Moduli (GPa) = 73.18509 46.24501 77.82472
#
# Poissons Ratio (x) = 0.11531 0.54652
# Poissons Ratio (y) = 0.18248 0.35048
# Poissons Ratio (z) = 0.51394 0.20826
#
# Static dielectric constant tensor:
#      x y z
#    x 3.507680 0.000000 0.000000 
#    y 0.000000 3.212790 0.000000 
#    z 0.000000 0.000000 3.500140 
# 
# 
# High freq. dielectric constant tensor:
#      x y z
#    x 1.729010 0.000000 0.000000 
#    y 0.000000 1.699670 0.000000 
#    z 0.000000 0.000000 1.730100 
# 
# From -- ./inp_files/54928.got.cif
#   From: 2010.03.12/outbox.cif.g09.slc.cpg/sg65_28_cif.got.tgz:54928.got - 2010.04.10 20:52:16.
