data_PCOD8267322
_publ_section_title
;
Structure prediction by ZEFSAII (Michael W. Deem and Ramdas Pophale) SiO2 
 PCOD8267322
Probable space group: C M M M
;
_chemical_formula_sum "Si O2"
_cell_formula_units_Z 80
_cell_length_a 39.457977
_cell_length_b 13.718393
_cell_length_c 9.503336
_cell_angle_alpha 90.000000
_cell_angle_beta 90.000000
_cell_angle_gamma 90.000000
_cell_volume 5144.156114
_symmetry_space_group_name_H-M "C M M M"
_symmetry_group_IT_number 65
_symmetry_cell_setting 'orthorhombic'
loop_
_space_group_symop_operation_xyz
x,y,z
-x,-y,z
x,-y,-z
-x,y,-z
-x,-y,-z
x,y,-z
-x,y,z
x,-y,z
1/2+x,1/2+y,z
1/2-x,1/2-y,z
1/2+x,1/2-y,-z
1/2-x,1/2+y,-z
1/2-x,1/2-y,-z
1/2+x,1/2+y,-z
1/2-x,1/2+y,z
1/2+x,1/2-y,z
loop_
_atom_site_type_symbol
_atom_site_label
_atom_site_fract_x
_atom_site_fract_y
_atom_site_fract_z
Si Si1 0.771383 0.884770 0.658588
Si Si2 0.537233 0.384196 0.341682
Si Si3 0.708273 0.110133 0.160412
Si Si4 0.669715 0.703128 0.161520
Si Si5 0.599612 0.387557 0.163438
O O1 0.771483 0.842209 0.500000
O O2 0.737958 0.846995 0.740351
O O3 0.805087 0.855261 0.739301
O O4 0.769894 0.000000 0.655731
O O5 0.544233 0.348109 0.500000
O O6 0.500000 0.346771 0.291633
O O7 0.537490 0.500000 0.335173
O O8 0.566940 0.343283 0.242690
O O9 0.675805 0.180614 0.178369
O O10 0.697519 0.000000 0.202199
O O11 0.721757 0.113071 0.000000
O O12 0.631702 0.677518 0.208881
O O13 0.675572 0.669653 0.000000
O O14 0.606834 0.500000 0.204837
O O15 0.591686 0.377745 0.000000
#
# Coordination Sequence:
#
# PCOD8267322 Si02
#       5
#    16  16  16  16  16
#     4  10  20  31  43  61  83 106 134 169 208 248
#     4   8  14  25  40  57  79 108 137 160 184 221
#     4   9  18  32  47  60  76 103 139 175 210 248
#     4  10  19  30  44  61  82 108 137 169 206 246
#     4   9  17  27  39  58  83 108 133 161 193 231
#
# _framework density 15.551627999999999
#
# number of rings (size 3 to 8) (size 9 to 14) (size 15 to 20)
#    0.000    2.800    0.000    2.400    0.000    6.400 
#    0.000    4.000    0.000    0.000    0.000    0.000 
#    0.000    0.800    0.000   10.000    0.000    2.000 
#
# Total GULP energy -495858.472126 kJ/mol
# GULP energy per Si atom -12396.461803 kJ/mol
# Density = 1.551623 g / cm^3
# Si number density = 15.551628 Si / 1000 Ang^3
#
#
#
# Elastic Constant Matrix: (Units=GPa)
#
#
# Indices 1 2 3 4 5 6 
#
# 1 150.2982 45.2069 69.1246 0.0000 0.0000 0.0000
# 2 45.2069 32.5957 27.1512 0.0000 0.0000 0.0000
# 3 69.1246 27.1512 76.8645 0.0000 0.0000 0.0000
# 4 0.0000 0.0000 0.0000 12.0874 0.0000 0.0000
# 5 0.0000 0.0000 0.0000 0.0000 15.8178 0.0000
# 6 0.0000 0.0000 0.0000 0.0000 0.0000 17.4860
#
#
#
# Elastic Compliance Matrix: (Units=1/GPa)
#
#
# Indices 1 2 3 4 5 6 
#
# 1 0.014420 -0.013032 -0.008365 0.000000 0.000000 0.000000
# 2 -0.013032 0.055246 -0.007795 0.000000 0.000000 0.000000
# 3 -0.008365 -0.007795 0.023286 0.000000 0.000000 0.000000
# 4 0.000000 0.000000 0.000000 0.082731 0.000000 0.000000
# 5 0.000000 0.000000 0.000000 0.000000 0.063220 0.000000
# 6 0.000000 0.000000 0.000000 0.000000 0.000000 0.057189
#
#
# Mechanical properties :
#
#
# Convention : Reuss Voigt Hill
#
# Bulk Modulus (GPa) = 28.92825 60.30263 44.61544
# Shear Modulus (GPa) = 13.66128 16.96330 15.31229
#
# Velocity S-wave (km/s) = 2.96708 3.30627 3.14125
# Velocity P-wave (km/s) = 5.51179 7.30994 6.47360
#
# Compressibility (1/GPa) = 0.03456828
#
# Stress axis : x y z
#
# Youngs Moduli (GPa) = 69.34636 18.10097 42.94396
#
# Poissons Ratio (x) = 0.23589 0.35923
# Poissons Ratio (y) = 0.90370 0.33476
# Poissons Ratio (z) = 0.58009 0.14110
#
# Static dielectric constant tensor:
#      x y z
#    x 3.090320 0.000000 0.000000 
#    y 0.000000 2.803560 0.000000 
#    z 0.000000 0.000000 3.168210 
# 
# 
# High freq. dielectric constant tensor:
#      x y z
#    x 1.585260 0.000000 0.000000 
#    y 0.000000 1.563500 0.000000 
#    z 0.000000 0.000000 1.601820 
# 
# From -- ./inp_files/18175.got.cif
#   From: 2010.03.12/outbox.cif.g09.slc.cpg/sg65_10_cif.got.tgz:18175.got - 2010.04.10 20:52:16.
