data_PCOD8267293
_publ_section_title
;
Structure prediction by ZEFSAII (Michael W. Deem and Ramdas Pophale) SiO2 
 PCOD8267293
Probable space group: C M M M
;
_chemical_formula_sum "Si O2"
_cell_formula_units_Z 90
_cell_length_a 31.374212
_cell_length_b 23.381052
_cell_length_c 8.805862
_cell_angle_alpha 90.000000
_cell_angle_beta 90.000000
_cell_angle_gamma 90.000000
_cell_volume 6459.646465
_symmetry_space_group_name_H-M "C M M M"
_symmetry_group_IT_number 65
_symmetry_cell_setting 'orthorhombic'
loop_
_space_group_symop_operation_xyz
x,y,z
-x,-y,z
x,-y,-z
-x,y,-z
-x,-y,-z
x,y,-z
-x,y,z
x,-y,z
1/2+x,1/2+y,z
1/2-x,1/2-y,z
1/2+x,1/2-y,-z
1/2-x,1/2+y,-z
1/2-x,1/2-y,-z
1/2+x,1/2+y,-z
1/2-x,1/2+y,z
1/2+x,1/2-y,z
loop_
_atom_site_type_symbol
_atom_site_label
_atom_site_fract_x
_atom_site_fract_y
_atom_site_fract_z
Si Si1 0.792707 0.786495 0.671351
Si Si2 0.223345 0.500000 0.680264
Si Si3 0.626549 0.000000 0.319558
Si Si4 0.500000 0.000000 0.000000
Si Si5 0.587608 0.881959 0.319855
Si Si6 0.000000 0.613912 0.163988
Si Si7 0.838591 0.687943 0.821784
Si Si8 0.745045 0.883564 0.821639
O O1 0.808165 0.798560 0.500000
O O2 0.750000 0.750000 0.671907
O O3 0.828885 0.751618 0.761421
O O4 0.784017 0.846106 0.756654
O O5 0.224625 0.500000 0.500000
O O6 0.174826 0.500000 0.742001
O O7 0.247700 0.444869 0.742630
O O8 0.602592 0.056040 0.255507
O O9 0.626500 0.000000 0.500000
O O10 0.500000 0.954142 0.137967
O O11 0.587433 0.882318 0.500000
O O12 0.541163 0.867073 0.258711
O O13 0.619427 0.833542 0.261986
O O14 0.000000 0.646252 0.000000
O O15 0.800025 0.645372 0.780423
O O16 0.846781 0.690535 0.000000
O O17 0.751086 0.890202 0.000000
#
# Coordination Sequence:
#
# PCOD8267293 Si02
#       8
#    16   8   8   2  16   8  16  16
#     4   9  17  29  45  61  80 106 135 168 206 251
#     4  11  19  30  43  60  84 111 143 175 214 255
#     4   9  19  29  42  59  79 103 135 179 217 255
#     4   8  20  36  50  56  80 108 138 176 220 274
#     4  11  20  33  48  63  80 105 140 178 219 264
#     4  10  21  35  45  61  79 106 134 174 220 265
#     4  10  19  30  44  64  83 106 133 172 216 257
#     4  10  19  30  42  61  84 109 136 172 212 253
#
# _framework density 13.932651
#
# number of rings (size 3 to 8) (size 9 to 14) (size 15 to 20)
#    0.267    1.778    1.778    3.200    0.000    3.556 
#    0.000    1.778    0.000    0.000    0.000    0.000 
#    0.000    0.000    0.000    0.000    0.000    0.889 
#
# Total GULP energy -557540.337152 kJ/mol
# GULP energy per Si atom -12389.785270 kJ/mol
# Density = 1.390094 g / cm^3
# Si number density = 13.932651 Si / 1000 Ang^3
#
#
#
# Elastic Constant Matrix: (Units=GPa)
#
#
# Indices 1 2 3 4 5 6 
#
# 1 69.6840 49.4563 34.5058 0.0000 0.0000 0.0000
# 2 49.4563 89.5287 42.2963 0.0000 0.0000 0.0000
# 3 34.5058 42.2963 81.2185 0.0000 0.0000 0.0000
# 4 0.0000 0.0000 0.0000 24.7435 0.0000 0.0000
# 5 0.0000 0.0000 0.0000 0.0000 21.3789 0.0000
# 6 0.0000 0.0000 0.0000 0.0000 0.0000 -46.0054
#
#
#
# Elastic Compliance Matrix: (Units=1/GPa)
#
#
# Indices 1 2 3 4 5 6 
#
# 1 0.024791 -0.011564 -0.004510 0.000000 0.000000 0.000000
# 2 -0.011564 0.020208 -0.005611 0.000000 0.000000 0.000000
# 3 -0.004510 -0.005611 0.017151 0.000000 0.000000 0.000000
# 4 0.000000 0.000000 0.000000 0.040415 0.000000 0.000000
# 5 0.000000 0.000000 0.000000 0.000000 0.046775 0.000000
# 6 0.000000 0.000000 0.000000 0.000000 0.000000 -0.021737
#
#
# Mechanical properties :
#
#
# Convention : Reuss Voigt Hill
#
# Bulk Modulus (GPa) = 53.24914 54.77201 54.01057
# Shear Modulus (GPa) = 28.21129 7.63491 17.92310
#
# Velocity S-wave (km/s) = 4.50470 2.34345 3.59055
# Velocity P-wave (km/s) = 8.08445 6.83518 7.48592
#
# Compressibility (1/GPa) = 0.01877965
#
# Stress axis : x y z
#
# Youngs Moduli (GPa) = 40.33710 49.48427 58.30646
#
# Poissons Ratio (x) = 0.57223 0.26298
# Poissons Ratio (y) = 0.46646 0.32716
# Poissons Ratio (z) = 0.18193 0.27766
#
# Static dielectric constant tensor:
#      x y z
#    x 2.497400 0.000000 0.000000 
#    y 0.000000 2.691060 0.000000 
#    z 0.000000 0.000000 2.803950 
# 
# 
# High freq. dielectric constant tensor:
#      x y z
#    x 1.490640 0.000000 0.000000 
#    y 0.000000 1.511250 0.000000 
#    z 0.000000 0.000000 1.548940 
# 
# From -- ./inp_files/18596.got.cif
#   From: 2010.03.12/outbox.cif.g09.slc.cpg/sg65_10_cif.got.tgz:18596.got - 2010.04.10 20:52:16.
