data_PCOD8267524
_publ_section_title
;
Structure prediction by ZEFSAII (Michael W. Deem and Ramdas Pophale) SiO2 
 PCOD8267524
Probable space group: C M M M
;
_chemical_formula_sum "Si O2"
_cell_formula_units_Z 104
_cell_length_a 22.880087
_cell_length_b 28.160121
_cell_length_c 9.621212
_cell_angle_alpha 90.000000
_cell_angle_beta 90.000000
_cell_angle_gamma 90.000000
_cell_volume 6199.004796
_symmetry_space_group_name_H-M "C M M M"
_symmetry_group_IT_number 65
_symmetry_cell_setting 'orthorhombic'
loop_
_space_group_symop_operation_xyz
x,y,z
-x,-y,z
x,-y,-z
-x,y,-z
-x,-y,-z
x,y,-z
-x,y,z
x,-y,z
1/2+x,1/2+y,z
1/2-x,1/2-y,z
1/2+x,1/2-y,-z
1/2-x,1/2+y,-z
1/2-x,1/2-y,-z
1/2+x,1/2+y,-z
1/2-x,1/2+y,z
1/2+x,1/2-y,z
loop_
_atom_site_type_symbol
_atom_site_label
_atom_site_fract_x
_atom_site_fract_y
_atom_site_fract_z
Si Si1 0.433540 0.726969 0.159939
Si Si2 0.746976 0.693517 0.342767
Si Si3 0.069577 0.500000 0.152150
Si Si4 0.643969 0.184361 0.835687
Si Si5 0.377847 0.350423 0.336520
Si Si6 0.935210 0.600344 0.166595
Si Si7 0.434024 0.447361 0.335499
O O1 0.500000 0.745623 0.177153
O O2 0.388169 0.767296 0.209925
O O3 0.425016 0.680960 0.254893
O O4 0.421251 0.713480 0.000000
O O5 0.761714 0.677897 0.500000
O O6 0.750000 0.750000 0.330625
O O7 0.794450 0.674964 0.235620
O O8 0.686291 0.669025 0.296175
O O9 0.087786 0.450673 0.227623
O O10 0.000000 0.500000 0.135693
O O11 0.098884 0.500000 0.000000
O O12 0.605381 0.141573 0.777443
O O13 0.652789 0.182940 0.000000
O O14 0.389197 0.344046 0.500000
O O15 0.389017 0.405389 0.289286
O O16 0.000000 0.611174 0.222005
O O17 0.935517 0.598216 0.000000
O O18 0.435460 0.448849 0.500000
O O19 0.500000 0.436575 0.280848
O O20 0.413781 0.500000 0.280748
#
# Coordination Sequence:
#
# PCOD8267524 Si02
#       7
#    16  16   8  16  16  16  16
#     4  10  20  31  44  68 100 125 146 182 231 278
#     4  10  20  34  48  64  90 123 158 194 226 260
#     4   7  10  18  36  62  89 115 143 179 222 265
#     4  10  19  30  47  68  91 122 156 189 227 273
#     4  10  19  32  51  70  90 123 160 191 226 273
#     4   8  13  23  41  66  93 118 147 186 231 274
#     4   8  14  26  47  75  98 112 140 193 243 276
#
# _framework density 16.776886000000001
#
# number of rings (size 3 to 8) (size 9 to 14) (size 15 to 20)
#    0.000    2.846    1.538    2.308    0.000    3.692 
#    0.000    0.000    1.692    1.846    0.000    2.154 
#    0.000    1.846    0.000    0.000    0.000    0.000 
#
# Total GULP energy -644209.929348 kJ/mol
# GULP energy per Si atom -12388.652487 kJ/mol
# Density = 1.673870 g / cm^3
# Si number density = 16.776886 Si / 1000 Ang^3
#
#
#
# Elastic Constant Matrix: (Units=GPa)
#
#
# Indices 1 2 3 4 5 6 
#
# 1 92.6082 57.0714 26.5759 0.0000 0.0000 0.0000
# 2 57.0714 138.6335 26.3390 0.0000 0.0000 0.0000
# 3 26.5759 26.3390 24.8855 0.0000 0.0000 0.0000
# 4 0.0000 0.0000 0.0000 10.9716 0.0000 0.0000
# 5 0.0000 0.0000 0.0000 0.0000 14.0054 0.0000
# 6 0.0000 0.0000 0.0000 0.0000 0.0000 19.1780
#
#
#
# Elastic Compliance Matrix: (Units=1/GPa)
#
#
# Indices 1 2 3 4 5 6 
#
# 1 0.017648 -0.004612 -0.013966 0.000000 0.000000 0.000000
# 2 -0.004612 0.010234 -0.005907 0.000000 0.000000 0.000000
# 3 -0.013966 -0.005907 0.061350 0.000000 0.000000 0.000000
# 4 0.000000 0.000000 0.000000 0.091144 0.000000 0.000000
# 5 0.000000 0.000000 0.000000 0.000000 0.071401 0.000000
# 6 0.000000 0.000000 0.000000 0.000000 0.000000 0.052143
#
#
# Mechanical properties :
#
#
# Convention : Reuss Voigt Hill
#
# Bulk Modulus (GPa) = 24.83623 52.89998 38.86810
# Shear Modulus (GPa) = 13.64966 18.57374 16.11170
#
# Velocity S-wave (km/s) = 2.85546 3.33093 3.10232
# Velocity P-wave (km/s) = 5.07026 6.81127 6.00420
#
# Compressibility (1/GPa) = 0.04026376
#
# Stress axis : x y z
#
# Youngs Moduli (GPa) = 56.66357 97.71310 16.29998
#
# Poissons Ratio (x) = 0.45064 0.22764
# Poissons Ratio (y) = 0.26133 0.09628
# Poissons Ratio (z) = 0.79134 0.57716
#
# Static dielectric constant tensor:
#      x y z
#    x 3.100950 0.000000 0.000000 
#    y 0.000000 3.594960 0.000000 
#    z 0.000000 0.000000 2.749570 
# 
# 
# High freq. dielectric constant tensor:
#      x y z
#    x 1.632160 0.000000 0.000000 
#    y 0.000000 1.657550 0.000000 
#    z 0.000000 0.000000 1.601960 
# 
# From -- ./inp_files/14726.got.cif
#   From: 2010.03.12/outbox.cif.g09.slc.cpg/sg65_8_cif.got.tgz:14726.got - 2010.04.10 20:52:16.
