data_PCOD8267535
_publ_section_title
;
Structure prediction by ZEFSAII (Michael W. Deem and Ramdas Pophale) SiO2 
 PCOD8267535
Probable space group: C M M M
;
_chemical_formula_sum "Si O2"
_cell_formula_units_Z 112
_cell_length_a 18.746771
_cell_length_b 19.138548
_cell_length_c 17.832837
_cell_angle_alpha 90.000000
_cell_angle_beta 90.000000
_cell_angle_gamma 90.000000
_cell_volume 6398.171839
_symmetry_space_group_name_H-M "C M M M"
_symmetry_group_IT_number 65
_symmetry_cell_setting 'orthorhombic'
loop_
_space_group_symop_operation_xyz
x,y,z
-x,-y,z
x,-y,-z
-x,y,-z
-x,-y,-z
x,y,-z
-x,y,z
x,-y,z
1/2+x,1/2+y,z
1/2-x,1/2-y,z
1/2+x,1/2-y,-z
1/2-x,1/2+y,-z
1/2-x,1/2-y,-z
1/2+x,1/2+y,-z
1/2-x,1/2+y,z
1/2+x,1/2-y,z
loop_
_atom_site_type_symbol
_atom_site_label
_atom_site_fract_x
_atom_site_fract_y
_atom_site_fract_z
Si Si1 0.204080 0.311621 0.917477
Si Si2 0.919068 0.785487 0.082300
Si Si3 0.417152 0.318330 0.752815
Si Si4 0.416537 0.160361 0.702537
Si Si5 0.320517 0.081280 0.412706
Si Si6 0.180624 0.422475 0.804010
Si Si7 0.694299 0.422405 0.315553
O O1 0.250000 0.250000 0.877517
O O2 0.122413 0.287415 0.919474
O O3 0.211604 0.384428 0.876458
O O4 0.236624 0.323763 0.000000
O O5 0.897864 0.828708 0.157853
O O6 0.000000 0.762559 0.092168
O O7 0.907416 0.824279 0.000000
O O8 0.500000 0.336906 0.739271
O O9 0.399901 0.240780 0.722956
O O10 0.369429 0.369852 0.703001
O O11 0.500000 0.147770 0.689387
O O12 0.374472 0.134368 0.628734
O O13 0.389774 0.115339 0.772978
O O14 0.331024 0.094594 0.500000
O O15 0.237335 0.097428 0.391817
O O16 0.337845 0.000000 0.390896
O O17 0.158655 0.500000 0.827461
O O18 0.243796 0.420694 0.745277
O O19 0.660571 0.500000 0.320995
#
# Coordination Sequence:
#
# PCOD8267535 Si02
#       7
#    16  16  16  16  16  16  16
#     4  10  19  30  47  69  93 128 172 213 254 301
#     4   9  17  30  48  70  97 131 174 217 252 293
#     4  10  19  32  53  78 102 134 173 215 263 305
#     4  10  20  33  50  77 107 134 169 210 248 300
#     4   9  19  36  57  79 103 136 172 202 245 305
#     4  10  20  31  47  71  99 134 168 205 257 307
#     4   9  19  35  53  75 102 130 167 215 259 308
#
# _framework density 17.505001
#
# number of rings (size 3 to 8) (size 9 to 14) (size 15 to 20)
#    0.000    2.429    1.429    2.143    0.000    3.714 
#    0.000    2.143    0.000    2.571    0.000    7.000 
#    0.000    0.000    0.000    0.000    0.000    0.000 
#
# Total GULP energy -693809.738590 kJ/mol
# GULP energy per Si atom -12389.459618 kJ/mol
# Density = 1.746516 g / cm^3
# Si number density = 17.505001 Si / 1000 Ang^3
#
#
#
# Elastic Constant Matrix: (Units=GPa)
#
#
# Indices 1 2 3 4 5 6 
#
# 1 86.9498 58.0152 37.1834 0.0000 0.0000 0.0000
# 2 58.0152 116.0207 49.9981 0.0000 0.0000 0.0000
# 3 37.1834 49.9981 97.1728 0.0000 0.0000 0.0000
# 4 0.0000 0.0000 0.0000 12.3755 0.0000 0.0000
# 5 0.0000 0.0000 0.0000 0.0000 16.4828 0.0000
# 6 0.0000 0.0000 0.0000 0.0000 0.0000 26.7277
#
#
#
# Elastic Compliance Matrix: (Units=1/GPa)
#
#
# Indices 1 2 3 4 5 6 
#
# 1 0.017864 -0.007693 -0.002878 0.000000 0.000000 0.000000
# 2 -0.007693 0.014387 -0.004459 0.000000 0.000000 0.000000
# 3 -0.002878 -0.004459 0.013686 0.000000 0.000000 0.000000
# 4 0.000000 0.000000 0.000000 0.080805 0.000000 0.000000
# 5 0.000000 0.000000 0.000000 0.000000 0.060669 0.000000
# 6 0.000000 0.000000 0.000000 0.000000 0.000000 0.037414
#
#
# Mechanical properties :
#
#
# Convention : Reuss Voigt Hill
#
# Bulk Modulus (GPa) = 62.97581 65.61519 64.29550
# Shear Modulus (GPa) = 19.21753 21.44697 20.33225
#
# Velocity S-wave (km/s) = 3.31695 3.50407 3.41179
# Velocity P-wave (km/s) = 7.12204 7.34414 7.23395
#
# Compressibility (1/GPa) = 0.01587911
#
# Stress axis : x y z
#
# Youngs Moduli (GPa) = 55.97740 69.50485 73.06520
#
# Poissons Ratio (x) = 0.53469 0.21026
# Poissons Ratio (y) = 0.43062 0.32580
# Poissons Ratio (z) = 0.16108 0.30993
#
# Static dielectric constant tensor:
#      x y z
#    x 3.295470 0.000000 0.000000 
#    y 0.000000 3.181080 0.000000 
#    z 0.000000 0.000000 3.481350 
# 
# 
# High freq. dielectric constant tensor:
#      x y z
#    x 1.678400 0.000000 0.000000 
#    y 0.000000 1.652980 0.000000 
#    z 0.000000 0.000000 1.675020 
# 
# From -- ./inp_files/63930.got.cif
#   From: 2010.03.12/outbox.cif.g09.slc.cpg/sg65_32_cif.got.tgz:63930.got - 2010.04.10 20:52:16.
