data_PCOD8267445
_publ_section_title
;
Structure prediction by ZEFSAII (Michael W. Deem and Ramdas Pophale) SiO2 
 PCOD8267445
Probable space group: C M M M
;
_chemical_formula_sum "Si O2"
_cell_formula_units_Z 96
_cell_length_a 18.983399
_cell_length_b 9.182180
_cell_length_c 30.914530
_cell_angle_alpha 90.000000
_cell_angle_beta 90.000000
_cell_angle_gamma 90.000000
_cell_volume 5388.680396
_symmetry_space_group_name_H-M "C M M M"
_symmetry_group_IT_number 65
_symmetry_cell_setting 'orthorhombic'
loop_
_space_group_symop_operation_xyz
x,y,z
-x,-y,z
x,-y,-z
-x,y,-z
-x,-y,-z
x,y,-z
-x,y,z
x,-y,z
1/2+x,1/2+y,z
1/2-x,1/2-y,z
1/2+x,1/2-y,-z
1/2-x,1/2+y,-z
1/2-x,1/2-y,-z
1/2+x,1/2+y,-z
1/2-x,1/2+y,z
1/2+x,1/2-y,z
loop_
_atom_site_type_symbol
_atom_site_label
_atom_site_fract_x
_atom_site_fract_y
_atom_site_fract_z
Si Si1 0.578877 0.172433 0.624489
Si Si2 0.578058 0.827018 0.122415
Si Si3 0.822624 0.669425 0.951902
Si Si4 0.325016 0.826502 0.703979
Si Si5 0.920925 0.327360 0.218262
Si Si6 0.321153 0.829406 0.549131
O O1 0.500000 0.239967 0.627283
O O2 0.626750 0.226415 0.664150
O O3 0.615097 0.223168 0.579689
O O4 0.572851 0.000000 0.626141
O O5 0.500000 0.764431 0.115099
O O6 0.626232 0.762221 0.084340
O O7 0.604673 0.779311 0.170220
O O8 0.576615 0.000000 0.119180
O O9 0.809212 0.500000 0.943423
O O10 0.750000 0.750000 0.946820
O O11 0.854634 0.694687 0.000000
O O12 0.250000 0.750000 0.700638
O O13 0.364623 0.769115 0.747085
O O14 0.314180 0.000000 0.703964
O O15 0.924655 0.500000 0.221514
O O16 0.000000 0.266497 0.227610
O O17 0.341721 0.788591 0.500000
O O18 0.250000 0.750000 0.563739
O O19 0.307177 0.000000 0.554544
#
# Coordination Sequence:
#
# PCOD8267445 Si02
#       6
#    16  16  16  16  16  16
#     4   9  17  29  46  67  88 112 146 184 215 246
#     4   8  14  25  42  64  86 107 137 178 215 245
#     4   9  17  28  42  61  85 112 140 171 209 251
#     4  10  19  30  46  67  89 113 142 176 213 253
#     4   8  14  26  44  64  85 110 141 175 210 249
#     4   9  17  29  46  67  90 116 144 176 215 256
#
# _framework density 17.815123
#
# number of rings (size 3 to 8) (size 9 to 14) (size 15 to 20)
#    0.000    3.167    0.000    2.000    0.000    3.333 
#    0.000    3.333    0.000    4.000    0.000    7.000 
#    0.000    0.000    0.000    0.000    0.000    0.000 
#
# Total GULP energy -594901.943443 kJ/mol
# GULP energy per Si atom -12393.790488 kJ/mol
# Density = 1.777457 g / cm^3
# Si number density = 17.815123 Si / 1000 Ang^3
#
#
#
# Elastic Constant Matrix: (Units=GPa)
#
#
# Indices 1 2 3 4 5 6 
#
# 1 149.0586 23.9258 105.2957 0.0000 0.0000 0.0000
# 2 23.9258 15.0848 21.9188 0.0000 0.0000 0.0000
# 3 105.2957 21.9188 163.7484 0.0000 0.0000 0.0000
# 4 0.0000 0.0000 0.0000 11.5780 0.0000 0.0000
# 5 0.0000 0.0000 0.0000 0.0000 39.7338 0.0000
# 6 0.0000 0.0000 0.0000 0.0000 0.0000 21.1350
#
#
#
# Elastic Compliance Matrix: (Units=1/GPa)
#
#
# Indices 1 2 3 4 5 6 
#
# 1 0.013625 -0.011024 -0.007286 0.000000 0.000000 0.000000
# 2 -0.011024 0.091219 -0.005122 0.000000 0.000000 0.000000
# 3 -0.007286 -0.005122 0.011477 0.000000 0.000000 0.000000
# 4 0.000000 0.000000 0.000000 0.086371 0.000000 0.000000
# 5 0.000000 0.000000 0.000000 0.000000 0.025168 0.000000
# 6 0.000000 0.000000 0.000000 0.000000 0.000000 0.047315
#
#
# Mechanical properties :
#
#
# Convention : Reuss Voigt Hill
#
# Bulk Modulus (GPa) = 14.39702 70.01916 42.20809
# Shear Modulus (GPa) = 14.48482 26.27278 20.37880
#
# Velocity S-wave (km/s) = 2.85452 3.84441 3.38583
# Velocity P-wave (km/s) = 4.35468 7.68730 6.24731
#
# Compressibility (1/GPa) = 0.06945883
#
# Stress axis : x y z
#
# Youngs Moduli (GPa) = 73.39545 10.96268 87.12803
#
# Poissons Ratio (x) = 0.12085 0.63478
# Poissons Ratio (y) = 0.80910 0.44623
# Poissons Ratio (z) = 0.53473 0.05615
#
# Static dielectric constant tensor:
#      x y z
#    x 3.469110 0.000000 0.000000 
#    y 0.000000 2.757050 0.000000 
#    z 0.000000 0.000000 3.743590 
# 
# 
# High freq. dielectric constant tensor:
#      x y z
#    x 1.689310 0.000000 0.000000 
#    y 0.000000 1.627380 0.000000 
#    z 0.000000 0.000000 1.709140 
# 
# From -- ./inp_files/75171.got.cif
#   From: 2010.03.12/outbox.cif.g09.slc.cpg/sg65_38_cif.got.tgz:75171.got - 2010.04.10 20:52:16.
