data_PCOD8267311
_publ_section_title
;
Structure prediction by ZEFSAII (Michael W. Deem and Ramdas Pophale) SiO2 
 PCOD8267311
Probable space group: C M M M
;
_chemical_formula_sum "Si O2"
_cell_formula_units_Z 104
_cell_length_a 17.432458
_cell_length_b 24.569993
_cell_length_c 14.619545
_cell_angle_alpha 90.000000
_cell_angle_beta 90.000000
_cell_angle_gamma 90.000000
_cell_volume 6261.775841
_symmetry_space_group_name_H-M "C M M M"
_symmetry_group_IT_number 65
_symmetry_cell_setting 'orthorhombic'
loop_
_space_group_symop_operation_xyz
x,y,z
-x,-y,z
x,-y,-z
-x,y,-z
-x,-y,-z
x,y,-z
-x,y,z
x,-y,z
1/2+x,1/2+y,z
1/2-x,1/2-y,z
1/2+x,1/2-y,-z
1/2-x,1/2+y,-z
1/2-x,1/2-y,-z
1/2+x,1/2+y,-z
1/2-x,1/2+y,z
1/2+x,1/2-y,z
loop_
_atom_site_type_symbol
_atom_site_label
_atom_site_fract_x
_atom_site_fract_y
_atom_site_fract_z
Si Si1 0.586672 0.500000 0.845065
Si Si2 0.090898 0.882292 0.897198
Si Si3 0.587280 0.500000 0.370708
Si Si4 0.413061 0.000000 0.609299
Si Si5 0.412482 0.312646 0.732577
Si Si6 0.408629 0.781779 0.395462
Si Si7 0.340817 0.389534 0.599873
Si Si8 0.670477 0.107089 0.608030
O O1 0.500000 0.500000 0.882421
O O2 0.625718 0.443358 0.880397
O O3 0.591152 0.500000 0.737430
O O4 0.124537 0.835412 0.828101
O O5 0.000000 0.885750 0.879179
O O6 0.110850 0.863619 0.000000
O O7 0.500000 0.500000 0.405547
O O8 0.633462 0.450724 0.413348
O O9 0.370176 0.946629 0.648894
O O10 0.500000 0.000000 0.646314
O O11 0.413355 0.000000 0.500000
O O12 0.500000 0.297788 0.751198
O O13 0.374068 0.260566 0.680638
O O14 0.405440 0.361795 0.661478
O O15 0.381062 0.768135 0.500000
O O16 0.500000 0.781132 0.392986
O O17 0.379419 0.840689 0.364450
O O18 0.338571 0.361166 0.500000
O O19 0.256666 0.386304 0.647148
O O20 0.675857 0.099939 0.500000
#
# Coordination Sequence:
#
# PCOD8267311 Si02
#       8
#     8  16   8   8  16  16  16  16
#     4   9  15  26  42  60  83 109 143 187 224 257
#     4   9  16  27  44  64  86 111 143 190 237 267
#     4  11  20  30  42  59  89 124 156 186 212 249
#     4   9  15  26  46  65  82 107 141 184 230 272
#     4  10  19  30  43  62  87 117 155 189 216 258
#     4   9  17  30  47  65  87 115 148 188 227 262
#     4  11  21  30  41  58  87 125 157 186 215 251
#     4   9  18  30  43  63  87 113 149 186 224 267
#
# _framework density 16.608706000000002
#
# number of rings (size 3 to 8) (size 9 to 14) (size 15 to 20)
#    0.000    2.385    1.538    2.308    0.000    6.769 
#    0.000    2.308    0.000    0.000    0.000    2.154 
#    0.000    0.000    0.000    0.154    0.000   15.231 
#
# Total GULP energy -644227.716063 kJ/mol
# GULP energy per Si atom -12388.994540 kJ/mol
# Density = 1.657090 g / cm^3
# Si number density = 16.608706 Si / 1000 Ang^3
#
#
#
# Elastic Constant Matrix: (Units=GPa)
#
#
# Indices 1 2 3 4 5 6 
#
# 1 25.2771 9.5386 11.4508 0.0000 0.0000 0.0000
# 2 9.5386 117.9042 47.3026 0.0000 0.0000 0.0000
# 3 11.4508 47.3026 87.0650 0.0000 0.0000 0.0000
# 4 0.0000 0.0000 0.0000 19.4750 0.0000 0.0000
# 5 0.0000 0.0000 0.0000 0.0000 5.5856 0.0000
# 6 0.0000 0.0000 0.0000 0.0000 0.0000 12.5855
#
#
#
# Elastic Compliance Matrix: (Units=1/GPa)
#
#
# Indices 1 2 3 4 5 6 
#
# 1 0.042280 -0.001521 -0.004734 0.000000 0.000000 0.000000
# 2 -0.001521 0.010900 -0.005722 0.000000 0.000000 0.000000
# 3 -0.004734 -0.005722 0.015217 0.000000 0.000000 0.000000
# 4 0.000000 0.000000 0.000000 0.051348 0.000000 0.000000
# 5 0.000000 0.000000 0.000000 0.000000 0.179032 0.000000
# 6 0.000000 0.000000 0.000000 0.000000 0.000000 0.079457
#
#
# Mechanical properties :
#
#
# Convention : Reuss Voigt Hill
#
# Bulk Modulus (GPa) = 22.50096 40.75893 31.62995
# Shear Modulus (GPa) = 11.99033 18.32617 15.15825
#
# Velocity S-wave (km/s) = 2.68979 3.32536 3.02432
# Velocity P-wave (km/s) = 4.81910 6.27200 5.59293
#
# Compressibility (1/GPa) = 0.04444255
#
# Stress axis : x y z
#
# Youngs Moduli (GPa) = 23.65178 91.74163 65.71541
#
# Poissons Ratio (x) = 0.13955 0.31111
# Poissons Ratio (y) = 0.03598 0.37603
# Poissons Ratio (z) = 0.11197 0.52495
#
# Static dielectric constant tensor:
#      x y z
#    x 2.873010 0.000000 0.000000 
#    y 0.000000 3.354860 0.000000 
#    z 0.000000 0.000000 2.951270 
# 
# 
# High freq. dielectric constant tensor:
#      x y z
#    x 1.602200 0.000000 0.000000 
#    y 0.000000 1.646940 0.000000 
#    z 0.000000 0.000000 1.601800 
# 
# From -- ./inp_files/43129.got.cif
#   From: 2010.03.12/outbox.cif.g09.slc.cpg/sg65_22_cif.got.tgz:43129.got - 2010.04.10 20:52:16.
