data_PCOD8267959
_publ_section_title
;
Structure prediction by ZEFSAII (Michael W. Deem and Ramdas Pophale) SiO2 
 PCOD8267959
Probable space group: C M M M
;
_chemical_formula_sum "Si O2"
_cell_formula_units_Z 96
_cell_length_a 18.146999
_cell_length_b 9.090448
_cell_length_c 31.476987
_cell_angle_alpha 90.000000
_cell_angle_beta 90.000000
_cell_angle_gamma 90.000000
_cell_volume 5192.580725
_symmetry_space_group_name_H-M "C M M M"
_symmetry_group_IT_number 65
_symmetry_cell_setting 'orthorhombic'
loop_
_space_group_symop_operation_xyz
x,y,z
-x,-y,z
x,-y,-z
-x,y,-z
-x,-y,-z
x,y,-z
-x,y,z
x,-y,z
1/2+x,1/2+y,z
1/2-x,1/2-y,z
1/2+x,1/2-y,-z
1/2-x,1/2+y,-z
1/2-x,1/2-y,-z
1/2+x,1/2+y,-z
1/2-x,1/2+y,z
1/2+x,1/2-y,z
loop_
_atom_site_type_symbol
_atom_site_label
_atom_site_fract_x
_atom_site_fract_y
_atom_site_fract_z
Si Si1 0.417791 0.674898 0.828276
Si Si2 0.328403 0.672945 0.908355
Si Si3 0.328658 0.325169 0.582269
Si Si4 0.417367 0.674538 0.664385
Si Si5 0.917302 0.825476 0.500000
Si Si6 0.673996 0.330661 0.000000
Si Si7 0.828386 0.174644 0.253480
O O1 0.500000 0.740431 0.824207
O O2 0.421490 0.500000 0.828131
O O3 0.382743 0.734045 0.872186
O O4 0.369025 0.730514 0.788957
O O5 0.315489 0.500000 0.902137
O O6 0.250000 0.750000 0.903615
O O7 0.366110 0.707247 0.954995
O O8 0.318252 0.500000 0.582319
O O9 0.250000 0.250000 0.581526
O O10 0.372430 0.269175 0.623626
O O11 0.374339 0.270053 0.541538
O O12 0.500000 0.740631 0.663372
O O13 0.421926 0.500000 0.663805
O O14 0.376725 0.729134 0.706774
O O15 0.000000 0.759442 0.500000
O O16 0.921930 0.000000 0.500000
O O17 0.750000 0.250000 0.000000
O O18 0.694378 0.500000 0.000000
O O19 0.750000 0.250000 0.256319
O O20 0.817912 0.000000 0.253685
#
# Coordination Sequence:
#
# PCOD8267959 Si02
#       7
#    16  16  16  16   8   8  16
#     4   9  17  29  45  65  88 115 147 181 217 258
#     4   9  16  27  44  64  86 112 143 179 216 257
#     4  10  19  31  49  71  95 122 152 189 228 267
#     4   9  17  30  49  71  92 118 154 189 219 258
#     4   9  17  30  49  71  92 119 158 196 226 261
#     4   8  14  24  39  61  85 109 139 174 214 256
#     4  10  19  31  49  70  91 116 147 184 222 262
#
# _framework density 18.487915999999998
#
# number of rings (size 3 to 8) (size 9 to 14) (size 15 to 20)
#    0.000    2.750    0.000    2.250    0.000    4.000 
#    0.000    0.417    0.000    9.500    0.000    0.000 
#    0.000    6.667    0.000    0.000    0.000    0.000 
#
# Total GULP energy -594930.700803 kJ/mol
# GULP energy per Si atom -12394.389600 kJ/mol
# Density = 1.844584 g / cm^3
# Si number density = 18.487916 Si / 1000 Ang^3
#
#
#
# Elastic Constant Matrix: (Units=GPa)
#
#
# Indices 1 2 3 4 5 6 
#
# 1 173.8143 23.2425 102.3185 0.0000 0.0000 0.0000
# 2 23.2425 14.4057 20.9916 0.0000 0.0000 0.0000
# 3 102.3185 20.9916 208.3585 0.0000 0.0000 0.0000
# 4 0.0000 0.0000 0.0000 10.1112 0.0000 0.0000
# 5 0.0000 0.0000 0.0000 0.0000 29.5607 0.0000
# 6 0.0000 0.0000 0.0000 0.0000 0.0000 24.5483
#
#
#
# Elastic Compliance Matrix: (Units=1/GPa)
#
#
# Indices 1 2 3 4 5 6 
#
# 1 0.009094 -0.009570 -0.003502 0.000000 0.000000 0.000000
# 2 -0.009570 0.091433 -0.004512 0.000000 0.000000 0.000000
# 3 -0.003502 -0.004512 0.006974 0.000000 0.000000 0.000000
# 4 0.000000 0.000000 0.000000 0.098900 0.000000 0.000000
# 5 0.000000 0.000000 0.000000 0.000000 0.033829 0.000000
# 6 0.000000 0.000000 0.000000 0.000000 0.000000 0.040736
#
#
# Mechanical properties :
#
#
# Convention : Reuss Voigt Hill
#
# Bulk Modulus (GPa) = 13.82503 76.63152 45.22827
# Shear Modulus (GPa) = 14.69530 29.51244 22.10387
#
# Velocity S-wave (km/s) = 2.82238 3.99972 3.46147
# Velocity P-wave (km/s) = 4.25620 7.92905 6.36337
#
# Compressibility (1/GPa) = 0.07233258
#
# Stress axis : x y z
#
# Youngs Moduli (GPa) = 109.95772 10.93700 143.39784
#
# Poissons Ratio (x) = 0.10467 0.50215
# Poissons Ratio (y) = 1.05234 0.64700
# Poissons Ratio (z) = 0.38505 0.04935
#
# Static dielectric constant tensor:
#      x y z
#    x 3.407310 0.000000 0.000000 
#    y 0.000000 2.900740 0.000000 
#    z 0.000000 0.000000 4.053400 
# 
# 
# High freq. dielectric constant tensor:
#      x y z
#    x 1.714210 0.000000 0.000000 
#    y 0.000000 1.662580 0.000000 
#    z 0.000000 0.000000 1.746400 
# 
# From -- ./inp_files/77639.got.cif
#   From: 2010.03.12/outbox.cif.g09.slc.cpg/sg65_39_cif.got.tgz:77639.got - 2010.04.10 20:52:16.
