data_PCOD8267112
_publ_section_title
;
Structure prediction by ZEFSAII (Michael W. Deem and Ramdas Pophale) SiO2 
 PCOD8267112
Probable space group: C M M M
;
_chemical_formula_sum "Si O2"
_cell_formula_units_Z 72
_cell_length_a 8.963030
_cell_length_b 25.831167
_cell_length_c 19.881006
_cell_angle_alpha 90.000000
_cell_angle_beta 90.000000
_cell_angle_gamma 90.000000
_cell_volume 4602.960347
_symmetry_space_group_name_H-M "C M M M"
_symmetry_group_IT_number 65
_symmetry_cell_setting 'orthorhombic'
loop_
_space_group_symop_operation_xyz
x,y,z
-x,-y,z
x,-y,-z
-x,y,-z
-x,-y,-z
x,y,-z
-x,y,z
x,-y,z
1/2+x,1/2+y,z
1/2-x,1/2-y,z
1/2+x,1/2-y,-z
1/2-x,1/2+y,-z
1/2-x,1/2-y,-z
1/2+x,1/2+y,-z
1/2-x,1/2+y,z
1/2+x,1/2-y,z
loop_
_atom_site_type_symbol
_atom_site_label
_atom_site_fract_x
_atom_site_fract_y
_atom_site_fract_z
Si Si1 0.323318 0.559816 0.230687
Si Si2 0.832911 0.561116 0.368136
Si Si3 0.324032 0.888044 0.890359
Si Si4 0.668678 0.438153 0.500000
Si Si5 0.160490 0.942345 0.000000
Si Si6 0.825479 0.305013 0.000000
O O1 0.500000 0.564968 0.228647
O O2 0.275892 0.500000 0.213822
O O3 0.264947 0.576265 0.303736
O O4 0.253539 0.603405 0.181518
O O5 0.842761 0.500000 0.375292
O O6 0.753005 0.583939 0.434341
O O7 0.000000 0.584349 0.361671
O O8 0.500000 0.892047 0.880981
O O9 0.278927 0.835799 0.931666
O O10 0.261972 0.934376 0.934984
O O11 0.668047 0.500000 0.500000
O O12 0.500000 0.416954 0.500000
O O13 0.000000 0.910937 0.000000
O O14 0.108307 0.000000 0.000000
O O15 0.750000 0.250000 0.000000
O O16 0.000000 0.296515 0.000000
#
# Coordination Sequence:
#
# PCOD8267112 Si02
#       6
#    16  16  16   8   8   8
#     4  10  19  29  41  60  86 115 146 177 210 249
#     4   9  16  25  37  53  75 107 145 181 215 248
#     4  10  20  32  45  63  84 106 135 169 207 251
#     4   9  15  23  35  51  73 103 142 185 218 245
#     4  10  19  29  41  59  82 108 138 168 198 237
#     4   9  20  36  52  68  83 102 132 170 211 256
#
# _framework density 15.642108
#
# number of rings (size 3 to 8) (size 9 to 14) (size 15 to 20)
#    0.000    2.444    0.000    4.000    0.000   11.556 
#    0.000    0.000    0.000    0.000    0.000    0.000 
#    0.000    0.000    0.000    1.000    0.000   13.667 
#
# Total GULP energy -446038.519351 kJ/mol
# GULP energy per Si atom -12389.958871 kJ/mol
# Density = 1.560651 g / cm^3
# Si number density = 15.642108 Si / 1000 Ang^3
#
#
#
# Elastic Constant Matrix: (Units=GPa)
#
#
# Indices 1 2 3 4 5 6 
#
# 1 102.2981 34.0864 58.2349 0.0000 0.0000 0.0000
# 2 34.0864 56.1793 39.2805 0.0000 0.0000 0.0000
# 3 58.2349 39.2805 138.8516 0.0000 0.0000 0.0000
# 4 0.0000 0.0000 0.0000 10.2012 0.0000 0.0000
# 5 0.0000 0.0000 0.0000 0.0000 56.0065 0.0000
# 6 0.0000 0.0000 0.0000 0.0000 0.0000 16.5043
#
#
#
# Elastic Compliance Matrix: (Units=1/GPa)
#
#
# Indices 1 2 3 4 5 6 
#
# 1 0.014086 -0.005505 -0.004351 0.000000 0.000000 0.000000
# 2 -0.005505 0.024340 -0.004577 0.000000 0.000000 0.000000
# 3 -0.004351 -0.004577 0.010321 0.000000 0.000000 0.000000
# 4 0.000000 0.000000 0.000000 0.098028 0.000000 0.000000
# 5 0.000000 0.000000 0.000000 0.000000 0.017855 0.000000
# 6 0.000000 0.000000 0.000000 0.000000 0.000000 0.060590
#
#
# Mechanical properties :
#
#
# Convention : Reuss Voigt Hill
#
# Bulk Modulus (GPa) = 50.29362 62.28138 56.28750
# Shear Modulus (GPa) = 19.17813 27.59088 23.38451
#
# Velocity S-wave (km/s) = 3.50531 4.20442 3.87068
# Velocity P-wave (km/s) = 6.97176 7.96696 7.48592
#
# Compressibility (1/GPa) = 0.01988324
#
# Stress axis : x y z
#
# Youngs Moduli (GPa) = 70.99150 41.08386 96.88620
#
# Poissons Ratio (x) = 0.22616 0.42150
# Poissons Ratio (y) = 0.39080 0.44345
# Poissons Ratio (z) = 0.30885 0.18804
#
# Static dielectric constant tensor:
#      x y z
#    x 3.171840 0.000000 0.000000 
#    y 0.000000 2.552730 0.000000 
#    z 0.000000 0.000000 3.158430 
# 
# 
# High freq. dielectric constant tensor:
#      x y z
#    x 1.625510 0.000000 0.000000 
#    y 0.000000 1.521260 0.000000 
#    z 0.000000 0.000000 1.609850 
# 
# From -- ./inp_files/49771.got.cif
#   From: 2010.03.12/outbox.cif.g09.slc.cpg/sg65_25_cif.got.tgz:49771.got - 2010.04.10 20:52:16.
