data_PCOD8267082
_publ_section_title
;
Structure prediction by ZEFSAII (Michael W. Deem and Ramdas Pophale) SiO2 
 PCOD8267082
Probable space group: C M M M
;
_chemical_formula_sum "Si O2"
_cell_formula_units_Z 96
_cell_length_a 29.856969
_cell_length_b 20.372170
_cell_length_c 9.399749
_cell_angle_alpha 90.000000
_cell_angle_beta 90.000000
_cell_angle_gamma 90.000000
_cell_volume 5717.409062
_symmetry_space_group_name_H-M "C M M M"
_symmetry_group_IT_number 65
_symmetry_cell_setting 'orthorhombic'
loop_
_space_group_symop_operation_xyz
x,y,z
-x,-y,z
x,-y,-z
-x,y,-z
-x,-y,-z
x,y,-z
-x,y,z
x,-y,z
1/2+x,1/2+y,z
1/2-x,1/2-y,z
1/2+x,1/2-y,-z
1/2-x,1/2+y,-z
1/2-x,1/2-y,-z
1/2+x,1/2+y,-z
1/2-x,1/2+y,z
1/2+x,1/2-y,z
loop_
_atom_site_type_symbol
_atom_site_label
_atom_site_fract_x
_atom_site_fract_y
_atom_site_fract_z
Si Si1 0.367182 0.620381 0.164410
Si Si2 0.218804 0.689344 0.665589
Si Si3 0.049349 0.119888 0.340524
Si Si4 0.133371 0.724816 0.164927
Si Si5 0.549474 0.775839 0.659728
Si Si6 0.784394 0.925757 0.661191
O O1 0.413022 0.592920 0.233612
O O2 0.361719 0.697704 0.189712
O O3 0.325983 0.583581 0.235338
O O4 0.368377 0.601796 0.000000
O O5 0.205803 0.694626 0.500000
O O6 0.250000 0.750000 0.711253
O O7 0.174072 0.688777 0.757956
O O8 0.243946 0.622011 0.703527
O O9 0.060228 0.095057 0.500000
O O10 0.049371 0.197866 0.337558
O O11 0.000000 0.094304 0.293550
O O12 0.087027 0.697673 0.231905
O O13 0.133729 0.706106 0.000000
O O14 0.560540 0.800416 0.500000
O O15 0.500000 0.801381 0.706183
O O16 0.800080 0.909866 0.500000
O O17 0.766603 0.000000 0.675071
#
# Coordination Sequence:
#
# PCOD8267082 Si02
#       6
#    16  16  16  16  16  16
#     4  10  19  29  44  67  94 123 154 191 236 282
#     4  10  19  32  51  71  91 121 158 196 236 278
#     4   8  14  25  42  63  87 118 156 195 234 276
#     4  10  19  28  43  69  98 126 156 193 233 276
#     4   8  14  25  41  62  91 126 159 191 229 274
#     4  10  21  36  52  69  90 119 157 198 237 279
#
# _framework density 16.790823
#
# number of rings (size 3 to 8) (size 9 to 14) (size 15 to 20)
#    0.000    2.667    1.667    2.000    0.000    3.333 
#    0.000    3.333    0.000    0.500    0.000    3.500 
#    0.000    0.667    0.000    7.667    0.000    2.500 
#
# Total GULP energy -595102.870153 kJ/mol
# GULP energy per Si atom -12397.976462 kJ/mol
# Density = 1.675261 g / cm^3
# Si number density = 16.790823 Si / 1000 Ang^3
#
#
#
# Elastic Constant Matrix: (Units=GPa)
#
#
# Indices 1 2 3 4 5 6 
#
# 1 146.3759 41.6479 82.5463 0.0000 0.0000 0.0000
# 2 41.6479 51.4271 33.6561 0.0000 0.0000 0.0000
# 3 82.5463 33.6561 103.4889 0.0000 0.0000 0.0000
# 4 0.0000 0.0000 0.0000 11.7884 0.0000 0.0000
# 5 0.0000 0.0000 0.0000 0.0000 13.5401 0.0000
# 6 0.0000 0.0000 0.0000 0.0000 0.0000 10.2176
#
#
#
# Elastic Compliance Matrix: (Units=1/GPa)
#
#
# Indices 1 2 3 4 5 6 
#
# 1 0.013312 -0.004868 -0.009035 0.000000 0.000000 0.000000
# 2 -0.004868 0.026482 -0.004730 0.000000 0.000000 0.000000
# 3 -0.009035 -0.004730 0.018408 0.000000 0.000000 0.000000
# 4 0.000000 0.000000 0.000000 0.084829 0.000000 0.000000
# 5 0.000000 0.000000 0.000000 0.000000 0.073854 0.000000
# 6 0.000000 0.000000 0.000000 0.000000 0.000000 0.097870
#
#
# Mechanical properties :
#
#
# Convention : Reuss Voigt Hill
#
# Bulk Modulus (GPa) = 47.76224 68.55471 58.15847
# Shear Modulus (GPa) = 13.92758 16.67200 15.29979
#
# Velocity S-wave (km/s) = 2.88319 3.15449 3.02188
# Velocity P-wave (km/s) = 6.29213 7.36105 6.84748
#
# Compressibility (1/GPa) = 0.02093704
#
# Stress axis : x y z
#
# Youngs Moduli (GPa) = 75.12135 37.76086 54.32515
#
# Poissons Ratio (x) = 0.18381 0.49082
# Poissons Ratio (y) = 0.36566 0.25695
# Poissons Ratio (z) = 0.67872 0.17860
#
# Static dielectric constant tensor:
#      x y z
#    x 3.374170 0.000000 0.000000 
#    y 0.000000 2.698260 0.000000 
#    z 0.000000 0.000000 3.201000 
# 
# 
# High freq. dielectric constant tensor:
#      x y z
#    x 1.655430 0.000000 0.000000 
#    y 0.000000 1.588630 0.000000 
#    z 0.000000 0.000000 1.649290 
# 
# From -- ./inp_files/12300.got.cif
#   From: 2010.03.12/outbox.cif.g09.slc.cpg/sg65_7_cif.got.tgz:12300.got - 2010.04.10 20:52:16.
