data_PCOD8267705
_publ_section_title
;
Structure prediction by ZEFSAII (Michael W. Deem and Ramdas Pophale) SiO2 
 PCOD8267705
Probable space group: C M M M
;
_chemical_formula_sum "Si O2"
_cell_formula_units_Z 96
_cell_length_a 8.859750
_cell_length_b 25.469263
_cell_length_c 27.260968
_cell_angle_alpha 90.000000
_cell_angle_beta 90.000000
_cell_angle_gamma 90.000000
_cell_volume 6151.472947
_symmetry_space_group_name_H-M "C M M M"
_symmetry_group_IT_number 65
_symmetry_cell_setting 'orthorhombic'
loop_
_space_group_symop_operation_xyz
x,y,z
-x,-y,z
x,-y,-z
-x,y,-z
-x,-y,-z
x,y,-z
-x,y,z
x,-y,z
1/2+x,1/2+y,z
1/2-x,1/2-y,z
1/2+x,1/2-y,-z
1/2-x,1/2+y,-z
1/2-x,1/2-y,-z
1/2+x,1/2+y,-z
1/2-x,1/2+y,z
1/2+x,1/2-y,z
loop_
_atom_site_type_symbol
_atom_site_label
_atom_site_fract_x
_atom_site_fract_y
_atom_site_fract_z
Si Si1 0.321164 0.902234 0.109519
Si Si2 0.830024 0.437408 0.500000
Si Si3 0.175771 0.805502 0.056761
Si Si4 0.830589 0.562409 0.694780
Si Si5 0.825205 0.061787 0.793939
Si Si6 0.829938 0.937363 0.402369
Si Si7 0.828090 0.000000 0.058048
O O1 0.500000 0.904102 0.105850
O O2 0.260851 0.847466 0.089705
O O3 0.270852 0.907597 0.165690
O O4 0.253810 0.948531 0.076973
O O5 0.826947 0.500000 0.500000
O O6 0.747699 0.415495 0.548393
O O7 0.000000 0.416110 0.500000
O O8 0.250000 0.750000 0.068868
O O9 0.000000 0.803954 0.070624
O O10 0.198673 0.820524 0.000000
O O11 0.832306 0.500000 0.692392
O O12 0.731994 0.581115 0.740973
O O13 0.757500 0.585003 0.645006
O O14 0.000000 0.584522 0.699785
O O15 0.000000 0.076378 0.799125
O O16 0.797727 0.000000 0.801215
O O17 0.000000 0.916143 0.400672
O O18 0.827123 0.000000 0.402209
O O19 0.000000 0.000000 0.077790
O O20 0.823804 0.000000 0.000000
#
# Coordination Sequence:
#
# PCOD8267705 Si02
#       7
#    16   8  16  16  16  16   8
#     4  12  23  34  51  73  97 122 151 185 224 269
#     4   9  15  21  29  41  59  83 115 159 210 253
#     4  10  21  38  58  77  97 121 150 184 222 265
#     4   9  16  25  37  52  72  97 130 169 210 255
#     4  10  19  31  46  62  85 115 146 179 219 264
#     4   9  15  22  31  44  62  87 121 160 206 255
#     4  11  23  37  51  69  95 125 153 182 221 268
#
# _framework density 15.606019
#
# number of rings (size 3 to 8) (size 9 to 14) (size 15 to 20)
#    0.000    2.000    0.833    4.500    0.000    9.333 
#    0.000    0.000    0.000    0.000    0.000    0.000 
#    0.000    0.000    0.000    0.000    0.000    0.000 
#
# Total GULP energy -595282.531051 kJ/mol
# GULP energy per Si atom -12401.719397 kJ/mol
# Density = 1.557050 g / cm^3
# Si number density = 15.606019 Si / 1000 Ang^3
#
#
#
# Elastic Constant Matrix: (Units=GPa)
#
#
# Indices 1 2 3 4 5 6 
#
# 1 152.1244 37.7893 68.1104 0.0000 0.0000 0.0000
# 2 37.7893 46.0778 38.1609 0.0000 0.0000 0.0000
# 3 68.1104 38.1609 123.9589 0.0000 0.0000 0.0000
# 4 0.0000 0.0000 0.0000 6.6484 0.0000 0.0000
# 5 0.0000 0.0000 0.0000 0.0000 32.8527 0.0000
# 6 0.0000 0.0000 0.0000 0.0000 0.0000 17.4964
#
#
#
# Elastic Compliance Matrix: (Units=1/GPa)
#
#
# Indices 1 2 3 4 5 6 
#
# 1 0.009393 -0.004603 -0.003744 0.000000 0.000000 0.000000
# 2 -0.004603 0.031384 -0.007133 0.000000 0.000000 0.000000
# 3 -0.003744 -0.007133 0.012320 0.000000 0.000000 0.000000
# 4 0.000000 0.000000 0.000000 0.150412 0.000000 0.000000
# 5 0.000000 0.000000 0.000000 0.000000 0.030439 0.000000
# 6 0.000000 0.000000 0.000000 0.000000 0.000000 0.057155
#
#
# Mechanical properties :
#
#
# Convention : Reuss Voigt Hill
#
# Bulk Modulus (GPa) = 45.16989 67.80914 56.48951
# Shear Modulus (GPa) = 15.17711 23.27285 19.22498
#
# Velocity S-wave (km/s) = 3.12190 3.86589 3.51364
# Velocity P-wave (km/s) = 6.48088 7.96692 7.26201
#
# Compressibility (1/GPa) = 0.02213864
#
# Stress axis : x y z
#
# Youngs Moduli (GPa) = 106.45809 31.86291 81.16635
#
# Poissons Ratio (x) = 0.14666 0.30391
# Poissons Ratio (y) = 0.48999 0.57894
# Poissons Ratio (z) = 0.39861 0.22727
#
# Static dielectric constant tensor:
#      x y z
#    x 3.233470 0.000000 0.000000 
#    y 0.000000 2.457850 0.000000 
#    z 0.000000 0.000000 3.170730 
# 
# 
# High freq. dielectric constant tensor:
#      x y z
#    x 1.624250 0.000000 0.000000 
#    y 0.000000 1.521910 0.000000 
#    z 0.000000 0.000000 1.612670 
# 
# From -- ./inp_files/73518.got.cif
#   From: 2010.03.12/outbox.cif.g09.slc.cpg/sg65_37_cif.got.tgz:73518.got - 2010.04.10 20:52:16.
