data_PCOD8267410
_publ_section_title
;
Structure prediction by ZEFSAII (Michael W. Deem and Ramdas Pophale) SiO2 
 PCOD8267410
Probable space group: C M M M
;
_chemical_formula_sum "Si O2"
_cell_formula_units_Z 104
_cell_length_a 9.220362
_cell_length_b 28.275153
_cell_length_c 23.255623
_cell_angle_alpha 90.000000
_cell_angle_beta 90.000000
_cell_angle_gamma 90.000000
_cell_volume 6062.907107
_symmetry_space_group_name_H-M "C M M M"
_symmetry_group_IT_number 65
_symmetry_cell_setting 'orthorhombic'
loop_
_space_group_symop_operation_xyz
x,y,z
-x,-y,z
x,-y,-z
-x,y,-z
-x,-y,-z
x,y,-z
-x,y,z
x,-y,z
1/2+x,1/2+y,z
1/2-x,1/2-y,z
1/2+x,1/2-y,-z
1/2-x,1/2+y,-z
1/2-x,1/2-y,-z
1/2+x,1/2+y,-z
1/2-x,1/2+y,z
1/2+x,1/2-y,z
loop_
_atom_site_type_symbol
_atom_site_label
_atom_site_fract_x
_atom_site_fract_y
_atom_site_fract_z
Si Si1 0.168659 0.861299 0.391548
Si Si2 0.831957 0.052612 0.230673
Si Si3 0.829300 0.200338 0.500000
Si Si4 0.170414 0.798516 0.935578
Si Si5 0.171259 0.854928 0.171929
Si Si6 0.330243 0.298453 0.718198
Si Si7 0.168703 0.553512 0.349350
O O1 0.219891 0.828811 0.444139
O O2 0.205451 0.834802 0.332503
O O3 0.257027 0.910455 0.393942
O O4 0.000000 0.873741 0.396885
O O5 0.780673 0.090719 0.182902
O O6 0.738675 0.060445 0.287127
O O7 0.000000 0.061054 0.247665
O O8 0.808496 0.000000 0.205032
O O9 0.750000 0.250000 0.500000
O O10 0.000000 0.210102 0.500000
O O11 0.250000 0.750000 0.921361
O O12 0.228662 0.837574 0.890224
O O13 0.000000 0.789374 0.928670
O O14 0.207946 0.816308 0.000000
O O15 0.230272 0.821064 0.222649
O O16 0.000000 0.851813 0.172609
O O17 0.500000 0.287628 0.721448
O O18 0.250000 0.250000 0.705174
O O19 0.194256 0.500000 0.371592
O O20 0.000000 0.565354 0.344221
#
# Coordination Sequence:
#
# PCOD8267410 Si02
#       7
#    16  16   8  16  16  16  16
#     4  10  20  36  54  73  98 131 166 199 237 288
#     4   9  16  29  50  71  94 127 161 194 238 294
#     4  10  22  38  57  78 101 131 170 207 239 286
#     4   9  17  29  45  64  91 127 162 197 235 278
#     4   9  16  28  45  68  95 121 157 197 237 285
#     4  10  19  30  45  67  95 123 154 195 239 283
#     4  10  20  33  51  77 104 127 157 201 249 294
#
# _framework density 17.153487999999999
#
# number of rings (size 3 to 8) (size 9 to 14) (size 15 to 20)
#    0.000    2.462    1.538    1.385    0.000    2.154 
#    0.000    1.154    0.000    2.769    0.000    3.231 
#    0.000    0.000    0.000    7.692    0.000    8.000 
#
# Total GULP energy -644709.590841 kJ/mol
# GULP energy per Si atom -12398.261362 kJ/mol
# Density = 1.711445 g / cm^3
# Si number density = 17.153488 Si / 1000 Ang^3
#
#
#
# Elastic Constant Matrix: (Units=GPa)
#
#
# Indices 1 2 3 4 5 6 
#
# 1 49.3760 56.9195 35.3547 0.0000 0.0000 0.0000
# 2 56.9195 144.7468 65.8326 0.0000 0.0000 0.0000
# 3 35.3547 65.8326 107.9104 0.0000 0.0000 0.0000
# 4 0.0000 0.0000 0.0000 30.2463 0.0000 0.0000
# 5 0.0000 0.0000 0.0000 0.0000 11.7352 0.0000
# 6 0.0000 0.0000 0.0000 0.0000 0.0000 28.6833
#
#
#
# Elastic Compliance Matrix: (Units=1/GPa)
#
#
# Indices 1 2 3 4 5 6 
#
# 1 0.038694 -0.013079 -0.004698 0.000000 0.000000 0.000000
# 2 -0.013079 0.013983 -0.004245 0.000000 0.000000 0.000000
# 3 -0.004698 -0.004245 0.013396 0.000000 0.000000 0.000000
# 4 0.000000 0.000000 0.000000 0.033062 0.000000 0.000000
# 5 0.000000 0.000000 0.000000 0.000000 0.085213 0.000000
# 6 0.000000 0.000000 0.000000 0.000000 0.000000 0.034864
#
#
# Mechanical properties :
#
#
# Convention : Reuss Voigt Hill
#
# Bulk Modulus (GPa) = 45.39735 68.69409 57.04572
# Shear Modulus (GPa) = 18.47751 23.72803 21.10277
#
# Velocity S-wave (km/s) = 3.28561 3.72328 3.51127
# Velocity P-wave (km/s) = 6.39660 7.65620 7.05457
#
# Compressibility (1/GPa) = 0.02202772
#
# Stress axis : x y z
#
# Youngs Moduli (GPa) = 25.84372 71.51783 74.64862
#
# Poissons Ratio (x) = 0.93539 0.35072
# Poissons Ratio (y) = 0.33801 0.31690
# Poissons Ratio (z) = 0.12142 0.30361
#
# Static dielectric constant tensor:
#      x y z
#    x 3.074010 0.000000 0.000000 
#    y 0.000000 3.421940 0.000000 
#    z 0.000000 0.000000 3.327720 
# 
# 
# High freq. dielectric constant tensor:
#      x y z
#    x 1.644270 0.000000 0.000000 
#    y 0.000000 1.669670 0.000000 
#    z 0.000000 0.000000 1.648150 
# 
# From -- ./inp_files/60791.got.cif
#   From: 2010.03.12/outbox.cif.g09.slc.cpg/sg65_31_cif.got.tgz:60791.got - 2010.04.10 20:52:16.
