data_PCOD8267178
_publ_section_title
;
Structure prediction by ZEFSAII (Michael W. Deem and Ramdas Pophale) SiO2 
 PCOD8267178
Probable space group: C M M M
;
_chemical_formula_sum "Si O2"
_cell_formula_units_Z 104
_cell_length_a 8.892255
_cell_length_b 27.173876
_cell_length_c 26.074594
_cell_angle_alpha 90.000000
_cell_angle_beta 90.000000
_cell_angle_gamma 90.000000
_cell_volume 6300.587576
_symmetry_space_group_name_H-M "C M M M"
_symmetry_group_IT_number 65
_symmetry_cell_setting 'orthorhombic'
loop_
_space_group_symop_operation_xyz
x,y,z
-x,-y,z
x,-y,-z
-x,y,-z
-x,-y,-z
x,y,-z
-x,y,z
x,-y,z
1/2+x,1/2+y,z
1/2-x,1/2-y,z
1/2+x,1/2-y,-z
1/2-x,1/2+y,-z
1/2-x,1/2-y,-z
1/2+x,1/2+y,-z
1/2-x,1/2+y,z
1/2+x,1/2-y,z
loop_
_atom_site_type_symbol
_atom_site_label
_atom_site_fract_x
_atom_site_fract_y
_atom_site_fract_z
Si Si1 0.171894 0.603360 0.696780
Si Si2 0.669301 0.058466 0.500000
Si Si3 0.324868 0.198283 0.940888
Si Si4 0.175754 0.300463 0.758402
Si Si5 0.676366 0.443945 0.397406
Si Si6 0.322322 0.645120 0.851827
Si Si7 0.173623 0.556357 0.197378
O O1 0.203548 0.659243 0.714210
O O2 0.278534 0.590610 0.649655
O O3 0.211288 0.566583 0.743267
O O4 0.000000 0.596347 0.679330
O O5 0.500000 0.078402 0.500000
O O6 0.750393 0.078210 0.448944
O O7 0.677293 0.000000 0.500000
O O8 0.500000 0.201315 0.927154
O O9 0.250000 0.250000 0.927030
O O10 0.244088 0.156347 0.907771
O O11 0.298615 0.184371 0.000000
O O12 0.250000 0.250000 0.739102
O O13 0.251912 0.317110 0.811220
O O14 0.000000 0.293069 0.768981
O O15 0.500000 0.442134 0.405044
O O16 0.731296 0.500000 0.387149
O O17 0.500000 0.651168 0.851816
O O18 0.278497 0.589099 0.838824
O O19 0.207747 0.500000 0.184398
O O20 0.000000 0.570523 0.187064
#
# Coordination Sequence:
#
# PCOD8267178 Si02
#       7
#    16   8  16  16  16  16  16
#     4   9  18  31  47  68  93 123 157 190 228 276
#     4   9  17  29  45  63  86 121 160 193 229 275
#     4  10  20  34  52  73  97 124 155 192 235 282
#     4  10  20  34  50  69  95 125 159 196 234 278
#     4  10  19  29  43  66  96 125 154 192 233 272
#     4  11  21  32  49  72  99 128 157 191 232 280
#     4   9  18  33  51  70  95 127 162 198 233 273
#
# _framework density 16.506397
#
# number of rings (size 3 to 8) (size 9 to 14) (size 15 to 20)
#    0.000    2.231    0.000    4.846    0.000    6.769 
#    0.000    0.000    0.000    0.462    0.000    3.769 
#    0.000    0.000    0.000    0.000    0.000    0.000 
#
# Total GULP energy -644954.994783 kJ/mol
# GULP energy per Si atom -12402.980669 kJ/mol
# Density = 1.646883 g / cm^3
# Si number density = 16.506397 Si / 1000 Ang^3
#
#
#
# Elastic Constant Matrix: (Units=GPa)
#
#
# Indices 1 2 3 4 5 6 
#
# 1 117.0943 46.6825 61.2208 0.0000 0.0000 0.0000
# 2 46.6825 80.3631 46.5263 0.0000 0.0000 0.0000
# 3 61.2208 46.5263 104.6113 0.0000 0.0000 0.0000
# 4 0.0000 0.0000 0.0000 19.7351 0.0000 0.0000
# 5 0.0000 0.0000 0.0000 0.0000 28.0521 0.0000
# 6 0.0000 0.0000 0.0000 0.0000 0.0000 28.1517
#
#
#
# Elastic Compliance Matrix: (Units=1/GPa)
#
#
# Indices 1 2 3 4 5 6 
#
# 1 0.013347 -0.004351 -0.005876 0.000000 0.000000 0.000000
# 2 -0.004351 0.018177 -0.005538 0.000000 0.000000 0.000000
# 3 -0.005876 -0.005538 0.015461 0.000000 0.000000 0.000000
# 4 0.000000 0.000000 0.000000 0.050671 0.000000 0.000000
# 5 0.000000 0.000000 0.000000 0.000000 0.035648 0.000000
# 6 0.000000 0.000000 0.000000 0.000000 0.000000 0.035522
#
#
# Mechanical properties :
#
#
# Convention : Reuss Voigt Hill
#
# Bulk Modulus (GPa) = 64.70331 67.88088 66.29210
# Shear Modulus (GPa) = 24.32998 25.03036 24.68017
#
# Velocity S-wave (km/s) = 3.84340 3.89833 3.87096
# Velocity P-wave (km/s) = 7.67982 7.84065 7.76066
#
# Compressibility (1/GPa) = 0.01545516
#
# Stress axis : x y z
#
# Youngs Moduli (GPa) = 74.92386 55.01318 64.68003
#
# Poissons Ratio (x) = 0.23939 0.38003
# Poissons Ratio (y) = 0.32603 0.35819
# Poissons Ratio (z) = 0.44022 0.30466
#
# Static dielectric constant tensor:
#      x y z
#    x 3.167710 0.000000 0.000000 
#    y 0.000000 3.409010 0.000000 
#    z 0.000000 0.000000 3.024030 
# 
# 
# High freq. dielectric constant tensor:
#      x y z
#    x 1.648410 0.000000 0.000000 
#    y 0.000000 1.613760 0.000000 
#    z 0.000000 0.000000 1.627020 
# 
# From -- ./inp_files/68236.got.cif
#   From: 2010.03.12/outbox.cif.g09.slc.cpg/sg65_35_cif.got.tgz:68236.got - 2010.04.10 20:52:16.
