data_PCOD8267143
_publ_section_title
;
Structure prediction by ZEFSAII (Michael W. Deem and Ramdas Pophale) SiO2 
 PCOD8267143
Probable space group: C M M M
;
_chemical_formula_sum "Si O2"
_cell_formula_units_Z 72
_cell_length_a 25.560632
_cell_length_b 8.872119
_cell_length_c 19.552088
_cell_angle_alpha 90.000000
_cell_angle_beta 90.000000
_cell_angle_gamma 90.000000
_cell_volume 4433.963251
_symmetry_space_group_name_H-M "C M M M"
_symmetry_group_IT_number 65
_symmetry_cell_setting 'orthorhombic'
loop_
_space_group_symop_operation_xyz
x,y,z
-x,-y,z
x,-y,-z
-x,y,-z
-x,-y,-z
x,y,-z
-x,y,z
x,-y,z
1/2+x,1/2+y,z
1/2-x,1/2-y,z
1/2+x,1/2-y,-z
1/2-x,1/2+y,-z
1/2-x,1/2-y,-z
1/2+x,1/2+y,-z
1/2-x,1/2+y,z
1/2+x,1/2-y,z
loop_
_atom_site_type_symbol
_atom_site_label
_atom_site_fract_x
_atom_site_fract_y
_atom_site_fract_z
Si Si1 0.899076 0.678572 0.657958
Si Si2 0.804934 0.177099 0.578333
Si Si3 0.000000 0.679164 0.576664
Si Si4 0.938777 0.825222 0.210066
Si Si5 0.437924 0.830527 0.074884
O O1 0.893738 0.500000 0.653377
O O2 0.847745 0.753646 0.627891
O O3 0.948718 0.739442 0.615163
O O4 0.905957 0.727999 0.736148
O O5 0.819505 0.216383 0.500000
O O6 0.750000 0.250000 0.598602
O O7 0.801216 0.000000 0.590255
O O8 0.000000 0.500000 0.575857
O O9 0.000000 0.744957 0.500000
O O10 0.917938 0.780213 0.134582
O O11 0.000000 0.785981 0.218003
O O12 0.927718 0.000000 0.222364
O O13 0.500000 0.828446 0.073372
O O14 0.418106 0.000000 0.090064
O O15 0.417025 0.776910 0.000000
#
# Coordination Sequence:
#
# PCOD8267143 Si02
#       5
#    16  16   8  16  16
#     4  11  20  32  50  70  96 128 162 200 240 287
#     4  10  21  37  55  74  95 121 156 200 248 294
#     4   9  18  30  45  67  92 121 158 195 233 282
#     4  10  19  29  42  63  95 129 161 197 238 285
#     4   8  14  25  41  60  84 118 160 199 233 276
#
# _framework density 16.238294
#
# number of rings (size 3 to 8) (size 9 to 14) (size 15 to 20)
#    0.000    2.333    1.111    3.333    0.000    3.556 
#    0.000    2.222    0.000    2.667    0.000    0.000 
#    0.000    0.889    0.000    3.333    0.000    5.111 
#
# Total GULP energy -446372.254276 kJ/mol
# GULP energy per Si atom -12399.229285 kJ/mol
# Density = 1.620134 g / cm^3
# Si number density = 16.238294 Si / 1000 Ang^3
#
#
#
# Elastic Constant Matrix: (Units=GPa)
#
#
# Indices 1 2 3 4 5 6 
#
# 1 77.7041 35.7998 50.0147 0.0000 0.0000 0.0000
# 2 35.7998 66.0928 38.2326 0.0000 0.0000 0.0000
# 3 50.0147 38.2326 122.4266 0.0000 0.0000 0.0000
# 4 0.0000 0.0000 0.0000 28.1083 0.0000 0.0000
# 5 0.0000 0.0000 0.0000 0.0000 -11.2239 0.0000
# 6 0.0000 0.0000 0.0000 0.0000 0.0000 21.6866
#
#
#
# Elastic Compliance Matrix: (Units=1/GPa)
#
#
# Indices 1 2 3 4 5 6 
#
# 1 0.020100 -0.007490 -0.005872 0.000000 0.000000 0.000000
# 2 -0.007490 0.021258 -0.003578 0.000000 0.000000 0.000000
# 3 -0.005872 -0.003578 0.011685 0.000000 0.000000 0.000000
# 4 0.000000 0.000000 0.000000 0.035577 0.000000 0.000000
# 5 0.000000 0.000000 0.000000 0.000000 -0.089095 0.000000
# 6 0.000000 0.000000 0.000000 0.000000 0.000000 0.046111
#
#
# Mechanical properties :
#
#
# Convention : Reuss Voigt Hill
#
# Bulk Modulus (GPa) = 52.19229 57.14641 54.66935
# Shear Modulus (GPa) = 58.20459 17.19262 37.69860
#
# Velocity S-wave (km/s) = 5.99348 3.25740 4.82351
# Velocity P-wave (km/s) = 8.95025 7.02968 8.04747
#
# Compressibility (1/GPa) = 0.01915992
#
# Stress axis : x y z
#
# Youngs Moduli (GPa) = 49.75119 47.04204 85.58246
#
# Poissons Ratio (x) = 0.35237 0.50256
# Poissons Ratio (y) = 0.37266 0.30625
# Poissons Ratio (z) = 0.29215 0.16834
#
# Static dielectric constant tensor:
#      x y z
#    x 2.758070 0.000000 0.000000 
#    y 0.000000 3.039690 0.000000 
#    z 0.000000 0.000000 3.357370 
# 
# 
# High freq. dielectric constant tensor:
#      x y z
#    x 1.576220 0.000000 0.000000 
#    y 0.000000 1.627410 0.000000 
#    z 0.000000 0.000000 1.634080 
# 
# From -- ./inp_files/49505.got.cif
#   From: 2010.03.12/outbox.cif.g09.slc.cpg/sg65_25_cif.got.tgz:49505.got - 2010.04.10 20:52:16.
