data_PCOD8267364
_publ_section_title
;
Structure prediction by ZEFSAII (Michael W. Deem and Ramdas Pophale) SiO2 
 PCOD8267364
Probable space group: C M M M
;
_chemical_formula_sum "Si O2"
_cell_formula_units_Z 88
_cell_length_a 31.859868
_cell_length_b 9.504468
_cell_length_c 17.939892
_cell_angle_alpha 90.000000
_cell_angle_beta 90.000000
_cell_angle_gamma 90.000000
_cell_volume 5432.398357
_symmetry_space_group_name_H-M "C M M M"
_symmetry_group_IT_number 65
_symmetry_cell_setting 'orthorhombic'
loop_
_space_group_symop_operation_xyz
x,y,z
-x,-y,z
x,-y,-z
-x,y,-z
-x,-y,-z
x,y,-z
-x,y,z
x,-y,z
1/2+x,1/2+y,z
1/2-x,1/2-y,z
1/2+x,1/2-y,-z
1/2-x,1/2+y,-z
1/2-x,1/2-y,-z
1/2+x,1/2+y,-z
1/2-x,1/2+y,z
1/2+x,1/2-y,z
loop_
_atom_site_type_symbol
_atom_site_label
_atom_site_fract_x
_atom_site_fract_y
_atom_site_fract_z
Si Si1 0.313457 0.653170 0.417381
Si Si2 0.951566 0.162655 0.585520
Si Si3 0.750000 0.750000 0.304214
Si Si4 0.325505 0.157207 0.792577
Si Si5 0.881093 0.664215 0.344932
Si Si6 0.792415 0.837527 0.915789
O O1 0.294980 0.679077 0.500000
O O2 0.335853 0.500000 0.413134
O O3 0.275868 0.646707 0.357860
O O4 0.347030 0.774237 0.401859
O O5 0.938802 0.194904 0.500000
O O6 0.925247 0.258696 0.642347
O O7 0.000000 0.200485 0.598358
O O8 0.943175 0.000000 0.604005
O O9 0.718166 0.837388 0.252803
O O10 0.365002 0.191455 0.739321
O O11 0.326474 0.270177 0.859798
O O12 0.329759 0.000000 0.825514
O O13 0.886248 0.500000 0.361678
O O14 0.750000 0.750000 0.906697
O O15 0.784047 0.000000 0.894295
O O16 0.809693 0.825594 0.000000
#
# Coordination Sequence:
#
# PCOD8267364 Si02
#       6
#    16  16   8  16  16  16
#     4  10  20  32  45  60  82 116 156 196 237 277
#     4   9  18  33  52  72  94 122 157 194 233 281
#     4  10  19  30  45  62  82 112 158 198 231 270
#     4  10  20  32  46  65  91 121 155 192 229 272
#     4  10  21  33  46  68  94 119 151 191 235 277
#     4  10  20  32  48  69  92 119 153 192 232 274
#
# _framework density 16.199106
#
# number of rings (size 3 to 8) (size 9 to 14) (size 15 to 20)
#    0.000    2.182    0.909    3.000    0.000    8.727 
#    0.000    0.909    0.000    0.000    0.000    0.000 
#    0.000    0.727    0.000    8.000    0.000    5.818 
#
# Total GULP energy -545468.836956 kJ/mol
# GULP energy per Si atom -12397.019022 kJ/mol
# Density = 1.616224 g / cm^3
# Si number density = 16.199106 Si / 1000 Ang^3
#
#
#
# Elastic Constant Matrix: (Units=GPa)
#
#
# Indices 1 2 3 4 5 6 
#
# 1 74.0938 46.9074 36.1700 0.0000 0.0000 0.0000
# 2 46.9074 125.7476 62.0892 0.0000 0.0000 0.0000
# 3 36.1700 62.0892 96.5647 0.0000 0.0000 0.0000
# 4 0.0000 0.0000 0.0000 25.2295 0.0000 0.0000
# 5 0.0000 0.0000 0.0000 0.0000 18.4479 0.0000
# 6 0.0000 0.0000 0.0000 0.0000 0.0000 25.5522
#
#
#
# Elastic Compliance Matrix: (Units=1/GPa)
#
#
# Indices 1 2 3 4 5 6 
#
# 1 0.018509 -0.005100 -0.003653 0.000000 0.000000 0.000000
# 2 -0.005100 0.013057 -0.006485 0.000000 0.000000 0.000000
# 3 -0.003653 -0.006485 0.015894 0.000000 0.000000 0.000000
# 4 0.000000 0.000000 0.000000 0.039636 0.000000 0.000000
# 5 0.000000 0.000000 0.000000 0.000000 0.054207 0.000000
# 6 0.000000 0.000000 0.000000 0.000000 0.000000 0.039135
#
#
# Mechanical properties :
#
#
# Convention : Reuss Voigt Hill
#
# Bulk Modulus (GPa) = 58.88487 65.19325 62.03906
# Shear Modulus (GPa) = 23.08654 23.92856 23.50755
#
# Velocity S-wave (km/s) = 3.77924 3.84754 3.81355
# Velocity P-wave (km/s) = 7.44803 7.75051 7.60078
#
# Compressibility (1/GPa) = 0.01698229
#
# Stress axis : x y z
#
# Youngs Moduli (GPa) = 54.02831 76.58672 62.91725
#
# Poissons Ratio (x) = 0.39063 0.22986
# Poissons Ratio (y) = 0.27557 0.40802
# Poissons Ratio (z) = 0.19738 0.49666
#
# Static dielectric constant tensor:
#      x y z
#    x 2.830410 0.000000 0.000000 
#    y 0.000000 3.134600 0.000000 
#    z 0.000000 0.000000 3.135220 
# 
# 
# High freq. dielectric constant tensor:
#      x y z
#    x 1.585260 0.000000 0.000000 
#    y 0.000000 1.636170 0.000000 
#    z 0.000000 0.000000 1.612680 
# 
# From -- ./inp_files/58016.got.cif
#   From: 2010.03.12/outbox.cif.g09.slc.cpg/sg65_30_cif.got.tgz:58016.got - 2010.04.10 20:52:16.
