data_PCOD8267353
_publ_section_title
;
Structure prediction by ZEFSAII (Michael W. Deem and Ramdas Pophale) SiO2 
 PCOD8267353
Probable space group: C M M M
;
_chemical_formula_sum "Si O2"
_cell_formula_units_Z 120
_cell_length_a 8.626992
_cell_length_b 28.164673
_cell_length_c 28.592013
_cell_angle_alpha 90.000000
_cell_angle_beta 90.000000
_cell_angle_gamma 90.000000
_cell_volume 6947.184635
_symmetry_space_group_name_H-M "C M M M"
_symmetry_group_IT_number 65
_symmetry_cell_setting 'orthorhombic'
loop_
_space_group_symop_operation_xyz
x,y,z
-x,-y,z
x,-y,-z
-x,y,-z
-x,-y,-z
x,y,-z
-x,y,z
x,-y,z
1/2+x,1/2+y,z
1/2-x,1/2-y,z
1/2+x,1/2-y,-z
1/2-x,1/2+y,-z
1/2-x,1/2-y,-z
1/2+x,1/2+y,-z
1/2-x,1/2+y,z
1/2+x,1/2-y,z
loop_
_atom_site_type_symbol
_atom_site_label
_atom_site_fract_x
_atom_site_fract_y
_atom_site_fract_z
Si Si1 0.680675 0.148869 0.261684
Si Si2 0.818451 0.198122 0.000000
Si Si3 0.181903 0.801730 0.549304
Si Si4 0.320825 0.446543 0.883590
Si Si5 0.180620 0.644794 0.087328
Si Si6 0.316855 0.301679 0.173788
Si Si7 0.816047 0.197170 0.650935
Si Si8 0.822942 0.552712 0.784868
O O1 0.500000 0.160845 0.256142
O O2 0.774742 0.181518 0.225685
O O3 0.738303 0.160806 0.313344
O O4 0.714532 0.092903 0.253536
O O5 0.750000 0.250000 0.000000
O O6 0.767725 0.170945 0.046082
O O7 0.000000 0.202923 0.000000
O O8 0.232080 0.828416 0.500000
O O9 0.250000 0.750000 0.547683
O O10 0.230787 0.824255 0.599333
O O11 0.000000 0.796157 0.549947
O O12 0.500000 0.435020 0.892396
O O13 0.278698 0.500000 0.899053
O O14 0.218039 0.411292 0.915113
O O15 0.288051 0.439338 0.828794
O O16 0.239773 0.662504 0.137360
O O17 0.000000 0.654258 0.081702
O O18 0.500000 0.301057 0.166846
O O19 0.250000 0.250000 0.163856
O O20 0.750000 0.250000 0.658382
O O21 0.000000 0.198747 0.658592
O O22 0.795551 0.500000 0.763066
O O23 0.000000 0.557884 0.802575
#
# Coordination Sequence:
#
# PCOD8267353 Si02
#       8
#    16   8  16  16  16  16  16  16
#     4  11  21  33  49  72 102 134 168 206 251 305
#     4  12  26  46  67  88 113 142 176 217 261 305
#     4   8  14  25  41  60  83 117 163 210 253 297
#     4  10  20  35  58  87 114 140 172 212 257 304
#     4  12  24  41  62  86 112 141 176 213 257 307
#     4  12  24  38  55  76 104 137 175 214 252 299
#     4  10  19  30  44  64  95 133 170 209 253 301
#     4   9  18  33  53  75 100 132 169 209 253 304
#
# _framework density 17.273184000000001
#
# number of rings (size 3 to 8) (size 9 to 14) (size 15 to 20)
#    0.000    1.600    1.333    5.000    0.000    1.867 
#    0.000    0.333    0.000    2.000    0.000    0.000 
#    0.000    0.533    0.000    6.667    0.000    0.000 
#
# Total GULP energy -743726.222640 kJ/mol
# GULP energy per Si atom -12395.437044 kJ/mol
# Density = 1.723387 g / cm^3
# Si number density = 17.273184 Si / 1000 Ang^3
#
#
#
# Elastic Constant Matrix: (Units=GPa)
#
#
# Indices 1 2 3 4 5 6 
#
# 1 90.4788 38.9024 28.0758 0.0000 0.0000 0.0000
# 2 38.9024 101.2245 41.4156 0.0000 0.0000 0.0000
# 3 28.0758 41.4156 101.3908 0.0000 0.0000 0.0000
# 4 0.0000 0.0000 0.0000 13.1824 0.0000 0.0000
# 5 0.0000 0.0000 0.0000 0.0000 29.6498 0.0000
# 6 0.0000 0.0000 0.0000 0.0000 0.0000 23.0630
#
#
#
# Elastic Compliance Matrix: (Units=1/GPa)
#
#
# Indices 1 2 3 4 5 6 
#
# 1 0.013554 -0.004411 -0.001952 0.000000 0.000000 0.000000
# 2 -0.004411 0.013297 -0.004210 0.000000 0.000000 0.000000
# 3 -0.001952 -0.004210 0.012123 0.000000 0.000000 0.000000
# 4 0.000000 0.000000 0.000000 0.075859 0.000000 0.000000
# 5 0.000000 0.000000 0.000000 0.000000 0.033727 0.000000
# 6 0.000000 0.000000 0.000000 0.000000 0.000000 0.043359
#
#
# Mechanical properties :
#
#
# Convention : Reuss Voigt Hill
#
# Bulk Modulus (GPa) = 56.08750 56.65352 56.37051
# Shear Modulus (GPa) = 22.83032 25.49240 24.16136
#
# Velocity S-wave (km/s) = 3.63949 3.84583 3.74408
# Velocity P-wave (km/s) = 7.08537 7.25192 7.16913
#
# Compressibility (1/GPa) = 0.01782929
#
# Stress axis : x y z
#
# Youngs Moduli (GPa) = 73.77725 75.20701 82.48828
#
# Poissons Ratio (x) = 0.33171 0.16099
# Poissons Ratio (y) = 0.32541 0.34728
# Poissons Ratio (z) = 0.14399 0.31662
#
# Static dielectric constant tensor:
#      x y z
#    x 3.343740 0.000000 0.000000 
#    y 0.000000 3.354700 0.000000 
#    z 0.000000 0.000000 3.564000 
# 
# 
# High freq. dielectric constant tensor:
#      x y z
#    x 1.682520 0.000000 0.000000 
#    y 0.000000 1.649180 0.000000 
#    z 0.000000 0.000000 1.659610 
# 
# From -- ./inp_files/73865.got.cif
#   From: 2010.03.12/outbox.cif.g09.slc.cpg/sg65_37_cif.got.tgz:73865.got - 2010.04.10 20:52:16.
