data_PCOD8267162
_publ_section_title
;
Structure prediction by ZEFSAII (Michael W. Deem and Ramdas Pophale) SiO2 
 PCOD8267162
Probable space group: C M M M
;
_chemical_formula_sum "Si O2"
_cell_formula_units_Z 88
_cell_length_a 8.745045
_cell_length_b 18.771196
_cell_length_c 28.569745
_cell_angle_alpha 90.000000
_cell_angle_beta 90.000000
_cell_angle_gamma 90.000000
_cell_volume 4689.865168
_symmetry_space_group_name_H-M "C M M M"
_symmetry_group_IT_number 65
_symmetry_cell_setting 'orthorhombic'
loop_
_space_group_symop_operation_xyz
x,y,z
-x,-y,z
x,-y,-z
-x,y,-z
-x,-y,-z
x,y,-z
-x,y,z
x,-y,z
1/2+x,1/2+y,z
1/2-x,1/2-y,z
1/2+x,1/2-y,-z
1/2-x,1/2+y,-z
1/2-x,1/2-y,-z
1/2+x,1/2+y,-z
1/2-x,1/2+y,z
1/2+x,1/2-y,z
loop_
_atom_site_type_symbol
_atom_site_label
_atom_site_fract_x
_atom_site_fract_y
_atom_site_fract_z
Si Si1 0.682231 0.672520 0.137214
Si Si2 0.318286 0.579907 0.326357
Si Si3 0.318350 0.420419 0.222580
Si Si4 0.681793 0.672079 0.588012
Si Si5 0.681579 0.419497 0.500000
Si Si6 0.318364 0.579721 0.051748
O O1 0.500000 0.675509 0.137173
O O2 0.750000 0.750000 0.137030
O O3 0.746453 0.632722 0.183349
O O4 0.746668 0.632257 0.091289
O O5 0.500000 0.578367 0.328837
O O6 0.257335 0.500000 0.337238
O O7 0.263901 0.604063 0.274427
O O8 0.254877 0.635852 0.364317
O O9 0.500000 0.421148 0.220478
O O10 0.257122 0.500000 0.212162
O O11 0.500000 0.678126 0.588118
O O12 0.750000 0.750000 0.582471
O O13 0.740037 0.622772 0.545535
O O14 0.748650 0.500000 0.500000
O O15 0.500000 0.423427 0.500000
O O16 0.500000 0.578517 0.054250
O O17 0.256354 0.500000 0.061304
O O18 0.265069 0.605550 0.000000
#
# Coordination Sequence:
#
# PCOD8267162 Si02
#       6
#    16  16  16  16   8  16
#     4  10  19  29  43  65  91 116 141 173 216 261
#     4   8  14  26  45  67  87 110 146 187 218 246
#     4   8  14  26  45  66  85 109 147 189 217 242
#     4  10  19  30  46  68  93 118 143 176 219 263
#     4   9  17  30  49  69  86 111 152 192 216 243
#     4   8  14  26  45  66  84 106 143 186 217 244
#
# _framework density 18.763866
#
# number of rings (size 3 to 8) (size 9 to 14) (size 15 to 20)
#    0.000    3.182    0.000    3.000    0.000    5.455 
#    0.000    0.000    0.000    4.909    0.000    3.818 
#    0.000    0.000    0.000    0.000    0.000    0.000 
#
# Total GULP energy -545321.181587 kJ/mol
# GULP energy per Si atom -12393.663218 kJ/mol
# Density = 1.872116 g / cm^3
# Si number density = 18.763866 Si / 1000 Ang^3
#
#
#
# Elastic Constant Matrix: (Units=GPa)
#
#
# Indices 1 2 3 4 5 6 
#
# 1 7.3780 14.0086 15.5023 0.0000 0.0000 0.0000
# 2 14.0086 171.4734 122.7540 0.0000 0.0000 0.0000
# 3 15.5023 122.7540 200.0150 0.0000 0.0000 0.0000
# 4 0.0000 0.0000 0.0000 27.3571 0.0000 0.0000
# 5 0.0000 0.0000 0.0000 0.0000 7.3841 0.0000
# 6 0.0000 0.0000 0.0000 0.0000 0.0000 25.7661
#
#
#
# Elastic Compliance Matrix: (Units=1/GPa)
#
#
# Indices 1 2 3 4 5 6 
#
# 1 0.167606 -0.007836 -0.008182 0.000000 0.000000 0.000000
# 2 -0.007836 0.010768 -0.006001 0.000000 0.000000 0.000000
# 3 -0.008182 -0.006001 0.009317 0.000000 0.000000 0.000000
# 4 0.000000 0.000000 0.000000 0.036554 0.000000 0.000000
# 5 0.000000 0.000000 0.000000 0.000000 0.135427 0.000000
# 6 0.000000 0.000000 0.000000 0.000000 0.000000 0.038811
#
#
# Mechanical properties :
#
#
# Convention : Reuss Voigt Hill
#
# Bulk Modulus (GPa) = 6.96115 75.93290 41.44703
# Shear Modulus (GPa) = 10.19566 27.20821 18.70193
#
# Velocity S-wave (km/s) = 2.33355 3.81206 3.16048
# Velocity P-wave (km/s) = 3.31339 7.74152 5.95440
#
# Compressibility (1/GPa) = 0.14365435
#
# Stress axis : x y z
#
# Youngs Moduli (GPa) = 5.96636 92.86585 107.33127
#
# Poissons Ratio (x) = 0.72767 0.87813
# Poissons Ratio (y) = 0.04675 0.64414
# Poissons Ratio (z) = 0.04881 0.55733
#
# Static dielectric constant tensor:
#      x y z
#    x 2.717740 0.000000 0.000000 
#    y 0.000000 3.544150 0.000000 
#    z 0.000000 0.000000 4.014770 
# 
# 
# High freq. dielectric constant tensor:
#      x y z
#    x 1.652240 0.000000 0.000000 
#    y 0.000000 1.730650 0.000000 
#    z 0.000000 0.000000 1.751040 
# 
# From -- ./inp_files/74266.got.cif
#   From: 2010.03.12/outbox.cif.g09.slc.cpg/sg65_38_cif.got.tgz:74266.got - 2010.04.10 20:52:16.
