data_PCOD8267235
_publ_section_title
;
Structure prediction by ZEFSAII (Michael W. Deem and Ramdas Pophale) SiO2 
 PCOD8267235
Probable space group: C M M M
;
_chemical_formula_sum "Si O2"
_cell_formula_units_Z 128
_cell_length_a 22.381502
_cell_length_b 16.893084
_cell_length_c 19.425373
_cell_angle_alpha 90.000000
_cell_angle_beta 90.000000
_cell_angle_gamma 90.000000
_cell_volume 7344.589654
_symmetry_space_group_name_H-M "C M M M"
_symmetry_group_IT_number 65
_symmetry_cell_setting 'orthorhombic'
loop_
_space_group_symop_operation_xyz
x,y,z
-x,-y,z
x,-y,-z
-x,y,-z
-x,-y,-z
x,y,-z
-x,y,z
x,-y,z
1/2+x,1/2+y,z
1/2-x,1/2-y,z
1/2+x,1/2-y,-z
1/2-x,1/2+y,-z
1/2-x,1/2-y,-z
1/2+x,1/2+y,-z
1/2-x,1/2+y,z
1/2+x,1/2-y,z
loop_
_atom_site_type_symbol
_atom_site_label
_atom_site_fract_x
_atom_site_fract_y
_atom_site_fract_z
Si Si1 0.569148 0.221817 0.921594
Si Si2 0.067736 0.092047 0.312157
Si Si3 0.342378 0.408141 0.574824
Si Si4 0.256509 0.592487 0.812177
Si Si5 0.838552 0.410966 0.922045
Si Si6 0.126676 0.806971 0.796528
Si Si7 0.295988 0.091347 0.579172
Si Si8 0.803759 0.309682 0.297362
O O1 0.500000 0.207747 0.905548
O O2 0.601616 0.138430 0.910246
O O3 0.596427 0.283430 0.868063
O O4 0.578703 0.252932 0.000000
O O5 0.113403 0.129270 0.368510
O O6 0.078208 0.139009 0.241919
O O7 0.000000 0.104350 0.337770
O O8 0.081616 0.000000 0.298602
O O9 0.354283 0.368632 0.500000
O O10 0.357753 0.500000 0.569083
O O11 0.273975 0.396284 0.596231
O O12 0.271885 0.500000 0.812312
O O13 0.216298 0.620044 0.876453
O O14 0.316394 0.642189 0.817370
O O15 0.220946 0.614117 0.743254
O O16 0.855276 0.500000 0.900537
O O17 0.815773 0.405277 0.000000
O O18 0.144708 0.732877 0.747530
O O19 0.310041 0.114213 0.500000
O O20 0.329627 0.152518 0.630991
O O21 0.314614 0.000000 0.592000
O O22 0.750000 0.250000 0.313968
#
# Coordination Sequence:
#
# PCOD8267235 Si02
#       8
#    16  16  16  16  16  16  16  16
#     4  10  21  37  56  75 100 136 172 210 256 302
#     4  10  20  33  50  70  95 134 179 219 255 295
#     4   8  14  26  45  69  94 122 162 210 254 291
#     4  10  19  32  51  74 102 135 166 206 255 307
#     4   9  18  33  53  78 103 127 161 203 252 310
#     4  11  21  34  49  75 104 135 169 210 253 311
#     4   9  17  30  48  69  97 135 171 202 243 301
#     4  10  19  29  45  71 101 132 165 204 255 306
#
# _framework density 17.427795
#
# number of rings (size 3 to 8) (size 9 to 14) (size 15 to 20)
#    0.000    2.375    1.250    3.375    0.000    2.250 
#    0.000    4.375    0.000    1.125    0.000    4.375 
#    0.000    0.000    0.000    5.500    0.000    0.000 
#
# Total GULP energy -793390.371635 kJ/mol
# GULP energy per Si atom -12396.724557 kJ/mol
# Density = 1.738813 g / cm^3
# Si number density = 17.427795 Si / 1000 Ang^3
#
#
#
# Elastic Constant Matrix: (Units=GPa)
#
#
# Indices 1 2 3 4 5 6 
#
# 1 62.5479 31.8795 36.8626 0.0000 0.0000 0.0000
# 2 31.8795 63.7634 52.5709 0.0000 0.0000 0.0000
# 3 36.8626 52.5709 113.3550 0.0000 0.0000 0.0000
# 4 0.0000 0.0000 0.0000 32.4168 0.0000 0.0000
# 5 0.0000 0.0000 0.0000 0.0000 24.3085 0.0000
# 6 0.0000 0.0000 0.0000 0.0000 0.0000 16.1302
#
#
#
# Elastic Compliance Matrix: (Units=1/GPa)
#
#
# Indices 1 2 3 4 5 6 
#
# 1 0.022217 -0.008340 -0.003357 0.000000 0.000000 0.000000
# 2 -0.008340 0.028523 -0.010516 0.000000 0.000000 0.000000
# 3 -0.003357 -0.010516 0.014791 0.000000 0.000000 0.000000
# 4 0.000000 0.000000 0.000000 0.030848 0.000000 0.000000
# 5 0.000000 0.000000 0.000000 0.000000 0.041138 0.000000
# 6 0.000000 0.000000 0.000000 0.000000 0.000000 0.061995
#
#
# Mechanical properties :
#
#
# Convention : Reuss Voigt Hill
#
# Bulk Modulus (GPa) = 47.38354 53.58805 50.48580
# Shear Modulus (GPa) = 19.92253 22.46134 21.19193
#
# Velocity S-wave (km/s) = 3.38471 3.59391 3.49088
# Velocity P-wave (km/s) = 6.52093 6.93087 6.72902
#
# Compressibility (1/GPa) = 0.02110437
#
# Stress axis : x y z
#
# Youngs Moduli (GPa) = 45.01073 35.05979 67.61088
#
# Poissons Ratio (x) = 0.29240 0.22697
# Poissons Ratio (y) = 0.37539 0.71099
# Poissons Ratio (z) = 0.15110 0.36869
#
# Static dielectric constant tensor:
#      x y z
#    x 3.008540 0.000000 0.000000 
#    y 0.000000 3.178320 0.000000 
#    z 0.000000 0.000000 3.486090 
# 
# 
# High freq. dielectric constant tensor:
#      x y z
#    x 1.641670 0.000000 0.000000 
#    y 0.000000 1.664590 0.000000 
#    z 0.000000 0.000000 1.687020 
# 
# From -- ./inp_files/57000.got.cif
#   From: 2010.03.12/outbox.cif.g09.slc.cpg/sg65_29_cif.got.tgz:57000.got - 2010.04.10 20:52:16.
