data_PCOD8267494
_publ_section_title
;
Structure prediction by ZEFSAII (Michael W. Deem and Ramdas Pophale) SiO2 
 PCOD8267494
Probable space group: C M M M
;
_chemical_formula_sum "Si O2"
_cell_formula_units_Z 88
_cell_length_a 8.922292
_cell_length_b 25.876337
_cell_length_c 20.587050
_cell_angle_alpha 90.000000
_cell_angle_beta 90.000000
_cell_angle_gamma 90.000000
_cell_volume 4753.060586
_symmetry_space_group_name_H-M "C M M M"
_symmetry_group_IT_number 65
_symmetry_cell_setting 'orthorhombic'
loop_
_space_group_symop_operation_xyz
x,y,z
-x,-y,z
x,-y,-z
-x,y,-z
-x,-y,-z
x,y,-z
-x,y,z
x,-y,z
1/2+x,1/2+y,z
1/2-x,1/2-y,z
1/2+x,1/2-y,-z
1/2-x,1/2+y,-z
1/2-x,1/2-y,-z
1/2+x,1/2+y,-z
1/2-x,1/2+y,z
1/2+x,1/2-y,z
loop_
_atom_site_type_symbol
_atom_site_label
_atom_site_fract_x
_atom_site_fract_y
_atom_site_fract_z
Si Si1 0.325447 0.695611 0.425037
Si Si2 0.675694 0.859749 0.316129
Si Si3 0.834755 0.125196 0.109601
Si Si4 0.837820 0.794950 0.780624
Si Si5 0.679633 0.192059 0.000000
Si Si6 0.175490 0.440838 0.208394
O O1 0.294312 0.682966 0.500000
O O2 0.500000 0.700167 0.409413
O O3 0.250000 0.750000 0.405444
O O4 0.257141 0.646257 0.385713
O O5 0.500000 0.861148 0.327928
O O6 0.727218 0.808483 0.278270
O O7 0.728511 0.909121 0.272684
O O8 0.864424 0.158306 0.172466
O O9 0.751822 0.074946 0.139288
O O10 0.000000 0.111445 0.079302
O O11 0.731938 0.157900 0.060958
O O12 0.750000 0.750000 0.819535
O O13 0.000000 0.776683 0.754274
O O14 0.750000 0.250000 0.000000
O O15 0.500000 0.197931 0.000000
O O16 0.216409 0.500000 0.222280
O O17 0.000000 0.431591 0.197974
#
# Coordination Sequence:
#
# PCOD8267494 Si02
#       6
#    16  16  16  16   8  16
#     4  10  20  33  49  71 103 141 177 212 252 303
#     4  10  19  31  50  74 100 131 168 211 257 307
#     4  10  21  36  54  78 106 137 175 216 259 310
#     4  10  19  30  46  69  99 132 166 206 251 301
#     4  12  24  38  57  80 111 148 180 213 255 307
#     4   9  19  37  59  81 105 134 171 218 271 319
#
# _framework density 18.514385999999998
#
# number of rings (size 3 to 8) (size 9 to 14) (size 15 to 20)
#    0.000    2.000    0.000    4.091    0.000    5.818 
#    0.000    0.455    0.000    3.273    0.000    3.818 
#    0.000    0.000    0.000    0.000    0.000    0.000 
#
# Total GULP energy -545097.172542 kJ/mol
# GULP energy per Si atom -12388.572103 kJ/mol
# Density = 1.847225 g / cm^3
# Si number density = 18.514386 Si / 1000 Ang^3
#
#
#
# Elastic Constant Matrix: (Units=GPa)
#
#
# Indices 1 2 3 4 5 6 
#
# 1 114.4115 56.1135 52.6194 0.0000 0.0000 0.0000
# 2 56.1135 100.4856 46.0634 0.0000 0.0000 0.0000
# 3 52.6194 46.0634 96.8672 0.0000 0.0000 0.0000
# 4 0.0000 0.0000 0.0000 25.7821 0.0000 0.0000
# 5 0.0000 0.0000 0.0000 0.0000 39.0229 0.0000
# 6 0.0000 0.0000 0.0000 0.0000 0.0000 24.5811
#
#
#
# Elastic Compliance Matrix: (Units=1/GPa)
#
#
# Indices 1 2 3 4 5 6 
#
# 1 0.013601 -0.005381 -0.004829 0.000000 0.000000 0.000000
# 2 -0.005381 0.014855 -0.004141 0.000000 0.000000 0.000000
# 3 -0.004829 -0.004141 0.014916 0.000000 0.000000 0.000000
# 4 0.000000 0.000000 0.000000 0.038787 0.000000 0.000000
# 5 0.000000 0.000000 0.000000 0.000000 0.025626 0.000000
# 6 0.000000 0.000000 0.000000 0.000000 0.000000 0.040682
#
#
# Mechanical properties :
#
#
# Convention : Reuss Voigt Hill
#
# Bulk Modulus (GPa) = 68.17111 69.03964 68.60537
# Shear Modulus (GPa) = 27.46389 28.34173 27.90281
#
# Velocity S-wave (km/s) = 3.85565 3.91678 3.88633
# Velocity P-wave (km/s) = 7.53139 7.60431 7.56794
#
# Compressibility (1/GPa) = 0.01466897
#
# Stress axis : x y z
#
# Youngs Moduli (GPa) = 73.52644 67.31817 67.04340
#
# Poissons Ratio (x) = 0.36225 0.32376
# Poissons Ratio (y) = 0.39566 0.27761
# Poissons Ratio (z) = 0.35506 0.27875
#
# Static dielectric constant tensor:
#      x y z
#    x 4.069090 0.000000 0.000000 
#    y 0.000000 3.261410 0.000000 
#    z 0.000000 0.000000 3.517690 
# 
# 
# High freq. dielectric constant tensor:
#      x y z
#    x 1.736440 0.000000 0.000000 
#    y 0.000000 1.691340 0.000000 
#    z 0.000000 0.000000 1.711690 
# 
# From -- ./inp_files/60176.got.cif
#   From: 2010.03.12/outbox.cif.g09.slc.cpg/sg65_31_cif.got.tgz:60176.got - 2010.04.10 20:52:16.
