data_PCOD8267271
_publ_section_title
;
Structure prediction by ZEFSAII (Michael W. Deem and Ramdas Pophale) SiO2 
 PCOD8267271
Probable space group: C M M M
;
_chemical_formula_sum "Si O2"
_cell_formula_units_Z 72
_cell_length_a 15.136873
_cell_length_b 29.792663
_cell_length_c 9.045866
_cell_angle_alpha 90.000000
_cell_angle_beta 90.000000
_cell_angle_gamma 90.000000
_cell_volume 4079.393893
_symmetry_space_group_name_H-M "C M M M"
_symmetry_group_IT_number 65
_symmetry_cell_setting 'orthorhombic'
loop_
_space_group_symop_operation_xyz
x,y,z
-x,-y,z
x,-y,-z
-x,y,-z
-x,-y,-z
x,y,-z
-x,y,z
x,-y,z
1/2+x,1/2+y,z
1/2-x,1/2-y,z
1/2+x,1/2-y,-z
1/2-x,1/2+y,-z
1/2-x,1/2-y,-z
1/2+x,1/2+y,-z
1/2-x,1/2+y,z
1/2+x,1/2-y,z
loop_
_atom_site_type_symbol
_atom_site_label
_atom_site_fract_x
_atom_site_fract_y
_atom_site_fract_z
Si Si1 0.398454 0.799708 0.173650
Si Si2 0.746795 0.142749 0.326553
Si Si3 0.100164 0.792157 0.327682
Si Si4 0.189073 0.450742 0.324331
Si Si5 0.000000 0.447530 0.340975
O O1 0.500000 0.810738 0.214671
O O2 0.337364 0.837684 0.242545
O O3 0.370293 0.751683 0.238979
O O4 0.383572 0.797867 0.000000
O O5 0.729929 0.148987 0.500000
O O6 0.837167 0.166902 0.277734
O O7 0.756253 0.089668 0.284002
O O8 0.111006 0.781134 0.500000
O O9 0.000000 0.806259 0.289013
O O10 0.177824 0.454395 0.500000
O O11 0.220919 0.500000 0.263961
O O12 0.092325 0.436666 0.256203
O O13 0.000000 0.500000 0.370219
O O14 0.000000 0.422150 0.500000
#
# Coordination Sequence:
#
# PCOD8267271 Si02
#       5
#    16  16  16  16   8
#     4  10  21  34  47  67  96 125 151 184 230 281
#     4  10  19  29  48  73  92 119 158 194 228 267
#     4   9  18  33  49  66  92 123 155 192 232 273
#     4   8  14  24  39  63  93 119 147 185 224 264
#     4   7  10  18  32  52  81 113 139 169 211 253
#
# _framework density 17.64968
#
# number of rings (size 3 to 8) (size 9 to 14) (size 15 to 20)
#    0.000    3.000    0.000    2.667    1.556    4.889 
#    0.000    0.000    0.000    1.333    0.000    6.222 
#    0.000    0.000    0.000    7.556    0.000    8.000 
#
# Total GULP energy -445997.295114 kJ/mol
# GULP energy per Si atom -12388.813753 kJ/mol
# Density = 1.760951 g / cm^3
# Si number density = 17.649680 Si / 1000 Ang^3
#
#
#
# Elastic Constant Matrix: (Units=GPa)
#
#
# Indices 1 2 3 4 5 6 
#
# 1 70.1538 65.0171 22.2571 0.0000 0.0000 0.0000
# 2 65.0171 144.2798 28.0175 0.0000 0.0000 0.0000
# 3 22.2571 28.0175 31.0532 0.0000 0.0000 0.0000
# 4 0.0000 0.0000 0.0000 -1.4105 0.0000 0.0000
# 5 0.0000 0.0000 0.0000 0.0000 16.2963 0.0000
# 6 0.0000 0.0000 0.0000 0.0000 0.0000 27.7535
#
#
#
# Elastic Compliance Matrix: (Units=1/GPa)
#
#
# Indices 1 2 3 4 5 6 
#
# 1 0.026858 -0.010142 -0.010100 0.000000 0.000000 0.000000
# 2 -0.010142 0.012233 -0.003768 0.000000 0.000000 0.000000
# 3 -0.010100 -0.003768 0.042841 0.000000 0.000000 0.000000
# 4 0.000000 0.000000 0.000000 -0.708975 0.000000 0.000000
# 5 0.000000 0.000000 0.000000 0.000000 0.061364 0.000000
# 6 0.000000 0.000000 0.000000 0.000000 0.000000 0.036032
#
#
# Mechanical properties :
#
#
# Convention : Reuss Voigt Hill
#
# Bulk Modulus (GPa) = 29.48722 52.89667 41.19195
# Shear Modulus (GPa) = -10.63097 17.20753 3.28828
#
# Velocity S-wave (km/s) = -2.45691 3.12580 1.36643
# Velocity P-wave (km/s) = 2.94868 6.56223 5.08712
#
# Compressibility (1/GPa) = 0.03391299
#
# Stress axis : x y z
#
# Youngs Moduli (GPa) = 37.23316 81.74703 23.34194
#
# Poissons Ratio (x) = 0.82905 0.23575
# Poissons Ratio (y) = 0.37761 0.08795
# Poissons Ratio (z) = 0.37605 0.30802
#
# Static dielectric constant tensor:
#      x y z
#    x 3.411020 0.000000 0.000000 
#    y 0.000000 3.451290 0.000000 
#    z 0.000000 0.000000 2.899940 
# 
# 
# High freq. dielectric constant tensor:
#      x y z
#    x 1.667710 0.000000 0.000000 
#    y 0.000000 1.683080 0.000000 
#    z 0.000000 0.000000 1.639710 
# 
# From -- ./inp_files/7229.got.cif
#   From: 2010.03.12/outbox.cif.g09.slc.cpg/sg65_4_cif.got.tgz:7229.got - 2010.04.10 20:52:16.
