data_PCOD8267744
_publ_section_title
;
Structure prediction by ZEFSAII (Michael W. Deem and Ramdas Pophale) SiO2 
 PCOD8267744
Probable space group: C M M M
;
_chemical_formula_sum "Si O2"
_cell_formula_units_Z 120
_cell_length_a 22.558790
_cell_length_b 14.068602
_cell_length_c 22.549223
_cell_angle_alpha 90.000000
_cell_angle_beta 90.000000
_cell_angle_gamma 90.000000
_cell_volume 7156.461292
_symmetry_space_group_name_H-M "C M M M"
_symmetry_group_IT_number 65
_symmetry_cell_setting 'orthorhombic'
loop_
_space_group_symop_operation_xyz
x,y,z
-x,-y,z
x,-y,-z
-x,y,-z
-x,-y,-z
x,y,-z
-x,y,z
x,-y,z
1/2+x,1/2+y,z
1/2-x,1/2-y,z
1/2+x,1/2-y,-z
1/2-x,1/2+y,-z
1/2-x,1/2-y,-z
1/2+x,1/2+y,-z
1/2-x,1/2+y,z
1/2+x,1/2-y,z
loop_
_atom_site_type_symbol
_atom_site_label
_atom_site_fract_x
_atom_site_fract_y
_atom_site_fract_z
Si Si1 0.882975 0.893577 0.802178
Si Si2 0.070790 0.391084 0.500000
Si Si3 0.070604 0.393596 0.734671
Si Si4 0.567416 0.787082 0.148990
Si Si5 0.215916 0.109206 0.890400
Si Si6 0.430523 0.793597 0.382391
Si Si7 0.670414 0.200421 0.067187
Si Si8 0.568377 0.393620 0.676538
O O1 0.925733 0.825353 0.839898
O O2 0.814582 0.881896 0.824897
O O3 0.888579 0.872187 0.732105
O O4 0.905912 0.000000 0.814691
O O5 0.092839 0.500000 0.500000
O O6 0.097400 0.336784 0.557569
O O7 0.000000 0.387151 0.500000
O O8 0.095191 0.500000 0.737469
O O9 0.093198 0.338740 0.792641
O O10 0.096612 0.345540 0.675275
O O11 0.000000 0.390328 0.733304
O O12 0.500000 0.814423 0.135407
O O13 0.605083 0.820148 0.092265
O O14 0.284599 0.141274 0.890390
O O15 0.183291 0.185886 0.932920
O O16 0.209612 0.000000 0.913617
O O17 0.500000 0.813684 0.384834
O O18 0.416963 0.680686 0.376143
O O19 0.674644 0.162744 0.000000
O O20 0.500000 0.379390 0.697716
O O21 0.578397 0.500000 0.651660
#
# Coordination Sequence:
#
# PCOD8267744 Si02
#       8
#    16   8  16  16  16  16  16  16
#     4   9  16  27  46  70  91 113 146 189 236 283
#     4   9  16  24  35  53  79 117 165 206 231 258
#     4   9  16  26  40  57  79 110 148 188 226 263
#     4  10  19  31  46  66  92 120 152 190 232 278
#     4   9  18  33  52  70  88 114 149 191 234 275
#     4   9  15  24  37  55  81 115 154 192 228 267
#     4  10  21  34  49  70  92 118 154 190 229 283
#     4   9  15  23  38  61  89 119 148 182 232 290
#
# _framework density 16.768063999999999
#
# number of rings (size 3 to 8) (size 9 to 14) (size 15 to 20)
#    0.000    2.733    1.333    1.600    0.000    4.267 
#    0.000    0.333    0.000    2.000    0.000    6.533 
#    0.000    0.000    0.000    2.400    0.000   12.267 
#
# Total GULP energy -743454.913953 kJ/mol
# GULP energy per Si atom -12390.915233 kJ/mol
# Density = 1.672990 g / cm^3
# Si number density = 16.768064 Si / 1000 Ang^3
#
#
#
# Elastic Constant Matrix: (Units=GPa)
#
#
# Indices 1 2 3 4 5 6 
#
# 1 54.2488 25.8440 41.4213 0.0000 0.0000 0.0000
# 2 25.8440 104.8498 52.5838 0.0000 0.0000 0.0000
# 3 41.4213 52.5838 104.1432 0.0000 0.0000 0.0000
# 4 0.0000 0.0000 0.0000 21.9360 0.0000 0.0000
# 5 0.0000 0.0000 0.0000 0.0000 13.0838 0.0000
# 6 0.0000 0.0000 0.0000 0.0000 0.0000 13.0586
#
#
#
# Elastic Compliance Matrix: (Units=1/GPa)
#
#
# Indices 1 2 3 4 5 6 
#
# 1 0.026692 -0.001681 -0.009768 0.000000 0.000000 0.000000
# 2 -0.001681 0.012877 -0.005834 0.000000 0.000000 0.000000
# 3 -0.009768 -0.005834 0.016433 0.000000 0.000000 0.000000
# 4 0.000000 0.000000 0.000000 0.045587 0.000000 0.000000
# 5 0.000000 0.000000 0.000000 0.000000 0.076431 0.000000
# 6 0.000000 0.000000 0.000000 0.000000 0.000000 0.076578
#
#
# Mechanical properties :
#
#
# Convention : Reuss Voigt Hill
#
# Bulk Modulus (GPa) = 46.64551 55.88223 51.26387
# Shear Modulus (GPa) = 16.87432 19.17519 18.02475
#
# Velocity S-wave (km/s) = 3.17572 3.38532 3.28219
# Velocity P-wave (km/s) = 6.42848 6.97706 6.70838
#
# Compressibility (1/GPa) = 0.02143829
#
# Stress axis : x y z
#
# Youngs Moduli (GPa) = 37.46383 77.65592 60.85422
#
# Poissons Ratio (x) = 0.13050 0.59442
# Poissons Ratio (y) = 0.06296 0.35500
# Poissons Ratio (z) = 0.36595 0.45301
#
# Static dielectric constant tensor:
#      x y z
#    x 2.759710 0.000000 0.000000 
#    y 0.000000 3.389920 0.000000 
#    z 0.000000 0.000000 3.118240 
# 
# 
# High freq. dielectric constant tensor:
#      x y z
#    x 1.587310 0.000000 0.000000 
#    y 0.000000 1.663440 0.000000 
#    z 0.000000 0.000000 1.627320 
# 
# From -- ./inp_files/71275.got.cif
#   From: 2010.03.12/outbox.cif.g09.slc.cpg/sg65_36_cif.got.tgz:71275.got - 2010.04.10 20:52:16.
