data_PCOD8267115
_publ_section_title
;
Structure prediction by ZEFSAII (Michael W. Deem and Ramdas Pophale) SiO2 
 PCOD8267115
Probable space group: C M M M
;
_chemical_formula_sum "Si O2"
_cell_formula_units_Z 88
_cell_length_a 23.689927
_cell_length_b 30.256820
_cell_length_c 8.710960
_cell_angle_alpha 90.000000
_cell_angle_beta 90.000000
_cell_angle_gamma 90.000000
_cell_volume 6243.858086
_symmetry_space_group_name_H-M "C M M M"
_symmetry_group_IT_number 65
_symmetry_cell_setting 'orthorhombic'
loop_
_space_group_symop_operation_xyz
x,y,z
-x,-y,z
x,-y,-z
-x,y,-z
-x,-y,-z
x,y,-z
-x,y,z
x,-y,z
1/2+x,1/2+y,z
1/2-x,1/2-y,z
1/2+x,1/2-y,-z
1/2-x,1/2+y,-z
1/2-x,1/2-y,-z
1/2+x,1/2+y,-z
1/2-x,1/2+y,z
1/2+x,1/2-y,z
loop_
_atom_site_type_symbol
_atom_site_label
_atom_site_fract_x
_atom_site_fract_y
_atom_site_fract_z
Si Si1 0.500000 0.759081 0.682444
Si Si2 0.434767 0.000000 0.181797
Si Si3 0.281844 0.296019 0.672164
Si Si4 0.000000 0.642132 0.681793
Si Si5 0.882620 0.751033 0.181436
Si Si6 0.893154 0.411121 0.317821
Si Si7 0.820542 0.661463 0.181121
O O1 0.500000 0.756181 0.500000
O O2 0.500000 0.808797 0.748031
O O3 0.443387 0.736909 0.747415
O O4 0.398728 0.958870 0.242500
O O5 0.500000 0.000000 0.244071
O O6 0.435326 0.000000 0.000000
O O7 0.292404 0.313866 0.500000
O O8 0.250000 0.250000 0.666903
O O9 0.341109 0.289322 0.758288
O O10 0.243757 0.330531 0.766386
O O11 0.054209 0.616927 0.744576
O O12 0.000000 0.643358 0.500000
O O13 0.860704 0.702375 0.234753
O O14 0.885508 0.753609 0.000000
O O15 0.891943 0.416266 0.500000
O O16 0.838472 0.384439 0.260889
O O17 0.822566 0.655899 0.000000
#
# Coordination Sequence:
#
# PCOD8267115 Si02
#       7
#     8   8  16   8  16  16  16
#     4  11  19  29  42  60  83 110 141 173 209 252
#     4  11  23  35  45  61  83 107 135 174 221 264
#     4   9  17  29  44  60  78 104 135 168 204 246
#     4   9  18  28  42  59  78 102 135 175 212 250
#     4  10  19  29  41  60  84 108 134 169 211 250
#     4  11  20  33  48  62  78 105 140 175 214 260
#     4  10  19  30  44  62  82 104 132 172 214 252
#
# _framework density 14.09385
#
# number of rings (size 3 to 8) (size 9 to 14) (size 15 to 20)
#    0.000    1.909    2.727    2.727    0.000    4.000 
#    0.000    0.000    0.000    0.000    0.000    0.000 
#    0.000    0.000    0.000    0.000    0.000    0.909 
#
# Total GULP energy -545586.933394 kJ/mol
# GULP energy per Si atom -12399.703032 kJ/mol
# Density = 1.406177 g / cm^3
# Si number density = 14.093850 Si / 1000 Ang^3
#
#
#
# Elastic Constant Matrix: (Units=GPa)
#
#
# Indices 1 2 3 4 5 6 
#
# 1 104.9846 43.9500 35.3229 0.0000 0.0000 0.0000
# 2 43.9500 58.5537 22.5617 0.0000 0.0000 0.0000
# 3 35.3229 22.5617 70.3568 0.0000 0.0000 0.0000
# 4 0.0000 0.0000 0.0000 19.6401 0.0000 0.0000
# 5 0.0000 0.0000 0.0000 0.0000 25.5755 0.0000
# 6 0.0000 0.0000 0.0000 0.0000 0.0000 13.6805
#
#
#
# Elastic Compliance Matrix: (Units=1/GPa)
#
#
# Indices 1 2 3 4 5 6 
#
# 1 0.015035 -0.009557 -0.004483 0.000000 0.000000 0.000000
# 2 -0.009557 0.025562 -0.003399 0.000000 0.000000 0.000000
# 3 -0.004483 -0.003399 0.017554 0.000000 0.000000 0.000000
# 4 0.000000 0.000000 0.000000 0.050916 0.000000 0.000000
# 5 0.000000 0.000000 0.000000 0.000000 0.039100 0.000000
# 6 0.000000 0.000000 0.000000 0.000000 0.000000 0.073097
#
#
# Mechanical properties :
#
#
# Convention : Reuss Voigt Hill
#
# Bulk Modulus (GPa) = 42.97112 48.61825 45.79469
# Shear Modulus (GPa) = 18.94659 20.58325 19.76492
#
# Velocity S-wave (km/s) = 3.67047 3.82572 3.74890
# Velocity P-wave (km/s) = 6.96553 7.35430 7.16255
#
# Compressibility (1/GPa) = 0.02327144
#
# Stress axis : x y z
#
# Youngs Moduli (GPa) = 66.51257 39.12110 56.96693
#
# Poissons Ratio (x) = 0.37390 0.25541
# Poissons Ratio (y) = 0.63569 0.19361
# Poissons Ratio (z) = 0.29820 0.13296
#
# Static dielectric constant tensor:
#      x y z
#    x 2.807410 0.000000 0.000000 
#    y 0.000000 2.529450 0.000000 
#    z 0.000000 0.000000 2.792640 
# 
# 
# High freq. dielectric constant tensor:
#      x y z
#    x 1.525990 0.000000 0.000000 
#    y 0.000000 1.491020 0.000000 
#    z 0.000000 0.000000 1.552780 
# 
# From -- ./inp_files/12676.got.cif
#   From: 2010.03.12/outbox.cif.g09.slc.cpg/sg65_7_cif.got.tgz:12676.got - 2010.04.10 20:52:16.
