data_PCOD8267943
_publ_section_title
;
Structure prediction by ZEFSAII (Michael W. Deem and Ramdas Pophale) SiO2 
 PCOD8267943
Probable space group: C M M M
;
_chemical_formula_sum "Si O2"
_cell_formula_units_Z 96
_cell_length_a 29.110857
_cell_length_b 19.018421
_cell_length_c 9.779522
_cell_angle_alpha 90.000000
_cell_angle_beta 90.000000
_cell_angle_gamma 90.000000
_cell_volume 5414.359342
_symmetry_space_group_name_H-M "C M M M"
_symmetry_group_IT_number 65
_symmetry_cell_setting 'orthorhombic'
loop_
_space_group_symop_operation_xyz
x,y,z
-x,-y,z
x,-y,-z
-x,y,-z
-x,-y,-z
x,y,-z
-x,y,z
x,-y,z
1/2+x,1/2+y,z
1/2-x,1/2-y,z
1/2+x,1/2-y,-z
1/2-x,1/2+y,-z
1/2-x,1/2-y,-z
1/2+x,1/2+y,-z
1/2-x,1/2+y,z
1/2+x,1/2-y,z
loop_
_atom_site_type_symbol
_atom_site_label
_atom_site_fract_x
_atom_site_fract_y
_atom_site_fract_z
Si Si1 0.774294 0.679481 0.337782
Si Si2 0.447198 0.917802 0.841800
Si Si3 0.446028 0.422825 0.849648
Si Si4 0.609475 0.334936 0.343730
Si Si5 0.696262 0.578427 0.662213
Si Si6 0.622257 0.828475 0.341662
O O1 0.777425 0.688754 0.500000
O O2 0.750000 0.750000 0.277940
O O3 0.744483 0.612314 0.291720
O O4 0.825783 0.665455 0.283169
O O5 0.500000 0.898610 0.804364
O O6 0.412385 0.874972 0.746773
O O7 0.438594 0.000000 0.815899
O O8 0.437712 0.898935 0.000000
O O9 0.500000 0.424824 0.856871
O O10 0.427490 0.500000 0.804805
O O11 0.432789 0.364191 0.741292
O O12 0.426318 0.403883 0.000000
O O13 0.602561 0.357006 0.500000
O O14 0.655796 0.370731 0.284779
O O15 0.608764 0.252182 0.325947
O O16 0.694560 0.574910 0.500000
O O17 0.691986 0.500000 0.725064
O O18 0.619051 0.852743 0.500000
#
# Coordination Sequence:
#
# PCOD8267943 Si02
#       6
#    16  16  16  16  16  16
#     4   9  15  28  47  69 105 144 170 205 260 312
#     4   9  20  40  61  78 102 140 181 220 268 325
#     4   9  19  35  51  67  92 129 171 213 256 301
#     4  10  19  31  48  74 105 134 164 206 257 306
#     4   9  16  26  44  70  98 133 175 210 244 296
#     4  10  20  32  53  83 111 138 170 213 266 315
#
# _framework density 17.730629
#
# number of rings (size 3 to 8) (size 9 to 14) (size 15 to 20)
#    0.000    2.667    1.667    1.500    0.000    4.000 
#    0.000    6.667    0.000    1.500    0.000    2.333 
#    0.000    0.000    0.000    0.000    0.000    0.000 
#
# Total GULP energy -594944.738425 kJ/mol
# GULP energy per Si atom -12394.682051 kJ/mol
# Density = 1.769027 g / cm^3
# Si number density = 17.730629 Si / 1000 Ang^3
#
#
#
# Elastic Constant Matrix: (Units=GPa)
#
#
# Indices 1 2 3 4 5 6 
#
# 1 110.5000 58.4692 51.5587 0.0000 0.0000 0.0000
# 2 58.4692 97.3295 47.0741 0.0000 0.0000 0.0000
# 3 51.5587 47.0741 60.2142 0.0000 0.0000 0.0000
# 4 0.0000 0.0000 0.0000 19.7197 0.0000 0.0000
# 5 0.0000 0.0000 0.0000 0.0000 -1.3285 0.0000
# 6 0.0000 0.0000 0.0000 0.0000 0.0000 37.9872
#
#
#
# Elastic Compliance Matrix: (Units=1/GPa)
#
#
# Indices 1 2 3 4 5 6 
#
# 1 0.016420 -0.004927 -0.010208 0.000000 0.000000 0.000000
# 2 -0.004927 0.018000 -0.009853 0.000000 0.000000 0.000000
# 3 -0.010208 -0.009853 0.033051 0.000000 0.000000 0.000000
# 4 0.000000 0.000000 0.000000 0.050711 0.000000 0.000000
# 5 0.000000 0.000000 0.000000 0.000000 -0.752723 0.000000
# 6 0.000000 0.000000 0.000000 0.000000 0.000000 0.026325
#
#
# Mechanical properties :
#
#
# Convention : Reuss Voigt Hill
#
# Bulk Modulus (GPa) = 57.16009 64.69419 60.92714
# Shear Modulus (GPa) = -9.05122 18.67180 4.81029
#
# Velocity S-wave (km/s) = -2.26184 3.24864 1.64890
# Velocity P-wave (km/s) = 5.04844 7.11604 6.16947
#
# Compressibility (1/GPa) = 0.01749472
#
# Stress axis : x y z
#
# Youngs Moduli (GPa) = 60.90307 55.55688 30.25661
#
# Poissons Ratio (x) = 0.27372 0.30885
# Poissons Ratio (y) = 0.30006 0.29812
# Poissons Ratio (z) = 0.62168 0.54741
#
# Static dielectric constant tensor:
#      x y z
#    x 3.335230 0.000000 0.000000 
#    y 0.000000 3.374430 0.000000 
#    z 0.000000 0.000000 2.983320 
# 
# 
# High freq. dielectric constant tensor:
#      x y z
#    x 1.691360 0.000000 0.000000 
#    y 0.000000 1.691380 0.000000 
#    z 0.000000 0.000000 1.643270 
# 
# From -- ./inp_files/12209.got.cif
#   From: 2010.03.12/outbox.cif.g09.slc.cpg/sg65_7_cif.got.tgz:12209.got - 2010.04.10 20:52:16.
