data_PCOD8267483
_publ_section_title
;
Structure prediction by ZEFSAII (Michael W. Deem and Ramdas Pophale) SiO2 
 PCOD8267483
Probable space group: C M M M
;
_chemical_formula_sum "Si O2"
_cell_formula_units_Z 64
_cell_length_a 9.284625
_cell_length_b 19.616372
_cell_length_c 21.728238
_cell_angle_alpha 90.000000
_cell_angle_beta 90.000000
_cell_angle_gamma 90.000000
_cell_volume 3957.378282
_symmetry_space_group_name_H-M "C M M M"
_symmetry_group_IT_number 65
_symmetry_cell_setting 'orthorhombic'
loop_
_space_group_symop_operation_xyz
x,y,z
-x,-y,z
x,-y,-z
-x,y,-z
-x,-y,-z
x,y,-z
-x,y,z
x,-y,z
1/2+x,1/2+y,z
1/2-x,1/2-y,z
1/2+x,1/2-y,-z
1/2-x,1/2+y,-z
1/2-x,1/2-y,-z
1/2+x,1/2+y,-z
1/2-x,1/2+y,z
1/2+x,1/2-y,z
loop_
_atom_site_type_symbol
_atom_site_label
_atom_site_fract_x
_atom_site_fract_y
_atom_site_fract_z
Si Si1 0.500000 0.580396 0.067383
Si Si2 0.332288 0.182215 0.742382
Si Si3 0.832054 0.681770 0.601283
Si Si4 0.840187 0.077500 0.818682
Si Si5 0.329459 0.076484 0.500000
O O1 0.500000 0.500000 0.058116
O O2 0.641860 0.599050 0.108672
O O3 0.500000 0.616700 0.000000
O O4 0.500000 0.194372 0.753454
O O5 0.250000 0.250000 0.762342
O O6 0.298215 0.163102 0.671823
O O7 0.279478 0.121811 0.785524
O O8 0.750000 0.750000 0.580666
O O9 0.778198 0.617988 0.560425
O O10 0.000000 0.695959 0.590415
O O11 0.000000 0.085152 0.787666
O O12 0.786481 0.000000 0.813313
O O13 0.500000 0.069833 0.500000
O O14 0.261645 0.000000 0.500000
#
# Coordination Sequence:
#
# PCOD8267483 Si02
#       5
#     8  16  16  16   8
#     4   7  12  26  50  74  94 121 156 188 223 273
#     4  10  19  30  46  69  95 125 159 195 236 278
#     4   9  18  31  48  67  87 117 156 193 229 273
#     4   8  16  29  47  72  96 121 154 189 232 275
#     4   9  17  30  47  67  90 117 150 188 234 279
#
# _framework density 16.172322999999999
#
# number of rings (size 3 to 8) (size 9 to 14) (size 15 to 20)
#    0.750    2.500    0.000    1.125    0.000    2.500 
#    0.000    2.500    0.000    3.000    0.000    3.500 
#    0.000    0.000    0.000    0.000    0.000    0.000 
#
# Total GULP energy -396438.153065 kJ/mol
# GULP energy per Si atom -12388.692283 kJ/mol
# Density = 1.613551 g / cm^3
# Si number density = 16.172323 Si / 1000 Ang^3
#
#
#
# Elastic Constant Matrix: (Units=GPa)
#
#
# Indices 1 2 3 4 5 6 
#
# 1 55.7280 44.0664 39.8627 0.0000 0.0000 0.0000
# 2 44.0664 116.6090 69.0149 0.0000 0.0000 0.0000
# 3 39.8627 69.0149 104.0750 0.0000 0.0000 0.0000
# 4 0.0000 0.0000 0.0000 1.2392 0.0000 0.0000
# 5 0.0000 0.0000 0.0000 0.0000 11.4229 0.0000
# 6 0.0000 0.0000 0.0000 0.0000 0.0000 29.3979
#
#
#
# Elastic Compliance Matrix: (Units=1/GPa)
#
#
# Indices 1 2 3 4 5 6 
#
# 1 0.027723 -0.006900 -0.006043 0.000000 0.000000 0.000000
# 2 -0.006900 0.015833 -0.007856 0.000000 0.000000 0.000000
# 3 -0.006043 -0.007856 0.017133 0.000000 0.000000 0.000000
# 4 0.000000 0.000000 0.000000 0.807000 0.000000 0.000000
# 5 0.000000 0.000000 0.000000 0.000000 0.087543 0.000000
# 6 0.000000 0.000000 0.000000 0.000000 0.000000 0.034016
#
#
# Mechanical properties :
#
#
# Convention : Reuss Voigt Hill
#
# Bulk Modulus (GPa) = 52.38310 64.70001 58.54155
# Shear Modulus (GPa) = 4.82063 16.64321 10.73192
#
# Velocity S-wave (km/s) = 1.72837 3.21147 2.57883
# Velocity P-wave (km/s) = 6.03688 7.33790 6.71896
#
# Compressibility (1/GPa) = 0.01909013
#
# Stress axis : x y z
#
# Youngs Moduli (GPa) = 36.07131 63.15920 58.36770
#
# Poissons Ratio (x) = 0.43580 0.35270
# Poissons Ratio (y) = 0.24889 0.45856
# Poissons Ratio (z) = 0.21797 0.49621
#
# Static dielectric constant tensor:
#      x y z
#    x 2.802900 0.000000 0.000000 
#    y 0.000000 3.023700 0.000000 
#    z 0.000000 0.000000 3.321060 
# 
# 
# High freq. dielectric constant tensor:
#      x y z
#    x 1.596570 0.000000 0.000000 
#    y 0.000000 1.612360 0.000000 
#    z 0.000000 0.000000 1.617160 
# 
# From -- ./inp_files/67195.got.cif
#   From: 2010.03.12/outbox.cif.g09.slc.cpg/sg65_34_cif.got.tgz:67195.got - 2010.04.10 20:52:16.
