data_PCOD8267195
_publ_section_title
;
Structure prediction by ZEFSAII (Michael W. Deem and Ramdas Pophale) SiO2 
 PCOD8267195
Probable space group: C M M M
;
_chemical_formula_sum "Si O2"
_cell_formula_units_Z 88
_cell_length_a 28.430990
_cell_length_b 9.275071
_cell_length_c 20.900896
_cell_angle_alpha 90.000000
_cell_angle_beta 90.000000
_cell_angle_gamma 90.000000
_cell_volume 5511.554797
_symmetry_space_group_name_H-M "C M M M"
_symmetry_group_IT_number 65
_symmetry_cell_setting 'orthorhombic'
loop_
_space_group_symop_operation_xyz
x,y,z
-x,-y,z
x,-y,-z
-x,y,-z
-x,-y,-z
x,y,-z
-x,y,z
x,-y,z
1/2+x,1/2+y,z
1/2-x,1/2-y,z
1/2+x,1/2-y,-z
1/2-x,1/2+y,-z
1/2-x,1/2-y,-z
1/2+x,1/2+y,-z
1/2-x,1/2+y,z
1/2+x,1/2-y,z
loop_
_atom_site_type_symbol
_atom_site_label
_atom_site_fract_x
_atom_site_fract_y
_atom_site_fract_z
Si Si1 0.446326 0.668910 0.691478
Si Si2 0.796615 0.662885 0.000000
Si Si3 0.614990 0.671127 0.812906
Si Si4 0.200184 0.330048 0.139463
Si Si5 0.552618 0.671095 0.929404
Si Si6 0.444131 0.162400 0.570004
O O1 0.500000 0.719732 0.704644
O O2 0.444657 0.500000 0.681003
O O3 0.414356 0.716519 0.750702
O O4 0.424593 0.739103 0.627265
O O5 0.750000 0.750000 0.000000
O O6 0.822473 0.695082 0.067690
O O7 0.779433 0.500000 0.000000
O O8 0.623963 0.500000 0.815825
O O9 0.664421 0.755574 0.810908
O O10 0.586508 0.730045 0.874360
O O11 0.206061 0.500000 0.154762
O O12 0.250000 0.250000 0.146243
O O13 0.500000 0.731945 0.918160
O O14 0.550897 0.500000 0.925228
O O15 0.570848 0.719391 0.000000
O O16 0.426104 0.216607 0.500000
O O17 0.500000 0.168587 0.570397
O O18 0.426475 0.000000 0.581707
#
# Coordination Sequence:
#
# PCOD8267195 Si02
#       6
#    16   8  16  16  16  16
#     4   9  17  28  42  63  93 125 154 185 219 257
#     4   8  16  30  46  62  79 100 129 171 222 273
#     4  10  19  29  44  66  90 116 148 186 225 266
#     4  10  20  34  49  65  85 110 141 182 231 281
#     4   8  14  25  41  61  84 112 149 188 220 253
#     4   8  14  25  41  61  86 117 152 187 220 256
#
# _framework density 15.966456000000001
#
# number of rings (size 3 to 8) (size 9 to 14) (size 15 to 20)
#    0.000    3.091    0.000    2.182    1.273    4.000 
#    0.000    1.818    0.000    1.636    0.000    1.273 
#    0.000    0.727    0.000    2.364    0.000    3.455 
#
# Total GULP energy -545124.435299 kJ/mol
# GULP energy per Si atom -12389.191711 kJ/mol
# Density = 1.593012 g / cm^3
# Si number density = 15.966456 Si / 1000 Ang^3
#
#
#
# Elastic Constant Matrix: (Units=GPa)
#
#
# Indices 1 2 3 4 5 6 
#
# 1 68.3307 33.3462 56.6198 0.0000 0.0000 0.0000
# 2 33.3462 46.5879 47.2970 0.0000 0.0000 0.0000
# 3 56.6198 47.2970 133.0348 0.0000 0.0000 0.0000
# 4 0.0000 0.0000 0.0000 22.8114 0.0000 0.0000
# 5 0.0000 0.0000 0.0000 0.0000 9.7468 0.0000
# 6 0.0000 0.0000 0.0000 0.0000 0.0000 18.7439
#
#
#
# Elastic Compliance Matrix: (Units=1/GPa)
#
#
# Indices 1 2 3 4 5 6 
#
# 1 0.026065 -0.011570 -0.006980 0.000000 0.000000 0.000000
# 2 -0.011570 0.038724 -0.008843 0.000000 0.000000 0.000000
# 3 -0.006980 -0.008843 0.013631 0.000000 0.000000 0.000000
# 4 0.000000 0.000000 0.000000 0.043838 0.000000 0.000000
# 5 0.000000 0.000000 0.000000 0.000000 0.102598 0.000000
# 6 0.000000 0.000000 0.000000 0.000000 0.000000 0.053351
#
#
# Mechanical properties :
#
#
# Convention : Reuss Voigt Hill
#
# Bulk Modulus (GPa) = 42.31190 58.05327 50.18258
# Shear Modulus (GPa) = 14.66837 17.63978 16.15408
#
# Velocity S-wave (km/s) = 3.03429 3.32746 3.18425
# Velocity P-wave (km/s) = 6.23169 7.15550 6.70951
#
# Compressibility (1/GPa) = 0.02363401
#
# Stress axis : x y z
#
# Youngs Moduli (GPa) = 38.36617 25.82377 73.36108
#
# Poissons Ratio (x) = 0.29879 0.51203
# Poissons Ratio (y) = 0.44391 0.64872
# Poissons Ratio (z) = 0.26778 0.22836
#
# Static dielectric constant tensor:
#      x y z
#    x 2.732460 0.000000 0.000000 
#    y 0.000000 2.864420 0.000000 
#    z 0.000000 0.000000 3.403740 
# 
# 
# High freq. dielectric constant tensor:
#      x y z
#    x 1.575770 0.000000 0.000000 
#    y 0.000000 1.598860 0.000000 
#    z 0.000000 0.000000 1.609420 
# 
# From -- ./inp_files/66211.got.cif
#   From: 2010.03.12/outbox.cif.g09.slc.cpg/sg65_34_cif.got.tgz:66211.got - 2010.04.10 20:52:16.
