data_PCOD8267478
_publ_section_title
;
Structure prediction by ZEFSAII (Michael W. Deem and Ramdas Pophale) SiO2 
 PCOD8267478
Probable space group: C M M M
;
_chemical_formula_sum "Si O2"
_cell_formula_units_Z 88
_cell_length_a 10.092068
_cell_length_b 26.453010
_cell_length_c 18.222923
_cell_angle_alpha 90.000000
_cell_angle_beta 90.000000
_cell_angle_gamma 90.000000
_cell_volume 4864.893130
_symmetry_space_group_name_H-M "C M M M"
_symmetry_group_IT_number 65
_symmetry_cell_setting 'orthorhombic'
loop_
_space_group_symop_operation_xyz
x,y,z
-x,-y,z
x,-y,-z
-x,y,-z
-x,-y,-z
x,y,-z
-x,y,z
x,-y,z
1/2+x,1/2+y,z
1/2-x,1/2-y,z
1/2+x,1/2-y,-z
1/2-x,1/2+y,-z
1/2-x,1/2-y,-z
1/2+x,1/2+y,-z
1/2-x,1/2+y,z
1/2+x,1/2-y,z
loop_
_atom_site_type_symbol
_atom_site_label
_atom_site_fract_x
_atom_site_fract_y
_atom_site_fract_z
Si Si1 0.650523 0.441462 0.414761
Si Si2 0.652212 0.898541 0.301516
Si Si3 0.653589 0.794071 0.223586
Si Si4 0.000000 0.059296 0.081952
Si Si5 0.726809 0.941946 0.849611
Si Si6 0.647982 0.845732 0.920840
O O1 0.669630 0.429237 0.500000
O O2 0.500000 0.428336 0.390616
O O3 0.679937 0.500000 0.398623
O O4 0.755132 0.407397 0.371395
O O5 0.500000 0.911916 0.320614
O O6 0.665081 0.840052 0.280122
O O7 0.701737 0.935135 0.236550
O O8 0.500000 0.776168 0.218955
O O9 0.750000 0.750000 0.252101
O O10 0.711593 0.812284 0.144213
O O11 0.874649 0.076152 0.129689
O O12 0.000000 0.000000 0.071711
O O13 0.000000 0.084079 0.000000
O O14 0.635321 0.904613 0.896865
O O15 0.698680 0.000000 0.871827
O O16 0.500000 0.825975 0.930737
O O17 0.722462 0.839777 0.000000
#
# Coordination Sequence:
#
# PCOD8267478 Si02
#       6
#    16  16  16   8  16  16
#     4   9  19  35  55  82 117 152 181 209 244 293
#     4  10  21  35  53  79 109 138 174 221 266 314
#     4   9  19  36  54  74  99 128 168 219 273 321
#     4   9  18  30  42  60  91 133 175 215 256 298
#     4  10  19  30  46  68  99 136 173 214 259 308
#     4   9  18  32  48  67  95 129 165 211 264 316
#
# _framework density 18.088784
#
# number of rings (size 3 to 8) (size 9 to 14) (size 15 to 20)
#    0.000    2.636    0.000    3.273    1.273    5.091 
#    4.909    1.818    0.000    0.545    0.000    0.000 
#    0.000    0.000    0.000    0.000    0.000    0.000 
#
# Total GULP energy -545299.835487 kJ/mol
# GULP energy per Si atom -12393.178079 kJ/mol
# Density = 1.804761 g / cm^3
# Si number density = 18.088784 Si / 1000 Ang^3
#
#
#
# Elastic Constant Matrix: (Units=GPa)
#
#
# Indices 1 2 3 4 5 6 
#
# 1 112.6407 43.0654 59.9644 0.0000 0.0000 0.0000
# 2 43.0654 66.7507 26.0610 0.0000 0.0000 0.0000
# 3 59.9644 26.0610 92.8748 0.0000 0.0000 0.0000
# 4 0.0000 0.0000 0.0000 11.3464 0.0000 0.0000
# 5 0.0000 0.0000 0.0000 0.0000 30.6176 0.0000
# 6 0.0000 0.0000 0.0000 0.0000 0.0000 28.5887
#
#
#
# Elastic Compliance Matrix: (Units=1/GPa)
#
#
# Indices 1 2 3 4 5 6 
#
# 1 0.016041 -0.007081 -0.008370 0.000000 0.000000 0.000000
# 2 -0.007081 0.019950 -0.001026 0.000000 0.000000 0.000000
# 3 -0.008370 -0.001026 0.016459 0.000000 0.000000 0.000000
# 4 0.000000 0.000000 0.000000 0.088134 0.000000 0.000000
# 5 0.000000 0.000000 0.000000 0.000000 0.032661 0.000000
# 6 0.000000 0.000000 0.000000 0.000000 0.000000 0.034979
#
#
# Mechanical properties :
#
#
# Convention : Reuss Voigt Hill
#
# Bulk Modulus (GPa) = 51.29266 58.93866 55.11566
# Shear Modulus (GPa) = 20.18764 23.65557 21.92160
#
# Velocity S-wave (km/s) = 3.34433 3.62020 3.48500
# Velocity P-wave (km/s) = 6.58258 7.08013 6.83588
#
# Compressibility (1/GPa) = 0.01949597
#
# Stress axis : x y z
#
# Youngs Moduli (GPa) = 62.34142 50.12442 60.75722
#
# Poissons Ratio (x) = 0.35494 0.50851
# Poissons Ratio (y) = 0.44146 0.06235
# Poissons Ratio (z) = 0.52177 0.05144
#
# Static dielectric constant tensor:
#      x y z
#    x 3.450680 0.000000 0.000000 
#    y 0.000000 3.063880 0.000000 
#    z 0.000000 0.000000 3.330690 
# 
# 
# High freq. dielectric constant tensor:
#      x y z
#    x 1.698780 0.000000 0.000000 
#    y 0.000000 1.677450 0.000000 
#    z 0.000000 0.000000 1.689770 
# 
# From -- ./inp_files/50347.got.cif
#   From: 2010.03.12/outbox.cif.g09.slc.cpg/sg65_26_cif.got.tgz:50347.got - 2010.04.10 20:52:16.
