data_PCOD8267740
_publ_section_title
;
Structure prediction by ZEFSAII (Michael W. Deem and Ramdas Pophale) SiO2 
 PCOD8267740
Probable space group: C M M M
;
_chemical_formula_sum "Si O2"
_cell_formula_units_Z 80
_cell_length_a 23.386028
_cell_length_b 25.782671
_cell_length_c 8.774434
_cell_angle_alpha 90.000000
_cell_angle_beta 90.000000
_cell_angle_gamma 90.000000
_cell_volume 5290.582411
_symmetry_space_group_name_H-M "C M M M"
_symmetry_group_IT_number 65
_symmetry_cell_setting 'orthorhombic'
loop_
_space_group_symop_operation_xyz
x,y,z
-x,-y,z
x,-y,-z
-x,y,-z
-x,-y,-z
x,y,-z
-x,y,z
x,-y,z
1/2+x,1/2+y,z
1/2-x,1/2-y,z
1/2+x,1/2-y,-z
1/2-x,1/2+y,-z
1/2-x,1/2-y,-z
1/2+x,1/2+y,-z
1/2-x,1/2+y,z
1/2+x,1/2-y,z
loop_
_atom_site_type_symbol
_atom_site_label
_atom_site_fract_x
_atom_site_fract_y
_atom_site_fract_z
Si Si1 0.000000 0.104090 0.679002
Si Si2 0.286091 0.197807 0.171614
Si Si3 0.500000 0.282873 0.180014
Si Si4 0.187226 0.142151 0.322478
Si Si5 0.389375 0.440261 0.825008
Si Si6 0.115825 0.245185 0.677735
O O1 0.055446 0.071403 0.723221
O O2 0.000000 0.114989 0.500000
O O3 0.000000 0.158678 0.762157
O O4 0.250000 0.250000 0.171208
O O5 0.250879 0.154229 0.262773
O O6 0.345852 0.208147 0.256239
O O7 0.297804 0.178541 0.000000
O O8 0.555205 0.252398 0.239460
O O9 0.500000 0.283055 0.000000
O O10 0.190319 0.129204 0.500000
O O11 0.164572 0.092581 0.231683
O O12 0.144637 0.189718 0.289355
O O13 0.372563 0.500000 0.805932
O O14 0.403356 0.426407 0.000000
O O15 0.107254 0.254524 0.500000
#
# Coordination Sequence:
#
# PCOD8267740 Si02
#       6
#     8  16   8  16  16  16
#     4  12  23  35  48  63  84 116 154 195 237 275
#     4   9  17  29  46  66  88 113 144 180 221 269
#     4  12  22  31  47  66  90 121 153 189 228 269
#     4  10  19  31  48  66  87 114 147 187 229 271
#     4  11  23  36  49  65  86 115 153 196 237 275
#     4  10  19  31  46  66  90 115 148 185 224 269
#
# _framework density 15.121207999999999
#
# number of rings (size 3 to 8) (size 9 to 14) (size 15 to 20)
#    0.000    1.600    2.000    4.500    0.000    6.800 
#    0.000    0.000    0.000    0.000    0.000    0.000 
#    0.000    0.000    0.000    0.900    0.000   16.600 
#
# Total GULP energy -496164.119115 kJ/mol
# GULP energy per Si atom -12404.102978 kJ/mol
# Density = 1.508679 g / cm^3
# Si number density = 15.121208 Si / 1000 Ang^3
#
#
#
# Elastic Constant Matrix: (Units=GPa)
#
#
# Indices 1 2 3 4 5 6 
#
# 1 108.4786 51.1568 64.7069 0.0000 0.0000 0.0000
# 2 51.1568 45.7494 22.7290 0.0000 0.0000 0.0000
# 3 64.7069 22.7290 99.4901 0.0000 0.0000 0.0000
# 4 0.0000 0.0000 0.0000 18.2521 0.0000 0.0000
# 5 0.0000 0.0000 0.0000 0.0000 30.3154 0.0000
# 6 0.0000 0.0000 0.0000 0.0000 0.0000 10.3342
#
#
#
# Elastic Compliance Matrix: (Units=1/GPa)
#
#
# Indices 1 2 3 4 5 6 
#
# 1 0.029611 -0.026557 -0.013191 0.000000 0.000000 0.000000
# 2 -0.026557 0.048475 0.006198 0.000000 0.000000 0.000000
# 3 -0.013191 0.006198 0.017215 0.000000 0.000000 0.000000
# 4 0.000000 0.000000 0.000000 0.054788 0.000000 0.000000
# 5 0.000000 0.000000 0.000000 0.000000 0.032987 0.000000
# 6 0.000000 0.000000 0.000000 0.000000 0.000000 0.096766
#
#
# Mechanical properties :
#
#
# Convention : Reuss Voigt Hill
#
# Bulk Modulus (GPa) = 35.46132 58.98927 47.22529
# Shear Modulus (GPa) = 14.03145 19.45538 16.74341
#
# Velocity S-wave (km/s) = 3.04950 3.59085 3.33119
# Velocity P-wave (km/s) = 5.99179 7.50253 6.78931
#
# Compressibility (1/GPa) = 0.02819974
#
# Stress axis : x y z
#
# Youngs Moduli (GPa) = 33.77123 20.62912 58.08961
#
# Poissons Ratio (x) = 0.54785 0.76629
# Poissons Ratio (y) = 0.89687 -0.36004
# Poissons Ratio (z) = 0.44549 -0.12786
#
# Static dielectric constant tensor:
#      x y z
#    x 2.973110 0.000000 0.000000 
#    y 0.000000 2.645540 0.000000 
#    z 0.000000 0.000000 3.134740 
# 
# 
# High freq. dielectric constant tensor:
#      x y z
#    x 1.570940 0.000000 0.000000 
#    y 0.000000 1.533370 0.000000 
#    z 0.000000 0.000000 1.604130 
# 
# From -- ./inp_files/11591.got.cif
#   From: 2010.03.12/outbox.cif.g09.slc.cpg/sg65_6_cif.got.tgz:11591.got - 2010.04.10 20:52:16.
