data_PCOD8267471
_publ_section_title
;
Structure prediction by ZEFSAII (Michael W. Deem and Ramdas Pophale) SiO2 
 PCOD8267471
Probable space group: C M M M
;
_chemical_formula_sum "Si O2"
_cell_formula_units_Z 120
_cell_length_a 16.900149
_cell_length_b 27.758245
_cell_length_c 14.835206
_cell_angle_alpha 90.000000
_cell_angle_beta 90.000000
_cell_angle_gamma 90.000000
_cell_volume 6959.469237
_symmetry_space_group_name_H-M "C M M M"
_symmetry_group_IT_number 65
_symmetry_cell_setting 'orthorhombic'
loop_
_space_group_symop_operation_xyz
x,y,z
-x,-y,z
x,-y,-z
-x,y,-z
-x,-y,-z
x,y,-z
-x,y,z
x,-y,z
1/2+x,1/2+y,z
1/2-x,1/2-y,z
1/2+x,1/2-y,-z
1/2-x,1/2+y,-z
1/2-x,1/2-y,-z
1/2+x,1/2+y,-z
1/2-x,1/2+y,z
1/2+x,1/2-y,z
loop_
_atom_site_type_symbol
_atom_site_label
_atom_site_fract_x
_atom_site_fract_y
_atom_site_fract_z
Si Si1 0.808527 0.857991 0.098289
Si Si2 0.824939 0.215896 0.397987
Si Si3 0.731113 0.143014 0.283161
Si Si4 0.091304 0.710951 0.279125
Si Si5 0.184689 0.054147 0.331243
Si Si6 0.907925 0.054058 0.149787
Si Si7 0.091997 0.763800 0.899538
Si Si8 0.587731 0.442776 0.500000
O O1 0.742426 0.856535 0.175287
O O2 0.857950 0.907575 0.093350
O O3 0.867297 0.814407 0.118038
O O4 0.767635 0.851991 0.000000
O O5 0.850436 0.200405 0.500000
O O6 0.750000 0.250000 0.403900
O O7 0.801710 0.170696 0.335549
O O8 0.895607 0.245202 0.349182
O O9 0.645176 0.164940 0.306125
O O10 0.737977 0.087415 0.314443
O O11 0.118329 0.726432 0.178107
O O12 0.000000 0.695036 0.283008
O O13 0.121171 0.056373 0.251956
O O14 0.136646 0.075394 0.414842
O O15 0.216432 0.000000 0.347231
O O16 0.000000 0.067762 0.145909
O O17 0.894329 0.000000 0.110868
O O18 0.000000 0.773968 0.889584
O O19 0.112727 0.743428 0.000000
O O20 0.580112 0.500000 0.500000
O O21 0.500000 0.419582 0.500000
#
# Coordination Sequence:
#
# PCOD8267471 Si02
#       8
#    16  16  16  16  16  16  16   8
#     4  10  19  30  46  68  94 128 167 200 235 287
#     4   9  18  33  52  72  97 127 158 195 239 286
#     4  10  20  34  52  73  98 129 164 202 245 291
#     4  10  20  35  53  73  97 126 164 206 247 292
#     4   9  18  31  48  71  99 131 164 202 245 287
#     4   9  17  29  44  64  95 132 166 201 240 282
#     4   9  17  29  46  70  99 126 153 194 245 292
#     4   9  16  28  48  74 102 131 165 199 234 282
#
# _framework density 17.242694
#
# number of rings (size 3 to 8) (size 9 to 14) (size 15 to 20)
#    0.000    2.600    1.333    0.800    0.933    3.467 
#    0.000    2.667    0.000    0.400    0.000    0.000 
#    0.000    1.600    0.000   10.000    0.000    0.000 
#
# Total GULP energy -743642.971954 kJ/mol
# GULP energy per Si atom -12394.049533 kJ/mol
# Density = 1.720345 g / cm^3
# Si number density = 17.242694 Si / 1000 Ang^3
#
#
#
# Elastic Constant Matrix: (Units=GPa)
#
#
# Indices 1 2 3 4 5 6 
#
# 1 64.6386 40.8641 28.7395 0.0000 0.0000 0.0000
# 2 40.8641 72.8500 26.6007 0.0000 0.0000 0.0000
# 3 28.7395 26.6007 104.8844 0.0000 0.0000 0.0000
# 4 0.0000 0.0000 0.0000 18.4065 0.0000 0.0000
# 5 0.0000 0.0000 0.0000 0.0000 15.0589 0.0000
# 6 0.0000 0.0000 0.0000 0.0000 0.0000 20.2546
#
#
#
# Elastic Compliance Matrix: (Units=1/GPa)
#
#
# Indices 1 2 3 4 5 6 
#
# 1 0.025183 -0.012791 -0.003656 0.000000 0.000000 0.000000
# 2 -0.012791 0.021624 -0.001980 0.000000 0.000000 0.000000
# 3 -0.003656 -0.001980 0.011038 0.000000 0.000000 0.000000
# 4 0.000000 0.000000 0.000000 0.054329 0.000000 0.000000
# 5 0.000000 0.000000 0.000000 0.000000 0.066406 0.000000
# 6 0.000000 0.000000 0.000000 0.000000 0.000000 0.049372
#
#
# Mechanical properties :
#
#
# Convention : Reuss Voigt Hill
#
# Bulk Modulus (GPa) = 47.63722 48.30909 47.97315
# Shear Modulus (GPa) = 18.39576 20.48857 19.44216
#
# Velocity S-wave (km/s) = 3.26984 3.45083 3.36156
# Velocity P-wave (km/s) = 6.47637 6.62990 6.55358
#
# Compressibility (1/GPa) = 0.02099199
#
# Stress axis : x y z
#
# Youngs Moduli (GPa) = 39.71011 46.24409 90.59415
#
# Poissons Ratio (x) = 0.59149 0.33124
# Poissons Ratio (y) = 0.50792 0.17934
# Poissons Ratio (z) = 0.14519 0.09154
#
# Static dielectric constant tensor:
#      x y z
#    x 2.827910 0.000000 0.000000 
#    y 0.000000 3.225630 0.000000 
#    z 0.000000 0.000000 3.518670 
# 
# 
# High freq. dielectric constant tensor:
#      x y z
#    x 1.625600 0.000000 0.000000 
#    y 0.000000 1.653840 0.000000 
#    z 0.000000 0.000000 1.683330 
# 
# From -- ./inp_files/41461.got.cif
#   From: 2010.03.12/outbox.cif.g09.slc.cpg/sg65_21_cif.got.tgz:41461.got - 2010.04.10 20:52:16.
