data_PCOD8267957
_publ_section_title
;
Structure prediction by ZEFSAII (Michael W. Deem and Ramdas Pophale) SiO2 
 PCOD8267957
Probable space group: C M M M
;
_chemical_formula_sum "Si O2"
_cell_formula_units_Z 104
_cell_length_a 18.639604
_cell_length_b 9.026956
_cell_length_c 33.084774
_cell_angle_alpha 90.000000
_cell_angle_beta 90.000000
_cell_angle_gamma 90.000000
_cell_volume 5566.807189
_symmetry_space_group_name_H-M "C M M M"
_symmetry_group_IT_number 65
_symmetry_cell_setting 'orthorhombic'
loop_
_space_group_symop_operation_xyz
x,y,z
-x,-y,z
x,-y,-z
-x,y,-z
-x,-y,-z
x,y,-z
-x,y,z
x,-y,z
1/2+x,1/2+y,z
1/2-x,1/2-y,z
1/2+x,1/2-y,-z
1/2-x,1/2+y,-z
1/2-x,1/2-y,-z
1/2+x,1/2+y,-z
1/2-x,1/2+y,z
1/2+x,1/2-y,z
loop_
_atom_site_type_symbol
_atom_site_label
_atom_site_fract_x
_atom_site_fract_y
_atom_site_fract_z
Si Si1 0.676156 0.173993 0.351532
Si Si2 0.173298 0.675381 0.887536
Si Si3 0.579888 0.175888 0.187842
Si Si4 0.323812 0.825919 0.260434
Si Si5 0.082269 0.170149 0.046915
Si Si6 0.419916 0.175815 0.424257
Si Si7 0.672796 0.823861 0.500000
O O1 0.750000 0.250000 0.364315
O O2 0.653309 0.218474 0.305986
O O3 0.614236 0.229003 0.381845
O O4 0.688538 0.000000 0.355512
O O5 0.182997 0.500000 0.887110
O O6 0.250000 0.750000 0.884588
O O7 0.126477 0.733407 0.849773
O O8 0.133986 0.722063 0.928557
O O9 0.500000 0.243931 0.184960
O O10 0.614917 0.230258 0.229898
O O11 0.575880 0.000000 0.186845
O O12 0.250000 0.750000 0.247735
O O13 0.311763 0.000000 0.256429
O O14 0.000000 0.209661 0.057019
O O15 0.098318 0.000000 0.058319
O O16 0.098131 0.197781 0.000000
O O17 0.500000 0.243338 0.427790
O O18 0.370971 0.232839 0.460994
O O19 0.424571 0.000000 0.425891
O O20 0.750000 0.750000 0.500000
O O21 0.682269 0.000000 0.500000
#
# Coordination Sequence:
#
# PCOD8267957 Si02
#       7
#    16  16  16  16  16  16   8
#     4   9  17  29  47  70  94 123 158 195 235 282
#     4  11  22  35  53  76 103 135 170 208 248 292
#     4   9  18  32  50  73  99 126 160 203 248 292
#     4   9  17  30  49  71  96 126 158 195 239 285
#     4   9  19  37  59  81 106 135 166 203 248 296
#     4   9  17  29  46  69  94 120 156 199 238 279
#     4  10  19  31  49  69  91 122 156 194 240 286
#
# _framework density 18.682164
#
# number of rings (size 3 to 8) (size 9 to 14) (size 15 to 20)
#    0.000    2.615    0.000    2.538    0.000    3.077 
#    0.000    4.615    0.000    4.615    0.000    4.308 
#    0.000    0.000    0.000    0.000    0.000    0.000 
#
# Total GULP energy -644800.781190 kJ/mol
# GULP energy per Si atom -12400.015023 kJ/mol
# Density = 1.863964 g / cm^3
# Si number density = 18.682164 Si / 1000 Ang^3
#
#
#
# Elastic Constant Matrix: (Units=GPa)
#
#
# Indices 1 2 3 4 5 6 
#
# 1 180.0286 38.6696 99.3724 0.0000 0.0000 0.0000
# 2 38.6696 33.5455 30.5811 0.0000 0.0000 0.0000
# 3 99.3724 30.5811 133.9970 0.0000 0.0000 0.0000
# 4 0.0000 0.0000 0.0000 17.1828 0.0000 0.0000
# 5 0.0000 0.0000 0.0000 0.0000 38.7629 0.0000
# 6 0.0000 0.0000 0.0000 0.0000 0.0000 19.4592
#
#
#
# Elastic Compliance Matrix: (Units=1/GPa)
#
#
# Indices 1 2 3 4 5 6 
#
# 1 0.010340 -0.006224 -0.006248 0.000000 0.000000 0.000000
# 2 -0.006224 0.041388 -0.004830 0.000000 0.000000 0.000000
# 3 -0.006248 -0.004830 0.013199 0.000000 0.000000 0.000000
# 4 0.000000 0.000000 0.000000 0.058198 0.000000 0.000000
# 5 0.000000 0.000000 0.000000 0.000000 0.025798 0.000000
# 6 0.000000 0.000000 0.000000 0.000000 0.000000 0.051390
#
#
# Mechanical properties :
#
#
# Convention : Reuss Voigt Hill
#
# Bulk Modulus (GPa) = 32.97795 76.09083 54.53439
# Shear Modulus (GPa) = 20.40616 27.01083 23.70849
#
# Velocity S-wave (km/s) = 3.30855 3.80650 3.56623
# Velocity P-wave (km/s) = 5.68206 7.75480 6.79789
#
# Compressibility (1/GPa) = 0.03032329
#
# Stress axis : x y z
#
# Youngs Moduli (GPa) = 96.70887 24.16149 75.76528
#
# Poissons Ratio (x) = 0.15038 0.47338
# Poissons Ratio (y) = 0.60191 0.36595
# Poissons Ratio (z) = 0.60423 0.11670
#
# Static dielectric constant tensor:
#      x y z
#    x 3.617180 0.000000 0.000000 
#    y 0.000000 3.076630 0.000000 
#    z 0.000000 0.000000 3.659510 
# 
# 
# High freq. dielectric constant tensor:
#      x y z
#    x 1.730490 0.000000 0.000000 
#    y 0.000000 1.687720 0.000000 
#    z 0.000000 0.000000 1.740890 
# 
# From -- ./inp_files/78213.got.cif
#   From: 2010.03.12/outbox.cif.g09.slc.cpg/sg65_40_cif.got.tgz:78213.got - 2010.04.10 20:52:16.
