data_PCOD8267822
_publ_section_title
;
Structure prediction by ZEFSAII (Michael W. Deem and Ramdas Pophale) SiO2 
 PCOD8267822
Probable space group: C M M M
;
_chemical_formula_sum "Si O2"
_cell_formula_units_Z 120
_cell_length_a 20.821301
_cell_length_b 23.543516
_cell_length_c 13.467047
_cell_angle_alpha 90.000000
_cell_angle_beta 90.000000
_cell_angle_gamma 90.000000
_cell_volume 6601.635769
_symmetry_space_group_name_H-M "C M M M"
_symmetry_group_IT_number 65
_symmetry_cell_setting 'orthorhombic'
loop_
_space_group_symop_operation_xyz
x,y,z
-x,-y,z
x,-y,-z
-x,y,-z
-x,-y,-z
x,y,-z
-x,y,z
x,-y,z
1/2+x,1/2+y,z
1/2-x,1/2-y,z
1/2+x,1/2-y,-z
1/2-x,1/2+y,-z
1/2-x,1/2-y,-z
1/2+x,1/2+y,-z
1/2-x,1/2+y,z
1/2+x,1/2-y,z
loop_
_atom_site_type_symbol
_atom_site_label
_atom_site_fract_x
_atom_site_fract_y
_atom_site_fract_z
Si Si1 0.631423 0.566117 0.218664
Si Si2 0.109333 0.779713 0.889660
Si Si3 0.924408 0.436589 0.111190
Si Si4 0.070913 0.837207 0.303826
Si Si5 0.772292 0.141613 0.113028
Si Si6 0.074701 0.719726 0.612881
Si Si7 0.500000 0.434045 0.893067
Si Si8 0.639909 0.834384 0.793467
O O1 0.637337 0.500000 0.250153
O O2 0.622827 0.610347 0.311502
O O3 0.691496 0.584122 0.150551
O O4 0.565022 0.581569 0.163302
O O5 0.066298 0.810755 0.807784
O O6 0.181227 0.804459 0.883834
O O7 0.112624 0.712556 0.868955
O O8 0.080246 0.788649 0.000000
O O9 0.903081 0.500000 0.141596
O O10 0.893893 0.394198 0.189277
O O11 0.000000 0.430681 0.115512
O O12 0.899740 0.423006 0.000000
O O13 0.092153 0.786670 0.377347
O O14 0.000000 0.859645 0.332544
O O15 0.715386 0.156202 0.188854
O O16 0.748085 0.130519 0.000000
O O17 0.086139 0.700574 0.500000
O O18 0.123477 0.683529 0.680644
O O19 0.000000 0.710143 0.644352
O O20 0.500000 0.500000 0.911708
O O21 0.500000 0.402865 0.000000
#
# Coordination Sequence:
#
# PCOD8267822 Si02
#       8
#    16  16  16  16  16  16   8  16
#     4  10  19  31  47  69 102 144 186 223 252 290
#     4   9  18  30  44  67 101 136 168 206 252 300
#     4   9  18  31  46  69 102 134 162 195 235 283
#     4   9  17  30  48  74 103 133 170 215 268 316
#     4  10  20  31  44  68 105 144 177 212 252 296
#     4   9  19  36  58  82 105 126 158 214 278 332
#     4   9  16  26  42  64  93 135 183 221 249 280
#     4  11  19  31  53  73  95 131 174 208 246 310
#
# _framework density 18.177313000000002
#
# number of rings (size 3 to 8) (size 9 to 14) (size 15 to 20)
#    0.000    2.467    0.667    2.800    0.000    3.733 
#    0.000    0.000    0.000   15.200    0.000    3.733 
#    0.000    0.000    0.000    0.000    0.000    0.000 
#
# Total GULP energy -743531.623822 kJ/mol
# GULP energy per Si atom -12392.193730 kJ/mol
# Density = 1.813594 g / cm^3
# Si number density = 18.177313 Si / 1000 Ang^3
#
#
#
# Elastic Constant Matrix: (Units=GPa)
#
#
# Indices 1 2 3 4 5 6 
#
# 1 65.5088 31.8761 33.8413 0.0000 0.0000 0.0000
# 2 31.8761 110.7347 28.9416 0.0000 0.0000 0.0000
# 3 33.8413 28.9416 74.4263 0.0000 0.0000 0.0000
# 4 0.0000 0.0000 0.0000 16.0011 0.0000 0.0000
# 5 0.0000 0.0000 0.0000 0.0000 19.6416 0.0000
# 6 0.0000 0.0000 0.0000 0.0000 0.0000 19.9385
#
#
#
# Elastic Compliance Matrix: (Units=1/GPa)
#
#
# Indices 1 2 3 4 5 6 
#
# 1 0.021459 -0.004037 -0.008187 0.000000 0.000000 0.000000
# 2 -0.004037 0.010812 -0.002369 0.000000 0.000000 0.000000
# 3 -0.008187 -0.002369 0.018080 0.000000 0.000000 0.000000
# 4 0.000000 0.000000 0.000000 0.062496 0.000000 0.000000
# 5 0.000000 0.000000 0.000000 0.000000 0.050912 0.000000
# 6 0.000000 0.000000 0.000000 0.000000 0.000000 0.050154
#
#
# Mechanical properties :
#
#
# Convention : Reuss Voigt Hill
#
# Bulk Modulus (GPa) = 47.24936 48.88751 48.06843
# Shear Modulus (GPa) = 19.98763 21.51697 20.75230
#
# Velocity S-wave (km/s) = 3.31961 3.44427 3.38251
# Velocity P-wave (km/s) = 6.38303 6.53991 6.46195
#
# Compressibility (1/GPa) = 0.02116431
#
# Stress axis : x y z
#
# Youngs Moduli (GPa) = 46.59993 92.49118 55.30998
#
# Poissons Ratio (x) = 0.37342 0.45285
# Poissons Ratio (y) = 0.18814 0.13100
# Poissons Ratio (z) = 0.38153 0.21907
#
# Static dielectric constant tensor:
#      x y z
#    x 3.419790 0.000000 0.000000 
#    y 0.000000 3.561490 0.000000 
#    z 0.000000 0.000000 3.179370 
# 
# 
# High freq. dielectric constant tensor:
#      x y z
#    x 1.691560 0.000000 0.000000 
#    y 0.000000 1.711150 0.000000 
#    z 0.000000 0.000000 1.661440 
# 
# From -- ./inp_files/44788.got.cif
#   From: 2010.03.12/outbox.cif.g09.slc.cpg/sg65_23_cif.got.tgz:44788.got - 2010.04.10 20:52:16.
