data_PCOD8267429
_publ_section_title
;
Structure prediction by ZEFSAII (Michael W. Deem and Ramdas Pophale) SiO2 
 PCOD8267429
Probable space group: C M M M
;
_chemical_formula_sum "Si O2"
_cell_formula_units_Z 88
_cell_length_a 25.684218
_cell_length_b 9.147248
_cell_length_c 22.551003
_cell_angle_alpha 90.000000
_cell_angle_beta 90.000000
_cell_angle_gamma 90.000000
_cell_volume 5298.130654
_symmetry_space_group_name_H-M "C M M M"
_symmetry_group_IT_number 65
_symmetry_cell_setting 'orthorhombic'
loop_
_space_group_symop_operation_xyz
x,y,z
-x,-y,z
x,-y,-z
-x,y,-z
-x,-y,-z
x,y,-z
-x,y,z
x,-y,z
1/2+x,1/2+y,z
1/2-x,1/2-y,z
1/2+x,1/2-y,-z
1/2-x,1/2+y,-z
1/2-x,1/2-y,-z
1/2+x,1/2+y,-z
1/2-x,1/2+y,z
1/2+x,1/2-y,z
loop_
_atom_site_type_symbol
_atom_site_label
_atom_site_fract_x
_atom_site_fract_y
_atom_site_fract_z
Si Si1 0.696576 0.669721 0.436347
Si Si2 0.150667 0.171243 0.684089
Si Si3 0.195479 0.175435 0.190653
Si Si4 0.404095 0.168153 0.855046
Si Si5 0.000000 0.326338 0.067537
Si Si6 0.558683 0.161955 0.724793
O O1 0.666239 0.691174 0.500000
O O2 0.707159 0.500000 0.424824
O O3 0.750000 0.750000 0.442946
O O4 0.668902 0.738783 0.378639
O O5 0.183956 0.225257 0.741173
O O6 0.091385 0.219242 0.689720
O O7 0.152667 0.000000 0.681832
O O8 0.250000 0.250000 0.171580
O O9 0.149002 0.235366 0.148141
O O10 0.198949 0.000000 0.184123
O O11 0.445655 0.230518 0.903232
O O12 0.435892 0.181723 0.794674
O O13 0.388097 0.000000 0.868572
O O14 0.000000 0.500000 0.074194
O O15 0.000000 0.272458 0.000000
O O16 0.500000 0.188669 0.705546
O O17 0.577620 0.000000 0.706585
#
# Coordination Sequence:
#
# PCOD8267429 Si02
#       6
#    16  16  16  16   8  16
#     4   9  17  29  44  61  83 111 143 180 221 266
#     4   9  18  29  42  64  90 115 146 184 226 271
#     4  10  19  30  45  68  96 125 155 189 231 277
#     4   9  16  29  48  70  97 125 152 186 226 270
#     4   9  16  28  51  79 101 123 154 189 224 268
#     4   9  16  27  44  65  89 117 147 180 220 265
#
# _framework density 16.609631
#
# number of rings (size 3 to 8) (size 9 to 14) (size 15 to 20)
#    0.000    2.818    0.909    1.091    0.000    1.818 
#    0.000    0.455    0.000    2.182    0.000    3.818 
#    0.000    0.000    0.000    0.000    0.000    0.000 
#
# Total GULP energy -545123.411529 kJ/mol
# GULP energy per Si atom -12389.168444 kJ/mol
# Density = 1.657183 g / cm^3
# Si number density = 16.609631 Si / 1000 Ang^3
#
#
#
# Elastic Constant Matrix: (Units=GPa)
#
#
# Indices 1 2 3 4 5 6 
#
# 1 106.2029 30.6769 58.1321 0.0000 0.0000 0.0000
# 2 30.6769 25.1181 22.4246 0.0000 0.0000 0.0000
# 3 58.1321 22.4246 95.3877 0.0000 0.0000 0.0000
# 4 0.0000 0.0000 0.0000 12.4485 0.0000 0.0000
# 5 0.0000 0.0000 0.0000 0.0000 23.1067 0.0000
# 6 0.0000 0.0000 0.0000 0.0000 0.0000 27.8062
#
#
#
# Elastic Compliance Matrix: (Units=1/GPa)
#
#
# Indices 1 2 3 4 5 6 
#
# 1 0.017795 -0.015252 -0.007259 0.000000 0.000000 0.000000
# 2 -0.015252 0.063460 -0.005624 0.000000 0.000000 0.000000
# 3 -0.007259 -0.005624 0.016230 0.000000 0.000000 0.000000
# 4 0.000000 0.000000 0.000000 0.080331 0.000000 0.000000
# 5 0.000000 0.000000 0.000000 0.000000 0.043278 0.000000
# 6 0.000000 0.000000 0.000000 0.000000 0.000000 0.035963
#
#
# Mechanical properties :
#
#
# Convention : Reuss Voigt Hill
#
# Bulk Modulus (GPa) = 24.26324 49.90844 37.08584
# Shear Modulus (GPa) = 15.28746 20.37062 17.82904
#
# Velocity S-wave (km/s) = 3.03710 3.50585 3.27986
# Velocity P-wave (km/s) = 5.19021 6.81917 6.05968
#
# Compressibility (1/GPa) = 0.04121462
#
# Stress axis : x y z
#
# Youngs Moduli (GPa) = 56.19536 15.75786 61.61612
#
# Poissons Ratio (x) = 0.24035 0.44728
# Poissons Ratio (y) = 0.85712 0.34650
# Poissons Ratio (z) = 0.40793 0.08862
#
# Static dielectric constant tensor:
#      x y z
#    x 3.109410 0.000000 0.000000 
#    y 0.000000 3.837160 0.000000 
#    z 0.000000 0.000000 3.449930 
# 
# 
# High freq. dielectric constant tensor:
#      x y z
#    x 1.631760 0.000000 0.000000 
#    y 0.000000 1.628070 0.000000 
#    z 0.000000 0.000000 1.622490 
# 
# From -- ./inp_files/66247.got.cif
#   From: 2010.03.12/outbox.cif.g09.slc.cpg/sg65_34_cif.got.tgz:66247.got - 2010.04.10 20:52:16.
