data_PCOD8267346
_publ_section_title
;
Structure prediction by ZEFSAII (Michael W. Deem and Ramdas Pophale) SiO2 
 PCOD8267346
Probable space group: C M M M
;
_chemical_formula_sum "Si O2"
_cell_formula_units_Z 88
_cell_length_a 25.101492
_cell_length_b 13.823092
_cell_length_c 13.833584
_cell_angle_alpha 90.000000
_cell_angle_beta 90.000000
_cell_angle_gamma 90.000000
_cell_volume 4799.980203
_symmetry_space_group_name_H-M "C M M M"
_symmetry_group_IT_number 65
_symmetry_cell_setting 'orthorhombic'
loop_
_space_group_symop_operation_xyz
x,y,z
-x,-y,z
x,-y,-z
-x,y,-z
-x,-y,-z
x,y,-z
-x,y,z
x,-y,z
1/2+x,1/2+y,z
1/2-x,1/2-y,z
1/2+x,1/2-y,-z
1/2-x,1/2+y,-z
1/2-x,1/2-y,-z
1/2+x,1/2+y,-z
1/2-x,1/2+y,z
1/2+x,1/2-y,z
loop_
_atom_site_type_symbol
_atom_site_label
_atom_site_fract_x
_atom_site_fract_y
_atom_site_fract_z
Si Si1 0.764214 0.393782 0.894112
Si Si2 0.106377 0.613775 0.290423
Si Si3 0.369338 0.218823 0.890065
Si Si4 0.000000 0.615010 0.607968
Si Si5 0.813397 0.753927 0.387834
Si Si6 0.338920 0.390790 0.226391
O O1 0.792335 0.500000 0.886128
O O2 0.806923 0.308564 0.883794
O O3 0.721190 0.385927 0.811019
O O4 0.736505 0.384631 0.000000
O O5 0.112675 0.500000 0.302625
O O6 0.099781 0.642231 0.177392
O O7 0.159120 0.660429 0.338501
O O8 0.053174 0.654117 0.341008
O O9 0.375896 0.326243 0.844863
O O10 0.391089 0.214650 0.000000
O O11 0.000000 0.500000 0.610066
O O12 0.000000 0.656045 0.500000
O O13 0.829143 0.759111 0.500000
O O14 0.750000 0.750000 0.374422
O O15 0.837662 0.848457 0.334939
O O16 0.361405 0.500000 0.227734
#
# Coordination Sequence:
#
# PCOD8267346 Si02
#       6
#    16  16  16   8  16  16
#     4   9  16  26  42  64  91 127 169 208 248 299
#     4  10  20  35  55  79 107 138 172 210 253 305
#     4  10  19  30  45  68  99 132 166 206 253 306
#     4   9  18  34  57  81 102 131 175 219 255 297
#     4  10  21  34  48  71 103 137 172 212 264 322
#     4  10  19  30  44  63  91 130 175 218 254 294
#
# _framework density 18.333407999999999
#
# number of rings (size 3 to 8) (size 9 to 14) (size 15 to 20)
#    0.000    2.273    0.000    4.364    0.000    7.273 
#    0.000    2.273    0.000    1.636    0.000   10.182 
#    0.000   23.273    0.000    0.000    0.000    0.000 
#
# Total GULP energy -545388.216879 kJ/mol
# GULP energy per Si atom -12395.186747 kJ/mol
# Density = 1.829168 g / cm^3
# Si number density = 18.333408 Si / 1000 Ang^3
#
#
#
# Elastic Constant Matrix: (Units=GPa)
#
#
# Indices 1 2 3 4 5 6 
#
# 1 64.3536 18.0086 35.0233 0.0000 0.0000 0.0000
# 2 18.0086 110.6200 43.7138 0.0000 0.0000 0.0000
# 3 35.0233 43.7138 157.0471 0.0000 0.0000 0.0000
# 4 0.0000 0.0000 0.0000 20.2198 0.0000 0.0000
# 5 0.0000 0.0000 0.0000 0.0000 21.0812 0.0000
# 6 0.0000 0.0000 0.0000 0.0000 0.0000 14.3277
#
#
#
# Elastic Compliance Matrix: (Units=1/GPa)
#
#
# Indices 1 2 3 4 5 6 
#
# 1 0.017905 -0.001502 -0.003575 0.000000 0.000000 0.000000
# 2 -0.001502 0.010283 -0.002527 0.000000 0.000000 0.000000
# 3 -0.003575 -0.002527 0.007868 0.000000 0.000000 0.000000
# 4 0.000000 0.000000 0.000000 0.049457 0.000000 0.000000
# 5 0.000000 0.000000 0.000000 0.000000 0.047436 0.000000
# 6 0.000000 0.000000 0.000000 0.000000 0.000000 0.069795
#
#
# Mechanical properties :
#
#
# Convention : Reuss Voigt Hill
#
# Bulk Modulus (GPa) = 47.96685 58.39024 53.17854
# Shear Modulus (GPa) = 22.23194 26.81073 24.52134
#
# Velocity S-wave (km/s) = 3.48609 3.82828 3.66118
# Velocity P-wave (km/s) = 6.51338 7.17351 6.85140
#
# Compressibility (1/GPa) = 0.02084773
#
# Stress axis : x y z
#
# Youngs Moduli (GPa) = 55.85003 97.24569 127.09323
#
# Poissons Ratio (x) = 0.14608 0.45435
# Poissons Ratio (y) = 0.08390 0.32121
# Poissons Ratio (z) = 0.19966 0.24577
#
# Static dielectric constant tensor:
#      x y z
#    x 2.983870 0.000000 0.000000 
#    y 0.000000 3.511060 0.000000 
#    z 0.000000 0.000000 3.701280 
# 
# 
# High freq. dielectric constant tensor:
#      x y z
#    x 1.652730 0.000000 0.000000 
#    y 0.000000 1.709720 0.000000 
#    z 0.000000 0.000000 1.728570 
# 
# From -- ./inp_files/45598.got.cif
#   From: 2010.03.12/outbox.cif.g09.slc.cpg/sg65_23_cif.got.tgz:45598.got - 2010.04.10 20:52:16.
