data_PCOD8267372
_publ_section_title
;
Structure prediction by ZEFSAII (Michael W. Deem and Ramdas Pophale) SiO2 
 PCOD8267372
Probable space group: C M M M
;
_chemical_formula_sum "Si O2"
_cell_formula_units_Z 104
_cell_length_a 27.712051
_cell_length_b 24.536870
_cell_length_c 9.221265
_cell_angle_alpha 90.000000
_cell_angle_beta 90.000000
_cell_angle_gamma 90.000000
_cell_volume 6270.155832
_symmetry_space_group_name_H-M "C M M M"
_symmetry_group_IT_number 65
_symmetry_cell_setting 'orthorhombic'
loop_
_space_group_symop_operation_xyz
x,y,z
-x,-y,z
x,-y,-z
-x,y,-z
-x,-y,-z
x,y,-z
-x,y,z
x,-y,z
1/2+x,1/2+y,z
1/2-x,1/2-y,z
1/2+x,1/2-y,-z
1/2-x,1/2+y,-z
1/2-x,1/2-y,-z
1/2+x,1/2+y,-z
1/2-x,1/2+y,z
1/2+x,1/2-y,z
loop_
_atom_site_type_symbol
_atom_site_label
_atom_site_fract_x
_atom_site_fract_y
_atom_site_fract_z
Si Si1 0.678787 0.347688 0.169154
Si Si2 0.104144 0.061268 0.826571
Si Si3 0.306939 0.757708 0.663800
Si Si4 0.500000 0.564391 0.158026
Si Si5 0.946860 0.435188 0.837575
Si Si6 0.209485 0.362661 0.169009
Si Si7 0.643201 0.935459 0.662532
O O1 0.644538 0.396250 0.227505
O O2 0.666767 0.293079 0.258569
O O3 0.733620 0.365155 0.198241
O O4 0.669986 0.335549 0.000000
O O5 0.051025 0.079826 0.763707
O O6 0.117392 0.000000 0.771903
O O7 0.101571 0.060876 0.000000
O O8 0.326773 0.763075 0.500000
O O9 0.250000 0.750000 0.664073
O O10 0.317632 0.812166 0.754286
O O11 0.500000 0.500000 0.137786
O O12 0.500000 0.592735 0.000000
O O13 0.945633 0.500000 0.837013
O O14 0.906798 0.411871 0.728134
O O15 0.000000 0.414906 0.787830
O O16 0.935668 0.413991 0.000000
O O17 0.187858 0.417218 0.238309
O O18 0.197820 0.359519 0.000000
O O19 0.648938 0.912475 0.500000
O O20 0.642858 0.000000 0.662925
#
# Coordination Sequence:
#
# PCOD8267372 Si02
#       7
#    16  16  16   8  16  16  16
#     4   9  17  28  44  67  91 115 148 189 228 268
#     4   8  13  22  38  63  94 123 150 182 221 264
#     4   9  17  30  47  64  84 111 145 185 226 269
#     4   7  10  18  34  58  89 121 149 179 216 257
#     4   8  14  26  44  64  85 110 143 182 218 253
#     4  10  19  30  45  64  88 118 151 188 229 270
#     4  10  20  31  43  63  92 123 152 181 219 270
#
# _framework density 16.586510000000001
#
# number of rings (size 3 to 8) (size 9 to 14) (size 15 to 20)
#    0.000    3.154    0.000    2.769    0.000    4.308 
#    0.000    3.077    0.000    0.462    2.000    0.538 
#    0.000    1.846    0.000    0.000    0.000    0.000 
#
# Total GULP energy -644369.804489 kJ/mol
# GULP energy per Si atom -12391.727009 kJ/mol
# Density = 1.654876 g / cm^3
# Si number density = 16.586510 Si / 1000 Ang^3
#
#
#
# Elastic Constant Matrix: (Units=GPa)
#
#
# Indices 1 2 3 4 5 6 
#
# 1 90.8623 47.0311 45.2280 0.0000 0.0000 0.0000
# 2 47.0311 62.5935 30.9337 0.0000 0.0000 0.0000
# 3 45.2280 30.9337 83.2446 0.0000 0.0000 0.0000
# 4 0.0000 0.0000 0.0000 21.3053 0.0000 0.0000
# 5 0.0000 0.0000 0.0000 0.0000 15.7634 0.0000
# 6 0.0000 0.0000 0.0000 0.0000 0.0000 9.5617
#
#
#
# Elastic Compliance Matrix: (Units=1/GPa)
#
#
# Indices 1 2 3 4 5 6 
#
# 1 0.020656 -0.012218 -0.006683 0.000000 0.000000 0.000000
# 2 -0.012218 0.026797 -0.003320 0.000000 0.000000 0.000000
# 3 -0.006683 -0.003320 0.016877 0.000000 0.000000 0.000000
# 4 0.000000 0.000000 0.000000 0.046937 0.000000 0.000000
# 5 0.000000 0.000000 0.000000 0.000000 0.063438 0.000000
# 6 0.000000 0.000000 0.000000 0.000000 0.000000 0.104584
#
#
# Mechanical properties :
#
#
# Convention : Reuss Voigt Hill
#
# Bulk Modulus (GPa) = 50.27666 53.67623 51.97644
# Shear Modulus (GPa) = 15.13506 16.89326 16.01416
#
# Velocity S-wave (km/s) = 3.02403 3.19485 3.11061
# Velocity P-wave (km/s) = 6.52461 6.78535 6.65626
#
# Compressibility (1/GPa) = 0.01988994
#
# Stress axis : x y z
#
# Youngs Moduli (GPa) = 48.41181 37.31786 59.25199
#
# Poissons Ratio (x) = 0.45595 0.39596
# Poissons Ratio (y) = 0.59149 0.19669
# Poissons Ratio (z) = 0.32352 0.12388
#
# Static dielectric constant tensor:
#      x y z
#    x 3.294890 0.000000 0.000000 
#    y 0.000000 2.958470 0.000000 
#    z 0.000000 0.000000 3.082280 
# 
# 
# High freq. dielectric constant tensor:
#      x y z
#    x 1.629590 0.000000 0.000000 
#    y 0.000000 1.610220 0.000000 
#    z 0.000000 0.000000 1.622230 
# 
# From -- ./inp_files/16770.got.cif
#   From: 2010.03.12/outbox.cif.g09.slc.cpg/sg65_9_cif.got.tgz:16770.got - 2010.04.10 20:52:16.
