data_PCOD8267312
_publ_section_title
;
Structure prediction by ZEFSAII (Michael W. Deem and Ramdas Pophale) SiO2 
 PCOD8267312
Probable space group: C M M M
;
_chemical_formula_sum "Si O2"
_cell_formula_units_Z 64
_cell_length_a 34.024453
_cell_length_b 9.522150
_cell_length_c 12.706124
_cell_angle_alpha 90.000000
_cell_angle_beta 90.000000
_cell_angle_gamma 90.000000
_cell_volume 4116.605593
_symmetry_space_group_name_H-M "C M M M"
_symmetry_group_IT_number 65
_symmetry_cell_setting 'orthorhombic'
loop_
_space_group_symop_operation_xyz
x,y,z
-x,-y,z
x,-y,-z
-x,y,-z
-x,-y,-z
x,y,-z
-x,y,z
x,-y,z
1/2+x,1/2+y,z
1/2-x,1/2-y,z
1/2+x,1/2-y,-z
1/2-x,1/2+y,-z
1/2-x,1/2-y,-z
1/2+x,1/2+y,-z
1/2-x,1/2+y,z
1/2+x,1/2-y,z
loop_
_atom_site_type_symbol
_atom_site_label
_atom_site_fract_x
_atom_site_fract_y
_atom_site_fract_z
Si Si1 0.084957 0.333117 0.878613
Si Si2 0.712634 0.338257 0.619524
Si Si3 0.655919 0.337201 0.804704
Si Si4 0.710132 0.664032 0.000000
Si Si5 0.000000 0.653578 0.124556
O O1 0.087337 0.500000 0.861001
O O2 0.116676 0.255083 0.807280
O O3 0.041500 0.273523 0.843874
O O4 0.093288 0.295421 0.000000
O O5 0.700732 0.300035 0.500000
O O6 0.724780 0.500000 0.630932
O O7 0.750000 0.250000 0.657493
O O8 0.675796 0.302913 0.693084
O O9 0.644273 0.500000 0.815556
O O10 0.685449 0.293202 0.897402
O O11 0.750000 0.750000 0.000000
O O12 0.720728 0.500000 0.000000
O O13 0.000000 0.500000 0.177087
O O14 0.000000 0.634905 0.000000
#
# Coordination Sequence:
#
# PCOD8267312 Si02
#       5
#    16  16  16   8   8
#     4   9  16  27  44  65  88 116 146 174 206 253
#     4   9  18  32  48  64  83 111 147 185 221 253
#     4  10  19  30  43  62  90 116 139 175 218 256
#     4  10  20  30  40  57  84 115 141 168 207 252
#     4   7  12  24  41  61  86 113 142 174 207 244
#
# _framework density 15.546789
#
# number of rings (size 3 to 8) (size 9 to 14) (size 15 to 20)
#    0.000    2.875    1.250    2.250    0.000    2.000 
#    0.000    0.625    0.000    2.250    0.000    0.875 
#    0.000    7.000    0.000    0.000    0.000    0.000 
#
# Total GULP energy -396609.704483 kJ/mol
# GULP energy per Si atom -12394.053265 kJ/mol
# Density = 1.551140 g / cm^3
# Si number density = 15.546789 Si / 1000 Ang^3
#
#
#
# Elastic Constant Matrix: (Units=GPa)
#
#
# Indices 1 2 3 4 5 6 
#
# 1 153.3006 59.3304 51.0851 0.0000 0.0000 0.0000
# 2 59.3304 44.3611 27.8424 0.0000 0.0000 0.0000
# 3 51.0851 27.8424 63.0295 0.0000 0.0000 0.0000
# 4 0.0000 0.0000 0.0000 14.6576 0.0000 0.0000
# 5 0.0000 0.0000 0.0000 0.0000 18.0883 0.0000
# 6 0.0000 0.0000 0.0000 0.0000 0.0000 24.8553
#
#
#
# Elastic Compliance Matrix: (Units=1/GPa)
#
#
# Indices 1 2 3 4 5 6 
#
# 1 0.014339 -0.016442 -0.004359 0.000000 0.000000 0.000000
# 2 -0.016442 0.050043 -0.008780 0.000000 0.000000 0.000000
# 3 -0.004359 -0.008780 0.023277 0.000000 0.000000 0.000000
# 4 0.000000 0.000000 0.000000 0.068224 0.000000 0.000000
# 5 0.000000 0.000000 0.000000 0.000000 0.055284 0.000000
# 6 0.000000 0.000000 0.000000 0.000000 0.000000 0.040233
#
#
# Mechanical properties :
#
#
# Convention : Reuss Voigt Hill
#
# Bulk Modulus (GPa) = 35.09034 59.68968 47.39001
# Shear Modulus (GPa) = 15.62212 19.68246 17.65229
#
# Velocity S-wave (km/s) = 3.17337 3.56197 3.37327
# Velocity P-wave (km/s) = 6.00390 7.44270 6.76168
#
# Compressibility (1/GPa) = 0.02849787
#
# Stress axis : x y z
#
# Youngs Moduli (GPa) = 69.74029 19.98291 42.96174
#
# Poissons Ratio (x) = 0.32856 0.18725
# Poissons Ratio (y) = 1.14666 0.37719
# Poissons Ratio (z) = 0.30397 0.17544
#
# Static dielectric constant tensor:
#      x y z
#    x 3.121610 0.000000 0.000000 
#    y 0.000000 2.823770 0.000000 
#    z 0.000000 0.000000 2.836760 
# 
# 
# High freq. dielectric constant tensor:
#      x y z
#    x 1.601560 0.000000 0.000000 
#    y 0.000000 1.583250 0.000000 
#    z 0.000000 0.000000 1.567420 
# 
# From -- ./inp_files/36871.got.cif
#   From: 2010.03.12/outbox.cif.g09.slc.cpg/sg65_19_cif.got.tgz:36871.got - 2010.04.10 20:52:16.
