data_PCOD8267022
_publ_section_title
;
Structure prediction by ZEFSAII (Michael W. Deem and Ramdas Pophale) SiO2 
 PCOD8267022
Probable space group: C M M M
;
_chemical_formula_sum "Si O2"
_cell_formula_units_Z 88
_cell_length_a 23.059101
_cell_length_b 34.305270
_cell_length_c 8.874154
_cell_angle_alpha 90.000000
_cell_angle_beta 90.000000
_cell_angle_gamma 90.000000
_cell_volume 7019.887859
_symmetry_space_group_name_H-M "C M M M"
_symmetry_group_IT_number 65
_symmetry_cell_setting 'orthorhombic'
loop_
_space_group_symop_operation_xyz
x,y,z
-x,-y,z
x,-y,-z
-x,y,-z
-x,-y,-z
x,y,-z
-x,y,z
x,-y,z
1/2+x,1/2+y,z
1/2-x,1/2-y,z
1/2+x,1/2-y,-z
1/2-x,1/2+y,-z
1/2-x,1/2-y,-z
1/2+x,1/2+y,-z
1/2-x,1/2+y,z
1/2+x,1/2-y,z
loop_
_atom_site_type_symbol
_atom_site_label
_atom_site_fract_x
_atom_site_fract_y
_atom_site_fract_z
Si Si1 0.827132 0.770834 0.673978
Si Si2 0.434173 0.225048 0.674721
Si Si3 0.931098 0.500000 0.169728
Si Si4 0.728996 0.802413 0.826815
Si Si5 0.566278 0.078209 0.322937
Si Si6 0.378975 0.151106 0.826823
O O1 0.817129 0.780581 0.500000
O O2 0.895459 0.763805 0.709581
O O3 0.796655 0.805803 0.771849
O O4 0.797758 0.729936 0.717421
O O5 0.426635 0.212779 0.500000
O O6 0.500000 0.236368 0.712986
O O7 0.415646 0.188550 0.776012
O O8 0.907831 0.461222 0.251164
O O9 0.000000 0.500000 0.177782
O O10 0.907686 0.500000 0.000000
O O11 0.690436 0.841356 0.806876
O O12 0.726796 0.788663 0.000000
O O13 0.569930 0.073508 0.500000
O O14 0.500000 0.085671 0.270540
O O15 0.605628 0.113988 0.272253
O O16 0.394546 0.142542 0.000000
#
# Coordination Sequence:
#
# PCOD8267022 Si02
#       6
#    16  16   8  16  16  16
#     4   9  15  23  36  49  61  81 108 134 161 198
#     4   9  17  27  36  48  67  88 109 136 171 206
#     4   9  17  29  43  55  67  85 109 135 162 197
#     4   9  16  25  35  47  64  83 104 133 167 198
#     4  10  19  29  40  53  69  88 109 135 168 203
#     4  10  19  27  36  51  68  86 109 138 171 204
#
# _framework density 12.535812999999999
#
# number of rings (size 3 to 8) (size 9 to 14) (size 15 to 20)
#    0.000    2.636    0.000    4.091    0.000    7.636 
#    0.000    0.000    0.000    0.000    0.000    0.000 
#    0.000    0.000    0.000    0.000    0.000    0.000 
#
# Total GULP energy -545171.968408 kJ/mol
# GULP energy per Si atom -12390.272009 kJ/mol
# Density = 1.250728 g / cm^3
# Si number density = 12.535813 Si / 1000 Ang^3
#
#
#
# Elastic Constant Matrix: (Units=GPa)
#
#
# Indices 1 2 3 4 5 6 
#
# 1 70.2154 38.0231 25.8539 0.0000 0.0000 0.0000
# 2 38.0231 52.6632 24.9446 0.0000 0.0000 0.0000
# 3 25.8539 24.9446 51.1095 0.0000 0.0000 0.0000
# 4 0.0000 0.0000 0.0000 19.2560 0.0000 0.0000
# 5 0.0000 0.0000 0.0000 0.0000 16.0562 0.0000
# 6 0.0000 0.0000 0.0000 0.0000 0.0000 13.1514
#
#
#
# Elastic Compliance Matrix: (Units=1/GPa)
#
#
# Indices 1 2 3 4 5 6 
#
# 1 0.024274 -0.015231 -0.004845 0.000000 0.000000 0.000000
# 2 -0.015231 0.034255 -0.009014 0.000000 0.000000 0.000000
# 3 -0.004845 -0.009014 0.026416 0.000000 0.000000 0.000000
# 4 0.000000 0.000000 0.000000 0.051932 0.000000 0.000000
# 5 0.000000 0.000000 0.000000 0.000000 0.062281 0.000000
# 6 0.000000 0.000000 0.000000 0.000000 0.000000 0.076038
#
#
# Mechanical properties :
#
#
# Convention : Reuss Voigt Hill
#
# Bulk Modulus (GPa) = 37.36269 39.07014 38.21642
# Shear Modulus (GPa) = 14.60717 15.37047 14.98882
#
# Velocity S-wave (km/s) = 3.41726 3.50540 3.46161
# Velocity P-wave (km/s) = 6.74090 6.90060 6.82122
#
# Compressibility (1/GPa) = 0.02676467
#
# Stress axis : x y z
#
# Youngs Moduli (GPa) = 41.19672 29.19297 37.85545
#
# Poissons Ratio (x) = 0.44463 0.18343
# Poissons Ratio (y) = 0.62745 0.34123
# Poissons Ratio (z) = 0.19962 0.26314
#
# Static dielectric constant tensor:
#      x y z
#    x 2.948860 0.000000 0.000000 
#    y 0.000000 2.390340 0.000000 
#    z 0.000000 0.000000 2.679100 
# 
# 
# High freq. dielectric constant tensor:
#      x y z
#    x 1.457260 0.000000 0.000000 
#    y 0.000000 1.431490 0.000000 
#    z 0.000000 0.000000 1.495260 
# 
# From -- ./inp_files/14942.got.cif
#   From: 2010.03.12/outbox.cif.g09.slc.cpg/sg65_8_cif.got.tgz:14942.got - 2010.04.10 20:52:16.
