data_PCOD8267466
_publ_section_title
;
Structure prediction by ZEFSAII (Michael W. Deem and Ramdas Pophale) SiO2 
 PCOD8267466
Probable space group: C M M M
;
_chemical_formula_sum "Si O2"
_cell_formula_units_Z 120
_cell_length_a 15.744310
_cell_length_b 23.406997
_cell_length_c 19.167560
_cell_angle_alpha 90.000000
_cell_angle_beta 90.000000
_cell_angle_gamma 90.000000
_cell_volume 7063.763709
_symmetry_space_group_name_H-M "C M M M"
_symmetry_group_IT_number 65
_symmetry_cell_setting 'orthorhombic'
loop_
_space_group_symop_operation_xyz
x,y,z
-x,-y,z
x,-y,-z
-x,y,-z
-x,-y,-z
x,y,-z
-x,y,z
x,-y,z
1/2+x,1/2+y,z
1/2-x,1/2-y,z
1/2+x,1/2-y,-z
1/2-x,1/2+y,-z
1/2-x,1/2-y,-z
1/2+x,1/2+y,-z
1/2-x,1/2+y,z
1/2+x,1/2-y,z
loop_
_atom_site_type_symbol
_atom_site_label
_atom_site_fract_x
_atom_site_fract_y
_atom_site_fract_z
Si Si1 0.161239 0.370930 0.580713
Si Si2 0.664507 0.567316 0.419546
Si Si3 0.741736 0.182076 0.922019
Si Si4 0.599314 0.224127 0.669012
Si Si5 0.595890 0.663747 0.843708
Si Si6 0.097098 0.151084 0.308724
Si Si7 0.000000 0.437175 0.583269
Si Si8 0.906461 0.701284 0.174950
O O1 0.150395 0.358910 0.500000
O O2 0.242486 0.409403 0.596428
O O3 0.161693 0.309518 0.617006
O O4 0.082425 0.405570 0.612144
O O5 0.637375 0.579791 0.500000
O O6 0.660094 0.500000 0.404522
O O7 0.604839 0.600194 0.364859
O O8 0.750000 0.250000 0.921023
O O9 0.829476 0.149964 0.899282
O O10 0.663583 0.166955 0.870303
O O11 0.720213 0.160673 0.000000
O O12 0.500000 0.221397 0.645797
O O13 0.637155 0.288825 0.665853
O O14 0.612615 0.193656 0.743430
O O15 0.500000 0.642175 0.865708
O O16 0.627183 0.635379 0.769960
O O17 0.593625 0.731510 0.838232
O O18 0.000000 0.166999 0.298038
O O19 0.000000 0.500000 0.615560
O O20 0.000000 0.439803 0.500000
O O21 0.000000 0.676756 0.155863
#
# Coordination Sequence:
#
# PCOD8267466 Si02
#       8
#    16  16  16  16  16  16   8  16
#     4  10  19  30  46  68  93 121 153 195 240 283
#     4  10  22  37  49  66  92 121 160 205 244 286
#     4   9  16  24  38  62  88 121 161 188 217 268
#     4   9  17  30  47  70  96 122 158 195 235 286
#     4   8  15  28  42  60  87 117 152 192 232 274
#     4   9  19  34  51  68  89 123 160 195 240 290
#     4   9  16  28  46  64  86 122 156 182 228 284
#     4   8  15  26  39  58  90 126 154 185 222 269
#
# _framework density 16.988111
#
# number of rings (size 3 to 8) (size 9 to 14) (size 15 to 20)
#    0.000    3.000    0.667    2.000    1.867    3.733 
#    0.000    6.000    0.000    0.000    0.000    0.000 
#    0.000    0.533    0.000    2.933    0.000    7.733 
#
# Total GULP energy -743360.219537 kJ/mol
# GULP energy per Si atom -12389.336992 kJ/mol
# Density = 1.694945 g / cm^3
# Si number density = 16.988111 Si / 1000 Ang^3
#
#
#
# Elastic Constant Matrix: (Units=GPa)
#
#
# Indices 1 2 3 4 5 6 
#
# 1 63.9589 13.8688 30.9989 0.0000 0.0000 0.0000
# 2 13.8688 56.2197 31.3746 0.0000 0.0000 0.0000
# 3 30.9989 31.3746 67.1929 0.0000 0.0000 0.0000
# 4 0.0000 0.0000 0.0000 7.1234 0.0000 0.0000
# 5 0.0000 0.0000 0.0000 0.0000 25.1764 0.0000
# 6 0.0000 0.0000 0.0000 0.0000 0.0000 15.4532
#
#
#
# Elastic Compliance Matrix: (Units=1/GPa)
#
#
# Indices 1 2 3 4 5 6 
#
# 1 0.020141 0.000293 -0.009429 0.000000 0.000000 0.000000
# 2 0.000293 0.024060 -0.011370 0.000000 0.000000 0.000000
# 3 -0.009429 -0.011370 0.024542 0.000000 0.000000 0.000000
# 4 0.000000 0.000000 0.000000 0.140382 0.000000 0.000000
# 5 0.000000 0.000000 0.000000 0.000000 0.039720 0.000000
# 6 0.000000 0.000000 0.000000 0.000000 0.000000 0.064711
#
#
# Mechanical properties :
#
#
# Convention : Reuss Voigt Hill
#
# Bulk Modulus (GPa) = 36.05934 37.76179 36.91056
# Shear Modulus (GPa) = 13.74339 16.95922 15.35130
#
# Velocity S-wave (km/s) = 2.84738 3.16302 3.00934
# Velocity P-wave (km/s) = 5.66413 5.96793 5.81801
#
# Compressibility (1/GPa) = 0.02773207
#
# Stress axis : x y z
#
# Youngs Moduli (GPa) = 49.64895 41.56241 40.74721
#
# Poissons Ratio (x) = -0.01220 0.38421
# Poissons Ratio (y) = -0.01457 0.46329
# Poissons Ratio (z) = 0.46814 0.47256
#
# Static dielectric constant tensor:
#      x y z
#    x 3.406320 0.000000 0.000000 
#    y 0.000000 2.829660 0.000000 
#    z 0.000000 0.000000 3.214550 
# 
# 
# High freq. dielectric constant tensor:
#      x y z
#    x 1.662930 0.000000 0.000000 
#    y 0.000000 1.597760 0.000000 
#    z 0.000000 0.000000 1.643170 
# 
# From -- ./inp_files/63049.got.cif
#   From: 2010.03.12/outbox.cif.g09.slc.cpg/sg65_32_cif.got.tgz:63049.got - 2010.04.10 20:52:16.
