data_PCOD8267084
_publ_section_title
;
Structure prediction by ZEFSAII (Michael W. Deem and Ramdas Pophale) SiO2 
 PCOD8267084
Probable space group: C M M M
;
_chemical_formula_sum "Si O2"
_cell_formula_units_Z 96
_cell_length_a 28.766056
_cell_length_b 7.988431
_cell_length_c 25.212482
_cell_angle_alpha 90.000000
_cell_angle_beta 90.000000
_cell_angle_gamma 90.000000
_cell_volume 5793.718777
_symmetry_space_group_name_H-M "C M M M"
_symmetry_group_IT_number 65
_symmetry_cell_setting 'orthorhombic'
loop_
_space_group_symop_operation_xyz
x,y,z
-x,-y,z
x,-y,-z
-x,y,-z
-x,-y,-z
x,y,-z
-x,y,z
x,-y,z
1/2+x,1/2+y,z
1/2-x,1/2-y,z
1/2+x,1/2-y,-z
1/2-x,1/2+y,-z
1/2-x,1/2-y,-z
1/2+x,1/2+y,-z
1/2-x,1/2+y,z
1/2+x,1/2-y,z
loop_
_atom_site_type_symbol
_atom_site_label
_atom_site_fract_x
_atom_site_fract_y
_atom_site_fract_z
Si Si1 0.552744 0.800874 0.558212
Si Si2 0.697575 0.696644 0.500000
Si Si3 0.106906 0.305387 0.341585
Si Si4 0.197412 0.197466 0.385502
Si Si5 0.555508 0.000000 0.060104
Si Si6 0.446551 0.802678 0.240079
Si Si7 0.444810 0.314299 0.126401
O O1 0.571074 0.739249 0.500000
O O2 0.500000 0.738926 0.566370
O O3 0.583782 0.723287 0.605652
O O4 0.554448 0.000000 0.559789
O O5 0.692629 0.500000 0.500000
O O6 0.750000 0.750000 0.500000
O O7 0.678636 0.766392 0.443457
O O8 0.095619 0.500000 0.341054
O O9 0.162315 0.272185 0.341876
O O10 0.084281 0.229354 0.288391
O O11 0.250000 0.250000 0.372418
O O12 0.195106 0.000000 0.383943
O O13 0.575342 0.831898 0.088415
O O14 0.500000 0.000000 0.062250
O O15 0.573802 0.000000 0.000000
O O16 0.500000 0.757408 0.252136
O O17 0.428290 0.714694 0.186691
O O18 0.440408 0.000000 0.232163
O O19 0.500000 0.303271 0.124666
O O20 0.428085 0.500000 0.107738
#
# Coordination Sequence:
#
# PCOD8267084 Si02
#       7
#    16   8  16  16   8  16  16
#     4   8  14  25  40  60  86 111 137 173 217 265
#     4   8  16  30  46  60  73  96 125 159 210 265
#     4  10  19  28  44  68  86 107 142 180 220 272
#     4  10  20  34  48  62  82 105 133 174 221 276
#     4   9  16  26  40  60  88 120 155 193 231 269
#     4   9  16  28  44  61  87 119 152 191 227 263
#     4   9  16  26  41  60  84 117 155 195 234 266
#
# _framework density 16.569669000000001
#
# number of rings (size 3 to 8) (size 9 to 14) (size 15 to 20)
#    0.000    2.917    0.833    1.500    1.167    3.667 
#    0.000    1.667    0.000    1.500    0.000    1.167 
#    0.000    0.000    0.000    0.000    0.000    0.833 
#
# Total GULP energy -594682.549194 kJ/mol
# GULP energy per Si atom -12389.219775 kJ/mol
# Density = 1.653196 g / cm^3
# Si number density = 16.569669 Si / 1000 Ang^3
#
#
#
# Elastic Constant Matrix: (Units=GPa)
#
#
# Indices 1 2 3 4 5 6 
#
# 1 49.4529 12.8064 42.3004 0.0000 0.0000 0.0000
# 2 12.8064 59.3265 46.2911 0.0000 0.0000 0.0000
# 3 42.3004 46.2911 125.3061 0.0000 0.0000 0.0000
# 4 0.0000 0.0000 0.0000 12.4779 0.0000 0.0000
# 5 0.0000 0.0000 0.0000 0.0000 11.9267 0.0000
# 6 0.0000 0.0000 0.0000 0.0000 0.0000 11.9774
#
#
#
# Elastic Compliance Matrix: (Units=1/GPa)
#
#
# Indices 1 2 3 4 5 6 
#
# 1 0.028584 0.001909 -0.010354 0.000000 0.000000 0.000000
# 2 0.001909 0.023810 -0.009440 0.000000 0.000000 0.000000
# 3 -0.010354 -0.009440 0.014963 0.000000 0.000000 0.000000
# 4 0.000000 0.000000 0.000000 0.080142 0.000000 0.000000
# 5 0.000000 0.000000 0.000000 0.000000 0.083845 0.000000
# 6 0.000000 0.000000 0.000000 0.000000 0.000000 0.083490
#
#
# Mechanical properties :
#
#
# Convention : Reuss Voigt Hill
#
# Bulk Modulus (GPa) = 31.66005 48.54236 40.10120
# Shear Modulus (GPa) = 13.84525 16.12225 14.98375
#
# Velocity S-wave (km/s) = 2.89377 3.12267 3.01040
# Velocity P-wave (km/s) = 5.50581 6.50853 6.02806
#
# Compressibility (1/GPa) = 0.03158555
#
# Stress axis : x y z
#
# Youngs Moduli (GPa) = 34.98492 41.99933 66.82970
#
# Poissons Ratio (x) = -0.08018 0.69199
# Poissons Ratio (y) = -0.06679 0.63090
# Poissons Ratio (z) = 0.36225 0.39649
#
# Static dielectric constant tensor:
#      x y z
#    x 1.645110 0.000000 0.000000 
#    y 0.000000 3.068610 0.000000 
#    z 0.000000 0.000000 3.329710 
# 
# 
# High freq. dielectric constant tensor:
#      x y z
#    x 1.587440 0.000000 0.000000 
#    y 0.000000 1.631880 0.000000 
#    z 0.000000 0.000000 1.622080 
# 
# From -- ./inp_files/71742.got.cif
#   From: 2010.03.12/outbox.cif.g09.slc.cpg/sg65_36_cif.got.tgz:71742.got - 2010.04.10 20:52:16.
