data_PCOD8267629
_publ_section_title
;
Structure prediction by ZEFSAII (Michael W. Deem and Ramdas Pophale) SiO2 
 PCOD8267629
Probable space group: C M M M
;
_chemical_formula_sum "Si O2"
_cell_formula_units_Z 80
_cell_length_a 20.471653
_cell_length_b 24.721618
_cell_length_c 9.083017
_cell_angle_alpha 90.000000
_cell_angle_beta 90.000000
_cell_angle_gamma 90.000000
_cell_volume 4596.845739
_symmetry_space_group_name_H-M "C M M M"
_symmetry_group_IT_number 65
_symmetry_cell_setting 'orthorhombic'
loop_
_space_group_symop_operation_xyz
x,y,z
-x,-y,z
x,-y,-z
-x,y,-z
-x,-y,-z
x,y,-z
-x,y,z
x,-y,z
1/2+x,1/2+y,z
1/2-x,1/2-y,z
1/2+x,1/2-y,-z
1/2-x,1/2+y,-z
1/2-x,1/2-y,-z
1/2+x,1/2+y,-z
1/2-x,1/2+y,z
1/2+x,1/2-y,z
loop_
_atom_site_type_symbol
_atom_site_label
_atom_site_fract_x
_atom_site_fract_y
_atom_site_fract_z
Si Si1 0.426318 0.791317 0.167290
Si Si2 0.121550 0.606263 0.328440
Si Si3 0.273648 0.607145 0.672352
Si Si4 0.775285 0.000000 0.166787
Si Si5 0.810888 0.786881 0.828087
Si Si6 0.880116 0.500000 0.165998
O O1 0.500000 0.769210 0.182495
O O2 0.418182 0.842348 0.272759
O O3 0.377681 0.743490 0.213454
O O4 0.410744 0.809617 0.000000
O O5 0.109356 0.598309 0.500000
O O6 0.197468 0.615193 0.291631
O O7 0.093474 0.553234 0.247768
O O8 0.286829 0.601864 0.500000
O O9 0.301325 0.553218 0.749918
O O10 0.312240 0.658163 0.735984
O O11 0.697593 0.000000 0.170931
O O12 0.801756 0.000000 0.000000
O O13 0.750000 0.750000 0.778791
O O14 0.805889 0.801261 0.000000
O O15 0.906915 0.500000 0.000000
#
# Coordination Sequence:
#
# PCOD8267629 Si02
#       6
#    16  16  16   8  16   8
#     4  10  21  36  52  71  98 132 169 209 251 295
#     4  10  19  31  48  71 100 131 166 208 252 295
#     4  10  19  30  48  75 105 133 164 205 251 296
#     4   9  17  29  47  72 103 134 165 202 248 298
#     4  10  19  32  52  75  99 130 170 209 246 294
#     4   9  17  29  48  70  95 130 170 209 248 291
#
# _framework density 17.403237000000001
#
# number of rings (size 3 to 8) (size 9 to 14) (size 15 to 20)
#    0.000    2.200    2.000    1.800    0.000    5.600 
#    0.000    0.500    0.000    3.000    0.000    0.700 
#    0.000    5.600    0.000    0.000    0.000    0.000 
#
# Total GULP energy -496131.488975 kJ/mol
# GULP energy per Si atom -12403.287224 kJ/mol
# Density = 1.736363 g / cm^3
# Si number density = 17.403237 Si / 1000 Ang^3
#
#
#
# Elastic Constant Matrix: (Units=GPa)
#
#
# Indices 1 2 3 4 5 6 
#
# 1 69.4076 48.1867 34.0005 0.0000 0.0000 0.0000
# 2 48.1867 146.0243 67.5961 0.0000 0.0000 0.0000
# 3 34.0005 67.5961 95.5814 0.0000 0.0000 0.0000
# 4 0.0000 0.0000 0.0000 29.5385 0.0000 0.0000
# 5 0.0000 0.0000 0.0000 0.0000 14.6684 0.0000
# 6 0.0000 0.0000 0.0000 0.0000 0.0000 15.5262
#
#
#
# Elastic Compliance Matrix: (Units=1/GPa)
#
#
# Indices 1 2 3 4 5 6 
#
# 1 0.019463 -0.004784 -0.003540 0.000000 0.000000 0.000000
# 2 -0.004784 0.011357 -0.006330 0.000000 0.000000 0.000000
# 3 -0.003540 -0.006330 0.016198 0.000000 0.000000 0.000000
# 4 0.000000 0.000000 0.000000 0.033854 0.000000 0.000000
# 5 0.000000 0.000000 0.000000 0.000000 0.068174 0.000000
# 6 0.000000 0.000000 0.000000 0.000000 0.000000 0.064407
#
#
# Mechanical properties :
#
#
# Convention : Reuss Voigt Hill
#
# Bulk Modulus (GPa) = 56.46501 67.84220 62.15361
# Shear Modulus (GPa) = 20.10732 22.69528 21.40130
#
# Velocity S-wave (km/s) = 3.40277 3.61513 3.51056
# Velocity P-wave (km/s) = 6.92489 7.51616 7.22657
#
# Compressibility (1/GPa) = 0.01771008
#
# Stress axis : x y z
#
# Youngs Moduli (GPa) = 51.37920 88.05091 61.73457
#
# Poissons Ratio (x) = 0.42122 0.21856
# Poissons Ratio (y) = 0.24579 0.39079
# Poissons Ratio (z) = 0.18190 0.55737
#
# Static dielectric constant tensor:
#      x y z
#    x 2.890970 0.000000 0.000000 
#    y 0.000000 3.275730 0.000000 
#    z 0.000000 0.000000 3.270400 
# 
# 
# High freq. dielectric constant tensor:
#      x y z
#    x 1.625370 0.000000 0.000000 
#    y 0.000000 1.677400 0.000000 
#    z 0.000000 0.000000 1.681410 
# 
# From -- ./inp_files/11571.got.cif
#   From: 2010.03.12/outbox.cif.g09.slc.cpg/sg65_6_cif.got.tgz:11571.got - 2010.04.10 20:52:16.
