data_PCOD8267803
_publ_section_title
;
Structure prediction by ZEFSAII (Michael W. Deem and Ramdas Pophale) SiO2 
 PCOD8267803
Probable space group: C M M M
;
_chemical_formula_sum "Si O2"
_cell_formula_units_Z 112
_cell_length_a 9.628210
_cell_length_b 28.130545
_cell_length_c 26.345363
_cell_angle_alpha 90.000000
_cell_angle_beta 90.000000
_cell_angle_gamma 90.000000
_cell_volume 7135.557123
_symmetry_space_group_name_H-M "C M M M"
_symmetry_group_IT_number 65
_symmetry_cell_setting 'orthorhombic'
loop_
_space_group_symop_operation_xyz
x,y,z
-x,-y,z
x,-y,-z
-x,y,-z
-x,-y,-z
x,y,-z
-x,y,z
x,-y,z
1/2+x,1/2+y,z
1/2-x,1/2-y,z
1/2+x,1/2-y,-z
1/2-x,1/2+y,-z
1/2-x,1/2-y,-z
1/2+x,1/2+y,-z
1/2-x,1/2+y,z
1/2+x,1/2-y,z
loop_
_atom_site_type_symbol
_atom_site_label
_atom_site_fract_x
_atom_site_fract_y
_atom_site_fract_z
Si Si1 0.340290 0.446114 0.788992
Si Si2 0.338201 0.797731 0.336388
Si Si3 0.341589 0.203757 0.446358
Si Si4 0.338239 0.862503 0.244086
Si Si5 0.337665 0.797346 0.148341
Si Si6 0.841321 0.363113 0.943070
Si Si7 0.839812 0.053805 0.906453
O O1 0.500000 0.432029 0.780587
O O2 0.313504 0.500000 0.770903
O O3 0.244605 0.411739 0.755947
O O4 0.299807 0.440727 0.847731
O O5 0.500000 0.784801 0.328195
O O6 0.250000 0.750000 0.330071
O O7 0.311923 0.822250 0.392344
O O8 0.289053 0.834936 0.294304
O O9 0.314157 0.174639 0.500000
O O10 0.500000 0.220999 0.445561
O O11 0.250000 0.250000 0.447807
O O12 0.500000 0.874914 0.245593
O O13 0.300384 0.831521 0.194958
O O14 0.500000 0.784059 0.147773
O O15 0.250000 0.750000 0.154702
O O16 0.290531 0.823063 0.096336
O O17 0.752740 0.410992 0.939390
O O18 0.000000 0.376723 0.930654
O O19 0.825561 0.342511 0.000000
O O20 0.000000 0.066899 0.915296
O O21 0.810596 0.000000 0.924604
#
# Coordination Sequence:
#
# PCOD8267803 Si02
#       7
#    16  16  16  16  16  16  16
#     4   9  18  32  50  71  92 114 142 175 214 264
#     4   9  17  27  40  62  91 121 155 189 219 256
#     4   8  13  22  36  54  80 116 153 186 219 253
#     4  10  19  31  47  68  92 117 146 180 219 262
#     4  10  21  35  49  66  87 114 147 181 217 256
#     4  10  21  36  51  68  91 116 145 181 217 258
#     4   9  18  33  52  73  94 114 139 173 214 263
#
# _framework density 15.696040999999999
#
# number of rings (size 3 to 8) (size 9 to 14) (size 15 to 20)
#    0.000    2.714    1.429    1.286    0.000    3.143 
#    0.000    2.857    0.000    0.000    0.000    0.000 
#    0.000    0.571    0.000    7.143    0.000    1.143 
#
# Total GULP energy -693991.362296 kJ/mol
# GULP energy per Si atom -12392.702898 kJ/mol
# Density = 1.566032 g / cm^3
# Si number density = 15.696041 Si / 1000 Ang^3
#
#
#
# Elastic Constant Matrix: (Units=GPa)
#
#
# Indices 1 2 3 4 5 6 
#
# 1 44.8843 37.4805 29.7581 0.0000 0.0000 0.0000
# 2 37.4805 74.5585 43.3269 0.0000 0.0000 0.0000
# 3 29.7581 43.3269 121.1786 0.0000 0.0000 0.0000
# 4 0.0000 0.0000 0.0000 12.4371 0.0000 0.0000
# 5 0.0000 0.0000 0.0000 0.0000 15.4937 0.0000
# 6 0.0000 0.0000 0.0000 0.0000 0.0000 30.4221
#
#
#
# Elastic Compliance Matrix: (Units=1/GPa)
#
#
# Indices 1 2 3 4 5 6 
#
# 1 0.039401 -0.017904 -0.003274 0.000000 0.000000 0.000000
# 2 -0.017904 0.025066 -0.004565 0.000000 0.000000 0.000000
# 3 -0.003274 -0.004565 0.010689 0.000000 0.000000 0.000000
# 4 0.000000 0.000000 0.000000 0.080405 0.000000 0.000000
# 5 0.000000 0.000000 0.000000 0.000000 0.064542 0.000000
# 6 0.000000 0.000000 0.000000 0.000000 0.000000 0.032871
#
#
# Mechanical properties :
#
#
# Convention : Reuss Voigt Hill
#
# Bulk Modulus (GPa) = 42.25132 51.30581 46.77857
# Shear Modulus (GPa) = 16.00766 20.34098 18.17432
#
# Velocity S-wave (km/s) = 3.19698 3.60381 3.40647
# Velocity P-wave (km/s) = 6.37216 7.07634 6.73347
#
# Compressibility (1/GPa) = 0.02366790
#
# Stress axis : x y z
#
# Youngs Moduli (GPa) = 25.37994 39.89513 93.55698
#
# Poissons Ratio (x) = 0.71429 0.30633
# Poissons Ratio (y) = 0.45441 0.42712
# Poissons Ratio (z) = 0.08310 0.18214
#
# Static dielectric constant tensor:
#      x y z
#    x 2.930040 0.000000 0.000000 
#    y 0.000000 2.744200 0.000000 
#    z 0.000000 0.000000 3.417000 
# 
# 
# High freq. dielectric constant tensor:
#      x y z
#    x 1.606480 0.000000 0.000000 
#    y 0.000000 1.568340 0.000000 
#    z 0.000000 0.000000 1.606730 
# 
# From -- ./inp_files/69151.got.cif
#   From: 2010.03.12/outbox.cif.g09.slc.cpg/sg65_35_cif.got.tgz:69151.got - 2010.04.10 20:52:16.
