data_PCOD8267944
_publ_section_title
;
Structure prediction by ZEFSAII (Michael W. Deem and Ramdas Pophale) SiO2 
 PCOD8267944
Probable space group: C M M M
;
_chemical_formula_sum "Si O2"
_cell_formula_units_Z 88
_cell_length_a 25.704263
_cell_length_b 8.826734
_cell_length_c 22.380371
_cell_angle_alpha 90.000000
_cell_angle_beta 90.000000
_cell_angle_gamma 90.000000
_cell_volume 5077.763585
_symmetry_space_group_name_H-M "C M M M"
_symmetry_group_IT_number 65
_symmetry_cell_setting 'orthorhombic'
loop_
_space_group_symop_operation_xyz
x,y,z
-x,-y,z
x,-y,-z
-x,y,-z
-x,-y,-z
x,y,-z
-x,y,z
x,-y,z
1/2+x,1/2+y,z
1/2-x,1/2-y,z
1/2+x,1/2-y,-z
1/2-x,1/2+y,-z
1/2-x,1/2-y,-z
1/2+x,1/2+y,-z
1/2-x,1/2+y,z
1/2+x,1/2-y,z
loop_
_atom_site_type_symbol
_atom_site_label
_atom_site_fract_x
_atom_site_fract_y
_atom_site_fract_z
Si Si1 0.000000 0.172515 0.429362
Si Si2 0.305480 0.678124 0.063988
Si Si3 0.347379 0.675865 0.186509
Si Si4 0.305439 0.318620 0.687288
Si Si5 0.407890 0.824592 0.639664
Si Si6 0.558241 0.168767 0.771450
O O1 0.053721 0.252106 0.409015
O O2 0.000000 0.179116 0.500000
O O3 0.000000 0.000000 0.405632
O O4 0.300072 0.500000 0.072784
O O5 0.250000 0.750000 0.059219
O O6 0.331747 0.750871 0.123046
O O7 0.334710 0.712300 0.000000
O O8 0.337218 0.500000 0.184033
O O9 0.316491 0.740145 0.244547
O O10 0.408153 0.708933 0.193391
O O11 0.303985 0.500000 0.683289
O O12 0.250000 0.250000 0.666755
O O13 0.351454 0.258133 0.643853
O O14 0.438856 0.804463 0.701043
O O15 0.398029 0.000000 0.623565
O O16 0.500000 0.192392 0.793691
O O17 0.578442 0.000000 0.786743
#
# Coordination Sequence:
#
# PCOD8267944 Si02
#       6
#     8  16  16  16  16  16
#     4  11  23  37  55  81 111 139 168 205 244 285
#     4   9  17  29  44  62  87 118 154 196 239 286
#     4   9  18  29  43  67  94 123 160 199 244 295
#     4  10  19  31  48  74 105 136 168 206 253 305
#     4  10  19  34  54  76 103 135 170 208 249 294
#     4   9  17  30  47  69  95 122 154 196 244 289
#
# _framework density 17.330465
#
# number of rings (size 3 to 8) (size 9 to 14) (size 15 to 20)
#    0.000    2.455    0.909    1.909    0.000    3.273 
#    0.000    0.000    0.000    1.091    0.000    3.818 
#    0.000    0.000    0.000    0.000    0.000    0.000 
#
# Total GULP energy -545186.568779 kJ/mol
# GULP energy per Si atom -12390.603836 kJ/mol
# Density = 1.729102 g / cm^3
# Si number density = 17.330465 Si / 1000 Ang^3
#
#
#
# Elastic Constant Matrix: (Units=GPa)
#
#
# Indices 1 2 3 4 5 6 
#
# 1 110.3631 36.7891 41.0489 0.0000 0.0000 0.0000
# 2 36.7891 58.1085 28.1160 0.0000 0.0000 0.0000
# 3 41.0489 28.1160 72.1832 0.0000 0.0000 0.0000
# 4 0.0000 0.0000 0.0000 16.0038 0.0000 0.0000
# 5 0.0000 0.0000 0.0000 0.0000 23.4764 0.0000
# 6 0.0000 0.0000 0.0000 0.0000 0.0000 32.5400
#
#
#
# Elastic Compliance Matrix: (Units=1/GPa)
#
#
# Indices 1 2 3 4 5 6 
#
# 1 0.012846 -0.005666 -0.005098 0.000000 0.000000 0.000000
# 2 -0.005666 0.023705 -0.006011 0.000000 0.000000 0.000000
# 3 -0.005098 -0.006011 0.019094 0.000000 0.000000 0.000000
# 4 0.000000 0.000000 0.000000 0.062485 0.000000 0.000000
# 5 0.000000 0.000000 0.000000 0.000000 0.042596 0.000000
# 6 0.000000 0.000000 0.000000 0.000000 0.000000 0.030731
#
#
# Mechanical properties :
#
#
# Convention : Reuss Voigt Hill
#
# Bulk Modulus (GPa) = 45.26047 50.28474 47.77260
# Shear Modulus (GPa) = 21.51709 23.38410 22.45060
#
# Velocity S-wave (km/s) = 3.52742 3.67728 3.60313
# Velocity P-wave (km/s) = 6.53935 6.86353 6.70340
#
# Compressibility (1/GPa) = 0.02209434
#
# Stress axis : x y z
#
# Youngs Moduli (GPa) = 77.84493 42.18519 52.37184
#
# Poissons Ratio (x) = 0.23903 0.26700
# Poissons Ratio (y) = 0.44108 0.31481
# Poissons Ratio (z) = 0.39687 0.25358
#
# Static dielectric constant tensor:
#      x y z
#    x 3.176430 0.000000 0.000000 
#    y 0.000000 4.022370 0.000000 
#    z 0.000000 0.000000 3.445660 
# 
# 
# High freq. dielectric constant tensor:
#      x y z
#    x 1.661030 0.000000 0.000000 
#    y 0.000000 1.671340 0.000000 
#    z 0.000000 0.000000 1.650390 
# 
# From -- ./inp_files/59803.got.cif
#   From: 2010.03.12/outbox.cif.g09.slc.cpg/sg65_30_cif.got.tgz:59803.got - 2010.04.10 20:52:16.
