data_PCOD8267551
_publ_section_title
;
Structure prediction by ZEFSAII (Michael W. Deem and Ramdas Pophale) SiO2 
 PCOD8267551
Probable space group: C M M M
;
_chemical_formula_sum "Si O2"
_cell_formula_units_Z 72
_cell_length_a 18.862457
_cell_length_b 8.876494
_cell_length_c 23.542190
_cell_angle_alpha 90.000000
_cell_angle_beta 90.000000
_cell_angle_gamma 90.000000
_cell_volume 3941.727407
_symmetry_space_group_name_H-M "C M M M"
_symmetry_group_IT_number 65
_symmetry_cell_setting 'orthorhombic'
loop_
_space_group_symop_operation_xyz
x,y,z
-x,-y,z
x,-y,-z
-x,y,-z
-x,-y,-z
x,y,-z
-x,y,z
x,-y,z
1/2+x,1/2+y,z
1/2-x,1/2-y,z
1/2+x,1/2-y,-z
1/2-x,1/2+y,-z
1/2-x,1/2-y,-z
1/2+x,1/2+y,-z
1/2-x,1/2+y,z
1/2+x,1/2-y,z
loop_
_atom_site_type_symbol
_atom_site_label
_atom_site_fract_x
_atom_site_fract_y
_atom_site_fract_z
Si Si1 0.419472 0.321917 0.605677
Si Si2 0.327304 0.178869 0.172288
Si Si3 0.826977 0.821077 0.500000
Si Si4 0.826624 0.176316 0.061605
Si Si5 0.080888 0.676760 0.721335
O O1 0.500000 0.266109 0.594433
O O2 0.417111 0.500000 0.609681
O O3 0.369718 0.263290 0.555047
O O4 0.389800 0.255085 0.664491
O O5 0.250000 0.250000 0.179260
O O6 0.365578 0.242281 0.114677
O O7 0.373653 0.233497 0.225401
O O8 0.322234 0.000000 0.168768
O O9 0.750000 0.750000 0.500000
O O10 0.820337 0.000000 0.500000
O O11 0.750000 0.250000 0.057929
O O12 0.819167 0.000000 0.074754
O O13 0.865027 0.201591 0.000000
O O14 0.088520 0.500000 0.712754
O O15 0.000000 0.724914 0.732643
#
# Coordination Sequence:
#
# PCOD8267551 Si02
#       5
#    16  16   8  16  16
#     4   9  18  34  55  74  93 124 164 200 234 276
#     4  10  19  30  47  70  96 125 156 195 240 284
#     4  10  21  35  51  75 105 130 156 194 238 284
#     4   9  16  26  42  65  93 123 156 195 236 280
#     4   9  19  35  52  71  96 126 161 199 237 279
#
# _framework density 18.266105
#
# number of rings (size 3 to 8) (size 9 to 14) (size 15 to 20)
#    0.000    2.667    0.000    3.000    0.000    6.222 
#    0.000    4.444    0.000    4.000    0.000    4.667 
#    0.000    0.000    0.000    0.000    0.000    0.000 
#
# Total GULP energy -446200.041463 kJ/mol
# GULP energy per Si atom -12394.445596 kJ/mol
# Density = 1.822453 g / cm^3
# Si number density = 18.266105 Si / 1000 Ang^3
#
#
#
# Elastic Constant Matrix: (Units=GPa)
#
#
# Indices 1 2 3 4 5 6 
#
# 1 69.1742 26.5495 78.1086 0.0000 0.0000 0.0000
# 2 26.5495 56.8040 55.3028 0.0000 0.0000 0.0000
# 3 78.1086 55.3028 217.7042 0.0000 0.0000 0.0000
# 4 0.0000 0.0000 0.0000 35.1114 0.0000 0.0000
# 5 0.0000 0.0000 0.0000 0.0000 20.2053 0.0000
# 6 0.0000 0.0000 0.0000 0.0000 0.0000 21.6741
#
#
#
# Elastic Compliance Matrix: (Units=1/GPa)
#
#
# Indices 1 2 3 4 5 6 
#
# 1 0.024939 -0.003913 -0.007954 0.000000 0.000000 0.000000
# 2 -0.003913 0.024003 -0.004694 0.000000 0.000000 0.000000
# 3 -0.007954 -0.004694 0.008639 0.000000 0.000000 0.000000
# 4 0.000000 0.000000 0.000000 0.028481 0.000000 0.000000
# 5 0.000000 0.000000 0.000000 0.000000 0.049492 0.000000
# 6 0.000000 0.000000 0.000000 0.000000 0.000000 0.046138
#
#
# Mechanical properties :
#
#
# Convention : Reuss Voigt Hill
#
# Bulk Modulus (GPa) = 40.88120 73.73380 57.30750
# Shear Modulus (GPa) = 22.42500 27.64625 25.03563
#
# Velocity S-wave (km/s) = 3.50763 3.89463 3.70619
# Velocity P-wave (km/s) = 6.23171 7.78963 7.05381
#
# Compressibility (1/GPa) = 0.02446112
#
# Stress axis : x y z
#
# Youngs Moduli (GPa) = 40.09784 41.66217 115.74926
#
# Poissons Ratio (x) = 0.16301 0.92065
# Poissons Ratio (y) = 0.15689 0.54327
# Poissons Ratio (z) = 0.31893 0.19554
#
# Static dielectric constant tensor:
#      x y z
#    x 3.116620 0.000000 0.000000 
#    y 0.000000 3.319000 0.000000 
#    z 0.000000 0.000000 4.141500 
# 
# 
# High freq. dielectric constant tensor:
#      x y z
#    x 1.666100 0.000000 0.000000 
#    y 0.000000 1.707840 0.000000 
#    z 0.000000 0.000000 1.734270 
# 
# From -- ./inp_files/67123.got.cif
#   From: 2010.03.12/outbox.cif.g09.slc.cpg/sg65_34_cif.got.tgz:67123.got - 2010.04.10 20:52:16.
