data_PCOD8267609
_publ_section_title
;
Structure prediction by ZEFSAII (Michael W. Deem and Ramdas Pophale) SiO2 
 PCOD8267609
Probable space group: C M M M
;
_chemical_formula_sum "Si O2"
_cell_formula_units_Z 80
_cell_length_a 27.002313
_cell_length_b 18.589687
_cell_length_c 9.089341
_cell_angle_alpha 90.000000
_cell_angle_beta 90.000000
_cell_angle_gamma 90.000000
_cell_volume 4562.526937
_symmetry_space_group_name_H-M "C M M M"
_symmetry_group_IT_number 65
_symmetry_cell_setting 'orthorhombic'
loop_
_space_group_symop_operation_xyz
x,y,z
-x,-y,z
x,-y,-z
-x,y,-z
-x,-y,-z
x,y,-z
-x,y,z
x,-y,z
1/2+x,1/2+y,z
1/2-x,1/2-y,z
1/2+x,1/2-y,-z
1/2-x,1/2+y,-z
1/2-x,1/2-y,-z
1/2+x,1/2+y,-z
1/2-x,1/2+y,z
1/2+x,1/2-y,z
loop_
_atom_site_type_symbol
_atom_site_label
_atom_site_fract_x
_atom_site_fract_y
_atom_site_fract_z
Si Si1 0.556628 0.655155 0.670824
Si Si2 0.143373 0.081154 0.173039
Si Si3 0.799257 0.783289 0.170308
Si Si4 0.901324 0.288471 0.829683
Si Si5 0.942671 0.418191 0.331374
O O1 0.570473 0.659593 0.500000
O O2 0.500000 0.631094 0.694016
O O3 0.591211 0.595901 0.747866
O O4 0.564196 0.733744 0.740417
O O5 0.184879 0.137674 0.232323
O O6 0.161056 0.000000 0.207428
O O7 0.134423 0.093638 0.000000
O O8 0.750000 0.750000 0.248112
O O9 0.843748 0.728069 0.197774
O O10 0.787270 0.793913 0.000000
O O11 0.910053 0.369064 0.774729
O O12 0.915338 0.281582 0.000000
O O13 0.933057 0.396516 0.500000
O O14 0.926244 0.500000 0.303182
O O15 0.000000 0.407971 0.291766
#
# Coordination Sequence:
#
# PCOD8267609 Si02
#       5
#    16  16  16  16  16
#     4  10  20  32  47  68  95 129 163 190 225 280
#     4   9  18  32  50  72  96 123 157 197 239 278
#     4   8  15  30  50  70  93 121 154 193 237 284
#     4  10  19  30  48  73  96 120 156 201 242 278
#     4   9  18  32  48  66  93 131 166 192 228 282
#
# _framework density 17.534143
#
# number of rings (size 3 to 8) (size 9 to 14) (size 15 to 20)
#    0.000    2.800    0.000    3.600    0.000    5.600 
#    0.000    4.000    0.000   18.600    0.000    0.000 
#    0.000    0.000    0.000    0.000    0.000    0.000 
#
# Total GULP energy -495893.385081 kJ/mol
# GULP energy per Si atom -12397.334627 kJ/mol
# Density = 1.749423 g / cm^3
# Si number density = 17.534143 Si / 1000 Ang^3
#
#
#
# Elastic Constant Matrix: (Units=GPa)
#
#
# Indices 1 2 3 4 5 6 
#
# 1 100.3440 63.2315 39.8760 0.0000 0.0000 0.0000
# 2 63.2315 130.9942 43.6866 0.0000 0.0000 0.0000
# 3 39.8760 43.6866 63.6471 0.0000 0.0000 0.0000
# 4 0.0000 0.0000 0.0000 29.0851 0.0000 0.0000
# 5 0.0000 0.0000 0.0000 0.0000 5.8783 0.0000
# 6 0.0000 0.0000 0.0000 0.0000 0.0000 19.2402
#
#
#
# Elastic Compliance Matrix: (Units=1/GPa)
#
#
# Indices 1 2 3 4 5 6 
#
# 1 0.015967 -0.005669 -0.006113 0.000000 0.000000 0.000000
# 2 -0.005669 0.011913 -0.004625 0.000000 0.000000 0.000000
# 3 -0.006113 -0.004625 0.022716 0.000000 0.000000 0.000000
# 4 0.000000 0.000000 0.000000 0.034382 0.000000 0.000000
# 5 0.000000 0.000000 0.000000 0.000000 0.170118 0.000000
# 6 0.000000 0.000000 0.000000 0.000000 0.000000 0.051974
#
#
# Mechanical properties :
#
#
# Convention : Reuss Voigt Hill
#
# Bulk Modulus (GPa) = 56.23489 65.39706 60.81598
# Shear Modulus (GPa) = 14.45878 20.72014 17.58946
#
# Velocity S-wave (km/s) = 2.87471 3.44132 3.17070
# Velocity P-wave (km/s) = 6.56962 7.29165 6.94003
#
# Compressibility (1/GPa) = 0.01778255
#
# Stress axis : x y z
#
# Youngs Moduli (GPa) = 62.62920 83.94339 44.02193
#
# Poissons Ratio (x) = 0.47586 0.26909
# Poissons Ratio (y) = 0.35503 0.20361
# Poissons Ratio (z) = 0.38283 0.38826
#
# Static dielectric constant tensor:
#      x y z
#    x 3.235080 0.000000 0.000000 
#    y 0.000000 3.354580 0.000000 
#    z 0.000000 0.000000 3.116640 
# 
# 
# High freq. dielectric constant tensor:
#      x y z
#    x 1.661690 0.000000 0.000000 
#    y 0.000000 1.681520 0.000000 
#    z 0.000000 0.000000 1.662580 
# 
# From -- ./inp_files/9884.got.cif
#   From: 2010.03.12/outbox.cif.g09.slc.cpg/sg65_5_cif.got.tgz:9884.got - 2010.04.10 20:52:16.
