data_PCOD8267635
_publ_section_title
;
Structure prediction by ZEFSAII (Michael W. Deem and Ramdas Pophale) SiO2 
 PCOD8267635
Probable space group: C M M M
;
_chemical_formula_sum "Si O2"
_cell_formula_units_Z 104
_cell_length_a 22.695579
_cell_length_b 26.358960
_cell_length_c 9.051716
_cell_angle_alpha 90.000000
_cell_angle_beta 90.000000
_cell_angle_gamma 90.000000
_cell_volume 5415.024890
_symmetry_space_group_name_H-M "C M M M"
_symmetry_group_IT_number 65
_symmetry_cell_setting 'orthorhombic'
loop_
_space_group_symop_operation_xyz
x,y,z
-x,-y,z
x,-y,-z
-x,y,-z
-x,-y,-z
x,y,-z
-x,y,z
x,-y,z
1/2+x,1/2+y,z
1/2-x,1/2-y,z
1/2+x,1/2-y,-z
1/2-x,1/2+y,-z
1/2-x,1/2-y,-z
1/2+x,1/2+y,-z
1/2-x,1/2+y,z
1/2+x,1/2-y,z
loop_
_atom_site_type_symbol
_atom_site_label
_atom_site_fract_x
_atom_site_fract_y
_atom_site_fract_z
Si Si1 0.796032 0.688448 0.326528
Si Si2 0.565492 0.000000 0.325599
Si Si3 0.841092 0.418930 0.329380
Si Si4 0.178565 0.207170 0.823864
Si Si5 0.613240 0.441897 0.672842
Si Si6 0.274245 0.557693 0.160155
Si Si7 0.935443 0.854027 0.168759
O O1 0.785784 0.699256 0.500000
O O2 0.842058 0.641914 0.303921
O O3 0.822964 0.736857 0.245678
O O4 0.732898 0.675396 0.248939
O O5 0.599776 0.051667 0.275951
O O6 0.500000 0.000000 0.253231
O O7 0.558802 0.000000 0.500000
O O8 0.829497 0.431733 0.500000
O O9 0.788007 0.441659 0.238334
O O10 0.115841 0.183711 0.777546
O O11 0.187199 0.210641 0.000000
O O12 0.618328 0.435683 0.500000
O O13 0.599512 0.500000 0.716105
O O14 0.673857 0.419012 0.740730
O O15 0.562543 0.405808 0.736462
O O16 0.291770 0.500000 0.134369
O O17 0.272071 0.585747 0.000000
O O18 0.000000 0.828046 0.187647
O O19 0.923787 0.869457 0.000000
#
# Coordination Sequence:
#
# PCOD8267635 Si02
#       7
#    16   8  16  16  16  16  16
#     4  10  20  33  54  84 112 136 169 222 280 326
#     4   9  18  34  55  77 107 149 190 225 266 325
#     4  10  19  32  53  79 107 141 181 223 270 324
#     4  10  20  36  57  80 106 140 178 219 269 327
#     4  10  21  35  52  77 109 142 178 220 264 312
#     4  10  19  30  48  76 107 139 174 215 264 314
#     4  10  22  39  57  77 104 142 185 223 262 314
#
# _framework density 19.205821
#
# number of rings (size 3 to 8) (size 9 to 14) (size 15 to 20)
#    0.000    2.077    0.769    3.692    0.000    7.077 
#    0.000    2.308    0.000    1.846    0.000    0.000 
#    0.000    0.000    0.000    0.000    0.000    0.000 
#
# Total GULP energy -644482.684991 kJ/mol
# GULP energy per Si atom -12393.897788 kJ/mol
# Density = 1.916211 g / cm^3
# Si number density = 19.205821 Si / 1000 Ang^3
#
#
#
# Elastic Constant Matrix: (Units=GPa)
#
#
# Indices 1 2 3 4 5 6 
#
# 1 136.4721 63.8543 38.2173 0.0000 0.0000 0.0000
# 2 63.8543 97.3436 38.6550 0.0000 0.0000 0.0000
# 3 38.2173 38.6550 82.7114 0.0000 0.0000 0.0000
# 4 0.0000 0.0000 0.0000 23.1610 0.0000 0.0000
# 5 0.0000 0.0000 0.0000 0.0000 21.4369 0.0000
# 6 0.0000 0.0000 0.0000 0.0000 0.0000 24.8125
#
#
#
# Elastic Compliance Matrix: (Units=1/GPa)
#
#
# Indices 1 2 3 4 5 6 
#
# 1 0.010854 -0.006297 -0.002072 0.000000 0.000000 0.000000
# 2 -0.006297 0.016267 -0.004693 0.000000 0.000000 0.000000
# 3 -0.002072 -0.004693 0.015241 0.000000 0.000000 0.000000
# 4 0.000000 0.000000 0.000000 0.043176 0.000000 0.000000
# 5 0.000000 0.000000 0.000000 0.000000 0.046649 0.000000
# 6 0.000000 0.000000 0.000000 0.000000 0.000000 0.040302
#
#
# Mechanical properties :
#
#
# Convention : Reuss Voigt Hill
#
# Bulk Modulus (GPa) = 61.58459 66.44225 64.01342
# Shear Modulus (GPa) = 24.50667 25.60210 25.05439
#
# Velocity S-wave (km/s) = 3.57599 3.65504 3.61573
# Velocity P-wave (km/s) = 7.01324 7.24447 7.12979
#
# Compressibility (1/GPa) = 0.01623783
#
# Stress axis : x y z
#
# Youngs Moduli (GPa) = 92.13030 61.47384 65.61287
#
# Poissons Ratio (x) = 0.38711 0.13597
# Poissons Ratio (y) = 0.58015 0.30791
# Poissons Ratio (z) = 0.19092 0.28848
#
# Static dielectric constant tensor:
#      x y z
#    x 3.562680 0.000000 0.000000 
#    y 0.000000 3.591260 0.000000 
#    z 0.000000 0.000000 3.572210 
# 
# 
# High freq. dielectric constant tensor:
#      x y z
#    x 1.729330 0.000000 0.000000 
#    y 0.000000 1.747790 0.000000 
#    z 0.000000 0.000000 1.747970 
# 
# From -- ./inp_files/12415.got.cif
#   From: 2010.03.12/outbox.cif.g09.slc.cpg/sg65_7_cif.got.tgz:12415.got - 2010.04.10 20:52:16.
