data_PCOD8267696
_publ_section_title
;
Structure prediction by ZEFSAII (Michael W. Deem and Ramdas Pophale) SiO2 
 PCOD8267696
Probable space group: C M M M
;
_chemical_formula_sum "Si O2"
_cell_formula_units_Z 72
_cell_length_a 23.492444
_cell_length_b 13.625740
_cell_length_c 12.231973
_cell_angle_alpha 90.000000
_cell_angle_beta 90.000000
_cell_angle_gamma 90.000000
_cell_volume 3915.478213
_symmetry_space_group_name_H-M "C M M M"
_symmetry_group_IT_number 65
_symmetry_cell_setting 'orthorhombic'
loop_
_space_group_symop_operation_xyz
x,y,z
-x,-y,z
x,-y,-z
-x,y,-z
-x,-y,-z
x,y,-z
-x,y,z
x,-y,z
1/2+x,1/2+y,z
1/2-x,1/2-y,z
1/2+x,1/2-y,-z
1/2-x,1/2+y,-z
1/2-x,1/2-y,-z
1/2+x,1/2+y,-z
1/2-x,1/2+y,z
1/2+x,1/2-y,z
loop_
_atom_site_type_symbol
_atom_site_label
_atom_site_fract_x
_atom_site_fract_y
_atom_site_fract_z
Si Si1 0.829625 0.809821 0.123500
Si Si2 0.129687 0.387927 0.623772
Si Si3 0.565552 0.233412 0.209506
Si Si4 0.566033 0.894402 0.000000
Si Si5 0.784149 0.389465 0.808296
O O1 0.890261 0.823119 0.187585
O O2 0.811954 0.694155 0.115582
O O3 0.783895 0.872110 0.193011
O O4 0.834072 0.850660 0.000000
O O5 0.138897 0.351878 0.500000
O O6 0.108411 0.500000 0.627455
O O7 0.079861 0.322345 0.678060
O O8 0.189827 0.375950 0.686596
O O9 0.500000 0.269133 0.209412
O O10 0.581912 0.162459 0.109462
O O11 0.500000 0.913269 0.000000
O O12 0.597608 0.000000 0.000000
O O13 0.796879 0.500000 0.851660
#
# Coordination Sequence:
#
# PCOD8267696 Si02
#       5
#    16  16  16   8  16
#     4  10  19  31  47  72  99 126 163 197 245 301
#     4   9  18  32  49  70  97 128 161 199 246 298
#     4  10  19  31  45  66  96 129 162 197 237 283
#     4   9  16  26  42  63  87 119 157 193 229 276
#     4   9  18  32  49  69  94 124 160 203 245 288
#
# _framework density 18.388559999999998
#
# number of rings (size 3 to 8) (size 9 to 14) (size 15 to 20)
#    0.000    2.556    1.111    2.000    0.000    4.444 
#    0.000   10.000    0.000    0.667    0.000    1.556 
#    0.000    0.000    0.000   23.556    0.000    0.000 
#
# Total GULP energy -446017.322979 kJ/mol
# GULP energy per Si atom -12389.370083 kJ/mol
# Density = 1.834671 g / cm^3
# Si number density = 18.388560 Si / 1000 Ang^3
#
#
#
# Elastic Constant Matrix: (Units=GPa)
#
#
# Indices 1 2 3 4 5 6 
#
# 1 141.8792 9.4636 32.4691 0.0000 0.0000 0.0000
# 2 9.4636 29.1438 2.4425 0.0000 0.0000 0.0000
# 3 32.4691 2.4425 108.8822 0.0000 0.0000 0.0000
# 4 0.0000 0.0000 0.0000 15.4270 0.0000 0.0000
# 5 0.0000 0.0000 0.0000 0.0000 19.9934 0.0000
# 6 0.0000 0.0000 0.0000 0.0000 0.0000 19.3364
#
#
#
# Elastic Compliance Matrix: (Units=1/GPa)
#
#
# Indices 1 2 3 4 5 6 
#
# 1 0.007718 -0.002318 -0.002249 0.000000 0.000000 0.000000
# 2 -0.002318 0.035073 -0.000096 0.000000 0.000000 0.000000
# 3 -0.002249 -0.000096 0.009857 0.000000 0.000000 0.000000
# 4 0.000000 0.000000 0.000000 0.064821 0.000000 0.000000
# 5 0.000000 0.000000 0.000000 0.000000 0.050016 0.000000
# 6 0.000000 0.000000 0.000000 0.000000 0.000000 0.051716
#
#
# Mechanical properties :
#
#
# Convention : Reuss Voigt Hill
#
# Bulk Modulus (GPa) = 23.08259 40.96174 32.02217
# Shear Modulus (GPa) = 20.57884 26.65337 23.61611
#
# Velocity S-wave (km/s) = 3.34894 3.81130 3.58758
# Velocity P-wave (km/s) = 5.24727 6.45694 5.88327
#
# Compressibility (1/GPa) = 0.04332269
#
# Stress axis : x y z
#
# Youngs Moduli (GPa) = 129.57366 28.51175 101.44894
#
# Poissons Ratio (x) = 0.06608 0.22820
# Poissons Ratio (y) = 0.30029 0.00971
# Poissons Ratio (z) = 0.29147 0.00273
#
# Static dielectric constant tensor:
#      x y z
#    x 3.605910 0.000000 0.000000 
#    y 0.000000 3.303030 0.000000 
#    z 0.000000 0.000000 3.266630 
# 
# 
# High freq. dielectric constant tensor:
#      x y z
#    x 1.722480 0.000000 0.000000 
#    y 0.000000 1.665760 0.000000 
#    z 0.000000 0.000000 1.696920 
# 
# From -- ./inp_files/26942.got.cif
#   From: 2010.03.12/outbox.cif.g09.slc.cpg/sg65_14_cif.got.tgz:26942.got - 2010.04.10 20:52:16.
