data_PCOD8267367
_publ_section_title
;
Structure prediction by ZEFSAII (Michael W. Deem and Ramdas Pophale) SiO2 
 PCOD8267367
Probable space group: C M M M
;
_chemical_formula_sum "Si O2"
_cell_formula_units_Z 104
_cell_length_a 9.230444
_cell_length_b 27.480537
_cell_length_c 27.511084
_cell_angle_alpha 90.000000
_cell_angle_beta 90.000000
_cell_angle_gamma 90.000000
_cell_volume 6978.394382
_symmetry_space_group_name_H-M "C M M M"
_symmetry_group_IT_number 65
_symmetry_cell_setting 'orthorhombic'
loop_
_space_group_symop_operation_xyz
x,y,z
-x,-y,z
x,-y,-z
-x,y,-z
-x,-y,-z
x,y,-z
-x,y,z
x,-y,z
1/2+x,1/2+y,z
1/2-x,1/2-y,z
1/2+x,1/2-y,-z
1/2-x,1/2+y,-z
1/2-x,1/2-y,-z
1/2+x,1/2+y,-z
1/2-x,1/2+y,z
1/2+x,1/2-y,z
loop_
_atom_site_type_symbol
_atom_site_label
_atom_site_fract_x
_atom_site_fract_y
_atom_site_fract_z
Si Si1 0.835514 0.942046 0.500000
Si Si2 0.835539 0.441959 0.594171
Si Si3 0.829121 0.700112 0.055721
Si Si4 0.671053 0.943682 0.784084
Si Si5 0.163230 0.942388 0.312806
Si Si6 0.343280 0.443290 0.947199
Si Si7 0.830954 0.612960 0.877622
O O1 0.750704 0.922498 0.452797
O O2 0.000000 0.921851 0.500000
O O3 0.838282 0.000000 0.500000
O O4 0.837851 0.500000 0.594654
O O5 0.753041 0.421335 0.641581
O O6 0.000000 0.421895 0.593311
O O7 0.750000 0.750000 0.068076
O O8 0.768623 0.661943 0.096604
O O9 0.000000 0.707604 0.061740
O O10 0.793757 0.683475 0.000000
O O11 0.500000 0.939776 0.774604
O O12 0.755110 0.926963 0.736129
O O13 0.724117 0.904005 0.824349
O O14 0.709759 0.000000 0.798424
O O15 0.000000 0.920936 0.312936
O O16 0.156713 0.000000 0.317091
O O17 0.500000 0.424772 0.926915
O O18 0.348386 0.500000 0.953255
O O19 0.211573 0.431060 0.912358
O O20 0.315500 0.419434 0.000000
O O21 0.000000 0.617885 0.875579
#
# Coordination Sequence:
#
# PCOD8267367 Si02
#       7
#     8  16  16  16  16  16  16
#     4   9  15  21  29  43  63  85 113 153 198 239
#     4   9  15  22  32  45  62  86 117 154 196 236
#     4   9  18  32  48  65  83 101 123 153 190 233
#     4   9  17  28  40  55  76 100 125 154 189 227
#     4   9  16  25  36  49  66  91 123 156 189 225
#     4   9  18  30  41  56  80 106 128 150 180 221
#     4  10  19  30  45  63  80  99 126 159 191 225
#
# _framework density 14.903142000000001
#
# number of rings (size 3 to 8) (size 9 to 14) (size 15 to 20)
#    0.000    2.846    0.000    2.538    0.000    7.692 
#    0.000    3.846    0.000    0.000    0.000    0.000 
#    0.000    0.000    0.000    0.000    0.000    0.000 
#
# Total GULP energy -644195.068951 kJ/mol
# GULP energy per Si atom -12388.366711 kJ/mol
# Density = 1.486922 g / cm^3
# Si number density = 14.903142 Si / 1000 Ang^3
#
#
#
# Elastic Constant Matrix: (Units=GPa)
#
#
# Indices 1 2 3 4 5 6 
#
# 1 53.0685 28.2633 57.1276 0.0000 0.0000 0.0000
# 2 28.2633 35.1522 43.2411 0.0000 0.0000 0.0000
# 3 57.1276 43.2411 138.6010 0.0000 0.0000 0.0000
# 4 0.0000 0.0000 0.0000 4.1513 0.0000 0.0000
# 5 0.0000 0.0000 0.0000 0.0000 22.5624 0.0000
# 6 0.0000 0.0000 0.0000 0.0000 0.0000 13.3485
#
#
#
# Elastic Compliance Matrix: (Units=1/GPa)
#
#
# Indices 1 2 3 4 5 6 
#
# 1 0.040833 -0.019681 -0.010690 0.000000 0.000000 0.000000
# 2 -0.019681 0.055650 -0.009250 0.000000 0.000000 0.000000
# 3 -0.010690 -0.009250 0.014507 0.000000 0.000000 0.000000
# 4 0.000000 0.000000 0.000000 0.240889 0.000000 0.000000
# 5 0.000000 0.000000 0.000000 0.000000 0.044322 0.000000
# 6 0.000000 0.000000 0.000000 0.000000 0.000000 0.074915
#
#
# Mechanical properties :
#
#
# Convention : Reuss Voigt Hill
#
# Bulk Modulus (GPa) = 31.49781 53.78731 42.64256
# Shear Modulus (GPa) = 8.91361 14.55842 11.73601
#
# Velocity S-wave (km/s) = 2.44827 3.12888 2.80926
# Velocity P-wave (km/s) = 5.40120 7.01590 6.26082
#
# Compressibility (1/GPa) = 0.03174824
#
# Stress axis : x y z
#
# Youngs Moduli (GPa) = 24.48993 17.96946 68.93207
#
# Poissons Ratio (x) = 0.35365 0.73690
# Poissons Ratio (y) = 0.48198 0.63762
# Poissons Ratio (z) = 0.26180 0.16622
#
# Static dielectric constant tensor:
#      x y z
#    x 3.081150 0.000000 0.000000 
#    y 0.000000 2.464370 0.000000 
#    z 0.000000 0.000000 3.079150 
# 
# 
# High freq. dielectric constant tensor:
#      x y z
#    x 1.581460 0.000000 0.000000 
#    y 0.000000 1.497430 0.000000 
#    z 0.000000 0.000000 1.574230 
# 
# From -- ./inp_files/74042.got.cif
#   From: 2010.03.12/outbox.cif.g09.slc.cpg/sg65_38_cif.got.tgz:74042.got - 2010.04.10 20:52:16.
