data_PCOD8267750
_publ_section_title
;
Structure prediction by ZEFSAII (Michael W. Deem and Ramdas Pophale) SiO2 
 PCOD8267750
Probable space group: C M M M
;
_chemical_formula_sum "Si O2"
_cell_formula_units_Z 120
_cell_length_a 8.934167
_cell_length_b 28.065126
_cell_length_c 26.495141
_cell_angle_alpha 90.000000
_cell_angle_beta 90.000000
_cell_angle_gamma 90.000000
_cell_volume 6643.352509
_symmetry_space_group_name_H-M "C M M M"
_symmetry_group_IT_number 65
_symmetry_cell_setting 'orthorhombic'
loop_
_space_group_symop_operation_xyz
x,y,z
-x,-y,z
x,-y,-z
-x,y,-z
-x,-y,-z
x,y,-z
-x,y,z
x,-y,z
1/2+x,1/2+y,z
1/2-x,1/2-y,z
1/2+x,1/2-y,-z
1/2-x,1/2+y,-z
1/2-x,1/2-y,-z
1/2+x,1/2+y,-z
1/2-x,1/2+y,z
1/2+x,1/2-y,z
loop_
_atom_site_type_symbol
_atom_site_label
_atom_site_fract_x
_atom_site_fract_y
_atom_site_fract_z
Si Si1 0.824905 0.946611 0.799977
Si Si2 0.322684 0.200089 0.764389
Si Si3 0.822669 0.394373 0.598392
Si Si4 0.823849 0.603841 0.709930
Si Si5 0.322605 0.647452 0.144151
Si Si6 0.825632 0.299829 0.058456
Si Si7 0.324844 0.203659 0.442951
Si Si8 0.822228 0.553935 0.500000
O O1 0.748959 0.934226 0.747030
O O2 0.779103 0.907207 0.841782
O O3 0.000000 0.944554 0.790295
O O4 0.775656 0.000000 0.817322
O O5 0.500000 0.206637 0.770573
O O6 0.250000 0.250000 0.746405
O O7 0.283122 0.158576 0.724034
O O8 0.252015 0.184897 0.817686
O O9 0.763475 0.409214 0.653719
O O10 0.774478 0.339875 0.591523
O O11 0.753559 0.423981 0.551535
O O12 0.000000 0.400121 0.596779
O O13 0.000000 0.596877 0.713268
O O14 0.500000 0.655058 0.144215
O O15 0.254256 0.657768 0.089180
O O16 0.750000 0.250000 0.073361
O O17 0.000000 0.296970 0.072174
O O18 0.799784 0.311729 0.000000
O O19 0.267803 0.194686 0.500000
O O20 0.500000 0.211070 0.442431
O O21 0.250000 0.250000 0.418853
O O22 0.772802 0.500000 0.500000
O O23 0.000000 0.561714 0.500000
#
# Coordination Sequence:
#
# PCOD8267750 Si02
#       8
#    16  16  16  16  16  16  16   8
#     4   9  19  36  55  74  97 126 162 204 252 303
#     4  10  19  31  46  67  97 131 164 199 240 289
#     4   9  16  29  45  65  94 122 148 187 236 281
#     4   9  19  32  48  71  97 123 156 198 244 291
#     4  10  19  32  52  75  99 131 170 210 249 290
#     4  10  20  33  50  75 109 145 177 208 243 285
#     4   9  16  27  44  64  88 118 149 183 223 268
#     4   9  16  26  43  66  89 115 147 183 228 283
#
# _framework density 18.063168999999998
#
# number of rings (size 3 to 8) (size 9 to 14) (size 15 to 20)
#    0.000    2.600    0.667    1.600    0.000    3.200 
#    0.000    2.000    0.000    0.400    0.000    2.800 
#    0.000    2.133    0.000    0.000    0.000    0.000 
#
# Total GULP energy -743762.959939 kJ/mol
# GULP energy per Si atom -12396.049332 kJ/mol
# Density = 1.802206 g / cm^3
# Si number density = 18.063169 Si / 1000 Ang^3
#
#
#
# Elastic Constant Matrix: (Units=GPa)
#
#
# Indices 1 2 3 4 5 6 
#
# 1 50.2318 38.2686 35.5897 0.0000 0.0000 0.0000
# 2 38.2686 109.6189 66.8839 0.0000 0.0000 0.0000
# 3 35.5897 66.8839 117.0452 0.0000 0.0000 0.0000
# 4 0.0000 0.0000 0.0000 19.5803 0.0000 0.0000
# 5 0.0000 0.0000 0.0000 0.0000 16.4111 0.0000
# 6 0.0000 0.0000 0.0000 0.0000 0.0000 22.6387
#
#
#
# Elastic Compliance Matrix: (Units=1/GPa)
#
#
# Indices 1 2 3 4 5 6 
#
# 1 0.028648 -0.007195 -0.004600 0.000000 0.000000 0.000000
# 2 -0.007195 0.015813 -0.006848 0.000000 0.000000 0.000000
# 3 -0.004600 -0.006848 0.013856 0.000000 0.000000 0.000000
# 4 0.000000 0.000000 0.000000 0.051072 0.000000 0.000000
# 5 0.000000 0.000000 0.000000 0.000000 0.060935 0.000000
# 6 0.000000 0.000000 0.000000 0.000000 0.000000 0.044172
#
#
# Mechanical properties :
#
#
# Convention : Reuss Voigt Hill
#
# Bulk Modulus (GPa) = 47.54879 62.04226 54.79552
# Shear Modulus (GPa) = 19.32070 20.80293 20.06182
#
# Velocity S-wave (km/s) = 3.27405 3.39732 3.33625
# Velocity P-wave (km/s) = 6.37756 7.05769 6.72623
#
# Compressibility (1/GPa) = 0.02103103
#
# Stress axis : x y z
#
# Youngs Moduli (GPa) = 34.90682 63.24033 72.17284
#
# Poissons Ratio (x) = 0.45499 0.33196
# Poissons Ratio (y) = 0.25114 0.49426
# Poissons Ratio (z) = 0.16056 0.43309
#
# Static dielectric constant tensor:
#      x y z
#    x 3.168470 0.000000 0.000000 
#    y 0.000000 3.425790 0.000000 
#    z 0.000000 0.000000 3.399940 
# 
# 
# High freq. dielectric constant tensor:
#      x y z
#    x 1.680220 0.000000 0.000000 
#    y 0.000000 1.696370 0.000000 
#    z 0.000000 0.000000 1.693220 
# 
# From -- ./inp_files/73944.got.cif
#   From: 2010.03.12/outbox.cif.g09.slc.cpg/sg65_37_cif.got.tgz:73944.got - 2010.04.10 20:52:16.
