data_PCOD8267931
_publ_section_title
;
Structure prediction by ZEFSAII (Michael W. Deem and Ramdas Pophale) SiO2 
 PCOD8267931
Probable space group: C M M M
;
_chemical_formula_sum "Si O2"
_cell_formula_units_Z 80
_cell_length_a 25.739988
_cell_length_b 8.990394
_cell_length_c 19.796508
_cell_angle_alpha 90.000000
_cell_angle_beta 90.000000
_cell_angle_gamma 90.000000
_cell_volume 4581.162054
_symmetry_space_group_name_H-M "C M M M"
_symmetry_group_IT_number 65
_symmetry_cell_setting 'orthorhombic'
loop_
_space_group_symop_operation_xyz
x,y,z
-x,-y,z
x,-y,-z
-x,y,-z
-x,-y,-z
x,y,-z
-x,y,z
x,-y,z
1/2+x,1/2+y,z
1/2-x,1/2-y,z
1/2+x,1/2-y,-z
1/2-x,1/2+y,-z
1/2-x,1/2-y,-z
1/2+x,1/2+y,-z
1/2-x,1/2+y,z
1/2+x,1/2-y,z
loop_
_atom_site_type_symbol
_atom_site_label
_atom_site_fract_x
_atom_site_fract_y
_atom_site_fract_z
Si Si1 0.304658 0.322036 0.782201
Si Si2 0.941547 0.334246 0.314183
Si Si3 0.152145 0.173524 0.360196
Si Si4 0.304522 0.677457 0.500000
Si Si5 0.404789 0.829215 0.165474
Si Si6 0.000000 0.676841 0.076950
O O1 0.301417 0.500000 0.787168
O O2 0.250000 0.250000 0.805179
O O3 0.316296 0.265409 0.705254
O O4 0.351155 0.265553 0.831390
O O5 0.923685 0.500000 0.335105
O O6 0.907972 0.214074 0.353782
O O7 0.936221 0.314632 0.234533
O O8 0.000000 0.303920 0.336227
O O9 0.169555 0.241179 0.431727
O O10 0.159530 0.000000 0.361675
O O11 0.302559 0.500000 0.500000
O O12 0.250000 0.750000 0.500000
O O13 0.445989 0.764678 0.110540
O O14 0.389462 0.000000 0.149683
O O15 0.000000 0.500000 0.084564
O O16 0.000000 0.731486 0.000000
#
# Coordination Sequence:
#
# PCOD8267931 Si02
#       6
#    16  16  16   8  16   8
#     4  10  19  31  48  72  98 125 161 203 245 287
#     4   9  16  28  47  69  93 122 156 193 231 274
#     4   9  19  32  46  67  92 120 155 195 240 289
#     4  10  20  34  49  64  87 117 152 193 239 290
#     4   9  16  29  49  73 101 130 159 194 236 280
#     4   9  16  28  51  81 107 130 159 192 230 283
#
# _framework density 17.462819
#
# number of rings (size 3 to 8) (size 9 to 14) (size 15 to 20)
#    0.000    2.700    1.000    1.200    0.000    2.000 
#    0.000    1.000    0.000    4.800    0.000    0.000 
#    0.000    0.000    0.000    0.000    0.000    0.000 
#
# Total GULP energy -495710.826504 kJ/mol
# GULP energy per Si atom -12392.770663 kJ/mol
# Density = 1.742307 g / cm^3
# Si number density = 17.462819 Si / 1000 Ang^3
#
#
#
# Elastic Constant Matrix: (Units=GPa)
#
#
# Indices 1 2 3 4 5 6 
#
# 1 131.5475 31.5628 63.4320 0.0000 0.0000 0.0000
# 2 31.5628 28.6241 20.3674 0.0000 0.0000 0.0000
# 3 63.4320 20.3674 93.1537 0.0000 0.0000 0.0000
# 4 0.0000 0.0000 0.0000 14.4653 0.0000 0.0000
# 5 0.0000 0.0000 0.0000 0.0000 23.4193 0.0000
# 6 0.0000 0.0000 0.0000 0.0000 0.0000 32.2533
#
#
#
# Elastic Compliance Matrix: (Units=1/GPa)
#
#
# Indices 1 2 3 4 5 6 
#
# 1 0.013262 -0.009708 -0.006908 0.000000 0.000000 0.000000
# 2 -0.009708 0.048479 -0.003989 0.000000 0.000000 0.000000
# 3 -0.006908 -0.003989 0.016311 0.000000 0.000000 0.000000
# 4 0.000000 0.000000 0.000000 0.069131 0.000000 0.000000
# 5 0.000000 0.000000 0.000000 0.000000 0.042700 0.000000
# 6 0.000000 0.000000 0.000000 0.000000 0.000000 0.031005
#
#
# Mechanical properties :
#
#
# Convention : Reuss Voigt Hill
#
# Bulk Modulus (GPa) = 27.14312 53.78331 40.46321
# Shear Modulus (GPa) = 18.22297 23.22511 20.72404
#
# Velocity S-wave (km/s) = 3.23388 3.65084 3.44866
# Velocity P-wave (km/s) = 5.43333 6.97403 6.25133
#
# Compressibility (1/GPa) = 0.03684175
#
# Stress axis : x y z
#
# Youngs Moduli (GPa) = 75.40175 20.62750 61.30805
#
# Poissons Ratio (x) = 0.20026 0.42352
# Poissons Ratio (y) = 0.73203 0.24454
# Poissons Ratio (z) = 0.52089 0.08228
#
# Static dielectric constant tensor:
#      x y z
#    x 3.299370 0.000000 0.000000 
#    y 0.000000 3.303640 0.000000 
#    z 0.000000 0.000000 3.094100 
# 
# 
# High freq. dielectric constant tensor:
#      x y z
#    x 1.682140 0.000000 0.000000 
#    y 0.000000 1.656690 0.000000 
#    z 0.000000 0.000000 1.648450 
# 
# From -- ./inp_files/49913.got.cif
#   From: 2010.03.12/outbox.cif.g09.slc.cpg/sg65_25_cif.got.tgz:49913.got - 2010.04.10 20:52:16.
