data_PCOD8267441
_publ_section_title
;
Structure prediction by ZEFSAII (Michael W. Deem and Ramdas Pophale) SiO2 
 PCOD8267441
Probable space group: C M M M
;
_chemical_formula_sum "Si O2"
_cell_formula_units_Z 104
_cell_length_a 33.880917
_cell_length_b 22.626329
_cell_length_c 7.609159
_cell_angle_alpha 90.000000
_cell_angle_beta 90.000000
_cell_angle_gamma 90.000000
_cell_volume 5833.187185
_symmetry_space_group_name_H-M "C M M M"
_symmetry_group_IT_number 65
_symmetry_cell_setting 'orthorhombic'
loop_
_space_group_symop_operation_xyz
x,y,z
-x,-y,z
x,-y,-z
-x,y,-z
-x,-y,-z
x,y,-z
-x,y,z
x,-y,z
1/2+x,1/2+y,z
1/2-x,1/2-y,z
1/2+x,1/2-y,-z
1/2-x,1/2+y,-z
1/2-x,1/2-y,-z
1/2+x,1/2+y,-z
1/2-x,1/2+y,z
1/2+x,1/2-y,z
loop_
_atom_site_type_symbol
_atom_site_label
_atom_site_fract_x
_atom_site_fract_y
_atom_site_fract_z
Si Si1 0.590563 0.638798 0.693879
Si Si2 0.116634 0.320539 0.293401
Si Si3 0.878711 0.068767 0.000000
Si Si4 0.661336 0.933384 0.702975
Si Si5 0.800161 0.853401 0.000000
Si Si6 0.331528 0.716111 0.305398
Si Si7 0.776255 0.567185 0.000000
Si Si8 0.956450 0.250706 0.291151
O O1 0.579945 0.613502 0.500000
O O2 0.631137 0.673807 0.682213
O O3 0.557114 0.684513 0.761181
O O4 0.595113 0.584899 0.829335
O O5 0.113545 0.310999 0.500000
O O6 0.126022 0.388499 0.243750
O O7 0.153048 0.279219 0.229821
O O8 0.074636 0.299105 0.212357
O O9 0.837531 0.103353 0.000000
O O10 0.869098 0.000000 0.000000
O O11 0.674082 0.923793 0.500000
O O12 0.645502 0.000000 0.734190
O O13 0.698824 0.920483 0.824222
O O14 0.799860 0.811497 0.828210
O O15 0.760617 0.890291 0.000000
O O16 0.312165 0.722261 0.500000
O O17 0.760938 0.500000 0.000000
O O18 0.957635 0.255736 0.500000
O O19 0.000000 0.262798 0.211485
#
# Coordination Sequence:
#
# PCOD8267441 Si02
#       8
#    16  16   8  16   8  16   8  16
#     4   8  15  28  44  63  89 120 152 183 219 271
#     4   8  14  27  47  70  96 123 154 190 222 263
#     4  10  19  30  46  66  87 116 152 190 232 272
#     4   9  18  33  51  68  90 125 162 189 218 263
#     4  10  19  31  48  68  90 115 147 192 242 281
#     4   8  15  28  45  66  92 120 148 182 228 277
#     4  10  21  35  49  67  90 117 155 198 231 267
#     4   8  13  24  47  75  97 119 148 186 231 268
#
# _framework density 17.829017
#
# number of rings (size 3 to 8) (size 9 to 14) (size 15 to 20)
#    0.000    3.385    0.000    2.077    0.000    1.538 
#    0.000    2.692    0.000    6.923    0.000    5.385 
#    0.000    1.846    0.000    0.154    0.000    0.000 
#
# Total GULP energy -644330.016464 kJ/mol
# GULP energy per Si atom -12390.961855 kJ/mol
# Density = 1.778844 g / cm^3
# Si number density = 17.829017 Si / 1000 Ang^3
#
#
#
# Elastic Constant Matrix: (Units=GPa)
#
#
# Indices 1 2 3 4 5 6 
#
# 1 77.5637 46.4634 29.9857 0.0000 0.0000 0.0000
# 2 46.4634 103.1815 41.0235 0.0000 0.0000 0.0000
# 3 29.9857 41.0235 79.5469 0.0000 0.0000 0.0000
# 4 0.0000 0.0000 0.0000 16.4285 0.0000 0.0000
# 5 0.0000 0.0000 0.0000 0.0000 7.9897 0.0000
# 6 0.0000 0.0000 0.0000 0.0000 0.0000 19.7694
#
#
#
# Elastic Compliance Matrix: (Units=1/GPa)
#
#
# Indices 1 2 3 4 5 6 
#
# 1 0.018333 -0.006929 -0.003338 0.000000 0.000000 0.000000
# 2 -0.006929 0.014810 -0.005026 0.000000 0.000000 0.000000
# 3 -0.003338 -0.005026 0.016421 0.000000 0.000000 0.000000
# 4 0.000000 0.000000 0.000000 0.060870 0.000000 0.000000
# 5 0.000000 0.000000 0.000000 0.000000 0.125161 0.000000
# 6 0.000000 0.000000 0.000000 0.000000 0.000000 0.050583
#
#
# Mechanical properties :
#
#
# Convention : Reuss Voigt Hill
#
# Bulk Modulus (GPa) = 52.68658 55.02636 53.85647
# Shear Modulus (GPa) = 15.47556 18.35883 16.91720
#
# Velocity S-wave (km/s) = 2.94938 3.21240 3.08369
# Velocity P-wave (km/s) = 6.41978 6.68504 6.55375
#
# Compressibility (1/GPa) = 0.01898017
#
# Stress axis : x y z
#
# Youngs Moduli (GPa) = 54.54497 67.52240 60.89654
#
# Poissons Ratio (x) = 0.46784 0.20326
# Poissons Ratio (y) = 0.37792 0.30606
# Poissons Ratio (z) = 0.18206 0.33936
#
# Static dielectric constant tensor:
#      x y z
#    x 3.191050 0.000000 0.000000 
#    y 0.000000 3.335620 0.000000 
#    z 0.000000 0.000000 3.577640 
# 
# 
# High freq. dielectric constant tensor:
#      x y z
#    x 1.656360 0.000000 0.000000 
#    y 0.000000 1.676230 0.000000 
#    z 0.000000 0.000000 1.689930 
# 
# From -- ./inp_files/18917.got.cif
#   From: 2010.03.12/outbox.cif.g09.slc.cpg/sg65_10_cif.got.tgz:18917.got - 2010.04.10 20:52:16.
