data_PCOD8267571
_publ_section_title
;
Structure prediction by ZEFSAII (Michael W. Deem and Ramdas Pophale) SiO2 
 PCOD8267571
Probable space group: C M M M
;
_chemical_formula_sum "Si O2"
_cell_formula_units_Z 96
_cell_length_a 18.607495
_cell_length_b 31.022974
_cell_length_c 9.336444
_cell_angle_alpha 90.000000
_cell_angle_beta 90.000000
_cell_angle_gamma 90.000000
_cell_volume 5389.554110
_symmetry_space_group_name_H-M "C M M M"
_symmetry_group_IT_number 65
_symmetry_cell_setting 'orthorhombic'
loop_
_space_group_symop_operation_xyz
x,y,z
-x,-y,z
x,-y,-z
-x,y,-z
-x,-y,-z
x,y,-z
-x,y,z
x,-y,z
1/2+x,1/2+y,z
1/2-x,1/2-y,z
1/2+x,1/2-y,-z
1/2-x,1/2+y,-z
1/2-x,1/2-y,-z
1/2+x,1/2+y,-z
1/2-x,1/2+y,z
1/2+x,1/2-y,z
loop_
_atom_site_type_symbol
_atom_site_label
_atom_site_fract_x
_atom_site_fract_y
_atom_site_fract_z
Si Si1 0.831477 0.627920 0.335475
Si Si2 0.333686 0.047121 0.160769
Si Si3 0.416502 0.211047 0.334518
Si Si4 0.337590 0.371073 0.333675
Si Si5 0.415673 0.704068 0.165790
Si Si6 0.837084 0.047676 0.160803
O O1 0.849944 0.620777 0.500000
O O2 0.863721 0.585889 0.256997
O O3 0.871516 0.670294 0.277692
O O4 0.747143 0.633852 0.309171
O O5 0.248252 0.047765 0.163672
O O6 0.360035 0.000000 0.217259
O O7 0.361943 0.054277 0.000000
O O8 0.398460 0.221672 0.500000
O O9 0.500000 0.200357 0.314223
O O10 0.392398 0.251153 0.238088
O O11 0.358667 0.368322 0.500000
O O12 0.375233 0.333603 0.246846
O O13 0.366225 0.416751 0.271903
O O14 0.500000 0.696283 0.184006
O O15 0.392655 0.704856 0.000000
O O16 0.865277 0.000000 0.205707
O O17 0.863948 0.058848 0.000000
#
# Coordination Sequence:
#
# PCOD8267571 Si02
#       6
#    16  16  16  16  16  16
#     4   9  18  30  46  72  99 122 153 193 234 274
#     4   8  14  25  42  65  93 125 158 190 227 272
#     4   9  18  34  53  69  90 123 159 193 232 278
#     4  10  19  30  47  72 100 125 151 189 234 277
#     4  10  21  36  52  69  90 119 157 195 230 276
#     4   8  14  26  44  66  94 126 157 189 226 270
#
# _framework density 17.812235000000001
#
# number of rings (size 3 to 8) (size 9 to 14) (size 15 to 20)
#    0.000    3.000    0.000    2.000    0.000    3.667 
#    0.000    6.667    0.000    1.000    0.000    7.000 
#    0.000    0.000    0.000    0.000    0.000    0.000 
#
# Total GULP energy -595033.852510 kJ/mol
# GULP energy per Si atom -12396.538594 kJ/mol
# Density = 1.777169 g / cm^3
# Si number density = 17.812235 Si / 1000 Ang^3
#
#
#
# Elastic Constant Matrix: (Units=GPa)
#
#
# Indices 1 2 3 4 5 6 
#
# 1 22.5684 44.2134 31.3559 0.0000 0.0000 0.0000
# 2 44.2134 196.3190 104.0507 0.0000 0.0000 0.0000
# 3 31.3559 104.0507 117.2773 0.0000 0.0000 0.0000
# 4 0.0000 0.0000 0.0000 42.2277 0.0000 0.0000
# 5 0.0000 0.0000 0.0000 0.0000 17.7823 0.0000
# 6 0.0000 0.0000 0.0000 0.0000 0.0000 -8.3077
#
#
#
# Elastic Compliance Matrix: (Units=1/GPa)
#
#
# Indices 1 2 3 4 5 6 
#
# 1 0.086201 -0.013588 -0.010992 0.000000 0.000000 0.000000
# 2 -0.013588 0.011757 -0.006798 0.000000 0.000000 0.000000
# 3 -0.010992 -0.006798 0.017497 0.000000 0.000000 0.000000
# 4 0.000000 0.000000 0.000000 0.023681 0.000000 0.000000
# 5 0.000000 0.000000 0.000000 0.000000 0.056236 0.000000
# 6 0.000000 0.000000 0.000000 0.000000 0.000000 -0.120370
#
#
# Mechanical properties :
#
#
# Convention : Reuss Voigt Hill
#
# Bulk Modulus (GPa) = 18.97549 77.26720 48.12135
# Shear Modulus (GPa) = 32.19096 20.77678 26.48387
#
# Velocity S-wave (km/s) = 4.25577 3.41901 3.86013
# Velocity P-wave (km/s) = 5.90127 7.68499 6.85143
#
# Compressibility (1/GPa) = 0.05269955
#
# Stress axis : x y z
#
# Youngs Moduli (GPa) = 11.60080 85.05656 57.15259
#
# Poissons Ratio (x) = 1.15572 0.62822
# Poissons Ratio (y) = 0.15763 0.38853
# Poissons Ratio (z) = 0.12752 0.57822
#
# Static dielectric constant tensor:
#      x y z
#    x 2.936210 0.000000 0.000000 
#    y 0.000000 3.717700 0.000000 
#    z 0.000000 0.000000 3.428920 
# 
# 
# High freq. dielectric constant tensor:
#      x y z
#    x 1.643410 0.000000 0.000000 
#    y 0.000000 1.706540 0.000000 
#    z 0.000000 0.000000 1.690590 
# 
# From -- ./inp_files/14300.got.cif
#   From: 2010.03.12/outbox.cif.g09.slc.cpg/sg65_8_cif.got.tgz:14300.got - 2010.04.10 20:52:16.
