data_PCOD8267840
_publ_section_title
;
Structure prediction by ZEFSAII (Michael W. Deem and Ramdas Pophale) SiO2 
 PCOD8267840
Probable space group: C M M M
;
_chemical_formula_sum "Si O2"
_cell_formula_units_Z 96
_cell_length_a 19.274717
_cell_length_b 17.546491
_cell_length_c 16.830218
_cell_angle_alpha 90.000000
_cell_angle_beta 90.000000
_cell_angle_gamma 90.000000
_cell_volume 5692.041130
_symmetry_space_group_name_H-M "C M M M"
_symmetry_group_IT_number 65
_symmetry_cell_setting 'orthorhombic'
loop_
_space_group_symop_operation_xyz
x,y,z
-x,-y,z
x,-y,-z
-x,y,-z
-x,-y,-z
x,y,-z
-x,y,z
x,-y,z
1/2+x,1/2+y,z
1/2-x,1/2-y,z
1/2+x,1/2-y,-z
1/2-x,1/2+y,-z
1/2-x,1/2-y,-z
1/2+x,1/2+y,-z
1/2-x,1/2+y,z
1/2+x,1/2-y,z
loop_
_atom_site_type_symbol
_atom_site_label
_atom_site_fract_x
_atom_site_fract_y
_atom_site_fract_z
Si Si1 0.419421 0.821243 0.590993
Si Si2 0.576583 0.318369 0.312045
Si Si3 0.922639 0.299223 0.168264
Si Si4 0.310817 0.588672 0.231679
Si Si5 0.183522 0.798265 0.909857
Si Si6 0.845920 0.411021 0.273553
O O1 0.399923 0.836583 0.500000
O O2 0.500000 0.840038 0.608805
O O3 0.405142 0.731753 0.609967
O O4 0.372211 0.876493 0.643702
O O5 0.500000 0.356232 0.319773
O O6 0.576706 0.258338 0.241117
O O7 0.633514 0.383393 0.297267
O O8 0.882045 0.258626 0.096435
O O9 0.884810 0.376137 0.197005
O O10 0.000000 0.319235 0.139025
O O11 0.322060 0.500000 0.216224
O O12 0.323522 0.629251 0.147331
O O13 0.235477 0.607168 0.266538
O O14 0.250000 0.750000 0.883354
O O15 0.189458 0.828153 0.000000
O O16 0.861510 0.500000 0.273228
#
# Coordination Sequence:
#
# PCOD8267840 Si02
#       6
#    16  16  16  16  16  16
#     4   9  18  32  51  75 100 129 167 208 249 294
#     4   8  16  31  51  72  96 127 165 208 248 293
#     4   9  17  30  49  72  96 127 166 206 245 293
#     4  10  20  33  51  75 102 131 166 206 246 294
#     4  10  19  33  53  73  95 129 167 204 250 298
#     4  10  19  31  47  71 103 137 169 204 245 293
#
# _framework density 16.865655
#
# number of rings (size 3 to 8) (size 9 to 14) (size 15 to 20)
#    0.000    2.667    1.667    1.500    0.000    2.667 
#    0.000    2.500    0.000    2.000    0.000    8.167 
#    0.000    0.000    0.000    0.000    0.000    0.000 
#
# Total GULP energy -595094.572800 kJ/mol
# GULP energy per Si atom -12397.803600 kJ/mol
# Density = 1.682727 g / cm^3
# Si number density = 16.865655 Si / 1000 Ang^3
#
#
#
# Elastic Constant Matrix: (Units=GPa)
#
#
# Indices 1 2 3 4 5 6 
#
# 1 128.8298 70.4272 32.5369 0.0000 0.0000 0.0000
# 2 70.4272 98.9306 47.9009 0.0000 0.0000 0.0000
# 3 32.5369 47.9009 68.3031 0.0000 0.0000 0.0000
# 4 0.0000 0.0000 0.0000 18.3454 0.0000 0.0000
# 5 0.0000 0.0000 0.0000 0.0000 20.7828 0.0000
# 6 0.0000 0.0000 0.0000 0.0000 0.0000 25.5792
#
#
#
# Elastic Compliance Matrix: (Units=1/GPa)
#
#
# Indices 1 2 3 4 5 6 
#
# 1 0.012716 -0.009266 0.000441 0.000000 0.000000 0.000000
# 2 -0.009266 0.022057 -0.011055 0.000000 0.000000 0.000000
# 3 0.000441 -0.011055 0.022183 0.000000 0.000000 0.000000
# 4 0.000000 0.000000 0.000000 0.054510 0.000000 0.000000
# 5 0.000000 0.000000 0.000000 0.000000 0.048117 0.000000
# 6 0.000000 0.000000 0.000000 0.000000 0.000000 0.039094
#
#
# Mechanical properties :
#
#
# Convention : Reuss Voigt Hill
#
# Bulk Modulus (GPa) = 58.15041 66.42149 62.28595
# Shear Modulus (GPa) = 20.47763 22.62136 21.54950
#
# Velocity S-wave (km/s) = 3.48826 3.66631 3.57839
# Velocity P-wave (km/s) = 7.12583 7.57566 7.35418
#
# Compressibility (1/GPa) = 0.01719678
#
# Stress axis : x y z
#
# Youngs Moduli (GPa) = 78.63952 45.33750 45.07899
#
# Poissons Ratio (x) = 0.42009 -0.01986
# Poissons Ratio (y) = 0.72866 0.49833
# Poissons Ratio (z) = -0.03465 0.50119
#
# Static dielectric constant tensor:
#      x y z
#    x 3.452680 0.000000 0.000000 
#    y 0.000000 3.035470 0.000000 
#    z 0.000000 0.000000 3.038370 
# 
# 
# High freq. dielectric constant tensor:
#      x y z
#    x 1.661420 0.000000 0.000000 
#    y 0.000000 1.635100 0.000000 
#    z 0.000000 0.000000 1.631840 
# 
# From -- ./inp_files/54457.got.cif
#   From: 2010.03.12/outbox.cif.g09.slc.cpg/sg65_28_cif.got.tgz:54457.got - 2010.04.10 20:52:16.
