data_PCOD8267793
_publ_section_title
;
Structure prediction by ZEFSAII (Michael W. Deem and Ramdas Pophale) SiO2 
 PCOD8267793
Probable space group: C M M M
;
_chemical_formula_sum "Si O2"
_cell_formula_units_Z 88
_cell_length_a 19.190149
_cell_length_b 9.428575
_cell_length_c 28.256605
_cell_angle_alpha 90.000000
_cell_angle_beta 90.000000
_cell_angle_gamma 90.000000
_cell_volume 5112.630275
_symmetry_space_group_name_H-M "C M M M"
_symmetry_group_IT_number 65
_symmetry_cell_setting 'orthorhombic'
loop_
_space_group_symop_operation_xyz
x,y,z
-x,-y,z
x,-y,-z
-x,y,-z
-x,-y,-z
x,y,-z
-x,y,z
x,-y,z
1/2+x,1/2+y,z
1/2-x,1/2-y,z
1/2+x,1/2-y,-z
1/2-x,1/2+y,-z
1/2-x,1/2-y,-z
1/2+x,1/2+y,-z
1/2-x,1/2+y,z
1/2+x,1/2-y,z
loop_
_atom_site_type_symbol
_atom_site_label
_atom_site_fract_x
_atom_site_fract_y
_atom_site_fract_z
Si Si1 0.917255 0.342009 0.811823
Si Si2 0.177316 0.669219 0.000000
Si Si3 0.916901 0.840112 0.274752
Si Si4 0.817508 0.335481 0.553489
Si Si5 0.419702 0.163952 0.635834
Si Si6 0.077595 0.331618 0.083647
O O1 0.886357 0.500000 0.803681
O O2 0.886634 0.236758 0.772066
O O3 0.897263 0.283114 0.864005
O O4 0.000000 0.350189 0.807869
O O5 0.250000 0.750000 0.000000
O O6 0.133643 0.721426 0.954428
O O7 0.189412 0.500000 0.000000
O O8 0.889993 0.757088 0.320985
O O9 0.000000 0.838502 0.273499
O O10 0.887857 0.000000 0.276098
O O11 0.839766 0.294994 0.500000
O O12 0.798784 0.500000 0.557476
O O13 0.750000 0.250000 0.569800
O O14 0.880450 0.293544 0.587873
O O15 0.500000 0.198270 0.626223
O O16 0.408541 0.000000 0.649403
O O17 0.072565 0.500000 0.082570
O O18 0.000000 0.270544 0.072171
#
# Coordination Sequence:
#
# PCOD8267793 Si02
#       6
#    16   8  16  16  16  16
#     4   8  13  23  41  64  87 111 144 186 226 261
#     4  10  19  31  47  67  93 122 150 182 224 272
#     4   9  16  25  39  63  94 122 146 177 222 271
#     4   9  18  32  49  68  90 118 151 186 225 268
#     4   9  17  29  46  68  93 121 152 185 220 260
#     4   8  14  26  47  71  89 112 152 194 222 252
#
# _framework density 17.212275000000002
#
# number of rings (size 3 to 8) (size 9 to 14) (size 15 to 20)
#    0.000    3.273    0.000    1.909    0.000    4.364 
#    0.000    2.727    0.000    3.273    0.000    7.636 
#    0.000    0.000    0.000    0.000    0.000    0.000 
#
# Total GULP energy -545402.519769 kJ/mol
# GULP energy per Si atom -12395.511813 kJ/mol
# Density = 1.717310 g / cm^3
# Si number density = 17.212275 Si / 1000 Ang^3
#
#
#
# Elastic Constant Matrix: (Units=GPa)
#
#
# Indices 1 2 3 4 5 6 
#
# 1 65.6597 35.0621 64.6217 0.0000 0.0000 0.0000
# 2 35.0621 72.0417 66.2759 0.0000 0.0000 0.0000
# 3 64.6217 66.2759 160.2068 0.0000 0.0000 0.0000
# 4 0.0000 0.0000 0.0000 17.8655 0.0000 0.0000
# 5 0.0000 0.0000 0.0000 0.0000 4.9167 0.0000
# 6 0.0000 0.0000 0.0000 0.0000 0.0000 19.7707
#
#
#
# Elastic Compliance Matrix: (Units=1/GPa)
#
#
# Indices 1 2 3 4 5 6 
#
# 1 0.026289 -0.004907 -0.008574 0.000000 0.000000 0.000000
# 2 -0.004907 0.023325 -0.007670 0.000000 0.000000 0.000000
# 3 -0.008574 -0.007670 0.012874 0.000000 0.000000 0.000000
# 4 0.000000 0.000000 0.000000 0.055974 0.000000 0.000000
# 5 0.000000 0.000000 0.000000 0.000000 0.203390 0.000000
# 6 0.000000 0.000000 0.000000 0.000000 0.000000 0.050580
#
#
# Mechanical properties :
#
#
# Convention : Reuss Voigt Hill
#
# Bulk Modulus (GPa) = 49.54044 69.98082 59.76063
# Shear Modulus (GPa) = 11.86348 17.30714 14.58531
#
# Velocity S-wave (km/s) = 2.62820 3.17442 2.91413
# Velocity P-wave (km/s) = 6.16883 7.36082 6.79103
#
# Compressibility (1/GPa) = 0.02018553
#
# Stress axis : x y z
#
# Youngs Moduli (GPa) = 38.03907 42.87201 77.67876
#
# Poissons Ratio (x) = 0.21036 0.66603
# Poissons Ratio (y) = 0.18664 0.59582
# Poissons Ratio (z) = 0.32615 0.32884
#
# Static dielectric constant tensor:
#      x y z
#    x 2.860070 0.000000 0.000000 
#    y 0.000000 3.135120 0.000000 
#    z 0.000000 0.000000 3.598650 
# 
# 
# High freq. dielectric constant tensor:
#      x y z
#    x 1.616310 0.000000 0.000000 
#    y 0.000000 1.644310 0.000000 
#    z 0.000000 0.000000 1.681230 
# 
# From -- ./inp_files/76815.got.cif
#   From: 2010.03.12/outbox.cif.g09.slc.cpg/sg65_39_cif.got.tgz:76815.got - 2010.04.10 20:52:16.
