data_PCOD8267339
_publ_section_title
;
Structure prediction by ZEFSAII (Michael W. Deem and Ramdas Pophale) SiO2 
 PCOD8267339
Probable space group: C M M M
;
_chemical_formula_sum "Si O2"
_cell_formula_units_Z 112
_cell_length_a 27.160108
_cell_length_b 25.017387
_cell_length_c 10.092746
_cell_angle_alpha 90.000000
_cell_angle_beta 90.000000
_cell_angle_gamma 90.000000
_cell_volume 6857.767910
_symmetry_space_group_name_H-M "C M M M"
_symmetry_group_IT_number 65
_symmetry_cell_setting 'orthorhombic'
loop_
_space_group_symop_operation_xyz
x,y,z
-x,-y,z
x,-y,-z
-x,y,-z
-x,-y,-z
x,y,-z
-x,y,z
x,-y,z
1/2+x,1/2+y,z
1/2-x,1/2-y,z
1/2+x,1/2-y,-z
1/2-x,1/2+y,-z
1/2-x,1/2-y,-z
1/2+x,1/2+y,-z
1/2-x,1/2+y,z
1/2+x,1/2-y,z
loop_
_atom_site_type_symbol
_atom_site_label
_atom_site_fract_x
_atom_site_fract_y
_atom_site_fract_z
Si Si1 0.230532 0.305369 0.747294
Si Si2 0.206812 0.587472 0.145021
Si Si3 0.631890 0.239221 0.348669
Si Si4 0.945057 0.656335 0.657712
Si Si5 0.329747 0.650843 0.651860
Si Si6 0.816598 0.940329 0.150706
Si Si7 0.877525 0.439578 0.347601
O O1 0.250000 0.250000 0.813571
O O2 0.215835 0.348445 0.858175
O O3 0.182588 0.293727 0.659469
O O4 0.272576 0.331429 0.654782
O O5 0.258046 0.557813 0.171554
O O6 0.170484 0.569057 0.259424
O O7 0.185860 0.571695 0.000000
O O8 0.618152 0.246268 0.500000
O O9 0.587588 0.205177 0.281519
O O10 0.637613 0.299370 0.291261
O O11 0.946854 0.660048 0.500000
O O12 0.920799 0.599978 0.699832
O O13 0.000000 0.659551 0.717875
O O14 0.342907 0.636167 0.500000
O O15 0.341641 0.600586 0.746163
O O16 0.837077 0.000000 0.178136
O O17 0.829002 0.922356 0.000000
O O18 0.862669 0.427909 0.500000
O O19 0.897055 0.500000 0.330805
#
# Coordination Sequence:
#
# PCOD8267339 Si02
#       7
#    16  16  16  16  16  16  16
#     4   9  16  26  41  62  88 115 145 179 219 260
#     4  10  19  30  44  63  87 117 150 183 222 264
#     4   9  15  26  43  64  91 114 139 178 223 267
#     4   9  17  29  47  68  89 114 144 182 228 271
#     4   9  17  26  42  67  89 114 147 180 216 256
#     4   9  18  31  43  58  88 126 155 179 211 254
#     4  10  20  32  47  66  86 111 148 192 230 264
#
# _framework density 16.331845000000001
#
# number of rings (size 3 to 8) (size 9 to 14) (size 15 to 20)
#    0.000    2.714    1.429    0.857    0.000    5.714 
#    0.000    3.571    0.000    0.429    0.000    1.000 
#    0.000    0.571    0.000    7.143    0.000    1.143 
#
# Total GULP energy -693896.292239 kJ/mol
# GULP energy per Si atom -12391.005219 kJ/mol
# Density = 1.629467 g / cm^3
# Si number density = 16.331845 Si / 1000 Ang^3
#
#
#
# Elastic Constant Matrix: (Units=GPa)
#
#
# Indices 1 2 3 4 5 6 
#
# 1 58.3601 40.2021 18.8399 0.0000 0.0000 0.0000
# 2 40.2021 129.8384 43.1575 0.0000 0.0000 0.0000
# 3 18.8399 43.1575 57.6171 0.0000 0.0000 0.0000
# 4 0.0000 0.0000 0.0000 15.4285 0.0000 0.0000
# 5 0.0000 0.0000 0.0000 0.0000 8.0077 0.0000
# 6 0.0000 0.0000 0.0000 0.0000 0.0000 16.0142
#
#
#
# Elastic Compliance Matrix: (Units=1/GPa)
#
#
# Indices 1 2 3 4 5 6 
#
# 1 0.022115 -0.005917 -0.002799 0.000000 0.000000 0.000000
# 2 -0.005917 0.011838 -0.006933 0.000000 0.000000 0.000000
# 3 -0.002799 -0.006933 0.023464 0.000000 0.000000 0.000000
# 4 0.000000 0.000000 0.000000 0.064815 0.000000 0.000000
# 5 0.000000 0.000000 0.000000 0.000000 0.124880 0.000000
# 6 0.000000 0.000000 0.000000 0.000000 0.000000 0.062445
#
#
# Mechanical properties :
#
#
# Convention : Reuss Voigt Hill
#
# Bulk Modulus (GPa) = 38.28542 50.02384 44.15463
# Shear Modulus (GPa) = 14.30367 17.46447 15.88407
#
# Velocity S-wave (km/s) = 2.96263 3.27364 3.12201
# Velocity P-wave (km/s) = 5.93262 6.70709 6.33171
#
# Compressibility (1/GPa) = 0.02611961
#
# Stress axis : x y z
#
# Youngs Moduli (GPa) = 45.21900 84.47139 42.61840
#
# Poissons Ratio (x) = 0.49982 0.11929
# Poissons Ratio (y) = 0.26756 0.29546
# Poissons Ratio (z) = 0.12657 0.58561
#
# Static dielectric constant tensor:
#      x y z
#    x 2.938700 0.000000 0.000000 
#    y 0.000000 3.437170 0.000000 
#    z 0.000000 0.000000 2.800040 
# 
# 
# High freq. dielectric constant tensor:
#      x y z
#    x 1.579580 0.000000 0.000000 
#    y 0.000000 1.644670 0.000000 
#    z 0.000000 0.000000 1.597710 
# 
# From -- ./inp_files/32917.got.cif
#   From: 2010.03.12/outbox.cif.g09.slc.cpg/sg65_17_cif.got.tgz:32917.got - 2010.04.10 20:52:16.
