data_PCOD8267094
_publ_section_title
;
Structure prediction by ZEFSAII (Michael W. Deem and Ramdas Pophale) SiO2 
 PCOD8267094
Probable space group: C M M M
;
_chemical_formula_sum "Si O2"
_cell_formula_units_Z 72
_cell_length_a 10.379832
_cell_length_b 22.754718
_cell_length_c 17.140781
_cell_angle_alpha 90.000000
_cell_angle_beta 90.000000
_cell_angle_gamma 90.000000
_cell_volume 4048.483636
_symmetry_space_group_name_H-M "C M M M"
_symmetry_group_IT_number 65
_symmetry_cell_setting 'orthorhombic'
loop_
_space_group_symop_operation_xyz
x,y,z
-x,-y,z
x,-y,-z
-x,y,-z
-x,-y,-z
x,y,-z
-x,y,z
x,-y,z
1/2+x,1/2+y,z
1/2-x,1/2-y,z
1/2+x,1/2-y,-z
1/2-x,1/2+y,-z
1/2-x,1/2-y,-z
1/2+x,1/2+y,-z
1/2-x,1/2+y,z
1/2+x,1/2-y,z
loop_
_atom_site_type_symbol
_atom_site_label
_atom_site_fract_x
_atom_site_fract_y
_atom_site_fract_z
Si Si1 0.000000 0.803612 0.590202
Si Si2 0.748148 0.150682 0.680129
Si Si3 0.153352 0.066488 0.802288
Si Si4 0.500000 0.835834 0.411809
Si Si5 0.750000 0.250000 0.798457
Si Si6 0.145734 0.164391 0.084858
O O1 0.871265 0.825880 0.632462
O O2 0.000000 0.824622 0.500000
O O3 0.000000 0.733959 0.595657
O O4 0.787368 0.090123 0.721612
O O5 0.628659 0.136654 0.624827
O O6 0.696127 0.198565 0.743083
O O7 0.206987 0.107069 0.872998
O O8 0.000000 0.071032 0.795717
O O9 0.199600 0.000000 0.816454
O O10 0.500000 0.856799 0.500000
O O11 0.852978 0.220832 0.857547
O O12 0.000000 0.149152 0.067834
O O13 0.213926 0.175305 0.000000
#
# Coordination Sequence:
#
# PCOD8267094 Si02
#       6
#     8  16  16   8   8  16
#     4  11  20  34  53  79 111 140 169 210 259 313
#     4  11  20  33  54  78 109 137 176 215 255 309
#     4   9  18  33  54  76  99 136 180 220 260 303
#     4  11  22  34  51  81 111 140 167 208 265 317
#     4  10  19  28  49  70 108 138 170 202 253 306
#     4   9  18  30  47  74 106 136 170 214 259 307
#
# _framework density 17.784435999999999
#
# number of rings (size 3 to 8) (size 9 to 14) (size 15 to 20)
#    0.000    2.000    3.333    1.000    3.111    2.222 
#    0.000    2.778    0.000    4.000    0.000    0.000 
#    0.000    4.000    0.000    0.000    0.000    0.000 
#
# Total GULP energy -446046.008985 kJ/mol
# GULP energy per Si atom -12390.166916 kJ/mol
# Density = 1.774396 g / cm^3
# Si number density = 17.784436 Si / 1000 Ang^3
#
#
#
# Elastic Constant Matrix: (Units=GPa)
#
#
# Indices 1 2 3 4 5 6 
#
# 1 75.2445 19.3476 46.5100 0.0000 0.0000 0.0000
# 2 19.3476 87.7221 48.6088 0.0000 0.0000 0.0000
# 3 46.5100 48.6088 147.0076 0.0000 0.0000 0.0000
# 4 0.0000 0.0000 0.0000 17.0310 0.0000 0.0000
# 5 0.0000 0.0000 0.0000 0.0000 22.0144 0.0000
# 6 0.0000 0.0000 0.0000 0.0000 0.0000 16.0605
#
#
#
# Elastic Compliance Matrix: (Units=1/GPa)
#
#
# Indices 1 2 3 4 5 6 
#
# 1 0.016581 -0.000918 -0.004942 0.000000 0.000000 0.000000
# 2 -0.000918 0.014008 -0.004341 0.000000 0.000000 0.000000
# 3 -0.004942 -0.004341 0.009801 0.000000 0.000000 0.000000
# 4 0.000000 0.000000 0.000000 0.058716 0.000000 0.000000
# 5 0.000000 0.000000 0.000000 0.000000 0.045425 0.000000
# 6 0.000000 0.000000 0.000000 0.000000 0.000000 0.062264
#
#
# Mechanical properties :
#
#
# Convention : Reuss Voigt Hill
#
# Bulk Modulus (GPa) = 50.03358 59.87854 54.95606
# Shear Modulus (GPa) = 21.38018 24.05505 22.71761
#
# Velocity S-wave (km/s) = 3.47102 3.68175 3.57793
# Velocity P-wave (km/s) = 6.65270 7.19832 6.93088
#
# Compressibility (1/GPa) = 0.01998658
#
# Stress axis : x y z
#
# Youngs Moduli (GPa) = 60.30987 71.38909 102.02633
#
# Poissons Ratio (x) = 0.06557 0.50423
# Poissons Ratio (y) = 0.05539 0.44291
# Poissons Ratio (z) = 0.29806 0.30991
#
# Static dielectric constant tensor:
#      x y z
#    x 3.033390 0.000000 0.000000 
#    y 0.000000 3.200100 0.000000 
#    z 0.000000 0.000000 3.815880 
# 
# 
# High freq. dielectric constant tensor:
#      x y z
#    x 1.656640 0.000000 0.000000 
#    y 0.000000 1.665490 0.000000 
#    z 0.000000 0.000000 1.709230 
# 
# From -- ./inp_files/49570.got.cif
#   From: 2010.03.12/outbox.cif.g09.slc.cpg/sg65_25_cif.got.tgz:49570.got - 2010.04.10 20:52:16.
