data_PCOD8267555
_publ_section_title
;
Structure prediction by ZEFSAII (Michael W. Deem and Ramdas Pophale) SiO2 
 PCOD8267555
Probable space group: C M M M
;
_chemical_formula_sum "Si O2"
_cell_formula_units_Z 72
_cell_length_a 25.165475
_cell_length_b 9.072441
_cell_length_c 16.966885
_cell_angle_alpha 90.000000
_cell_angle_beta 90.000000
_cell_angle_gamma 90.000000
_cell_volume 3873.748321
_symmetry_space_group_name_H-M "C M M M"
_symmetry_group_IT_number 65
_symmetry_cell_setting 'orthorhombic'
loop_
_space_group_symop_operation_xyz
x,y,z
-x,-y,z
x,-y,-z
-x,y,-z
-x,-y,-z
x,y,-z
-x,y,z
x,-y,z
1/2+x,1/2+y,z
1/2-x,1/2-y,z
1/2+x,1/2-y,-z
1/2-x,1/2+y,-z
1/2-x,1/2-y,-z
1/2+x,1/2+y,-z
1/2-x,1/2+y,z
1/2+x,1/2-y,z
loop_
_atom_site_type_symbol
_atom_site_label
_atom_site_fract_x
_atom_site_fract_y
_atom_site_fract_z
Si Si1 0.083267 0.826024 0.803882
Si Si2 0.000000 0.669719 0.906980
Si Si3 0.441274 0.167714 0.354175
Si Si4 0.301878 0.670926 0.750195
Si Si5 0.346390 0.329964 0.586032
O O1 0.057883 0.764673 0.724509
O O2 0.146575 0.790222 0.803271
O O3 0.053819 0.747880 0.876518
O O4 0.073272 0.000000 0.808781
O O5 0.000000 0.500000 0.879072
O O6 0.000000 0.683705 0.000000
O O7 0.500000 0.172962 0.391873
O O8 0.400330 0.235613 0.416490
O O9 0.424894 0.000000 0.333806
O O10 0.289568 0.500000 0.752745
O O11 0.250000 0.750000 0.785366
O O12 0.310196 0.723927 0.659040
O O13 0.318387 0.309323 0.500000
O O14 0.361730 0.500000 0.600778
#
# Coordination Sequence:
#
# PCOD8267555 Si02
#       5
#    16   8  16  16  16
#     4  10  20  35  56  80 109 143 180 216 254 312
#     4  11  23  37  57  89 122 145 168 205 257 309
#     4  10  19  30  47  71 100 134 175 222 270 318
#     4   9  19  34  53  78 103 136 182 227 270 315
#     4   9  19  34  48  66  97 136 180 227 275 326
#
# _framework density 18.586649999999999
#
# number of rings (size 3 to 8) (size 9 to 14) (size 15 to 20)
#    0.000    2.333    1.111    3.000    0.000    8.000 
#    0.000    2.222    0.000    0.667    0.000    0.000 
#    0.000    0.000    0.000    0.000    0.000    0.000 
#
# Total GULP energy -446215.876515 kJ/mol
# GULP energy per Si atom -12394.885459 kJ/mol
# Density = 1.854435 g / cm^3
# Si number density = 18.586650 Si / 1000 Ang^3
#
#
#
# Elastic Constant Matrix: (Units=GPa)
#
#
# Indices 1 2 3 4 5 6 
#
# 1 126.7272 54.8151 29.2747 0.0000 0.0000 0.0000
# 2 54.8151 93.4368 31.5709 0.0000 0.0000 0.0000
# 3 29.2747 31.5709 65.5830 0.0000 0.0000 0.0000
# 4 0.0000 0.0000 0.0000 23.3576 0.0000 0.0000
# 5 0.0000 0.0000 0.0000 0.0000 17.4558 0.0000
# 6 0.0000 0.0000 0.0000 0.0000 0.0000 33.7766
#
#
#
# Elastic Compliance Matrix: (Units=1/GPa)
#
#
# Indices 1 2 3 4 5 6 
#
# 1 0.010815 -0.005629 -0.002118 0.000000 0.000000 0.000000
# 2 -0.005629 0.015711 -0.005051 0.000000 0.000000 0.000000
# 3 -0.002118 -0.005051 0.018624 0.000000 0.000000 0.000000
# 4 0.000000 0.000000 0.000000 0.042813 0.000000 0.000000
# 5 0.000000 0.000000 0.000000 0.000000 0.057288 0.000000
# 6 0.000000 0.000000 0.000000 0.000000 0.000000 0.029606
#
#
# Mechanical properties :
#
#
# Convention : Reuss Voigt Hill
#
# Bulk Modulus (GPa) = 51.13545 57.45204 54.29375
# Shear Modulus (GPa) = 24.15802 26.25709 25.20755
#
# Velocity S-wave (km/s) = 3.60912 3.76265 3.68668
# Velocity P-wave (km/s) = 6.70368 7.06075 6.88453
#
# Compressibility (1/GPa) = 0.01955590
#
# Stress axis : x y z
#
# Youngs Moduli (GPa) = 92.46390 63.64860 53.69290
#
# Poissons Ratio (x) = 0.35829 0.11371
# Poissons Ratio (y) = 0.52049 0.27118
# Poissons Ratio (z) = 0.19582 0.32146
#
# Static dielectric constant tensor:
#      x y z
#    x 3.482560 0.000000 0.000000 
#    y 0.000000 3.518210 0.000000 
#    z 0.000000 0.000000 3.120360 
# 
# 
# High freq. dielectric constant tensor:
#      x y z
#    x 1.717700 0.000000 0.000000 
#    y 0.000000 1.731210 0.000000 
#    z 0.000000 0.000000 1.684300 
# 
# From -- ./inp_files/46509.got.cif
#   From: 2010.03.12/outbox.cif.g09.slc.cpg/sg65_24_cif.got.tgz:46509.got - 2010.04.10 20:52:16.
