data_PCOD8267960
_publ_section_title
;
Structure prediction by ZEFSAII (Michael W. Deem and Ramdas Pophale) SiO2 
 PCOD8267960
Probable space group: C M M M
;
_chemical_formula_sum "Si O2"
_cell_formula_units_Z 104
_cell_length_a 9.305956
_cell_length_b 26.097879
_cell_length_c 23.391633
_cell_angle_alpha 90.000000
_cell_angle_beta 90.000000
_cell_angle_gamma 90.000000
_cell_volume 5681.025642
_symmetry_space_group_name_H-M "C M M M"
_symmetry_group_IT_number 65
_symmetry_cell_setting 'orthorhombic'
loop_
_space_group_symop_operation_xyz
x,y,z
-x,-y,z
x,-y,-z
-x,y,-z
-x,-y,-z
x,y,-z
-x,y,z
x,-y,z
1/2+x,1/2+y,z
1/2-x,1/2-y,z
1/2+x,1/2-y,-z
1/2-x,1/2+y,-z
1/2-x,1/2-y,-z
1/2+x,1/2+y,-z
1/2-x,1/2+y,z
1/2+x,1/2-y,z
loop_
_atom_site_type_symbol
_atom_site_label
_atom_site_fract_x
_atom_site_fract_y
_atom_site_fract_z
Si Si1 0.166275 0.404721 0.935928
Si Si2 0.669493 0.302906 0.650961
Si Si3 0.667631 0.340472 0.223592
Si Si4 0.342743 0.500000 0.567805
Si Si5 0.835354 0.056150 0.832410
Si Si6 0.828281 0.889550 0.564296
Si Si7 0.832969 0.297763 0.880595
O O1 0.249016 0.439899 0.891352
O O2 0.192766 0.345173 0.922396
O O3 0.000000 0.418638 0.930318
O O4 0.221976 0.415786 0.000000
O O5 0.500000 0.293553 0.644741
O O6 0.750000 0.250000 0.639019
O O7 0.710345 0.325111 0.712689
O O8 0.727095 0.344617 0.605520
O O9 0.500000 0.329908 0.211246
O O10 0.706953 0.400540 0.213813
O O11 0.763955 0.306847 0.181590
O O12 0.500000 0.500000 0.596909
O O13 0.360509 0.500000 0.500000
O O14 0.265737 0.445771 0.584669
O O15 0.000000 0.062626 0.849942
O O16 0.805162 0.000000 0.805305
O O17 0.775760 0.876770 0.500000
O O18 0.000000 0.893129 0.566153
O O19 0.750000 0.250000 0.909070
O O20 0.000000 0.285112 0.872396
#
# Coordination Sequence:
#
# PCOD8267960 Si02
#       7
#    16  16  16   8  16  16  16
#     4   9  19  34  49  68  95 124 155 190 228 277
#     4  10  20  32  47  70  98 129 163 199 239 286
#     4   9  18  33  49  67  93 123 158 195 235 284
#     4   7  10  20  40  64  91 121 151 189 236 279
#     4   9  18  33  51  70  94 122 152 192 240 285
#     4   8  14  26  44  68  98 128 159 198 243 288
#     4  10  19  31  49  70  91 120 156 193 235 279
#
# _framework density 18.306553000000001
#
# number of rings (size 3 to 8) (size 9 to 14) (size 15 to 20)
#    0.000    3.000    0.000    1.846    0.000    4.000 
#    1.385    1.538    0.000    0.000    0.000    0.538 
#    0.000    1.846    0.000    0.000    0.000    0.000 
#
# Total GULP energy -644467.476198 kJ/mol
# GULP energy per Si atom -12393.605312 kJ/mol
# Density = 1.826489 g / cm^3
# Si number density = 18.306553 Si / 1000 Ang^3
#
#
#
# Elastic Constant Matrix: (Units=GPa)
#
#
# Indices 1 2 3 4 5 6 
#
# 1 36.5158 27.5242 13.1020 0.0000 0.0000 0.0000
# 2 27.5242 134.2363 40.9973 0.0000 0.0000 0.0000
# 3 13.1020 40.9973 72.6778 0.0000 0.0000 0.0000
# 4 0.0000 0.0000 0.0000 17.7444 0.0000 0.0000
# 5 0.0000 0.0000 0.0000 0.0000 13.4714 0.0000
# 6 0.0000 0.0000 0.0000 0.0000 0.0000 24.4856
#
#
#
# Elastic Compliance Matrix: (Units=1/GPa)
#
#
# Indices 1 2 3 4 5 6 
#
# 1 0.032781 -0.005940 -0.002559 0.000000 0.000000 0.000000
# 2 -0.005940 0.010076 -0.004613 0.000000 0.000000 0.000000
# 3 -0.002559 -0.004613 0.016823 0.000000 0.000000 0.000000
# 4 0.000000 0.000000 0.000000 0.056356 0.000000 0.000000
# 5 0.000000 0.000000 0.000000 0.000000 0.074231 0.000000
# 6 0.000000 0.000000 0.000000 0.000000 0.000000 0.040840
#
#
# Mechanical properties :
#
#
# Convention : Reuss Voigt Hill
#
# Bulk Modulus (GPa) = 29.88991 45.18634 37.53812
# Shear Modulus (GPa) = 18.62307 21.92737 20.27522
#
# Velocity S-wave (km/s) = 3.19296 3.46466 3.33158
# Velocity P-wave (km/s) = 5.47323 6.38294 5.94551
#
# Compressibility (1/GPa) = 0.03345611
#
# Stress axis : x y z
#
# Youngs Moduli (GPa) = 30.50557 99.24140 59.44252
#
# Poissons Ratio (x) = 0.58949 0.15211
# Poissons Ratio (y) = 0.18120 0.27422
# Poissons Ratio (z) = 0.07806 0.45783
#
# Static dielectric constant tensor:
#      x y z
#    x 3.114360 0.000000 0.000000 
#    y 0.000000 3.747940 0.000000 
#    z 0.000000 0.000000 3.265740 
# 
# 
# High freq. dielectric constant tensor:
#      x y z
#    x 1.675570 0.000000 0.000000 
#    y 0.000000 1.728340 0.000000 
#    z 0.000000 0.000000 1.690480 
# 
# From -- ./inp_files/68220.got.cif
#   From: 2010.03.12/outbox.cif.g09.slc.cpg/sg65_35_cif.got.tgz:68220.got - 2010.04.10 20:52:16.
