data_PCOD8267908
_publ_section_title
;
Structure prediction by ZEFSAII (Michael W. Deem and Ramdas Pophale) SiO2 
 PCOD8267908
Probable space group: C M M M
;
_chemical_formula_sum "Si O2"
_cell_formula_units_Z 128
_cell_length_a 19.381276
_cell_length_b 19.059000
_cell_length_c 20.040555
_cell_angle_alpha 90.000000
_cell_angle_beta 90.000000
_cell_angle_gamma 90.000000
_cell_volume 7402.735305
_symmetry_space_group_name_H-M "C M M M"
_symmetry_group_IT_number 65
_symmetry_cell_setting 'orthorhombic'
loop_
_space_group_symop_operation_xyz
x,y,z
-x,-y,z
x,-y,-z
-x,y,-z
-x,-y,-z
x,y,-z
-x,y,z
x,-y,z
1/2+x,1/2+y,z
1/2-x,1/2-y,z
1/2+x,1/2-y,-z
1/2-x,1/2+y,-z
1/2-x,1/2-y,-z
1/2+x,1/2+y,-z
1/2-x,1/2+y,z
1/2+x,1/2-y,z
loop_
_atom_site_type_symbol
_atom_site_label
_atom_site_fract_x
_atom_site_fract_y
_atom_site_fract_z
Si Si1 0.074788 0.748668 0.338027
Si Si2 0.692150 0.919973 0.074688
Si Si3 0.580846 0.686849 0.202506
Si Si4 0.783190 0.576220 0.320419
Si Si5 0.926659 0.399007 0.268766
Si Si6 0.077771 0.332498 0.132380
Si Si7 0.691267 0.194285 0.426570
Si Si8 0.200585 0.917936 0.810670
O O1 0.097446 0.804552 0.281678
O O2 0.068279 0.677602 0.298220
O O3 0.127878 0.739115 0.397829
O O4 0.000000 0.769544 0.368473
O O5 0.630118 0.863038 0.077562
O O6 0.751045 0.898478 0.127152
O O7 0.666705 0.000000 0.088849
O O8 0.723055 0.914993 0.000000
O O9 0.500000 0.668359 0.192319
O O10 0.600455 0.756009 0.159826
O O11 0.628996 0.623166 0.178822
O O12 0.754396 0.500000 0.344090
O O13 0.861962 0.560464 0.298695
O O14 0.781686 0.631157 0.380563
O O15 0.739272 0.605288 0.257826
O O16 0.917982 0.391213 0.189854
O O17 0.000000 0.437928 0.284285
O O18 0.000000 0.327993 0.103198
O O19 0.671340 0.164252 0.500000
O O20 0.750000 0.250000 0.434868
O O21 0.183146 0.000000 0.808770
#
# Coordination Sequence:
#
# PCOD8267908 Si02
#       8
#    16  16  16  16  16  16  16  16
#     4   8  15  29  48  70  95 124 160 200 244 290
#     4  10  21  36  51  72 106 141 171 206 250 300
#     4   9  18  33  54  78 100 125 164 216 265 305
#     4  10  19  31  48  71  97 128 169 209 245 290
#     4   8  14  26  44  67  96 126 156 194 235 279
#     4   9  17  31  50  73 100 130 167 205 245 295
#     4  10  20  32  47  70  99 130 165 201 243 299
#     4  10  20  34  52  75 101 132 172 213 257 311
#
# _framework density 17.290906
#
# number of rings (size 3 to 8) (size 9 to 14) (size 15 to 20)
#    0.000    2.750    1.250    2.250    0.000    2.000 
#    0.000    3.125    0.000    1.125    0.000    5.250 
#    0.000    0.000    0.000   23.250    0.000    0.000 
#
# Total GULP energy -792927.329503 kJ/mol
# GULP energy per Si atom -12389.489523 kJ/mol
# Density = 1.725155 g / cm^3
# Si number density = 17.290906 Si / 1000 Ang^3
#
#
#
# Elastic Constant Matrix: (Units=GPa)
#
#
# Indices 1 2 3 4 5 6 
#
# 1 90.3655 46.7543 49.9289 0.0000 0.0000 0.0000
# 2 46.7543 69.8530 36.3067 0.0000 0.0000 0.0000
# 3 49.9289 36.3067 96.3554 0.0000 0.0000 0.0000
# 4 0.0000 0.0000 0.0000 19.0395 0.0000 0.0000
# 5 0.0000 0.0000 0.0000 0.0000 15.7269 0.0000
# 6 0.0000 0.0000 0.0000 0.0000 0.0000 18.9554
#
#
#
# Elastic Compliance Matrix: (Units=1/GPa)
#
#
# Indices 1 2 3 4 5 6 
#
# 1 0.019765 -0.009831 -0.006537 0.000000 0.000000 0.000000
# 2 -0.009831 0.022693 -0.003456 0.000000 0.000000 0.000000
# 3 -0.006537 -0.003456 0.015068 0.000000 0.000000 0.000000
# 4 0.000000 0.000000 0.000000 0.052522 0.000000 0.000000
# 5 0.000000 0.000000 0.000000 0.000000 0.063585 0.000000
# 6 0.000000 0.000000 0.000000 0.000000 0.000000 0.052755
#
#
# Mechanical properties :
#
#
# Convention : Reuss Voigt Hill
#
# Bulk Modulus (GPa) = 55.94134 58.06153 57.00143
# Shear Modulus (GPa) = 18.38263 18.98330 18.68296
#
# Velocity S-wave (km/s) = 3.26412 3.31702 3.29067
# Velocity P-wave (km/s) = 6.82856 6.95142 6.89026
#
# Compressibility (1/GPa) = 0.01787587
#
# Stress axis : x y z
#
# Youngs Moduli (GPa) = 50.59523 44.06742 66.36607
#
# Poissons Ratio (x) = 0.43324 0.43385
# Poissons Ratio (y) = 0.49742 0.22938
# Poissons Ratio (z) = 0.33075 0.15231
#
# Static dielectric constant tensor:
#      x y z
#    x 3.081850 0.000000 0.000000 
#    y 0.000000 2.835930 0.000000 
#    z 0.000000 0.000000 3.225490 
# 
# 
# High freq. dielectric constant tensor:
#      x y z
#    x 1.665570 0.000000 0.000000 
#    y 0.000000 1.654110 0.000000 
#    z 0.000000 0.000000 1.649050 
# 
# From -- ./inp_files/64150.got.cif
#   From: 2010.03.12/outbox.cif.g09.slc.cpg/sg65_33_cif.got.tgz:64150.got - 2010.04.10 20:52:16.
