data_PCOD8267682
_publ_section_title
;
Structure prediction by ZEFSAII (Michael W. Deem and Ramdas Pophale) SiO2 
 PCOD8267682
Probable space group: C M M M
;
_chemical_formula_sum "Si O2"
_cell_formula_units_Z 80
_cell_length_a 28.811011
_cell_length_b 8.045090
_cell_length_c 22.117321
_cell_angle_alpha 90.000000
_cell_angle_beta 90.000000
_cell_angle_gamma 90.000000
_cell_volume 5126.511386
_symmetry_space_group_name_H-M "C M M M"
_symmetry_group_IT_number 65
_symmetry_cell_setting 'orthorhombic'
loop_
_space_group_symop_operation_xyz
x,y,z
-x,-y,z
x,-y,-z
-x,y,-z
-x,-y,-z
x,y,-z
-x,y,z
x,-y,z
1/2+x,1/2+y,z
1/2-x,1/2-y,z
1/2+x,1/2-y,-z
1/2-x,1/2+y,-z
1/2-x,1/2-y,-z
1/2+x,1/2+y,-z
1/2-x,1/2+y,z
1/2+x,1/2-y,z
loop_
_atom_site_type_symbol
_atom_site_label
_atom_site_fract_x
_atom_site_fract_y
_atom_site_fract_z
Si Si1 0.105526 0.192725 0.381951
Si Si2 0.055161 0.183888 0.857862
Si Si3 0.945327 0.307334 0.500000
Si Si4 0.552023 0.190050 0.268675
Si Si5 0.201110 0.195906 0.432315
Si Si6 0.444611 0.000000 0.068583
O O1 0.074918 0.218989 0.441246
O O2 0.085144 0.293034 0.325976
O O3 0.157757 0.261636 0.393118
O O4 0.105504 0.000000 0.364863
O O5 0.071453 0.206756 0.788395
O O6 0.075357 0.332022 0.899791
O O7 0.000000 0.194910 0.859850
O O8 0.071825 0.000000 0.880104
O O9 0.931488 0.500000 0.500000
O O10 0.000000 0.281698 0.500000
O O11 0.500000 0.249650 0.286549
O O12 0.550777 0.000000 0.247668
O O13 0.197913 0.272871 0.500000
O O14 0.250000 0.250000 0.402059
O O15 0.197619 0.000000 0.436370
O O16 0.500000 0.000000 0.071289
O O17 0.426558 0.000000 0.000000
#
# Coordination Sequence:
#
# PCOD8267682 Si02
#       6
#    16  16   8  16  16   8
#     4  11  21  33  47  65  85 107 141 182 224 274
#     4   9  16  27  42  59  82 114 150 187 225 263
#     4  11  23  35  44  59  84 111 140 179 226 269
#     4  10  19  31  45  62  86 116 151 188 221 264
#     4   9  18  33  49  65  83 103 132 174 222 271
#     4   9  16  26  40  60  86 113 147 191 227 258
#
# _framework density 15.605154000000001
#
# number of rings (size 3 to 8) (size 9 to 14) (size 15 to 20)
#    0.000    2.200    2.000    2.100    0.000    6.400 
#    0.000    2.000    0.000    0.000    0.000    0.000 
#    0.000    0.000    0.000    0.000    0.000    1.000 
#
# Total GULP energy -495876.027959 kJ/mol
# GULP energy per Si atom -12396.900699 kJ/mol
# Density = 1.556964 g / cm^3
# Si number density = 15.605154 Si / 1000 Ang^3
#
#
#
# Elastic Constant Matrix: (Units=GPa)
#
#
# Indices 1 2 3 4 5 6 
#
# 1 71.5662 16.7565 29.6246 0.0000 0.0000 0.0000
# 2 16.7565 75.7107 37.7337 0.0000 0.0000 0.0000
# 3 29.6246 37.7337 95.8912 0.0000 0.0000 0.0000
# 4 0.0000 0.0000 0.0000 26.3685 0.0000 0.0000
# 5 0.0000 0.0000 0.0000 0.0000 -5.9257 0.0000
# 6 0.0000 0.0000 0.0000 0.0000 0.0000 16.5737
#
#
#
# Elastic Compliance Matrix: (Units=1/GPa)
#
#
# Indices 1 2 3 4 5 6 
#
# 1 0.016132 -0.001352 -0.004452 0.000000 0.000000 0.000000
# 2 -0.001352 0.016544 -0.006093 0.000000 0.000000 0.000000
# 3 -0.004452 -0.006093 0.014201 0.000000 0.000000 0.000000
# 4 0.000000 0.000000 0.000000 0.037924 0.000000 0.000000
# 5 0.000000 0.000000 0.000000 0.000000 -0.168756 0.000000
# 6 0.000000 0.000000 0.000000 0.000000 0.000000 0.060337
#
#
# Mechanical properties :
#
#
# Convention : Reuss Voigt Hill
#
# Bulk Modulus (GPa) = 43.31778 45.71086 44.51432
# Shear Modulus (GPa) = 635.33092 18.00685 326.66888
#
# Velocity S-wave (km/s) = 20.19933 3.40060 14.48407
# Velocity P-wave (km/s) = 23.91309 6.69138 17.55862
#
# Compressibility (1/GPa) = 0.02308521
#
# Stress axis : x y z
#
# Youngs Moduli (GPa) = 61.98680 60.44569 70.41582
#
# Poissons Ratio (x) = 0.08170 0.31350
# Poissons Ratio (y) = 0.08378 0.42901
# Poissons Ratio (z) = 0.27597 0.36827
#
# Static dielectric constant tensor:
#      x y z
#    x 2.810110 0.000000 0.000000 
#    y 0.000000 3.134890 0.000000 
#    z 0.000000 0.000000 2.909670 
# 
# 
# High freq. dielectric constant tensor:
#      x y z
#    x 1.549320 0.000000 0.000000 
#    y 0.000000 1.615020 0.000000 
#    z 0.000000 0.000000 1.579320 
# 
# From -- ./inp_files/60547.got.cif
#   From: 2010.03.12/outbox.cif.g09.slc.cpg/sg65_31_cif.got.tgz:60547.got - 2010.04.10 20:52:16.
