data_PCOD8267458
_publ_section_title
;
Structure prediction by ZEFSAII (Michael W. Deem and Ramdas Pophale) SiO2 
 PCOD8267458
Probable space group: C M M M
;
_chemical_formula_sum "Si O2"
_cell_formula_units_Z 96
_cell_length_a 18.566476
_cell_length_b 9.066207
_cell_length_c 31.536479
_cell_angle_alpha 90.000000
_cell_angle_beta 90.000000
_cell_angle_gamma 90.000000
_cell_volume 5308.457132
_symmetry_space_group_name_H-M "C M M M"
_symmetry_group_IT_number 65
_symmetry_cell_setting 'orthorhombic'
loop_
_space_group_symop_operation_xyz
x,y,z
-x,-y,z
x,-y,-z
-x,y,-z
-x,-y,-z
x,y,-z
-x,y,z
x,-y,z
1/2+x,1/2+y,z
1/2-x,1/2-y,z
1/2+x,1/2-y,-z
1/2-x,1/2+y,-z
1/2-x,1/2-y,-z
1/2+x,1/2+y,-z
1/2-x,1/2+y,z
1/2+x,1/2-y,z
loop_
_atom_site_type_symbol
_atom_site_label
_atom_site_fract_x
_atom_site_fract_y
_atom_site_fract_z
Si Si1 0.419973 0.675161 0.832688
Si Si2 0.173703 0.826425 0.908898
Si Si3 0.418790 0.325266 0.580508
Si Si4 0.326742 0.675300 0.660936
Si Si5 0.827673 0.175501 0.500000
Si Si6 0.824701 0.169798 0.000000
Si Si7 0.919078 0.174938 0.260890
O O1 0.500000 0.738311 0.838532
O O2 0.421244 0.500000 0.836147
O O3 0.372639 0.742959 0.870644
O O4 0.391164 0.722613 0.786021
O O5 0.250000 0.750000 0.907220
O O6 0.184048 0.000000 0.902114
O O7 0.135195 0.793419 0.955128
O O8 0.500000 0.258980 0.579245
O O9 0.424146 0.500000 0.579159
O O10 0.378719 0.273009 0.623006
O O11 0.372551 0.268860 0.540638
O O12 0.316313 0.500000 0.661216
O O13 0.250000 0.750000 0.655046
O O14 0.363411 0.735292 0.704200
O O15 0.750000 0.250000 0.500000
O O16 0.817209 0.000000 0.500000
O O17 0.750000 0.250000 0.000000
O O18 0.804414 0.000000 0.000000
O O19 0.000000 0.236974 0.268903
O O20 0.922788 0.000000 0.264314
#
# Coordination Sequence:
#
# PCOD8267458 Si02
#       7
#    16  16  16  16   8   8  16
#     4   8  14  25  41  61  84 108 136 172 211 248
#     4   9  16  26  41  60  81 106 136 169 205 245
#     4   9  17  30  49  70  89 115 154 189 212 245
#     4  10  19  30  46  68  92 115 141 178 219 255
#     4  10  19  31  49  71  95 120 146 182 224 260
#     4   8  14  24  37  55  79 105 133 164 200 244
#     4   8  14  26  44  63  82 109 145 177 204 243
#
# _framework density 18.084349
#
# number of rings (size 3 to 8) (size 9 to 14) (size 15 to 20)
#    0.000    3.167    0.000    2.250    0.000    3.667 
#    0.000    0.417    0.000    7.000    0.000    2.333 
#    0.000    6.667    0.000    0.000    0.000    0.000 
#
# Total GULP energy -594662.494143 kJ/mol
# GULP energy per Si atom -12388.801961 kJ/mol
# Density = 1.804319 g / cm^3
# Si number density = 18.084349 Si / 1000 Ang^3
#
#
#
# Elastic Constant Matrix: (Units=GPa)
#
#
# Indices 1 2 3 4 5 6 
#
# 1 131.3733 17.6748 97.4322 0.0000 0.0000 0.0000
# 2 17.6748 11.6072 19.7594 0.0000 0.0000 0.0000
# 3 97.4322 19.7594 203.0052 0.0000 0.0000 0.0000
# 4 0.0000 0.0000 0.0000 10.3452 0.0000 0.0000
# 5 0.0000 0.0000 0.0000 0.0000 34.4817 0.0000
# 6 0.0000 0.0000 0.0000 0.0000 0.0000 19.9905
#
#
#
# Elastic Compliance Matrix: (Units=1/GPa)
#
#
# Indices 1 2 3 4 5 6 
#
# 1 0.012873 -0.010889 -0.005119 0.000000 0.000000 0.000000
# 2 -0.010889 0.112475 -0.005722 0.000000 0.000000 0.000000
# 3 -0.005119 -0.005722 0.007940 0.000000 0.000000 0.000000
# 4 0.000000 0.000000 0.000000 0.096663 0.000000 0.000000
# 5 0.000000 0.000000 0.000000 0.000000 0.029001 0.000000
# 6 0.000000 0.000000 0.000000 0.000000 0.000000 0.050024
#
#
# Mechanical properties :
#
#
# Convention : Reuss Voigt Hill
#
# Bulk Modulus (GPa) = 11.13224 68.41317 39.77271
# Shear Modulus (GPa) = 13.07614 27.03810 20.05712
#
# Velocity S-wave (km/s) = 2.69190 3.87086 3.33391
# Velocity P-wave (km/s) = 3.97880 7.60856 6.07129
#
# Compressibility (1/GPa) = 0.08982922
#
# Stress axis : x y z
#
# Youngs Moduli (GPa) = 77.68204 8.89090 125.95218
#
# Poissons Ratio (x) = 0.09681 0.64469
# Poissons Ratio (y) = 0.84587 0.72064
# Poissons Ratio (z) = 0.39762 0.05087
#
# Static dielectric constant tensor:
#      x y z
#    x 3.322130 0.000000 0.000000 
#    y 0.000000 2.999000 0.000000 
#    z 0.000000 0.000000 4.073740 
# 
# 
# High freq. dielectric constant tensor:
#      x y z
#    x 1.687890 0.000000 0.000000 
#    y 0.000000 1.638410 0.000000 
#    z 0.000000 0.000000 1.730060 
# 
# From -- ./inp_files/77640.got.cif
#   From: 2010.03.12/outbox.cif.g09.slc.cpg/sg65_39_cif.got.tgz:77640.got - 2010.04.10 20:52:16.
