data_PCOD8267238
_publ_section_title
;
Structure prediction by ZEFSAII (Michael W. Deem and Ramdas Pophale) SiO2 
 PCOD8267238
Probable space group: C M M M
;
_chemical_formula_sum "Si O2"
_cell_formula_units_Z 72
_cell_length_a 18.984472
_cell_length_b 8.863425
_cell_length_c 22.957276
_cell_angle_alpha 90.000000
_cell_angle_beta 90.000000
_cell_angle_gamma 90.000000
_cell_volume 3862.962148
_symmetry_space_group_name_H-M "C M M M"
_symmetry_group_IT_number 65
_symmetry_cell_setting 'orthorhombic'
loop_
_space_group_symop_operation_xyz
x,y,z
-x,-y,z
x,-y,-z
-x,y,-z
-x,-y,-z
x,y,-z
-x,y,z
x,-y,z
1/2+x,1/2+y,z
1/2-x,1/2-y,z
1/2+x,1/2-y,-z
1/2-x,1/2+y,-z
1/2-x,1/2-y,-z
1/2+x,1/2+y,-z
1/2-x,1/2+y,z
1/2+x,1/2-y,z
loop_
_atom_site_type_symbol
_atom_site_label
_atom_site_fract_x
_atom_site_fract_y
_atom_site_fract_z
Si Si1 0.921275 0.320826 0.895214
Si Si2 0.673732 0.820127 0.000000
Si Si3 0.919201 0.826430 0.432581
Si Si4 0.421204 0.179276 0.234090
Si Si5 0.673953 0.822044 0.661743
O O1 0.922637 0.500000 0.898034
O O2 0.867115 0.258134 0.943065
O O3 0.897490 0.267296 0.830581
O O4 0.000000 0.260114 0.908756
O O5 0.750000 0.750000 0.000000
O O6 0.678889 0.000000 0.000000
O O7 0.902714 0.796576 0.500000
O O8 0.868913 0.718550 0.396043
O O9 0.000000 0.785604 0.418577
O O10 0.903941 0.000000 0.416650
O O11 0.500000 0.240116 0.247500
O O12 0.367226 0.243997 0.281872
O O13 0.422128 0.000000 0.237019
O O14 0.750000 0.750000 0.659429
O O15 0.682289 0.000000 0.665427
#
# Coordination Sequence:
#
# PCOD8267238 Si02
#       5
#    16   8  16  16  16
#     4   8  14  27  48  71  93 121 163 209 244 281
#     4  10  19  29  45  71  99 128 160 196 242 292
#     4   9  19  37  59  80 102 129 162 203 251 299
#     4   8  15  29  49  72  96 123 160 208 254 291
#     4  11  22  34  50  74 104 137 170 204 246 296
#
# _framework density 18.638548
#
# number of rings (size 3 to 8) (size 9 to 14) (size 15 to 20)
#    0.000    2.889    0.000    3.667    0.000    4.444 
#    0.000    1.111    0.000    2.667    0.000    6.222 
#    0.000    0.000    0.000    0.000    0.000    0.000 
#
# Total GULP energy -446280.909253 kJ/mol
# GULP energy per Si atom -12396.691924 kJ/mol
# Density = 1.859613 g / cm^3
# Si number density = 18.638548 Si / 1000 Ang^3
#
#
#
# Elastic Constant Matrix: (Units=GPa)
#
#
# Indices 1 2 3 4 5 6 
#
# 1 143.9563 32.7679 95.6668 0.0000 0.0000 0.0000
# 2 32.7679 33.5684 31.6153 0.0000 0.0000 0.0000
# 3 95.6668 31.6153 143.3717 0.0000 0.0000 0.0000
# 4 0.0000 0.0000 0.0000 13.2631 0.0000 0.0000
# 5 0.0000 0.0000 0.0000 0.0000 17.0595 0.0000
# 6 0.0000 0.0000 0.0000 0.0000 0.0000 13.3800
#
#
#
# Elastic Compliance Matrix: (Units=1/GPa)
#
#
# Indices 1 2 3 4 5 6 
#
# 1 0.013334 -0.005851 -0.007607 0.000000 0.000000 0.000000
# 2 -0.005851 0.040166 -0.004953 0.000000 0.000000 0.000000
# 3 -0.007607 -0.004953 0.013143 0.000000 0.000000 0.000000
# 4 0.000000 0.000000 0.000000 0.075397 0.000000 0.000000
# 5 0.000000 0.000000 0.000000 0.000000 0.058619 0.000000
# 6 0.000000 0.000000 0.000000 0.000000 0.000000 0.074739
#
#
# Mechanical properties :
#
#
# Convention : Reuss Voigt Hill
#
# Bulk Modulus (GPa) = 33.53357 71.22183 52.37770
# Shear Modulus (GPa) = 15.52028 19.46359 17.49194
#
# Velocity S-wave (km/s) = 2.88878 3.23502 3.06679
# Velocity P-wave (km/s) = 5.39975 7.22834 6.37990
#
# Compressibility (1/GPa) = 0.02982086
#
# Stress axis : x y z
#
# Youngs Moduli (GPa) = 74.99896 24.89642 76.08804
#
# Poissons Ratio (x) = 0.14568 0.57878
# Poissons Ratio (y) = 0.43885 0.37684
# Poissons Ratio (z) = 0.57049 0.12331
#
# Static dielectric constant tensor:
#      x y z
#    x 3.491680 0.000000 0.000000 
#    y 0.000000 2.937930 0.000000 
#    z 0.000000 0.000000 3.776120 
# 
# 
# High freq. dielectric constant tensor:
#      x y z
#    x 1.723890 0.000000 0.000000 
#    y 0.000000 1.675440 0.000000 
#    z 0.000000 0.000000 1.739660 
# 
# From -- ./inp_files/67027.got.cif
#   From: 2010.03.12/outbox.cif.g09.slc.cpg/sg65_34_cif.got.tgz:67027.got - 2010.04.10 20:52:16.
