data_PCOD8267208
_publ_section_title
;
Structure prediction by ZEFSAII (Michael W. Deem and Ramdas Pophale) SiO2 
 PCOD8267208
Probable space group: C M M M
;
_chemical_formula_sum "Si O2"
_cell_formula_units_Z 112
_cell_length_a 23.035321
_cell_length_b 29.367480
_cell_length_c 8.992054
_cell_angle_alpha 90.000000
_cell_angle_beta 90.000000
_cell_angle_gamma 90.000000
_cell_volume 6083.028575
_symmetry_space_group_name_H-M "C M M M"
_symmetry_group_IT_number 65
_symmetry_cell_setting 'orthorhombic'
loop_
_space_group_symop_operation_xyz
x,y,z
-x,-y,z
x,-y,-z
-x,y,-z
-x,-y,-z
x,y,-z
-x,y,z
x,-y,z
1/2+x,1/2+y,z
1/2-x,1/2-y,z
1/2+x,1/2-y,-z
1/2-x,1/2+y,-z
1/2-x,1/2-y,-z
1/2+x,1/2+y,-z
1/2-x,1/2+y,z
1/2+x,1/2-y,z
loop_
_atom_site_type_symbol
_atom_site_label
_atom_site_fract_x
_atom_site_fract_y
_atom_site_fract_z
Si Si1 0.066251 0.448093 0.825947
Si Si2 0.436277 0.602194 0.323302
Si Si3 0.673231 0.450117 0.677060
Si Si4 0.259968 0.363175 0.323027
Si Si5 0.369110 0.689978 0.676789
Si Si6 0.369962 0.133227 0.323438
Si Si7 0.934496 0.722343 0.322702
O O1 0.083076 0.500000 0.785530
O O2 0.108973 0.414871 0.738765
O O3 0.000000 0.438477 0.777185
O O4 0.073529 0.439490 0.000000
O O5 0.439646 0.602863 0.500000
O O6 0.500000 0.592920 0.254682
O O7 0.391906 0.563031 0.270334
O O8 0.413382 0.651174 0.267864
O O9 0.675404 0.450996 0.500000
O O10 0.688976 0.500000 0.742102
O O11 0.718216 0.412351 0.737250
O O12 0.261353 0.363738 0.500000
O O13 0.303742 0.322998 0.267263
O O14 0.194882 0.355418 0.264396
O O15 0.368704 0.692307 0.500000
O O16 0.392051 0.738129 0.741041
O O17 0.370594 0.129724 0.500000
O O18 0.411188 0.173731 0.265436
O O19 0.934142 0.723553 0.500000
O O20 0.000000 0.729305 0.262800
#
# Coordination Sequence:
#
# PCOD8267208 Si02
#       7
#    16  16  16  16  16  16  16
#     4   9  19  36  54  69  88 117 150 180 213 259
#     4   8  12  17  26  40  59  89 132 175 210 248
#     4   8  13  20  28  39  61  94 130 171 214 251
#     4   8  15  25  35  52  79 111 145 176 210 257
#     4   8  13  22  34  48  73 110 145 174 209 256
#     4  10  19  29  44  69  96 116 140 180 225 263
#     4   9  16  24  36  57  84 111 140 181 229 265
#
# _framework density 18.411881000000001
#
# number of rings (size 3 to 8) (size 9 to 14) (size 15 to 20)
#    0.000    3.429    0.000    3.000    0.000    4.286 
#    0.000    6.429    0.000    0.000    0.000    2.000 
#    0.000    0.000    0.000    0.000    0.000    9.286 
#
# Total GULP energy -693872.635492 kJ/mol
# GULP energy per Si atom -12390.582777 kJ/mol
# Density = 1.836997 g / cm^3
# Si number density = 18.411881 Si / 1000 Ang^3
#
#
#
# Elastic Constant Matrix: (Units=GPa)
#
#
# Indices 1 2 3 4 5 6 
#
# 1 148.7447 74.0468 13.7392 0.0000 0.0000 0.0000
# 2 74.0468 139.0365 12.9292 0.0000 0.0000 0.0000
# 3 13.7392 12.9292 6.4605 0.0000 0.0000 0.0000
# 4 0.0000 0.0000 0.0000 6.1774 0.0000 0.0000
# 5 0.0000 0.0000 0.0000 0.0000 5.3367 0.0000
# 6 0.0000 0.0000 0.0000 0.0000 0.0000 29.3879
#
#
#
# Elastic Compliance Matrix: (Units=1/GPa)
#
#
# Indices 1 2 3 4 5 6 
#
# 1 0.009962 -0.004098 -0.012985 0.000000 0.000000 0.000000
# 2 -0.004098 0.010523 -0.012343 0.000000 0.000000 0.000000
# 3 -0.012985 -0.012343 0.207105 0.000000 0.000000 0.000000
# 4 0.000000 0.000000 0.000000 0.161879 0.000000 0.000000
# 5 0.000000 0.000000 0.000000 0.000000 0.187381 0.000000
# 6 0.000000 0.000000 0.000000 0.000000 0.000000 0.034028
#
#
# Mechanical properties :
#
#
# Convention : Reuss Voigt Hill
#
# Bulk Modulus (GPa) = 5.92639 55.07468 30.50053
# Shear Modulus (GPa) = 6.88726 21.08218 13.98472
#
# Velocity S-wave (km/s) = 1.93618 3.38750 2.75898
# Velocity P-wave (km/s) = 2.86778 6.72887 5.17213
#
# Compressibility (1/GPa) = 0.16873687
#
# Stress axis : x y z
#
# Youngs Moduli (GPa) = 100.37655 95.03200 4.82846
#
# Poissons Ratio (x) = 0.38946 0.06270
# Poissons Ratio (y) = 0.41137 0.05960
# Poissons Ratio (z) = 1.30341 1.17302
#
# Static dielectric constant tensor:
#      x y z
#    x 3.741200 0.000000 0.000000 
#    y 0.000000 3.638130 0.000000 
#    z 0.000000 0.000000 2.540530 
# 
# 
# High freq. dielectric constant tensor:
#      x y z
#    x 1.724170 0.000000 0.000000 
#    y 0.000000 1.721990 0.000000 
#    z 0.000000 0.000000 1.621110 
# 
# From -- ./inp_files/31421.got.cif
#   From: 2010.03.12/outbox.cif.g09.slc.cpg/sg65_16_cif.got.tgz:31421.got - 2010.04.10 20:52:16.
