data_PCOD8267001
_publ_section_title
;
Structure prediction by ZEFSAII (Michael W. Deem and Ramdas Pophale) SiO2 
 PCOD8267001
Probable space group: C M M M
;
_chemical_formula_sum "Si O2"
_cell_formula_units_Z 80
_cell_length_a 23.902990
_cell_length_b 8.966706
_cell_length_c 20.514465
_cell_angle_alpha 90.000000
_cell_angle_beta 90.000000
_cell_angle_gamma 90.000000
_cell_volume 4396.887518
_symmetry_space_group_name_H-M "C M M M"
_symmetry_group_IT_number 65
_symmetry_cell_setting 'orthorhombic'
loop_
_space_group_symop_operation_xyz
x,y,z
-x,-y,z
x,-y,-z
-x,y,-z
-x,-y,-z
x,y,-z
-x,y,z
x,-y,z
1/2+x,1/2+y,z
1/2-x,1/2-y,z
1/2+x,1/2-y,-z
1/2-x,1/2+y,-z
1/2-x,1/2-y,-z
1/2+x,1/2+y,-z
1/2-x,1/2+y,z
1/2+x,1/2-y,z
loop_
_atom_site_type_symbol
_atom_site_label
_atom_site_fract_x
_atom_site_fract_y
_atom_site_fract_z
Si Si1 0.000000 0.175802 0.876110
Si Si2 0.000000 0.677331 0.264190
Si Si3 0.607373 0.170831 0.073797
Si Si4 0.191933 0.324168 0.573333
Si Si5 0.190167 0.324467 0.186798
Si Si6 0.381245 0.823194 0.691211
O O1 0.000000 0.254509 0.806866
O O2 0.054190 0.224198 0.916478
O O3 0.000000 0.000000 0.866578
O O4 0.054878 0.733835 0.303030
O O5 0.000000 0.500000 0.256216
O O6 0.657283 0.220785 0.121359
O O7 0.589811 0.000000 0.088869
O O8 0.629197 0.188585 0.000000
O O9 0.174390 0.277508 0.500000
O O10 0.200178 0.500000 0.579109
O O11 0.250000 0.250000 0.593891
O O12 0.144268 0.265785 0.622783
O O13 0.198731 0.500000 0.192224
O O14 0.250000 0.250000 0.185286
O O15 0.155369 0.261869 0.248566
O O16 0.380688 0.000000 0.693482
#
# Coordination Sequence:
#
# PCOD8267001 Si02
#       6
#     8   8  16  16  16  16
#     4  12  23  35  54  82 109 130 164 220 272 303
#     4  10  18  35  58  74  98 138 176 208 255 315
#     4  10  21  38  58  76  99 138 179 209 249 315
#     4   9  17  30  49  76 107 137 170 208 251 300
#     4  10  20  34  52  75 101 133 173 213 255 303
#     4   9  17  31  53  76  99 133 174 213 250 299
#
# _framework density 18.194689
#
# number of rings (size 3 to 8) (size 9 to 14) (size 15 to 20)
#    0.000    2.200    2.000    1.800    0.000    2.800 
#    0.000    1.500    0.000    3.000    0.000    0.000 
#    0.000    4.000    0.000    0.000    0.000    0.000 
#
# Total GULP energy -496006.151755 kJ/mol
# GULP energy per Si atom -12400.153794 kJ/mol
# Density = 1.815328 g / cm^3
# Si number density = 18.194689 Si / 1000 Ang^3
#
#
#
# Elastic Constant Matrix: (Units=GPa)
#
#
# Indices 1 2 3 4 5 6 
#
# 1 169.1464 30.4785 87.7704 0.0000 0.0000 0.0000
# 2 30.4785 28.6445 19.2387 0.0000 0.0000 0.0000
# 3 87.7704 19.2387 146.4569 0.0000 0.0000 0.0000
# 4 0.0000 0.0000 0.0000 13.7918 0.0000 0.0000
# 5 0.0000 0.0000 0.0000 0.0000 36.8365 0.0000
# 6 0.0000 0.0000 0.0000 0.0000 0.0000 27.9101
#
#
#
# Elastic Compliance Matrix: (Units=1/GPa)
#
#
# Indices 1 2 3 4 5 6 
#
# 1 0.009728 -0.007058 -0.004903 0.000000 0.000000 0.000000
# 2 -0.007058 0.043410 -0.001473 0.000000 0.000000 0.000000
# 3 -0.004903 -0.001473 0.009960 0.000000 0.000000 0.000000
# 4 0.000000 0.000000 0.000000 0.072507 0.000000 0.000000
# 5 0.000000 0.000000 0.000000 0.000000 0.027147 0.000000
# 6 0.000000 0.000000 0.000000 0.000000 0.000000 0.035829
#
#
# Mechanical properties :
#
#
# Convention : Reuss Voigt Hill
#
# Bulk Modulus (GPa) = 27.60095 68.80255 48.20175
# Shear Modulus (GPa) = 21.05060 29.49171 25.27116
#
# Velocity S-wave (km/s) = 3.40511 4.03040 3.73088
# Velocity P-wave (km/s) = 5.53736 7.71723 6.71632
#
# Compressibility (1/GPa) = 0.03623064
#
# Stress axis : x y z
#
# Youngs Moduli (GPa) = 102.79835 23.03640 100.40652
#
# Poissons Ratio (x) = 0.16259 0.49226
# Poissons Ratio (y) = 0.72553 0.14786
# Poissons Ratio (z) = 0.50398 0.03392
#
# Static dielectric constant tensor:
#      x y z
#    x 3.594940 0.000000 0.000000 
#    y 0.000000 3.081520 0.000000 
#    z 0.000000 0.000000 3.628390 
# 
# 
# High freq. dielectric constant tensor:
#      x y z
#    x 1.706570 0.000000 0.000000 
#    y 0.000000 1.673840 0.000000 
#    z 0.000000 0.000000 1.714240 
# 
# From -- ./inp_files/59638.got.cif
#   From: 2010.03.12/outbox.cif.g09.slc.cpg/sg65_30_cif.got.tgz:59638.got - 2010.04.10 20:52:16.
