data_PCOD8267474
_publ_section_title
;
Structure prediction by ZEFSAII (Michael W. Deem and Ramdas Pophale) SiO2 
 PCOD8267474
Probable space group: C M M M
;
_chemical_formula_sum "Si O2"
_cell_formula_units_Z 112
_cell_length_a 29.152019
_cell_length_b 14.836960
_cell_length_c 14.501066
_cell_angle_alpha 90.000000
_cell_angle_beta 90.000000
_cell_angle_gamma 90.000000
_cell_volume 6272.107502
_symmetry_space_group_name_H-M "C M M M"
_symmetry_group_IT_number 65
_symmetry_cell_setting 'orthorhombic'
loop_
_space_group_symop_operation_xyz
x,y,z
-x,-y,z
x,-y,-z
-x,y,-z
-x,-y,-z
x,y,-z
-x,y,z
x,-y,z
1/2+x,1/2+y,z
1/2-x,1/2-y,z
1/2+x,1/2-y,-z
1/2-x,1/2+y,-z
1/2-x,1/2-y,-z
1/2+x,1/2+y,-z
1/2-x,1/2+y,z
1/2+x,1/2-y,z
loop_
_atom_site_type_symbol
_atom_site_label
_atom_site_fract_x
_atom_site_fract_y
_atom_site_fract_z
Si Si1 0.772624 0.893351 0.603268
Si Si2 0.764278 0.347831 0.789145
Si Si3 0.181736 0.097987 0.103233
Si Si4 0.354956 0.897950 0.894066
Si Si5 0.448051 0.604304 0.750926
Si Si6 0.901535 0.781114 0.106658
Si Si7 0.375717 0.606756 0.398361
O O1 0.760341 0.858552 0.500000
O O2 0.737084 0.851906 0.677303
O O3 0.824421 0.862846 0.630703
O O4 0.768648 0.000000 0.605424
O O5 0.750000 0.250000 0.826007
O O6 0.725481 0.412439 0.830668
O O7 0.813527 0.378452 0.824751
O O8 0.145852 0.171873 0.139067
O O9 0.157241 0.000000 0.104834
O O10 0.198304 0.122715 0.000000
O O11 0.395991 0.826380 0.874136
O O12 0.373198 0.000000 0.877804
O O13 0.338096 0.885770 0.000000
O O14 0.500000 0.612416 0.714591
O O15 0.437228 0.500000 0.777617
O O16 0.442603 0.671953 0.837480
O O17 0.413731 0.642169 0.672780
O O18 0.911668 0.800514 0.000000
O O19 0.387217 0.645610 0.500000
O O20 0.377763 0.500000 0.402067
#
# Coordination Sequence:
#
# PCOD8267474 Si02
#       7
#    16  16  16  16  16  16  16
#     4   9  18  32  48  66  93 132 173 207 240 284
#     4  12  21  29  46  70  98 130 166 212 256 287
#     4  10  19  30  46  68  95 128 164 200 238 288
#     4  10  21  36  52  70  95 129 171 217 256 287
#     4  10  20  32  50  78 107 131 156 191 242 304
#     4  10  20  34  50  69  97 131 167 200 240 294
#     4   8  15  29  49  71  97 131 166 197 232 281
#
# _framework density 17.856836000000001
#
# number of rings (size 3 to 8) (size 9 to 14) (size 15 to 20)
#    0.000    2.143    1.429    3.857    0.000    4.571 
#    0.000    2.143    0.000    0.429    0.000    2.000 
#    0.000    0.000    0.000    1.286    0.000    0.143 
#
# Total GULP energy -694132.691614 kJ/mol
# GULP energy per Si atom -12395.226636 kJ/mol
# Density = 1.781619 g / cm^3
# Si number density = 17.856836 Si / 1000 Ang^3
#
#
#
# Elastic Constant Matrix: (Units=GPa)
#
#
# Indices 1 2 3 4 5 6 
#
# 1 46.1098 15.3423 35.0979 0.0000 0.0000 0.0000
# 2 15.3423 86.6567 22.6424 0.0000 0.0000 0.0000
# 3 35.0979 22.6424 89.9650 0.0000 0.0000 0.0000
# 4 0.0000 0.0000 0.0000 16.9097 0.0000 0.0000
# 5 0.0000 0.0000 0.0000 0.0000 21.3007 0.0000
# 6 0.0000 0.0000 0.0000 0.0000 0.0000 19.1987
#
#
#
# Elastic Compliance Matrix: (Units=1/GPa)
#
#
# Indices 1 2 3 4 5 6 
#
# 1 0.031354 -0.002521 -0.011598 0.000000 0.000000 0.000000
# 2 -0.002521 0.012555 -0.002176 0.000000 0.000000 0.000000
# 3 -0.011598 -0.002176 0.016188 0.000000 0.000000 0.000000
# 4 0.000000 0.000000 0.000000 0.059138 0.000000 0.000000
# 5 0.000000 0.000000 0.000000 0.000000 0.046947 0.000000
# 6 0.000000 0.000000 0.000000 0.000000 0.000000 0.052087
#
#
# Mechanical properties :
#
#
# Convention : Reuss Voigt Hill
#
# Bulk Modulus (GPa) = 36.35450 40.98852 38.67151
# Shear Modulus (GPa) = 19.22879 21.45840 20.34359
#
# Velocity S-wave (km/s) = 3.28507 3.47030 3.37896
# Velocity P-wave (km/s) = 5.89847 6.24989 6.07672
#
# Compressibility (1/GPa) = 0.02750691
#
# Stress axis : x y z
#
# Youngs Moduli (GPa) = 31.89380 79.65119 61.77504
#
# Poissons Ratio (x) = 0.20079 0.71645
# Poissons Ratio (y) = 0.08040 0.13444
# Poissons Ratio (z) = 0.36989 0.17335
#
# Static dielectric constant tensor:
#      x y z
#    x 2.980150 0.000000 0.000000 
#    y 0.000000 3.290680 0.000000 
#    z 0.000000 0.000000 3.569760 
# 
# 
# High freq. dielectric constant tensor:
#      x y z
#    x 1.647570 0.000000 0.000000 
#    y 0.000000 1.675880 0.000000 
#    z 0.000000 0.000000 1.695030 
# 
# From -- ./inp_files/41139.got.cif
#   From: 2010.03.12/outbox.cif.g09.slc.cpg/sg65_21_cif.got.tgz:41139.got - 2010.04.10 20:52:16.
