data_PCOD8267545
_publ_section_title
;
Structure prediction by ZEFSAII (Michael W. Deem and Ramdas Pophale) SiO2 
 PCOD8267545
Probable space group: C M M M
;
_chemical_formula_sum "Si O2"
_cell_formula_units_Z 96
_cell_length_a 9.164106
_cell_length_b 27.300330
_cell_length_c 23.536968
_cell_angle_alpha 90.000000
_cell_angle_beta 90.000000
_cell_angle_gamma 90.000000
_cell_volume 5888.552041
_symmetry_space_group_name_H-M "C M M M"
_symmetry_group_IT_number 65
_symmetry_cell_setting 'orthorhombic'
loop_
_space_group_symop_operation_xyz
x,y,z
-x,-y,z
x,-y,-z
-x,y,-z
-x,-y,-z
x,y,-z
-x,y,z
x,-y,z
1/2+x,1/2+y,z
1/2-x,1/2-y,z
1/2+x,1/2-y,-z
1/2-x,1/2+y,-z
1/2-x,1/2-y,-z
1/2+x,1/2+y,-z
1/2-x,1/2+y,z
1/2+x,1/2-y,z
loop_
_atom_site_type_symbol
_atom_site_label
_atom_site_fract_x
_atom_site_fract_y
_atom_site_fract_z
Si Si1 0.168700 0.798592 0.063407
Si Si2 0.672041 0.444899 0.563992
Si Si3 0.829486 0.700548 0.269112
Si Si4 0.171058 0.142600 0.171918
Si Si5 0.333545 0.894378 0.661790
Si Si6 0.169972 0.556371 0.222737
O O1 0.250000 0.750000 0.084084
O O2 0.201650 0.842612 0.106779
O O3 0.000000 0.784937 0.063902
O O4 0.219529 0.814594 0.000000
O O5 0.720945 0.431517 0.500000
O O6 0.500000 0.441851 0.569506
O O7 0.725204 0.500000 0.578981
O O8 0.739430 0.405456 0.606452
O O9 0.750000 0.750000 0.288597
O O10 0.755185 0.680555 0.212096
O O11 0.808985 0.661833 0.320065
O O12 0.000000 0.710041 0.256731
O O13 0.234215 0.087970 0.179066
O O14 0.000000 0.143547 0.186957
O O15 0.500000 0.904664 0.645787
O O16 0.284490 0.929952 0.713112
O O17 0.204647 0.500000 0.210904
O O18 0.000000 0.569188 0.213610
#
# Coordination Sequence:
#
# PCOD8267545 Si02
#       6
#    16  16  16  16  16  16
#     4   9  18  31  46  66  92 120 150 186 227 270
#     4   9  18  31  46  67  95 123 150 183 223 265
#     4  10  20  33  48  68  95 123 152 188 229 272
#     4  10  19  30  47  70  94 121 153 188 227 274
#     4   9  18  31  47  68  92 118 149 185 225 268
#     4   9  18  32  48  67  94 124 152 188 232 272
#
# _framework density 16.302820000000001
#
# number of rings (size 3 to 8) (size 9 to 14) (size 15 to 20)
#    0.000    2.667    0.000    3.500    0.000    7.667 
#    0.000    0.833    0.000    1.000    0.000    3.500 
#    0.000    0.000    0.000    0.000    0.000    0.000 
#
# Total GULP energy -595189.334789 kJ/mol
# GULP energy per Si atom -12399.777808 kJ/mol
# Density = 1.626571 g / cm^3
# Si number density = 16.302820 Si / 1000 Ang^3
#
#
#
# Elastic Constant Matrix: (Units=GPa)
#
#
# Indices 1 2 3 4 5 6 
#
# 1 75.2195 52.6978 51.0803 0.0000 0.0000 0.0000
# 2 52.6978 105.2171 58.6150 0.0000 0.0000 0.0000
# 3 51.0803 58.6150 100.5992 0.0000 0.0000 0.0000
# 4 0.0000 0.0000 0.0000 23.2488 0.0000 0.0000
# 5 0.0000 0.0000 0.0000 0.0000 25.7356 0.0000
# 6 0.0000 0.0000 0.0000 0.0000 0.0000 30.5394
#
#
#
# Elastic Compliance Matrix: (Units=1/GPa)
#
#
# Indices 1 2 3 4 5 6 
#
# 1 0.023877 -0.007706 -0.007634 0.000000 0.000000 0.000000
# 2 -0.007706 0.016559 -0.005735 0.000000 0.000000 0.000000
# 3 -0.007634 -0.005735 0.017158 0.000000 0.000000 0.000000
# 4 0.000000 0.000000 0.000000 0.043013 0.000000 0.000000
# 5 0.000000 0.000000 0.000000 0.000000 0.038857 0.000000
# 6 0.000000 0.000000 0.000000 0.000000 0.000000 0.032745
#
#
# Mechanical properties :
#
#
# Convention : Reuss Voigt Hill
#
# Bulk Modulus (GPa) = 64.75081 67.31356 66.03218
# Shear Modulus (GPa) = 22.77830 23.81429 23.29629
#
# Velocity S-wave (km/s) = 3.74197 3.82612 3.78428
# Velocity P-wave (km/s) = 7.64680 7.80372 7.72566
#
# Compressibility (1/GPa) = 0.01544382
#
# Stress axis : x y z
#
# Youngs Moduli (GPa) = 41.88075 60.39085 58.28075
#
# Poissons Ratio (x) = 0.46538 0.44491
# Poissons Ratio (y) = 0.32274 0.33425
# Poissons Ratio (z) = 0.31971 0.34636
#
# Static dielectric constant tensor:
#      x y z
#    x 3.107040 0.000000 0.000000 
#    y 0.000000 3.073200 0.000000 
#    z 0.000000 0.000000 3.044920 
# 
# 
# High freq. dielectric constant tensor:
#      x y z
#    x 1.633480 0.000000 0.000000 
#    y 0.000000 1.617760 0.000000 
#    z 0.000000 0.000000 1.614780 
# 
# From -- ./inp_files/60180.got.cif
#   From: 2010.03.12/outbox.cif.g09.slc.cpg/sg65_31_cif.got.tgz:60180.got - 2010.04.10 20:52:16.
