data_PCOD8267026
_publ_section_title
;
Structure prediction by ZEFSAII (Michael W. Deem and Ramdas Pophale) SiO2 
 PCOD8267026
Probable space group: C M M M
;
_chemical_formula_sum "Si O2"
_cell_formula_units_Z 104
_cell_length_a 18.321225
_cell_length_b 30.861170
_cell_length_c 11.651236
_cell_angle_alpha 90.000000
_cell_angle_beta 90.000000
_cell_angle_gamma 90.000000
_cell_volume 6587.777070
_symmetry_space_group_name_H-M "C M M M"
_symmetry_group_IT_number 65
_symmetry_cell_setting 'orthorhombic'
loop_
_space_group_symop_operation_xyz
x,y,z
-x,-y,z
x,-y,-z
-x,y,-z
-x,-y,-z
x,y,-z
-x,y,z
x,-y,z
1/2+x,1/2+y,z
1/2-x,1/2-y,z
1/2+x,1/2-y,-z
1/2-x,1/2+y,-z
1/2-x,1/2-y,-z
1/2+x,1/2+y,-z
1/2-x,1/2+y,z
1/2+x,1/2-y,z
loop_
_atom_site_type_symbol
_atom_site_label
_atom_site_fract_x
_atom_site_fract_y
_atom_site_fract_z
Si Si1 0.083022 0.550663 0.500000
Si Si2 0.672088 0.202467 0.863166
Si Si3 0.418377 0.618873 0.136228
Si Si4 0.797887 0.950024 0.866863
Si Si5 0.149080 0.550212 0.260640
Si Si6 0.917103 0.623816 0.871641
Si Si7 0.163132 0.797309 0.136323
O O1 0.070573 0.500000 0.500000
O O2 0.133320 0.563962 0.391814
O O3 0.000000 0.571465 0.500000
O O4 0.626186 0.162943 0.809386
O O5 0.754459 0.195157 0.820812
O O6 0.639682 0.249083 0.821312
O O7 0.667829 0.201994 0.000000
O O8 0.500000 0.610912 0.185411
O O9 0.365787 0.579419 0.173513
O O10 0.388385 0.664686 0.186603
O O11 0.421262 0.621224 0.000000
O O12 0.730931 0.938754 0.781872
O O13 0.821386 0.000000 0.853073
O O14 0.776150 0.940311 0.000000
O O15 0.131584 0.500000 0.238423
O O16 0.091956 0.577786 0.188226
O O17 0.000000 0.638224 0.869660
O O18 0.887322 0.618114 0.000000
O O19 0.160907 0.799538 0.000000
#
# Coordination Sequence:
#
# PCOD8267026 Si02
#       7
#     8  16  16  16  16  16  16
#     4   9  18  32  48  64  81 102 133 177 220 248
#     4   8  14  24  36  51  75 108 142 172 203 240
#     4   9  16  24  36  57  85 116 147 177 209 248
#     4   9  17  28  42  61  86 115 143 172 208 250
#     4  10  19  31  46  61  79 107 141 173 205 245
#     4  10  19  27  37  57  85 113 136 162 199 243
#     4   8  13  22  36  51  71 106 146 176 201 235
#
# _framework density 15.786811999999999
#
# number of rings (size 3 to 8) (size 9 to 14) (size 15 to 20)
#    0.000    3.000    0.000    2.769    0.000    5.231 
#    0.000    5.385    0.000    0.000    0.000    0.538 
#    0.000   12.923    0.000    1.923    0.000    0.077 
#
# Total GULP energy -644290.259563 kJ/mol
# GULP energy per Si atom -12390.197299 kJ/mol
# Density = 1.575088 g / cm^3
# Si number density = 15.786812 Si / 1000 Ang^3
#
#
#
# Elastic Constant Matrix: (Units=GPa)
#
#
# Indices 1 2 3 4 5 6 
#
# 1 98.2492 56.9340 38.1330 0.0000 0.0000 0.0000
# 2 56.9340 99.2319 31.7750 0.0000 0.0000 0.0000
# 3 38.1330 31.7750 44.1519 0.0000 0.0000 0.0000
# 4 0.0000 0.0000 0.0000 3.5714 0.0000 0.0000
# 5 0.0000 0.0000 0.0000 0.0000 6.3653 0.0000
# 6 0.0000 0.0000 0.0000 0.0000 0.0000 23.6347
#
#
#
# Elastic Compliance Matrix: (Units=1/GPa)
#
#
# Indices 1 2 3 4 5 6 
#
# 1 0.018544 -0.007161 -0.010862 0.000000 0.000000 0.000000
# 2 -0.007161 0.015861 -0.005229 0.000000 0.000000 0.000000
# 3 -0.010862 -0.005229 0.035794 0.000000 0.000000 0.000000
# 4 0.000000 0.000000 0.000000 0.280003 0.000000 0.000000
# 5 0.000000 0.000000 0.000000 0.000000 0.157103 0.000000
# 6 0.000000 0.000000 0.000000 0.000000 0.000000 0.042311
#
#
# Mechanical properties :
#
#
# Convention : Reuss Voigt Hill
#
# Bulk Modulus (GPa) = 42.20705 55.03524 48.62114
# Shear Modulus (GPa) = 8.27789 14.36699 11.32244
#
# Velocity S-wave (km/s) = 2.29236 3.02000 2.68098
# Velocity P-wave (km/s) = 5.81380 6.86278 6.35995
#
# Compressibility (1/GPa) = 0.02369272
#
# Stress axis : x y z
#
# Youngs Moduli (GPa) = 53.92578 63.04871 27.93764
#
# Poissons Ratio (x) = 0.45152 0.30346
# Poissons Ratio (y) = 0.38618 0.14610
# Poissons Ratio (z) = 0.58575 0.32971
#
# Static dielectric constant tensor:
#      x y z
#    x 3.131390 0.000000 0.000000 
#    y 0.000000 3.289080 0.000000 
#    z 0.000000 0.000000 2.589550 
# 
# 
# High freq. dielectric constant tensor:
#      x y z
#    x 1.607570 0.000000 0.000000 
#    y 0.000000 1.619010 0.000000 
#    z 0.000000 0.000000 1.528130 
# 
# From -- ./inp_files/27676.got.cif
#   From: 2010.03.12/outbox.cif.g09.slc.cpg/sg65_14_cif.got.tgz:27676.got - 2010.04.10 20:52:16.
