data_PCOD8267847
_publ_section_title
;
Structure prediction by ZEFSAII (Michael W. Deem and Ramdas Pophale) SiO2 
 PCOD8267847
Probable space group: C M M M
;
_chemical_formula_sum "Si O2"
_cell_formula_units_Z 96
_cell_length_a 28.771433
_cell_length_b 14.280099
_cell_length_c 12.994291
_cell_angle_alpha 90.000000
_cell_angle_beta 90.000000
_cell_angle_gamma 90.000000
_cell_volume 5338.820257
_symmetry_space_group_name_H-M "C M M M"
_symmetry_group_IT_number 65
_symmetry_cell_setting 'orthorhombic'
loop_
_space_group_symop_operation_xyz
x,y,z
-x,-y,z
x,-y,-z
-x,y,-z
-x,-y,-z
x,y,-z
-x,y,z
x,-y,z
1/2+x,1/2+y,z
1/2-x,1/2-y,z
1/2+x,1/2-y,-z
1/2-x,1/2+y,-z
1/2-x,1/2-y,-z
1/2+x,1/2+y,-z
1/2-x,1/2+y,z
1/2+x,1/2-y,z
loop_
_atom_site_type_symbol
_atom_site_label
_atom_site_fract_x
_atom_site_fract_y
_atom_site_fract_z
Si Si1 0.808527 0.609493 0.305886
Si Si2 0.644620 0.607590 0.795064
Si Si3 0.872146 0.391109 0.500000
Si Si4 0.053374 0.234941 0.500000
Si Si5 0.289385 0.389805 0.613073
Si Si6 0.447771 0.606974 0.692837
Si Si7 0.696112 0.230444 0.114306
O O1 0.807116 0.500000 0.282158
O O2 0.843469 0.633941 0.397723
O O3 0.758353 0.649531 0.339224
O O4 0.823881 0.659693 0.200044
O O5 0.656180 0.500000 0.823306
O O6 0.667805 0.636925 0.686027
O O7 0.589112 0.623879 0.784901
O O8 0.666679 0.672911 0.882240
O O9 0.886012 0.500000 0.500000
O O10 0.918680 0.331117 0.500000
O O11 0.065477 0.173401 0.400958
O O12 0.000000 0.264891 0.500000
O O13 0.298530 0.345657 0.500000
O O14 0.283620 0.500000 0.601742
O O15 0.500000 0.627030 0.734298
O O16 0.443519 0.500000 0.653390
O O17 0.750000 0.250000 0.134355
O O18 0.689007 0.187696 0.000000
#
# Coordination Sequence:
#
# PCOD8267847 Si02
#       7
#    16  16   8   8  16  16  16
#     4  10  19  35  53  72 102 136 172 213 257 301
#     4  10  20  34  52  74 103 137 175 218 260 302
#     4  10  20  34  55  78 103 136 172 216 260 306
#     4  10  19  31  47  72 109 144 173 206 255 315
#     4   9  16  28  46  70 101 134 168 207 249 296
#     4   9  18  32  51  75 104 138 174 213 258 310
#     4  11  23  36  50  73 103 136 178 216 252 311
#
# _framework density 17.981501000000002
#
# number of rings (size 3 to 8) (size 9 to 14) (size 15 to 20)
#    0.000    2.167    2.500    1.250    1.167    1.833 
#    1.500    2.917    0.000    0.500    0.000    2.333 
#    0.000    0.000    0.000   14.333    0.000    0.167 
#
# Total GULP energy -595117.862087 kJ/mol
# GULP energy per Si atom -12398.288793 kJ/mol
# Density = 1.794057 g / cm^3
# Si number density = 17.981501 Si / 1000 Ang^3
#
#
#
# Elastic Constant Matrix: (Units=GPa)
#
#
# Indices 1 2 3 4 5 6 
#
# 1 96.9653 40.1439 24.2879 0.0000 0.0000 0.0000
# 2 40.1439 65.8393 40.6855 0.0000 0.0000 0.0000
# 3 24.2879 40.6855 103.6119 0.0000 0.0000 0.0000
# 4 0.0000 0.0000 0.0000 23.5874 0.0000 0.0000
# 5 0.0000 0.0000 0.0000 0.0000 2.9783 0.0000
# 6 0.0000 0.0000 0.0000 0.0000 0.0000 26.0135
#
#
#
# Elastic Compliance Matrix: (Units=1/GPa)
#
#
# Indices 1 2 3 4 5 6 
#
# 1 0.013796 -0.008468 0.000091 0.000000 0.000000 0.000000
# 2 -0.008468 0.025253 -0.007931 0.000000 0.000000 0.000000
# 3 0.000091 -0.007931 0.012744 0.000000 0.000000 0.000000
# 4 0.000000 0.000000 0.000000 0.042395 0.000000 0.000000
# 5 0.000000 0.000000 0.000000 0.000000 0.335760 0.000000
# 6 0.000000 0.000000 0.000000 0.000000 0.000000 0.038442
#
#
# Mechanical properties :
#
#
# Convention : Reuss Voigt Hill
#
# Bulk Modulus (GPa) = 52.14528 52.96125 52.55327
# Shear Modulus (GPa) = 9.85420 21.26913 15.56166
#
# Velocity S-wave (km/s) = 2.34352 3.44297 2.94500
# Velocity P-wave (km/s) = 6.03201 6.73220 6.39170
#
# Compressibility (1/GPa) = 0.01917719
#
# Stress axis : x y z
#
# Youngs Moduli (GPa) = 72.48507 39.59973 78.46656
#
# Poissons Ratio (x) = 0.33534 -0.00716
# Poissons Ratio (y) = 0.61381 0.62232
# Poissons Ratio (z) = -0.00662 0.31407
#
# Static dielectric constant tensor:
#      x y z
#    x 3.323710 0.000000 0.000000 
#    y 0.000000 3.231620 0.000000 
#    z 0.000000 0.000000 3.180780 
# 
# 
# High freq. dielectric constant tensor:
#      x y z
#    x 1.684820 0.000000 0.000000 
#    y 0.000000 1.692900 0.000000 
#    z 0.000000 0.000000 1.675060 
# 
# From -- ./inp_files/33878.got.cif
#   From: 2010.03.12/outbox.cif.g09.slc.cpg/sg65_17_cif.got.tgz:33878.got - 2010.04.10 20:52:16.
