data_PCOD8267634
_publ_section_title
;
Structure prediction by ZEFSAII (Michael W. Deem and Ramdas Pophale) SiO2 
 PCOD8267634
Probable space group: C M M M
;
_chemical_formula_sum "Si O2"
_cell_formula_units_Z 104
_cell_length_a 8.873691
_cell_length_b 20.645098
_cell_length_c 30.208799
_cell_angle_alpha 90.000000
_cell_angle_beta 90.000000
_cell_angle_gamma 90.000000
_cell_volume 5534.198215
_symmetry_space_group_name_H-M "C M M M"
_symmetry_group_IT_number 65
_symmetry_cell_setting 'orthorhombic'
loop_
_space_group_symop_operation_xyz
x,y,z
-x,-y,z
x,-y,-z
-x,y,-z
-x,-y,-z
x,y,-z
-x,y,z
x,-y,z
1/2+x,1/2+y,z
1/2-x,1/2-y,z
1/2+x,1/2-y,-z
1/2-x,1/2+y,-z
1/2-x,1/2-y,-z
1/2+x,1/2+y,-z
1/2-x,1/2+y,z
1/2+x,1/2-y,z
loop_
_atom_site_type_symbol
_atom_site_label
_atom_site_fract_x
_atom_site_fract_y
_atom_site_fract_z
Si Si1 0.676072 0.818926 0.546631
Si Si2 0.823277 0.925966 0.705868
Si Si3 0.321922 0.820811 0.643033
Si Si4 0.678729 0.428850 0.806160
Si Si5 0.822165 0.631199 0.050849
Si Si6 0.320938 0.314146 0.132338
Si Si7 0.832345 0.000000 0.947871
O O1 0.718595 0.857042 0.500000
O O2 0.500000 0.807441 0.547961
O O3 0.750000 0.750000 0.543854
O O4 0.723475 0.849620 0.593972
O O5 0.734779 0.874349 0.676871
O O6 0.768061 0.914849 0.756187
O O7 0.000000 0.912584 0.701051
O O8 0.786063 0.000000 0.691397
O O9 0.500000 0.812762 0.648516
O O10 0.250000 0.750000 0.651720
O O11 0.500000 0.428019 0.807050
O O12 0.736731 0.500000 0.821532
O O13 0.742120 0.374508 0.839263
O O14 0.741368 0.683211 0.082074
O O15 0.760160 0.562202 0.067410
O O16 0.000000 0.633103 0.057308
O O17 0.777324 0.645540 0.000000
O O18 0.500000 0.310211 0.131956
O O19 0.250000 0.250000 0.154345
O O20 0.000000 0.000000 0.925866
O O21 0.849963 0.000000 0.000000
#
# Coordination Sequence:
#
# PCOD8267634 Si02
#       7
#    16  16  16  16  16  16   8
#     4   8  14  25  41  63  94 132 172 215 262 309
#     4   9  18  35  57  78 104 138 174 213 264 321
#     4  10  19  30  48  76 107 137 175 221 266 315
#     4   8  17  36  60  82 102 132 175 218 262 313
#     4  10  21  37  56  80 112 145 178 218 261 305
#     4  11  23  38  58  82 111 142 176 217 263 317
#     4   9  17  31  53  81 109 139 177 215 253 299
#
# _framework density 18.792244
#
# number of rings (size 3 to 8) (size 9 to 14) (size 15 to 20)
#    0.000    2.692    0.000    2.538    1.077    3.692 
#    0.000    3.077    0.000    2.308    0.000    3.231 
#    0.000    0.000    0.000    0.000    0.000    0.000 
#
# Total GULP energy -644214.803692 kJ/mol
# GULP energy per Si atom -12388.746225 kJ/mol
# Density = 1.874947 g / cm^3
# Si number density = 18.792244 Si / 1000 Ang^3
#
#
#
# Elastic Constant Matrix: (Units=GPa)
#
#
# Indices 1 2 3 4 5 6 
#
# 1 61.9161 40.7009 38.6061 0.0000 0.0000 0.0000
# 2 40.7009 122.5762 77.7604 0.0000 0.0000 0.0000
# 3 38.6061 77.7604 119.6643 0.0000 0.0000 0.0000
# 4 0.0000 0.0000 0.0000 24.9560 0.0000 0.0000
# 5 0.0000 0.0000 0.0000 0.0000 20.7730 0.0000
# 6 0.0000 0.0000 0.0000 0.0000 0.0000 30.8780
#
#
#
# Elastic Compliance Matrix: (Units=1/GPa)
#
#
# Indices 1 2 3 4 5 6 
#
# 1 0.021703 -0.004703 -0.003945 0.000000 0.000000 0.000000
# 2 -0.004703 0.014899 -0.008165 0.000000 0.000000 0.000000
# 3 -0.003945 -0.008165 0.014935 0.000000 0.000000 0.000000
# 4 0.000000 0.000000 0.000000 0.040070 0.000000 0.000000
# 5 0.000000 0.000000 0.000000 0.000000 0.048139 0.000000
# 6 0.000000 0.000000 0.000000 0.000000 0.000000 0.032385
#
#
# Mechanical properties :
#
#
# Convention : Reuss Voigt Hill
#
# Bulk Modulus (GPa) = 55.83298 68.69904 62.26601
# Shear Modulus (GPa) = 23.61507 25.12736 24.37122
#
# Velocity S-wave (km/s) = 3.54876 3.66062 3.60512
# Velocity P-wave (km/s) = 6.82398 7.38264 7.10880
#
# Compressibility (1/GPa) = 0.01791056
#
# Stress axis : x y z
#
# Youngs Moduli (GPa) = 46.07720 67.11688 66.95667
#
# Poissons Ratio (x) = 0.31568 0.26417
# Poissons Ratio (y) = 0.21672 0.54667
# Poissons Ratio (z) = 0.18179 0.54798
#
# Static dielectric constant tensor:
#      x y z
#    x 3.290540 0.000000 0.000000 
#    y 0.000000 1.230130 0.000000 
#    z 0.000000 0.000000 3.969790 
# 
# 
# High freq. dielectric constant tensor:
#      x y z
#    x 1.719120 0.000000 0.000000 
#    y 0.000000 1.709750 0.000000 
#    z 0.000000 0.000000 1.740260 
# 
# From -- ./inp_files/76932.got.cif
#   From: 2010.03.12/outbox.cif.g09.slc.cpg/sg65_39_cif.got.tgz:76932.got - 2010.04.10 20:52:16.
