data_PCOD8267537
_publ_section_title
;
Structure prediction by ZEFSAII (Michael W. Deem and Ramdas Pophale) SiO2 
 PCOD8267537
Probable space group: C M M M
;
_chemical_formula_sum "Si O2"
_cell_formula_units_Z 96
_cell_length_a 26.836056
_cell_length_b 10.006999
_cell_length_c 22.359299
_cell_angle_alpha 90.000000
_cell_angle_beta 90.000000
_cell_angle_gamma 90.000000
_cell_volume 6004.553649
_symmetry_space_group_name_H-M "C M M M"
_symmetry_group_IT_number 65
_symmetry_cell_setting 'orthorhombic'
loop_
_space_group_symop_operation_xyz
x,y,z
-x,-y,z
x,-y,-z
-x,y,-z
-x,-y,-z
x,y,-z
-x,y,z
x,-y,z
1/2+x,1/2+y,z
1/2-x,1/2-y,z
1/2+x,1/2-y,-z
1/2-x,1/2+y,-z
1/2-x,1/2-y,-z
1/2+x,1/2+y,-z
1/2-x,1/2+y,z
1/2+x,1/2-y,z
loop_
_atom_site_type_symbol
_atom_site_label
_atom_site_fract_x
_atom_site_fract_y
_atom_site_fract_z
Si Si1 0.204527 0.656892 0.746547
Si Si2 0.312555 0.500000 0.072045
Si Si3 0.799921 0.500000 0.068961
Si Si4 0.443267 0.841379 0.434740
Si Si5 0.105019 0.654544 0.682808
Si Si6 0.348996 0.236584 0.867482
Si Si7 0.556823 0.841568 0.802801
O O1 0.219165 0.500000 0.753914
O O2 0.250000 0.750000 0.726366
O O3 0.163548 0.674396 0.694623
O O4 0.183433 0.714264 0.808198
O O5 0.255766 0.500000 0.096659
O O6 0.340643 0.623818 0.100996
O O7 0.317166 0.500000 0.000000
O O8 0.831881 0.371917 0.085052
O O9 0.789803 0.500000 0.000000
O O10 0.425769 0.785901 0.500000
O O11 0.500000 0.798333 0.422631
O O12 0.409781 0.779095 0.380974
O O13 0.438667 0.000000 0.436043
O O14 0.090786 0.500000 0.679096
O O15 0.072429 0.715013 0.737456
O O16 0.407708 0.223681 0.852888
O O17 0.500000 0.802143 0.816908
O O18 0.565660 0.000000 0.804563
#
# Coordination Sequence:
#
# PCOD8267537 Si02
#       7
#    16   8   8  16  16  16  16
#     4  10  19  30  47  69  94 123 154 192 236 280
#     4  11  24  36  51  73  97 127 153 182 236 288
#     4  11  20  34  53  71  95 121 151 192 228 272
#     4   8  12  18  32  57  90 125 155 187 232 280
#     4   8  14  24  38  63  93 121 155 192 233 277
#     4  11  20  34  50  74  96 120 154 191 233 283
#     4   9  16  29  50  71  92 121 157 198 238 276
#
# _framework density 15.987866
#
# number of rings (size 3 to 8) (size 9 to 14) (size 15 to 20)
#    0.000    2.500    1.667    4.000    1.167    3.333 
#    0.000    0.417    0.000    3.500    0.000    0.000 
#    0.000    0.000    0.000    1.833    3.333    1.667 
#
# Total GULP energy -594859.760612 kJ/mol
# GULP energy per Si atom -12392.911679 kJ/mol
# Density = 1.595148 g / cm^3
# Si number density = 15.987866 Si / 1000 Ang^3
#
#
#
# Elastic Constant Matrix: (Units=GPa)
#
#
# Indices 1 2 3 4 5 6 
#
# 1 117.5106 44.3153 58.2511 0.0000 0.0000 0.0000
# 2 44.3153 77.2415 38.6234 0.0000 0.0000 0.0000
# 3 58.2511 38.6234 94.8298 0.0000 0.0000 0.0000
# 4 0.0000 0.0000 0.0000 12.3028 0.0000 0.0000
# 5 0.0000 0.0000 0.0000 0.0000 27.4218 0.0000
# 6 0.0000 0.0000 0.0000 0.0000 0.0000 15.5160
#
#
#
# Elastic Compliance Matrix: (Units=1/GPa)
#
#
# Indices 1 2 3 4 5 6 
#
# 1 0.013362 -0.004473 -0.006386 0.000000 0.000000 0.000000
# 2 -0.004473 0.017755 -0.004484 0.000000 0.000000 0.000000
# 3 -0.006386 -0.004484 0.016294 0.000000 0.000000 0.000000
# 4 0.000000 0.000000 0.000000 0.081283 0.000000 0.000000
# 5 0.000000 0.000000 0.000000 0.000000 0.036467 0.000000
# 6 0.000000 0.000000 0.000000 0.000000 0.000000 0.064449
#
#
# Mechanical properties :
#
#
# Convention : Reuss Voigt Hill
#
# Bulk Modulus (GPa) = 59.78940 63.55130 61.67035
# Shear Modulus (GPa) = 18.80603 20.94093 19.87348
#
# Velocity S-wave (km/s) = 3.43340 3.62304 3.52950
# Velocity P-wave (km/s) = 7.29353 7.57218 7.43416
#
# Compressibility (1/GPa) = 0.01672537
#
# Stress axis : x y z
#
# Youngs Moduli (GPa) = 74.83637 56.32318 61.37102
#
# Poissons Ratio (x) = 0.25193 0.39194
# Poissons Ratio (y) = 0.33474 0.27517
# Poissons Ratio (z) = 0.47793 0.25254
#
# Static dielectric constant tensor:
#      x y z
#    x 3.069900 0.000000 0.000000 
#    y 0.000000 2.719420 0.000000 
#    z 0.000000 0.000000 3.301350 
# 
# 
# High freq. dielectric constant tensor:
#      x y z
#    x 1.609890 0.000000 0.000000 
#    y 0.000000 1.572130 0.000000 
#    z 0.000000 0.000000 1.614760 
# 
# From -- ./inp_files/71749.got.cif
#   From: 2010.03.12/outbox.cif.g09.slc.cpg/sg65_36_cif.got.tgz:71749.got - 2010.04.10 20:52:16.
