data_PCOD8267508
_publ_section_title
;
Structure prediction by ZEFSAII (Michael W. Deem and Ramdas Pophale) SiO2 
 PCOD8267508
Probable space group: C M M M
;
_chemical_formula_sum "Si O2"
_cell_formula_units_Z 80
_cell_length_a 16.059762
_cell_length_b 34.933818
_cell_length_c 7.876126
_cell_angle_alpha 90.000000
_cell_angle_beta 90.000000
_cell_angle_gamma 90.000000
_cell_volume 4418.733541
_symmetry_space_group_name_H-M "C M M M"
_symmetry_group_IT_number 65
_symmetry_cell_setting 'orthorhombic'
loop_
_space_group_symop_operation_xyz
x,y,z
-x,-y,z
x,-y,-z
-x,y,-z
-x,-y,-z
x,y,-z
-x,y,z
x,-y,z
1/2+x,1/2+y,z
1/2-x,1/2-y,z
1/2+x,1/2-y,-z
1/2-x,1/2+y,-z
1/2-x,1/2-y,-z
1/2+x,1/2+y,-z
1/2-x,1/2+y,z
1/2+x,1/2-y,z
loop_
_atom_site_type_symbol
_atom_site_label
_atom_site_fract_x
_atom_site_fract_y
_atom_site_fract_z
Si Si1 0.756015 0.295021 0.500000
Si Si2 0.091488 0.845928 0.500000
Si Si3 0.906671 0.587349 0.801778
Si Si4 0.750438 0.457221 0.305673
Si Si5 0.316952 0.161795 0.811965
Si Si6 0.347347 0.611663 0.184836
O O1 0.750000 0.250000 0.500000
O O2 0.664026 0.314064 0.500000
O O3 0.808857 0.306033 0.332496
O O4 0.094072 0.873358 0.335033
O O5 0.000000 0.825947 0.500000
O O6 0.843164 0.560215 0.703027
O O7 0.890884 0.632434 0.764313
O O8 0.000000 0.577478 0.741540
O O9 0.893968 0.579366 0.000000
O O10 0.723208 0.457922 0.500000
O O11 0.750458 0.500000 0.228258
O O12 0.681623 0.432150 0.208334
O O13 0.233967 0.137334 0.814017
O O14 0.331677 0.180369 0.000000
O O15 0.392014 0.614948 0.000000
#
# Coordination Sequence:
#
# PCOD8267508 Si02
#       6
#     8   8  16  16  16  16
#     4  10  20  34  54  79 104 133 165 194 242 309
#     4  10  20  36  57  80 107 130 158 211 257 292
#     4   9  18  31  46  67  97 135 180 222 257 296
#     4  10  19  30  46  71 102 135 174 218 261 306
#     4   8  16  31  50  71  96 130 173 212 242 286
#     4   9  17  32  54  75  97 132 174 209 248 299
#
# _framework density 18.104734000000001
#
# number of rings (size 3 to 8) (size 9 to 14) (size 15 to 20)
#    0.000    2.800    1.000    1.800    4.200    3.200 
#    0.000    3.000    0.000    1.200    0.000    1.400 
#    0.000    0.000    0.000    0.000    0.000    0.000 
#
# Total GULP energy -495721.734855 kJ/mol
# GULP energy per Si atom -12393.043371 kJ/mol
# Density = 1.806353 g / cm^3
# Si number density = 18.104734 Si / 1000 Ang^3
#
#
#
# Elastic Constant Matrix: (Units=GPa)
#
#
# Indices 1 2 3 4 5 6 
#
# 1 47.9915 12.0579 12.6502 0.0000 0.0000 0.0000
# 2 12.0579 109.2080 48.6234 0.0000 0.0000 0.0000
# 3 12.6502 48.6234 116.1826 0.0000 0.0000 0.0000
# 4 0.0000 0.0000 0.0000 17.4496 0.0000 0.0000
# 5 0.0000 0.0000 0.0000 0.0000 8.3202 0.0000
# 6 0.0000 0.0000 0.0000 0.0000 0.0000 14.6738
#
#
#
# Elastic Compliance Matrix: (Units=1/GPa)
#
#
# Indices 1 2 3 4 5 6 
#
# 1 0.021692 -0.001651 -0.001671 0.000000 0.000000 0.000000
# 2 -0.001651 0.011380 -0.004583 0.000000 0.000000 0.000000
# 3 -0.001671 -0.004583 0.010707 0.000000 0.000000 0.000000
# 4 0.000000 0.000000 0.000000 0.057308 0.000000 0.000000
# 5 0.000000 0.000000 0.000000 0.000000 0.120189 0.000000
# 6 0.000000 0.000000 0.000000 0.000000 0.000000 0.068149
#
#
# Mechanical properties :
#
#
# Convention : Reuss Voigt Hill
#
# Bulk Modulus (GPa) = 35.75335 46.67167 41.21251
# Shear Modulus (GPa) = 15.89538 21.42543 18.66040
#
# Velocity S-wave (km/s) = 2.96627 3.44381 3.21392
# Velocity P-wave (km/s) = 5.61450 6.45351 6.04857
#
# Compressibility (1/GPa) = 0.02796941
#
# Stress axis : x y z
#
# Youngs Moduli (GPa) = 46.09925 87.87732 93.39735
#
# Poissons Ratio (x) = 0.14510 0.15606
# Poissons Ratio (y) = 0.07612 0.42801
# Poissons Ratio (z) = 0.07703 0.40271
#
# Static dielectric constant tensor:
#      x y z
#    x 3.143560 0.000000 0.000000 
#    y 0.000000 3.152420 0.000000 
#    z 0.000000 0.000000 3.862140 
# 
# 
# High freq. dielectric constant tensor:
#      x y z
#    x 1.670920 0.000000 0.000000 
#    y 0.000000 1.672160 0.000000 
#    z 0.000000 0.000000 1.717520 
# 
# From -- ./inp_files/9924.got.cif
#   From: 2010.03.12/outbox.cif.g09.slc.cpg/sg65_5_cif.got.tgz:9924.got - 2010.04.10 20:52:16.
