data_PCOD8267503
_publ_section_title
;
Structure prediction by ZEFSAII (Michael W. Deem and Ramdas Pophale) SiO2 
 PCOD8267503
Probable space group: C M M M
;
_chemical_formula_sum "Si O2"
_cell_formula_units_Z 88
_cell_length_a 23.962044
_cell_length_b 16.370286
_cell_length_c 13.699943
_cell_angle_alpha 90.000000
_cell_angle_beta 90.000000
_cell_angle_gamma 90.000000
_cell_volume 5374.015175
_symmetry_space_group_name_H-M "C M M M"
_symmetry_group_IT_number 65
_symmetry_cell_setting 'orthorhombic'
loop_
_space_group_symop_operation_xyz
x,y,z
-x,-y,z
x,-y,-z
-x,y,-z
-x,-y,-z
x,y,-z
-x,y,z
x,-y,z
1/2+x,1/2+y,z
1/2-x,1/2-y,z
1/2+x,1/2-y,-z
1/2-x,1/2+y,-z
1/2-x,1/2-y,-z
1/2+x,1/2+y,-z
1/2-x,1/2+y,z
1/2+x,1/2-y,z
loop_
_atom_site_type_symbol
_atom_site_label
_atom_site_fract_x
_atom_site_fract_y
_atom_site_fract_z
Si Si1 0.851039 0.701371 0.222945
Si Si2 0.307941 0.295583 0.392365
Si Si3 0.351370 0.368429 0.114395
Si Si4 0.937770 0.000000 0.116138
Si Si5 0.244243 0.090578 0.243473
Si Si6 0.435337 0.095196 0.110775
O O1 0.852807 0.739619 0.332657
O O2 0.851721 0.774876 0.146864
O O3 0.794307 0.650316 0.215111
O O4 0.902808 0.643903 0.195306
O O5 0.332905 0.314916 0.500000
O O6 0.250000 0.250000 0.404666
O O7 0.293942 0.378236 0.333676
O O8 0.405537 0.418489 0.152776
O O9 0.295678 0.413565 0.150127
O O10 0.350315 0.371009 0.000000
O O11 0.000000 0.000000 0.161628
O O12 0.941139 0.000000 0.000000
O O13 0.267061 0.000000 0.268253
O O14 0.500000 0.116596 0.123677
O O15 0.424238 0.000000 0.128203
O O16 0.416347 0.118720 0.000000
#
# Coordination Sequence:
#
# PCOD8267503 Si02
#       6
#    16  16  16   8  16  16
#     4  10  19  30  49  72  95 127 167 206 247 304
#     4   8  16  31  48  68  95 124 157 202 251 298
#     4  10  19  31  44  64  97 128 159 203 246 294
#     4   9  18  32  48  64  87 125 166 206 249 286
#     4  10  19  30  46  70  99 128 161 197 246 306
#     4   9  18  32  48  69 100 134 169 209 247 290
#
# _framework density 16.375093
#
# number of rings (size 3 to 8) (size 9 to 14) (size 15 to 20)
#    0.000    2.636    0.909    3.273    0.000    3.273 
#    0.000    1.818    0.000    2.182    0.000    1.273 
#    0.000    3.636    0.000    0.000    0.000    0.000 
#
# Total GULP energy -545218.639622 kJ/mol
# GULP energy per Si atom -12391.332719 kJ/mol
# Density = 1.633782 g / cm^3
# Si number density = 16.375093 Si / 1000 Ang^3
#
#
#
# Elastic Constant Matrix: (Units=GPa)
#
#
# Indices 1 2 3 4 5 6 
#
# 1 84.6734 51.7509 46.9358 0.0000 0.0000 0.0000
# 2 51.7509 113.8773 45.3653 0.0000 0.0000 0.0000
# 3 46.9358 45.3653 94.8855 0.0000 0.0000 0.0000
# 4 0.0000 0.0000 0.0000 14.5862 0.0000 0.0000
# 5 0.0000 0.0000 0.0000 0.0000 14.8033 0.0000
# 6 0.0000 0.0000 0.0000 0.0000 0.0000 28.9763
#
#
#
# Elastic Compliance Matrix: (Units=1/GPa)
#
#
# Indices 1 2 3 4 5 6 
#
# 1 0.019180 -0.006098 -0.006572 0.000000 0.000000 0.000000
# 2 -0.006098 0.012786 -0.003097 0.000000 0.000000 0.000000
# 3 -0.006572 -0.003097 0.015270 0.000000 0.000000 0.000000
# 4 0.000000 0.000000 0.000000 0.068558 0.000000 0.000000
# 5 0.000000 0.000000 0.000000 0.000000 0.067553 0.000000
# 6 0.000000 0.000000 0.000000 0.000000 0.000000 0.034511
#
#
# Mechanical properties :
#
#
# Convention : Reuss Voigt Hill
#
# Bulk Modulus (GPa) = 63.68168 64.61557 64.14863
# Shear Modulus (GPa) = 19.63660 21.63211 20.63435
#
# Velocity S-wave (km/s) = 3.46667 3.63855 3.55365
# Velocity P-wave (km/s) = 7.41603 7.56290 7.48982
#
# Compressibility (1/GPa) = 0.01570310
#
# Stress axis : x y z
#
# Youngs Moduli (GPa) = 52.13714 78.20862 65.48597
#
# Poissons Ratio (x) = 0.47694 0.43037
# Poissons Ratio (y) = 0.31794 0.20279
# Poissons Ratio (z) = 0.34265 0.24219
#
# Static dielectric constant tensor:
#      x y z
#    x 3.045150 0.000000 0.000000 
#    y 0.000000 3.337360 0.000000 
#    z 0.000000 0.000000 3.199070 
# 
# 
# High freq. dielectric constant tensor:
#      x y z
#    x 1.608970 0.000000 0.000000 
#    y 0.000000 1.642100 0.000000 
#    z 0.000000 0.000000 1.610010 
# 
# From -- ./inp_files/40561.got.cif
#   From: 2010.03.12/outbox.cif.g09.slc.cpg/sg65_21_cif.got.tgz:40561.got - 2010.04.10 20:52:16.
