data_PCOD8267548
_publ_section_title
;
Structure prediction by ZEFSAII (Michael W. Deem and Ramdas Pophale) SiO2 
 PCOD8267548
Probable space group: C M M M
;
_chemical_formula_sum "Si O2"
_cell_formula_units_Z 96
_cell_length_a 19.452539
_cell_length_b 9.002654
_cell_length_c 31.120039
_cell_angle_alpha 90.000000
_cell_angle_beta 90.000000
_cell_angle_gamma 90.000000
_cell_volume 5449.880586
_symmetry_space_group_name_H-M "C M M M"
_symmetry_group_IT_number 65
_symmetry_cell_setting 'orthorhombic'
loop_
_space_group_symop_operation_xyz
x,y,z
-x,-y,z
x,-y,-z
-x,y,-z
-x,-y,-z
x,y,-z
-x,y,z
x,-y,z
1/2+x,1/2+y,z
1/2-x,1/2-y,z
1/2+x,1/2-y,-z
1/2-x,1/2+y,-z
1/2-x,1/2-y,-z
1/2+x,1/2+y,-z
1/2-x,1/2+y,z
1/2+x,1/2-y,z
loop_
_atom_site_type_symbol
_atom_site_label
_atom_site_fract_x
_atom_site_fract_y
_atom_site_fract_z
Si Si1 0.179793 0.174668 0.048423
Si Si2 0.578533 0.673907 0.707993
Si Si3 0.078402 0.825436 0.121976
Si Si4 0.581733 0.832559 0.206787
Si Si5 0.324459 0.323610 0.629749
Si Si6 0.176403 0.674082 0.546638
O O1 0.250000 0.250000 0.063455
O O2 0.119826 0.228469 0.080174
O O3 0.190544 0.000000 0.051202
O O4 0.159811 0.223671 0.000000
O O5 0.500000 0.723091 0.698379
O O6 0.582471 0.500000 0.716578
O O7 0.608910 0.753047 0.750276
O O8 0.625699 0.722621 0.668355
O O9 0.110205 0.748416 0.164275
O O10 0.000000 0.776162 0.114295
O O11 0.084405 0.000000 0.129194
O O12 0.500000 0.823841 0.206376
O O13 0.609289 0.000000 0.206740
O O14 0.316663 0.500000 0.625600
O O15 0.250000 0.250000 0.637309
O O16 0.360866 0.256733 0.586473
O O17 0.138961 0.696418 0.500000
O O18 0.184323 0.500000 0.556950
O O19 0.250000 0.750000 0.543670
#
# Coordination Sequence:
#
# PCOD8267548 Si02
#       6
#    16  16  16  16  16  16
#     4   9  18  32  49  69  94 125 158 189 225 272
#     4   9  18  33  51  69  91 122 158 190 224 272
#     4   9  17  30  49  71  94 120 151 190 232 270
#     4   9  17  29  47  71  95 119 150 189 231 273
#     4  10  19  30  47  70  95 121 149 188 233 273
#     4   9  16  26  42  64  90 120 153 188 226 270
#
# _framework density 17.615065999999999
#
# number of rings (size 3 to 8) (size 9 to 14) (size 15 to 20)
#    0.000    2.833    0.000    2.500    0.000    5.333 
#    0.000    2.500    0.000    0.500    0.000    8.167 
#    0.000    0.000    0.000    0.000    0.000    0.000 
#
# Total GULP energy -594939.255935 kJ/mol
# GULP energy per Si atom -12394.567832 kJ/mol
# Density = 1.757497 g / cm^3
# Si number density = 17.615066 Si / 1000 Ang^3
#
#
#
# Elastic Constant Matrix: (Units=GPa)
#
#
# Indices 1 2 3 4 5 6 
#
# 1 58.9350 31.4308 68.3556 0.0000 0.0000 0.0000
# 2 31.4308 69.0151 64.7004 0.0000 0.0000 0.0000
# 3 68.3556 64.7004 185.1369 0.0000 0.0000 0.0000
# 4 0.0000 0.0000 0.0000 29.3816 0.0000 0.0000
# 5 0.0000 0.0000 0.0000 0.0000 29.4592 0.0000
# 6 0.0000 0.0000 0.0000 0.0000 0.0000 19.2267
#
#
#
# Elastic Compliance Matrix: (Units=1/GPa)
#
#
# Indices 1 2 3 4 5 6 
#
# 1 0.030797 -0.005006 -0.009621 0.000000 0.000000 0.000000
# 2 -0.005006 0.022363 -0.005967 0.000000 0.000000 0.000000
# 3 -0.009621 -0.005967 0.011039 0.000000 0.000000 0.000000
# 4 0.000000 0.000000 0.000000 0.034035 0.000000 0.000000
# 5 0.000000 0.000000 0.000000 0.000000 0.033945 0.000000
# 6 0.000000 0.000000 0.000000 0.000000 0.000000 0.052011
#
#
# Mechanical properties :
#
#
# Convention : Reuss Voigt Hill
#
# Bulk Modulus (GPa) = 43.45767 71.34009 57.39888
# Shear Modulus (GPa) = 21.45472 25.52020 23.48746
#
# Velocity S-wave (km/s) = 3.49374 3.81040 3.65550
# Velocity P-wave (km/s) = 6.40306 7.74250 7.10442
#
# Compressibility (1/GPa) = 0.02301090
#
# Stress axis : x y z
#
# Youngs Moduli (GPa) = 32.47107 44.71586 90.58653
#
# Poissons Ratio (x) = 0.22383 0.87156
# Poissons Ratio (y) = 0.16254 0.54056
# Poissons Ratio (z) = 0.31241 0.26683
#
# Static dielectric constant tensor:
#      x y z
#    x 2.965160 0.000000 0.000000 
#    y 0.000000 3.300070 0.000000 
#    z 0.000000 0.000000 3.852770 
# 
# 
# High freq. dielectric constant tensor:
#      x y z
#    x 1.631140 0.000000 0.000000 
#    y 0.000000 1.685410 0.000000 
#    z 0.000000 0.000000 1.702190 
# 
# From -- ./inp_files/75669.got.cif
#   From: 2010.03.12/outbox.cif.g09.slc.cpg/sg65_38_cif.got.tgz:75669.got - 2010.04.10 20:52:16.
