data_PCOD8267530
_publ_section_title
;
Structure prediction by ZEFSAII (Michael W. Deem and Ramdas Pophale) SiO2 
 PCOD8267530
Probable space group: C M M M
;
_chemical_formula_sum "Si O2"
_cell_formula_units_Z 104
_cell_length_a 18.869062
_cell_length_b 9.021754
_cell_length_c 34.113943
_cell_angle_alpha 90.000000
_cell_angle_beta 90.000000
_cell_angle_gamma 90.000000
_cell_volume 5807.285958
_symmetry_space_group_name_H-M "C M M M"
_symmetry_group_IT_number 65
_symmetry_cell_setting 'orthorhombic'
loop_
_space_group_symop_operation_xyz
x,y,z
-x,-y,z
x,-y,-z
-x,y,-z
-x,-y,-z
x,y,-z
-x,y,z
x,-y,z
1/2+x,1/2+y,z
1/2-x,1/2-y,z
1/2+x,1/2-y,-z
1/2-x,1/2+y,-z
1/2-x,1/2-y,-z
1/2+x,1/2+y,-z
1/2-x,1/2+y,z
1/2+x,1/2-y,z
loop_
_atom_site_type_symbol
_atom_site_label
_atom_site_fract_x
_atom_site_fract_y
_atom_site_fract_z
Si Si1 0.673562 0.675918 0.617859
Si Si2 0.915484 0.832760 0.000000
Si Si3 0.584420 0.167081 0.769635
Si Si4 0.674111 0.173708 0.457419
Si Si5 0.418766 0.672798 0.692141
Si Si6 0.915491 0.332785 0.076907
Si Si7 0.915452 0.167195 0.846180
O O1 0.680816 0.500000 0.613525
O O2 0.750000 0.750000 0.623726
O O3 0.634920 0.744212 0.578842
O O4 0.625683 0.721627 0.654490
O O5 0.886113 0.750446 0.038524
O O6 0.000000 0.831321 0.000000
O O7 0.886544 0.000000 0.000000
O O8 0.500000 0.172266 0.770325
O O9 0.612382 0.242373 0.729844
O O10 0.614694 0.253632 0.807306
O O11 0.613032 0.000000 0.771270
O O12 0.635735 0.195948 0.500000
O O13 0.750000 0.250000 0.459884
O O14 0.682492 0.000000 0.448068
O O15 0.500000 0.716983 0.684094
O O16 0.411354 0.500000 0.701041
O O17 0.886543 0.500000 0.076632
O O18 0.886167 0.251566 0.115596
O O19 0.000000 0.331283 0.076877
O O20 0.000000 0.169700 0.846005
O O21 0.886717 0.000000 0.847050
#
# Coordination Sequence:
#
# PCOD8267530 Si02
#       7
#    16   8  16  16  16  16  16
#     4  10  19  30  47  69  92 117 144 178 216 254
#     4   9  15  21  27  35  49  71 101 137 182 237
#     4   9  16  25  38  56  75  96 125 162 203 244
#     4   9  16  26  42  64  89 115 143 176 212 250
#     4   9  18  32  47  63  85 114 146 177 212 255
#     4   9  15  21  28  38  53  74 103 142 187 233
#     4   9  15  22  32  45  62  85 113 148 191 237
#
# _framework density 17.908539000000001
#
# number of rings (size 3 to 8) (size 9 to 14) (size 15 to 20)
#    0.000    2.846    0.000    3.462    0.000    8.615 
#    0.000    0.000    0.000    0.462    0.000    3.231 
#    0.000    0.000    0.000    0.000    0.000    0.000 
#
# Total GULP energy -644507.835417 kJ/mol
# GULP energy per Si atom -12394.381450 kJ/mol
# Density = 1.786778 g / cm^3
# Si number density = 17.908539 Si / 1000 Ang^3
#
#
#
# Elastic Constant Matrix: (Units=GPa)
#
#
# Indices 1 2 3 4 5 6 
#
# 1 15.3918 16.8547 26.8135 0.0000 0.0000 0.0000
# 2 16.8547 151.6810 105.1471 0.0000 0.0000 0.0000
# 3 26.8135 105.1471 217.6072 0.0000 0.0000 0.0000
# 4 0.0000 0.0000 0.0000 41.4672 0.0000 0.0000
# 5 0.0000 0.0000 0.0000 0.0000 -0.7201 0.0000
# 6 0.0000 0.0000 0.0000 0.0000 0.0000 9.1046
#
#
#
# Elastic Compliance Matrix: (Units=1/GPa)
#
#
# Indices 1 2 3 4 5 6 
#
# 1 0.083772 -0.003238 -0.008758 0.000000 0.000000 0.000000
# 2 -0.003238 0.010038 -0.004452 0.000000 0.000000 0.000000
# 3 -0.008758 -0.004452 0.007826 0.000000 0.000000 0.000000
# 4 0.000000 0.000000 0.000000 0.024115 0.000000 0.000000
# 5 0.000000 0.000000 0.000000 0.000000 -1.388760 0.000000
# 6 0.000000 0.000000 0.000000 0.000000 0.000000 0.109835
#
#
# Mechanical properties :
#
#
# Convention : Reuss Voigt Hill
#
# Bulk Modulus (GPa) = 14.54718 75.81228 45.17973
# Shear Modulus (GPa) = -4.55637 25.69466 10.56914
#
# Velocity S-wave (km/s) = -1.59680 3.79195 2.43198
# Velocity P-wave (km/s) = 2.17738 7.84836 5.75924
#
# Compressibility (1/GPa) = 0.06874185
#
# Stress axis : x y z
#
# Youngs Moduli (GPa) = 11.93714 99.61696 127.78579
#
# Poissons Ratio (x) = 0.32252 1.11915
# Poissons Ratio (y) = 0.03865 0.56885
# Poissons Ratio (z) = 0.10455 0.44346
#
# Static dielectric constant tensor:
#      x y z
#    x 2.490900 0.000000 0.000000 
#    y 0.000000 3.504250 0.000000 
#    z 0.000000 0.000000 3.908280 
# 
# 
# High freq. dielectric constant tensor:
#      x y z
#    x 1.593030 0.000000 0.000000 
#    y 0.000000 1.711310 0.000000 
#    z 0.000000 0.000000 1.721290 
# 
# From -- ./inp_files/78357.got.cif
#   From: 2010.03.12/outbox.cif.g09.slc.cpg/sg65_40_cif.got.tgz:78357.got - 2010.04.10 20:52:16.
