data_PCOD8267099
_publ_section_title
;
Structure prediction by ZEFSAII (Michael W. Deem and Ramdas Pophale) SiO2 
 PCOD8267099
Probable space group: C M M M
;
_chemical_formula_sum "Si O2"
_cell_formula_units_Z 80
_cell_length_a 28.345082
_cell_length_b 26.626618
_cell_length_c 7.918591
_cell_angle_alpha 90.000000
_cell_angle_beta 90.000000
_cell_angle_gamma 90.000000
_cell_volume 5976.427251
_symmetry_space_group_name_H-M "C M M M"
_symmetry_group_IT_number 65
_symmetry_cell_setting 'orthorhombic'
loop_
_space_group_symop_operation_xyz
x,y,z
-x,-y,z
x,-y,-z
-x,y,-z
-x,-y,-z
x,y,-z
-x,y,z
x,-y,z
1/2+x,1/2+y,z
1/2-x,1/2-y,z
1/2+x,1/2-y,-z
1/2-x,1/2+y,-z
1/2-x,1/2-y,-z
1/2+x,1/2+y,-z
1/2-x,1/2+y,z
1/2+x,1/2-y,z
loop_
_atom_site_type_symbol
_atom_site_label
_atom_site_fract_x
_atom_site_fract_y
_atom_site_fract_z
Si Si1 0.618654 0.443215 0.697868
Si Si2 0.827551 0.256493 0.000000
Si Si3 0.752109 0.832712 0.000000
Si Si4 0.129192 0.214824 0.316165
Si Si5 0.702914 0.625543 0.687643
Si Si6 0.946903 0.857383 0.806135
O O1 0.608603 0.439721 0.500000
O O2 0.615784 0.500000 0.765457
O O3 0.670987 0.422339 0.737663
O O4 0.578672 0.411006 0.790054
O O5 0.791698 0.210119 0.000000
O O6 0.799875 0.309000 0.000000
O O7 0.860554 0.254592 0.833058
O O8 0.757283 0.866896 0.168673
O O9 0.128618 0.242062 0.500000
O O10 0.170099 0.173969 0.314962
O O11 0.079466 0.186632 0.294486
O O12 0.725759 0.618405 0.500000
O O13 0.000000 0.862117 0.735604
O O14 0.946622 0.841321 0.000000
#
# Coordination Sequence:
#
# PCOD8267099 Si02
#       6
#    16   8   8  16  16  16
#     4   9  18  30  41  53  70  94 124 157 191 226
#     4   9  16  26  37  56  73  85 110 137 167 220
#     4   9  16  24  39  54  71  91 106 133 175 216
#     4   9  16  27  41  53  70  93 113 140 178 217
#     4   8  15  26  38  53  71  90 114 141 174 218
#     4  10  19  29  40  54  72  93 122 158 191 227
#
# _framework density 13.385923999999999
#
# number of rings (size 3 to 8) (size 9 to 14) (size 15 to 20)
#    0.000    3.000    1.000    1.800    4.200    3.200 
#    0.000    6.000    0.000    0.000    0.000    0.000 
#    0.000    0.000    0.000    0.000    0.000    0.000 
#
# Total GULP energy -495753.708870 kJ/mol
# GULP energy per Si atom -12393.842722 kJ/mol
# Density = 1.335546 g / cm^3
# Si number density = 13.385924 Si / 1000 Ang^3
#
#
#
# Elastic Constant Matrix: (Units=GPa)
#
#
# Indices 1 2 3 4 5 6 
#
# 1 56.0401 39.8114 42.4404 0.0000 0.0000 0.0000
# 2 39.8114 30.1134 30.3193 0.0000 0.0000 0.0000
# 3 42.4404 30.3193 100.6671 0.0000 0.0000 0.0000
# 4 0.0000 0.0000 0.0000 13.8623 0.0000 0.0000
# 5 0.0000 0.0000 0.0000 0.0000 11.7131 0.0000
# 6 0.0000 0.0000 0.0000 0.0000 0.0000 11.2163
#
#
#
# Elastic Compliance Matrix: (Units=1/GPa)
#
#
# Indices 1 2 3 4 5 6 
#
# 1 0.300453 -0.387048 -0.010096 0.000000 0.000000 0.000000
# 2 -0.387048 0.546263 -0.001349 0.000000 0.000000 0.000000
# 3 -0.010096 -0.001349 0.014596 0.000000 0.000000 0.000000
# 4 0.000000 0.000000 0.000000 0.072138 0.000000 0.000000
# 5 0.000000 0.000000 0.000000 0.000000 0.085375 0.000000
# 6 0.000000 0.000000 0.000000 0.000000 0.000000 0.089156
#
#
# Mechanical properties :
#
#
# Convention : Reuss Voigt Hill
#
# Bulk Modulus (GPa) = 15.54590 45.77363 30.65977
# Shear Modulus (GPa) = 2.59550 12.30830 7.45190
#
# Velocity S-wave (km/s) = 1.39398 3.03561 2.36200
# Velocity P-wave (km/s) = 3.77223 6.82321 5.51298
#
# Compressibility (1/GPa) = 0.06432564
#
# Stress axis : x y z
#
# Youngs Moduli (GPa) = 3.32831 1.83062 68.51036
#
# Poissons Ratio (x) = 0.70854 0.69167
# Poissons Ratio (y) = 1.28822 0.09242
# Poissons Ratio (z) = 0.03360 0.00247
#
# Static dielectric constant tensor:
#      x y z
#    x 2.500590 0.000000 0.000000 
#    y 0.000000 2.422520 0.000000 
#    z 0.000000 0.000000 2.998800 
# 
# 
# High freq. dielectric constant tensor:
#      x y z
#    x 1.471490 0.000000 0.000000 
#    y 0.000000 1.457500 0.000000 
#    z 0.000000 0.000000 1.531840 
# 
# From -- ./inp_files/14211.got.cif
#   From: 2010.03.12/outbox.cif.g09.slc.cpg/sg65_8_cif.got.tgz:14211.got - 2010.04.10 20:52:16.
