data_PCOD8267089
_publ_section_title
;
Structure prediction by ZEFSAII (Michael W. Deem and Ramdas Pophale) SiO2 
 PCOD8267089
Probable space group: C M M M
;
_chemical_formula_sum "Si O2"
_cell_formula_units_Z 112
_cell_length_a 18.388294
_cell_length_b 22.183053
_cell_length_c 14.569748
_cell_angle_alpha 90.000000
_cell_angle_beta 90.000000
_cell_angle_gamma 90.000000
_cell_volume 5943.124058
_symmetry_space_group_name_H-M "C M M M"
_symmetry_group_IT_number 65
_symmetry_cell_setting 'orthorhombic'
loop_
_space_group_symop_operation_xyz
x,y,z
-x,-y,z
x,-y,-z
-x,y,-z
-x,-y,-z
x,y,-z
-x,y,z
x,-y,z
1/2+x,1/2+y,z
1/2-x,1/2-y,z
1/2+x,1/2-y,-z
1/2-x,1/2+y,-z
1/2-x,1/2-y,-z
1/2+x,1/2+y,-z
1/2-x,1/2+y,z
1/2+x,1/2-y,z
loop_
_atom_site_type_symbol
_atom_site_label
_atom_site_fract_x
_atom_site_fract_y
_atom_site_fract_z
Si Si1 0.583158 0.263751 0.895989
Si Si2 0.081062 0.430398 0.741394
Si Si3 0.149089 0.361939 0.105401
Si Si4 0.209491 0.067723 0.895131
Si Si5 0.196452 0.570727 0.600211
Si Si6 0.082606 0.118562 0.214674
Si Si7 0.637803 0.570367 0.605752
O O1 0.500000 0.241137 0.884249
O O2 0.639374 0.209354 0.878038
O O3 0.601802 0.314470 0.820915
O O4 0.594477 0.288794 0.000000
O O5 0.098878 0.500000 0.758039
O O6 0.087837 0.396836 0.837917
O O7 0.138560 0.400717 0.670483
O O8 0.000000 0.421274 0.702107
O O9 0.229278 0.384275 0.136499
O O10 0.135808 0.379015 0.000000
O O11 0.137421 0.072511 0.833756
O O12 0.240660 0.000000 0.882062
O O13 0.187099 0.079794 0.000000
O O14 0.183729 0.600022 0.500000
O O15 0.182250 0.500000 0.592919
O O16 0.278514 0.582798 0.632589
O O17 0.090597 0.111665 0.325165
O O18 0.000000 0.102601 0.186648
O O19 0.622060 0.589014 0.500000
O O20 0.618384 0.500000 0.619060
#
# Coordination Sequence:
#
# PCOD8267089 Si02
#       7
#    16  16  16  16  16  16  16
#     4   9  19  36  56  77 102 137 182 223 258 305
#     4  10  19  28  44  75 108 135 169 216 270 327
#     4  10  20  35  54  73 100 139 180 222 262 303
#     4  10  21  35  52  77 107 139 177 219 265 320
#     4   8  15  30  50  70  97 133 168 205 251 303
#     4  11  22  35  53  77 107 140 172 214 266 314
#     4   9  18  33  54  79 105 136 174 212 256 317
#
# _framework density 18.845306999999998
#
# number of rings (size 3 to 8) (size 9 to 14) (size 15 to 20)
#    0.000    2.429    0.000    3.429    0.000    6.000 
#    0.000    5.714    0.000    0.857    0.000    5.000 
#    0.000    0.000    0.000    0.000    0.000    0.000 
#
# Total GULP energy -694253.007302 kJ/mol
# GULP energy per Si atom -12397.375130 kJ/mol
# Density = 1.880241 g / cm^3
# Si number density = 18.845307 Si / 1000 Ang^3
#
#
#
# Elastic Constant Matrix: (Units=GPa)
#
#
# Indices 1 2 3 4 5 6 
#
# 1 85.4048 43.9991 46.1283 0.0000 0.0000 0.0000
# 2 43.9991 77.1362 49.7090 0.0000 0.0000 0.0000
# 3 46.1283 49.7090 95.3008 0.0000 0.0000 0.0000
# 4 0.0000 0.0000 0.0000 20.4845 0.0000 0.0000
# 5 0.0000 0.0000 0.0000 0.0000 26.9998 0.0000
# 6 0.0000 0.0000 0.0000 0.0000 0.0000 26.7443
#
#
#
# Elastic Compliance Matrix: (Units=1/GPa)
#
#
# Indices 1 2 3 4 5 6 
#
# 1 0.018079 -0.007039 -0.005079 0.000000 0.000000 0.000000
# 2 -0.007039 0.022269 -0.008208 0.000000 0.000000 0.000000
# 3 -0.005079 -0.008208 0.017233 0.000000 0.000000 0.000000
# 4 0.000000 0.000000 0.000000 0.048817 0.000000 0.000000
# 5 0.000000 0.000000 0.000000 0.000000 0.037037 0.000000
# 6 0.000000 0.000000 0.000000 0.000000 0.000000 0.037391
#
#
# Mechanical properties :
#
#
# Convention : Reuss Voigt Hill
#
# Bulk Modulus (GPa) = 59.07508 59.72384 59.39946
# Shear Modulus (GPa) = 22.01462 22.71275 22.36369
#
# Velocity S-wave (km/s) = 3.42157 3.47539 3.44859
# Velocity P-wave (km/s) = 6.85747 6.91845 6.88803
#
# Compressibility (1/GPa) = 0.01692761
#
# Stress axis : x y z
#
# Youngs Moduli (GPa) = 55.31411 44.90549 58.02838
#
# Poissons Ratio (x) = 0.31610 0.29472
# Poissons Ratio (y) = 0.38936 0.47632
# Poissons Ratio (z) = 0.28094 0.36860
#
# Static dielectric constant tensor:
#      x y z
#    x 3.467730 0.000000 0.000000 
#    y 0.000000 3.120150 0.000000 
#    z 0.000000 0.000000 3.698310 
# 
# 
# High freq. dielectric constant tensor:
#      x y z
#    x 1.734510 0.000000 0.000000 
#    y 0.000000 1.691980 0.000000 
#    z 0.000000 0.000000 1.734540 
# 
# From -- ./inp_files/40858.got.cif
#   From: 2010.03.12/outbox.cif.g09.slc.cpg/sg65_21_cif.got.tgz:40858.got - 2010.04.10 20:52:16.
