data_PCOD8267995
_publ_section_title
;
Structure prediction by ZEFSAII (Michael W. Deem and Ramdas Pophale) SiO2 
 PCOD8267995
Probable space group: C M M M
;
_chemical_formula_sum "Si O2"
_cell_formula_units_Z 104
_cell_length_a 29.055351
_cell_length_b 8.015227
_cell_length_c 24.903650
_cell_angle_alpha 90.000000
_cell_angle_beta 90.000000
_cell_angle_gamma 90.000000
_cell_volume 5799.692353
_symmetry_space_group_name_H-M "C M M M"
_symmetry_group_IT_number 65
_symmetry_cell_setting 'orthorhombic'
loop_
_space_group_symop_operation_xyz
x,y,z
-x,-y,z
x,-y,-z
-x,y,-z
-x,-y,-z
x,y,-z
-x,y,z
x,-y,z
1/2+x,1/2+y,z
1/2-x,1/2-y,z
1/2+x,1/2-y,-z
1/2-x,1/2+y,-z
1/2-x,1/2-y,-z
1/2+x,1/2+y,-z
1/2-x,1/2+y,z
1/2+x,1/2-y,z
loop_
_atom_site_type_symbol
_atom_site_label
_atom_site_fract_x
_atom_site_fract_y
_atom_site_fract_z
Si Si1 0.554488 0.500000 0.559922
Si Si2 0.798513 0.196673 0.111700
Si Si3 0.395216 0.193682 0.260383
Si Si4 0.051561 0.697138 0.841746
Si Si5 0.109500 0.197337 0.940466
Si Si6 0.798724 0.804123 0.232409
Si Si7 0.945727 0.307126 0.367018
O O1 0.500000 0.500000 0.557517
O O2 0.575594 0.500000 0.500000
O O3 0.570548 0.673167 0.588201
O O4 0.750000 0.250000 0.084968
O O5 0.840959 0.271346 0.077876
O O6 0.801404 0.270683 0.172078
O O7 0.801847 0.000000 0.113736
O O8 0.416822 0.275329 0.206036
O O9 0.341089 0.231447 0.266323
O O10 0.421289 0.258440 0.313004
O O11 0.404236 0.000000 0.256620
O O12 0.051106 0.500000 0.837703
O O13 0.069992 0.748072 0.899912
O O14 0.000000 0.768745 0.835554
O O15 0.112389 0.000000 0.941673
O O16 0.098183 0.266973 0.000000
O O17 0.750000 0.750000 0.258828
O O18 0.803167 0.000000 0.232354
O O19 0.931938 0.500000 0.382378
O O20 0.000000 0.297488 0.357309
#
# Coordination Sequence:
#
# PCOD8267995 Si02
#       7
#     8  16  16  16  16  16  16
#     4   9  18  32  50  76 112 152 193 229 259 301
#     4   9  18  32  49  70  93 118 153 194 245 305
#     4  10  19  32  52  75 102 134 167 210 259 309
#     4  10  21  36  53  72  94 123 162 206 254 306
#     4  10  21  37  52  68  93 122 157 202 251 305
#     4  10  19  31  49  72 100 131 162 199 251 310
#     4   9  18  32  50  76 111 149 185 224 268 308
#
# _framework density 17.931985000000001
#
# number of rings (size 3 to 8) (size 9 to 14) (size 15 to 20)
#    0.000    2.385    1.538    0.923    1.077    4.615 
#    0.000    3.077    0.000    0.000    0.000    0.000 
#    0.000    0.615    0.308    0.000    0.000    0.000 
#
# Total GULP energy -644589.481969 kJ/mol
# GULP energy per Si atom -12395.951576 kJ/mol
# Density = 1.789117 g / cm^3
# Si number density = 17.931985 Si / 1000 Ang^3
#
#
#
# Elastic Constant Matrix: (Units=GPa)
#
#
# Indices 1 2 3 4 5 6 
#
# 1 99.0678 10.2528 50.5054 0.0000 0.0000 0.0000
# 2 10.2528 38.4801 38.6543 0.0000 0.0000 0.0000
# 3 50.5054 38.6543 120.0091 0.0000 0.0000 0.0000
# 4 0.0000 0.0000 0.0000 23.0367 0.0000 0.0000
# 5 0.0000 0.0000 0.0000 0.0000 53.4416 0.0000
# 6 0.0000 0.0000 0.0000 0.0000 0.0000 24.1112
#
#
#
# Elastic Compliance Matrix: (Units=1/GPa)
#
#
# Indices 1 2 3 4 5 6 
#
# 1 0.013085 0.003024 -0.006481 0.000000 0.000000 0.000000
# 2 0.003024 0.039116 -0.013872 0.000000 0.000000 0.000000
# 3 -0.006481 -0.013872 0.015528 0.000000 0.000000 0.000000
# 4 0.000000 0.000000 0.000000 0.043409 0.000000 0.000000
# 5 0.000000 0.000000 0.000000 0.000000 0.018712 0.000000
# 6 0.000000 0.000000 0.000000 0.000000 0.000000 0.041475
#
#
# Mechanical properties :
#
#
# Convention : Reuss Voigt Hill
#
# Bulk Modulus (GPa) = 30.23712 50.70911 40.47311
# Shear Modulus (GPa) = 23.04081 30.66087 26.85084
#
# Velocity S-wave (km/s) = 3.58844 4.13951 3.87379
# Velocity P-wave (km/s) = 5.83677 7.15453 6.52898
#
# Compressibility (1/GPa) = 0.03307194
#
# Stress axis : x y z
#
# Youngs Moduli (GPa) = 76.42296 25.56485 64.39961
#
# Poissons Ratio (x) = -0.07730 0.41735
# Poissons Ratio (y) = -0.23107 0.89333
# Poissons Ratio (z) = 0.49527 0.35463
#
# Static dielectric constant tensor:
#      x y z
#    x 3.393180 0.000000 0.000000 
#    y 0.000000 3.247410 0.000000 
#    z 0.000000 0.000000 3.033510 
# 
# 
# High freq. dielectric constant tensor:
#      x y z
#    x 1.687710 0.000000 0.000000 
#    y 0.000000 1.690210 0.000000 
#    z 0.000000 0.000000 1.661700 
# 
# From -- ./inp_files/72104.got.cif
#   From: 2010.03.12/outbox.cif.g09.slc.cpg/sg65_37_cif.got.tgz:72104.got - 2010.04.10 20:52:16.
