data_PCOD8267010
_publ_section_title
;
Structure prediction by ZEFSAII (Michael W. Deem and Ramdas Pophale) SiO2 
 PCOD8267010
Probable space group: C M M M
;
_chemical_formula_sum "Si O2"
_cell_formula_units_Z 88
_cell_length_a 9.025728
_cell_length_b 23.146610
_cell_length_c 22.903478
_cell_angle_alpha 90.000000
_cell_angle_beta 90.000000
_cell_angle_gamma 90.000000
_cell_volume 4784.880243
_symmetry_space_group_name_H-M "C M M M"
_symmetry_group_IT_number 65
_symmetry_cell_setting 'orthorhombic'
loop_
_space_group_symop_operation_xyz
x,y,z
-x,-y,z
x,-y,-z
-x,y,-z
-x,-y,-z
x,y,-z
-x,y,z
x,-y,z
1/2+x,1/2+y,z
1/2-x,1/2-y,z
1/2+x,1/2-y,-z
1/2-x,1/2+y,-z
1/2-x,1/2-y,-z
1/2+x,1/2+y,-z
1/2-x,1/2+y,z
1/2+x,1/2-y,z
loop_
_atom_site_type_symbol
_atom_site_label
_atom_site_fract_x
_atom_site_fract_y
_atom_site_fract_z
Si Si1 0.174214 0.811837 0.500000
Si Si2 0.824331 0.880614 0.174011
Si Si3 0.329596 0.308454 0.281156
Si Si4 0.174391 0.809739 0.934393
Si Si5 0.828731 0.888425 0.609151
Si Si6 0.824344 0.500000 0.647824
Si Si7 0.177008 0.000000 0.225433
O O1 0.250000 0.750000 0.500000
O O2 0.224742 0.847620 0.443360
O O3 0.000000 0.800946 0.500000
O O4 0.762767 0.834982 0.221448
O O5 0.772030 0.860211 0.109673
O O6 0.000000 0.881805 0.178376
O O7 0.765871 0.944731 0.188573
O O8 0.500000 0.292828 0.273351
O O9 0.250000 0.250000 0.298979
O O10 0.304102 0.355421 0.330666
O O11 0.250000 0.750000 0.916138
O O12 0.000000 0.799922 0.929436
O O13 0.220580 0.828233 0.000000
O O14 0.726700 0.944859 0.610354
O O15 0.000000 0.906659 0.601009
O O16 0.747569 0.500000 0.710863
O O17 0.000000 0.500000 0.655572
O O18 0.000000 0.000000 0.233916
#
# Coordination Sequence:
#
# PCOD8267010 Si02
#       7
#     8  16  16  16  16   8   8
#     4  10  22  39  62  87 113 146 184 220 265 320
#     4   9  17  30  51  75  98 136 178 214 260 315
#     4  10  19  31  50  75 103 135 173 215 262 312
#     4   9  17  30  48  73 105 137 173 215 259 311
#     4  10  21  39  59  79 108 148 182 213 261 327
#     4  12  24  37  57  85 110 137 179 232 276 309
#     4  10  18  36  58  73 102 144 178 214 268 333
#
# _framework density 18.391266000000002
#
# number of rings (size 3 to 8) (size 9 to 14) (size 15 to 20)
#    0.000    2.182    1.818    1.909    0.000    1.818 
#    0.000    3.182    0.000    2.727    0.000    0.000 
#    0.000    3.636    0.000    0.000    0.000    0.000 
#
# Total GULP energy -545596.476431 kJ/mol
# GULP energy per Si atom -12399.919919 kJ/mol
# Density = 1.834941 g / cm^3
# Si number density = 18.391266 Si / 1000 Ang^3
#
#
#
# Elastic Constant Matrix: (Units=GPa)
#
#
# Indices 1 2 3 4 5 6 
#
# 1 46.7646 50.1015 30.6437 0.0000 0.0000 0.0000
# 2 50.1015 135.3335 55.6565 0.0000 0.0000 0.0000
# 3 30.6437 55.6565 118.1699 0.0000 0.0000 0.0000
# 4 0.0000 0.0000 0.0000 64.2152 0.0000 0.0000
# 5 0.0000 0.0000 0.0000 0.0000 12.1565 0.0000
# 6 0.0000 0.0000 0.0000 0.0000 0.0000 29.3372
#
#
#
# Elastic Compliance Matrix: (Units=1/GPa)
#
#
# Indices 1 2 3 4 5 6 
#
# 1 0.036820 -0.012036 -0.003880 0.000000 0.000000 0.000000
# 2 -0.012036 0.013098 -0.003048 0.000000 0.000000 0.000000
# 3 -0.003880 -0.003048 0.010904 0.000000 0.000000 0.000000
# 4 0.000000 0.000000 0.000000 0.015573 0.000000 0.000000
# 5 0.000000 0.000000 0.000000 0.000000 0.082261 0.000000
# 6 0.000000 0.000000 0.000000 0.000000 0.000000 0.034086
#
#
# Mechanical properties :
#
#
# Convention : Reuss Voigt Hill
#
# Bulk Modulus (GPa) = 43.67553 63.67460 53.67507
# Shear Modulus (GPa) = 20.98182 32.06618 26.52400
#
# Velocity S-wave (km/s) = 3.38132 4.18012 3.80176
# Velocity P-wave (km/s) = 6.24852 7.61546 6.96560
#
# Compressibility (1/GPa) = 0.02289612
#
# Stress axis : x y z
#
# Youngs Moduli (GPa) = 27.15883 76.34512 91.70900
#
# Poissons Ratio (x) = 0.91887 0.35579
# Poissons Ratio (y) = 0.32688 0.27954
# Poissons Ratio (z) = 0.10536 0.23271
#
# Static dielectric constant tensor:
#      x y z
#    x 3.122470 0.000000 0.000000 
#    y 0.000000 3.532240 0.000000 
#    z 0.000000 0.000000 3.596060 
# 
# 
# High freq. dielectric constant tensor:
#      x y z
#    x 1.681820 0.000000 0.000000 
#    y 0.000000 1.719080 0.000000 
#    z 0.000000 0.000000 1.721100 
# 
# From -- ./inp_files/59867.got.cif
#   From: 2010.03.12/outbox.cif.g09.slc.cpg/sg65_30_cif.got.tgz:59867.got - 2010.04.10 20:52:16.
