data_PCOD8267817
_publ_section_title
;
Structure prediction by ZEFSAII (Michael W. Deem and Ramdas Pophale) SiO2 
 PCOD8267817
Probable space group: C M M M
;
_chemical_formula_sum "Si O2"
_cell_formula_units_Z 88
_cell_length_a 28.663918
_cell_length_b 8.917090
_cell_length_c 20.984526
_cell_angle_alpha 90.000000
_cell_angle_beta 90.000000
_cell_angle_gamma 90.000000
_cell_volume 5363.618333
_symmetry_space_group_name_H-M "C M M M"
_symmetry_group_IT_number 65
_symmetry_cell_setting 'orthorhombic'
loop_
_space_group_symop_operation_xyz
x,y,z
-x,-y,z
x,-y,-z
-x,y,-z
-x,-y,-z
x,y,-z
-x,y,z
x,-y,z
1/2+x,1/2+y,z
1/2-x,1/2-y,z
1/2+x,1/2-y,-z
1/2-x,1/2+y,-z
1/2-x,1/2-y,-z
1/2+x,1/2+y,-z
1/2-x,1/2+y,z
1/2+x,1/2-y,z
loop_
_atom_site_type_symbol
_atom_site_label
_atom_site_fract_x
_atom_site_fract_y
_atom_site_fract_z
Si Si1 0.200627 0.674265 0.567189
Si Si2 0.555000 0.333030 0.000000
Si Si3 0.800959 0.322220 0.705878
Si Si4 0.946159 0.323583 0.870716
Si Si5 0.136988 0.822668 0.813151
Si Si6 0.298296 0.675359 0.928507
O O1 0.173281 0.716301 0.500000
O O2 0.210681 0.500000 0.568252
O O3 0.250000 0.750000 0.564743
O O4 0.177311 0.716245 0.635197
O O5 0.578136 0.500000 0.000000
O O6 0.500000 0.349344 0.000000
O O7 0.571082 0.243571 0.062101
O O8 0.797105 0.500000 0.718005
O O9 0.750000 0.250000 0.715004
O O10 0.836798 0.248797 0.753981
O O11 0.937913 0.500000 0.871992
O O12 0.915018 0.246840 0.815828
O O13 0.000000 0.284015 0.856758
O O14 0.162602 0.774727 0.878469
O O15 0.134086 0.000000 0.804215
O O16 0.289611 0.500000 0.925184
O O17 0.250000 0.750000 0.908026
O O18 0.313641 0.725021 0.000000
#
# Coordination Sequence:
#
# PCOD8267817 Si02
#       6
#    16   8  16  16  16  16
#     4   8  14  25  42  64  90 123 159 192 228 270
#     4   9  17  31  51  71  90 113 142 181 233 289
#     4  10  19  31  47  68  98 130 162 199 235 276
#     4  10  21  36  52  71  94 118 150 195 244 293
#     4  11  22  33  49  69  92 123 159 197 238 290
#     4   9  19  34  48  63  84 113 151 193 231 268
#
# _framework density 16.406834
#
# number of rings (size 3 to 8) (size 9 to 14) (size 15 to 20)
#    0.000    2.455    0.000    2.455    1.273    5.818 
#    0.000    0.000    0.000    0.000    0.000    0.000 
#    0.000    0.727    0.000    8.364    0.000    2.364 
#
# Total GULP energy -545173.544052 kJ/mol
# GULP energy per Si atom -12390.307819 kJ/mol
# Density = 1.636949 g / cm^3
# Si number density = 16.406834 Si / 1000 Ang^3
#
#
#
# Elastic Constant Matrix: (Units=GPa)
#
#
# Indices 1 2 3 4 5 6 
#
# 1 74.7315 42.2189 65.1295 0.0000 0.0000 0.0000
# 2 42.2189 73.9301 56.5561 0.0000 0.0000 0.0000
# 3 65.1295 56.5561 134.5942 0.0000 0.0000 0.0000
# 4 0.0000 0.0000 0.0000 17.8710 0.0000 0.0000
# 5 0.0000 0.0000 0.0000 0.0000 -19.3740 0.0000
# 6 0.0000 0.0000 0.0000 0.0000 0.0000 23.6702
#
#
#
# Elastic Compliance Matrix: (Units=1/GPa)
#
#
# Indices 1 2 3 4 5 6 
#
# 1 0.025761 -0.007627 -0.009261 0.000000 0.000000 0.000000
# 2 -0.007627 0.022192 -0.005635 0.000000 0.000000 0.000000
# 3 -0.009261 -0.005635 0.014279 0.000000 0.000000 0.000000
# 4 0.000000 0.000000 0.000000 0.055957 0.000000 0.000000
# 5 0.000000 0.000000 0.000000 0.000000 -0.051616 0.000000
# 6 0.000000 0.000000 0.000000 0.000000 0.000000 0.042247
#
#
# Mechanical properties :
#
#
# Convention : Reuss Voigt Hill
#
# Bulk Modulus (GPa) = 58.18201 67.89608 63.03905
# Shear Modulus (GPa) = 31.32978 12.39020 21.85999
#
# Velocity S-wave (km/s) = 4.37459 2.75104 3.65413
# Velocity P-wave (km/s) = 7.81377 7.18078 7.50396
#
# Compressibility (1/GPa) = 0.01718744
#
# Stress axis : x y z
#
# Youngs Moduli (GPa) = 38.81868 45.06143 70.03465
#
# Poissons Ratio (x) = 0.34366 0.64858
# Poissons Ratio (y) = 0.29605 0.39461
# Poissons Ratio (z) = 0.35949 0.25390
#
# Static dielectric constant tensor:
#      x y z
#    x 3.013750 0.000000 0.000000 
#    y 0.000000 3.169290 0.000000 
#    z 0.000000 0.000000 3.669940 
# 
# 
# High freq. dielectric constant tensor:
#      x y z
#    x 1.594200 0.000000 0.000000 
#    y 0.000000 1.645270 0.000000 
#    z 0.000000 0.000000 1.631280 
# 
# From -- ./inp_files/60643.got.cif
#   From: 2010.03.12/outbox.cif.g09.slc.cpg/sg65_31_cif.got.tgz:60643.got - 2010.04.10 20:52:16.
