data_PCOD8267116
_publ_section_title
;
Structure prediction by ZEFSAII (Michael W. Deem and Ramdas Pophale) SiO2 
 PCOD8267116
Probable space group: C M M M
;
_chemical_formula_sum "Si O2"
_cell_formula_units_Z 96
_cell_length_a 24.987842
_cell_length_b 13.783159
_cell_length_c 16.567335
_cell_angle_alpha 90.000000
_cell_angle_beta 90.000000
_cell_angle_gamma 90.000000
_cell_volume 5705.979031
_symmetry_space_group_name_H-M "C M M M"
_symmetry_group_IT_number 65
_symmetry_cell_setting 'orthorhombic'
loop_
_space_group_symop_operation_xyz
x,y,z
-x,-y,z
x,-y,-z
-x,y,-z
-x,-y,-z
x,y,-z
-x,y,z
x,-y,z
1/2+x,1/2+y,z
1/2-x,1/2-y,z
1/2+x,1/2-y,-z
1/2-x,1/2+y,-z
1/2-x,1/2-y,-z
1/2+x,1/2+y,-z
1/2-x,1/2+y,z
1/2+x,1/2-y,z
loop_
_atom_site_type_symbol
_atom_site_label
_atom_site_fract_x
_atom_site_fract_y
_atom_site_fract_z
Si Si1 0.637704 0.616397 0.500000
Si Si2 0.560409 0.386917 0.805874
Si Si3 0.718106 0.386759 0.757386
Si Si4 0.621876 0.702593 0.665736
Si Si5 0.158655 0.114434 0.088563
Si Si6 0.757848 0.387042 0.500000
Si Si7 0.319716 0.887268 0.660470
O O1 0.634036 0.500000 0.500000
O O2 0.607606 0.659956 0.578010
O O3 0.698532 0.658591 0.500000
O O4 0.500000 0.363051 0.832944
O O5 0.567926 0.500000 0.785334
O O6 0.574291 0.326973 0.725547
O O7 0.600042 0.355704 0.878104
O O8 0.705898 0.500000 0.749977
O O9 0.679354 0.338786 0.692231
O O10 0.704271 0.349888 0.848239
O O11 0.779751 0.364656 0.735849
O O12 0.627569 0.820253 0.667134
O O13 0.161978 0.000000 0.079177
O O14 0.167322 0.162625 0.000000
O O15 0.748479 0.500000 0.500000
O O16 0.789945 0.355480 0.578944
O O17 0.337228 0.000000 0.659744
#
# Coordination Sequence:
#
# PCOD8267116 Si02
#       7
#     8  16  16  16  16   8  16
#     4  11  19  27  43  67  92 119 152 185 218 261
#     4   9  18  32  48  66  88 111 140 182 228 273
#     4   9  16  26  40  62  91 118 143 173 211 260
#     4  11  19  28  45  62  86 121 153 182 221 263
#     4   8  14  25  43  67  92 117 144 173 211 264
#     4   9  17  27  39  60  90 115 147 189 215 239
#     4  10  19  29  41  62  90 120 155 189 217 250
#
# _framework density 16.824456999999999
#
# number of rings (size 3 to 8) (size 9 to 14) (size 15 to 20)
#    0.000    2.500    1.667    3.500    0.000    1.000 
#    0.000    2.083    0.000   10.000    0.000    0.000 
#    0.000    3.333    0.000    6.000    0.000    0.667 
#
# Total GULP energy -594964.618861 kJ/mol
# GULP energy per Si atom -12395.096226 kJ/mol
# Density = 1.678616 g / cm^3
# Si number density = 16.824457 Si / 1000 Ang^3
#
#
#
# Elastic Constant Matrix: (Units=GPa)
#
#
# Indices 1 2 3 4 5 6 
#
# 1 36.0280 25.2959 26.3543 0.0000 0.0000 0.0000
# 2 25.2959 51.4578 27.7840 0.0000 0.0000 0.0000
# 3 26.3543 27.7840 136.8684 0.0000 0.0000 0.0000
# 4 0.0000 0.0000 0.0000 8.9434 0.0000 0.0000
# 5 0.0000 0.0000 0.0000 0.0000 15.9503 0.0000
# 6 0.0000 0.0000 0.0000 0.0000 0.0000 16.1849
#
#
#
# Elastic Compliance Matrix: (Units=1/GPa)
#
#
# Indices 1 2 3 4 5 6 
#
# 1 0.044903 -0.019548 -0.004678 0.000000 0.000000 0.000000
# 2 -0.019548 0.030336 -0.002394 0.000000 0.000000 0.000000
# 3 -0.004678 -0.002394 0.008693 0.000000 0.000000 0.000000
# 4 0.000000 0.000000 0.000000 0.111814 0.000000 0.000000
# 5 0.000000 0.000000 0.000000 0.000000 0.062695 0.000000
# 6 0.000000 0.000000 0.000000 0.000000 0.000000 0.061786
#
#
# Mechanical properties :
#
#
# Convention : Reuss Voigt Hill
#
# Bulk Modulus (GPa) = 32.58210 42.58030 37.58120
# Shear Modulus (GPa) = 13.03112 17.87705 15.45408
#
# Velocity S-wave (km/s) = 2.78606 3.26323 3.03404
# Velocity P-wave (km/s) = 5.45504 6.28982 5.88724
#
# Compressibility (1/GPa) = 0.03069170
#
# Stress axis : x y z
#
# Youngs Moduli (GPa) = 22.27025 32.96466 115.03468
#
# Poissons Ratio (x) = 0.64439 0.53813
# Poissons Ratio (y) = 0.43534 0.27540
# Poissons Ratio (z) = 0.10418 0.07892
#
# Static dielectric constant tensor:
#      x y z
#    x 2.834010 0.000000 0.000000 
#    y 0.000000 3.012470 0.000000 
#    z 0.000000 0.000000 3.093970 
# 
# 
# High freq. dielectric constant tensor:
#      x y z
#    x 1.600520 0.000000 0.000000 
#    y 0.000000 1.629550 0.000000 
#    z 0.000000 0.000000 1.653510 
# 
# From -- ./inp_files/47928.got.cif
#   From: 2010.03.12/outbox.cif.g09.slc.cpg/sg65_24_cif.got.tgz:47928.got - 2010.04.10 20:52:16.
