data_PCOD8267139
_publ_section_title
;
Structure prediction by ZEFSAII (Michael W. Deem and Ramdas Pophale) SiO2 
 PCOD8267139
Probable space group: C M M M
;
_chemical_formula_sum "Si O2"
_cell_formula_units_Z 88
_cell_length_a 22.276929
_cell_length_b 18.978603
_cell_length_c 13.854698
_cell_angle_alpha 90.000000
_cell_angle_beta 90.000000
_cell_angle_gamma 90.000000
_cell_volume 5857.558377
_symmetry_space_group_name_H-M "C M M M"
_symmetry_group_IT_number 65
_symmetry_cell_setting 'orthorhombic'
loop_
_space_group_symop_operation_xyz
x,y,z
-x,-y,z
x,-y,-z
-x,y,-z
-x,-y,-z
x,y,-z
-x,y,z
x,-y,z
1/2+x,1/2+y,z
1/2-x,1/2-y,z
1/2+x,1/2-y,-z
1/2-x,1/2+y,-z
1/2-x,1/2-y,-z
1/2+x,1/2+y,-z
1/2-x,1/2+y,z
1/2+x,1/2-y,z
loop_
_atom_site_type_symbol
_atom_site_label
_atom_site_fract_x
_atom_site_fract_y
_atom_site_fract_z
Si Si1 0.389393 0.150981 0.208310
Si Si2 0.570751 0.709820 0.887636
Si Si3 0.570486 0.919344 0.390101
Si Si4 0.354677 0.422809 0.885668
Si Si5 0.220028 0.418260 0.111166
Si Si6 0.000000 0.417655 0.105749
O O1 0.400137 0.232060 0.181701
O O2 0.393743 0.135868 0.322805
O O3 0.323579 0.129698 0.174031
O O4 0.439913 0.103621 0.159113
O O5 0.500000 0.708084 0.871511
O O6 0.597735 0.635485 0.851650
O O7 0.586685 0.724514 0.000000
O O8 0.587809 0.901580 0.500000
O O9 0.500000 0.909349 0.373012
O O10 0.588498 0.000000 0.365419
O O11 0.373327 0.500000 0.844150
O O12 0.287473 0.403100 0.851296
O O13 0.353493 0.427959 0.000000
O O14 0.203531 0.500000 0.124650
O O15 0.212546 0.396029 0.000000
O O16 0.000000 0.500000 0.094593
O O17 0.000000 0.381149 0.000000
#
# Coordination Sequence:
#
# PCOD8267139 Si02
#       6
#    16  16  16  16  16   8
#     4  12  19  27  41  61  90 117 142 177 215 256
#     4  10  19  29  42  63  91 118 145 179 218 259
#     4   9  17  29  43  58  79 112 154 191 217 246
#     4   8  16  31  46  60  82 114 152 188 215 247
#     4   9  17  28  42  61  86 117 151 179 204 247
#     4  11  20  26  35  55  86 124 151 164 189 237
#
# _framework density 15.023324000000001
#
# number of rings (size 3 to 8) (size 9 to 14) (size 15 to 20)
#    0.000    2.273    1.818    4.909    0.000    2.545 
#    0.000    4.545    0.000    0.000    0.000    2.545 
#    0.000    2.182    0.000    3.818    0.000    0.182 
#
# Total GULP energy -545487.057747 kJ/mol
# GULP energy per Si atom -12397.433131 kJ/mol
# Density = 1.498913 g / cm^3
# Si number density = 15.023324 Si / 1000 Ang^3
#
#
#
# Elastic Constant Matrix: (Units=GPa)
#
#
# Indices 1 2 3 4 5 6 
#
# 1 49.7780 44.9892 20.9474 0.0000 0.0000 0.0000
# 2 44.9892 104.4405 41.4279 0.0000 0.0000 0.0000
# 3 20.9474 41.4279 67.4677 0.0000 0.0000 0.0000
# 4 0.0000 0.0000 0.0000 11.2769 0.0000 0.0000
# 5 0.0000 0.0000 0.0000 0.0000 4.5767 0.0000
# 6 0.0000 0.0000 0.0000 0.0000 0.0000 25.9307
#
#
#
# Elastic Compliance Matrix: (Units=1/GPa)
#
#
# Indices 1 2 3 4 5 6 
#
# 1 0.033102 -0.013461 -0.002012 0.000000 0.000000 0.000000
# 2 -0.013461 0.018132 -0.006954 0.000000 0.000000 0.000000
# 3 -0.002012 -0.006954 0.019717 0.000000 0.000000 0.000000
# 4 0.000000 0.000000 0.000000 0.088677 0.000000 0.000000
# 5 0.000000 0.000000 0.000000 0.000000 0.218500 0.000000
# 6 0.000000 0.000000 0.000000 0.000000 0.000000 0.038564
#
#
# Mechanical properties :
#
#
# Convention : Reuss Voigt Hill
#
# Bulk Modulus (GPa) = 38.31991 48.49056 43.40524
# Shear Modulus (GPa) = 10.63276 15.97831 13.30553
#
# Velocity S-wave (km/s) = 2.66324 3.26478 2.97923
# Velocity P-wave (km/s) = 5.91773 6.82339 6.38663
#
# Compressibility (1/GPa) = 0.02609609
#
# Stress axis : x y z
#
# Youngs Moduli (GPa) = 30.20976 55.15143 50.71820
#
# Poissons Ratio (x) = 0.74240 0.10204
# Poissons Ratio (y) = 0.40665 0.35271
# Poissons Ratio (z) = 0.06078 0.38354
#
# Static dielectric constant tensor:
#      x y z
#    x 2.926610 0.000000 0.000000 
#    y 0.000000 3.044790 0.000000 
#    z 0.000000 0.000000 2.707540 
# 
# 
# High freq. dielectric constant tensor:
#      x y z
#    x 1.569620 0.000000 0.000000 
#    y 0.000000 1.570550 0.000000 
#    z 0.000000 0.000000 1.532440 
# 
# From -- ./inp_files/42996.got.cif
#   From: 2010.03.12/outbox.cif.g09.slc.cpg/sg65_22_cif.got.tgz:42996.got - 2010.04.10 20:52:16.
