data_PCOD8267301
_publ_section_title
;
Structure prediction by ZEFSAII (Michael W. Deem and Ramdas Pophale) SiO2 
 PCOD8267301
Probable space group: C M M M
;
_chemical_formula_sum "Si O2"
_cell_formula_units_Z 88
_cell_length_a 23.500938
_cell_length_b 30.632640
_cell_length_c 8.634499
_cell_angle_alpha 90.000000
_cell_angle_beta 90.000000
_cell_angle_gamma 90.000000
_cell_volume 6215.939336
_symmetry_space_group_name_H-M "C M M M"
_symmetry_group_IT_number 65
_symmetry_cell_setting 'orthorhombic'
loop_
_space_group_symop_operation_xyz
x,y,z
-x,-y,z
x,-y,-z
-x,y,-z
-x,-y,-z
x,y,-z
-x,y,z
x,-y,z
1/2+x,1/2+y,z
1/2-x,1/2-y,z
1/2+x,1/2-y,-z
1/2-x,1/2+y,-z
1/2-x,1/2-y,-z
1/2+x,1/2+y,-z
1/2-x,1/2+y,z
1/2+x,1/2-y,z
loop_
_atom_site_type_symbol
_atom_site_label
_atom_site_fract_x
_atom_site_fract_y
_atom_site_fract_z
Si Si1 0.713710 0.793662 0.826543
Si Si2 0.885259 0.753323 0.318827
Si Si3 0.064627 0.000000 0.816274
Si Si4 0.314555 0.338610 0.318220
Si Si5 0.500000 0.362964 0.318578
Si Si6 0.108674 0.907963 0.817260
Si Si7 0.000000 0.770814 0.819436
O O1 0.750000 0.750000 0.825204
O O2 0.657697 0.785977 0.723107
O O3 0.752408 0.832059 0.756167
O O4 0.695359 0.806514 0.000000
O O5 0.898549 0.752243 0.500000
O O6 0.858423 0.800174 0.268714
O O7 0.942808 0.744205 0.221944
O O8 0.100080 0.957799 0.759939
O O9 0.000000 0.000000 0.747149
O O10 0.059115 0.000000 0.000000
O O11 0.306757 0.338384 0.500000
O O12 0.336858 0.385804 0.262771
O O13 0.500000 0.374630 0.500000
O O14 0.445979 0.381501 0.232768
O O15 0.500000 0.311496 0.296893
O O16 0.116630 0.905349 0.000000
O O17 0.000000 0.783805 0.000000
#
# Coordination Sequence:
#
# PCOD8267301 Si02
#       7
#    16  16   8  16   8  16   8
#     4   9  17  29  44  61  80 103 136 167 200 244
#     4  10  19  30  43  60  85 108 132 168 211 247
#     4   9  18  32  46  62  80 104 136 175 218 259
#     4  10  19  30  44  61  82 104 133 171 213 250
#     4  12  22  31  41  58  81 104 134 174 217 257
#     4  11  20  32  48  61  77 104 139 175 214 259
#     4  12  22  30  43  61  82 110 143 173 205 248
#
# _framework density 14.157152999999999
#
# number of rings (size 3 to 8) (size 9 to 14) (size 15 to 20)
#    0.000    1.727    2.727    3.818    0.000    3.636 
#    0.000    2.273    0.000    0.000    0.000    0.000 
#    0.000    0.000    0.000    0.000    0.000    0.909 
#
# Total GULP energy -545557.111022 kJ/mol
# GULP energy per Si atom -12399.025251 kJ/mol
# Density = 1.412493 g / cm^3
# Si number density = 14.157153 Si / 1000 Ang^3
#
#
#
# Elastic Constant Matrix: (Units=GPa)
#
#
# Indices 1 2 3 4 5 6 
#
# 1 80.7692 42.5669 23.5372 0.0000 0.0000 0.0000
# 2 42.5669 62.8641 12.0181 0.0000 0.0000 0.0000
# 3 23.5372 12.0181 51.2406 0.0000 0.0000 0.0000
# 4 0.0000 0.0000 0.0000 13.3685 0.0000 0.0000
# 5 0.0000 0.0000 0.0000 0.0000-1143.6076 0.0000
# 6 0.0000 0.0000 0.0000 0.0000 0.0000 39.2143
#
#
#
# Elastic Compliance Matrix: (Units=1/GPa)
#
#
# Indices 1 2 3 4 5 6 
#
# 1 0.021231 -0.013099 -0.006680 0.000000 0.000000 0.000000
# 2 -0.013099 0.024736 0.000215 0.000000 0.000000 0.000000
# 3 -0.006680 0.000215 0.022534 0.000000 0.000000 0.000000
# 4 0.000000 0.000000 0.000000 0.074803 0.000000 0.000000
# 5 0.000000 0.000000 0.000000 0.000000 -0.000874 0.000000
# 6 0.000000 0.000000 0.000000 0.000000 0.000000 0.025501
#
#
# Mechanical properties :
#
#
# Convention : Reuss Voigt Hill
#
# Bulk Modulus (GPa) = 34.04475 39.01316 36.52895
# Shear Modulus (GPa) = 23.05756 -210.42154 -93.68199
#
# Velocity S-wave (km/s) = 4.04008 -12.20473 -8.14350
# Velocity P-wave (km/s) = 6.77222 13.07632 7.90972
#
# Compressibility (1/GPa) = 0.02937311
#
# Stress axis : x y z
#
# Youngs Moduli (GPa) = 47.10064 40.42707 44.37780
#
# Poissons Ratio (x) = 0.52956 0.29645
# Poissons Ratio (y) = 0.61697 -0.00956
# Poissons Ratio (z) = 0.31464 -0.00871
#
# Static dielectric constant tensor:
#      x y z
#    x 2.821480 0.000000 0.000000 
#    y 0.000000 2.657400 0.000000 
#    z 0.000000 0.000000 2.817190 
# 
# 
# High freq. dielectric constant tensor:
#      x y z
#    x 1.527380 0.000000 0.000000 
#    y 0.000000 1.492770 0.000000 
#    z 0.000000 0.000000 1.554410 
# 
# From -- ./inp_files/12683.got.cif
#   From: 2010.03.12/outbox.cif.g09.slc.cpg/sg65_7_cif.got.tgz:12683.got - 2010.04.10 20:52:16.
