data_PCOD8267689
_publ_section_title
;
Structure prediction by ZEFSAII (Michael W. Deem and Ramdas Pophale) SiO2 
 PCOD8267689
Probable space group: C M M M
;
_chemical_formula_sum "Si O2"
_cell_formula_units_Z 88
_cell_length_a 19.602693
_cell_length_b 30.277278
_cell_length_c 9.632949
_cell_angle_alpha 90.000000
_cell_angle_beta 90.000000
_cell_angle_gamma 90.000000
_cell_volume 5717.311146
_symmetry_space_group_name_H-M "C M M M"
_symmetry_group_IT_number 65
_symmetry_cell_setting 'orthorhombic'
loop_
_space_group_symop_operation_xyz
x,y,z
-x,-y,z
x,-y,-z
-x,y,-z
-x,-y,-z
x,y,-z
-x,y,z
x,-y,z
1/2+x,1/2+y,z
1/2-x,1/2-y,z
1/2+x,1/2-y,-z
1/2-x,1/2+y,-z
1/2-x,1/2-y,-z
1/2+x,1/2+y,-z
1/2-x,1/2+y,z
1/2+x,1/2-y,z
loop_
_atom_site_type_symbol
_atom_site_label
_atom_site_fract_x
_atom_site_fract_y
_atom_site_fract_z
Si Si1 0.706207 0.367731 0.655479
Si Si2 0.129128 0.949436 0.661526
Si Si3 0.575443 0.767220 0.841080
Si Si4 0.719705 0.797265 0.160461
Si Si5 0.000000 0.947792 0.157508
Si Si6 0.425126 0.314313 0.345767
O O1 0.735440 0.360457 0.500000
O O2 0.697789 0.419863 0.691659
O O3 0.752017 0.339623 0.759240
O O4 0.627583 0.353578 0.666620
O O5 0.107176 0.943991 0.500000
O O6 0.067362 0.932791 0.758917
O O7 0.149030 0.000000 0.694420
O O8 0.500000 0.786020 0.796712
O O9 0.637682 0.801103 0.816814
O O10 0.596050 0.724032 0.757893
O O11 0.573493 0.752610 0.000000
O O12 0.750000 0.750000 0.214678
O O13 0.739895 0.802534 0.000000
O O14 0.000000 0.000000 0.149324
O O15 0.000000 0.927930 0.000000
O O16 0.424379 0.293636 0.500000
O O17 0.500000 0.333125 0.308315
#
# Coordination Sequence:
#
# PCOD8267689 Si02
#       6
#    16  16  16  16   8  16
#     4  10  20  30  45  65  85 115 151 186 222 262
#     4   9  18  32  47  62  84 116 152 188 227 270
#     4   9  17  30  46  61  82 115 149 177 208 254
#     4  10  19  31  45  64  91 117 144 179 218 262
#     4   9  17  29  45  65  87 113 149 193 235 267
#     4   9  17  27  39  58  84 112 144 183 217 247
#
# _framework density 15.39185
#
# number of rings (size 3 to 8) (size 9 to 14) (size 15 to 20)
#    0.000    2.636    1.818    0.273    1.273    2.909 
#    0.000    0.000    0.000    0.000    0.000    0.000 
#    0.000    0.727    0.000    9.091    0.000    0.000 
#
# Total GULP energy -545141.559934 kJ/mol
# GULP energy per Si atom -12389.580908 kJ/mol
# Density = 1.535682 g / cm^3
# Si number density = 15.391850 Si / 1000 Ang^3
#
#
#
# Elastic Constant Matrix: (Units=GPa)
#
#
# Indices 1 2 3 4 5 6 
#
# 1 64.6396 35.7772 29.9671 0.0000 0.0000 0.0000
# 2 35.7772 70.5183 35.0638 0.0000 0.0000 0.0000
# 3 29.9671 35.0638 56.6907 0.0000 0.0000 0.0000
# 4 0.0000 0.0000 0.0000 25.6756 0.0000 0.0000
# 5 0.0000 0.0000 0.0000 0.0000 22.7367 0.0000
# 6 0.0000 0.0000 0.0000 0.0000 0.0000 22.5909
#
#
#
# Elastic Compliance Matrix: (Units=1/GPa)
#
#
# Indices 1 2 3 4 5 6 
#
# 1 0.023413 -0.008267 -0.007263 0.000000 0.000000 0.000000
# 2 -0.008267 0.023398 -0.010102 0.000000 0.000000 0.000000
# 3 -0.007263 -0.010102 0.027727 0.000000 0.000000 0.000000
# 4 0.000000 0.000000 0.000000 0.038948 0.000000 0.000000
# 5 0.000000 0.000000 0.000000 0.000000 0.043982 0.000000
# 6 0.000000 0.000000 0.000000 0.000000 0.000000 0.044266
#
#
# Mechanical properties :
#
#
# Convention : Reuss Voigt Hill
#
# Bulk Modulus (GPa) = 42.96626 43.71832 43.34229
# Shear Modulus (GPa) = 19.17503 20.26999 19.72251
#
# Velocity S-wave (km/s) = 3.53341 3.63289 3.58349
# Velocity P-wave (km/s) = 6.67998 6.78693 6.73367
#
# Compressibility (1/GPa) = 0.02327408
#
# Stress axis : x y z
#
# Youngs Moduli (GPa) = 42.71045 42.73871 36.06597
#
# Poissons Ratio (x) = 0.35333 0.26195
# Poissons Ratio (y) = 0.35310 0.36433
# Poissons Ratio (z) = 0.31021 0.43174
#
# Static dielectric constant tensor:
#      x y z
#    x 2.999720 0.000000 0.000000 
#    y 0.000000 2.781890 0.000000 
#    z 0.000000 0.000000 3.089950 
# 
# 
# High freq. dielectric constant tensor:
#      x y z
#    x 1.570810 0.000000 0.000000 
#    y 0.000000 1.559540 0.000000 
#    z 0.000000 0.000000 1.596080 
# 
# From -- ./inp_files/12229.got.cif
#   From: 2010.03.12/outbox.cif.g09.slc.cpg/sg65_7_cif.got.tgz:12229.got - 2010.04.10 20:52:16.
