data_PCOD8267035
_publ_section_title
;
Structure prediction by ZEFSAII (Michael W. Deem and Ramdas Pophale) SiO2 
 PCOD8267035
Probable space group: C M M M
;
_chemical_formula_sum "Si O2"
_cell_formula_units_Z 96
_cell_length_a 9.181980
_cell_length_b 26.940569
_cell_length_c 23.669611
_cell_angle_alpha 90.000000
_cell_angle_beta 90.000000
_cell_angle_gamma 90.000000
_cell_volume 5855.098789
_symmetry_space_group_name_H-M "C M M M"
_symmetry_group_IT_number 65
_symmetry_cell_setting 'orthorhombic'
loop_
_space_group_symop_operation_xyz
x,y,z
-x,-y,z
x,-y,-z
-x,y,-z
-x,-y,-z
x,y,-z
-x,y,z
x,-y,z
1/2+x,1/2+y,z
1/2-x,1/2-y,z
1/2+x,1/2-y,-z
1/2-x,1/2+y,-z
1/2-x,1/2-y,-z
1/2+x,1/2+y,-z
1/2-x,1/2+y,z
1/2+x,1/2-y,z
loop_
_atom_site_type_symbol
_atom_site_label
_atom_site_fract_x
_atom_site_fract_y
_atom_site_fract_z
Si Si1 0.836141 0.441071 0.561889
Si Si2 0.831813 0.443268 0.109818
Si Si3 0.828868 0.057057 0.670585
Si Si4 0.667595 0.646189 0.935355
Si Si5 0.334509 0.897533 0.772598
Si Si6 0.669545 0.799010 0.838926
O O1 0.783769 0.421515 0.500000
O O2 0.831284 0.500000 0.561256
O O3 0.732837 0.421062 0.611658
O O4 0.000000 0.422465 0.573716
O O5 0.798700 0.500000 0.094459
O O6 0.730214 0.409447 0.070835
O O7 0.796675 0.433992 0.175602
O O8 0.000000 0.429187 0.098052
O O9 0.771296 0.090569 0.721307
O O10 0.000000 0.061976 0.668152
O O11 0.779505 0.000000 0.679799
O O12 0.500000 0.646465 0.915464
O O13 0.759694 0.684420 0.898049
O O14 0.681898 0.663116 0.000000
O O15 0.500000 0.905872 0.752563
O O16 0.308481 0.840942 0.791564
O O17 0.500000 0.788249 0.849816
O O18 0.750000 0.750000 0.816468
#
# Coordination Sequence:
#
# PCOD8267035 Si02
#       6
#    16  16  16  16  16  16
#     4   8  14  25  40  57  81 119 163 198 227 261
#     4   9  18  32  49  68  91 122 157 191 228 267
#     4  10  19  27  39  64  95 126 158 191 227 262
#     4  10  21  35  50  70  95 121 150 184 222 268
#     4   9  18  32  48  66  89 117 150 185 221 268
#     4  10  21  37  56  74  91 114 144 182 231 280
#
# _framework density 16.395966000000001
#
# number of rings (size 3 to 8) (size 9 to 14) (size 15 to 20)
#    0.000    2.667    0.000    3.500    0.000    7.667 
#    0.000    3.333    0.000    0.000    0.000    0.000 
#    0.000    0.667    0.000    2.167    0.000    2.667 
#
# Total GULP energy -595170.940404 kJ/mol
# GULP energy per Si atom -12399.394592 kJ/mol
# Density = 1.635865 g / cm^3
# Si number density = 16.395966 Si / 1000 Ang^3
#
#
#
# Elastic Constant Matrix: (Units=GPa)
#
#
# Indices 1 2 3 4 5 6 
#
# 1 97.3862 35.2229 53.2680 0.0000 0.0000 0.0000
# 2 35.2229 57.1501 23.1018 0.0000 0.0000 0.0000
# 3 53.2680 23.1018 92.5237 0.0000 0.0000 0.0000
# 4 0.0000 0.0000 0.0000 12.2123 0.0000 0.0000
# 5 0.0000 0.0000 0.0000 0.0000 25.6775 0.0000
# 6 0.0000 0.0000 0.0000 0.0000 0.0000 26.2580
#
#
#
# Elastic Compliance Matrix: (Units=1/GPa)
#
#
# Indices 1 2 3 4 5 6 
#
# 1 0.017432 -0.007438 -0.008179 0.000000 0.000000 0.000000
# 2 -0.007438 0.022635 -0.001370 0.000000 0.000000 0.000000
# 3 -0.008179 -0.001370 0.015859 0.000000 0.000000 0.000000
# 4 0.000000 0.000000 0.000000 0.081885 0.000000 0.000000
# 5 0.000000 0.000000 0.000000 0.000000 0.038945 0.000000
# 6 0.000000 0.000000 0.000000 0.000000 0.000000 0.038084
#
#
# Mechanical properties :
#
#
# Convention : Reuss Voigt Hill
#
# Bulk Modulus (GPa) = 45.55031 52.24949 48.89990
# Shear Modulus (GPa) = 19.52133 21.86072 20.69103
#
# Velocity S-wave (km/s) = 3.45428 3.65540 3.55626
# Velocity P-wave (km/s) = 6.61446 7.05354 6.83752
#
# Compressibility (1/GPa) = 0.02195375
#
# Stress axis : x y z
#
# Youngs Moduli (GPa) = 57.36507 44.17844 63.05607
#
# Poissons Ratio (x) = 0.32858 0.51574
# Poissons Ratio (y) = 0.42666 0.08637
# Poissons Ratio (z) = 0.46919 0.06051
#
# Static dielectric constant tensor:
#      x y z
#    x 3.167160 0.000000 0.000000 
#    y 0.000000 2.908540 0.000000 
#    z 0.000000 0.000000 3.150450 
# 
# 
# High freq. dielectric constant tensor:
#      x y z
#    x 1.639640 0.000000 0.000000 
#    y 0.000000 1.596660 0.000000 
#    z 0.000000 0.000000 1.624800 
# 
# From -- ./inp_files/68023.got.cif
#   From: 2010.03.12/outbox.cif.g09.slc.cpg/sg65_35_cif.got.tgz:68023.got - 2010.04.10 20:52:16.
