data_PCOD8267192
_publ_section_title
;
Structure prediction by ZEFSAII (Michael W. Deem and Ramdas Pophale) SiO2 
 PCOD8267192
Probable space group: C M M M
;
_chemical_formula_sum "Si O2"
_cell_formula_units_Z 104
_cell_length_a 9.167511
_cell_length_b 26.624228
_cell_length_c 24.555670
_cell_angle_alpha 90.000000
_cell_angle_beta 90.000000
_cell_angle_gamma 90.000000
_cell_volume 5993.496442
_symmetry_space_group_name_H-M "C M M M"
_symmetry_group_IT_number 65
_symmetry_cell_setting 'orthorhombic'
loop_
_space_group_symop_operation_xyz
x,y,z
-x,-y,z
x,-y,-z
-x,y,-z
-x,-y,-z
x,y,-z
-x,y,z
x,-y,z
1/2+x,1/2+y,z
1/2-x,1/2-y,z
1/2+x,1/2-y,-z
1/2-x,1/2+y,-z
1/2-x,1/2-y,-z
1/2+x,1/2+y,-z
1/2-x,1/2+y,z
1/2+x,1/2-y,z
loop_
_atom_site_type_symbol
_atom_site_label
_atom_site_fract_x
_atom_site_fract_y
_atom_site_fract_z
Si Si1 0.171170 0.399744 0.378578
Si Si2 0.663505 0.059737 0.060001
Si Si3 0.835731 0.202466 0.745600
Si Si4 0.840033 0.057892 0.839558
Si Si5 0.673256 0.000000 0.561670
Si Si6 0.170726 0.603748 0.252448
Si Si7 0.834822 0.799013 0.383890
O O1 0.230689 0.449378 0.409164
O O2 0.204434 0.408912 0.315106
O O3 0.254023 0.350554 0.401568
O O4 0.000000 0.390837 0.388795
O O5 0.500000 0.080629 0.068240
O O6 0.764558 0.083377 0.107477
O O7 0.660251 0.000000 0.064652
O O8 0.722398 0.075604 0.000000
O O9 0.750000 0.250000 0.769388
O O10 0.747910 0.154668 0.766522
O O11 0.837326 0.204225 0.680706
O O12 0.000000 0.201806 0.768528
O O13 0.739842 0.061409 0.785755
O O14 0.000000 0.082510 0.830099
O O15 0.860302 0.000000 0.852473
O O16 0.500000 0.000000 0.564366
O O17 0.731199 0.000000 0.500000
O O18 0.000000 0.608189 0.241955
O O19 0.750000 0.750000 0.407358
O O20 0.000000 0.799253 0.407073
#
# Coordination Sequence:
#
# PCOD8267192 Si02
#       7
#    16  16  16  16   8  16  16
#     4   9  18  31  49  72  95 123 160 197 238 287
#     4   8  14  26  43  60  79 109 151 193 231 272
#     4   9  16  27  43  63  90 119 150 182 222 273
#     4  10  20  30  40  59  89 123 156 191 232 274
#     4   9  18  34  55  75  95 123 162 205 242 281
#     4  10  19  29  44  65  92 122 154 189 229 276
#     4   9  16  27  46  71  98 124 151 187 233 283
#
# _framework density 17.352142000000001
#
# number of rings (size 3 to 8) (size 9 to 14) (size 15 to 20)
#    0.000    2.846    0.000    2.308    1.077    5.538 
#    0.000    1.923    0.000    1.385    0.000    0.000 
#    0.000    0.615    0.000    2.308    0.000    3.538 
#
# Total GULP energy -644536.609962 kJ/mol
# GULP energy per Si atom -12394.934807 kJ/mol
# Density = 1.731265 g / cm^3
# Si number density = 17.352142 Si / 1000 Ang^3
#
#
#
# Elastic Constant Matrix: (Units=GPa)
#
#
# Indices 1 2 3 4 5 6 
#
# 1 116.8589 47.6554 45.0823 0.0000 0.0000 0.0000
# 2 47.6554 93.5097 37.5820 0.0000 0.0000 0.0000
# 3 45.0823 37.5820 73.5809 0.0000 0.0000 0.0000
# 4 0.0000 0.0000 0.0000 2.7090 0.0000 0.0000
# 5 0.0000 0.0000 0.0000 0.0000 12.9682 0.0000
# 6 0.0000 0.0000 0.0000 0.0000 0.0000 27.9063
#
#
#
# Elastic Compliance Matrix: (Units=1/GPa)
#
#
# Indices 1 2 3 4 5 6 
#
# 1 0.012334 -0.004088 -0.005469 0.000000 0.000000 0.000000
# 2 -0.004088 0.014811 -0.005060 0.000000 0.000000 0.000000
# 3 -0.005469 -0.005060 0.019526 0.000000 0.000000 0.000000
# 4 0.000000 0.000000 0.000000 0.369142 0.000000 0.000000
# 5 0.000000 0.000000 0.000000 0.000000 0.077112 0.000000
# 6 0.000000 0.000000 0.000000 0.000000 0.000000 0.035834
#
#
# Mechanical properties :
#
#
# Convention : Reuss Voigt Hill
#
# Bulk Modulus (GPa) = 57.35027 60.50987 58.93007
# Shear Modulus (GPa) = 8.86830 18.95867 13.91349
#
# Velocity S-wave (km/s) = 2.26316 3.30901 2.83473
# Velocity P-wave (km/s) = 6.32074 7.03895 6.68949
#
# Compressibility (1/GPa) = 0.01743671
#
# Stress axis : x y z
#
# Youngs Moduli (GPa) = 81.07484 67.51680 51.21368
#
# Poissons Ratio (x) = 0.27600 0.28010
# Poissons Ratio (y) = 0.33142 0.25916
# Poissons Ratio (z) = 0.44342 0.34166
#
# Static dielectric constant tensor:
#      x y z
#    x 3.458280 0.000000 0.000000 
#    y 0.000000 3.130220 0.000000 
#    z 0.000000 0.000000 3.017450 
# 
# 
# High freq. dielectric constant tensor:
#      x y z
#    x 1.675860 0.000000 0.000000 
#    y 0.000000 1.645310 0.000000 
#    z 0.000000 0.000000 1.637340 
# 
# From -- ./inp_files/68193.got.cif
#   From: 2010.03.12/outbox.cif.g09.slc.cpg/sg65_35_cif.got.tgz:68193.got - 2010.04.10 20:52:16.
