data_PCOD8267600
_publ_section_title
;
Structure prediction by ZEFSAII (Michael W. Deem and Ramdas Pophale) SiO2 
 PCOD8267600
Probable space group: C M M M
;
_chemical_formula_sum "Si O2"
_cell_formula_units_Z 72
_cell_length_a 36.427355
_cell_length_b 10.847979
_cell_length_c 10.164883
_cell_angle_alpha 90.000000
_cell_angle_beta 90.000000
_cell_angle_gamma 90.000000
_cell_volume 4016.787512
_symmetry_space_group_name_H-M "C M M M"
_symmetry_group_IT_number 65
_symmetry_cell_setting 'orthorhombic'
loop_
_space_group_symop_operation_xyz
x,y,z
-x,-y,z
x,-y,-z
-x,y,-z
-x,-y,-z
x,y,-z
-x,y,z
x,-y,z
1/2+x,1/2+y,z
1/2-x,1/2-y,z
1/2+x,1/2-y,-z
1/2-x,1/2+y,-z
1/2-x,1/2-y,-z
1/2+x,1/2+y,-z
1/2-x,1/2+y,z
1/2+x,1/2-y,z
loop_
_atom_site_type_symbol
_atom_site_label
_atom_site_fract_x
_atom_site_fract_y
_atom_site_fract_z
Si Si1 0.296874 0.000000 0.343736
Si Si2 0.959879 0.357147 0.143452
Si Si3 0.913225 0.234836 0.346661
Si Si4 0.787329 0.000000 0.656418
Si Si5 0.541005 0.500000 0.655345
Si Si6 0.671793 0.741938 0.654017
O O1 0.315686 0.125217 0.286172
O O2 0.300883 0.000000 0.500000
O O3 0.254740 0.000000 0.298920
O O4 0.964491 0.500000 0.124630
O O5 0.929289 0.341558 0.255851
O O6 0.000000 0.302284 0.185538
O O7 0.948256 0.300904 0.000000
O O8 0.919528 0.266380 0.500000
O O9 0.870614 0.217188 0.315561
O O10 0.935709 0.116436 0.298063
O O11 0.805994 0.874931 0.713955
O O12 0.791707 0.000000 0.500000
O O13 0.500000 0.500000 0.717348
O O14 0.537959 0.500000 0.500000
O O15 0.679832 0.746878 0.500000
#
# Coordination Sequence:
#
# PCOD8267600 Si02
#       6
#     8  16  16   8   8  16
#     4   9  16  25  38  59  89 124 159 195 233 281
#     4   9  19  35  51  67  92 126 161 198 240 287
#     4  10  19  30  48  71  98 126 157 200 247 287
#     4   9  15  26  41  57  87 132 165 183 226 295
#     4   9  17  29  44  65  93 125 159 193 234 287
#     4   9  17  26  39  62  92 122 156 197 239 281
#
# _framework density 17.924771
#
# number of rings (size 3 to 8) (size 9 to 14) (size 15 to 20)
#    0.000    2.778    0.000    2.667    1.556    7.111 
#    0.000    1.667    0.000    2.000    0.000    0.000 
#    0.000    5.333    0.000    0.000    0.000    0.000 
#
# Total GULP energy -446053.586414 kJ/mol
# GULP energy per Si atom -12390.377400 kJ/mol
# Density = 1.788397 g / cm^3
# Si number density = 17.924771 Si / 1000 Ang^3
#
#
#
# Elastic Constant Matrix: (Units=GPa)
#
#
# Indices 1 2 3 4 5 6 
#
# 1 137.0443 68.7815 32.8152 0.0000 0.0000 0.0000
# 2 68.7815 122.9889 14.1800 0.0000 0.0000 0.0000
# 3 32.8152 14.1800 39.3423 0.0000 0.0000 0.0000
# 4 0.0000 0.0000 0.0000 5.8492 0.0000 0.0000
# 5 0.0000 0.0000 0.0000 0.0000 8.3202 0.0000
# 6 0.0000 0.0000 0.0000 0.0000 0.0000 29.7827
#
#
#
# Elastic Compliance Matrix: (Units=1/GPa)
#
#
# Indices 1 2 3 4 5 6 
#
# 1 0.012172 -0.005881 -0.008033 0.000000 0.000000 0.000000
# 2 -0.005881 0.011325 0.000824 0.000000 0.000000 0.000000
# 3 -0.008033 0.000824 0.031821 0.000000 0.000000 0.000000
# 4 0.000000 0.000000 0.000000 0.170964 0.000000 0.000000
# 5 0.000000 0.000000 0.000000 0.000000 0.120190 0.000000
# 6 0.000000 0.000000 0.000000 0.000000 0.000000 0.033577
#
#
# Mechanical properties :
#
#
# Convention : Reuss Voigt Hill
#
# Bulk Modulus (GPa) = 34.32018 58.99208 46.65613
# Shear Modulus (GPa) = 12.02090 21.03034 16.52562
#
# Velocity S-wave (km/s) = 2.59246 3.42900 3.03965
# Velocity P-wave (km/s) = 5.30561 6.97565 6.19715
#
# Compressibility (1/GPa) = 0.02913737
#
# Stress axis : x y z
#
# Youngs Moduli (GPa) = 82.15536 88.30146 31.42548
#
# Poissons Ratio (x) = 0.51931 0.25244
# Poissons Ratio (y) = 0.48316 -0.02588
# Poissons Ratio (z) = 0.65995 -0.07272
#
# Static dielectric constant tensor:
#      x y z
#    x 3.390070 0.000000 0.000000 
#    y 0.000000 3.515220 0.000000 
#    z 0.000000 0.000000 2.710220 
# 
# 
# High freq. dielectric constant tensor:
#      x y z
#    x 1.705840 0.000000 0.000000 
#    y 0.000000 1.701490 0.000000 
#    z 0.000000 0.000000 1.620460 
# 
# From -- ./inp_files/33462.got.cif
#   From: 2010.03.12/outbox.cif.g09.slc.cpg/sg65_17_cif.got.tgz:33462.got - 2010.04.10 20:52:16.
