data_PCOD8267011
_publ_section_title
;
Structure prediction by ZEFSAII (Michael W. Deem and Ramdas Pophale) SiO2 
 PCOD8267011
Probable space group: C M M M
;
_chemical_formula_sum "Si O2"
_cell_formula_units_Z 72
_cell_length_a 30.507864
_cell_length_b 14.372121
_cell_length_c 8.879506
_cell_angle_alpha 90.000000
_cell_angle_beta 90.000000
_cell_angle_gamma 90.000000
_cell_volume 3893.332290
_symmetry_space_group_name_H-M "C M M M"
_symmetry_group_IT_number 65
_symmetry_cell_setting 'orthorhombic'
loop_
_space_group_symop_operation_xyz
x,y,z
-x,-y,z
x,-y,-z
-x,y,-z
-x,-y,-z
x,y,-z
-x,y,z
x,-y,z
1/2+x,1/2+y,z
1/2-x,1/2-y,z
1/2+x,1/2-y,-z
1/2-x,1/2+y,-z
1/2-x,1/2-y,-z
1/2+x,1/2+y,-z
1/2-x,1/2+y,z
1/2+x,1/2-y,z
loop_
_atom_site_type_symbol
_atom_site_label
_atom_site_fract_x
_atom_site_fract_y
_atom_site_fract_z
Si Si1 0.290602 0.182347 0.675290
Si Si2 0.447962 0.000000 0.168425
Si Si3 0.663510 0.500000 0.320218
Si Si4 0.258726 0.000000 0.822515
Si Si5 0.450584 0.812857 0.677869
Si Si6 0.370812 0.305836 0.678255
O O1 0.294191 0.154732 0.500000
O O2 0.250000 0.250000 0.703306
O O3 0.286120 0.090091 0.773935
O O4 0.333838 0.234689 0.735845
O O5 0.431426 0.907910 0.252930
O O6 0.500000 0.000000 0.169075
O O7 0.428899 0.000000 0.000000
O O8 0.666466 0.500000 0.500000
O O9 0.712454 0.500000 0.260344
O O10 0.637750 0.409417 0.258118
O O11 0.251358 0.000000 0.000000
O O12 0.449772 0.825672 0.500000
O O13 0.500000 0.790622 0.734434
O O14 0.418867 0.729007 0.730485
O O15 0.367791 0.310000 0.500000
#
# Coordination Sequence:
#
# PCOD8267011 Si02
#       6
#    16   8   8   8  16  16
#     4  10  19  35  57  76  97 135 181 217 249 300
#     4   9  17  30  49  72  98 134 174 207 247 303
#     4  10  18  36  58  75  98 137 185 216 246 305
#     4  12  24  35  51  79 113 139 165 213 276 320
#     4   9  17  31  51  77 108 137 166 209 262 306
#     4   9  18  32  55  80 100 131 178 219 251 301
#
# _framework density 18.493157
#
# number of rings (size 3 to 8) (size 9 to 14) (size 15 to 20)
#    0.000    2.333    2.222    1.333    0.000    2.667 
#    0.000    7.222    0.000    3.333    0.000    0.000 
#    0.000    4.444    0.000    0.000    0.000    0.000 
#
# Total GULP energy -446351.537539 kJ/mol
# GULP energy per Si atom -12398.653821 kJ/mol
# Density = 1.845107 g / cm^3
# Si number density = 18.493157 Si / 1000 Ang^3
#
#
#
# Elastic Constant Matrix: (Units=GPa)
#
#
# Indices 1 2 3 4 5 6 
#
# 1 113.9694 73.8975 17.0355 0.0000 0.0000 0.0000
# 2 73.8975 164.3970 29.3669 0.0000 0.0000 0.0000
# 3 17.0355 29.3669 35.0775 0.0000 0.0000 0.0000
# 4 0.0000 0.0000 0.0000 0.5589 0.0000 0.0000
# 5 0.0000 0.0000 0.0000 0.0000 8.6291 0.0000
# 6 0.0000 0.0000 0.0000 0.0000 0.0000 27.1194
#
#
#
# Elastic Compliance Matrix: (Units=1/GPa)
#
#
# Indices 1 2 3 4 5 6 
#
# 1 0.012460 -0.005315 -0.001602 0.000000 0.000000 0.000000
# 2 -0.005315 0.009419 -0.005305 0.000000 0.000000 0.000000
# 3 -0.001602 -0.005305 0.033727 0.000000 0.000000 0.000000
# 4 0.000000 0.000000 0.000000 1.789244 0.000000 0.000000
# 5 0.000000 0.000000 0.000000 0.000000 0.115887 0.000000
# 6 0.000000 0.000000 0.000000 0.000000 0.000000 0.036874
#
#
# Mechanical properties :
#
#
# Convention : Reuss Voigt Hill
#
# Bulk Modulus (GPa) = 32.08813 61.56042 46.82427
# Shear Modulus (GPa) = 2.46009 20.13773 11.29891
#
# Velocity S-wave (km/s) = 1.15463 3.30347 2.47448
# Velocity P-wave (km/s) = 4.37796 6.92178 5.79127
#
# Compressibility (1/GPa) = 0.03116417
#
# Stress axis : x y z
#
# Youngs Moduli (GPa) = 80.25897 106.16375 29.64941
#
# Poissons Ratio (x) = 0.56422 0.04749
# Poissons Ratio (y) = 0.42654 0.15729
# Poissons Ratio (z) = 0.12855 0.56319
#
# Static dielectric constant tensor:
#      x y z
#    x 3.485640 0.000000 0.000000 
#    y 0.000000 3.762430 0.000000 
#    z 0.000000 0.000000 3.103320 
# 
# 
# High freq. dielectric constant tensor:
#      x y z
#    x 1.710540 0.000000 0.000000 
#    y 0.000000 1.724660 0.000000 
#    z 0.000000 0.000000 1.683060 
# 
# From -- ./inp_files/7447.got.cif
#   From: 2010.03.12/outbox.cif.g09.slc.cpg/sg65_4_cif.got.tgz:7447.got - 2010.04.10 20:52:16.
