data_PCOD8267114
_publ_section_title
;
Structure prediction by ZEFSAII (Michael W. Deem and Ramdas Pophale) SiO2 
 PCOD8267114
Probable space group: C M M M
;
_chemical_formula_sum "Si O2"
_cell_formula_units_Z 96
_cell_length_a 9.195867
_cell_length_b 25.461570
_cell_length_c 27.279048
_cell_angle_alpha 90.000000
_cell_angle_beta 90.000000
_cell_angle_gamma 90.000000
_cell_volume 6387.149343
_symmetry_space_group_name_H-M "C M M M"
_symmetry_group_IT_number 65
_symmetry_cell_setting 'orthorhombic'
loop_
_space_group_symop_operation_xyz
x,y,z
-x,-y,z
x,-y,-z
-x,y,-z
-x,-y,-z
x,y,-z
-x,y,z
x,-y,z
1/2+x,1/2+y,z
1/2-x,1/2-y,z
1/2+x,1/2-y,-z
1/2-x,1/2+y,-z
1/2-x,1/2-y,-z
1/2+x,1/2+y,-z
1/2-x,1/2+y,z
1/2+x,1/2-y,z
loop_
_atom_site_type_symbol
_atom_site_label
_atom_site_fract_x
_atom_site_fract_y
_atom_site_fract_z
Si Si1 0.827784 0.906961 0.110937
Si Si2 0.837219 0.437223 0.500000
Si Si3 0.330832 0.698592 0.055708
Si Si4 0.663008 0.562360 0.700057
Si Si5 0.667350 0.062275 0.794093
Si Si6 0.836383 0.937611 0.407800
Si Si7 0.666727 0.000000 0.058009
O O1 0.788884 0.850149 0.089688
O O2 0.765272 0.909149 0.165589
O O3 0.000000 0.918067 0.111145
O O4 0.748818 0.948962 0.076917
O O5 0.829836 0.500000 0.500000
O O6 0.762498 0.413965 0.548970
O O7 0.000000 0.416137 0.500000
O O8 0.500000 0.710714 0.058132
O O9 0.250000 0.750000 0.076038
O O10 0.281893 0.685965 0.000000
O O11 0.500000 0.583583 0.710889
O O12 0.658759 0.500000 0.700271
O O13 0.774801 0.582202 0.741347
O O14 0.716307 0.581754 0.646164
O O15 0.500000 0.079204 0.799295
O O16 0.685883 0.000000 0.800584
O O17 0.000000 0.918150 0.417079
O O18 0.829750 0.000000 0.409748
O O19 0.500000 0.000000 0.077467
O O20 0.671304 0.000000 0.000000
#
# Coordination Sequence:
#
# PCOD8267114 Si02
#       7
#    16   8  16  16  16  16   8
#     4  11  21  33  50  68  89 116 144 173 205 250
#     4   9  15  19  25  39  59  81 109 151 200 245
#     4   9  19  35  53  72  90 110 139 172 208 249
#     4   8  14  24  37  50  66  92 128 163 200 245
#     4  10  19  29  41  59  84 109 136 170 208 249
#     4   8  13  21  31  42  57  82 116 155 196 241
#     4  11  23  35  47  67  93 117 141 170 209 252
#
# _framework density 15.030179
#
# number of rings (size 3 to 8) (size 9 to 14) (size 15 to 20)
#    0.000    2.667    0.833    3.000    0.000    5.000 
#    0.000    5.000    0.000    0.000    0.000    0.000 
#    0.000    0.000    0.000    0.000    0.000    0.000 
#
# Total GULP energy -595009.300981 kJ/mol
# GULP energy per Si atom -12396.027104 kJ/mol
# Density = 1.499597 g / cm^3
# Si number density = 15.030179 Si / 1000 Ang^3
#
#
#
# Elastic Constant Matrix: (Units=GPa)
#
#
# Indices 1 2 3 4 5 6 
#
# 1 102.8603 39.1711 69.0656 0.0000 0.0000 0.0000
# 2 39.1711 54.2022 37.4841 0.0000 0.0000 0.0000
# 3 69.0656 37.4841 127.1641 0.0000 0.0000 0.0000
# 4 0.0000 0.0000 0.0000 7.8635 0.0000 0.0000
# 5 0.0000 0.0000 0.0000 0.0000 26.2291 0.0000
# 6 0.0000 0.0000 0.0000 0.0000 0.0000 15.8441
#
#
#
# Elastic Compliance Matrix: (Units=1/GPa)
#
#
# Indices 1 2 3 4 5 6 
#
# 1 0.017498 -0.007628 -0.007255 0.000000 0.000000 0.000000
# 2 -0.007628 0.026499 -0.003668 0.000000 0.000000 0.000000
# 3 -0.007255 -0.003668 0.012885 0.000000 0.000000 0.000000
# 4 0.000000 0.000000 0.000000 0.127169 0.000000 0.000000
# 5 0.000000 0.000000 0.000000 0.000000 0.038126 0.000000
# 6 0.000000 0.000000 0.000000 0.000000 0.000000 0.063115
#
#
# Mechanical properties :
#
#
# Convention : Reuss Voigt Hill
#
# Bulk Modulus (GPa) = 50.55646 63.96311 57.25978
# Shear Modulus (GPa) = 15.19808 19.22108 17.20958
#
# Velocity S-wave (km/s) = 3.18334 3.57996 3.38746
# Velocity P-wave (km/s) = 6.87177 7.72897 7.31294
#
# Compressibility (1/GPa) = 0.01977987
#
# Stress axis : x y z
#
# Youngs Moduli (GPa) = 57.14792 37.73726 77.60676
#
# Poissons Ratio (x) = 0.28788 0.56305
# Poissons Ratio (y) = 0.43595 0.28465
# Poissons Ratio (z) = 0.41462 0.13842
#
# Static dielectric constant tensor:
#      x y z
#    x 3.053380 0.000000 0.000000 
#    y 0.000000 2.385430 0.000000 
#    z 0.000000 0.000000 3.243360 
# 
# 
# High freq. dielectric constant tensor:
#      x y z
#    x 1.586840 0.000000 0.000000 
#    y 0.000000 1.500090 0.000000 
#    z 0.000000 0.000000 1.589470 
# 
# From -- ./inp_files/73523.got.cif
#   From: 2010.03.12/outbox.cif.g09.slc.cpg/sg65_37_cif.got.tgz:73523.got - 2010.04.10 20:52:16.
