data_PCOD8267131
_publ_section_title
;
Structure prediction by ZEFSAII (Michael W. Deem and Ramdas Pophale) SiO2 
 PCOD8267131
Probable space group: C M M M
;
_chemical_formula_sum "Si O2"
_cell_formula_units_Z 104
_cell_length_a 9.026216
_cell_length_b 26.961320
_cell_length_c 26.545587
_cell_angle_alpha 90.000000
_cell_angle_beta 90.000000
_cell_angle_gamma 90.000000
_cell_volume 6460.099489
_symmetry_space_group_name_H-M "C M M M"
_symmetry_group_IT_number 65
_symmetry_cell_setting 'orthorhombic'
loop_
_space_group_symop_operation_xyz
x,y,z
-x,-y,z
x,-y,-z
-x,y,-z
-x,-y,-z
x,y,-z
-x,y,z
x,-y,z
1/2+x,1/2+y,z
1/2-x,1/2-y,z
1/2+x,1/2-y,-z
1/2-x,1/2+y,-z
1/2-x,1/2-y,-z
1/2+x,1/2+y,-z
1/2-x,1/2+y,z
1/2+x,1/2-y,z
loop_
_atom_site_type_symbol
_atom_site_label
_atom_site_fract_x
_atom_site_fract_y
_atom_site_fract_z
Si Si1 0.667450 0.940790 0.500000
Si Si2 0.833254 0.058910 0.401497
Si Si3 0.172660 0.898702 0.205670
Si Si4 0.674429 0.057350 0.699841
Si Si5 0.669040 0.944805 0.115515
Si Si6 0.172622 0.651340 0.942953
Si Si7 0.172916 0.200518 0.147822
O O1 0.500000 0.920566 0.500000
O O2 0.750655 0.919857 0.549289
O O3 0.668009 0.000000 0.500000
O O4 0.745685 0.076350 0.352074
O O5 0.000000 0.080164 0.399862
O O6 0.835801 0.000000 0.404252
O O7 0.261739 0.908092 0.256534
O O8 0.225099 0.937076 0.163194
O O9 0.208027 0.843015 0.187356
O O10 0.000000 0.907174 0.215733
O O11 0.500000 0.064633 0.695986
O O12 0.715848 0.000000 0.710548
O O13 0.500000 0.938154 0.134299
O O14 0.705558 0.905893 0.071422
O O15 0.695725 0.000000 0.093850
O O16 0.263716 0.687904 0.907296
O O17 0.000000 0.663744 0.936809
O O18 0.226367 0.659590 0.000000
O O19 0.250000 0.250000 0.168825
O O20 0.000000 0.209847 0.141998
#
# Coordination Sequence:
#
# PCOD8267131 Si02
#       7
#     8  16  16  16  16  16  16
#     4   9  15  23  35  51  75 109 150 193 230 263
#     4   9  16  25  37  54  78 111 151 191 227 260
#     4  10  20  32  46  65  87 111 141 177 216 259
#     4  10  19  29  42  62  88 118 151 184 218 256
#     4   9  17  29  45  65  89 117 147 176 207 246
#     4   9  18  32  49  69  92 116 142 173 209 250
#     4  10  21  36  53  70  87 109 138 173 215 263
#
# _framework density 16.098822999999999
#
# number of rings (size 3 to 8) (size 9 to 14) (size 15 to 20)
#    0.000    2.538    0.000    2.538    0.000    8.615 
#    0.000    1.538    0.000    0.000    0.000    4.308 
#    0.000    0.000    0.000    0.692    0.000    9.462 
#
# Total GULP energy -644851.085643 kJ/mol
# GULP energy per Si atom -12400.982416 kJ/mol
# Density = 1.606218 g / cm^3
# Si number density = 16.098823 Si / 1000 Ang^3
#
#
#
# Elastic Constant Matrix: (Units=GPa)
#
#
# Indices 1 2 3 4 5 6 
#
# 1 101.7704 32.5107 61.8722 0.0000 0.0000 0.0000
# 2 32.5107 61.1282 27.0858 0.0000 0.0000 0.0000
# 3 61.8722 27.0858 123.8892 0.0000 0.0000 0.0000
# 4 0.0000 0.0000 0.0000 11.5648 0.0000 0.0000
# 5 0.0000 0.0000 0.0000 0.0000 30.9493 0.0000
# 6 0.0000 0.0000 0.0000 0.0000 0.0000 19.7305
#
#
#
# Elastic Compliance Matrix: (Units=1/GPa)
#
#
# Indices 1 2 3 4 5 6 
#
# 1 0.015542 -0.005344 -0.006593 0.000000 0.000000 0.000000
# 2 -0.005344 0.019952 -0.001693 0.000000 0.000000 0.000000
# 3 -0.006593 -0.001693 0.011735 0.000000 0.000000 0.000000
# 4 0.000000 0.000000 0.000000 0.086470 0.000000 0.000000
# 5 0.000000 0.000000 0.000000 0.000000 0.032311 0.000000
# 6 0.000000 0.000000 0.000000 0.000000 0.000000 0.050683
#
#
# Mechanical properties :
#
#
# Convention : Reuss Voigt Hill
#
# Bulk Modulus (GPa) = 50.08328 58.85834 54.47081
# Shear Modulus (GPa) = 19.95144 23.47018 21.71081
#
# Velocity S-wave (km/s) = 3.52420 3.82236 3.67631
# Velocity P-wave (km/s) = 6.90923 7.49137 7.20618
#
# Compressibility (1/GPa) = 0.01996674
#
# Stress axis : x y z
#
# Youngs Moduli (GPa) = 64.34265 50.12140 85.21732
#
# Poissons Ratio (x) = 0.26786 0.56187
# Poissons Ratio (y) = 0.34387 0.14427
# Poissons Ratio (z) = 0.42424 0.08485
#
# Static dielectric constant tensor:
#      x y z
#    x 3.186800 0.000000 0.000000 
#    y 0.000000 2.779260 0.000000 
#    z 0.000000 0.000000 3.063230 
# 
# 
# High freq. dielectric constant tensor:
#      x y z
#    x 1.633530 0.000000 0.000000 
#    y 0.000000 1.574970 0.000000 
#    z 0.000000 0.000000 1.615090 
# 
# From -- ./inp_files/68154.got.cif
#   From: 2010.03.12/outbox.cif.g09.slc.cpg/sg65_35_cif.got.tgz:68154.got - 2010.04.10 20:52:16.
