data_PCOD8267764
_publ_section_title
;
Structure prediction by ZEFSAII (Michael W. Deem and Ramdas Pophale) SiO2 
 PCOD8267764
Probable space group: C M M M
;
_chemical_formula_sum "Si O2"
_cell_formula_units_Z 104
_cell_length_a 9.444051
_cell_length_b 26.712828
_cell_length_c 26.579939
_cell_angle_alpha 90.000000
_cell_angle_beta 90.000000
_cell_angle_gamma 90.000000
_cell_volume 6705.515511
_symmetry_space_group_name_H-M "C M M M"
_symmetry_group_IT_number 65
_symmetry_cell_setting 'orthorhombic'
loop_
_space_group_symop_operation_xyz
x,y,z
-x,-y,z
x,-y,-z
-x,y,-z
-x,-y,-z
x,y,-z
-x,y,z
x,-y,z
1/2+x,1/2+y,z
1/2-x,1/2-y,z
1/2+x,1/2-y,-z
1/2-x,1/2+y,-z
1/2-x,1/2-y,-z
1/2+x,1/2+y,-z
1/2-x,1/2+y,z
1/2+x,1/2-y,z
loop_
_atom_site_type_symbol
_atom_site_label
_atom_site_fract_x
_atom_site_fract_y
_atom_site_fract_z
Si Si1 0.166039 0.702311 0.193880
Si Si2 0.664252 0.345195 0.894154
Si Si3 0.162272 0.055487 0.841013
Si Si4 0.163689 0.800723 0.000000
Si Si5 0.340487 0.559489 0.555215
Si Si6 0.163468 0.400088 0.753623
Si Si7 0.835389 0.442023 0.648391
O O1 0.250000 0.750000 0.215847
O O2 0.234947 0.688727 0.140243
O O3 0.190061 0.657998 0.233801
O O4 0.000000 0.714023 0.186099
O O5 0.500000 0.332554 0.882194
O O6 0.697694 0.403781 0.884056
O O7 0.702701 0.334152 0.951737
O O8 0.252692 0.064286 0.791207
O O9 0.000000 0.060268 0.824332
O O10 0.195485 0.000000 0.862516
O O11 0.250000 0.750000 0.000000
O O12 0.000000 0.785619 0.000000
O O13 0.288640 0.578442 0.500000
O O14 0.500000 0.577997 0.564855
O O15 0.333347 0.500000 0.555960
O O16 0.242846 0.581016 0.599672
O O17 0.214863 0.410631 0.696942
O O18 0.000000 0.414766 0.759689
O O19 0.796251 0.500000 0.657488
O O20 0.000000 0.435092 0.638014
#
# Coordination Sequence:
#
# PCOD8267764 Si02
#       7
#    16  16  16   8  16  16  16
#     4  10  19  31  47  65  85 110 138 169 209 253
#     4   9  18  32  47  65  88 111 138 170 205 248
#     4   9  17  29  45  64  86 112 141 172 204 241
#     4  10  20  32  47  65  85 109 136 172 215 254
#     4   8  14  24  36  51  75 108 142 172 202 237
#     4   9  18  30  43  61  85 112 141 172 207 249
#     4   9  16  25  38  57  81 108 138 171 202 234
#
# _framework density 15.509620999999999
#
# number of rings (size 3 to 8) (size 9 to 14) (size 15 to 20)
#    0.000    2.923    0.000    1.846    0.000    4.308 
#    0.000    3.462    0.000    2.308    0.000    0.000 
#    0.000    6.154    0.000    1.385    0.000    2.462 
#
# Total GULP energy -644650.428460 kJ/mol
# GULP energy per Si atom -12397.123624 kJ/mol
# Density = 1.547432 g / cm^3
# Si number density = 15.509621 Si / 1000 Ang^3
#
#
#
# Elastic Constant Matrix: (Units=GPa)
#
#
# Indices 1 2 3 4 5 6 
#
# 1 63.5495 39.9675 55.9648 0.0000 0.0000 0.0000
# 2 39.9675 81.9382 52.0368 0.0000 0.0000 0.0000
# 3 55.9648 52.0368 143.2707 0.0000 0.0000 0.0000
# 4 0.0000 0.0000 0.0000 16.2583 0.0000 0.0000
# 5 0.0000 0.0000 0.0000 0.0000 26.1702 0.0000
# 6 0.0000 0.0000 0.0000 0.0000 0.0000 19.4174
#
#
#
# Elastic Compliance Matrix: (Units=1/GPa)
#
#
# Indices 1 2 3 4 5 6 
#
# 1 0.028114 -0.008760 -0.007801 0.000000 0.000000 0.000000
# 2 -0.008760 0.018593 -0.003331 0.000000 0.000000 0.000000
# 3 -0.007801 -0.003331 0.011237 0.000000 0.000000 0.000000
# 4 0.000000 0.000000 0.000000 0.061507 0.000000 0.000000
# 5 0.000000 0.000000 0.000000 0.000000 0.038211 0.000000
# 6 0.000000 0.000000 0.000000 0.000000 0.000000 0.051500
#
#
# Mechanical properties :
#
#
# Convention : Reuss Voigt Hill
#
# Bulk Modulus (GPa) = 55.06314 64.96631 60.01472
# Shear Modulus (GPa) = 19.60793 21.75515 20.68154
#
# Velocity S-wave (km/s) = 3.55948 3.74931 3.65563
# Velocity P-wave (km/s) = 7.24381 7.79242 7.52312
#
# Compressibility (1/GPa) = 0.01816097
#
# Stress axis : x y z
#
# Youngs Moduli (GPa) = 35.56894 53.78472 88.99310
#
# Poissons Ratio (x) = 0.47113 0.69420
# Poissons Ratio (y) = 0.31157 0.29646
# Poissons Ratio (z) = 0.27746 0.17917
#
# Static dielectric constant tensor:
#      x y z
#    x 3.050940 0.000000 0.000000 
#    y 0.000000 2.908140 0.000000 
#    z 0.000000 0.000000 3.092130 
# 
# 
# High freq. dielectric constant tensor:
#      x y z
#    x 1.599320 0.000000 0.000000 
#    y 0.000000 1.569800 0.000000 
#    z 0.000000 0.000000 1.587440 
# 
# From -- ./inp_files/73778.got.cif
#   From: 2010.03.12/outbox.cif.g09.slc.cpg/sg65_37_cif.got.tgz:73778.got - 2010.04.10 20:52:16.
