data_PCOD8267846
_publ_section_title
;
Structure prediction by ZEFSAII (Michael W. Deem and Ramdas Pophale) SiO2 
 PCOD8267846
Probable space group: C M M M
;
_chemical_formula_sum "Si O2"
_cell_formula_units_Z 104
_cell_length_a 18.674358
_cell_length_b 15.895806
_cell_length_c 19.090049
_cell_angle_alpha 90.000000
_cell_angle_beta 90.000000
_cell_angle_gamma 90.000000
_cell_volume 5666.765970
_symmetry_space_group_name_H-M "C M M M"
_symmetry_group_IT_number 65
_symmetry_cell_setting 'orthorhombic'
loop_
_space_group_symop_operation_xyz
x,y,z
-x,-y,z
x,-y,-z
-x,y,-z
-x,-y,-z
x,y,-z
-x,y,z
x,-y,z
1/2+x,1/2+y,z
1/2-x,1/2-y,z
1/2+x,1/2-y,-z
1/2-x,1/2+y,-z
1/2-x,1/2-y,-z
1/2+x,1/2+y,-z
1/2-x,1/2+y,z
1/2+x,1/2-y,z
loop_
_atom_site_type_symbol
_atom_site_label
_atom_site_fract_x
_atom_site_fract_y
_atom_site_fract_z
Si Si1 0.421410 0.306492 0.699754
Si Si2 0.083144 0.220763 0.079685
Si Si3 0.210869 0.592903 0.738017
Si Si4 0.912950 0.601722 0.500000
Si Si5 0.320808 0.791659 0.390826
Si Si6 0.922040 0.652306 0.806324
Si Si7 0.850416 0.096406 0.814368
O O1 0.500000 0.323642 0.668448
O O2 0.369560 0.286351 0.634532
O O3 0.422030 0.229093 0.752622
O O4 0.397664 0.387141 0.744752
O O5 0.095878 0.310920 0.116774
O O6 0.128183 0.148595 0.117525
O O7 0.000000 0.195348 0.084863
O O8 0.109392 0.228488 0.000000
O O9 0.228902 0.500000 0.708841
O O10 0.210344 0.657252 0.674411
O O11 0.136474 0.586336 0.780552
O O12 0.269773 0.622689 0.793948
O O13 0.901138 0.500000 0.500000
O O14 0.871755 0.644881 0.565217
O O15 0.000000 0.619843 0.500000
O O16 0.250000 0.750000 0.428873
O O17 0.000000 0.607963 0.806424
O O18 0.857852 0.000000 0.835733
#
# Coordination Sequence:
#
# PCOD8267846 Si02
#       7
#    16  16  16   8  16  16  16
#     4   9  17  30  50  76 102 134 176 221 262 311
#     4   9  18  32  50  72  99 136 182 226 270 327
#     4  10  20  33  52  79 109 137 174 222 271 320
#     4  11  25  42  60  86 119 149 182 228 276 323
#     4  11  20  37  60  83 109 147 183 216 264 326
#     4   8  16  30  49  71  98 132 175 224 269 319
#     4  10  19  31  47  72 107 141 174 222 275 322
#
# _framework density 18.352620000000002
#
# number of rings (size 3 to 8) (size 9 to 14) (size 15 to 20)
#    0.000    2.385    1.538    2.538    0.000    2.462 
#    0.000    2.308    0.000    1.385    0.000    2.154 
#    0.000    4.308    0.000    0.000    0.000    0.000 
#
# Total GULP energy -644352.848306 kJ/mol
# GULP energy per Si atom -12391.400929 kJ/mol
# Density = 1.831085 g / cm^3
# Si number density = 18.352620 Si / 1000 Ang^3
#
#
#
# Elastic Constant Matrix: (Units=GPa)
#
#
# Indices 1 2 3 4 5 6 
#
# 1 118.2025 28.5929 31.6162 0.0000 0.0000 0.0000
# 2 28.5929 38.8489 20.9293 0.0000 0.0000 0.0000
# 3 31.6162 20.9293 71.8386 0.0000 0.0000 0.0000
# 4 0.0000 0.0000 0.0000 19.0486 0.0000 0.0000
# 5 0.0000 0.0000 0.0000 0.0000 24.7374 0.0000
# 6 0.0000 0.0000 0.0000 0.0000 0.0000 23.9903
#
#
#
# Elastic Compliance Matrix: (Units=1/GPa)
#
#
# Indices 1 2 3 4 5 6 
#
# 1 0.010774 -0.006376 -0.002884 0.000000 0.000000 0.000000
# 2 -0.006376 0.034306 -0.007189 0.000000 0.000000 0.000000
# 3 -0.002884 -0.007189 0.017284 0.000000 0.000000 0.000000
# 4 0.000000 0.000000 0.000000 0.052497 0.000000 0.000000
# 5 0.000000 0.000000 0.000000 0.000000 0.040425 0.000000
# 6 0.000000 0.000000 0.000000 0.000000 0.000000 0.041684
#
#
# Mechanical properties :
#
#
# Convention : Reuss Voigt Hill
#
# Bulk Modulus (GPa) = 33.93676 43.46300 38.69988
# Shear Modulus (GPa) = 20.86041 23.40535 22.13288
#
# Velocity S-wave (km/s) = 3.37507 3.57503 3.47649
# Velocity P-wave (km/s) = 5.80688 6.38551 6.10305
#
# Compressibility (1/GPa) = 0.02946657
#
# Stress axis : x y z
#
# Youngs Moduli (GPa) = 92.81812 29.14929 57.85796
#
# Poissons Ratio (x) = 0.18585 0.16686
# Poissons Ratio (y) = 0.59179 0.41592
# Poissons Ratio (z) = 0.26769 0.20955
#
# Static dielectric constant tensor:
#      x y z
#    x 3.782720 0.000000 0.000000 
#    y 0.000000 3.197380 0.000000 
#    z 0.000000 0.000000 3.287390 
# 
# 
# High freq. dielectric constant tensor:
#      x y z
#    x 1.728980 0.000000 0.000000 
#    y 0.000000 1.692490 0.000000 
#    z 0.000000 0.000000 1.688490 
# 
# From -- ./inp_files/54616.got.cif
#   From: 2010.03.12/outbox.cif.g09.slc.cpg/sg65_28_cif.got.tgz:54616.got - 2010.04.10 20:52:16.
