data_PCOD8267516
_publ_section_title
;
Structure prediction by ZEFSAII (Michael W. Deem and Ramdas Pophale) SiO2 
 PCOD8267516
Probable space group: C M M M
;
_chemical_formula_sum "Si O2"
_cell_formula_units_Z 80
_cell_length_a 17.096541
_cell_length_b 17.438657
_cell_length_c 14.612731
_cell_angle_alpha 90.000000
_cell_angle_beta 90.000000
_cell_angle_gamma 90.000000
_cell_volume 4356.650059
_symmetry_space_group_name_H-M "C M M M"
_symmetry_group_IT_number 65
_symmetry_cell_setting 'orthorhombic'
loop_
_space_group_symop_operation_xyz
x,y,z
-x,-y,z
x,-y,-z
-x,y,-z
-x,-y,-z
x,y,-z
-x,y,z
x,-y,z
1/2+x,1/2+y,z
1/2-x,1/2-y,z
1/2+x,1/2-y,-z
1/2-x,1/2+y,-z
1/2-x,1/2-y,-z
1/2+x,1/2+y,-z
1/2-x,1/2+y,z
1/2+x,1/2-y,z
loop_
_atom_site_type_symbol
_atom_site_label
_atom_site_fract_x
_atom_site_fract_y
_atom_site_fract_z
Si Si1 0.730678 0.088290 0.104115
Si Si2 0.413159 0.845727 0.210348
Si Si3 0.630661 0.911349 0.397078
Si Si4 0.210967 0.167085 0.597193
Si Si5 0.673165 0.699126 0.784180
O O1 0.651189 0.101851 0.160788
O O2 0.806353 0.135129 0.140419
O O3 0.753747 0.000000 0.111518
O O4 0.715022 0.113633 0.000000
O O5 0.500000 0.865210 0.173379
O O6 0.411735 0.859969 0.319940
O O7 0.396961 0.755782 0.187196
O O8 0.601187 0.888974 0.500000
O O9 0.723154 0.897808 0.389744
O O10 0.612167 0.000000 0.377024
O O11 0.166478 0.152275 0.500000
O O12 0.250000 0.250000 0.591749
O O13 0.153533 0.160974 0.685017
O O14 0.750000 0.750000 0.769478
#
# Coordination Sequence:
#
# PCOD8267516 Si02
#       5
#    16  16  16  16  16
#     4  10  21  37  57  78  98 125 166 214 261 306
#     4  11  22  34  49  74 109 142 170 201 244 302
#     4  10  19  30  46  72 106 140 172 206 247 294
#     4   9  14  25  47  70  93 126 170 215 248 278
#     4   9  17  32  51  74  96 132 171 210 247 291
#
# _framework density 18.362732999999999
#
# number of rings (size 3 to 8) (size 9 to 14) (size 15 to 20)
#    0.000    2.200    6.000    0.600    0.000    6.000 
#    0.000    2.000    0.000    0.600    0.000    1.400 
#    0.000    0.000    0.000    8.600    0.000    0.000 
#
# Total GULP energy -495547.010551 kJ/mol
# GULP energy per Si atom -12388.675264 kJ/mol
# Density = 1.832094 g / cm^3
# Si number density = 18.362733 Si / 1000 Ang^3
#
#
#
# Elastic Constant Matrix: (Units=GPa)
#
#
# Indices 1 2 3 4 5 6 
#
# 1 29.2242 31.3725 15.0321 0.0000 0.0000 0.0000
# 2 31.3725 78.0685 40.9846 0.0000 0.0000 0.0000
# 3 15.0321 40.9846 116.6808 0.0000 0.0000 0.0000
# 4 0.0000 0.0000 0.0000 14.9744 0.0000 0.0000
# 5 0.0000 0.0000 0.0000 0.0000 8.7981 0.0000
# 6 0.0000 0.0000 0.0000 0.0000 0.0000 11.7037
#
#
#
# Elastic Compliance Matrix: (Units=1/GPa)
#
#
# Indices 1 2 3 4 5 6 
#
# 1 0.060259 -0.024693 0.000910 0.000000 0.000000 0.000000
# 2 -0.024693 0.025825 -0.005890 0.000000 0.000000 0.000000
# 3 0.000910 -0.005890 0.010522 0.000000 0.000000 0.000000
# 4 0.000000 0.000000 0.000000 0.066781 0.000000 0.000000
# 5 0.000000 0.000000 0.000000 0.000000 0.113662 0.000000
# 6 0.000000 0.000000 0.000000 0.000000 0.000000 0.085443
#
#
# Mechanical properties :
#
#
# Convention : Reuss Voigt Hill
#
# Bulk Modulus (GPa) = 26.83867 44.30577 35.57222
# Shear Modulus (GPa) = 11.51397 16.20085 13.85741
#
# Velocity S-wave (km/s) = 2.50677 2.97352 2.75007
# Velocity P-wave (km/s) = 4.79855 5.99746 5.43119
#
# Compressibility (1/GPa) = 0.03725967
#
# Stress axis : x y z
#
# Youngs Moduli (GPa) = 16.59516 38.72288 95.04019
#
# Poissons Ratio (x) = 0.95620 -0.08653
# Poissons Ratio (y) = 0.40979 0.55976
# Poissons Ratio (z) = -0.01511 0.22807
#
# Static dielectric constant tensor:
#      x y z
#    x 2.955250 0.000000 0.000000 
#    y 0.000000 3.417960 0.000000 
#    z 0.000000 0.000000 3.816080 
# 
# 
# High freq. dielectric constant tensor:
#      x y z
#    x 1.641430 0.000000 0.000000 
#    y 0.000000 1.702890 0.000000 
#    z 0.000000 0.000000 1.729990 
# 
# From -- ./inp_files/42348.got.cif
#   From: 2010.03.12/outbox.cif.g09.slc.cpg/sg65_22_cif.got.tgz:42348.got - 2010.04.10 20:52:16.
