data_PCOD8267480
_publ_section_title
;
Structure prediction by ZEFSAII (Michael W. Deem and Ramdas Pophale) SiO2 
 PCOD8267480
Probable space group: C M M M
;
_chemical_formula_sum "Si O2"
_cell_formula_units_Z 96
_cell_length_a 17.747297
_cell_length_b 21.388740
_cell_length_c 13.723391
_cell_angle_alpha 90.000000
_cell_angle_beta 90.000000
_cell_angle_gamma 90.000000
_cell_volume 5209.293845
_symmetry_space_group_name_H-M "C M M M"
_symmetry_group_IT_number 65
_symmetry_cell_setting 'orthorhombic'
loop_
_space_group_symop_operation_xyz
x,y,z
-x,-y,z
x,-y,-z
-x,y,-z
-x,-y,-z
x,y,-z
-x,y,z
x,-y,z
1/2+x,1/2+y,z
1/2-x,1/2-y,z
1/2+x,1/2-y,-z
1/2-x,1/2+y,-z
1/2-x,1/2-y,-z
1/2+x,1/2+y,-z
1/2-x,1/2+y,z
1/2+x,1/2-y,z
loop_
_atom_site_type_symbol
_atom_site_label
_atom_site_fract_x
_atom_site_fract_y
_atom_site_fract_z
Si Si1 0.766949 0.069240 0.797645
Si Si2 0.706522 0.875048 0.611207
Si Si3 0.699018 0.809602 0.887711
Si Si4 0.912310 0.300366 0.281255
Si Si5 0.583848 0.430419 0.698422
Si Si6 0.358781 0.686627 0.606839
O O1 0.728286 0.072055 0.689872
O O2 0.740773 0.124518 0.868679
O O3 0.857119 0.077327 0.787237
O O4 0.747701 0.000000 0.840337
O O5 0.704400 0.901206 0.500000
O O6 0.625962 0.845790 0.639104
O O7 0.768520 0.819475 0.622105
O O8 0.750000 0.750000 0.857803
O O9 0.622646 0.809662 0.825538
O O10 0.675936 0.805510 0.000000
O O11 0.897759 0.229136 0.312235
O O12 0.000000 0.316367 0.276404
O O13 0.500000 0.418200 0.739894
O O14 0.590323 0.500000 0.653369
O O15 0.604012 0.381977 0.613006
O O16 0.375679 0.714462 0.500000
#
# Coordination Sequence:
#
# PCOD8267480 Si02
#       6
#    16  16  16  16  16  16
#     4   9  18  33  54  79 103 132 174 213 244 290
#     4   9  18  32  49  71 103 139 171 204 243 288
#     4  10  21  38  58  77  99 129 165 207 258 311
#     4  11  21  32  50  75 101 128 163 210 261 309
#     4   9  17  28  43  67 103 143 174 202 239 281
#     4  10  19  30  46  69 100 140 180 210 238 282
#
# _framework density 18.428601
#
# number of rings (size 3 to 8) (size 9 to 14) (size 15 to 20)
#    0.000    2.333    0.000    4.500    0.000    5.000 
#    0.000    4.167    0.000    9.500    0.000   11.667 
#    0.000    0.000    0.000    0.000    0.000    0.167 
#
# Total GULP energy -594933.502666 kJ/mol
# GULP energy per Si atom -12394.447972 kJ/mol
# Density = 1.838666 g / cm^3
# Si number density = 18.428601 Si / 1000 Ang^3
#
#
#
# Elastic Constant Matrix: (Units=GPa)
#
#
# Indices 1 2 3 4 5 6 
#
# 1 140.8594 37.6113 33.0686 0.0000 0.0000 0.0000
# 2 37.6113 90.9864 22.4213 0.0000 0.0000 0.0000
# 3 33.0686 22.4213 73.0913 0.0000 0.0000 0.0000
# 4 0.0000 0.0000 0.0000 19.3191 0.0000 0.0000
# 5 0.0000 0.0000 0.0000 0.0000 15.1756 0.0000
# 6 0.0000 0.0000 0.0000 0.0000 0.0000 19.0082
#
#
#
# Elastic Compliance Matrix: (Units=1/GPa)
#
#
# Indices 1 2 3 4 5 6 
#
# 1 0.008552 -0.002793 -0.003013 0.000000 0.000000 0.000000
# 2 -0.002793 0.012801 -0.002663 0.000000 0.000000 0.000000
# 3 -0.003013 -0.002663 0.015861 0.000000 0.000000 0.000000
# 4 0.000000 0.000000 0.000000 0.051762 0.000000 0.000000
# 5 0.000000 0.000000 0.000000 0.000000 0.065895 0.000000
# 6 0.000000 0.000000 0.000000 0.000000 0.000000 0.052609
#
#
# Mechanical properties :
#
#
# Convention : Reuss Voigt Hill
#
# Bulk Modulus (GPa) = 49.31545 54.57105 51.94325
# Shear Modulus (GPa) = 21.62831 24.82297 23.22564
#
# Velocity S-wave (km/s) = 3.42954 3.67411 3.55393
# Velocity P-wave (km/s) = 6.51926 6.90472 6.71476
#
# Compressibility (1/GPa) = 0.02027762
#
# Stress axis : x y z
#
# Youngs Moduli (GPa) = 116.92826 78.11595 63.04579
#
# Poissons Ratio (x) = 0.21817 0.18993
# Poissons Ratio (y) = 0.32657 0.16791
# Poissons Ratio (z) = 0.35225 0.20805
#
# Static dielectric constant tensor:
#      x y z
#    x 3.378120 0.000000 0.000000 
#    y 0.000000 3.389890 0.000000 
#    z 0.000000 0.000000 3.135860 
# 
# 
# High freq. dielectric constant tensor:
#      x y z
#    x 1.705250 0.000000 0.000000 
#    y 0.000000 1.712910 0.000000 
#    z 0.000000 0.000000 1.688770 
# 
# From -- ./inp_files/40367.got.cif
#   From: 2010.03.12/outbox.cif.g09.slc.cpg/sg65_21_cif.got.tgz:40367.got - 2010.04.10 20:52:16.
