data_PCOD8267978
_publ_section_title
;
Structure prediction by ZEFSAII (Michael W. Deem and Ramdas Pophale) SiO2 
 PCOD8267978
Probable space group: C M M M
;
_chemical_formula_sum "Si O2"
_cell_formula_units_Z 96
_cell_length_a 8.955001
_cell_length_b 19.837537
_cell_length_c 30.972165
_cell_angle_alpha 90.000000
_cell_angle_beta 90.000000
_cell_angle_gamma 90.000000
_cell_volume 5502.055321
_symmetry_space_group_name_H-M "C M M M"
_symmetry_group_IT_number 65
_symmetry_cell_setting 'orthorhombic'
loop_
_space_group_symop_operation_xyz
x,y,z
-x,-y,z
x,-y,-z
-x,y,-z
-x,-y,-z
x,y,-z
-x,y,z
x,-y,z
1/2+x,1/2+y,z
1/2-x,1/2-y,z
1/2+x,1/2-y,-z
1/2-x,1/2+y,-z
1/2-x,1/2-y,-z
1/2+x,1/2+y,-z
1/2-x,1/2+y,z
1/2+x,1/2-y,z
loop_
_atom_site_type_symbol
_atom_site_label
_atom_site_fract_x
_atom_site_fract_y
_atom_site_fract_z
Si Si1 0.324894 0.576242 0.716170
Si Si2 0.677208 0.075085 0.952112
Si Si3 0.331971 0.580157 0.547196
Si Si4 0.678184 0.679258 0.790493
Si Si5 0.833259 0.419708 0.630329
Si Si6 0.679320 0.821017 0.880587
O O1 0.500000 0.577088 0.709113
O O2 0.268606 0.500000 0.725693
O O3 0.276737 0.623186 0.755708
O O4 0.254435 0.605905 0.672386
O O5 0.500000 0.074948 0.951333
O O6 0.737366 0.126589 0.916428
O O7 0.736679 0.000000 0.941262
O O8 0.732917 0.096788 0.000000
O O9 0.268640 0.602591 0.500000
O O10 0.500000 0.606941 0.552520
O O11 0.330348 0.500000 0.549992
O O12 0.235521 0.611092 0.586281
O O13 0.500000 0.687053 0.795777
O O14 0.750000 0.750000 0.775871
O O15 0.752473 0.655176 0.835118
O O16 0.827209 0.500000 0.628443
O O17 0.000000 0.392071 0.633928
O O18 0.500000 0.816103 0.877595
O O19 0.750000 0.750000 0.893965
#
# Coordination Sequence:
#
# PCOD8267978 Si02
#       6
#    16  16  16  16  16  16
#     4   9  18  32  48  65  87 118 153 185 223 274
#     4   8  15  29  48  70  96 125 157 191 226 266
#     4   8  13  21  33  49  73 110 151 184 218 266
#     4  10  20  34  51  69  92 122 153 189 231 273
#     4   9  16  24  36  57  84 112 143 184 230 269
#     4  10  19  31  49  71  94 121 152 188 229 271
#
# _framework density 17.448025000000001
#
# number of rings (size 3 to 8) (size 9 to 14) (size 15 to 20)
#    0.000    3.000    0.000    3.500    0.000    4.667 
#    0.000    1.667    0.000    3.000    0.000    4.667 
#    0.000    0.667    0.000    2.167    0.000    4.333 
#
# Total GULP energy -594916.346628 kJ/mol
# GULP energy per Si atom -12394.090555 kJ/mol
# Density = 1.740831 g / cm^3
# Si number density = 17.448025 Si / 1000 Ang^3
#
#
#
# Elastic Constant Matrix: (Units=GPa)
#
#
# Indices 1 2 3 4 5 6 
#
# 1 62.1410 31.7645 57.4442 0.0000 0.0000 0.0000
# 2 31.7645 67.2693 85.0478 0.0000 0.0000 0.0000
# 3 57.4442 85.0478 180.6845 0.0000 0.0000 0.0000
# 4 0.0000 0.0000 0.0000 4.7129 0.0000 0.0000
# 5 0.0000 0.0000 0.0000 0.0000 24.3168 0.0000
# 6 0.0000 0.0000 0.0000 0.0000 0.0000 15.0114
#
#
#
# Elastic Compliance Matrix: (Units=1/GPa)
#
#
# Indices 1 2 3 4 5 6 
#
# 1 0.023224 -0.004029 -0.005487 0.000000 0.000000 0.000000
# 2 -0.004029 0.037413 -0.016329 0.000000 0.000000 0.000000
# 3 -0.005487 -0.016329 0.014965 0.000000 0.000000 0.000000
# 4 0.000000 0.000000 0.000000 0.212182 0.000000 0.000000
# 5 0.000000 0.000000 0.000000 0.000000 0.041124 0.000000
# 6 0.000000 0.000000 0.000000 0.000000 0.000000 0.066616
#
#
# Mechanical properties :
#
#
# Convention : Reuss Voigt Hill
#
# Bulk Modulus (GPa) = 41.82100 73.17864 57.49982
# Shear Modulus (GPa) = 10.98450 17.86410 14.42430
#
# Velocity S-wave (km/s) = 2.51182 3.20323 2.87836
# Velocity P-wave (km/s) = 5.69502 7.46411 6.63875
#
# Compressibility (1/GPa) = 0.02391143
#
# Stress axis : x y z
#
# Youngs Moduli (GPa) = 43.05815 26.72852 66.82196
#
# Poissons Ratio (x) = 0.10770 0.36665
# Poissons Ratio (y) = 0.17350 1.09116
# Poissons Ratio (z) = 0.23626 0.43646
#
# Static dielectric constant tensor:
#      x y z
#    x 3.180130 0.000000 0.000000 
#    y 0.000000 2.998500 0.000000 
#    z 0.000000 0.000000 3.569680 
# 
# 
# High freq. dielectric constant tensor:
#      x y z
#    x 1.664820 0.000000 0.000000 
#    y 0.000000 1.629220 0.000000 
#    z 0.000000 0.000000 1.690610 
# 
# From -- ./inp_files/73449.got.cif
#   From: 2010.03.12/outbox.cif.g09.slc.cpg/sg65_37_cif.got.tgz:73449.got - 2010.04.10 20:52:16.
