data_PCOD8267326
_publ_section_title
;
Structure prediction by ZEFSAII (Michael W. Deem and Ramdas Pophale) SiO2 
 PCOD8267326
Probable space group: C M M M
;
_chemical_formula_sum "Si O2"
_cell_formula_units_Z 96
_cell_length_a 8.951593
_cell_length_b 25.352234
_cell_length_c 27.414069
_cell_angle_alpha 90.000000
_cell_angle_beta 90.000000
_cell_angle_gamma 90.000000
_cell_volume 6221.427783
_symmetry_space_group_name_H-M "C M M M"
_symmetry_group_IT_number 65
_symmetry_cell_setting 'orthorhombic'
loop_
_space_group_symop_operation_xyz
x,y,z
-x,-y,z
x,-y,-z
-x,y,-z
-x,-y,-z
x,y,-z
-x,y,z
x,-y,z
1/2+x,1/2+y,z
1/2-x,1/2-y,z
1/2+x,1/2-y,-z
1/2-x,1/2+y,-z
1/2-x,1/2-y,-z
1/2+x,1/2+y,-z
1/2-x,1/2+y,z
1/2+x,1/2-y,z
loop_
_atom_site_type_symbol
_atom_site_label
_atom_site_fract_x
_atom_site_fract_y
_atom_site_fract_z
Si Si1 0.822482 0.902226 0.108251
Si Si2 0.831202 0.437184 0.500000
Si Si3 0.173808 0.694450 0.056405
Si Si4 0.667503 0.562757 0.700817
Si Si5 0.671420 0.062371 0.796719
Si Si6 0.827832 0.938259 0.405644
Si Si7 0.670194 0.000000 0.057699
O O1 0.759932 0.847303 0.089168
O O2 0.774782 0.908376 0.164296
O O3 0.000000 0.903624 0.103714
O O4 0.753566 0.948513 0.076060
O O5 0.809700 0.500000 0.500000
O O6 0.759843 0.412157 0.549099
O O7 0.000000 0.419230 0.500000
O O8 0.250000 0.750000 0.067264
O O9 0.000000 0.696685 0.071056
O O10 0.192397 0.678473 0.000000
O O11 0.500000 0.583402 0.711827
O O12 0.664639 0.500000 0.698838
O O13 0.778685 0.582197 0.743142
O O14 0.722547 0.584069 0.647650
O O15 0.500000 0.078307 0.804737
O O16 0.695277 0.000000 0.802722
O O17 0.000000 0.925757 0.414027
O O18 0.795509 0.000000 0.406101
O O19 0.500000 0.000000 0.077859
O O20 0.671053 0.000000 0.000000
#
# Coordination Sequence:
#
# PCOD8267326 Si02
#       7
#    16   8  16  16  16  16   8
#     4  12  23  34  51  72  95 122 151 183 219 264
#     4   9  15  19  25  39  59  81 111 157 204 247
#     4  10  21  38  58  77  97 120 147 181 219 261
#     4   8  14  24  37  51  69  94 129 168 207 253
#     4  10  19  30  44  61  85 114 143 177 218 262
#     4   8  13  21  31  42  58  85 118 156 202 251
#     4  11  23  37  51  69  95 123 149 180 221 266
#
# _framework density 15.430542000000001
#
# number of rings (size 3 to 8) (size 9 to 14) (size 15 to 20)
#    0.000    2.333    0.833    4.500    0.000    6.000 
#    0.000    3.333    0.000    0.000    0.000    0.000 
#    0.000    0.000    0.000    0.000    0.000    0.000 
#
# Total GULP energy -595007.157495 kJ/mol
# GULP energy per Si atom -12395.982448 kJ/mol
# Density = 1.539542 g / cm^3
# Si number density = 15.430542 Si / 1000 Ang^3
#
#
#
# Elastic Constant Matrix: (Units=GPa)
#
#
# Indices 1 2 3 4 5 6 
#
# 1 137.0420 35.6929 73.0501 0.0000 0.0000 0.0000
# 2 35.6929 43.3965 35.4851 0.0000 0.0000 0.0000
# 3 73.0501 35.4851 127.2134 0.0000 0.0000 0.0000
# 4 0.0000 0.0000 0.0000 7.1858 0.0000 0.0000
# 5 0.0000 0.0000 0.0000 0.0000 28.2601 0.0000
# 6 0.0000 0.0000 0.0000 0.0000 0.0000 17.1825
#
#
#
# Elastic Compliance Matrix: (Units=1/GPa)
#
#
# Indices 1 2 3 4 5 6 
#
# 1 0.011352 -0.005190 -0.005071 0.000000 0.000000 0.000000
# 2 -0.005190 0.032225 -0.006009 0.000000 0.000000 0.000000
# 3 -0.005071 -0.006009 0.012449 0.000000 0.000000 0.000000
# 4 0.000000 0.000000 0.000000 0.139163 0.000000 0.000000
# 5 0.000000 0.000000 0.000000 0.000000 0.035386 0.000000
# 6 0.000000 0.000000 0.000000 0.000000 0.000000 0.058199
#
#
# Mechanical properties :
#
#
# Convention : Reuss Voigt Hill
#
# Bulk Modulus (GPa) = 42.57750 66.23423 54.40586
# Shear Modulus (GPa) = 15.19105 21.42061 18.30583
#
# Velocity S-wave (km/s) = 3.14105 3.72989 3.44806
# Velocity P-wave (km/s) = 6.38810 7.84645 7.15453
#
# Compressibility (1/GPa) = 0.02348659
#
# Stress axis : x y z
#
# Youngs Moduli (GPa) = 88.09129 31.03136 80.32987
#
# Poissons Ratio (x) = 0.16106 0.40734
# Poissons Ratio (y) = 0.45722 0.48267
# Poissons Ratio (z) = 0.44669 0.18645
#
# Static dielectric constant tensor:
#      x y z
#    x 3.082580 0.000000 0.000000 
#    y 0.000000 2.403670 0.000000 
#    z 0.000000 0.000000 3.199840 
# 
# 
# High freq. dielectric constant tensor:
#      x y z
#    x 1.605420 0.000000 0.000000 
#    y 0.000000 1.515840 0.000000 
#    z 0.000000 0.000000 1.608690 
# 
# From -- ./inp_files/73524.got.cif
#   From: 2010.03.12/outbox.cif.g09.slc.cpg/sg65_37_cif.got.tgz:73524.got - 2010.04.10 20:52:16.
