data_PCOD8267309
_publ_section_title
;
Structure prediction by ZEFSAII (Michael W. Deem and Ramdas Pophale) SiO2 
 PCOD8267309
Probable space group: C M M M
;
_chemical_formula_sum "Si O2"
_cell_formula_units_Z 80
_cell_length_a 25.596119
_cell_length_b 8.833753
_cell_length_c 22.153054
_cell_angle_alpha 90.000000
_cell_angle_beta 90.000000
_cell_angle_gamma 90.000000
_cell_volume 5009.022454
_symmetry_space_group_name_H-M "C M M M"
_symmetry_group_IT_number 65
_symmetry_cell_setting 'orthorhombic'
loop_
_space_group_symop_operation_xyz
x,y,z
-x,-y,z
x,-y,-z
-x,y,-z
-x,-y,-z
x,y,-z
-x,y,z
x,-y,z
1/2+x,1/2+y,z
1/2-x,1/2-y,z
1/2+x,1/2-y,-z
1/2-x,1/2+y,-z
1/2-x,1/2-y,-z
1/2+x,1/2+y,-z
1/2-x,1/2+y,z
1/2+x,1/2-y,z
loop_
_atom_site_type_symbol
_atom_site_label
_atom_site_fract_x
_atom_site_fract_y
_atom_site_fract_z
Si Si1 0.439248 0.822589 0.742637
Si Si2 0.694993 0.177789 0.069248
Si Si3 0.062071 0.170139 0.620052
Si Si4 0.562367 0.829142 0.500000
Si Si5 0.899404 0.820345 0.139821
Si Si6 0.000000 0.179986 0.932286
O O1 0.500000 0.781016 0.751837
O O2 0.419390 0.767839 0.677317
O O3 0.405191 0.734167 0.791683
O O4 0.429337 0.000000 0.748640
O O5 0.750000 0.250000 0.087207
O O6 0.652307 0.250090 0.112300
O O7 0.697918 0.000000 0.080428
O O8 0.680818 0.216360 0.000000
O O9 0.084629 0.245435 0.559247
O O10 0.000000 0.168558 0.616695
O O11 0.084035 0.000000 0.625713
O O12 0.500000 0.827083 0.500000
O O13 0.583458 0.000000 0.500000
O O14 0.948799 0.759199 0.101718
O O15 0.895556 0.000000 0.137749
O O16 0.000000 0.000000 0.933120
O O17 0.000000 0.245947 0.000000
#
# Coordination Sequence:
#
# PCOD8267309 Si02
#       6
#    16  16  16   8  16   8
#     4  10  19  30  43  61  89 122 156 192 232 277
#     4  10  21  37  55  74  94 118 151 192 238 286
#     4   9  16  25  38  55  78 110 151 192 229 269
#     4   9  15  23  35  53  77 107 146 189 232 269
#     4  11  20  32  50  70  95 124 156 192 233 281
#     4   9  18  30  45  67  93 120 151 186 227 275
#
# _framework density 15.971178999999999
#
# number of rings (size 3 to 8) (size 9 to 14) (size 15 to 20)
#    0.000    2.200    1.000    3.300    0.000    6.400 
#    0.000    0.000    0.000    2.400    0.000    0.000 
#    0.000    0.000    0.000    0.900    0.000   12.700 
#
# Total GULP energy -496077.715009 kJ/mol
# GULP energy per Si atom -12401.942875 kJ/mol
# Density = 1.593483 g / cm^3
# Si number density = 15.971179 Si / 1000 Ang^3
#
#
#
# Elastic Constant Matrix: (Units=GPa)
#
#
# Indices 1 2 3 4 5 6 
#
# 1 70.1233 35.3753 50.9413 0.0000 0.0000 0.0000
# 2 35.3753 82.5981 40.8137 0.0000 0.0000 0.0000
# 3 50.9413 40.8137 130.4332 0.0000 0.0000 0.0000
# 4 0.0000 0.0000 0.0000 31.7710 0.0000 0.0000
# 5 0.0000 0.0000 0.0000 0.0000 13.9735 0.0000
# 6 0.0000 0.0000 0.0000 0.0000 0.0000 19.1566
#
#
#
# Elastic Compliance Matrix: (Units=1/GPa)
#
#
# Indices 1 2 3 4 5 6 
#
# 1 0.022312 -0.006210 -0.006771 0.000000 0.000000 0.000000
# 2 -0.006210 0.016050 -0.002597 0.000000 0.000000 0.000000
# 3 -0.006771 -0.002597 0.011124 0.000000 0.000000 0.000000
# 4 0.000000 0.000000 0.000000 0.031475 0.000000 0.000000
# 5 0.000000 0.000000 0.000000 0.000000 0.071564 0.000000
# 6 0.000000 0.000000 0.000000 0.000000 0.000000 0.052201
#
#
# Mechanical properties :
#
#
# Convention : Reuss Voigt Hill
#
# Bulk Modulus (GPa) = 54.55552 59.71280 57.13416
# Shear Modulus (GPa) = 20.66184 23.38183 22.02183
#
# Velocity S-wave (km/s) = 3.60070 3.83038 3.71731
# Velocity P-wave (km/s) = 7.17772 7.55191 7.36719
#
# Compressibility (1/GPa) = 0.01832995
#
# Stress axis : x y z
#
# Youngs Moduli (GPa) = 44.81846 62.30677 89.89840
#
# Poissons Ratio (x) = 0.38694 0.60869
# Poissons Ratio (y) = 0.27833 0.23343
# Poissons Ratio (z) = 0.30346 0.16179
#
# Static dielectric constant tensor:
#      x y z
#    x 2.609510 0.000000 0.000000 
#    y 0.000000 3.106170 0.000000 
#    z 0.000000 0.000000 3.181510 
# 
# 
# High freq. dielectric constant tensor:
#      x y z
#    x 1.553200 0.000000 0.000000 
#    y 0.000000 1.627160 0.000000 
#    z 0.000000 0.000000 1.624260 
# 
# From -- ./inp_files/59633.got.cif
#   From: 2010.03.12/outbox.cif.g09.slc.cpg/sg65_30_cif.got.tgz:59633.got - 2010.04.10 20:52:16.
