data_PCOD8267277
_publ_section_title
;
Structure prediction by ZEFSAII (Michael W. Deem and Ramdas Pophale) SiO2 
 PCOD8267277
Probable space group: C M M M
;
_chemical_formula_sum "Si O2"
_cell_formula_units_Z 80
_cell_length_a 29.717358
_cell_length_b 18.414041
_cell_length_c 7.827934
_cell_angle_alpha 90.000000
_cell_angle_beta 90.000000
_cell_angle_gamma 90.000000
_cell_volume 4283.575809
_symmetry_space_group_name_H-M "C M M M"
_symmetry_group_IT_number 65
_symmetry_cell_setting 'orthorhombic'
loop_
_space_group_symop_operation_xyz
x,y,z
-x,-y,z
x,-y,-z
-x,y,-z
-x,-y,-z
x,y,-z
-x,y,z
x,-y,z
1/2+x,1/2+y,z
1/2-x,1/2-y,z
1/2+x,1/2-y,-z
1/2-x,1/2+y,-z
1/2-x,1/2-y,-z
1/2+x,1/2+y,-z
1/2-x,1/2+y,z
1/2+x,1/2-y,z
loop_
_atom_site_type_symbol
_atom_site_label
_atom_site_fract_x
_atom_site_fract_y
_atom_site_fract_z
Si Si1 0.288537 0.919066 0.700267
Si Si2 0.309481 0.586634 0.690993
Si Si3 0.117260 0.583252 0.805386
Si Si4 0.948827 0.300091 0.690331
Si Si5 0.371726 0.413955 0.000000
Si Si6 0.947525 0.802578 0.000000
O O1 0.296792 0.920015 0.500000
O O2 0.240203 0.881168 0.739802
O O3 0.332390 0.881847 0.785841
O O4 0.286238 0.000000 0.776509
O O5 0.323713 0.613303 0.500000
O O6 0.305728 0.500000 0.689539
O O7 0.345161 0.612907 0.831245
O O8 0.116926 0.500000 0.738463
O O9 0.081943 0.628648 0.695557
O O10 0.101710 0.587751 0.000000
O O11 0.944793 0.265885 0.500000
O O12 0.000000 0.324065 0.728873
O O13 0.933376 0.241652 0.830858
O O14 0.378540 0.500000 0.000000
O O15 0.420540 0.377812 0.000000
O O16 0.000000 0.822659 0.000000
#
# Coordination Sequence:
#
# PCOD8267277 Si02
#       6
#    16  16  16  16   8   8
#     4   8  14  25  42  68 105 144 176 208 248 296
#     4   8  15  28  47  75 109 139 168 204 248 304
#     4  10  19  29  48  80 112 141 177 224 265 294
#     4  10  21  38  58  75  98 140 184 219 261 310
#     4  10  20  33  57  86 106 131 162 206 266 316
#     4  10  22  41  58  77 105 132 170 214 256 321
#
# _framework density 18.675985000000001
#
# number of rings (size 3 to 8) (size 9 to 14) (size 15 to 20)
#    0.000    2.800    1.000    1.800    1.400    2.600 
#    0.000    2.000    0.000    2.400    0.000    9.800 
#    0.000    0.000    0.000    0.000    0.000    0.000 
#
# Total GULP energy -495690.034775 kJ/mol
# GULP energy per Si atom -12392.250869 kJ/mol
# Density = 1.863348 g / cm^3
# Si number density = 18.675985 Si / 1000 Ang^3
#
#
#
# Elastic Constant Matrix: (Units=GPa)
#
#
# Indices 1 2 3 4 5 6 
#
# 1 112.5829 45.8188 51.0801 0.0000 0.0000 0.0000
# 2 45.8188 42.8259 30.6715 0.0000 0.0000 0.0000
# 3 51.0801 30.6715 109.7998 0.0000 0.0000 0.0000
# 4 0.0000 0.0000 0.0000 10.9401 0.0000 0.0000
# 5 0.0000 0.0000 0.0000 0.0000 26.6351 0.0000
# 6 0.0000 0.0000 0.0000 0.0000 0.0000 11.3288
#
#
#
# Elastic Compliance Matrix: (Units=1/GPa)
#
#
# Indices 1 2 3 4 5 6 
#
# 1 0.016733 -0.015410 -0.003480 0.000000 0.000000 0.000000
# 2 -0.015410 0.043382 -0.004949 0.000000 0.000000 0.000000
# 3 -0.003480 -0.004949 0.012109 0.000000 0.000000 0.000000
# 4 0.000000 0.000000 0.000000 0.091407 0.000000 0.000000
# 5 0.000000 0.000000 0.000000 0.000000 0.037544 0.000000
# 6 0.000000 0.000000 0.000000 0.000000 0.000000 0.088270
#
#
# Mechanical properties :
#
#
# Convention : Reuss Voigt Hill
#
# Bulk Modulus (GPa) = 40.74078 57.81660 49.27869
# Shear Modulus (GPa) = 14.47996 18.95667 16.71831
#
# Velocity S-wave (km/s) = 2.78749 3.18941 2.99520
# Velocity P-wave (km/s) = 5.67644 6.67743 6.19718
#
# Compressibility (1/GPa) = 0.02454543
#
# Stress axis : x y z
#
# Youngs Moduli (GPa) = 59.76376 23.05109 82.58450
#
# Poissons Ratio (x) = 0.35521 0.28736
# Poissons Ratio (y) = 0.92095 0.40875
# Poissons Ratio (z) = 0.20795 0.11409
#
# Static dielectric constant tensor:
#      x y z
#    x 3.526620 0.000000 0.000000 
#    y 0.000000 2.809480 0.000000 
#    z 0.000000 0.000000 3.602840 
# 
# 
# High freq. dielectric constant tensor:
#      x y z
#    x 1.732720 0.000000 0.000000 
#    y 0.000000 1.655680 0.000000 
#    z 0.000000 0.000000 1.737850 
# 
# From -- ./inp_files/16111.got.cif
#   From: 2010.03.12/outbox.cif.g09.slc.cpg/sg65_9_cif.got.tgz:16111.got - 2010.04.10 20:52:16.
