data_PCOD8267962
_publ_section_title
;
Structure prediction by ZEFSAII (Michael W. Deem and Ramdas Pophale) SiO2 
 PCOD8267962
Probable space group: C M M M
;
_chemical_formula_sum "Si O2"
_cell_formula_units_Z 80
_cell_length_a 9.235793
_cell_length_b 18.524415
_cell_length_c 25.762789
_cell_angle_alpha 90.000000
_cell_angle_beta 90.000000
_cell_angle_gamma 90.000000
_cell_volume 4407.695347
_symmetry_space_group_name_H-M "C M M M"
_symmetry_group_IT_number 65
_symmetry_cell_setting 'orthorhombic'
loop_
_space_group_symop_operation_xyz
x,y,z
-x,-y,z
x,-y,-z
-x,y,-z
-x,-y,-z
x,y,-z
-x,y,z
x,-y,z
1/2+x,1/2+y,z
1/2-x,1/2-y,z
1/2+x,1/2-y,-z
1/2-x,1/2+y,-z
1/2-x,1/2-y,-z
1/2+x,1/2+y,-z
1/2-x,1/2+y,z
1/2+x,1/2-y,z
loop_
_atom_site_type_symbol
_atom_site_label
_atom_site_fract_x
_atom_site_fract_y
_atom_site_fract_z
Si Si1 0.172156 0.326535 0.901358
Si Si2 0.327934 0.079374 0.500000
Si Si3 0.169168 0.676986 0.407024
Si Si4 0.831014 0.676632 0.290066
Si Si5 0.171571 0.580542 0.196209
Si Si6 0.328606 0.081367 0.000000
O O1 0.250000 0.250000 0.904345
O O2 0.226359 0.368366 0.850115
O O3 0.224094 0.375208 0.949554
O O4 0.000000 0.314179 0.901573
O O5 0.500000 0.075536 0.500000
O O6 0.273157 0.118148 0.552283
O O7 0.259165 0.000000 0.500000
O O8 0.250000 0.750000 0.420427
O O9 0.204536 0.650578 0.348575
O O10 0.000000 0.691601 0.414218
O O11 0.750000 0.750000 0.275991
O O12 0.777954 0.614295 0.251037
O O13 0.000000 0.692464 0.282853
O O14 0.238379 0.500000 0.191132
O O15 0.000000 0.574891 0.193538
O O16 0.500000 0.075352 0.000000
O O17 0.262936 0.000000 0.000000
#
# Coordination Sequence:
#
# PCOD8267962 Si02
#       6
#    16   8  16  16  16   8
#     4  10  19  31  49  70  92 119 150 185 222 261
#     4   9  17  28  43  65  90 113 142 182 222 257
#     4   9  17  29  46  66  87 114 146 179 217 260
#     4   9  17  29  46  67  89 114 145 181 219 260
#     4   9  17  29  46  68  91 116 149 186 220 256
#     4   9  17  30  49  71  92 117 152 188 220 259
#
# _framework density 18.150075000000001
#
# number of rings (size 3 to 8) (size 9 to 14) (size 15 to 20)
#    0.000    2.800    0.000    1.800    0.000    3.200 
#    0.000    4.000    0.000    6.000    0.000    5.600 
#    0.000    0.000    0.000    0.000    0.000    0.000 
#
# Total GULP energy -495919.433105 kJ/mol
# GULP energy per Si atom -12397.985828 kJ/mol
# Density = 1.810876 g / cm^3
# Si number density = 18.150075 Si / 1000 Ang^3
#
#
#
# Elastic Constant Matrix: (Units=GPa)
#
#
# Indices 1 2 3 4 5 6 
#
# 1 18.9951 30.9510 23.1920 0.0000 0.0000 0.0000
# 2 30.9510 184.7927 111.1105 0.0000 0.0000 0.0000
# 3 23.1920 111.1105 162.3304 0.0000 0.0000 0.0000
# 4 0.0000 0.0000 0.0000 32.8420 0.0000 0.0000
# 5 0.0000 0.0000 0.0000 0.0000 11.9649 0.0000
# 6 0.0000 0.0000 0.0000 0.0000 0.0000 24.3526
#
#
#
# Elastic Compliance Matrix: (Units=1/GPa)
#
#
# Indices 1 2 3 4 5 6 
#
# 1 0.073577 -0.010201 -0.003529 0.000000 0.000000 0.000000
# 2 -0.010201 0.010611 -0.005805 0.000000 0.000000 0.000000
# 3 -0.003529 -0.005805 0.010638 0.000000 0.000000 0.000000
# 4 0.000000 0.000000 0.000000 0.030449 0.000000 0.000000
# 5 0.000000 0.000000 0.000000 0.000000 0.083578 0.000000
# 6 0.000000 0.000000 0.000000 0.000000 0.000000 0.041063
#
#
# Mechanical properties :
#
#
# Convention : Reuss Voigt Hill
#
# Bulk Modulus (GPa) = 17.93608 77.40280 47.66944
# Shear Modulus (GPa) = 16.25640 27.22288 21.73964
#
# Velocity S-wave (km/s) = 2.99601 3.87703 3.46464
# Velocity P-wave (km/s) = 4.67672 7.92341 6.50584
#
# Compressibility (1/GPa) = 0.05575355
#
# Stress axis : x y z
#
# Youngs Moduli (GPa) = 13.59128 94.24562 94.00262
#
# Poissons Ratio (x) = 0.96142 0.33177
# Poissons Ratio (y) = 0.13865 0.54570
# Poissons Ratio (z) = 0.04797 0.54711
#
# Static dielectric constant tensor:
#      x y z
#    x 2.904750 0.000000 0.000000 
#    y 0.000000 3.550410 0.000000 
#    z 0.000000 0.000000 3.673080 
# 
# 
# High freq. dielectric constant tensor:
#      x y z
#    x 1.651110 0.000000 0.000000 
#    y 0.000000 1.707220 0.000000 
#    z 0.000000 0.000000 1.724250 
# 
# From -- ./inp_files/74201.got.cif
#   From: 2010.03.12/outbox.cif.g09.slc.cpg/sg65_38_cif.got.tgz:74201.got - 2010.04.10 20:52:16.
