data_PCOD8267594
_publ_section_title
;
Structure prediction by ZEFSAII (Michael W. Deem and Ramdas Pophale) SiO2 
 PCOD8267594
Probable space group: C M M M
;
_chemical_formula_sum "Si O2"
_cell_formula_units_Z 104
_cell_length_a 25.674208
_cell_length_b 8.974517
_cell_length_c 22.498014
_cell_angle_alpha 90.000000
_cell_angle_beta 90.000000
_cell_angle_gamma 90.000000
_cell_volume 5183.848762
_symmetry_space_group_name_H-M "C M M M"
_symmetry_group_IT_number 65
_symmetry_cell_setting 'orthorhombic'
loop_
_space_group_symop_operation_xyz
x,y,z
-x,-y,z
x,-y,-z
-x,y,-z
-x,-y,-z
x,y,-z
-x,y,z
x,-y,z
1/2+x,1/2+y,z
1/2-x,1/2-y,z
1/2+x,1/2-y,-z
1/2-x,1/2+y,-z
1/2-x,1/2-y,-z
1/2+x,1/2+y,-z
1/2-x,1/2+y,z
1/2+x,1/2-y,z
loop_
_atom_site_type_symbol
_atom_site_label
_atom_site_fract_x
_atom_site_fract_y
_atom_site_fract_z
Si Si1 0.657223 0.169457 0.064818
Si Si2 0.697406 0.328989 0.181216
Si Si3 0.500000 0.822858 0.432884
Si Si4 0.942168 0.668455 0.874433
Si Si5 0.193784 0.173110 0.687497
Si Si6 0.404462 0.175469 0.353187
Si Si7 0.561175 0.333842 0.239147
O O1 0.677684 0.259266 0.120458
O O2 0.594316 0.177444 0.067616
O O3 0.677031 0.000000 0.070379
O O4 0.674435 0.233929 0.000000
O O5 0.706776 0.500000 0.166782
O O6 0.750000 0.250000 0.199011
O O7 0.667508 0.308606 0.245253
O O8 0.500000 0.761920 0.500000
O O9 0.553407 0.765580 0.401717
O O10 0.500000 0.000000 0.430231
O O11 0.943215 0.500000 0.849113
O O12 0.916017 0.773448 0.823592
O O13 0.000000 0.720682 0.892894
O O14 0.250000 0.250000 0.679856
O O15 0.151969 0.243561 0.641230
O O16 0.201894 0.000000 0.672753
O O17 0.428669 0.214898 0.290039
O O18 0.395365 0.000000 0.359053
O O19 0.500000 0.342795 0.229253
O O20 0.583767 0.500000 0.252775
#
# Coordination Sequence:
#
# PCOD8267594 Si02
#       7
#    16  16   8  16  16  16  16
#     4  10  21  35  50  70  97 131 173 220 269 324
#     4  10  21  37  57  78 102 133 170 215 272 330
#     4   9  20  38  59  87 123 163 204 239 274 319
#     4   9  18  32  50  71  97 131 172 218 268 326
#     4  10  21  37  58  87 119 149 185 232 288 345
#     4  11  20  33  57  85 116 154 194 236 279 330
#     4  10  19  30  47  74 108 140 175 223 280 337
#
# _framework density 20.062313
#
# number of rings (size 3 to 8) (size 9 to 14) (size 15 to 20)
#    0.000    2.077    0.769    2.769    0.000    6.462 
#    0.000    1.538    0.000    4.154    0.000    3.231 
#    0.000    0.000    0.000    0.000    0.000    0.000 
#
# Total GULP energy -644244.583614 kJ/mol
# GULP energy per Si atom -12389.318916 kJ/mol
# Density = 2.001665 g / cm^3
# Si number density = 20.062313 Si / 1000 Ang^3
#
#
#
# Elastic Constant Matrix: (Units=GPa)
#
#
# Indices 1 2 3 4 5 6 
#
# 1 81.1649 37.7230 59.4206 0.0000 0.0000 0.0000
# 2 37.7230 91.4102 35.6980 0.0000 0.0000 0.0000
# 3 59.4206 35.6980 95.4990 0.0000 0.0000 0.0000
# 4 0.0000 0.0000 0.0000 14.5927 0.0000 0.0000
# 5 0.0000 0.0000 0.0000 0.0000 21.8612 0.0000
# 6 0.0000 0.0000 0.0000 0.0000 0.0000 30.2504
#
#
#
# Elastic Compliance Matrix: (Units=1/GPa)
#
#
# Indices 1 2 3 4 5 6 
#
# 1 0.024325 -0.004833 -0.013328 0.000000 0.000000 0.000000
# 2 -0.004833 0.013770 -0.002140 0.000000 0.000000 0.000000
# 3 -0.013328 -0.002140 0.019564 0.000000 0.000000 0.000000
# 4 0.000000 0.000000 0.000000 0.068527 0.000000 0.000000
# 5 0.000000 0.000000 0.000000 0.000000 0.045743 0.000000
# 6 0.000000 0.000000 0.000000 0.000000 0.000000 0.033057
#
#
# Mechanical properties :
#
#
# Convention : Reuss Voigt Hill
#
# Bulk Modulus (GPa) = 58.63124 59.30635 58.96879
# Shear Modulus (GPa) = 19.89849 22.35635 21.12742
#
# Velocity S-wave (km/s) = 3.15276 3.34180 3.24866
# Velocity P-wave (km/s) = 6.52236 6.67199 6.59760
#
# Compressibility (1/GPa) = 0.01705575
#
# Stress axis : x y z
#
# Youngs Moduli (GPa) = 41.11063 72.62174 51.11334
#
# Poissons Ratio (x) = 0.35099 0.68126
# Poissons Ratio (y) = 0.19869 0.10938
# Poissons Ratio (z) = 0.54794 0.15541
#
# Static dielectric constant tensor:
#      x y z
#    x 3.897930 0.000000 0.000000 
#    y 0.000000 3.654380 0.000000 
#    z 0.000000 0.000000 3.423970 
# 
# 
# High freq. dielectric constant tensor:
#      x y z
#    x 1.802450 0.000000 0.000000 
#    y 0.000000 1.776690 0.000000 
#    z 0.000000 0.000000 1.746880 
# 
# From -- ./inp_files/71806.got.cif
#   From: 2010.03.12/outbox.cif.g09.slc.cpg/sg65_36_cif.got.tgz:71806.got - 2010.04.10 20:52:16.
