data_PCOD8267726
_publ_section_title
;
Structure prediction by ZEFSAII (Michael W. Deem and Ramdas Pophale) SiO2 
 PCOD8267726
Probable space group: C M M M
;
_chemical_formula_sum "Si O2"
_cell_formula_units_Z 72
_cell_length_a 33.818665
_cell_length_b 8.766374
_cell_length_c 15.728822
_cell_angle_alpha 90.000000
_cell_angle_beta 90.000000
_cell_angle_gamma 90.000000
_cell_volume 4663.077703
_symmetry_space_group_name_H-M "C M M M"
_symmetry_group_IT_number 65
_symmetry_cell_setting 'orthorhombic'
loop_
_space_group_symop_operation_xyz
x,y,z
-x,-y,z
x,-y,-z
-x,y,-z
-x,-y,-z
x,y,-z
-x,y,z
x,-y,z
1/2+x,1/2+y,z
1/2-x,1/2-y,z
1/2+x,1/2-y,-z
1/2-x,1/2+y,-z
1/2-x,1/2-y,-z
1/2+x,1/2+y,-z
1/2-x,1/2+y,z
1/2+x,1/2-y,z
loop_
_atom_site_type_symbol
_atom_site_label
_atom_site_fract_x
_atom_site_fract_y
_atom_site_fract_z
Si Si1 0.707010 0.820509 0.683243
Si Si2 0.206838 0.819528 0.000000
Si Si3 0.707595 0.178686 0.500000
Si Si4 0.340679 0.180096 0.846070
Si Si5 0.000000 0.671850 0.899055
Si Si6 0.580665 0.322227 0.900090
O O1 0.750000 0.750000 0.699487
O O2 0.687988 0.771949 0.590555
O O3 0.676466 0.767046 0.755177
O O4 0.713146 0.000000 0.688217
O O5 0.250000 0.750000 0.000000
O O6 0.183734 0.767224 0.082796
O O7 0.209965 0.000000 0.000000
O O8 0.750000 0.250000 0.500000
O O9 0.712740 0.000000 0.500000
O O10 0.386165 0.230199 0.848963
O O11 0.337135 0.000000 0.861096
O O12 0.961393 0.761161 0.866574
O O13 0.000000 0.500000 0.862587
O O14 0.000000 0.669432 0.000000
O O15 0.583958 0.500000 0.879331
O O16 0.586140 0.290484 0.000000
#
# Coordination Sequence:
#
# PCOD8267726 Si02
#       6
#    16   8   8  16   8  16
#     4   9  18  30  46  66  87 115 148 186 228 269
#     4  12  24  36  46  59  82 119 158 192 226 260
#     4   8  14  28  46  64  86 109 140 181 228 274
#     4  11  21  32  46  65  89 118 153 189 223 262
#     4   9  17  29  47  67  87 114 147 184 224 264
#     4  10  19  31  46  65  89 118 151 185 223 263
#
# _framework density 15.440446
#
# number of rings (size 3 to 8) (size 9 to 14) (size 15 to 20)
#    0.000    2.111    1.111    3.333    0.000    5.778 
#    0.000    0.000    0.000    0.000    0.000    0.000 
#    0.000    0.889    0.000   10.444    0.000    2.000 
#
# Total GULP energy -446188.402732 kJ/mol
# GULP energy per Si atom -12394.122298 kJ/mol
# Density = 1.540530 g / cm^3
# Si number density = 15.440446 Si / 1000 Ang^3
#
#
#
# Elastic Constant Matrix: (Units=GPa)
#
#
# Indices 1 2 3 4 5 6 
#
# 1 113.2035 36.3918 54.8294 0.0000 0.0000 0.0000
# 2 36.3918 70.4168 38.5375 0.0000 0.0000 0.0000
# 3 54.8294 38.5375 116.5147 0.0000 0.0000 0.0000
# 4 0.0000 0.0000 0.0000 5.5920 0.0000 0.0000
# 5 0.0000 0.0000 0.0000 0.0000 8.3289 0.0000
# 6 0.0000 0.0000 0.0000 0.0000 0.0000 28.5269
#
#
#
# Elastic Compliance Matrix: (Units=1/GPa)
#
#
# Indices 1 2 3 4 5 6 
#
# 1 0.012252 -0.003879 -0.004483 0.000000 0.000000 0.000000
# 2 -0.003879 0.018568 -0.004316 0.000000 0.000000 0.000000
# 3 -0.004483 -0.004316 0.012120 0.000000 0.000000 0.000000
# 4 0.000000 0.000000 0.000000 0.178826 0.000000 0.000000
# 5 0.000000 0.000000 0.000000 0.000000 0.120063 0.000000
# 6 0.000000 0.000000 0.000000 0.000000 0.000000 0.035055
#
#
# Mechanical properties :
#
#
# Convention : Reuss Voigt Hill
#
# Bulk Modulus (GPa) = 56.86829 62.18360 59.52595
# Shear Modulus (GPa) = 12.25194 19.84798 16.04996
#
# Velocity S-wave (km/s) = 2.81996 3.58921 3.22759
# Velocity P-wave (km/s) = 6.89301 7.58533 7.24744
#
# Compressibility (1/GPa) = 0.01758449
#
# Stress axis : x y z
#
# Youngs Moduli (GPa) = 81.62230 53.85683 82.51121
#
# Poissons Ratio (x) = 0.20888 0.36986
# Poissons Ratio (y) = 0.31657 0.35613
# Poissons Ratio (z) = 0.36587 0.23246
#
# Static dielectric constant tensor:
#      x y z
#    x 2.946330 0.000000 0.000000 
#    y 0.000000 3.120450 0.000000 
#    z 0.000000 0.000000 3.302900 
# 
# 
# High freq. dielectric constant tensor:
#      x y z
#    x 1.577150 0.000000 0.000000 
#    y 0.000000 1.606830 0.000000 
#    z 0.000000 0.000000 1.570560 
# 
# From -- ./inp_files/47525.got.cif
#   From: 2010.03.12/outbox.cif.g09.slc.cpg/sg65_24_cif.got.tgz:47525.got - 2010.04.10 20:52:16.
