data_PCOD8267755
_publ_section_title
;
Structure prediction by ZEFSAII (Michael W. Deem and Ramdas Pophale) SiO2 
 PCOD8267755
Probable space group: C M M M
;
_chemical_formula_sum "Si O2"
_cell_formula_units_Z 88
_cell_length_a 21.330832
_cell_length_b 13.928515
_cell_length_c 17.305889
_cell_angle_alpha 90.000000
_cell_angle_beta 90.000000
_cell_angle_gamma 90.000000
_cell_volume 5141.697535
_symmetry_space_group_name_H-M "C M M M"
_symmetry_group_IT_number 65
_symmetry_cell_setting 'orthorhombic'
loop_
_space_group_symop_operation_xyz
x,y,z
-x,-y,z
x,-y,-z
-x,y,-z
-x,-y,-z
x,y,-z
-x,y,z
x,-y,z
1/2+x,1/2+y,z
1/2-x,1/2-y,z
1/2+x,1/2-y,-z
1/2-x,1/2+y,-z
1/2-x,1/2-y,-z
1/2+x,1/2+y,-z
1/2-x,1/2+y,z
1/2+x,1/2-y,z
loop_
_atom_site_type_symbol
_atom_site_label
_atom_site_fract_x
_atom_site_fract_y
_atom_site_fract_z
Si Si1 0.427798 0.109933 0.089827
Si Si2 0.425683 0.105057 0.500000
Si Si3 0.649370 0.787275 0.214661
Si Si4 0.273299 0.610788 0.256736
Si Si5 0.832152 0.110351 0.585659
Si Si6 0.926201 0.261511 0.636627
O O1 0.500000 0.135728 0.107068
O O2 0.382594 0.183725 0.134232
O O3 0.414484 0.000000 0.115260
O O4 0.412720 0.122877 0.000000
O O5 0.500000 0.098342 0.500000
O O6 0.402802 0.157728 0.422951
O O7 0.394635 0.000000 0.500000
O O8 0.678448 0.679699 0.209979
O O9 0.702796 0.864689 0.233948
O O10 0.595732 0.793546 0.279053
O O11 0.288553 0.500000 0.236241
O O12 0.279619 0.631681 0.349030
O O13 0.807903 0.141945 0.500000
O O14 0.896160 0.162281 0.609162
O O15 0.850646 0.000000 0.585358
O O16 0.000000 0.247223 0.636391
#
# Coordination Sequence:
#
# PCOD8267755 Si02
#       6
#    16   8  16  16  16  16
#     4   9  18  33  55  83 109 130 159 202 246 293
#     4   9  18  30  39  54  89 127 154 188 232 277
#     4  10  19  33  53  74  96 135 166 200 252 302
#     4   9  19  34  49  72 102 130 171 216 248 288
#     4   9  17  31  50  68  91 127 168 212 255 289
#     4  10  19  31  46  69  97 124 160 203 245 299
#
# _framework density 17.114971000000001
#
# number of rings (size 3 to 8) (size 9 to 14) (size 15 to 20)
#    0.000    2.636    0.909    1.636    0.000    1.818 
#    1.636    6.364    0.000    3.273    0.000    1.273 
#    0.000    0.000    0.000    0.000    0.000    0.000 
#
# Total GULP energy -545463.551462 kJ/mol
# GULP energy per Si atom -12396.898897 kJ/mol
# Density = 1.707602 g / cm^3
# Si number density = 17.114971 Si / 1000 Ang^3
#
#
#
# Elastic Constant Matrix: (Units=GPa)
#
#
# Indices 1 2 3 4 5 6 
#
# 1 78.6898 37.5206 51.2858 0.0000 0.0000 0.0000
# 2 37.5206 92.1396 47.8868 0.0000 0.0000 0.0000
# 3 51.2858 47.8868 97.9850 0.0000 0.0000 0.0000
# 4 0.0000 0.0000 0.0000 27.8012 0.0000 0.0000
# 5 0.0000 0.0000 0.0000 0.0000 22.5489 0.0000
# 6 0.0000 0.0000 0.0000 0.0000 0.0000 17.1160
#
#
#
# Elastic Compliance Matrix: (Units=1/GPa)
#
#
# Indices 1 2 3 4 5 6 
#
# 1 0.020166 -0.003654 -0.008769 0.000000 0.000000 0.000000
# 2 -0.003654 0.015211 -0.005521 0.000000 0.000000 0.000000
# 3 -0.008769 -0.005521 0.017493 0.000000 0.000000 0.000000
# 4 0.000000 0.000000 0.000000 0.035970 0.000000 0.000000
# 5 0.000000 0.000000 0.000000 0.000000 0.044348 0.000000
# 6 0.000000 0.000000 0.000000 0.000000 0.000000 0.058425
#
#
# Mechanical properties :
#
#
# Convention : Reuss Voigt Hill
#
# Bulk Modulus (GPa) = 58.88807 60.24453 59.56630
# Shear Modulus (GPa) = 21.44443 22.30131 21.87287
#
# Velocity S-wave (km/s) = 3.54356 3.61367 3.57879
# Velocity P-wave (km/s) = 7.15713 7.25863 7.20806
#
# Compressibility (1/GPa) = 0.01698137
#
# Stress axis : x y z
#
# Youngs Moduli (GPa) = 49.58925 65.74380 57.16427
#
# Poissons Ratio (x) = 0.24026 0.50126
# Poissons Ratio (y) = 0.18122 0.31560
# Poissons Ratio (z) = 0.43484 0.36296
#
# Static dielectric constant tensor:
#      x y z
#    x 3.004220 0.000000 0.000000 
#    y 0.000000 3.290690 0.000000 
#    z 0.000000 0.000000 3.150670 
# 
# 
# High freq. dielectric constant tensor:
#      x y z
#    x 1.651420 0.000000 0.000000 
#    y 0.000000 1.662620 0.000000 
#    z 0.000000 0.000000 1.649840 
# 
# From -- ./inp_files/54308.got.cif
#   From: 2010.03.12/outbox.cif.g09.slc.cpg/sg65_28_cif.got.tgz:54308.got - 2010.04.10 20:52:16.
