data_PCOD8267561
_publ_section_title
;
Structure prediction by ZEFSAII (Michael W. Deem and Ramdas Pophale) SiO2 
 PCOD8267561
Probable space group: C M M M
;
_chemical_formula_sum "Si O2"
_cell_formula_units_Z 72
_cell_length_a 13.425310
_cell_length_b 32.112773
_cell_length_c 8.949582
_cell_angle_alpha 90.000000
_cell_angle_beta 90.000000
_cell_angle_gamma 90.000000
_cell_volume 3858.378986
_symmetry_space_group_name_H-M "C M M M"
_symmetry_group_IT_number 65
_symmetry_cell_setting 'orthorhombic'
loop_
_space_group_symop_operation_xyz
x,y,z
-x,-y,z
x,-y,-z
-x,y,-z
-x,-y,-z
x,y,-z
-x,y,z
x,-y,z
1/2+x,1/2+y,z
1/2-x,1/2-y,z
1/2+x,1/2-y,-z
1/2-x,1/2+y,-z
1/2-x,1/2-y,-z
1/2+x,1/2+y,-z
1/2-x,1/2+y,z
1/2+x,1/2-y,z
loop_
_atom_site_type_symbol
_atom_site_label
_atom_site_fract_x
_atom_site_fract_y
_atom_site_fract_z
Si Si1 0.892235 0.766097 0.822733
Si Si2 0.708852 0.182666 0.176636
Si Si3 0.000000 0.546828 0.677663
Si Si4 0.610718 0.452912 0.677505
Si Si5 0.304565 0.095103 0.677613
O O1 0.817822 0.802095 0.769076
O O2 0.864781 0.719476 0.770794
O O3 0.000000 0.777586 0.757392
O O4 0.889587 0.765295 0.000000
O O5 0.680312 0.141392 0.263345
O O6 0.703691 0.174278 0.000000
O O7 0.100427 0.569072 0.736671
O O8 0.000000 0.500000 0.740729
O O9 0.000000 0.546776 0.500000
O O10 0.614888 0.452605 0.500000
O O11 0.500000 0.437275 0.730076
O O12 0.627789 0.500000 0.735360
O O13 0.700552 0.424249 0.741020
O O14 0.302374 0.095629 0.500000
#
# Coordination Sequence:
#
# PCOD8267561 Si02
#       5
#    16  16   8  16  16
#     4   8  15  30  50  67  88 122 160 192 221 271
#     4   9  18  31  48  71  92 117 156 193 230 274
#     4   9  18  32  49  69  95 131 167 193 225 277
#     4   8  14  26  45  67  89 117 154 191 225 266
#     4  10  19  30  47  71  97 121 151 194 235 275
#
# _framework density 18.660685999999998
#
# number of rings (size 3 to 8) (size 9 to 14) (size 15 to 20)
#    0.000    3.222    0.000    2.667    1.556    3.556 
#    0.000    2.222    0.000    4.667    0.000    1.556 
#    0.000    0.000    0.000    0.000    0.000    0.000 
#
# Total GULP energy -446084.590243 kJ/mol
# GULP energy per Si atom -12391.238618 kJ/mol
# Density = 1.861821 g / cm^3
# Si number density = 18.660686 Si / 1000 Ang^3
#
#
#
# Elastic Constant Matrix: (Units=GPa)
#
#
# Indices 1 2 3 4 5 6 
#
# 1 147.6563 58.5869 13.4658 0.0000 0.0000 0.0000
# 2 58.5869 126.5282 13.3064 0.0000 0.0000 0.0000
# 3 13.4658 13.3064 7.9720 0.0000 0.0000 0.0000
# 4 0.0000 0.0000 0.0000 104.8109 0.0000 0.0000
# 5 0.0000 0.0000 0.0000 0.0000 9.2627 0.0000
# 6 0.0000 0.0000 0.0000 0.0000 0.0000 0.6221
#
#
#
# Elastic Compliance Matrix: (Units=1/GPa)
#
#
# Indices 1 2 3 4 5 6 
#
# 1 0.008896 -0.003079 -0.009887 0.000000 0.000000 0.000000
# 2 -0.003079 0.010652 -0.012578 0.000000 0.000000 0.000000
# 3 -0.009887 -0.012578 0.163133 0.000000 0.000000 0.000000
# 4 0.000000 0.000000 0.000000 0.009541 0.000000 0.000000
# 5 0.000000 0.000000 0.000000 0.000000 0.107960 0.000000
# 6 0.000000 0.000000 0.000000 0.000000 0.000000 1.607560
#
#
# Mechanical properties :
#
#
# Convention : Reuss Voigt Hill
#
# Bulk Modulus (GPa) = 7.59919 50.31941 28.95930
# Shear Modulus (GPa) = 2.49664 36.05894 19.27779
#
# Velocity S-wave (km/s) = 1.15794 4.40062 3.21763
# Velocity P-wave (km/s) = 2.42258 7.26943 5.41819
#
# Compressibility (1/GPa) = 0.13159304
#
# Stress axis : x y z
#
# Youngs Moduli (GPa) = 112.41065 93.87869 6.12996
#
# Poissons Ratio (x) = 0.28909 0.06060
# Poissons Ratio (y) = 0.34616 0.07710
# Poissons Ratio (z) = 1.11135 1.18082
#
# Static dielectric constant tensor:
#      x y z
#    x 4.141030 0.000000 0.000000 
#    y 0.000000 3.396080 0.000000 
#    z 0.000000 0.000000 2.737290 
# 
# 
# High freq. dielectric constant tensor:
#      x y z
#    x 1.744730 0.000000 0.000000 
#    y 0.000000 1.725150 0.000000 
#    z 0.000000 0.000000 1.654520 
# 
# From -- ./inp_files/7322.got.cif
#   From: 2010.03.12/outbox.cif.g09.slc.cpg/sg65_4_cif.got.tgz:7322.got - 2010.04.10 20:52:16.
