data_PCOD8267349
_publ_section_title
;
Structure prediction by ZEFSAII (Michael W. Deem and Ramdas Pophale) SiO2 
 PCOD8267349
Probable space group: C M M M
;
_chemical_formula_sum "Si O2"
_cell_formula_units_Z 104
_cell_length_a 25.209346
_cell_length_b 8.933009
_cell_length_c 27.969949
_cell_angle_alpha 90.000000
_cell_angle_beta 90.000000
_cell_angle_gamma 90.000000
_cell_volume 6298.701467
_symmetry_space_group_name_H-M "C M M M"
_symmetry_group_IT_number 65
_symmetry_cell_setting 'orthorhombic'
loop_
_space_group_symop_operation_xyz
x,y,z
-x,-y,z
x,-y,-z
-x,y,-z
-x,-y,-z
x,y,-z
-x,y,z
x,-y,z
1/2+x,1/2+y,z
1/2-x,1/2-y,z
1/2+x,1/2-y,-z
1/2-x,1/2+y,-z
1/2-x,1/2-y,-z
1/2+x,1/2+y,-z
1/2-x,1/2+y,z
1/2+x,1/2-y,z
loop_
_atom_site_type_symbol
_atom_site_label
_atom_site_fract_x
_atom_site_fract_y
_atom_site_fract_z
Si Si1 0.895089 0.825877 0.780324
Si Si2 0.194875 0.328534 0.500000
Si Si3 0.307759 0.176760 0.396445
Si Si4 0.692671 0.676964 0.144757
Si Si5 0.000000 0.330197 0.330636
Si Si6 0.692865 0.824582 0.948140
Si Si7 0.893127 0.823380 0.670308
Si Si8 0.500000 0.167575 0.783025
O O1 0.843811 0.777938 0.810552
O O2 0.884665 0.779551 0.725632
O O3 0.946912 0.746296 0.802218
O O4 0.906747 0.000000 0.784526
O O5 0.209941 0.500000 0.500000
O O6 0.250000 0.250000 0.500000
O O7 0.166058 0.290386 0.449448
O O8 0.250000 0.250000 0.392397
O O9 0.344431 0.252460 0.357424
O O10 0.303499 0.000000 0.386354
O O11 0.698901 0.500000 0.139635
O O12 0.750000 0.750000 0.153357
O O13 0.664232 0.743436 0.096637
O O14 0.052151 0.245718 0.349843
O O15 0.000000 0.324695 0.273861
O O16 0.000000 0.500000 0.349954
O O17 0.750000 0.750000 0.950919
O O18 0.698560 0.000000 0.937265
O O19 0.664192 0.799314 0.000000
O O20 0.894594 0.000000 0.662387
O O21 0.500000 0.000000 0.802686
#
# Coordination Sequence:
#
# PCOD8267349 Si02
#       8
#    16   8  16  16   8  16  16   8
#     4   9  19  33  47  65  93 125 154 185 225 270
#     4   8  16  30  48  67  90 119 152 190 230 268
#     4  10  19  32  49  71  96 123 155 191 230 274
#     4  10  19  30  44  64  91 124 155 184 222 267
#     4   9  17  31  49  70  92 118 154 193 230 269
#     4   9  16  26  41  61  85 114 148 186 225 265
#     4  10  19  32  49  70  95 124 155 189 229 273
#     4   9  17  29  49  71  87 111 153 197 229 260
#
# _framework density 16.511339
#
# number of rings (size 3 to 8) (size 9 to 14) (size 15 to 20)
#    0.000    2.615    0.000    3.231    0.000    5.846 
#    0.000    1.538    0.000    0.462    0.000    3.769 
#    0.000    4.308    0.000    0.000    0.000    0.000 
#
# Total GULP energy -644332.714323 kJ/mol
# GULP energy per Si atom -12391.013737 kJ/mol
# Density = 1.647376 g / cm^3
# Si number density = 16.511339 Si / 1000 Ang^3
#
#
#
# Elastic Constant Matrix: (Units=GPa)
#
#
# Indices 1 2 3 4 5 6 
#
# 1 97.6573 52.2785 60.3767 0.0000 0.0000 0.0000
# 2 52.2785 94.8640 53.3698 0.0000 0.0000 0.0000
# 3 60.3767 53.3698 100.0680 0.0000 0.0000 0.0000
# 4 0.0000 0.0000 0.0000 23.6639 0.0000 0.0000
# 5 0.0000 0.0000 0.0000 0.0000 0.8755 0.0000
# 6 0.0000 0.0000 0.0000 0.0000 0.0000 29.1338
#
#
#
# Elastic Compliance Matrix: (Units=1/GPa)
#
#
# Indices 1 2 3 4 5 6 
#
# 1 0.018130 -0.005482 -0.008015 0.000000 0.000000 0.000000
# 2 -0.005482 0.016718 -0.005609 0.000000 0.000000 0.000000
# 3 -0.008015 -0.005609 0.017820 0.000000 0.000000 0.000000
# 4 0.000000 0.000000 0.000000 0.042258 0.000000 0.000000
# 5 0.000000 0.000000 0.000000 0.000000 1.142185 0.000000
# 6 0.000000 0.000000 0.000000 0.000000 0.000000 0.034324
#
#
# Mechanical properties :
#
#
# Convention : Reuss Voigt Hill
#
# Bulk Modulus (GPa) = 69.17148 69.40437 69.28793
# Shear Modulus (GPa) = 3.80383 19.17227 11.48805
#
# Velocity S-wave (km/s) = 1.51946 3.41127 2.64060
# Velocity P-wave (km/s) = 6.71287 7.59219 7.16603
#
# Compressibility (1/GPa) = 0.01445682
#
# Stress axis : x y z
#
# Youngs Moduli (GPa) = 55.15774 59.81644 56.11537
#
# Poissons Ratio (x) = 0.32791 0.44977
# Poissons Ratio (y) = 0.30237 0.31473
# Poissons Ratio (z) = 0.44209 0.33549
#
# Static dielectric constant tensor:
#      x y z
#    x 2.927080 0.000000 0.000000 
#    y 0.000000 3.275480 0.000000 
#    z 0.000000 0.000000 3.655190 
# 
# 
# High freq. dielectric constant tensor:
#      x y z
#    x 1.602810 0.000000 0.000000 
#    y 0.000000 1.653800 0.000000 
#    z 0.000000 0.000000 1.630360 
# 
# From -- ./inp_files/71948.got.cif
#   From: 2010.03.12/outbox.cif.g09.slc.cpg/sg65_36_cif.got.tgz:71948.got - 2010.04.10 20:52:16.
