data_PCOD8267927
_publ_section_title
;
Structure prediction by ZEFSAII (Michael W. Deem and Ramdas Pophale) SiO2 
 PCOD8267927
Probable space group: C M M M
;
_chemical_formula_sum "Si O2"
_cell_formula_units_Z 104
_cell_length_a 29.568526
_cell_length_b 22.338946
_cell_length_c 8.778032
_cell_angle_alpha 90.000000
_cell_angle_beta 90.000000
_cell_angle_gamma 90.000000
_cell_volume 5798.150893
_symmetry_space_group_name_H-M "C M M M"
_symmetry_group_IT_number 65
_symmetry_cell_setting 'orthorhombic'
loop_
_space_group_symop_operation_xyz
x,y,z
-x,-y,z
x,-y,-z
-x,y,-z
-x,-y,-z
x,y,-z
-x,y,z
x,-y,z
1/2+x,1/2+y,z
1/2-x,1/2-y,z
1/2+x,1/2-y,-z
1/2-x,1/2+y,-z
1/2-x,1/2-y,-z
1/2+x,1/2+y,-z
1/2-x,1/2+y,z
1/2+x,1/2-y,z
loop_
_atom_site_type_symbol
_atom_site_label
_atom_site_fract_x
_atom_site_fract_y
_atom_site_fract_z
Si Si1 0.621109 0.429472 0.175785
Si Si2 0.448054 0.656432 0.323843
Si Si3 0.552334 0.219104 0.177470
Si Si4 0.695269 0.931223 0.179699
Si Si5 0.606512 0.886565 0.320097
Si Si6 0.787404 0.071127 0.328344
Si Si7 0.449457 0.000000 0.681105
O O1 0.616927 0.500000 0.201840
O O2 0.581282 0.399722 0.271653
O O3 0.669291 0.405077 0.235693
O O4 0.616382 0.411950 0.000000
O O5 0.439018 0.670999 0.500000
O O6 0.500000 0.639045 0.294686
O O7 0.434221 0.713978 0.224905
O O8 0.500000 0.206591 0.217126
O O9 0.582844 0.174854 0.275361
O O10 0.562331 0.209967 0.000000
O O11 0.655379 0.889916 0.242724
O O12 0.741835 0.905558 0.248503
O O13 0.687070 0.000000 0.230888
O O14 0.698108 0.925745 0.000000
O O15 0.612765 0.890064 0.500000
O O16 0.576116 0.941330 0.258163
O O17 0.789581 0.096126 0.500000
O O18 0.787394 0.000000 0.326475
O O19 0.500000 0.000000 0.749638
O O20 0.451303 0.000000 0.500000
#
# Coordination Sequence:
#
# PCOD8267927 Si02
#       7
#    16  16  16  16  16  16   8
#     4  10  20  34  54  82 114 144 173 208 258 312
#     4  10  21  37  57  80 106 139 179 219 257 303
#     4  10  21  37  55  75 101 136 178 221 266 316
#     4  10  19  31  48  72 105 139 175 219 269 318
#     4  11  20  32  51  74 103 137 178 223 268 317
#     4   9  17  30  50  75 104 138 176 215 257 308
#     4   9  18  30  45  69 101 135 171 217 270 317
#
# _framework density 17.936753
#
# number of rings (size 3 to 8) (size 9 to 14) (size 15 to 20)
#    0.000    2.077    0.769    3.231    0.000    6.154 
#    0.000    1.538    0.000    2.769    0.000    6.462 
#    0.000    0.000    0.000    0.000    0.000    0.000 
#
# Total GULP energy -644999.058484 kJ/mol
# GULP energy per Si atom -12403.828048 kJ/mol
# Density = 1.789593 g / cm^3
# Si number density = 17.936753 Si / 1000 Ang^3
#
#
#
# Elastic Constant Matrix: (Units=GPa)
#
#
# Indices 1 2 3 4 5 6 
#
# 1 122.0830 42.9507 36.8895 0.0000 0.0000 0.0000
# 2 42.9507 48.6546 19.4098 0.0000 0.0000 0.0000
# 3 36.8895 19.4098 65.6727 0.0000 0.0000 0.0000
# 4 0.0000 0.0000 0.0000 27.5338 0.0000 0.0000
# 5 0.0000 0.0000 0.0000 0.0000 34.4047 0.0000
# 6 0.0000 0.0000 0.0000 0.0000 0.0000 17.1149
#
#
#
# Elastic Compliance Matrix: (Units=1/GPa)
#
#
# Indices 1 2 3 4 5 6 
#
# 1 0.012915 -0.009644 -0.004404 0.000000 0.000000 0.000000
# 2 -0.009644 0.030502 -0.003598 0.000000 0.000000 0.000000
# 3 -0.004404 -0.003598 0.018764 0.000000 0.000000 0.000000
# 4 0.000000 0.000000 0.000000 0.036319 0.000000 0.000000
# 5 0.000000 0.000000 0.000000 0.000000 0.029066 0.000000
# 6 0.000000 0.000000 0.000000 0.000000 0.000000 0.058429
#
#
# Mechanical properties :
#
#
# Convention : Reuss Voigt Hill
#
# Bulk Modulus (GPa) = 37.18979 48.32337 42.75658
# Shear Modulus (GPa) = 21.71566 24.95470 23.33518
#
# Velocity S-wave (km/s) = 3.48326 3.73401 3.61081
# Velocity P-wave (km/s) = 6.07917 6.75203 6.42441
#
# Compressibility (1/GPa) = 0.02688910
#
# Stress axis : x y z
#
# Youngs Moduli (GPa) = 77.43058 32.78519 53.29274
#
# Poissons Ratio (x) = 0.31617 0.23471
# Poissons Ratio (y) = 0.74673 0.19174
# Poissons Ratio (z) = 0.34102 0.11795
#
# Static dielectric constant tensor:
#      x y z
#    x 3.438100 0.000000 0.000000 
#    y 0.000000 3.011210 0.000000 
#    z 0.000000 0.000000 3.354050 
# 
# 
# High freq. dielectric constant tensor:
#      x y z
#    x 1.702830 0.000000 0.000000 
#    y 0.000000 1.660090 0.000000 
#    z 0.000000 0.000000 1.705270 
# 
# From -- ./inp_files/14747.got.cif
#   From: 2010.03.12/outbox.cif.g09.slc.cpg/sg65_8_cif.got.tgz:14747.got - 2010.04.10 20:52:16.
