data_PCOD8267887
_publ_section_title
;
Structure prediction by ZEFSAII (Michael W. Deem and Ramdas Pophale) SiO2 
 PCOD8267887
Probable space group: C M M M
;
_chemical_formula_sum "Si O2"
_cell_formula_units_Z 112
_cell_length_a 17.635258
_cell_length_b 16.077633
_cell_length_c 22.403796
_cell_angle_alpha 90.000000
_cell_angle_beta 90.000000
_cell_angle_gamma 90.000000
_cell_volume 6352.220106
_symmetry_space_group_name_H-M "C M M M"
_symmetry_group_IT_number 65
_symmetry_cell_setting 'orthorhombic'
loop_
_space_group_symop_operation_xyz
x,y,z
-x,-y,z
x,-y,-z
-x,y,-z
-x,-y,-z
x,y,-z
-x,y,z
x,-y,z
1/2+x,1/2+y,z
1/2-x,1/2-y,z
1/2+x,1/2-y,-z
1/2-x,1/2+y,-z
1/2-x,1/2-y,-z
1/2+x,1/2+y,-z
1/2-x,1/2+y,z
1/2+x,1/2-y,z
loop_
_atom_site_type_symbol
_atom_site_label
_atom_site_fract_x
_atom_site_fract_y
_atom_site_fract_z
Si Si1 0.914366 0.226783 0.068015
Si Si2 0.857374 0.593264 0.614509
Si Si3 0.792319 0.906366 0.934165
Si Si4 0.587103 0.095801 0.251813
Si Si5 0.807333 0.906871 0.430518
Si Si6 0.811577 0.321084 0.845736
Si Si7 0.082756 0.763003 0.569000
O O1 0.869329 0.142197 0.078152
O O2 0.878831 0.295137 0.110618
O O3 0.000000 0.210186 0.087758
O O4 0.909222 0.258623 0.000000
O O5 0.883572 0.500000 0.592818
O O6 0.886396 0.608525 0.680843
O O7 0.766857 0.598421 0.610466
O O8 0.890125 0.667848 0.574914
O O9 0.731373 0.892708 0.882210
O O10 0.818585 0.000000 0.933161
O O11 0.759106 0.881415 0.000000
O O12 0.500000 0.127794 0.244369
O O13 0.647986 0.146901 0.213595
O O14 0.591426 0.000000 0.232517
O O15 0.785976 0.890342 0.500000
O O16 0.862303 0.834694 0.404393
O O17 0.843360 0.000000 0.424020
O O18 0.750000 0.250000 0.829690
O O19 0.075972 0.783523 0.500000
O O20 0.000000 0.772425 0.599469
#
# Coordination Sequence:
#
# PCOD8267887 Si02
#       7
#    16  16  16  16  16  16  16
#     4   9  17  29  46  68  94 123 153 188 230 274
#     4  10  20  34  51  71  96 126 162 203 244 285
#     4   9  17  29  46  68  94 123 153 187 227 273
#     4  10  21  36  52  69  92 123 158 197 238 280
#     4   9  18  33  53  75  99 129 163 198 235 278
#     4  10  19  31  48  70  94 120 154 193 233 278
#     4  10  20  32  49  75 104 132 160 193 236 285
#
# _framework density 17.631630999999999
#
# number of rings (size 3 to 8) (size 9 to 14) (size 15 to 20)
#    0.000    2.429    0.000    2.571    0.000    6.286 
#    0.000    3.571    0.000    0.000    0.000    6.000 
#    0.000    6.857    0.000    0.000    0.000    0.000 
#
# Total GULP energy -693970.917092 kJ/mol
# GULP energy per Si atom -12392.337805 kJ/mol
# Density = 1.759150 g / cm^3
# Si number density = 17.631631 Si / 1000 Ang^3
#
#
#
# Elastic Constant Matrix: (Units=GPa)
#
#
# Indices 1 2 3 4 5 6 
#
# 1 114.7399 46.3781 32.8971 0.0000 0.0000 0.0000
# 2 46.3781 87.6096 19.0182 0.0000 0.0000 0.0000
# 3 32.8971 19.0182 37.2239 0.0000 0.0000 0.0000
# 4 0.0000 0.0000 0.0000 24.0958 0.0000 0.0000
# 5 0.0000 0.0000 0.0000 0.0000 21.0864 0.0000
# 6 0.0000 0.0000 0.0000 0.0000 0.0000 19.6734
#
#
#
# Elastic Compliance Matrix: (Units=1/GPa)
#
#
# Indices 1 2 3 4 5 6 
#
# 1 0.013433 -0.005100 -0.009266 0.000000 0.000000 0.000000
# 2 -0.005100 0.014774 -0.003041 0.000000 0.000000 0.000000
# 3 -0.009266 -0.003041 0.036608 0.000000 0.000000 0.000000
# 4 0.000000 0.000000 0.000000 0.041501 0.000000 0.000000
# 5 0.000000 0.000000 0.000000 0.000000 0.047424 0.000000
# 6 0.000000 0.000000 0.000000 0.000000 0.000000 0.050830
#
#
# Mechanical properties :
#
#
# Convention : Reuss Voigt Hill
#
# Bulk Modulus (GPa) = 33.33311 48.46224 40.89768
# Shear Modulus (GPa) = 20.04925 22.38976 21.21950
#
# Velocity S-wave (km/s) = 3.37578 3.56738 3.47290
# Velocity P-wave (km/s) = 5.84301 6.67187 6.27115
#
# Compressibility (1/GPa) = 0.03000020
#
# Stress axis : x y z
#
# Youngs Moduli (GPa) = 74.44083 67.68573 27.31662
#
# Poissons Ratio (x) = 0.34518 0.25313
# Poissons Ratio (y) = 0.37963 0.08308
# Poissons Ratio (z) = 0.68980 0.20586
#
# Static dielectric constant tensor:
#      x y z
#    x 3.434310 0.000000 0.000000 
#    y 0.000000 3.358100 0.000000 
#    z 0.000000 0.000000 3.052810 
# 
# 
# High freq. dielectric constant tensor:
#      x y z
#    x 1.686530 0.000000 0.000000 
#    y 0.000000 1.685010 0.000000 
#    z 0.000000 0.000000 1.659530 
# 
# From -- ./inp_files/69949.got.cif
#   From: 2010.03.12/outbox.cif.g09.slc.cpg/sg65_35_cif.got.tgz:69949.got - 2010.04.10 20:52:16.
