data_PCOD8267189
_publ_section_title
;
Structure prediction by ZEFSAII (Michael W. Deem and Ramdas Pophale) SiO2 
 PCOD8267189
Probable space group: C M M M
;
_chemical_formula_sum "Si O2"
_cell_formula_units_Z 96
_cell_length_a 29.659626
_cell_length_b 14.146825
_cell_length_c 12.943082
_cell_angle_alpha 90.000000
_cell_angle_beta 90.000000
_cell_angle_gamma 90.000000
_cell_volume 5430.781804
_symmetry_space_group_name_H-M "C M M M"
_symmetry_group_IT_number 65
_symmetry_cell_setting 'orthorhombic'
loop_
_space_group_symop_operation_xyz
x,y,z
-x,-y,z
x,-y,-z
-x,y,-z
-x,-y,-z
x,y,-z
-x,y,z
x,-y,z
1/2+x,1/2+y,z
1/2-x,1/2-y,z
1/2+x,1/2-y,-z
1/2-x,1/2+y,-z
1/2-x,1/2-y,-z
1/2+x,1/2+y,-z
1/2-x,1/2+y,z
1/2+x,1/2-y,z
loop_
_atom_site_type_symbol
_atom_site_label
_atom_site_fract_x
_atom_site_fract_y
_atom_site_fract_z
Si Si1 0.051891 0.106673 0.120767
Si Si2 0.129627 0.389246 0.383959
Si Si3 0.295039 0.189030 0.885278
Si Si4 0.320264 0.390523 0.619816
Si Si5 0.877675 0.231975 0.235341
Si Si6 0.725041 0.894117 0.680068
O O1 0.079822 0.185869 0.180246
O O2 0.000000 0.120367 0.151777
O O3 0.067540 0.000000 0.149883
O O4 0.058902 0.123282 0.000000
O O5 0.110800 0.372167 0.500000
O O6 0.125856 0.500000 0.353761
O O7 0.104639 0.326432 0.296536
O O8 0.181838 0.352286 0.380640
O O9 0.250000 0.250000 0.888774
O O10 0.338675 0.248592 0.848993
O O11 0.285582 0.106480 0.802743
O O12 0.304724 0.147708 0.000000
O O13 0.329254 0.376022 0.500000
O O14 0.320592 0.500000 0.652188
O O15 0.360346 0.340792 0.679463
O O16 0.272048 0.342085 0.652055
O O17 0.731013 0.000000 0.640228
#
# Coordination Sequence:
#
# PCOD8267189 Si02
#       6
#    16  16  16  16  16  16
#     4   9  19  37  60  84 107 130 161 205 256 309
#     4   9  18  31  48  71 100 136 178 217 252 294
#     4  10  19  30  41  62  97 131 164 203 245 296
#     4  10  19  29  43  67  98 129 167 213 255 299
#     4  11  19  31  52  75  98 135 170 210 255 310
#     4   9  17  30  44  61  90 132 176 214 251 293
#
# _framework density 17.677012999999999
#
# number of rings (size 3 to 8) (size 9 to 14) (size 15 to 20)
#    0.000    2.333    1.667    2.500    0.000    2.333 
#    0.000    2.500    0.000    4.000    0.000    8.167 
#    0.000    0.000    0.000    0.000    0.000    0.000 
#
# Total GULP energy -594863.123210 kJ/mol
# GULP energy per Si atom -12392.981734 kJ/mol
# Density = 1.763678 g / cm^3
# Si number density = 17.677013 Si / 1000 Ang^3
#
#
#
# Elastic Constant Matrix: (Units=GPa)
#
#
# Indices 1 2 3 4 5 6 
#
# 1 66.8851 37.5411 31.2505 0.0000 0.0000 0.0000
# 2 37.5411 60.6772 35.3366 0.0000 0.0000 0.0000
# 3 31.2505 35.3366 89.8065 0.0000 0.0000 0.0000
# 4 0.0000 0.0000 0.0000 30.4231 0.0000 0.0000
# 5 0.0000 0.0000 0.0000 0.0000 11.6445 0.0000
# 6 0.0000 0.0000 0.0000 0.0000 0.0000 23.5288
#
#
#
# Elastic Compliance Matrix: (Units=1/GPa)
#
#
# Indices 1 2 3 4 5 6 
#
# 1 0.023593 -0.012734 -0.003199 0.000000 0.000000 0.000000
# 2 -0.012734 0.028253 -0.006686 0.000000 0.000000 0.000000
# 3 -0.003199 -0.006686 0.014879 0.000000 0.000000 0.000000
# 4 0.000000 0.000000 0.000000 0.032870 0.000000 0.000000
# 5 0.000000 0.000000 0.000000 0.000000 0.085877 0.000000
# 6 0.000000 0.000000 0.000000 0.000000 0.000000 0.042501
#
#
# Mechanical properties :
#
#
# Convention : Reuss Voigt Hill
#
# Bulk Modulus (GPa) = 46.53982 47.29169 46.91576
# Shear Modulus (GPa) = 17.83339 20.66865 19.25102
#
# Velocity S-wave (km/s) = 3.17968 3.42312 3.30364
# Velocity P-wave (km/s) = 6.31391 6.51421 6.41485
#
# Compressibility (1/GPa) = 0.02148698
#
# Stress axis : x y z
#
# Youngs Moduli (GPa) = 42.38539 35.39498 67.20886
#
# Poissons Ratio (x) = 0.45071 0.21503
# Poissons Ratio (y) = 0.53973 0.44933
# Poissons Ratio (z) = 0.13561 0.23664
#
# Static dielectric constant tensor:
#      x y z
#    x 2.946830 0.000000 0.000000 
#    y 0.000000 3.293840 0.000000 
#    z 0.000000 0.000000 3.463700 
# 
# 
# High freq. dielectric constant tensor:
#      x y z
#    x 1.641070 0.000000 0.000000 
#    y 0.000000 1.681540 0.000000 
#    z 0.000000 0.000000 1.690050 
# 
# From -- ./inp_files/27134.got.cif
#   From: 2010.03.12/outbox.cif.g09.slc.cpg/sg65_14_cif.got.tgz:27134.got - 2010.04.10 20:52:16.
