data_PCOD8267709
_publ_section_title
;
Structure prediction by ZEFSAII (Michael W. Deem and Ramdas Pophale) SiO2 
 PCOD8267709
Probable space group: C M M M
;
_chemical_formula_sum "Si O2"
_cell_formula_units_Z 80
_cell_length_a 8.815829
_cell_length_b 25.528818
_cell_length_c 22.012257
_cell_angle_alpha 90.000000
_cell_angle_beta 90.000000
_cell_angle_gamma 90.000000
_cell_volume 4954.027801
_symmetry_space_group_name_H-M "C M M M"
_symmetry_group_IT_number 65
_symmetry_cell_setting 'orthorhombic'
loop_
_space_group_symop_operation_xyz
x,y,z
-x,-y,z
x,-y,-z
-x,y,-z
-x,-y,-z
x,y,-z
-x,y,z
x,-y,z
1/2+x,1/2+y,z
1/2-x,1/2-y,z
1/2+x,1/2-y,-z
1/2-x,1/2+y,-z
1/2-x,1/2-y,-z
1/2+x,1/2+y,-z
1/2-x,1/2+y,z
1/2+x,1/2-y,z
loop_
_atom_site_type_symbol
_atom_site_label
_atom_site_fract_x
_atom_site_fract_y
_atom_site_fract_z
Si Si1 0.671091 0.437478 0.000000
Si Si2 0.672800 0.500000 0.428118
Si Si3 0.676945 0.305450 0.570243
Si Si4 0.670346 0.937735 0.878985
Si Si5 0.320653 0.097794 0.635930
Si Si6 0.675852 0.561550 0.755701
O O1 0.754593 0.415216 0.059707
O O2 0.673439 0.500000 0.000000
O O3 0.500000 0.416327 0.000000
O O4 0.500000 0.500000 0.404124
O O5 0.679248 0.500000 0.500000
O O6 0.753761 0.448549 0.404312
O O7 0.703587 0.320001 0.500000
O O8 0.500000 0.304099 0.586238
O O9 0.750000 0.250000 0.586182
O O10 0.760065 0.347569 0.611427
O O11 0.500000 0.915709 0.873481
O O12 0.767601 0.918931 0.821336
O O13 0.669072 0.000000 0.881902
O O14 0.500000 0.096066 0.631136
O O15 0.270929 0.092480 0.705594
O O16 0.500000 0.575430 0.749126
O O17 0.705745 0.500000 0.746790
#
# Coordination Sequence:
#
# PCOD8267709 Si02
#       6
#     8   8  16  16  16  16
#     4   9  15  23  35  53  77 109 152 193 232 273
#     4  11  23  37  51  69  95 126 159 196 239 285
#     4  10  21  38  58  77  97 122 155 196 242 291
#     4   9  16  25  38  56  81 112 151 195 236 274
#     4  12  23  34  51  73  98 126 159 197 240 289
#     4  10  19  31  46  63  89 124 160 195 236 285
#
# _framework density 16.148475000000001
#
# number of rings (size 3 to 8) (size 9 to 14) (size 15 to 20)
#    0.000    1.800    1.000    4.800    0.000    8.800 
#    0.000    0.000    0.000    0.000    0.000    0.000 
#    0.000    0.000    0.000    0.900    0.000   12.700 
#
# Total GULP energy -496118.038880 kJ/mol
# GULP energy per Si atom -12402.950972 kJ/mol
# Density = 1.611172 g / cm^3
# Si number density = 16.148475 Si / 1000 Ang^3
#
#
#
# Elastic Constant Matrix: (Units=GPa)
#
#
# Indices 1 2 3 4 5 6 
#
# 1 149.9488 48.3596 66.9121 0.0000 0.0000 0.0000
# 2 48.3596 62.3071 47.5433 0.0000 0.0000 0.0000
# 3 66.9121 47.5433 120.0273 0.0000 0.0000 0.0000
# 4 0.0000 0.0000 0.0000 9.6402 0.0000 0.0000
# 5 0.0000 0.0000 0.0000 0.0000 32.1563 0.0000
# 6 0.0000 0.0000 0.0000 0.0000 0.0000 21.8760
#
#
#
# Elastic Compliance Matrix: (Units=1/GPa)
#
#
# Indices 1 2 3 4 5 6 
#
# 1 0.009837 -0.004945 -0.003525 0.000000 0.000000 0.000000
# 2 -0.004945 0.025488 -0.007339 0.000000 0.000000 0.000000
# 3 -0.003525 -0.007339 0.013204 0.000000 0.000000 0.000000
# 4 0.000000 0.000000 0.000000 0.103733 0.000000 0.000000
# 5 0.000000 0.000000 0.000000 0.000000 0.031098 0.000000
# 6 0.000000 0.000000 0.000000 0.000000 0.000000 0.045712
#
#
# Mechanical properties :
#
#
# Convention : Reuss Voigt Hill
#
# Bulk Modulus (GPa) = 59.13716 73.10144 66.11930
# Shear Modulus (GPa) = 18.77401 24.03238 21.40319
#
# Velocity S-wave (km/s) = 3.41337 3.86192 3.64455
# Velocity P-wave (km/s) = 7.22739 8.07790 7.66445
#
# Compressibility (1/GPa) = 0.01690984
#
# Stress axis : x y z
#
# Youngs Moduli (GPa) = 101.66010 39.23469 75.73733
#
# Poissons Ratio (x) = 0.19402 0.26697
# Poissons Ratio (y) = 0.50271 0.55584
# Poissons Ratio (z) = 0.35835 0.28794
#
# Static dielectric constant tensor:
#      x y z
#    x 3.302950 0.000000 0.000000 
#    y 0.000000 2.670910 0.000000 
#    z 0.000000 0.000000 3.226050 
# 
# 
# High freq. dielectric constant tensor:
#      x y z
#    x 1.645760 0.000000 0.000000 
#    y 0.000000 1.560610 0.000000 
#    z 0.000000 0.000000 1.632020 
# 
# From -- ./inp_files/59634.got.cif
#   From: 2010.03.12/outbox.cif.g09.slc.cpg/sg65_30_cif.got.tgz:59634.got - 2010.04.10 20:52:16.
