data_PCOD8267124
_publ_section_title
;
Structure prediction by ZEFSAII (Michael W. Deem and Ramdas Pophale) SiO2 
 PCOD8267124
Probable space group: C M M M
;
_chemical_formula_sum "Si O2"
_cell_formula_units_Z 80
_cell_length_a 8.891364
_cell_length_b 33.718793
_cell_length_c 18.301746
_cell_angle_alpha 90.000000
_cell_angle_beta 90.000000
_cell_angle_gamma 90.000000
_cell_volume 5486.974400
_symmetry_space_group_name_H-M "C M M M"
_symmetry_group_IT_number 65
_symmetry_cell_setting 'orthorhombic'
loop_
_space_group_symop_operation_xyz
x,y,z
-x,-y,z
x,-y,-z
-x,y,-z
-x,-y,-z
x,y,-z
-x,y,z
x,-y,z
1/2+x,1/2+y,z
1/2-x,1/2-y,z
1/2+x,1/2-y,-z
1/2-x,1/2+y,-z
1/2-x,1/2-y,-z
1/2+x,1/2+y,-z
1/2-x,1/2+y,z
1/2+x,1/2-y,z
loop_
_atom_site_type_symbol
_atom_site_label
_atom_site_fract_x
_atom_site_fract_y
_atom_site_fract_z
Si Si1 0.669459 0.500000 0.586794
Si Si2 0.823825 0.292827 0.920781
Si Si3 0.322977 0.707508 0.500000
Si Si4 0.676638 0.343286 0.637595
Si Si5 0.322781 0.079832 0.584025
Si Si6 0.677470 0.293079 0.778332
O O1 0.500000 0.500000 0.617097
O O2 0.673249 0.500000 0.500000
O O3 0.753563 0.539165 0.615478
O O4 0.750000 0.250000 0.924973
O O5 0.742998 0.314217 0.852132
O O6 0.000000 0.288760 0.904452
O O7 0.797383 0.314234 0.000000
O O8 0.500000 0.713244 0.500000
O O9 0.250000 0.750000 0.500000
O O10 0.267548 0.684070 0.571195
O O11 0.500000 0.351615 0.632083
O O12 0.762313 0.384883 0.634412
O O13 0.722045 0.321658 0.712172
O O14 0.272606 0.087087 0.500000
O O15 0.500000 0.076827 0.590792
O O16 0.500000 0.287774 0.784899
O O17 0.750000 0.250000 0.765264
#
# Coordination Sequence:
#
# PCOD8267124 Si02
#       6
#     8  16   8  16  16  16
#     4   9  17  29  47  65  83 107 130 161 208 259
#     4   9  16  26  41  59  78 102 132 167 209 255
#     4  10  20  32  44  55  74 105 144 184 215 246
#     4  10  20  32  44  58  80 111 143 176 214 254
#     4  10  19  30  45  65  84 104 135 175 212 250
#     4  10  19  29  42  60  81 108 142 178 215 253
#
# _framework density 14.579984
#
# number of rings (size 3 to 8) (size 9 to 14) (size 15 to 20)
#    0.000    2.300    1.000    3.900    0.000    5.600 
#    0.000    0.000    0.000    0.000    0.000    0.000 
#    0.000    0.000    0.000    0.900    0.000   16.800 
#
# Total GULP energy -495846.121557 kJ/mol
# GULP energy per Si atom -12396.153039 kJ/mol
# Density = 1.454680 g / cm^3
# Si number density = 14.579984 Si / 1000 Ang^3
#
#
#
# Elastic Constant Matrix: (Units=GPa)
#
#
# Indices 1 2 3 4 5 6 
#
# 1 72.5005 43.5392 45.3802 0.0000 0.0000 0.0000
# 2 43.5392 100.4396 49.5214 0.0000 0.0000 0.0000
# 3 45.3802 49.5214 117.3126 0.0000 0.0000 0.0000
# 4 0.0000 0.0000 0.0000 4.7249 0.0000 0.0000
# 5 0.0000 0.0000 0.0000 0.0000 21.9743 0.0000
# 6 0.0000 0.0000 0.0000 0.0000 0.0000 25.6965
#
#
#
# Elastic Compliance Matrix: (Units=1/GPa)
#
#
# Indices 1 2 3 4 5 6 
#
# 1 0.021065 -0.006458 -0.005423 0.000000 0.000000 0.000000
# 2 -0.006458 0.014553 -0.003645 0.000000 0.000000 0.000000
# 3 -0.005423 -0.003645 0.012161 0.000000 0.000000 0.000000
# 4 0.000000 0.000000 0.000000 0.211645 0.000000 0.000000
# 5 0.000000 0.000000 0.000000 0.000000 0.045508 0.000000
# 6 0.000000 0.000000 0.000000 0.000000 0.000000 0.038916
#
#
# Mechanical properties :
#
#
# Convention : Reuss Voigt Hill
#
# Bulk Modulus (GPa) = 59.78184 63.01493 61.39839
# Shear Modulus (GPa) = 13.14146 20.59993 16.87070
#
# Velocity S-wave (km/s) = 3.00548 3.76292 3.40533
# Velocity P-wave (km/s) = 7.28942 7.88628 7.59372
#
# Compressibility (1/GPa) = 0.01672749
#
# Stress axis : x y z
#
# Youngs Moduli (GPa) = 47.47103 68.71497 82.23281
#
# Poissons Ratio (x) = 0.44376 0.44592
# Poissons Ratio (y) = 0.30657 0.29975
# Poissons Ratio (z) = 0.25742 0.25047
#
# Static dielectric constant tensor:
#      x y z
#    x 2.921590 0.000000 0.000000 
#    y 0.000000 2.651310 0.000000 
#    z 0.000000 0.000000 3.231870 
# 
# 
# High freq. dielectric constant tensor:
#      x y z
#    x 1.573060 0.000000 0.000000 
#    y 0.000000 1.524290 0.000000 
#    z 0.000000 0.000000 1.542130 
# 
# From -- ./inp_files/50225.got.cif
#   From: 2010.03.12/outbox.cif.g09.slc.cpg/sg65_26_cif.got.tgz:50225.got - 2010.04.10 20:52:16.
