data_PCOD8267660
_publ_section_title
;
Structure prediction by ZEFSAII (Michael W. Deem and Ramdas Pophale) SiO2 
 PCOD8267660
Probable space group: C M M M
;
_chemical_formula_sum "Si O2"
_cell_formula_units_Z 72
_cell_length_a 9.111606
_cell_length_b 30.875883
_cell_length_c 14.331788
_cell_angle_alpha 90.000000
_cell_angle_beta 90.000000
_cell_angle_gamma 90.000000
_cell_volume 4031.945878
_symmetry_space_group_name_H-M "C M M M"
_symmetry_group_IT_number 65
_symmetry_cell_setting 'orthorhombic'
loop_
_space_group_symop_operation_xyz
x,y,z
-x,-y,z
x,-y,-z
-x,y,-z
-x,-y,-z
x,y,-z
-x,y,z
x,-y,z
1/2+x,1/2+y,z
1/2-x,1/2-y,z
1/2+x,1/2-y,-z
1/2-x,1/2+y,-z
1/2-x,1/2-y,-z
1/2+x,1/2+y,-z
1/2-x,1/2+y,z
1/2+x,1/2-y,z
loop_
_atom_site_type_symbol
_atom_site_label
_atom_site_fract_x
_atom_site_fract_y
_atom_site_fract_z
Si Si1 0.674223 0.047332 0.104938
Si Si2 0.164350 0.000000 0.610925
Si Si3 0.171956 0.205202 0.893307
Si Si4 0.330668 0.084612 0.395383
Si Si5 0.170712 0.630487 0.214401
O O1 0.500000 0.047208 0.106562
O O2 0.732418 0.086261 0.168647
O O3 0.731119 0.000000 0.140608
O O4 0.731478 0.055246 0.000000
O O5 0.245049 0.043274 0.645650
O O6 0.166865 0.000000 0.500000
O O7 0.000000 0.000000 0.650901
O O8 0.250000 0.250000 0.869100
O O9 0.233630 0.169886 0.822398
O O10 0.000000 0.210968 0.876376
O O11 0.205951 0.191293 0.000000
O O12 0.278818 0.097811 0.500000
O O13 0.500000 0.070870 0.395586
O O14 0.305808 0.125348 0.326095
O O15 0.000000 0.638598 0.189461
#
# Coordination Sequence:
#
# PCOD8267660 Si02
#       5
#    16   8  16  16  16
#     4   8  14  24  39  63  95 128 164 204 240 283
#     4   9  17  29  45  65  92 131 178 223 263 300
#     4  10  21  37  57  80 106 132 161 203 255 309
#     4   9  18  31  47  70 101 136 174 218 262 302
#     4  10  19  30  51  76 100 134 174 213 253 303
#
# _framework density 17.857382999999999
#
# number of rings (size 3 to 8) (size 9 to 14) (size 15 to 20)
#    0.000    2.778    0.000    2.333    1.556    4.444 
#    0.000    0.000    0.000    0.667    0.000    3.111 
#    0.000    0.000    0.000    0.000    0.000    0.000 
#
# Total GULP energy -446249.312484 kJ/mol
# GULP energy per Si atom -12395.814236 kJ/mol
# Density = 1.781674 g / cm^3
# Si number density = 17.857383 Si / 1000 Ang^3
#
#
#
# Elastic Constant Matrix: (Units=GPa)
#
#
# Indices 1 2 3 4 5 6 
#
# 1 73.3931 53.4205 37.0210 0.0000 0.0000 0.0000
# 2 53.4205 121.3572 66.4234 0.0000 0.0000 0.0000
# 3 37.0210 66.4234 88.5343 0.0000 0.0000 0.0000
# 4 0.0000 0.0000 0.0000 23.9898 0.0000 0.0000
# 5 0.0000 0.0000 0.0000 0.0000 17.4215 0.0000
# 6 0.0000 0.0000 0.0000 0.0000 0.0000 29.3600
#
#
#
# Elastic Compliance Matrix: (Units=1/GPa)
#
#
# Indices 1 2 3 4 5 6 
#
# 1 0.020527 -0.007360 -0.003061 0.000000 0.000000 0.000000
# 2 -0.007360 0.016621 -0.009392 0.000000 0.000000 0.000000
# 3 -0.003061 -0.009392 0.019622 0.000000 0.000000 0.000000
# 4 0.000000 0.000000 0.000000 0.041684 0.000000 0.000000
# 5 0.000000 0.000000 0.000000 0.000000 0.057400 0.000000
# 6 0.000000 0.000000 0.000000 0.000000 0.000000 0.034060
#
#
# Mechanical properties :
#
#
# Convention : Reuss Voigt Hill
#
# Bulk Modulus (GPa) = 58.33670 66.33496 62.33583
# Shear Modulus (GPa) = 21.25357 22.58223 21.91790
#
# Velocity S-wave (km/s) = 3.45365 3.55996 3.50721
# Velocity P-wave (km/s) = 6.97442 7.35700 7.16827
#
# Compressibility (1/GPa) = 0.01714187
#
# Stress axis : x y z
#
# Youngs Moduli (GPa) = 48.71721 60.16621 50.96412
#
# Poissons Ratio (x) = 0.44283 0.15602
# Poissons Ratio (y) = 0.35856 0.47866
# Poissons Ratio (z) = 0.14914 0.56509
#
# Static dielectric constant tensor:
#      x y z
#    x 3.102410 0.000000 0.000000 
#    y 0.000000 3.316560 0.000000 
#    z 0.000000 0.000000 3.426380 
# 
# 
# High freq. dielectric constant tensor:
#      x y z
#    x 1.666870 0.000000 0.000000 
#    y 0.000000 1.673440 0.000000 
#    z 0.000000 0.000000 1.689230 
# 
# From -- ./inp_files/36979.got.cif
#   From: 2010.03.12/outbox.cif.g09.slc.cpg/sg65_19_cif.got.tgz:36979.got - 2010.04.10 20:52:16.
