data_PCOD8267363
_publ_section_title
;
Structure prediction by ZEFSAII (Michael W. Deem and Ramdas Pophale) SiO2 
 PCOD8267363
Probable space group: C M M M
;
_chemical_formula_sum "Si O2"
_cell_formula_units_Z 80
_cell_length_a 30.126526
_cell_length_b 7.936350
_cell_length_c 23.562348
_cell_angle_alpha 90.000000
_cell_angle_beta 90.000000
_cell_angle_gamma 90.000000
_cell_volume 5633.631457
_symmetry_space_group_name_H-M "C M M M"
_symmetry_group_IT_number 65
_symmetry_cell_setting 'orthorhombic'
loop_
_space_group_symop_operation_xyz
x,y,z
-x,-y,z
x,-y,-z
-x,y,-z
-x,-y,-z
x,y,-z
-x,y,z
x,-y,z
1/2+x,1/2+y,z
1/2-x,1/2-y,z
1/2+x,1/2-y,-z
1/2-x,1/2+y,-z
1/2-x,1/2-y,-z
1/2+x,1/2+y,-z
1/2-x,1/2+y,z
1/2+x,1/2-y,z
loop_
_atom_site_type_symbol
_atom_site_label
_atom_site_fract_x
_atom_site_fract_y
_atom_site_fract_z
Si Si1 0.947385 0.000000 0.763677
Si Si2 0.053100 0.000000 0.636218
Si Si3 0.447255 0.812914 0.563917
Si Si4 0.889711 0.808573 0.935378
Si Si5 0.551257 0.811659 0.161318
Si Si6 0.203723 0.687211 0.067116
O O1 0.930616 0.169724 0.795212
O O2 0.927909 0.000000 0.700111
O O3 0.000000 0.000000 0.760511
O O4 0.071766 0.167732 0.605120
O O5 0.000000 0.000000 0.635553
O O6 0.430177 0.778230 0.500000
O O7 0.500000 0.806122 0.564528
O O8 0.431550 0.000000 0.584060
O O9 0.921499 0.695346 0.897021
O O10 0.838510 0.798680 0.914288
O O11 0.905916 0.000000 0.930892
O O12 0.893326 0.741423 0.000000
O O13 0.500000 0.775936 0.146860
O O14 0.557040 0.000000 0.187469
O O15 0.194353 0.500000 0.089143
O O16 0.250000 0.750000 0.094932
O O17 0.209151 0.693493 0.000000
#
# Coordination Sequence:
#
# PCOD8267363 Si02
#       6
#     8   8  16  16  16  16
#     4   9  18  31  41  53  71  92 125 165 199 231
#     4   9  15  22  35  49  64  89 119 149 185 229
#     4   8  13  20  30  47  70  91 112 142 182 226
#     4  10  19  30  45  62  78  97 121 151 192 242
#     4  10  20  33  46  57  73  97 125 162 204 240
#     4   9  16  26  40  59  82 102 119 140 172 222
#
# _framework density 14.200431999999999
#
# number of rings (size 3 to 8) (size 9 to 14) (size 15 to 20)
#    0.000    2.800    1.000    2.100    0.000    6.000 
#    0.000    6.000    0.000    0.000    0.000    0.000 
#    0.000    0.000    0.000    0.000    0.000    0.000 
#
# Total GULP energy -495733.663264 kJ/mol
# GULP energy per Si atom -12393.341582 kJ/mol
# Density = 1.416811 g / cm^3
# Si number density = 14.200432 Si / 1000 Ang^3
#
#
#
# Elastic Constant Matrix: (Units=GPa)
#
#
# Indices 1 2 3 4 5 6 
#
# 1 34.9490 21.0761 23.8874 0.0000 0.0000 0.0000
# 2 21.0761 110.6862 50.7319 0.0000 0.0000 0.0000
# 3 23.8874 50.7319 78.6752 0.0000 0.0000 0.0000
# 4 0.0000 0.0000 0.0000 15.1157 0.0000 0.0000
# 5 0.0000 0.0000 0.0000 0.0000 0.4379 0.0000
# 6 0.0000 0.0000 0.0000 0.0000 0.0000 15.3111
#
#
#
# Elastic Compliance Matrix: (Units=1/GPa)
#
#
# Indices 1 2 3 4 5 6 
#
# 1 0.036652 -0.002667 -0.009409 0.000000 0.000000 0.000000
# 2 -0.002667 0.013019 -0.007585 0.000000 0.000000 0.000000
# 3 -0.009409 -0.007585 0.020458 0.000000 0.000000 0.000000
# 4 0.000000 0.000000 0.000000 0.066157 0.000000 0.000000
# 5 0.000000 0.000000 0.000000 0.000000 2.283728 0.000000
# 6 0.000000 0.000000 0.000000 0.000000 0.000000 0.065312
#
#
# Mechanical properties :
#
#
# Convention : Reuss Voigt Hill
#
# Bulk Modulus (GPa) = 32.45916 46.18901 39.32408
# Shear Modulus (GPa) = 1.97245 14.74726 8.35986
#
# Velocity S-wave (km/s) = 1.17984 3.22608 2.42896
# Velocity P-wave (km/s) = 4.97630 6.81718 5.96814
#
# Compressibility (1/GPa) = 0.03080794
#
# Stress axis : x y z
#
# Youngs Moduli (GPa) = 27.28355 76.81101 48.87954
#
# Poissons Ratio (x) = 0.20482 0.45990
# Poissons Ratio (y) = 0.07275 0.37077
# Poissons Ratio (z) = 0.25671 0.58264
#
# Static dielectric constant tensor:
#      x y z
#    x 2.457720 0.000000 0.000000 
#    y 0.000000 3.058280 0.000000 
#    z 0.000000 0.000000 2.661840 
# 
# 
# High freq. dielectric constant tensor:
#      x y z
#    x 1.487390 0.000000 0.000000 
#    y 0.000000 1.565070 0.000000 
#    z 0.000000 0.000000 1.506240 
# 
# From -- ./inp_files/72029.got.cif
#   From: 2010.03.12/outbox.cif.g09.slc.cpg/sg65_37_cif.got.tgz:72029.got - 2010.04.10 20:52:16.
