data_PCOD8267467
_publ_section_title
;
Structure prediction by ZEFSAII (Michael W. Deem and Ramdas Pophale) SiO2 
 PCOD8267467
Probable space group: C M M M
;
_chemical_formula_sum "Si O2"
_cell_formula_units_Z 104
_cell_length_a 24.323718
_cell_length_b 26.911849
_cell_length_c 9.450284
_cell_angle_alpha 90.000000
_cell_angle_beta 90.000000
_cell_angle_gamma 90.000000
_cell_volume 6186.120240
_symmetry_space_group_name_H-M "C M M M"
_symmetry_group_IT_number 65
_symmetry_cell_setting 'orthorhombic'
loop_
_space_group_symop_operation_xyz
x,y,z
-x,-y,z
x,-y,-z
-x,y,-z
-x,-y,-z
x,y,-z
-x,y,z
x,-y,z
1/2+x,1/2+y,z
1/2-x,1/2-y,z
1/2+x,1/2-y,-z
1/2-x,1/2+y,-z
1/2-x,1/2-y,-z
1/2+x,1/2+y,-z
1/2-x,1/2+y,z
1/2+x,1/2-y,z
loop_
_atom_site_type_symbol
_atom_site_label
_atom_site_fract_x
_atom_site_fract_y
_atom_site_fract_z
Si Si1 0.563105 0.905518 0.163785
Si Si2 0.262545 0.644160 0.664248
Si Si3 0.843564 0.670154 0.164596
Si Si4 0.065270 0.500000 0.660245
Si Si5 0.160512 0.055903 0.662062
Si Si6 0.809573 0.774205 0.155525
Si Si7 0.060122 0.940929 0.840928
O O1 0.500000 0.892590 0.201287
O O2 0.599183 0.857006 0.199432
O O3 0.585945 0.951006 0.257898
O O4 0.568718 0.921113 0.000000
O O5 0.254603 0.657696 0.500000
O O6 0.204411 0.645849 0.742332
O O7 0.285308 0.588670 0.686012
O O8 0.307962 0.682006 0.729382
O O9 0.850622 0.729046 0.200197
O O10 0.827135 0.663722 0.000000
O O11 0.088648 0.500000 0.500000
O O12 0.000000 0.500000 0.660167
O O13 0.142480 0.055721 0.500000
O O14 0.108931 0.080156 0.744304
O O15 0.174259 0.000000 0.714689
O O16 0.750000 0.750000 0.147387
O O17 0.825845 0.795332 0.000000
O O18 0.000000 0.921805 0.788840
O O19 0.060699 0.000000 0.834135
O O20 0.070615 0.922282 0.000000
#
# Coordination Sequence:
#
# PCOD8267467 Si02
#       7
#    16  16  16   8  16  16  16
#     4   9  17  31  51  71  93 123 159 199 239 282
#     4  10  19  30  46  68  93 123 157 192 231 276
#     4   9  18  32  49  70  93 117 152 194 237 283
#     4   9  17  29  45  67  95 125 157 191 230 277
#     4   9  18  31  44  61  90 124 154 183 220 270
#     4   8  15  29  48  67  88 114 144 185 230 271
#     4   8  14  25  42  64  86 108 141 184 221 253
#
# _framework density 16.81183
#
# number of rings (size 3 to 8) (size 9 to 14) (size 15 to 20)
#    0.000    3.154    0.000    2.077    0.000    5.846 
#    1.385    1.538    0.000    0.923    0.000    2.154 
#    0.000    0.000    0.000    0.000    0.000    0.000 
#
# Total GULP energy -644461.431912 kJ/mol
# GULP energy per Si atom -12393.489075 kJ/mol
# Density = 1.677357 g / cm^3
# Si number density = 16.811830 Si / 1000 Ang^3
#
#
#
# Elastic Constant Matrix: (Units=GPa)
#
#
# Indices 1 2 3 4 5 6 
#
# 1 70.7939 42.8689 43.0208 0.0000 0.0000 0.0000
# 2 42.8689 85.4121 43.8544 0.0000 0.0000 0.0000
# 3 43.0208 43.8544 83.0984 0.0000 0.0000 0.0000
# 4 0.0000 0.0000 0.0000 22.8441 0.0000 0.0000
# 5 0.0000 0.0000 0.0000 0.0000 22.3041 0.0000
# 6 0.0000 0.0000 0.0000 0.0000 0.0000 25.8833
#
#
#
# Elastic Compliance Matrix: (Units=1/GPa)
#
#
# Indices 1 2 3 4 5 6 
#
# 1 0.023814 -0.007712 -0.008259 0.000000 0.000000 0.000000
# 2 -0.007712 0.018557 -0.005801 0.000000 0.000000 0.000000
# 3 -0.008259 -0.005801 0.019371 0.000000 0.000000 0.000000
# 4 0.000000 0.000000 0.000000 0.043775 0.000000 0.000000
# 5 0.000000 0.000000 0.000000 0.000000 0.044835 0.000000
# 6 0.000000 0.000000 0.000000 0.000000 0.000000 0.038635
#
#
# Mechanical properties :
#
#
# Convention : Reuss Voigt Hill
#
# Bulk Modulus (GPa) = 54.94837 55.42142 55.18490
# Shear Modulus (GPa) = 20.95583 21.51030 21.23306
#
# Velocity S-wave (km/s) = 3.53440 3.58085 3.55770
# Velocity P-wave (km/s) = 7.02932 7.08054 7.05497
#
# Compressibility (1/GPa) = 0.01819890
#
# Stress axis : x y z
#
# Youngs Moduli (GPa) = 41.99126 53.88789 51.62377
#
# Poissons Ratio (x) = 0.41559 0.42636
# Poissons Ratio (y) = 0.32384 0.29945
# Poissons Ratio (z) = 0.34680 0.31259
#
# Static dielectric constant tensor:
#      x y z
#    x 3.073800 0.000000 0.000000 
#    y 0.000000 3.281200 0.000000 
#    z 0.000000 0.000000 3.280070 
# 
# 
# High freq. dielectric constant tensor:
#      x y z
#    x 1.622190 0.000000 0.000000 
#    y 0.000000 1.631560 0.000000 
#    z 0.000000 0.000000 1.650320 
# 
# From -- ./inp_files/14794.got.cif
#   From: 2010.03.12/outbox.cif.g09.slc.cpg/sg65_8_cif.got.tgz:14794.got - 2010.04.10 20:52:16.
