data_PCOD8267973
_publ_section_title
;
Structure prediction by ZEFSAII (Michael W. Deem and Ramdas Pophale) SiO2 
 PCOD8267973
Probable space group: C M M M
;
_chemical_formula_sum "Si O2"
_cell_formula_units_Z 72
_cell_length_a 15.794050
_cell_length_b 17.795658
_cell_length_c 13.131434
_cell_angle_alpha 90.000000
_cell_angle_beta 90.000000
_cell_angle_gamma 90.000000
_cell_volume 3690.793224
_symmetry_space_group_name_H-M "C M M M"
_symmetry_group_IT_number 65
_symmetry_cell_setting 'orthorhombic'
loop_
_space_group_symop_operation_xyz
x,y,z
-x,-y,z
x,-y,-z
-x,y,-z
-x,-y,-z
x,y,-z
-x,y,z
x,-y,z
1/2+x,1/2+y,z
1/2-x,1/2-y,z
1/2+x,1/2-y,-z
1/2-x,1/2+y,-z
1/2-x,1/2-y,-z
1/2+x,1/2+y,-z
1/2-x,1/2+y,z
1/2+x,1/2-y,z
loop_
_atom_site_type_symbol
_atom_site_label
_atom_site_fract_x
_atom_site_fract_y
_atom_site_fract_z
Si Si1 0.000000 0.411814 0.891811
Si Si2 0.325444 0.912405 0.207752
Si Si3 0.833997 0.835839 0.117253
Si Si4 0.337077 0.770261 0.689142
Si Si5 0.000000 0.808597 0.614090
Si Si6 0.500000 0.588743 0.805827
O O1 0.085681 0.386739 0.839392
O O2 0.000000 0.500000 0.905183
O O3 0.000000 0.370604 0.000000
O O4 0.246287 0.890415 0.136729
O O5 0.328972 0.860923 0.308187
O O6 0.320915 0.000000 0.236268
O O7 0.835584 0.765482 0.195439
O O8 0.917803 0.885359 0.132696
O O9 0.830696 0.806984 0.000000
O O10 0.250000 0.750000 0.630975
O O11 0.418180 0.743954 0.627372
O O12 0.000000 0.877576 0.691666
O O13 0.000000 0.841558 0.500000
O O14 0.500000 0.500000 0.793948
#
# Coordination Sequence:
#
# PCOD8267973 Si02
#       6
#     8  16  16  16   8   8
#     4   9  17  26  37  60  92 126 169 212 244 280
#     4  10  19  31  49  71 100 139 177 215 258 300
#     4  10  20  33  50  75 110 149 181 209 248 304
#     4   9  20  36  53  77 106 137 175 216 261 311
#     4  10  21  39  61  80 100 132 173 216 269 327
#     4  10  21  36  54  80 109 135 171 218 262 305
#
# _framework density 19.508001
#
# number of rings (size 3 to 8) (size 9 to 14) (size 15 to 20)
#    0.000    2.333    0.000    2.333    0.000    8.667 
#    0.000    0.000    0.000    1.333    0.000    0.000 
#    0.000    0.000    0.000    0.000    0.000    0.000 
#
# Total GULP energy -445992.578642 kJ/mol
# GULP energy per Si atom -12388.682740 kJ/mol
# Density = 1.946360 g / cm^3
# Si number density = 19.508001 Si / 1000 Ang^3
#
#
#
# Elastic Constant Matrix: (Units=GPa)
#
#
# Indices 1 2 3 4 5 6 
#
# 1 178.2089 31.2878 18.0631 0.0000 0.0000 0.0000
# 2 31.2878 102.3617 11.9177 0.0000 0.0000 0.0000
# 3 18.0631 11.9177 61.3962 0.0000 0.0000 0.0000
# 4 0.0000 0.0000 0.0000 8.0011 0.0000 0.0000
# 5 0.0000 0.0000 0.0000 0.0000 -43.9720 0.0000
# 6 0.0000 0.0000 0.0000 0.0000 0.0000 29.0448
#
#
#
# Elastic Compliance Matrix: (Units=1/GPa)
#
#
# Indices 1 2 3 4 5 6 
#
# 1 0.006054 -0.001681 -0.001455 0.000000 0.000000 0.000000
# 2 -0.001681 0.010462 -0.001536 0.000000 0.000000 0.000000
# 3 -0.001455 -0.001536 0.017014 0.000000 0.000000 0.000000
# 4 0.000000 0.000000 0.000000 0.124982 0.000000 0.000000
# 5 0.000000 0.000000 0.000000 0.000000 -0.022742 0.000000
# 6 0.000000 0.000000 0.000000 0.000000 0.000000 0.034430
#
#
# Mechanical properties :
#
#
# Convention : Reuss Voigt Hill
#
# Bulk Modulus (GPa) = 41.34683 51.61155 46.47919
# Shear Modulus (GPa) = 26.65161 17.32802 21.98981
#
# Velocity S-wave (km/s) = 3.70021 2.98359 3.36105
# Velocity P-wave (km/s) = 6.28460 6.19541 6.24017
#
# Compressibility (1/GPa) = 0.02418565
#
# Stress axis : x y z
#
# Youngs Moduli (GPa) = 165.18026 95.58423 58.77562
#
# Poissons Ratio (x) = 0.16068 0.08551
# Poissons Ratio (y) = 0.27768 0.09029
# Poissons Ratio (z) = 0.24030 0.14684
#
# Static dielectric constant tensor:
#      x y z
#    x 4.529060 0.000000 0.000000 
#    y 0.000000 3.419460 0.000000 
#    z 0.000000 0.000000 3.143710 
# 
# 
# High freq. dielectric constant tensor:
#      x y z
#    x 1.796520 0.000000 0.000000 
#    y 0.000000 1.756530 0.000000 
#    z 0.000000 0.000000 1.712400 
# 
# From -- ./inp_files/39889.got.cif
#   From: 2010.03.12/outbox.cif.g09.slc.cpg/sg65_20_cif.got.tgz:39889.got - 2010.04.10 20:52:16.
