data_PCOD8267295
_publ_section_title
;
Structure prediction by ZEFSAII (Michael W. Deem and Ramdas Pophale) SiO2 
 PCOD8267295
Probable space group: C M M M
;
_chemical_formula_sum "Si O2"
_cell_formula_units_Z 104
_cell_length_a 23.427639
_cell_length_b 17.803762
_cell_length_c 19.525739
_cell_angle_alpha 90.000000
_cell_angle_beta 90.000000
_cell_angle_gamma 90.000000
_cell_volume 8144.187865
_symmetry_space_group_name_H-M "C M M M"
_symmetry_group_IT_number 65
_symmetry_cell_setting 'orthorhombic'
loop_
_space_group_symop_operation_xyz
x,y,z
-x,-y,z
x,-y,-z
-x,y,-z
-x,-y,-z
x,y,-z
-x,y,z
x,-y,z
1/2+x,1/2+y,z
1/2-x,1/2-y,z
1/2+x,1/2-y,-z
1/2-x,1/2+y,-z
1/2-x,1/2-y,-z
1/2+x,1/2+y,-z
1/2-x,1/2+y,z
1/2+x,1/2-y,z
loop_
_atom_site_type_symbol
_atom_site_label
_atom_site_fract_x
_atom_site_fract_y
_atom_site_fract_z
Si Si1 0.114007 0.353512 0.644468
Si Si2 0.936903 0.500000 0.580476
Si Si3 0.564019 0.089088 0.072395
Si Si4 0.067676 0.412434 0.220520
Si Si5 0.654251 0.583810 0.418684
Si Si6 0.231809 0.664485 0.422733
Si Si7 0.434434 0.293736 0.579465
O O1 0.095154 0.426224 0.603513
O O2 0.102454 0.363150 0.725075
O O3 0.180949 0.344126 0.631059
O O4 0.078408 0.282118 0.619705
O O5 0.941132 0.500000 0.500000
O O6 0.000000 0.500000 0.613864
O O7 0.500000 0.120979 0.069977
O O8 0.591262 0.114508 0.145137
O O9 0.561515 0.000000 0.074928
O O10 0.594866 0.114655 0.000000
O O11 0.080780 0.500000 0.233998
O O12 0.000000 0.397675 0.226493
O O13 0.651323 0.582165 0.500000
O O14 0.645052 0.500000 0.388672
O O15 0.715979 0.614014 0.395379
O O16 0.604352 0.638502 0.391072
O O17 0.213395 0.640005 0.500000
O O18 0.250000 0.750000 0.424539
O O19 0.420156 0.278709 0.500000
O O20 0.500000 0.317009 0.590068
#
# Coordination Sequence:
#
# PCOD8267295 Si02
#       7
#    16   8  16  16  16  16  16
#     4  12  20  28  40  55  77 106 135 161 196 233
#     4  11  22  30  36  52  79 109 138 164 187 227
#     4   7  10  18  33  50  69  99 135 161 181 213
#     4   9  16  25  35  52  81 109 131 158 191 225
#     4   9  18  31  45  59  71  87 119 167 213 243
#     4  10  19  32  45  55  70  96 133 171 202 231
#     4  10  19  30  43  56  71  95 126 161 203 247
#
# _framework density 12.769843
#
# number of rings (size 3 to 8) (size 9 to 14) (size 15 to 20)
#    0.000    2.385    2.308    4.154    1.077    1.538 
#    0.000    1.538    0.000    0.000    0.000    0.000 
#    0.000    0.615    0.000    0.000    0.000    0.769 
#
# Total GULP energy -644321.667610 kJ/mol
# GULP energy per Si atom -12390.801300 kJ/mol
# Density = 1.274078 g / cm^3
# Si number density = 12.769843 Si / 1000 Ang^3
#
#
#
# Elastic Constant Matrix: (Units=GPa)
#
#
# Indices 1 2 3 4 5 6 
#
# 1 65.0404 22.6660 33.4437 0.0000 0.0000 0.0000
# 2 22.6660 64.3748 24.9158 0.0000 0.0000 0.0000
# 3 33.4437 24.9158 90.8335 0.0000 0.0000 0.0000
# 4 0.0000 0.0000 0.0000 8.8609 0.0000 0.0000
# 5 0.0000 0.0000 0.0000 0.0000 -280.5280 0.0000
# 6 0.0000 0.0000 0.0000 0.0000 0.0000 17.5290
#
#
#
# Elastic Compliance Matrix: (Units=1/GPa)
#
#
# Indices 1 2 3 4 5 6 
#
# 1 0.020176 -0.004731 -0.006131 0.000000 0.000000 0.000000
# 2 -0.004731 0.018488 -0.003330 0.000000 0.000000 0.000000
# 3 -0.006131 -0.003330 0.014180 0.000000 0.000000 0.000000
# 4 0.000000 0.000000 0.000000 0.112856 0.000000 0.000000
# 5 0.000000 0.000000 0.000000 0.000000 -0.003565 0.000000
# 6 0.000000 0.000000 0.000000 0.000000 0.000000 0.057048
#
#
# Mechanical properties :
#
#
# Convention : Reuss Voigt Hill
#
# Bulk Modulus (GPa) = 40.88043 42.47777 41.67910
# Shear Modulus (GPa) = 19.55261 -41.54608 -10.99674
#
# Velocity S-wave (km/s) = 3.91724 -5.71009 -2.93772
# Velocity P-wave (km/s) = 7.24862 3.18390 4.60463
#
# Compressibility (1/GPa) = 0.02446158
#
# Stress axis : x y z
#
# Youngs Moduli (GPa) = 49.56313 54.08779 70.52298
#
# Poissons Ratio (x) = 0.25589 0.43237
# Poissons Ratio (y) = 0.23448 0.23481
# Poissons Ratio (z) = 0.30387 0.18009
#
# Static dielectric constant tensor:
#      x y z
#    x 2.477570 0.000000 0.000000 
#    y 0.000000 2.591860 0.000000 
#    z 0.000000 0.000000 2.703700 
# 
# 
# High freq. dielectric constant tensor:
#      x y z
#    x 1.470810 0.000000 0.000000 
#    y 0.000000 1.470740 0.000000 
#    z 0.000000 0.000000 1.457220 
# 
# From -- ./inp_files/65498.got.cif
#   From: 2010.03.12/outbox.cif.g09.slc.cpg/sg65_33_cif.got.tgz:65498.got - 2010.04.10 20:52:16.
