data_PCOD8267476
_publ_section_title
;
Structure prediction by ZEFSAII (Michael W. Deem and Ramdas Pophale) SiO2 
 PCOD8267476
Probable space group: C M M M
;
_chemical_formula_sum "Si O2"
_cell_formula_units_Z 96
_cell_length_a 27.665171
_cell_length_b 22.249426
_cell_length_c 9.105681
_cell_angle_alpha 90.000000
_cell_angle_beta 90.000000
_cell_angle_gamma 90.000000
_cell_volume 5604.857842
_symmetry_space_group_name_H-M "C M M M"
_symmetry_group_IT_number 65
_symmetry_cell_setting 'orthorhombic'
loop_
_space_group_symop_operation_xyz
x,y,z
-x,-y,z
x,-y,-z
-x,y,-z
-x,-y,-z
x,y,-z
-x,y,z
x,-y,z
1/2+x,1/2+y,z
1/2-x,1/2-y,z
1/2+x,1/2-y,-z
1/2-x,1/2+y,-z
1/2-x,1/2-y,-z
1/2+x,1/2+y,-z
1/2-x,1/2+y,z
1/2+x,1/2-y,z
loop_
_atom_site_type_symbol
_atom_site_label
_atom_site_fract_x
_atom_site_fract_y
_atom_site_fract_z
Si Si1 0.394783 0.115830 0.834258
Si Si2 0.237883 0.500000 0.673664
Si Si3 0.872489 0.500000 0.326347
Si Si4 0.696806 0.191235 0.833032
Si Si5 0.277900 0.625540 0.330029
Si Si6 0.555143 0.762802 0.173016
Si Si7 0.639091 0.708036 0.669054
O O1 0.338752 0.134314 0.828185
O O2 0.427925 0.170836 0.775482
O O3 0.401454 0.058137 0.731266
O O4 0.410170 0.098842 0.000000
O O5 0.235534 0.500000 0.500000
O O6 0.182819 0.500000 0.733966
O O7 0.267703 0.441743 0.728772
O O8 0.874079 0.500000 0.500000
O O9 0.747996 0.172547 0.767039
O O10 0.675553 0.243690 0.734584
O O11 0.703463 0.214001 0.000000
O O12 0.261717 0.631740 0.500000
O O13 0.334788 0.642836 0.312846
O O14 0.500000 0.752341 0.219774
O O15 0.587537 0.710927 0.248404
O O16 0.563186 0.757210 0.000000
O O17 0.629636 0.723299 0.500000
#
# Coordination Sequence:
#
# PCOD8267476 Si02
#       7
#    16   8   8  16  16  16  16
#     4   9  18  31  47  68  94 124 160 202 241 280
#     4   9  18  31  47  66  95 136 172 198 227 269
#     4  11  19  29  48  68  91 131 173 201 232 274
#     4  10  19  30  46  68  97 131 165 199 236 281
#     4  10  19  32  47  68  98 131 165 198 235 280
#     4   9  19  37  57  74  93 120 156 199 249 299
#     4  10  20  31  48  73  99 125 155 196 245 292
#
# _framework density 17.127998000000002
#
# number of rings (size 3 to 8) (size 9 to 14) (size 15 to 20)
#    0.000    2.333    1.667    2.750    0.000    6.333 
#    0.000    0.833    0.000    2.500    0.000    0.583 
#    0.000    4.667    0.000    0.000    0.000    0.000 
#
# Total GULP energy -595051.468729 kJ/mol
# GULP energy per Si atom -12396.905599 kJ/mol
# Density = 1.708901 g / cm^3
# Si number density = 17.127998 Si / 1000 Ang^3
#
#
#
# Elastic Constant Matrix: (Units=GPa)
#
#
# Indices 1 2 3 4 5 6 
#
# 1 109.0389 38.0762 35.8271 0.0000 0.0000 0.0000
# 2 38.0762 45.3835 17.8987 0.0000 0.0000 0.0000
# 3 35.8271 17.8987 55.8838 0.0000 0.0000 0.0000
# 4 0.0000 0.0000 0.0000 18.2243 0.0000 0.0000
# 5 0.0000 0.0000 0.0000 0.0000 24.4696 0.0000
# 6 0.0000 0.0000 0.0000 0.0000 0.0000 16.8962
#
#
#
# Elastic Compliance Matrix: (Units=1/GPa)
#
#
# Indices 1 2 3 4 5 6 
#
# 1 0.014658 -0.009834 -0.006247 0.000000 0.000000 0.000000
# 2 -0.009834 0.031817 -0.003886 0.000000 0.000000 0.000000
# 3 -0.006247 -0.003886 0.023144 0.000000 0.000000 0.000000
# 4 0.000000 0.000000 0.000000 0.054872 0.000000 0.000000
# 5 0.000000 0.000000 0.000000 0.000000 0.040867 0.000000
# 6 0.000000 0.000000 0.000000 0.000000 0.000000 0.059185
#
#
# Mechanical properties :
#
#
# Convention : Reuss Voigt Hill
#
# Bulk Modulus (GPa) = 33.68756 43.76781 38.72768
# Shear Modulus (GPa) = 18.22338 19.81830 19.02084
#
# Velocity S-wave (km/s) = 3.26537 3.40526 3.33605
# Velocity P-wave (km/s) = 5.82475 6.40858 6.12363
#
# Compressibility (1/GPa) = 0.02968455
#
# Stress axis : x y z
#
# Youngs Moduli (GPa) = 68.22356 31.42928 43.20734
#
# Poissons Ratio (x) = 0.30907 0.26994
# Poissons Ratio (y) = 0.67089 0.16791
# Poissons Ratio (z) = 0.42622 0.12214
#
# Static dielectric constant tensor:
#      x y z
#    x 3.156790 0.000000 0.000000 
#    y 0.000000 3.192910 0.000000 
#    z 0.000000 0.000000 3.149690 
# 
# 
# High freq. dielectric constant tensor:
#      x y z
#    x 1.639750 0.000000 0.000000 
#    y 0.000000 1.641040 0.000000 
#    z 0.000000 0.000000 1.659700 
# 
# From -- ./inp_files/16707.got.cif
#   From: 2010.03.12/outbox.cif.g09.slc.cpg/sg65_9_cif.got.tgz:16707.got - 2010.04.10 20:52:16.
