data_PCOD8267628
_publ_section_title
;
Structure prediction by ZEFSAII (Michael W. Deem and Ramdas Pophale) SiO2 
 PCOD8267628
Probable space group: C M M M
;
_chemical_formula_sum "Si O2"
_cell_formula_units_Z 72
_cell_length_a 15.764736
_cell_length_b 8.798643
_cell_length_c 24.679399
_cell_angle_alpha 90.000000
_cell_angle_beta 90.000000
_cell_angle_gamma 90.000000
_cell_volume 3423.237087
_symmetry_space_group_name_H-M "C M M M"
_symmetry_group_IT_number 65
_symmetry_cell_setting 'orthorhombic'
loop_
_space_group_symop_operation_xyz
x,y,z
-x,-y,z
x,-y,-z
-x,y,-z
-x,-y,-z
x,y,-z
-x,y,z
x,-y,z
1/2+x,1/2+y,z
1/2-x,1/2-y,z
1/2+x,1/2-y,-z
1/2-x,1/2+y,-z
1/2-x,1/2-y,-z
1/2+x,1/2+y,-z
1/2-x,1/2+y,z
1/2+x,1/2-y,z
loop_
_atom_site_type_symbol
_atom_site_label
_atom_site_fract_x
_atom_site_fract_y
_atom_site_fract_z
Si Si1 0.342233 0.678644 0.163905
Si Si2 0.662473 0.821134 0.618507
Si Si3 0.500000 0.326130 0.435931
Si Si4 0.342469 0.822032 0.941334
Si Si5 0.403057 0.673272 0.720256
O O1 0.334945 0.500000 0.156602
O O2 0.250000 0.750000 0.170289
O O3 0.390063 0.746532 0.110322
O O4 0.395151 0.723291 0.217205
O O5 0.750000 0.750000 0.596154
O O6 0.584320 0.754362 0.585235
O O7 0.653150 0.780791 0.682166
O O8 0.665351 0.000000 0.610422
O O9 0.500000 0.500000 0.415459
O O10 0.500000 0.315490 0.500000
O O11 0.250000 0.750000 0.943201
O O12 0.334682 0.000000 0.930871
O O13 0.387572 0.790760 0.000000
O O14 0.500000 0.690205 0.701863
O O15 0.371452 0.500000 0.712954
#
# Coordination Sequence:
#
# PCOD8267628 Si02
#       5
#    16  16   8  16  16
#     4  10  19  30  48  75 104 140 183 234 295 359
#     4  12  25  42  68 100 133 174 219 264 317 376
#     4  11  25  47  73 101 137 177 216 265 318 367
#     4   9  16  26  42  65  95 132 174 227 290 354
#     4  10  21  38  59  83 118 158 199 252 311 370
#
# _framework density 21.032723000000001
#
# number of rings (size 3 to 8) (size 9 to 14) (size 15 to 20)
#    0.000    1.667    1.111    5.667    0.000    6.222 
#    0.000    0.000    0.000    0.667    0.000    4.667 
#    0.000    0.000    0.000    0.000    0.000    0.000 
#
# Total GULP energy -446267.960600 kJ/mol
# GULP energy per Si atom -12396.332239 kJ/mol
# Density = 2.098485 g / cm^3
# Si number density = 21.032723 Si / 1000 Ang^3
#
#
#
# Elastic Constant Matrix: (Units=GPa)
#
#
# Indices 1 2 3 4 5 6 
#
# 1 101.7491 54.9138 37.8786 0.0000 0.0000 0.0000
# 2 54.9138 156.8594 60.8343 0.0000 0.0000 0.0000
# 3 37.8786 60.8343 113.7646 0.0000 0.0000 0.0000
# 4 0.0000 0.0000 0.0000 36.7122 0.0000 0.0000
# 5 0.0000 0.0000 0.0000 0.0000 26.3494 0.0000
# 6 0.0000 0.0000 0.0000 0.0000 0.0000 25.5599
#
#
#
# Elastic Compliance Matrix: (Units=1/GPa)
#
#
# Indices 1 2 3 4 5 6 
#
# 1 0.012582 -0.003508 -0.002314 0.000000 0.000000 0.000000
# 2 -0.003508 0.009021 -0.003656 0.000000 0.000000 0.000000
# 3 -0.002314 -0.003656 0.011515 0.000000 0.000000 0.000000
# 4 0.000000 0.000000 0.000000 0.027239 0.000000 0.000000
# 5 0.000000 0.000000 0.000000 0.000000 0.037951 0.000000
# 6 0.000000 0.000000 0.000000 0.000000 0.000000 0.039124
#
#
# Mechanical properties :
#
#
# Convention : Reuss Voigt Hill
#
# Bulk Modulus (GPa) = 70.60035 75.51406 73.05720
# Shear Modulus (GPa) = 31.03487 32.30741 31.67114
#
# Velocity S-wave (km/s) = 3.84546 3.92351 3.88468
# Velocity P-wave (km/s) = 7.30455 7.51706 7.41157
#
# Compressibility (1/GPa) = 0.01416424
#
# Stress axis : x y z
#
# Youngs Moduli (GPa) = 79.47556 110.85294 86.83973
#
# Poissons Ratio (x) = 0.38882 0.20093
# Poissons Ratio (y) = 0.27877 0.31748
# Poissons Ratio (z) = 0.18389 0.40528
#
# Static dielectric constant tensor:
#      x y z
#    x 3.517500 0.000000 0.000000 
#    y 0.000000 4.317970 0.000000 
#    z 0.000000 0.000000 4.558780 
# 
# 
# High freq. dielectric constant tensor:
#      x y z
#    x 1.794360 0.000000 0.000000 
#    y 0.000000 1.829000 0.000000 
#    z 0.000000 0.000000 1.845410 
# 
# From -- ./inp_files/74599.got.cif
#   From: 2010.03.12/outbox.cif.g09.slc.cpg/sg65_38_cif.got.tgz:74599.got - 2010.04.10 20:52:16.
