data_PCOD8267244
_publ_section_title
;
Structure prediction by ZEFSAII (Michael W. Deem and Ramdas Pophale) SiO2 
 PCOD8267244
Probable space group: C M M M
;
_chemical_formula_sum "Si O2"
_cell_formula_units_Z 88
_cell_length_a 24.290498
_cell_length_b 21.522034
_cell_length_c 9.903669
_cell_angle_alpha 90.000000
_cell_angle_beta 90.000000
_cell_angle_gamma 90.000000
_cell_volume 5177.449229
_symmetry_space_group_name_H-M "C M M M"
_symmetry_group_IT_number 65
_symmetry_cell_setting 'orthorhombic'
loop_
_space_group_symop_operation_xyz
x,y,z
-x,-y,z
x,-y,-z
-x,y,-z
-x,-y,-z
x,y,-z
-x,y,z
x,-y,z
1/2+x,1/2+y,z
1/2-x,1/2-y,z
1/2+x,1/2-y,-z
1/2-x,1/2+y,-z
1/2-x,1/2-y,-z
1/2+x,1/2+y,-z
1/2-x,1/2+y,z
1/2+x,1/2-y,z
loop_
_atom_site_type_symbol
_atom_site_label
_atom_site_fract_x
_atom_site_fract_y
_atom_site_fract_z
Si Si1 0.750190 0.567554 0.349123
Si Si2 0.846180 0.158502 0.659347
Si Si3 0.814212 0.736828 0.154315
Si Si4 0.439041 0.568467 0.339991
Si Si5 0.154871 0.594852 0.156060
Si Si6 0.061956 0.500000 0.842089
O O1 0.772013 0.582806 0.500000
O O2 0.720154 0.500000 0.349682
O O3 0.708666 0.620856 0.302728
O O4 0.800268 0.561549 0.247109
O O5 0.850022 0.172436 0.500000
O O6 0.848721 0.221917 0.741910
O O7 0.896812 0.118633 0.716557
O O8 0.750000 0.750000 0.186389
O O9 0.838264 0.668288 0.182540
O O10 0.826138 0.755984 0.000000
O O11 0.433618 0.565257 0.500000
O O12 0.500000 0.589603 0.296556
O O13 0.426158 0.500000 0.280528
O O14 0.095960 0.563398 0.197115
O O15 0.167401 0.579719 0.000000
O O16 0.000000 0.500000 0.775045
O O17 0.053049 0.500000 0.000000
#
# Coordination Sequence:
#
# PCOD8267244 Si02
#       6
#    16  16  16  16  16   8
#     4  10  19  29  45  73 105 129 155 200 251 292
#     4  10  19  30  48  74 102 132 167 202 240 291
#     4  10  20  33  48  70 103 136 163 197 245 301
#     4   8  14  27  48  72  98 129 166 206 243 281
#     4  10  19  33  53  73  94 125 164 203 247 298
#     4   9  18  34  57  79  95 119 166 219 252 286
#
# _framework density 16.996787000000001
#
# number of rings (size 3 to 8) (size 9 to 14) (size 15 to 20)
#    0.000    2.455    2.727    1.091    0.000    3.273 
#    0.000    0.909    0.000    4.364    0.000    1.273 
#    0.000    0.000    0.000    0.000    0.000    0.000 
#
# Total GULP energy -545146.801078 kJ/mol
# GULP energy per Si atom -12389.700024 kJ/mol
# Density = 1.695810 g / cm^3
# Si number density = 16.996787 Si / 1000 Ang^3
#
#
#
# Elastic Constant Matrix: (Units=GPa)
#
#
# Indices 1 2 3 4 5 6 
#
# 1 112.9417 64.2789 35.2425 0.0000 0.0000 0.0000
# 2 64.2789 126.4054 41.3553 0.0000 0.0000 0.0000
# 3 35.2425 41.3553 42.8966 0.0000 0.0000 0.0000
# 4 0.0000 0.0000 0.0000 12.9678 0.0000 0.0000
# 5 0.0000 0.0000 0.0000 0.0000 13.6245 0.0000
# 6 0.0000 0.0000 0.0000 0.0000 0.0000 7.3871
#
#
#
# Elastic Compliance Matrix: (Units=1/GPa)
#
#
# Indices 1 2 3 4 5 6 
#
# 1 0.013628 -0.004772 -0.006596 0.000000 0.000000 0.000000
# 2 -0.004772 0.013227 -0.008831 0.000000 0.000000 0.000000
# 3 -0.006596 -0.008831 0.037244 0.000000 0.000000 0.000000
# 4 0.000000 0.000000 0.000000 0.077114 0.000000 0.000000
# 5 0.000000 0.000000 0.000000 0.000000 0.073397 0.000000
# 6 0.000000 0.000000 0.000000 0.000000 0.000000 0.135372
#
#
# Mechanical properties :
#
#
# Convention : Reuss Voigt Hill
#
# Bulk Modulus (GPa) = 42.19115 62.66635 52.42875
# Shear Modulus (GPa) = 12.55392 16.22033 14.38713
#
# Velocity S-wave (km/s) = 2.72068 3.09255 2.91256
# Velocity P-wave (km/s) = 5.89460 7.04992 6.49799
#
# Compressibility (1/GPa) = 0.02370166
#
# Stress axis : x y z
#
# Youngs Moduli (GPa) = 73.37630 75.60284 26.84964
#
# Poissons Ratio (x) = 0.36080 0.17709
# Poissons Ratio (y) = 0.35017 0.23711
# Poissons Ratio (z) = 0.48398 0.66765
#
# Static dielectric constant tensor:
#      x y z
#    x 3.260220 0.000000 0.000000 
#    y 0.000000 3.351750 0.000000 
#    z 0.000000 0.000000 2.929660 
# 
# 
# High freq. dielectric constant tensor:
#      x y z
#    x 1.639250 0.000000 0.000000 
#    y 0.000000 1.664980 0.000000 
#    z 0.000000 0.000000 1.628840 
# 
# From -- ./inp_files/11827.got.cif
#   From: 2010.03.12/outbox.cif.g09.slc.cpg/sg65_6_cif.got.tgz:11827.got - 2010.04.10 20:52:16.
