data_PCOD8267758
_publ_section_title
;
Structure prediction by ZEFSAII (Michael W. Deem and Ramdas Pophale) SiO2 
 PCOD8267758
Probable space group: C M M M
;
_chemical_formula_sum "Si O2"
_cell_formula_units_Z 104
_cell_length_a 8.813457
_cell_length_b 23.693255
_cell_length_c 28.968610
_cell_angle_alpha 90.000000
_cell_angle_beta 90.000000
_cell_angle_gamma 90.000000
_cell_volume 6049.210196
_symmetry_space_group_name_H-M "C M M M"
_symmetry_group_IT_number 65
_symmetry_cell_setting 'orthorhombic'
loop_
_space_group_symop_operation_xyz
x,y,z
-x,-y,z
x,-y,-z
-x,y,-z
-x,-y,-z
x,y,-z
-x,y,z
x,-y,z
1/2+x,1/2+y,z
1/2-x,1/2-y,z
1/2+x,1/2-y,-z
1/2-x,1/2+y,-z
1/2-x,1/2-y,-z
1/2+x,1/2+y,-z
1/2-x,1/2+y,z
1/2+x,1/2-y,z
loop_
_atom_site_type_symbol
_atom_site_label
_atom_site_fract_x
_atom_site_fract_y
_atom_site_fract_z
Si Si1 0.820114 0.812041 0.697939
Si Si2 0.177330 0.189550 0.597482
Si Si3 0.678859 0.688537 0.500000
Si Si4 0.174141 0.889173 0.051746
Si Si5 0.678943 0.000000 0.811129
Si Si6 0.180110 0.378754 0.219645
Si Si7 0.820800 0.811202 0.864627
Si Si8 0.178570 0.500000 0.085826
O O1 0.750000 0.750000 0.705059
O O2 0.778740 0.838086 0.646851
O O3 0.746373 0.855532 0.732970
O O4 0.000000 0.807917 0.706176
O O5 0.250000 0.250000 0.596179
O O6 0.225765 0.157371 0.548982
O O7 0.000000 0.199125 0.597551
O O8 0.500000 0.696247 0.500000
O O9 0.750000 0.750000 0.500000
O O10 0.224710 0.840912 0.087395
O O11 0.271381 0.945089 0.058225
O O12 0.000000 0.905734 0.060091
O O13 0.200903 0.865801 0.000000
O O14 0.731171 0.055817 0.783736
O O15 0.500000 0.000000 0.816464
O O16 0.750419 0.000000 0.862615
O O17 0.249562 0.345759 0.176958
O O18 0.000000 0.371462 0.218885
O O19 0.750000 0.750000 0.865308
O O20 0.000000 0.806942 0.857426
O O21 0.000000 0.500000 0.088855
#
# Coordination Sequence:
#
# PCOD8267758 Si02
#       8
#    16  16   8  16   8  16  16   8
#     4  10  19  31  46  70 100 133 167 202 239 285
#     4   8  14  23  37  57  87 122 161 199 235 276
#     4   8  12  20  34  54  80 119 160 197 235 274
#     4  10  22  39  57  79 107 135 162 196 240 288
#     4   9  20  36  56  77  98 121 153 198 246 287
#     4  11  21  37  56  74  97 126 159 200 244 292
#     4  11  23  38  56  77 101 132 165 198 236 283
#     4  11  20  36  59  84 106 128 161 201 241 287
#
# _framework density 17.192326000000001
#
# number of rings (size 3 to 8) (size 9 to 14) (size 15 to 20)
#    0.000    2.154    1.538    2.308    0.000    2.769 
#    0.000    1.538    0.000    0.000    0.000    0.000 
#    0.000    0.615    0.000    7.692    0.000    1.385 
#
# Total GULP energy -644210.759862 kJ/mol
# GULP energy per Si atom -12388.668459 kJ/mol
# Density = 1.715320 g / cm^3
# Si number density = 17.192326 Si / 1000 Ang^3
#
#
#
# Elastic Constant Matrix: (Units=GPa)
#
#
# Indices 1 2 3 4 5 6 
#
# 1 57.4605 37.2770 45.5347 0.0000 0.0000 0.0000
# 2 37.2770 108.2728 69.9312 0.0000 0.0000 0.0000
# 3 45.5347 69.9312 189.0520 0.0000 0.0000 0.0000
# 4 0.0000 0.0000 0.0000 20.4150 0.0000 0.0000
# 5 0.0000 0.0000 0.0000 0.0000 14.6819 0.0000
# 6 0.0000 0.0000 0.0000 0.0000 0.0000 34.7397
#
#
#
# Elastic Compliance Matrix: (Units=1/GPa)
#
#
# Indices 1 2 3 4 5 6 
#
# 1 0.024139 -0.005986 -0.003600 0.000000 0.000000 0.000000
# 2 -0.005986 0.013619 -0.003596 0.000000 0.000000 0.000000
# 3 -0.003600 -0.003596 0.007487 0.000000 0.000000 0.000000
# 4 0.000000 0.000000 0.000000 0.048984 0.000000 0.000000
# 5 0.000000 0.000000 0.000000 0.000000 0.068111 0.000000
# 6 0.000000 0.000000 0.000000 0.000000 0.000000 0.028786
#
#
# Mechanical properties :
#
#
# Convention : Reuss Voigt Hill
#
# Bulk Modulus (GPa) = 52.96099 73.36347 63.16223
# Shear Modulus (GPa) = 22.34302 27.43679 24.88990
#
# Velocity S-wave (km/s) = 3.60890 3.99917 3.80904
# Velocity P-wave (km/s) = 6.94532 8.00558 7.49422
#
# Compressibility (1/GPa) = 0.01888182
#
# Stress axis : x y z
#
# Youngs Moduli (GPa) = 41.42627 73.42446 133.56679
#
# Poissons Ratio (x) = 0.43950 0.48084
# Poissons Ratio (y) = 0.24796 0.48033
# Poissons Ratio (z) = 0.14913 0.26405
#
# Static dielectric constant tensor:
#      x y z
#    x 3.244420 0.000000 0.000000 
#    y 0.000000 2.971980 0.000000 
#    z 0.000000 0.000000 4.037390 
# 
# 
# High freq. dielectric constant tensor:
#      x y z
#    x 1.668180 0.000000 0.000000 
#    y 0.000000 1.619920 0.000000 
#    z 0.000000 0.000000 1.690040 
# 
# From -- ./inp_files/76963.got.cif
#   From: 2010.03.12/outbox.cif.g09.slc.cpg/sg65_39_cif.got.tgz:76963.got - 2010.04.10 20:52:16.
