data_PCOD8267553
_publ_section_title
;
Structure prediction by ZEFSAII (Michael W. Deem and Ramdas Pophale) SiO2 
 PCOD8267553
Probable space group: C M M M
;
_chemical_formula_sum "Si O2"
_cell_formula_units_Z 72
_cell_length_a 17.986315
_cell_length_b 9.966048
_cell_length_c 22.197889
_cell_angle_alpha 90.000000
_cell_angle_beta 90.000000
_cell_angle_gamma 90.000000
_cell_volume 3979.026624
_symmetry_space_group_name_H-M "C M M M"
_symmetry_group_IT_number 65
_symmetry_cell_setting 'orthorhombic'
loop_
_space_group_symop_operation_xyz
x,y,z
-x,-y,z
x,-y,-z
-x,y,-z
-x,-y,-z
x,y,-z
-x,y,z
x,-y,z
1/2+x,1/2+y,z
1/2-x,1/2-y,z
1/2+x,1/2-y,-z
1/2-x,1/2+y,-z
1/2-x,1/2-y,-z
1/2+x,1/2+y,-z
1/2-x,1/2+y,z
1/2+x,1/2-y,z
loop_
_atom_site_type_symbol
_atom_site_label
_atom_site_fract_x
_atom_site_fract_y
_atom_site_fract_z
Si Si1 0.657064 0.000000 0.569376
Si Si2 0.665330 0.500000 0.433436
Si Si3 0.677032 0.660546 0.000000
Si Si4 0.417770 0.657301 0.885890
Si Si5 0.322892 0.661061 0.230152
Si Si6 0.338543 0.745292 0.358856
O O1 0.745636 0.000000 0.566257
O O2 0.627549 0.876343 0.609421
O O3 0.626295 0.000000 0.500000
O O4 0.633104 0.500000 0.500000
O O5 0.631793 0.372639 0.400440
O O6 0.750000 0.750000 0.000000
O O7 0.630890 0.707751 0.941783
O O8 0.694740 0.500000 0.000000
O O9 0.500000 0.723833 0.887595
O O10 0.426750 0.500000 0.891951
O O11 0.378601 0.694612 0.823536
O O12 0.304501 0.500000 0.235180
O O13 0.250000 0.750000 0.218091
O O14 0.363969 0.715993 0.290378
O O15 0.250000 0.750000 0.358128
#
# Coordination Sequence:
#
# PCOD8267553 Si02
#       6
#     8   8   8  16  16  16
#     4   9  16  24  36  56  85 122 159 196 245 299
#     4   9  14  22  34  52  83 118 153 190 239 301
#     4  10  19  33  57  85 109 138 170 204 248 292
#     4   9  18  33  53  77 104 134 173 212 245 287
#     4  10  19  30  47  70  97 131 167 207 253 297
#     4   9  16  24  36  57  85 121 158 196 245 296
#
# _framework density 18.094878999999999
#
# number of rings (size 3 to 8) (size 9 to 14) (size 15 to 20)
#    0.000    2.667    1.111    1.667    4.667    4.000 
#    0.000    0.000    0.000    3.333    0.000    0.000 
#    0.000    5.333    0.000    0.000    0.000    0.000 
#
# Total GULP energy -446061.274470 kJ/mol
# GULP energy per Si atom -12390.590958 kJ/mol
# Density = 1.805369 g / cm^3
# Si number density = 18.094879 Si / 1000 Ang^3
#
#
#
# Elastic Constant Matrix: (Units=GPa)
#
#
# Indices 1 2 3 4 5 6 
#
# 1 77.6872 35.3087 64.0263 0.0000 0.0000 0.0000
# 2 35.3087 113.4126 69.2578 0.0000 0.0000 0.0000
# 3 64.0263 69.2578 201.5224 0.0000 0.0000 0.0000
# 4 0.0000 0.0000 0.0000 34.3412 0.0000 0.0000
# 5 0.0000 0.0000 0.0000 0.0000 13.3613 0.0000
# 6 0.0000 0.0000 0.0000 0.0000 0.0000-2053.9161
#
#
#
# Elastic Compliance Matrix: (Units=1/GPa)
#
#
# Indices 1 2 3 4 5 6 
#
# 1 0.018060 -0.002681 -0.004816 0.000000 0.000000 0.000000
# 2 -0.002681 0.011558 -0.003120 0.000000 0.000000 0.000000
# 3 -0.004816 -0.003120 0.007565 0.000000 0.000000 0.000000
# 4 0.000000 0.000000 0.000000 0.029120 0.000000 0.000000
# 5 0.000000 0.000000 0.000000 0.000000 0.074843 0.000000
# 6 0.000000 0.000000 0.000000 0.000000 0.000000 -0.000487
#
#
# Mechanical properties :
#
#
# Convention : Reuss Voigt Hill
#
# Bulk Modulus (GPa) = 62.70903 81.08976 71.89939
# Shear Modulus (GPa) = 29.90252 -386.30743 -178.20245
#
# Velocity S-wave (km/s) = 4.06956 -14.62715 -9.93459
# Velocity P-wave (km/s) = 7.53741 15.50356 9.57987
#
# Compressibility (1/GPa) = 0.01594667
#
# Stress axis : x y z
#
# Youngs Moduli (GPa) = 55.36984 86.52374 132.19166
#
# Poissons Ratio (x) = 0.23201 0.63670
# Poissons Ratio (y) = 0.14847 0.41245
# Poissons Ratio (z) = 0.26669 0.26996
#
# Static dielectric constant tensor:
#      x y z
#    x 2.918950 0.000000 0.000000 
#    y 0.000000 3.022540 0.000000 
#    z 0.000000 0.000000 3.739350 
# 
# 
# High freq. dielectric constant tensor:
#      x y z
#    x 1.644380 0.000000 0.000000 
#    y 0.000000 1.689100 0.000000 
#    z 0.000000 0.000000 1.727870 
# 
# From -- ./inp_files/70383.got.cif
#   From: 2010.03.12/outbox.cif.g09.slc.cpg/sg65_36_cif.got.tgz:70383.got - 2010.04.10 20:52:16.
