data_PCOD8267278
_publ_section_title
;
Structure prediction by ZEFSAII (Michael W. Deem and Ramdas Pophale) SiO2 
 PCOD8267278
Probable space group: C M M M
;
_chemical_formula_sum "Si O2"
_cell_formula_units_Z 88
_cell_length_a 27.382078
_cell_length_b 19.263137
_cell_length_c 9.473783
_cell_angle_alpha 90.000000
_cell_angle_beta 90.000000
_cell_angle_gamma 90.000000
_cell_volume 4997.086296
_symmetry_space_group_name_H-M "C M M M"
_symmetry_group_IT_number 65
_symmetry_cell_setting 'orthorhombic'
loop_
_space_group_symop_operation_xyz
x,y,z
-x,-y,z
x,-y,-z
-x,y,-z
-x,-y,-z
x,y,-z
-x,y,z
x,-y,z
1/2+x,1/2+y,z
1/2-x,1/2-y,z
1/2+x,1/2-y,-z
1/2-x,1/2+y,-z
1/2-x,1/2-y,-z
1/2+x,1/2+y,-z
1/2-x,1/2+y,z
1/2+x,1/2-y,z
loop_
_atom_site_type_symbol
_atom_site_label
_atom_site_fract_x
_atom_site_fract_y
_atom_site_fract_z
Si Si1 0.500000 0.579284 0.168304
Si Si2 0.116590 0.312254 0.832332
Si Si3 0.557389 0.078599 0.659578
Si Si4 0.726504 0.179817 0.167864
Si Si5 0.096272 0.157146 0.167876
Si Si6 0.191423 0.922293 0.831705
O O1 0.500000 0.500000 0.224354
O O2 0.547712 0.619444 0.226540
O O3 0.500000 0.579354 0.000000
O O4 0.082271 0.370481 0.769133
O O5 0.171349 0.326734 0.776415
O O6 0.098235 0.236745 0.780347
O O7 0.113911 0.317326 0.000000
O O8 0.572608 0.097993 0.500000
O O9 0.500000 0.086196 0.678837
O O10 0.573735 0.000000 0.693994
O O11 0.750000 0.250000 0.229178
O O12 0.759276 0.115481 0.221381
O O13 0.726295 0.183364 0.000000
O O14 0.143750 0.117221 0.227231
O O15 0.096703 0.154606 0.000000
O O16 0.191767 0.000000 0.770491
O O17 0.189746 0.922833 0.000000
#
# Coordination Sequence:
#
# PCOD8267278 Si02
#       6
#     8  16  16  16  16  16
#     4   9  16  24  34  52  88 131 162 192 233 285
#     4  10  19  29  49  77 103 126 155 204 253 291
#     4   9  20  39  57  71  94 130 166 199 241 299
#     4   9  15  26  40  61  97 134 161 191 240 291
#     4   9  16  25  37  60  92 125 157 192 239 284
#     4   9  15  23  37  56  84 127 169 194 222 278
#
# _framework density 17.610263
#
# number of rings (size 3 to 8) (size 9 to 14) (size 15 to 20)
#    0.000    2.818    1.818    1.091    1.273    3.636 
#    0.000    2.727    0.000    0.545    0.000    0.000 
#    0.000    3.636    0.000    0.000    0.000    0.000 
#
# Total GULP energy -545453.893780 kJ/mol
# GULP energy per Si atom -12396.679404 kJ/mol
# Density = 1.757018 g / cm^3
# Si number density = 17.610263 Si / 1000 Ang^3
#
#
#
# Elastic Constant Matrix: (Units=GPa)
#
#
# Indices 1 2 3 4 5 6 
#
# 1 120.6907 83.0936 18.2906 0.0000 0.0000 0.0000
# 2 83.0936 160.3308 25.3677 0.0000 0.0000 0.0000
# 3 18.2906 25.3677 14.0484 0.0000 0.0000 0.0000
# 4 0.0000 0.0000 0.0000 6.8608 0.0000 0.0000
# 5 0.0000 0.0000 0.0000 0.0000 5.7033 0.0000
# 6 0.0000 0.0000 0.0000 0.0000 0.0000 39.8264
#
#
#
# Elastic Compliance Matrix: (Units=1/GPa)
#
#
# Indices 1 2 3 4 5 6 
#
# 1 0.013335 -0.005830 -0.006835 0.000000 0.000000 0.000000
# 2 -0.005830 0.011280 -0.012779 0.000000 0.000000 0.000000
# 3 -0.006835 -0.012779 0.103158 0.000000 0.000000 0.000000
# 4 0.000000 0.000000 0.000000 0.145756 0.000000 0.000000
# 5 0.000000 0.000000 0.000000 0.000000 0.175337 0.000000
# 6 0.000000 0.000000 0.000000 0.000000 0.000000 0.025109
#
#
# Mechanical properties :
#
#
# Convention : Reuss Voigt Hill
#
# Bulk Modulus (GPa) = 13.00640 60.95262 36.97951
# Shear Modulus (GPa) = 9.08277 21.69930 15.39104
#
# Velocity S-wave (km/s) = 2.27351 3.51407 2.95952
# Velocity P-wave (km/s) = 3.78068 7.15207 5.72038
#
# Compressibility (1/GPa) = 0.07688524
#
# Stress axis : x y z
#
# Youngs Moduli (GPa) = 74.98998 88.64970 9.69387
#
# Poissons Ratio (x) = 0.51680 0.06626
# Poissons Ratio (y) = 0.43717 0.12388
# Poissons Ratio (z) = 0.51256 1.13289
#
# Static dielectric constant tensor:
#      x y z
#    x 3.494930 0.000000 0.000000 
#    y 0.000000 3.479440 0.000000 
#    z 0.000000 0.000000 2.528410 
# 
# 
# High freq. dielectric constant tensor:
#      x y z
#    x 1.694980 0.000000 0.000000 
#    y 0.000000 1.696420 0.000000 
#    z 0.000000 0.000000 1.596950 
# 
# From -- ./inp_files/13991.got.cif
#   From: 2010.03.12/outbox.cif.g09.slc.cpg/sg65_7_cif.got.tgz:13991.got - 2010.04.10 20:52:16.
