data_PCOD8267465
_publ_section_title
;
Structure prediction by ZEFSAII (Michael W. Deem and Ramdas Pophale) SiO2 
 PCOD8267465
Probable space group: C M M M
;
_chemical_formula_sum "Si O2"
_cell_formula_units_Z 104
_cell_length_a 18.173356
_cell_length_b 8.863686
_cell_length_c 33.851307
_cell_angle_alpha 90.000000
_cell_angle_beta 90.000000
_cell_angle_gamma 90.000000
_cell_volume 5452.867416
_symmetry_space_group_name_H-M "C M M M"
_symmetry_group_IT_number 65
_symmetry_cell_setting 'orthorhombic'
loop_
_space_group_symop_operation_xyz
x,y,z
-x,-y,z
x,-y,-z
-x,y,-z
-x,-y,-z
x,y,-z
-x,y,z
x,-y,z
1/2+x,1/2+y,z
1/2-x,1/2-y,z
1/2+x,1/2-y,-z
1/2-x,1/2+y,-z
1/2-x,1/2-y,-z
1/2+x,1/2+y,-z
1/2-x,1/2+y,z
1/2+x,1/2-y,z
loop_
_atom_site_type_symbol
_atom_site_label
_atom_site_fract_x
_atom_site_fract_y
_atom_site_fract_z
Si Si1 0.828785 0.320781 0.617971
Si Si2 0.582779 0.179290 0.000000
Si Si3 0.670214 0.179283 0.770194
Si Si4 0.829932 0.320724 0.923355
Si Si5 0.082722 0.679280 0.846815
Si Si6 0.417577 0.179199 0.305927
Si Si7 0.417584 0.179215 0.456362
O O1 0.821627 0.500000 0.617355
O O2 0.750000 0.250000 0.624524
O O3 0.880375 0.265316 0.653622
O O4 0.863036 0.257209 0.577068
O O5 0.625450 0.237752 0.038591
O O6 0.500000 0.245488 0.000000
O O7 0.579260 0.000000 0.000000
O O8 0.750000 0.250000 0.772219
O O9 0.623772 0.237013 0.807666
O O10 0.629251 0.239538 0.731083
O O11 0.677587 0.000000 0.769992
O O12 0.822460 0.500000 0.923308
O O13 0.750000 0.250000 0.923836
O O14 0.873240 0.261646 0.884910
O O15 0.079234 0.500000 0.847182
O O16 0.000000 0.745583 0.847485
O O17 0.500000 0.246096 0.303771
O O18 0.420967 0.000000 0.304641
O O19 0.390258 0.230907 0.500000
O O20 0.500000 0.241104 0.448721
O O21 0.419535 0.000000 0.453909
#
# Coordination Sequence:
#
# PCOD8267465 Si02
#       7
#    16   8  16  16  16  16  16
#     4  10  19  30  46  68  93 119 147 183 226 269
#     4   9  17  30  49  71  92 119 158 196 226 263
#     4  10  19  31  49  71  95 121 149 186 229 271
#     4  10  19  31  49  71  95 122 152 190 232 273
#     4   9  17  30  49  71  92 119 158 195 223 259
#     4   9  17  30  49  70  89 115 155 194 222 256
#     4   8  14  26  45  67  88 113 150 191 223 255
#
# _framework density 19.072534999999998
#
# number of rings (size 3 to 8) (size 9 to 14) (size 15 to 20)
#    0.000    2.692    0.000    3.000    0.000    5.846 
#    0.000    0.000    0.000    7.846    0.000    1.077 
#    0.000    0.000    0.000    0.000    0.000    0.000 
#
# Total GULP energy -644737.928444 kJ/mol
# GULP energy per Si atom -12398.806316 kJ/mol
# Density = 1.902912 g / cm^3
# Si number density = 19.072535 Si / 1000 Ang^3
#
#
#
# Elastic Constant Matrix: (Units=GPa)
#
#
# Indices 1 2 3 4 5 6 
#
# 1 196.8685 20.2248 107.1220 0.0000 0.0000 0.0000
# 2 20.2248 10.5763 18.3637 0.0000 0.0000 0.0000
# 3 107.1220 18.3637 196.2129 0.0000 0.0000 0.0000
# 4 0.0000 0.0000 0.0000 6.5757 0.0000 0.0000
# 5 0.0000 0.0000 0.0000 0.0000 40.3582 0.0000
# 6 0.0000 0.0000 0.0000 0.0000 0.0000 27.3640
#
#
#
# Elastic Compliance Matrix: (Units=1/GPa)
#
#
# Indices 1 2 3 4 5 6 
#
# 1 0.007896 -0.009092 -0.003460 0.000000 0.000000 0.000000
# 2 -0.009092 0.123366 -0.006582 0.000000 0.000000 0.000000
# 3 -0.003460 -0.006582 0.007602 0.000000 0.000000 0.000000
# 4 0.000000 0.000000 0.000000 0.152076 0.000000 0.000000
# 5 0.000000 0.000000 0.000000 0.000000 0.024778 0.000000
# 6 0.000000 0.000000 0.000000 0.000000 0.000000 0.036544
#
#
# Mechanical properties :
#
#
# Convention : Reuss Voigt Hill
#
# Bulk Modulus (GPa) = 9.94085 77.23098 43.58591
# Shear Modulus (GPa) = 11.79072 32.05605 21.92339
#
# Velocity S-wave (km/s) = 2.48907 4.10414 3.39407
# Velocity P-wave (km/s) = 3.67206 7.93976 6.18562
#
# Compressibility (1/GPa) = 0.10059506
#
# Stress axis : x y z
#
# Youngs Moduli (GPa) = 126.64169 8.10598 131.55275
#
# Poissons Ratio (x) = 0.07370 0.45518
# Poissons Ratio (y) = 1.15145 0.86589
# Poissons Ratio (z) = 0.43818 0.05335
#
# Static dielectric constant tensor:
#      x y z
#    x 3.629110 0.000000 0.000000 
#    y 0.000000 2.836520 0.000000 
#    z 0.000000 0.000000 3.954520 
# 
# 
# High freq. dielectric constant tensor:
#      x y z
#    x 1.756290 0.000000 0.000000 
#    y 0.000000 1.672000 0.000000 
#    z 0.000000 0.000000 1.764930 
# 
# From -- ./inp_files/77677.got.cif
#   From: 2010.03.12/outbox.cif.g09.slc.cpg/sg65_39_cif.got.tgz:77677.got - 2010.04.10 20:52:16.
