data_PCOD8267525
_publ_section_title
;
Structure prediction by ZEFSAII (Michael W. Deem and Ramdas Pophale) SiO2 
 PCOD8267525
Probable space group: C M M M
;
_chemical_formula_sum "Si O2"
_cell_formula_units_Z 96
_cell_length_a 26.465406
_cell_length_b 15.747841
_cell_length_c 13.702224
_cell_angle_alpha 90.000000
_cell_angle_beta 90.000000
_cell_angle_gamma 90.000000
_cell_volume 5710.717081
_symmetry_space_group_name_H-M "C M M M"
_symmetry_group_IT_number 65
_symmetry_cell_setting 'orthorhombic'
loop_
_space_group_symop_operation_xyz
x,y,z
-x,-y,z
x,-y,-z
-x,y,-z
-x,-y,-z
x,y,-z
-x,y,z
x,-y,z
1/2+x,1/2+y,z
1/2-x,1/2-y,z
1/2+x,1/2-y,-z
1/2-x,1/2+y,-z
1/2-x,1/2-y,-z
1/2+x,1/2+y,-z
1/2-x,1/2+y,z
1/2+x,1/2-y,z
loop_
_atom_site_type_symbol
_atom_site_label
_atom_site_fract_x
_atom_site_fract_y
_atom_site_fract_z
Si Si1 0.940026 0.907217 0.390395
Si Si2 0.127069 0.265256 0.111966
Si Si3 0.059823 0.262913 0.290309
Si Si4 0.690712 0.095155 0.792133
Si Si5 0.873106 0.401750 0.388221
Si Si6 0.220501 0.837297 0.107019
O O1 0.919100 0.898298 0.500000
O O2 0.919218 0.827534 0.329422
O O3 0.000000 0.902975 0.391179
O O4 0.922963 0.000000 0.347713
O O5 0.077280 0.266580 0.178208
O O6 0.159327 0.349720 0.131202
O O7 0.162497 0.183311 0.136704
O O8 0.109448 0.263719 0.000000
O O9 0.081588 0.340524 0.354158
O O10 0.000000 0.270315 0.295250
O O11 0.675940 0.117469 0.679833
O O12 0.751112 0.106715 0.810406
O O13 0.674819 0.000000 0.815299
O O14 0.858326 0.381654 0.500000
O O15 0.890662 0.500000 0.377388
O O16 0.250000 0.750000 0.098259
O O17 0.221485 0.882258 0.000000
#
# Coordination Sequence:
#
# PCOD8267525 Si02
#       6
#    16  16  16  16  16  16
#     4   8  14  26  45  66  83 102 138 190 239 275
#     4   9  18  31  45  64  93 124 154 193 237 279
#     4  10  19  30  47  68  91 125 165 198 231 275
#     4   9  16  27  47  71  91 116 152 191 232 280
#     4   9  18  31  46  68  99 130 159 192 229 274
#     4   8  14  26  44  63  83 109 140 178 226 273
#
# _framework density 16.810497999999999
#
# number of rings (size 3 to 8) (size 9 to 14) (size 15 to 20)
#    0.000    3.167    0.000    2.500    0.000    3.000 
#    0.000    1.667    0.000   15.000    0.000    9.333 
#    0.000    0.000    0.000    0.000    0.000    0.000 
#
# Total GULP energy -594652.840661 kJ/mol
# GULP energy per Si atom -12388.600847 kJ/mol
# Density = 1.677224 g / cm^3
# Si number density = 16.810498 Si / 1000 Ang^3
#
#
#
# Elastic Constant Matrix: (Units=GPa)
#
#
# Indices 1 2 3 4 5 6 
#
# 1 54.2188 29.9260 43.8310 0.0000 0.0000 0.0000
# 2 29.9260 88.0608 50.5098 0.0000 0.0000 0.0000
# 3 43.8310 50.5098 111.3390 0.0000 0.0000 0.0000
# 4 0.0000 0.0000 0.0000 20.5545 0.0000 0.0000
# 5 0.0000 0.0000 0.0000 0.0000 17.2482 0.0000
# 6 0.0000 0.0000 0.0000 0.0000 0.0000 19.4355
#
#
#
# Elastic Compliance Matrix: (Units=1/GPa)
#
#
# Indices 1 2 3 4 5 6 
#
# 1 0.028236 -0.004352 -0.009141 0.000000 0.000000 0.000000
# 2 -0.004352 0.016021 -0.005555 0.000000 0.000000 0.000000
# 3 -0.009141 -0.005555 0.015100 0.000000 0.000000 0.000000
# 4 0.000000 0.000000 0.000000 0.048651 0.000000 0.000000
# 5 0.000000 0.000000 0.000000 0.000000 0.057977 0.000000
# 6 0.000000 0.000000 0.000000 0.000000 0.000000 0.051452
#
#
# Mechanical properties :
#
#
# Convention : Reuss Voigt Hill
#
# Bulk Modulus (GPa) = 47.03531 55.79466 51.41498
# Shear Modulus (GPa) = 19.03889 20.07110 19.55500
#
# Velocity S-wave (km/s) = 3.36900 3.45912 3.41436
# Velocity P-wave (km/s) = 6.57070 7.01545 6.79671
#
# Compressibility (1/GPa) = 0.02126062
#
# Stress axis : x y z
#
# Youngs Moduli (GPa) = 35.41594 62.41868 66.22468
#
# Poissons Ratio (x) = 0.27166 0.60537
# Poissons Ratio (y) = 0.15414 0.36785
# Poissons Ratio (z) = 0.32374 0.34671
#
# Static dielectric constant tensor:
#      x y z
#    x 2.984770 0.000000 0.000000 
#    y 0.000000 3.357010 0.000000 
#    z 0.000000 0.000000 3.229080 
# 
# 
# High freq. dielectric constant tensor:
#      x y z
#    x 1.613160 0.000000 0.000000 
#    y 0.000000 1.648080 0.000000 
#    z 0.000000 0.000000 1.643920 
# 
# From -- ./inp_files/32427.got.cif
#   From: 2010.03.12/outbox.cif.g09.slc.cpg/sg65_17_cif.got.tgz:32427.got - 2010.04.10 20:52:16.
