data_PCOD8267992
_publ_section_title
;
Structure prediction by ZEFSAII (Michael W. Deem and Ramdas Pophale) SiO2 
 PCOD8267992
Probable space group: C M M M
;
_chemical_formula_sum "Si O2"
_cell_formula_units_Z 104
_cell_length_a 22.654344
_cell_length_b 28.211482
_cell_length_c 9.176233
_cell_angle_alpha 90.000000
_cell_angle_beta 90.000000
_cell_angle_gamma 90.000000
_cell_volume 5864.646296
_symmetry_space_group_name_H-M "C M M M"
_symmetry_group_IT_number 65
_symmetry_cell_setting 'orthorhombic'
loop_
_space_group_symop_operation_xyz
x,y,z
-x,-y,z
x,-y,-z
-x,y,-z
-x,-y,-z
x,y,-z
-x,y,z
x,-y,z
1/2+x,1/2+y,z
1/2-x,1/2-y,z
1/2+x,1/2-y,-z
1/2-x,1/2+y,-z
1/2-x,1/2-y,-z
1/2+x,1/2+y,-z
1/2-x,1/2+y,z
1/2+x,1/2-y,z
loop_
_atom_site_type_symbol
_atom_site_label
_atom_site_fract_x
_atom_site_fract_y
_atom_site_fract_z
Si Si1 0.180140 0.696841 0.171957
Si Si2 0.661881 0.391656 0.671204
Si Si3 0.000000 0.445417 0.825556
Si Si4 0.065908 0.944093 0.838032
Si Si5 0.737151 0.054331 0.831424
Si Si6 0.314876 0.698139 0.171930
Si Si7 0.882323 0.395633 0.169997
O O1 0.247402 0.691783 0.226242
O O2 0.158966 0.749919 0.213188
O O3 0.137182 0.655801 0.238193
O O4 0.181461 0.690319 0.000000
O O5 0.667713 0.387468 0.500000
O O6 0.607521 0.424845 0.712062
O O7 0.722393 0.412473 0.733933
O O8 0.647541 0.340369 0.740241
O O9 0.942688 0.417158 0.762956
O O10 0.000000 0.500000 0.768939
O O11 0.000000 0.446175 0.000000
O O12 0.000000 0.924469 0.812397
O O13 0.066170 0.000000 0.825973
O O14 0.088158 0.928982 0.000000
O O15 0.669161 0.066473 0.799959
O O16 0.748538 0.000000 0.789354
O O17 0.752690 0.063950 0.000000
O O18 0.320236 0.689537 0.000000
O O19 0.893228 0.388516 0.000000
#
# Coordination Sequence:
#
# PCOD8267992 Si02
#       7
#    16  16   8  16  16  16  16
#     4   8  14  26  49  72  90 123 168 215 257 294
#     4  12  23  32  47  75 107 136 162 201 254 303
#     4   9  16  24  38  68 109 139 159 201 262 313
#     4   9  19  37  59  78  97 128 170 208 242 290
#     4  10  19  31  49  71  98 134 172 207 246 298
#     4   9  16  30  51  72  95 126 168 211 254 302
#     4   9  15  26  45  70  99 131 167 207 256 307
#
# _framework density 17.73338
#
# number of rings (size 3 to 8) (size 9 to 14) (size 15 to 20)
#    0.000    2.538    1.538    3.692    0.000    4.615 
#    0.000    2.308    1.692    0.000    0.000    0.538 
#    0.000    1.846    0.000    0.000    0.000    0.000 
#
# Total GULP energy -644474.735163 kJ/mol
# GULP energy per Si atom -12393.744907 kJ/mol
# Density = 1.769302 g / cm^3
# Si number density = 17.733380 Si / 1000 Ang^3
#
#
#
# Elastic Constant Matrix: (Units=GPa)
#
#
# Indices 1 2 3 4 5 6 
#
# 1 82.7774 42.1713 21.6340 0.0000 0.0000 0.0000
# 2 42.1713 118.0230 33.2333 0.0000 0.0000 0.0000
# 3 21.6340 33.2333 58.3281 0.0000 0.0000 0.0000
# 4 0.0000 0.0000 0.0000 2.8161 0.0000 0.0000
# 5 0.0000 0.0000 0.0000 0.0000 2.7463 0.0000
# 6 0.0000 0.0000 0.0000 0.0000 0.0000 24.2737
#
#
#
# Elastic Compliance Matrix: (Units=1/GPa)
#
#
# Indices 1 2 3 4 5 6 
#
# 1 0.015206 -0.004580 -0.003030 0.000000 0.000000 0.000000
# 2 -0.004580 0.011472 -0.004837 0.000000 0.000000 0.000000
# 3 -0.003030 -0.004837 0.021025 0.000000 0.000000 0.000000
# 4 0.000000 0.000000 0.000000 0.355096 0.000000 0.000000
# 5 0.000000 0.000000 0.000000 0.000000 0.364129 0.000000
# 6 0.000000 0.000000 0.000000 0.000000 0.000000 0.041197
#
#
# Mechanical properties :
#
#
# Convention : Reuss Voigt Hill
#
# Bulk Modulus (GPa) = 43.84711 50.35619 47.10165
# Shear Modulus (GPa) = 5.94798 16.77321 11.36059
#
# Velocity S-wave (km/s) = 1.83341 3.07881 2.53382
# Velocity P-wave (km/s) = 5.40937 6.41067 5.93119
#
# Compressibility (1/GPa) = 0.02280652
#
# Stress axis : x y z
#
# Youngs Moduli (GPa) = 65.76404 87.17232 47.56346
#
# Poissons Ratio (x) = 0.39925 0.14414
# Poissons Ratio (y) = 0.30120 0.23008
# Poissons Ratio (z) = 0.19929 0.42168
#
# Static dielectric constant tensor:
#      x y z
#    x 3.323030 0.000000 0.000000 
#    y 0.000000 3.664060 0.000000 
#    z 0.000000 0.000000 2.807250 
# 
# 
# High freq. dielectric constant tensor:
#      x y z
#    x 1.669780 0.000000 0.000000 
#    y 0.000000 1.700870 0.000000 
#    z 0.000000 0.000000 1.629680 
# 
# From -- ./inp_files/15061.got.cif
#   From: 2010.03.12/outbox.cif.g09.slc.cpg/sg65_8_cif.got.tgz:15061.got - 2010.04.10 20:52:16.
