data_PCOD8267360
_publ_section_title
;
Structure prediction by ZEFSAII (Michael W. Deem and Ramdas Pophale) SiO2 
 PCOD8267360
Probable space group: C M M M
;
_chemical_formula_sum "Si O2"
_cell_formula_units_Z 104
_cell_length_a 9.297645
_cell_length_b 28.228665
_cell_length_c 23.200418
_cell_angle_alpha 90.000000
_cell_angle_beta 90.000000
_cell_angle_gamma 90.000000
_cell_volume 6089.184167
_symmetry_space_group_name_H-M "C M M M"
_symmetry_group_IT_number 65
_symmetry_cell_setting 'orthorhombic'
loop_
_space_group_symop_operation_xyz
x,y,z
-x,-y,z
x,-y,-z
-x,y,-z
-x,-y,-z
x,y,-z
-x,y,z
x,-y,z
1/2+x,1/2+y,z
1/2-x,1/2-y,z
1/2+x,1/2-y,-z
1/2-x,1/2+y,-z
1/2-x,1/2-y,-z
1/2+x,1/2+y,-z
1/2-x,1/2+y,z
1/2+x,1/2-y,z
loop_
_atom_site_type_symbol
_atom_site_label
_atom_site_fract_x
_atom_site_fract_y
_atom_site_fract_z
Si Si1 0.334472 0.053854 0.716794
Si Si2 0.827526 0.800102 0.000000
Si Si3 0.333108 0.552746 0.834432
Si Si4 0.331410 0.701545 0.772518
Si Si5 0.666965 0.365598 0.665597
Si Si6 0.169281 0.851419 0.885902
Si Si7 0.167194 0.203101 0.434552
O O1 0.500000 0.068193 0.724037
O O2 0.258316 0.061558 0.777709
O O3 0.259991 0.086654 0.668949
O O4 0.317628 0.000000 0.695577
O O5 0.750000 0.750000 0.000000
O O6 0.769866 0.829321 0.944750
O O7 0.000000 0.793443 0.000000
O O8 0.500000 0.559009 0.816997
O O9 0.304628 0.500000 0.860103
O O10 0.288373 0.592757 0.881101
O O11 0.500000 0.712221 0.776693
O O12 0.250000 0.750000 0.761548
O O13 0.295702 0.667262 0.719755
O O14 0.271152 0.677380 0.830899
O O15 0.500000 0.379471 0.664871
O O16 0.713497 0.339731 0.606742
O O17 0.000000 0.846276 0.886857
O O18 0.205877 0.188642 0.500000
O O19 0.250000 0.250000 0.415204
O O20 0.000000 0.214589 0.427046
#
# Coordination Sequence:
#
# PCOD8267360 Si02
#       7
#    16   8  16  16  16  16  16
#     4  10  20  32  48  74 103 126 156 201 247 292
#     4  10  20  34  51  67  93 129 164 202 237 278
#     4   9  16  30  52  72  94 126 159 192 240 300
#     4  10  19  30  44  66  95 123 156 196 238 282
#     4  10  19  32  50  71  98 130 163 198 239 290
#     4   9  17  31  48  69  95 124 159 199 237 280
#     4   9  18  32  50  73 101 133 168 203 239 284
#
# _framework density 17.079463000000001
#
# number of rings (size 3 to 8) (size 9 to 14) (size 15 to 20)
#    0.000    2.462    1.538    1.385    0.000    2.154 
#    0.000    1.154    0.000    2.769    0.000    3.231 
#    0.000    3.077    0.000    0.000    0.000    0.000 
#
# Total GULP energy -644742.444301 kJ/mol
# GULP energy per Si atom -12398.893160 kJ/mol
# Density = 1.704059 g / cm^3
# Si number density = 17.079463 Si / 1000 Ang^3
#
#
#
# Elastic Constant Matrix: (Units=GPa)
#
#
# Indices 1 2 3 4 5 6 
#
# 1 53.4463 56.1256 36.8674 0.0000 0.0000 0.0000
# 2 56.1256 139.8732 66.0796 0.0000 0.0000 0.0000
# 3 36.8674 66.0796 106.0172 0.0000 0.0000 0.0000
# 4 0.0000 0.0000 0.0000 29.9106 0.0000 0.0000
# 5 0.0000 0.0000 0.0000 0.0000 12.1467 0.0000
# 6 0.0000 0.0000 0.0000 0.0000 0.0000 30.2883
#
#
#
# Elastic Compliance Matrix: (Units=1/GPa)
#
#
# Indices 1 2 3 4 5 6 
#
# 1 0.033907 -0.011389 -0.004693 0.000000 0.000000 0.000000
# 2 -0.011389 0.013958 -0.004740 0.000000 0.000000 0.000000
# 3 -0.004693 -0.004740 0.014019 0.000000 0.000000 0.000000
# 4 0.000000 0.000000 0.000000 0.033433 0.000000 0.000000
# 5 0.000000 0.000000 0.000000 0.000000 0.082327 0.000000
# 6 0.000000 0.000000 0.000000 0.000000 0.000000 0.033016
#
#
# Mechanical properties :
#
#
# Convention : Reuss Voigt Hill
#
# Bulk Modulus (GPa) = 49.40279 68.60911 59.00595
# Shear Modulus (GPa) = 19.30136 23.82004 21.56070
#
# Velocity S-wave (km/s) = 3.36533 3.73857 3.55685
# Velocity P-wave (km/s) = 6.63993 7.67421 7.17573
#
# Compressibility (1/GPa) = 0.02024177
#
# Stress axis : x y z
#
# Youngs Moduli (GPa) = 29.49252 71.64210 71.33415
#
# Poissons Ratio (x) = 0.81590 0.33475
# Poissons Ratio (y) = 0.33588 0.33810
# Poissons Ratio (z) = 0.13840 0.33956
#
# Static dielectric constant tensor:
#      x y z
#    x 3.064070 0.000000 0.000000 
#    y 0.000000 3.369250 0.000000 
#    z 0.000000 0.000000 3.301560 
# 
# 
# High freq. dielectric constant tensor:
#      x y z
#    x 1.642480 0.000000 0.000000 
#    y 0.000000 1.667100 0.000000 
#    z 0.000000 0.000000 1.643900 
# 
# From -- ./inp_files/60829.got.cif
#   From: 2010.03.12/outbox.cif.g09.slc.cpg/sg65_31_cif.got.tgz:60829.got - 2010.04.10 20:52:16.
