data_PCOD8267648
_publ_section_title
;
Structure prediction by ZEFSAII (Michael W. Deem and Ramdas Pophale) SiO2 
 PCOD8267648
Probable space group: C M M M
;
_chemical_formula_sum "Si O2"
_cell_formula_units_Z 80
_cell_length_a 18.056159
_cell_length_b 19.801051
_cell_length_c 12.555931
_cell_angle_alpha 90.000000
_cell_angle_beta 90.000000
_cell_angle_gamma 90.000000
_cell_volume 4489.133627
_symmetry_space_group_name_H-M "C M M M"
_symmetry_group_IT_number 65
_symmetry_cell_setting 'orthorhombic'
loop_
_space_group_symop_operation_xyz
x,y,z
-x,-y,z
x,-y,-z
-x,y,-z
-x,-y,-z
x,y,-z
-x,y,z
x,-y,z
1/2+x,1/2+y,z
1/2-x,1/2-y,z
1/2+x,1/2-y,-z
1/2-x,1/2+y,-z
1/2-x,1/2-y,-z
1/2+x,1/2+y,-z
1/2-x,1/2+y,z
1/2+x,1/2-y,z
loop_
_atom_site_type_symbol
_atom_site_label
_atom_site_fract_x
_atom_site_fract_y
_atom_site_fract_z
Si Si1 0.916276 0.304480 0.782021
Si Si2 0.155275 0.683586 0.000000
Si Si3 0.679902 0.657290 0.000000
Si Si4 0.662992 0.577773 0.620714
Si Si5 0.290637 0.182206 0.622635
Si Si6 0.583136 0.354263 0.805018
O O1 0.891096 0.335516 0.895187
O O2 0.864399 0.333078 0.689015
O O3 0.909635 0.224198 0.779415
O O4 0.000000 0.328196 0.759931
O O5 0.232480 0.642076 0.000000
O O6 0.168536 0.763060 0.000000
O O7 0.641441 0.624592 0.103689
O O8 0.634803 0.589330 0.500000
O O9 0.681067 0.500000 0.642908
O O10 0.737834 0.618815 0.641556
O O11 0.598722 0.603301 0.698636
O O12 0.313456 0.191626 0.500000
O O13 0.250000 0.250000 0.664947
O O14 0.500000 0.370908 0.844228
#
# Coordination Sequence:
#
# PCOD8267648 Si02
#       6
#    16   8   8  16  16  16
#     4  10  19  30  49  78 109 134 164 209 262 310
#     4   9  17  27  47  73 105 137 167 208 254 303
#     4   9  17  29  48  72  98 138 176 208 247 297
#     4  10  21  36  53  73  99 136 178 214 252 303
#     4  10  19  33  53  75 101 132 170 216 260 301
#     4  10  19  31  48  73 106 138 170 209 252 301
#
# _framework density 17.820810999999999
#
# number of rings (size 3 to 8) (size 9 to 14) (size 15 to 20)
#    0.000    2.200    2.000    1.800    2.800    3.600 
#    0.000    3.500    0.000    1.800    0.000    2.800 
#    0.000    3.200    0.000    0.000    0.000    0.000 
#
# Total GULP energy -496050.476398 kJ/mol
# GULP energy per Si atom -12401.261910 kJ/mol
# Density = 1.778025 g / cm^3
# Si number density = 17.820811 Si / 1000 Ang^3
#
#
#
# Elastic Constant Matrix: (Units=GPa)
#
#
# Indices 1 2 3 4 5 6 
#
# 1 119.4780 31.1299 61.1430 0.0000 0.0000 0.0000
# 2 31.1299 52.9328 27.8430 0.0000 0.0000 0.0000
# 3 61.1430 27.8430 105.7826 0.0000 0.0000 0.0000
# 4 0.0000 0.0000 0.0000 15.8322 0.0000 0.0000
# 5 0.0000 0.0000 0.0000 0.0000 31.3151 0.0000
# 6 0.0000 0.0000 0.0000 0.0000 0.0000 13.8827
#
#
#
# Elastic Compliance Matrix: (Units=1/GPa)
#
#
# Indices 1 2 3 4 5 6 
#
# 1 0.012630 -0.004164 -0.006204 0.000000 0.000000 0.000000
# 2 -0.004164 0.023301 -0.003726 0.000000 0.000000 0.000000
# 3 -0.006204 -0.003726 0.014020 0.000000 0.000000 0.000000
# 4 0.000000 0.000000 0.000000 0.063162 0.000000 0.000000
# 5 0.000000 0.000000 0.000000 0.000000 0.031934 0.000000
# 6 0.000000 0.000000 0.000000 0.000000 0.000000 0.072032
#
#
# Mechanical properties :
#
#
# Convention : Reuss Voigt Hill
#
# Bulk Modulus (GPa) = 45.95164 57.60279 51.77721
# Shear Modulus (GPa) = 19.80037 22.74450 21.27244
#
# Velocity S-wave (km/s) = 3.33690 3.57639 3.45872
# Velocity P-wave (km/s) = 6.37871 7.03190 6.71325
#
# Compressibility (1/GPa) = 0.02176201
#
# Stress axis : x y z
#
# Youngs Moduli (GPa) = 79.17916 42.91709 71.32673
#
# Poissons Ratio (x) = 0.17871 0.44251
# Poissons Ratio (y) = 0.32972 0.26577
# Poissons Ratio (z) = 0.49122 0.15991
#
# Static dielectric constant tensor:
#      x y z
#    x 3.355610 0.000000 0.000000 
#    y 0.000000 2.925240 0.000000 
#    z 0.000000 0.000000 3.443230 
# 
# 
# High freq. dielectric constant tensor:
#      x y z
#    x 1.691310 0.000000 0.000000 
#    y 0.000000 1.636450 0.000000 
#    z 0.000000 0.000000 1.703210 
# 
# From -- ./inp_files/26655.got.cif
#   From: 2010.03.12/outbox.cif.g09.slc.cpg/sg65_14_cif.got.tgz:26655.got - 2010.04.10 20:52:16.
