data_PCOD8267151
_publ_section_title
;
Structure prediction by ZEFSAII (Michael W. Deem and Ramdas Pophale) SiO2 
 PCOD8267151
Probable space group: C M M M
;
_chemical_formula_sum "Si O2"
_cell_formula_units_Z 104
_cell_length_a 23.911961
_cell_length_b 9.262464
_cell_length_c 27.603411
_cell_angle_alpha 90.000000
_cell_angle_beta 90.000000
_cell_angle_gamma 90.000000
_cell_volume 6113.704992
_symmetry_space_group_name_H-M "C M M M"
_symmetry_group_IT_number 65
_symmetry_cell_setting 'orthorhombic'
loop_
_space_group_symop_operation_xyz
x,y,z
-x,-y,z
x,-y,-z
-x,y,-z
-x,-y,-z
x,y,-z
-x,y,z
x,-y,z
1/2+x,1/2+y,z
1/2-x,1/2-y,z
1/2+x,1/2-y,-z
1/2-x,1/2+y,-z
1/2-x,1/2-y,-z
1/2+x,1/2+y,-z
1/2-x,1/2+y,z
1/2+x,1/2-y,z
loop_
_atom_site_type_symbol
_atom_site_label
_atom_site_fract_x
_atom_site_fract_y
_atom_site_fract_z
Si Si1 0.378021 0.334497 0.052141
Si Si2 0.500000 0.766766 0.053978
Si Si3 0.933796 0.666211 0.696546
Si Si4 0.566769 0.338043 0.603754
Si Si5 0.095023 0.832792 0.789929
Si Si6 0.938838 0.171218 0.500000
Si Si7 0.806709 0.165867 0.859957
Si Si8 0.000000 0.340875 0.841760
O O1 0.361072 0.500000 0.051148
O O2 0.444617 0.329094 0.060150
O O3 0.341885 0.263047 0.095269
O O4 0.362480 0.262046 0.000000
O O5 0.500000 0.872563 0.100261
O O6 0.500000 0.842430 0.000000
O O7 0.915519 0.500000 0.700179
O O8 0.913057 0.727530 0.644926
O O9 0.903600 0.759486 0.737539
O O10 0.000000 0.684921 0.703264
O O11 0.500000 0.338565 0.599966
O O12 0.587739 0.500000 0.616524
O O13 0.591514 0.286007 0.550985
O O14 0.157086 0.820492 0.811275
O O15 0.053973 0.748264 0.825819
O O16 0.075997 0.000000 0.785935
O O17 0.000000 0.244798 0.500000
O O18 0.945754 0.000000 0.500000
O O19 0.750000 0.250000 0.851817
O O20 0.792220 0.000000 0.870576
O O21 0.000000 0.500000 0.816738
#
# Coordination Sequence:
#
# PCOD8267151 Si02
#       8
#    16   8  16  16  16   8  16   8
#     4   9  17  31  53  79 103 127 158 195 233 279
#     4  10  19  33  53  77 106 132 157 188 236 292
#     4  10  19  29  42  66  97 125 157 199 250 294
#     4   8  13  22  37  56  82 120 164 204 240 279
#     4  11  22  36  54  73  95 126 165 201 240 295
#     4   7  10  18  33  53  77 113 164 209 236 269
#     4  10  22  38  55  75  96 124 162 202 241 289
#     4  12  23  34  52  78 104 127 153 195 248 293
#
# _framework density 17.010961000000002
#
# number of rings (size 3 to 8) (size 9 to 14) (size 15 to 20)
#    0.000    2.385    2.308    2.308    0.000    3.846 
#    0.000    0.385    0.000    2.308    0.000    0.000 
#    0.000    0.000    0.000    0.692    0.000    8.231 
#
# Total GULP energy -644213.534940 kJ/mol
# GULP energy per Si atom -12388.721826 kJ/mol
# Density = 1.697224 g / cm^3
# Si number density = 17.010961 Si / 1000 Ang^3
#
#
#
# Elastic Constant Matrix: (Units=GPa)
#
#
# Indices 1 2 3 4 5 6 
#
# 1 68.0350 34.8662 35.0522 0.0000 0.0000 0.0000
# 2 34.8662 96.4036 59.3555 0.0000 0.0000 0.0000
# 3 35.0522 59.3555 153.4871 0.0000 0.0000 0.0000
# 4 0.0000 0.0000 0.0000 13.7905 0.0000 0.0000
# 5 0.0000 0.0000 0.0000 0.0000 6.6809 0.0000
# 6 0.0000 0.0000 0.0000 0.0000 0.0000 17.0382
#
#
#
# Elastic Compliance Matrix: (Units=1/GPa)
#
#
# Indices 1 2 3 4 5 6 
#
# 1 0.018571 -0.005388 -0.002157 0.000000 0.000000 0.000000
# 2 -0.005388 0.015178 -0.004639 0.000000 0.000000 0.000000
# 3 -0.002157 -0.004639 0.008802 0.000000 0.000000 0.000000
# 4 0.000000 0.000000 0.000000 0.072514 0.000000 0.000000
# 5 0.000000 0.000000 0.000000 0.000000 0.149680 0.000000
# 6 0.000000 0.000000 0.000000 0.000000 0.000000 0.058692
#
#
# Mechanical properties :
#
#
# Convention : Reuss Voigt Hill
#
# Bulk Modulus (GPa) = 55.00051 64.05261 59.52656
# Shear Modulus (GPa) = 14.12964 20.07872 17.10418
#
# Velocity S-wave (km/s) = 2.88517 3.43934 3.17437
# Velocity P-wave (km/s) = 6.59557 7.31488 6.96452
#
# Compressibility (1/GPa) = 0.01818165
#
# Stress axis : x y z
#
# Youngs Moduli (GPa) = 53.84678 65.88445 113.61226
#
# Poissons Ratio (x) = 0.35501 0.24511
# Poissons Ratio (y) = 0.29014 0.52705
# Poissons Ratio (z) = 0.11617 0.30564
#
# Static dielectric constant tensor:
#      x y z
#    x 2.700820 0.000000 0.000000 
#    y 0.000000 3.008910 0.000000 
#    z 0.000000 0.000000 3.688120 
# 
# 
# High freq. dielectric constant tensor:
#      x y z
#    x 1.594650 0.000000 0.000000 
#    y 0.000000 1.639850 0.000000 
#    z 0.000000 0.000000 1.676240 
# 
# From -- ./inp_files/78411.got.cif
#   From: 2010.03.12/outbox.cif.g09.slc.cpg/sg65_40_cif.got.tgz:78411.got - 2010.04.10 20:52:16.
