data_PCOD8267823
_publ_section_title
;
Structure prediction by ZEFSAII (Michael W. Deem and Ramdas Pophale) SiO2 
 PCOD8267823
Probable space group: C M M M
;
_chemical_formula_sum "Si O2"
_cell_formula_units_Z 104
_cell_length_a 9.837116
_cell_length_b 28.910236
_cell_length_c 22.514324
_cell_angle_alpha 90.000000
_cell_angle_beta 90.000000
_cell_angle_gamma 90.000000
_cell_volume 6402.923915
_symmetry_space_group_name_H-M "C M M M"
_symmetry_group_IT_number 65
_symmetry_cell_setting 'orthorhombic'
loop_
_space_group_symop_operation_xyz
x,y,z
-x,-y,z
x,-y,-z
-x,y,-z
-x,-y,-z
x,y,-z
-x,y,z
x,-y,z
1/2+x,1/2+y,z
1/2-x,1/2-y,z
1/2+x,1/2-y,-z
1/2-x,1/2+y,-z
1/2-x,1/2-y,-z
1/2+x,1/2+y,-z
1/2-x,1/2+y,z
1/2+x,1/2-y,z
loop_
_atom_site_type_symbol
_atom_site_label
_atom_site_fract_x
_atom_site_fract_y
_atom_site_fract_z
Si Si1 0.341031 0.796098 0.000000
Si Si2 0.657261 0.447126 0.930350
Si Si3 0.345157 0.791305 0.342665
Si Si4 0.649745 0.550594 0.570407
Si Si5 0.343974 0.128416 0.432292
Si Si6 0.842062 0.635949 0.892788
Si Si7 0.656421 0.793241 0.792631
O O1 0.250000 0.750000 0.000000
O O2 0.303696 0.827128 0.056680
O O3 0.500000 0.781711 0.000000
O O4 0.500000 0.436607 0.915241
O O5 0.693211 0.500000 0.911281
O O6 0.752350 0.410606 0.895977
O O7 0.683983 0.441159 0.000000
O O8 0.500000 0.775051 0.349503
O O9 0.250000 0.750000 0.361632
O O10 0.307478 0.830201 0.389345
O O11 0.315762 0.807635 0.275459
O O12 0.658476 0.547786 0.500000
O O13 0.500000 0.567409 0.590093
O O14 0.679958 0.500000 0.597484
O O15 0.761166 0.585647 0.594652
O O16 0.301824 0.141050 0.500000
O O17 0.500000 0.114158 0.429076
O O18 0.809154 0.661263 0.830714
O O19 0.000000 0.621374 0.897915
O O20 0.500000 0.778127 0.802996
O O21 0.750000 0.750000 0.811778
#
# Coordination Sequence:
#
# PCOD8267823 Si02
#       7
#     8  16  16  16  16  16  16
#     4  10  20  30  41  64  95 119 142 177 219 262
#     4   9  18  32  49  70  95 122 153 187 224 268
#     4   9  18  32  47  64  88 118 152 188 224 265
#     4   8  14  25  41  62  88 115 142 174 214 262
#     4   9  17  28  43  65  91 116 145 184 228 271
#     4  10  19  31  47  69  94 119 150 187 226 265
#     4   9  18  32  49  67  89 119 154 188 222 267
#
# _framework density 16.242578999999999
#
# number of rings (size 3 to 8) (size 9 to 14) (size 15 to 20)
#    0.000    2.923    0.769    1.385    0.000    2.769 
#    0.000    2.308    0.000    0.923    0.000    6.462 
#    0.000    0.000    0.000    0.000    0.000    0.000 
#
# Total GULP energy -644591.826522 kJ/mol
# GULP energy per Si atom -12395.996664 kJ/mol
# Density = 1.620561 g / cm^3
# Si number density = 16.242579 Si / 1000 Ang^3
#
#
#
# Elastic Constant Matrix: (Units=GPa)
#
#
# Indices 1 2 3 4 5 6 
#
# 1 86.9046 91.7551 45.5876 0.0000 0.0000 0.0000
# 2 91.7551 137.9678 56.0791 0.0000 0.0000 0.0000
# 3 45.5876 56.0791 60.3166 0.0000 0.0000 0.0000
# 4 0.0000 0.0000 0.0000 -127.8893 0.0000 0.0000
# 5 0.0000 0.0000 0.0000 0.0000 16.7597 0.0000
# 6 0.0000 0.0000 0.0000 0.0000 0.0000 39.7148
#
#
#
# Elastic Compliance Matrix: (Units=1/GPa)
#
#
# Indices 1 2 3 4 5 6 
#
# 1 0.041579 -0.023917 -0.009189 0.000000 0.000000 0.000000
# 2 -0.023917 0.025409 -0.005547 0.000000 0.000000 0.000000
# 3 -0.009189 -0.005547 0.028681 0.000000 0.000000 0.000000
# 4 0.000000 0.000000 0.000000 -0.007819 0.000000 0.000000
# 5 0.000000 0.000000 0.000000 0.000000 0.059667 0.000000
# 6 0.000000 0.000000 0.000000 0.000000 0.000000 0.025180
#
#
# Mechanical properties :
#
#
# Convention : Reuss Voigt Hill
#
# Bulk Modulus (GPa) = 54.45624 74.67028 64.56326
# Shear Modulus (GPa) = 19.52184 -8.16514 5.67835
#
# Velocity S-wave (km/s) = 3.47059 -2.24453 1.87178
# Velocity P-wave (km/s) = 7.04696 6.27332 6.67136
#
# Compressibility (1/GPa) = 0.01836337
#
# Stress axis : x y z
#
# Youngs Moduli (GPa) = 24.05059 39.35665 34.86570
#
# Poissons Ratio (x) = 0.94129 0.32038
# Poissons Ratio (y) = 0.57522 0.19340
# Poissons Ratio (z) = 0.22100 0.21831
#
# Static dielectric constant tensor:
#      x y z
#    x 3.170780 0.000000 0.000000 
#    y 0.000000 3.203330 0.000000 
#    z 0.000000 0.000000 2.946020 
# 
# 
# High freq. dielectric constant tensor:
#      x y z
#    x 1.630070 0.000000 0.000000 
#    y 0.000000 1.620260 0.000000 
#    z 0.000000 0.000000 1.601850 
# 
# From -- ./inp_files/60912.got.cif
#   From: 2010.03.12/outbox.cif.g09.slc.cpg/sg65_31_cif.got.tgz:60912.got - 2010.04.10 20:52:16.
