data_PCOD8267135
_publ_section_title
;
Structure prediction by ZEFSAII (Michael W. Deem and Ramdas Pophale) SiO2 
 PCOD8267135
Probable space group: C M M M
;
_chemical_formula_sum "Si O2"
_cell_formula_units_Z 112
_cell_length_a 18.057307
_cell_length_b 25.762437
_cell_length_c 14.320393
_cell_angle_alpha 90.000000
_cell_angle_beta 90.000000
_cell_angle_gamma 90.000000
_cell_volume 6661.850174
_symmetry_space_group_name_H-M "C M M M"
_symmetry_group_IT_number 65
_symmetry_cell_setting 'orthorhombic'
loop_
_space_group_symop_operation_xyz
x,y,z
-x,-y,z
x,-y,-z
-x,y,-z
-x,-y,-z
x,y,-z
-x,y,z
x,-y,z
1/2+x,1/2+y,z
1/2-x,1/2-y,z
1/2+x,1/2-y,-z
1/2-x,1/2+y,-z
1/2-x,1/2-y,-z
1/2+x,1/2+y,-z
1/2-x,1/2+y,z
1/2+x,1/2-y,z
loop_
_atom_site_type_symbol
_atom_site_label
_atom_site_fract_x
_atom_site_fract_y
_atom_site_fract_z
Si Si1 0.086452 0.406138 0.393915
Si Si2 0.413886 0.848243 0.102684
Si Si3 0.649827 0.058567 0.210040
Si Si4 0.088475 0.248012 0.792180
Si Si5 0.701188 0.440894 0.892923
Si Si6 0.584330 0.645242 0.108549
Si Si7 0.412484 0.213392 0.399620
O O1 0.103485 0.424349 0.500000
O O2 0.137974 0.438017 0.321918
O O3 0.107877 0.346214 0.380696
O O4 0.000000 0.415811 0.370849
O O5 0.500000 0.837971 0.092443
O O6 0.404325 0.900935 0.160588
O O7 0.378462 0.797933 0.153261
O O8 0.377393 0.853888 0.000000
O O9 0.733229 0.072447 0.179015
O O10 0.631021 0.000000 0.176829
O O11 0.117683 0.194704 0.836615
O O12 0.117710 0.251241 0.685044
O O13 0.000000 0.249559 0.796146
O O14 0.674517 0.500000 0.880705
O O15 0.632026 0.405028 0.865808
O O16 0.727130 0.430839 0.000000
O O17 0.500000 0.633490 0.138786
O O18 0.588643 0.659193 0.000000
O O19 0.378936 0.231605 0.500000
O O20 0.500000 0.217988 0.404758
#
# Coordination Sequence:
#
# PCOD8267135 Si02
#       7
#    16  16  16  16  16  16  16
#     4   9  17  30  48  70  94 122 163 210 245 272
#     4  10  19  29  42  62  90 126 164 197 229 267
#     4  11  21  32  46  63  89 128 166 197 236 282
#     4   9  15  26  45  69  96 122 149 188 238 283
#     4   9  19  35  51  68  94 126 158 194 237 285
#     4   9  17  30  51  77  98 117 148 192 240 290
#     4   8  13  23  42  66  91 120 153 189 231 276
#
# _framework density 16.812145999999998
#
# number of rings (size 3 to 8) (size 9 to 14) (size 15 to 20)
#    0.000    2.714    1.429    2.143    0.000    4.286 
#    0.000    3.571    0.000    3.429    0.000    2.000 
#    0.000    0.000    0.000    8.714    0.000    0.286 
#
# Total GULP energy -694068.572465 kJ/mol
# GULP energy per Si atom -12394.081651 kJ/mol
# Density = 1.677388 g / cm^3
# Si number density = 16.812146 Si / 1000 Ang^3
#
#
#
# Elastic Constant Matrix: (Units=GPa)
#
#
# Indices 1 2 3 4 5 6 
#
# 1 42.7323 35.4369 36.1872 0.0000 0.0000 0.0000
# 2 35.4369 99.3473 57.1587 0.0000 0.0000 0.0000
# 3 36.1872 57.1587 117.1537 0.0000 0.0000 0.0000
# 4 0.0000 0.0000 0.0000 8.9562 0.0000 0.0000
# 5 0.0000 0.0000 0.0000 0.0000 17.2014 0.0000
# 6 0.0000 0.0000 0.0000 0.0000 0.0000 9.3559
#
#
#
# Elastic Compliance Matrix: (Units=1/GPa)
#
#
# Indices 1 2 3 4 5 6 
#
# 1 0.036860 -0.009172 -0.006911 0.000000 0.000000 0.000000
# 2 -0.009172 0.016276 -0.005108 0.000000 0.000000 0.000000
# 3 -0.006911 -0.005108 0.013163 0.000000 0.000000 0.000000
# 4 0.000000 0.000000 0.000000 0.111654 0.000000 0.000000
# 5 0.000000 0.000000 0.000000 0.000000 0.058135 0.000000
# 6 0.000000 0.000000 0.000000 0.000000 0.000000 0.106885
#
#
# Mechanical properties :
#
#
# Convention : Reuss Voigt Hill
#
# Bulk Modulus (GPa) = 41.81028 57.42210 49.61619
# Shear Modulus (GPa) = 12.71214 15.79940 14.25577
#
# Velocity S-wave (km/s) = 2.75276 3.06888 2.91511
# Velocity P-wave (km/s) = 5.91833 6.84007 6.39583
#
# Compressibility (1/GPa) = 0.02391756
#
# Stress axis : x y z
#
# Youngs Moduli (GPa) = 27.12999 61.43987 75.97310
#
# Poissons Ratio (x) = 0.56351 0.52502
# Poissons Ratio (y) = 0.24883 0.38807
# Poissons Ratio (z) = 0.18748 0.31383
#
# Static dielectric constant tensor:
#      x y z
#    x 2.709080 0.000000 0.000000 
#    y 0.000000 3.133200 0.000000 
#    z 0.000000 0.000000 3.692070 
# 
# 
# High freq. dielectric constant tensor:
#      x y z
#    x 1.595870 0.000000 0.000000 
#    y 0.000000 1.644230 0.000000 
#    z 0.000000 0.000000 1.654640 
# 
# From -- ./inp_files/41118.got.cif
#   From: 2010.03.12/outbox.cif.g09.slc.cpg/sg65_21_cif.got.tgz:41118.got - 2010.04.10 20:52:16.
