data_PCOD8267182
_publ_section_title
;
Structure prediction by ZEFSAII (Michael W. Deem and Ramdas Pophale) SiO2 
 PCOD8267182
Probable space group: C M M M
;
_chemical_formula_sum "Si O2"
_cell_formula_units_Z 104
_cell_length_a 8.780641
_cell_length_b 26.714861
_cell_length_c 22.872411
_cell_angle_alpha 90.000000
_cell_angle_beta 90.000000
_cell_angle_gamma 90.000000
_cell_volume 5365.263876
_symmetry_space_group_name_H-M "C M M M"
_symmetry_group_IT_number 65
_symmetry_cell_setting 'orthorhombic'
loop_
_space_group_symop_operation_xyz
x,y,z
-x,-y,z
x,-y,-z
-x,y,-z
-x,-y,-z
x,y,-z
-x,y,z
x,-y,z
1/2+x,1/2+y,z
1/2-x,1/2-y,z
1/2+x,1/2-y,-z
1/2-x,1/2+y,-z
1/2-x,1/2-y,-z
1/2+x,1/2+y,-z
1/2-x,1/2+y,z
1/2+x,1/2-y,z
loop_
_atom_site_type_symbol
_atom_site_label
_atom_site_fract_x
_atom_site_fract_y
_atom_site_fract_z
Si Si1 0.319021 0.904280 0.128794
Si Si2 0.825536 0.000000 0.930904
Si Si3 0.828810 0.201183 0.743836
Si Si4 0.670920 0.300622 0.118029
Si Si5 0.320265 0.944974 0.250741
Si Si6 0.321224 0.301986 0.566034
Si Si7 0.824479 0.368569 0.660328
O O1 0.500000 0.902724 0.124854
O O2 0.258377 0.950376 0.091193
O O3 0.257804 0.851891 0.101653
O O4 0.259497 0.911709 0.195918
O O5 0.000000 0.000000 0.908966
O O6 0.816496 0.000000 0.000000
O O7 0.750000 0.250000 0.717320
O O8 0.832953 0.203161 0.812719
O O9 0.717286 0.158748 0.720652
O O10 0.000000 0.195478 0.718053
O O11 0.500000 0.303037 0.092459
O O12 0.750000 0.250000 0.092694
O O13 0.500000 0.948363 0.242734
O O14 0.284953 0.924611 0.316895
O O15 0.245705 0.000000 0.246515
O O16 0.264983 0.312810 0.500000
O O17 0.500000 0.295910 0.568779
O O18 0.250000 0.250000 0.589320
O O19 0.273019 0.349252 0.605610
O O20 0.000000 0.361678 0.643564
#
# Coordination Sequence:
#
# PCOD8267182 Si02
#       7
#    16   8  16  16  16  16  16
#     4  11  20  36  62  88 119 157 199 246 297 352
#     4  11  25  43  63  91 125 159 200 249 296 343
#     4  10  19  29  43  67 103 141 178 215 258 317
#     4  10  20  33  51  79 117 158 197 236 284 347
#     4   9  18  33  53  80 110 143 180 227 284 339
#     4  10  21  37  55  75 103 139 182 230 279 333
#     4  11  20  31  51  75 104 138 177 223 276 335
#
# _framework density 19.383948
#
# number of rings (size 3 to 8) (size 9 to 14) (size 15 to 20)
#    0.000    1.769    2.308    3.000    0.000    2.769 
#    0.000    0.000    0.000    0.923    0.000    3.231 
#    0.000    0.000    0.000    0.000    0.000    0.000 
#
# Total GULP energy -644339.853403 kJ/mol
# GULP energy per Si atom -12391.151027 kJ/mol
# Density = 1.933983 g / cm^3
# Si number density = 19.383948 Si / 1000 Ang^3
#
#
#
# Elastic Constant Matrix: (Units=GPa)
#
#
# Indices 1 2 3 4 5 6 
#
# 1 85.5987 47.6670 22.3971 0.0000 0.0000 0.0000
# 2 47.6670 141.6879 25.8510 0.0000 0.0000 0.0000
# 3 22.3971 25.8510 55.3137 0.0000 0.0000 0.0000
# 4 0.0000 0.0000 0.0000 36.0792 0.0000 0.0000
# 5 0.0000 0.0000 0.0000 0.0000 22.1175 0.0000
# 6 0.0000 0.0000 0.0000 0.0000 0.0000 25.4093
#
#
#
# Elastic Compliance Matrix: (Units=1/GPa)
#
#
# Indices 1 2 3 4 5 6 
#
# 1 0.015185 -0.004359 -0.004112 0.000000 0.000000 0.000000
# 2 -0.004359 0.008967 -0.002426 0.000000 0.000000 0.000000
# 3 -0.004112 -0.002426 0.020877 0.000000 0.000000 0.000000
# 4 0.000000 0.000000 0.000000 0.027717 0.000000 0.000000
# 5 0.000000 0.000000 0.000000 0.000000 0.045213 0.000000
# 6 0.000000 0.000000 0.000000 0.000000 0.000000 0.039356
#
#
# Mechanical properties :
#
#
# Convention : Reuss Voigt Hill
#
# Bulk Modulus (GPa) = 43.03440 52.71451 47.87446
# Shear Modulus (GPa) = 26.75905 29.16688 27.96296
#
# Velocity S-wave (km/s) = 3.71950 3.88324 3.80226
# Velocity P-wave (km/s) = 6.37931 6.88187 6.63535
#
# Compressibility (1/GPa) = 0.02323722
#
# Stress axis : x y z
#
# Youngs Moduli (GPa) = 65.85284 111.52426 47.89890
#
# Poissons Ratio (x) = 0.48608 0.19695
# Poissons Ratio (y) = 0.28702 0.11619
# Poissons Ratio (z) = 0.27077 0.27053
#
# Static dielectric constant tensor:
#      x y z
#    x 3.609190 0.000000 0.000000 
#    y 0.000000 3.161980 0.000000 
#    z 0.000000 0.000000 3.304930 
# 
# 
# High freq. dielectric constant tensor:
#      x y z
#    x 1.754100 0.000000 0.000000 
#    y 0.000000 1.755650 0.000000 
#    z 0.000000 0.000000 1.727850 
# 
# From -- ./inp_files/68259.got.cif
#   From: 2010.03.12/outbox.cif.g09.slc.cpg/sg65_35_cif.got.tgz:68259.got - 2010.04.10 20:52:16.
