data_PCOD8267567
_publ_section_title
;
Structure prediction by ZEFSAII (Michael W. Deem and Ramdas Pophale) SiO2 
 PCOD8267567
Probable space group: C M M M
;
_chemical_formula_sum "Si O2"
_cell_formula_units_Z 96
_cell_length_a 9.146505
_cell_length_b 19.262040
_cell_length_c 30.861197
_cell_angle_alpha 90.000000
_cell_angle_beta 90.000000
_cell_angle_gamma 90.000000
_cell_volume 5437.136340
_symmetry_space_group_name_H-M "C M M M"
_symmetry_group_IT_number 65
_symmetry_cell_setting 'orthorhombic'
loop_
_space_group_symop_operation_xyz
x,y,z
-x,-y,z
x,-y,-z
-x,y,-z
-x,-y,-z
x,y,-z
-x,y,z
x,-y,z
1/2+x,1/2+y,z
1/2-x,1/2-y,z
1/2+x,1/2-y,-z
1/2-x,1/2+y,-z
1/2-x,1/2-y,-z
1/2+x,1/2+y,-z
1/2-x,1/2+y,z
1/2+x,1/2-y,z
loop_
_atom_site_type_symbol
_atom_site_label
_atom_site_fract_x
_atom_site_fract_y
_atom_site_fract_z
Si Si1 0.838234 0.417587 0.803846
Si Si2 0.667225 0.417821 0.113401
Si Si3 0.827829 0.823892 0.360239
Si Si4 0.330903 0.321833 0.545723
Si Si5 0.329780 0.919421 0.707287
Si Si6 0.170179 0.680137 0.949511
O O1 0.844450 0.500000 0.803445
O O2 0.724759 0.390762 0.839941
O O3 0.790761 0.392963 0.755881
O O4 0.000000 0.388605 0.815118
O O5 0.500000 0.394401 0.108649
O O6 0.685121 0.500000 0.109376
O O7 0.762472 0.385043 0.075315
O O8 0.750000 0.750000 0.354452
O O9 0.791881 0.857715 0.408141
O O10 0.769940 0.877452 0.325373
O O11 0.000000 0.813149 0.353314
O O12 0.294242 0.363324 0.500000
O O13 0.500000 0.303447 0.546603
O O14 0.250000 0.250000 0.543985
O O15 0.500000 0.906250 0.697466
O O16 0.290663 0.000000 0.701942
O O17 0.250000 0.750000 0.933915
O O18 0.000000 0.687059 0.938575
O O19 0.198005 0.666704 0.000000
#
# Coordination Sequence:
#
# PCOD8267567 Si02
#       6
#    16  16  16  16  16  16
#     4   8  15  30  51  72  95 126 163 201 242 288
#     4  10  20  33  52  79 107 132 161 202 247 287
#     4  10  19  30  47  71  98 126 157 198 244 288
#     4   8  14  25  41  62  88 118 153 192 235 283
#     4   9  18  33  52  72  96 128 163 199 241 289
#     4  10  21  37  56  76 101 135 171 205 243 290
#
# _framework density 17.656352999999999
#
# number of rings (size 3 to 8) (size 9 to 14) (size 15 to 20)
#    0.000    2.833    0.000    2.500    0.000    4.000 
#    0.000    4.167    0.000    4.500    0.000    3.500 
#    0.000    0.000    0.000    0.000    0.000    0.000 
#
# Total GULP energy -594708.837911 kJ/mol
# GULP energy per Si atom -12389.767456 kJ/mol
# Density = 1.761617 g / cm^3
# Si number density = 17.656353 Si / 1000 Ang^3
#
#
#
# Elastic Constant Matrix: (Units=GPa)
#
#
# Indices 1 2 3 4 5 6 
#
# 1 101.5479 39.4361 71.4810 0.0000 0.0000 0.0000
# 2 39.4361 44.0019 45.3009 0.0000 0.0000 0.0000
# 3 71.4810 45.3009 131.1427 0.0000 0.0000 0.0000
# 4 0.0000 0.0000 0.0000 -661.1195 0.0000 0.0000
# 5 0.0000 0.0000 0.0000 0.0000 28.0589 0.0000
# 6 0.0000 0.0000 0.0000 0.0000 0.0000 27.8915
#
#
#
# Elastic Compliance Matrix: (Units=1/GPa)
#
#
# Indices 1 2 3 4 5 6 
#
# 1 0.018209 -0.009469 -0.006654 0.000000 0.000000 0.000000
# 2 -0.009469 0.040193 -0.008723 0.000000 0.000000 0.000000
# 3 -0.006654 -0.008723 0.014265 0.000000 0.000000 0.000000
# 4 0.000000 0.000000 0.000000 -0.001513 0.000000 0.000000
# 5 0.000000 0.000000 0.000000 0.000000 0.035639 0.000000
# 6 0.000000 0.000000 0.000000 0.000000 0.000000 0.035853
#
#
# Mechanical properties :
#
#
# Convention : Reuss Voigt Hill
#
# Bulk Modulus (GPa) = 43.52457 65.45872 54.49165
# Shear Modulus (GPa) = 25.00044 -113.00219 -44.00088
#
# Velocity S-wave (km/s) = 3.76699 -8.00873 -4.99748
# Velocity P-wave (km/s) = 6.60490 6.95453 1.53961
#
# Compressibility (1/GPa) = 0.02297553
#
# Stress axis : x y z
#
# Youngs Moduli (GPa) = 54.91905 24.88005 70.10014
#
# Poissons Ratio (x) = 0.23558 0.46645
# Poissons Ratio (y) = 0.52001 0.61147
# Poissons Ratio (z) = 0.36543 0.21702
#
# Static dielectric constant tensor:
#      x y z
#    x 3.394940 0.000000 0.000000 
#    y 0.000000 2.813490 0.000000 
#    z 0.000000 0.000000 3.829590 
# 
# 
# High freq. dielectric constant tensor:
#      x y z
#    x 1.691640 0.000000 0.000000 
#    y 0.000000 1.633200 0.000000 
#    z 0.000000 0.000000 1.705130 
# 
# From -- ./inp_files/73059.got.cif
#   From: 2010.03.12/outbox.cif.g09.slc.cpg/sg65_37_cif.got.tgz:73059.got - 2010.04.10 20:52:16.
