data_PCOD8267435
_publ_section_title
;
Structure prediction by ZEFSAII (Michael W. Deem and Ramdas Pophale) SiO2 
 PCOD8267435
Probable space group: C M M M
;
_chemical_formula_sum "Si O2"
_cell_formula_units_Z 88
_cell_length_a 19.511442
_cell_length_b 30.252932
_cell_length_c 7.765945
_cell_angle_alpha 90.000000
_cell_angle_beta 90.000000
_cell_angle_gamma 90.000000
_cell_volume 4584.069030
_symmetry_space_group_name_H-M "C M M M"
_symmetry_group_IT_number 65
_symmetry_cell_setting 'orthorhombic'
loop_
_space_group_symop_operation_xyz
x,y,z
-x,-y,z
x,-y,-z
-x,y,-z
-x,-y,-z
x,y,-z
-x,y,z
x,-y,z
1/2+x,1/2+y,z
1/2-x,1/2-y,z
1/2+x,1/2-y,-z
1/2-x,1/2+y,-z
1/2-x,1/2-y,-z
1/2+x,1/2+y,-z
1/2-x,1/2+y,z
1/2+x,1/2-y,z
loop_
_atom_site_type_symbol
_atom_site_label
_atom_site_fract_x
_atom_site_fract_y
_atom_site_fract_z
Si Si1 0.211321 0.794189 0.298953
Si Si2 0.925443 0.653337 0.197312
Si Si3 0.424347 0.749056 0.300092
Si Si4 0.923893 0.052104 0.500000
Si Si5 0.786134 0.620048 0.195375
Si Si6 0.177306 0.051476 0.201071
O O1 0.222254 0.803041 0.500000
O O2 0.250000 0.750000 0.239697
O O3 0.131217 0.788035 0.249005
O O4 0.239734 0.836220 0.199737
O O5 0.910099 0.705516 0.201106
O O6 0.860800 0.627762 0.287126
O O7 0.000000 0.642914 0.286128
O O8 0.929961 0.638960 0.000000
O O9 0.416758 0.760986 0.500000
O O10 0.500000 0.730306 0.256162
O O11 0.885074 0.066693 0.675438
O O12 0.000000 0.073685 0.500000
O O13 0.930941 0.000000 0.500000
O O14 0.743837 0.578462 0.269665
O O15 0.802567 0.608931 0.000000
O O16 0.194047 0.000000 0.226027
O O17 0.159516 0.062030 0.000000
#
# Coordination Sequence:
#
# PCOD8267435 Si02
#       6
#    16  16  16   8  16  16
#     4  10  19  30  45  69  97 128 166 209 253 302
#     4   9  17  29  46  69  96 126 165 211 253 297
#     4   9  17  30  45  62  90 127 165 203 247 298
#     4   9  18  34  58  86 108 135 177 217 265 323
#     4  10  20  32  50  74  98 132 171 210 259 311
#     4   9  19  36  56  81 111 140 175 220 266 314
#
# _framework density 19.196918
#
# number of rings (size 3 to 8) (size 9 to 14) (size 15 to 20)
#    0.000    2.636    1.818    0.000    1.273    1.455 
#    0.000    2.727    0.000    1.636    0.000    3.818 
#    0.000    2.182    0.000    0.182    0.000    0.000 
#
# Total GULP energy -545128.858163 kJ/mol
# GULP energy per Si atom -12389.292231 kJ/mol
# Density = 1.915323 g / cm^3
# Si number density = 19.196918 Si / 1000 Ang^3
#
#
#
# Elastic Constant Matrix: (Units=GPa)
#
#
# Indices 1 2 3 4 5 6 
#
# 1 194.6109 58.5644 31.3157 0.0000 0.0000 0.0000
# 2 58.5644 64.8189 13.2417 0.0000 0.0000 0.0000
# 3 31.3157 13.2417 44.4934 0.0000 0.0000 0.0000
# 4 0.0000 0.0000 0.0000 12.2104 0.0000 0.0000
# 5 0.0000 0.0000 0.0000 0.0000 15.4937 0.0000
# 6 0.0000 0.0000 0.0000 0.0000 0.0000 27.1525
#
#
#
# Elastic Compliance Matrix: (Units=1/GPa)
#
#
# Indices 1 2 3 4 5 6 
#
# 1 0.007534 -0.006094 -0.003489 0.000000 0.000000 0.000000
# 2 -0.006094 0.021356 -0.002066 0.000000 0.000000 0.000000
# 3 -0.003489 -0.002066 0.025546 0.000000 0.000000 0.000000
# 4 0.000000 0.000000 0.000000 0.081897 0.000000 0.000000
# 5 0.000000 0.000000 0.000000 0.000000 0.064542 0.000000
# 6 0.000000 0.000000 0.000000 0.000000 0.000000 0.036829
#
#
# Mechanical properties :
#
#
# Convention : Reuss Voigt Hill
#
# Bulk Modulus (GPa) = 32.11661 56.68520 44.40090
# Shear Modulus (GPa) = 18.42423 24.35808 21.39115
#
# Velocity S-wave (km/s) = 3.10134 3.56596 3.34174
# Velocity P-wave (km/s) = 5.43975 6.82255 6.17001
#
# Compressibility (1/GPa) = 0.03113654
#
# Stress axis : x y z
#
# Youngs Moduli (GPa) = 132.73580 46.82564 39.14543
#
# Poissons Ratio (x) = 0.28536 0.13657
# Poissons Ratio (y) = 0.80891 0.08089
# Poissons Ratio (z) = 0.46309 0.09677
#
# Static dielectric constant tensor:
#      x y z
#    x 4.310490 0.000000 0.000000 
#    y 0.000000 3.212220 0.000000 
#    z 0.000000 0.000000 3.386230 
# 
# 
# High freq. dielectric constant tensor:
#      x y z
#    x 1.763840 0.000000 0.000000 
#    y 0.000000 1.700370 0.000000 
#    z 0.000000 0.000000 1.733640 
# 
# From -- ./inp_files/10114.got.cif
#   From: 2010.03.12/outbox.cif.g09.slc.cpg/sg65_6_cif.got.tgz:10114.got - 2010.04.10 20:52:16.
