data_PCOD8267016
_publ_section_title
;
Structure prediction by ZEFSAII (Michael W. Deem and Ramdas Pophale) SiO2 
 PCOD8267016
Probable space group: C M M M
;
_chemical_formula_sum "Si O2"
_cell_formula_units_Z 88
_cell_length_a 10.708685
_cell_length_b 15.421965
_cell_length_c 27.021211
_cell_angle_alpha 90.000000
_cell_angle_beta 90.000000
_cell_angle_gamma 90.000000
_cell_volume 4462.525037
_symmetry_space_group_name_H-M "C M M M"
_symmetry_group_IT_number 65
_symmetry_cell_setting 'orthorhombic'
loop_
_space_group_symop_operation_xyz
x,y,z
-x,-y,z
x,-y,-z
-x,y,-z
-x,-y,-z
x,y,-z
-x,y,z
x,-y,z
1/2+x,1/2+y,z
1/2-x,1/2-y,z
1/2+x,1/2-y,-z
1/2-x,1/2+y,-z
1/2-x,1/2-y,-z
1/2+x,1/2+y,-z
1/2-x,1/2+y,z
1/2+x,1/2-y,z
loop_
_atom_site_type_symbol
_atom_site_label
_atom_site_fract_x
_atom_site_fract_y
_atom_site_fract_z
Si Si1 0.762125 0.096866 0.616211
Si Si2 0.000000 0.403653 0.704792
Si Si3 0.860566 0.000000 0.783967
Si Si4 0.746179 0.652087 0.724458
Si Si5 0.647756 0.500000 0.892086
Si Si6 0.000000 0.340030 0.399057
Si Si7 0.500000 0.348055 0.441933
Si Si8 0.354921 0.679610 0.058503
O O1 0.780056 0.155598 0.665155
O O2 0.631252 0.113546 0.586951
O O3 0.875513 0.108245 0.578748
O O4 0.760633 0.000000 0.636838
O O5 0.879465 0.390045 0.737988
O O6 0.000000 0.332257 0.660716
O O7 0.000000 0.500000 0.680985
O O8 0.847408 0.911198 0.752509
O O9 0.789056 0.000000 0.836653
O O10 0.000000 0.000000 0.801902
O O11 0.750000 0.750000 0.745029
O O12 0.500000 0.500000 0.892230
O O13 0.691501 0.587806 0.919276
O O14 0.000000 0.251249 0.427777
O O15 0.500000 0.361413 0.500000
O O16 0.500000 0.702835 0.074792
O O17 0.250000 0.750000 0.076131
O O18 0.351195 0.670515 0.000000
#
# Coordination Sequence:
#
# PCOD8267016 Si02
#       8
#    16   8   8  16   8   8   8  16
#     4  11  22  40  64  88 115 145 188 236 283 343
#     4  10  18  38  61  85 115 140 188 242 282 342
#     4  11  24  38  55  88 122 157 199 246 292 349
#     4  11  22  37  61  87 114 148 191 241 290 344
#     4   9  19  36  55  77 121 165 202 243 298 360
#     4  10  20  39  62  87 109 147 186 223 281 332
#     4  12  27  42  58  87 122 151 182 228 287 351
#     4   9  17  32  59  89 117 157 210 259 305 354
#
# _framework density 19.719778000000002
#
# number of rings (size 3 to 8) (size 9 to 14) (size 15 to 20)
#    0.000    1.636    1.818    5.182    2.545    4.000 
#    0.000    0.455    4.000    5.182    0.000    0.000 
#    0.000    0.000    0.000    0.000    0.000    0.000 
#
# Total GULP energy -545108.869488 kJ/mol
# GULP energy per Si atom -12388.837943 kJ/mol
# Density = 1.967490 g / cm^3
# Si number density = 19.719778 Si / 1000 Ang^3
#
#
#
# Elastic Constant Matrix: (Units=GPa)
#
#
# Indices 1 2 3 4 5 6 
#
# 1 122.9283 42.1330 29.6303 0.0000 0.0000 0.0000
# 2 42.1330 147.2616 37.5971 0.0000 0.0000 0.0000
# 3 29.6303 37.5971 55.8453 0.0000 0.0000 0.0000
# 4 0.0000 0.0000 0.0000 20.8949 0.0000 0.0000
# 5 0.0000 0.0000 0.0000 0.0000 14.5461 0.0000
# 6 0.0000 0.0000 0.0000 0.0000 0.0000 35.8340
#
#
#
# Elastic Compliance Matrix: (Units=1/GPa)
#
#
# Indices 1 2 3 4 5 6 
#
# 1 0.009693 -0.001763 -0.003956 0.000000 0.000000 0.000000
# 2 -0.001763 0.008521 -0.004801 0.000000 0.000000 0.000000
# 3 -0.003956 -0.004801 0.023238 0.000000 0.000000 0.000000
# 4 0.000000 0.000000 0.000000 0.047859 0.000000 0.000000
# 5 0.000000 0.000000 0.000000 0.000000 0.068747 0.000000
# 6 0.000000 0.000000 0.000000 0.000000 0.000000 0.027906
#
#
# Mechanical properties :
#
#
# Convention : Reuss Voigt Hill
#
# Bulk Modulus (GPa) = 48.99238 60.52842 54.76040
# Shear Modulus (GPa) = 23.38561 28.69999 26.04280
#
# Velocity S-wave (km/s) = 3.44742 3.81910 3.63801
# Velocity P-wave (km/s) = 6.38314 7.08578 6.74362
#
# Compressibility (1/GPa) = 0.02041134
#
# Stress axis : x y z
#
# Youngs Moduli (GPa) = 103.17130 117.35913 43.03373
#
# Poissons Ratio (x) = 0.20693 0.17022
# Poissons Ratio (y) = 0.18192 0.20661
# Poissons Ratio (z) = 0.40810 0.56344
#
# Static dielectric constant tensor:
#      x y z
#    x 3.839690 0.000000 0.000000 
#    y 0.000000 3.711630 0.000000 
#    z 0.000000 0.000000 3.257120 
# 
# 
# High freq. dielectric constant tensor:
#      x y z
#    x 1.775370 0.000000 0.000000 
#    y 0.000000 1.777400 0.000000 
#    z 0.000000 0.000000 1.733910 
# 
# From -- ./inp_files/74338.got.cif
#   From: 2010.03.12/outbox.cif.g09.slc.cpg/sg65_38_cif.got.tgz:74338.got - 2010.04.10 20:52:16.
