data_PCOD8267729
_publ_section_title
;
Structure prediction by ZEFSAII (Michael W. Deem and Ramdas Pophale) SiO2 
 PCOD8267729
Probable space group: C M M M
;
_chemical_formula_sum "Si O2"
_cell_formula_units_Z 104
_cell_length_a 27.385478
_cell_length_b 9.116821
_cell_length_c 26.328762
_cell_angle_alpha 90.000000
_cell_angle_beta 90.000000
_cell_angle_gamma 90.000000
_cell_volume 6573.462540
_symmetry_space_group_name_H-M "C M M M"
_symmetry_group_IT_number 65
_symmetry_cell_setting 'orthorhombic'
loop_
_space_group_symop_operation_xyz
x,y,z
-x,-y,z
x,-y,-z
-x,y,-z
-x,-y,-z
x,y,-z
-x,y,z
x,-y,z
1/2+x,1/2+y,z
1/2-x,1/2-y,z
1/2+x,1/2-y,-z
1/2-x,1/2+y,-z
1/2-x,1/2-y,-z
1/2+x,1/2+y,-z
1/2-x,1/2+y,z
1/2+x,1/2-y,z
loop_
_atom_site_type_symbol
_atom_site_label
_atom_site_fract_x
_atom_site_fract_y
_atom_site_fract_z
Si Si1 0.801861 0.172154 0.890307
Si Si2 0.056134 0.832158 0.441288
Si Si3 0.386690 0.828002 0.642823
Si Si4 0.699894 0.668490 0.000000
Si Si5 0.361378 0.329126 0.794809
Si Si6 0.801565 0.172493 0.694900
Si Si7 0.055067 0.671604 0.257120
O O1 0.750000 0.250000 0.884264
O O2 0.838895 0.230534 0.847550
O O3 0.792675 0.000000 0.882227
O O4 0.826621 0.205797 0.946160
O O5 0.069783 0.811987 0.500000
O O6 0.090564 0.723881 0.410023
O O7 0.000000 0.788364 0.431881
O O8 0.064976 0.000000 0.424337
O O9 0.336638 0.740588 0.652101
O O10 0.425000 0.789257 0.687152
O O11 0.375170 0.000000 0.640395
O O12 0.750000 0.750000 0.000000
O O13 0.713952 0.500000 0.000000
O O14 0.373067 0.500000 0.797325
O O15 0.323113 0.292400 0.750382
O O16 0.412515 0.248069 0.786014
O O17 0.750000 0.250000 0.690165
O O18 0.795931 0.000000 0.685371
O O19 0.057179 0.500000 0.246969
O O20 0.000000 0.731744 0.253184
#
# Coordination Sequence:
#
# PCOD8267729 Si02
#       7
#    16  16  16   8  16  16  16
#     4   9  16  26  40  60  86 114 144 176 212 254
#     4   9  18  32  49  70  96 123 149 179 217 259
#     4  10  19  31  48  69  92 118 148 181 217 259
#     4   8  14  24  38  56  81 112 141 173 212 253
#     4   9  18  29  42  63  88 114 145 179 215 257
#     4  10  19  31  46  65  90 119 150 182 217 257
#     4   9  18  31  45  63  88 115 143 177 217 259
#
# _framework density 15.82119
#
# number of rings (size 3 to 8) (size 9 to 14) (size 15 to 20)
#    0.000    2.769    0.000    2.308    0.000    3.385 
#    0.000    0.769    0.000    0.462    0.000    0.538 
#    0.000    4.308    0.000    0.000    0.000    0.000 
#
# Total GULP energy -644616.419356 kJ/mol
# GULP energy per Si atom -12396.469603 kJ/mol
# Density = 1.578518 g / cm^3
# Si number density = 15.821190 Si / 1000 Ang^3
#
#
#
# Elastic Constant Matrix: (Units=GPa)
#
#
# Indices 1 2 3 4 5 6 
#
# 1 117.5744 47.8930 54.7045 0.0000 0.0000 0.0000
# 2 47.8930 57.0128 38.8037 0.0000 0.0000 0.0000
# 3 54.7045 38.8037 100.0300 0.0000 0.0000 0.0000
# 4 0.0000 0.0000 0.0000 20.8682 0.0000 0.0000
# 5 0.0000 0.0000 0.0000 0.0000 24.5098 0.0000
# 6 0.0000 0.0000 0.0000 0.0000 0.0000 28.9124
#
#
#
# Elastic Compliance Matrix: (Units=1/GPa)
#
#
# Indices 1 2 3 4 5 6 
#
# 1 0.014144 -0.008990 -0.004247 0.000000 0.000000 0.000000
# 2 -0.008990 0.029547 -0.006545 0.000000 0.000000 0.000000
# 3 -0.004247 -0.006545 0.014859 0.000000 0.000000 0.000000
# 4 0.000000 0.000000 0.000000 0.047920 0.000000 0.000000
# 5 0.000000 0.000000 0.000000 0.000000 0.040800 0.000000
# 6 0.000000 0.000000 0.000000 0.000000 0.000000 0.034587
#
#
# Mechanical properties :
#
#
# Convention : Reuss Voigt Hill
#
# Bulk Modulus (GPa) = 52.67720 61.93551 57.30635
# Shear Modulus (GPa) = 21.95391 23.73916 22.84654
#
# Velocity S-wave (km/s) = 3.72913 3.87779 3.80418
# Velocity P-wave (km/s) = 7.20482 7.69947 7.45625
#
# Compressibility (1/GPa) = 0.01898355
#
# Stress axis : x y z
#
# Youngs Moduli (GPa) = 70.70348 33.84447 67.30034
#
# Poissons Ratio (x) = 0.30427 0.28584
# Poissons Ratio (y) = 0.63565 0.44049
# Poissons Ratio (z) = 0.30030 0.22152
#
# Static dielectric constant tensor:
#      x y z
#    x 2.885380 0.000000 0.000000 
#    y 0.000000 2.994070 0.000000 
#    z 0.000000 0.000000 3.235250 
# 
# 
# High freq. dielectric constant tensor:
#      x y z
#    x 1.585650 0.000000 0.000000 
#    y 0.000000 1.612710 0.000000 
#    z 0.000000 0.000000 1.604220 
# 
# From -- ./inp_files/75989.got.cif
#   From: 2010.03.12/outbox.cif.g09.slc.cpg/sg65_38_cif.got.tgz:75989.got - 2010.04.10 20:52:16.
