data_PCOD8267811
_publ_section_title
;
Structure prediction by ZEFSAII (Michael W. Deem and Ramdas Pophale) SiO2 
 PCOD8267811
Probable space group: C M M M
;
_chemical_formula_sum "Si O2"
_cell_formula_units_Z 96
_cell_length_a 15.066443
_cell_length_b 23.824813
_cell_length_c 15.269161
_cell_angle_alpha 90.000000
_cell_angle_beta 90.000000
_cell_angle_gamma 90.000000
_cell_volume 5480.944543
_symmetry_space_group_name_H-M "C M M M"
_symmetry_group_IT_number 65
_symmetry_cell_setting 'orthorhombic'
loop_
_space_group_symop_operation_xyz
x,y,z
-x,-y,z
x,-y,-z
-x,y,-z
-x,-y,-z
x,y,-z
-x,y,z
x,-y,z
1/2+x,1/2+y,z
1/2-x,1/2-y,z
1/2+x,1/2-y,-z
1/2-x,1/2+y,-z
1/2-x,1/2-y,-z
1/2+x,1/2+y,-z
1/2-x,1/2+y,z
1/2+x,1/2-y,z
loop_
_atom_site_type_symbol
_atom_site_label
_atom_site_fract_x
_atom_site_fract_y
_atom_site_fract_z
Si Si1 0.149813 0.867232 0.098972
Si Si2 0.337236 0.128427 0.162048
Si Si3 0.897400 0.565989 0.500000
Si Si4 0.896970 0.258064 0.899615
Si Si5 0.500000 0.939958 0.099021
Si Si6 0.097155 0.064192 0.261667
Si Si7 0.714442 0.934044 0.669340
O O1 0.250836 0.887317 0.106115
O O2 0.148268 0.801213 0.120659
O O3 0.094494 0.900066 0.172126
O O4 0.113514 0.878726 0.000000
O O5 0.354432 0.195274 0.163679
O O6 0.416116 0.097522 0.115921
O O7 0.331032 0.105305 0.259654
O O8 0.907956 0.500000 0.500000
O O9 0.836349 0.584944 0.581591
O O10 0.000000 0.590898 0.500000
O O11 0.000000 0.251557 0.879299
O O12 0.879809 0.276359 0.000000
O O13 0.500000 0.000000 0.151675
O O14 0.500000 0.957067 0.000000
O O15 0.178482 0.079174 0.328522
O O16 0.000000 0.073504 0.307449
O O17 0.108420 0.000000 0.232252
O O18 0.698310 0.000000 0.688189
#
# Coordination Sequence:
#
# PCOD8267811 Si02
#       7
#    16  16   8  16   8  16  16
#     4  10  20  32  48  70  98 135 178 219 258 296
#     4  11  20  32  48  67  96 132 171 210 256 304
#     4   9  18  32  53  77 102 129 160 202 254 312
#     4  10  19  31  47  68  96 129 172 221 260 295
#     4  11  22  32  44  65  97 137 174 207 247 301
#     4   9  18  33  51  72 101 133 166 209 258 305
#     4   9  19  34  51  75 102 129 163 206 256 317
#
# _framework density 17.515228
#
# number of rings (size 3 to 8) (size 9 to 14) (size 15 to 20)
#    0.000    2.167    0.833    3.000    1.167    3.333 
#    0.000    1.250    0.000    2.500    0.000    9.333 
#    0.000    0.000    0.000    0.000    0.000    0.000 
#
# Total GULP energy -594765.094337 kJ/mol
# GULP energy per Si atom -12390.939465 kJ/mol
# Density = 1.747536 g / cm^3
# Si number density = 17.515228 Si / 1000 Ang^3
#
#
#
# Elastic Constant Matrix: (Units=GPa)
#
#
# Indices 1 2 3 4 5 6 
#
# 1 123.9605 28.3287 50.1812 0.0000 0.0000 0.0000
# 2 28.3287 61.5479 34.6640 0.0000 0.0000 0.0000
# 3 50.1812 34.6640 93.5042 0.0000 0.0000 0.0000
# 4 0.0000 0.0000 0.0000 -4.0060 0.0000 0.0000
# 5 0.0000 0.0000 0.0000 0.0000 25.8736 0.0000
# 6 0.0000 0.0000 0.0000 0.0000 0.0000 18.5233
#
#
#
# Elastic Compliance Matrix: (Units=1/GPa)
#
#
# Indices 1 2 3 4 5 6 
#
# 1 0.010517 -0.002100 -0.004865 0.000000 0.000000 0.000000
# 2 -0.002100 0.020955 -0.006641 0.000000 0.000000 0.000000
# 3 -0.004865 -0.006641 0.015768 0.000000 0.000000 0.000000
# 4 0.000000 0.000000 0.000000 -0.249625 0.000000 0.000000
# 5 0.000000 0.000000 0.000000 0.000000 0.038649 0.000000
# 6 0.000000 0.000000 0.000000 0.000000 0.000000 0.053986
#
#
# Mechanical properties :
#
#
# Convention : Reuss Voigt Hill
#
# Bulk Modulus (GPa) = 49.93656 56.15115 53.04386
# Shear Modulus (GPa) = -65.90926 19.13408 -23.38759
#
# Velocity S-wave (km/s) = -6.14096 3.30877 -3.65810
# Velocity P-wave (km/s) = 4.65935 6.83560 3.53665
#
# Compressibility (1/GPa) = 0.02002541
#
# Stress axis : x y z
#
# Youngs Moduli (GPa) = 95.08725 47.72241 63.42031
#
# Poissons Ratio (x) = 0.10023 0.30856
# Poissons Ratio (y) = 0.19971 0.42118
# Poissons Ratio (z) = 0.46264 0.31693
#
# Static dielectric constant tensor:
#      x y z
#    x 6.387340 0.000000 0.000000 
#    y 0.000000 3.246320 0.000000 
#    z 0.000000 0.000000 3.020260 
# 
# 
# High freq. dielectric constant tensor:
#      x y z
#    x 1.702300 0.000000 0.000000 
#    y 0.000000 1.667650 0.000000 
#    z 0.000000 0.000000 1.634560 
# 
# From -- ./inp_files/40687.got.cif
#   From: 2010.03.12/outbox.cif.g09.slc.cpg/sg65_21_cif.got.tgz:40687.got - 2010.04.10 20:52:16.
