data_PCOD8267344
_publ_section_title
;
Structure prediction by ZEFSAII (Michael W. Deem and Ramdas Pophale) SiO2 
 PCOD8267344
Probable space group: C M M M
;
_chemical_formula_sum "Si O2"
_cell_formula_units_Z 88
_cell_length_a 27.543757
_cell_length_b 20.364305
_cell_length_c 9.105250
_cell_angle_alpha 90.000000
_cell_angle_beta 90.000000
_cell_angle_gamma 90.000000
_cell_volume 5107.220937
_symmetry_space_group_name_H-M "C M M M"
_symmetry_group_IT_number 65
_symmetry_cell_setting 'orthorhombic'
loop_
_space_group_symop_operation_xyz
x,y,z
-x,-y,z
x,-y,-z
-x,y,-z
-x,-y,-z
x,y,-z
-x,y,z
x,-y,z
1/2+x,1/2+y,z
1/2-x,1/2-y,z
1/2+x,1/2-y,-z
1/2-x,1/2+y,-z
1/2-x,1/2-y,-z
1/2+x,1/2+y,-z
1/2-x,1/2+y,z
1/2+x,1/2-y,z
loop_
_atom_site_type_symbol
_atom_site_label
_atom_site_fract_x
_atom_site_fract_y
_atom_site_fract_z
Si Si1 0.445015 0.870931 0.171672
Si Si2 0.222180 0.356933 0.331630
Si Si3 0.669594 0.500000 0.169943
Si Si4 0.140008 0.278159 0.169882
Si Si5 0.765500 0.500000 0.335314
Si Si6 0.175810 0.859799 0.827173
Si Si7 0.442262 0.000000 0.334861
O O1 0.500000 0.854640 0.221802
O O2 0.412036 0.808369 0.214360
O O3 0.423576 0.934689 0.253656
O O4 0.443106 0.886633 0.000000
O O5 0.228006 0.336113 0.500000
O O6 0.182769 0.310609 0.260308
O O7 0.203675 0.432959 0.317138
O O8 0.274006 0.346263 0.255680
O O9 0.726450 0.500000 0.205910
O O10 0.650507 0.571176 0.230250
O O11 0.659083 0.500000 0.000000
O O12 0.138870 0.200103 0.203785
O O13 0.151178 0.291667 0.000000
O O14 0.741457 0.500000 0.500000
O O15 0.187827 0.865596 0.000000
O O16 0.500000 0.000000 0.331672
O O17 0.421670 0.000000 0.500000
#
# Coordination Sequence:
#
# PCOD8267344 Si02
#       7
#    16  16   8  16   8  16   8
#     4   9  18  33  50  66  86 115 151 186 219 260
#     4  10  19  30  44  63  89 119 148 178 213 255
#     4   8  14  26  45  63  79 107 144 176 206 246
#     4  10  20  31  44  64  88 114 144 180 221 260
#     4   8  16  29  41  56  82 115 146 175 206 240
#     4   9  17  30  46  64  87 114 145 179 214 255
#     4   9  17  30  49  70  90 114 145 184 227 262
#
# _framework density 17.230505999999998
#
# number of rings (size 3 to 8) (size 9 to 14) (size 15 to 20)
#    0.000    2.818    0.000    1.364    0.000    6.182 
#    0.000    1.818    0.000    0.000    0.000    0.636 
#    0.000    5.091    0.000    0.000    0.000   43.182 
#
# Total GULP energy -545077.580795 kJ/mol
# GULP energy per Si atom -12388.126836 kJ/mol
# Density = 1.719129 g / cm^3
# Si number density = 17.230506 Si / 1000 Ang^3
#
#
#
# Elastic Constant Matrix: (Units=GPa)
#
#
# Indices 1 2 3 4 5 6 
#
# 1 57.6362 61.8581 25.5260 0.0000 0.0000 0.0000
# 2 61.8581 177.2107 42.1429 0.0000 0.0000 0.0000
# 3 25.5260 42.1429 45.4947 0.0000 0.0000 0.0000
# 4 0.0000 0.0000 0.0000 17.4505 0.0000 0.0000
# 5 0.0000 0.0000 0.0000 0.0000 7.2268 0.0000
# 6 0.0000 0.0000 0.0000 0.0000 0.0000 18.0253
#
#
#
# Elastic Compliance Matrix: (Units=1/GPa)
#
#
# Indices 1 2 3 4 5 6 
#
# 1 0.030538 -0.008446 -0.009311 0.000000 0.000000 0.000000
# 2 -0.008446 0.009573 -0.004129 0.000000 0.000000 0.000000
# 3 -0.009311 -0.004129 0.031030 0.000000 0.000000 0.000000
# 4 0.000000 0.000000 0.000000 0.057305 0.000000 0.000000
# 5 0.000000 0.000000 0.000000 0.000000 0.138373 0.000000
# 6 0.000000 0.000000 0.000000 0.000000 0.000000 0.055477
#
#
# Mechanical properties :
#
#
# Convention : Reuss Voigt Hill
#
# Bulk Modulus (GPa) = 36.53691 59.93286 48.23488
# Shear Modulus (GPa) = 13.32657 18.59485 15.96071
#
# Velocity S-wave (km/s) = 2.78408 3.28865 3.04683
# Velocity P-wave (km/s) = 5.62011 7.01989 6.35863
#
# Compressibility (1/GPa) = 0.02736958
#
# Stress axis : x y z
#
# Youngs Moduli (GPa) = 32.74616 104.46058 32.22729
#
# Poissons Ratio (x) = 0.88222 0.30006
# Poissons Ratio (y) = 0.27656 0.13307
# Poissons Ratio (z) = 0.30489 0.43133
#
# Static dielectric constant tensor:
#      x y z
#    x 2.864900 0.000000 0.000000 
#    y 0.000000 3.828490 0.000000 
#    z 0.000000 0.000000 3.258620 
# 
# 
# High freq. dielectric constant tensor:
#      x y z
#    x 1.606730 0.000000 0.000000 
#    y 0.000000 1.686240 0.000000 
#    z 0.000000 0.000000 1.664730 
# 
# From -- ./inp_files/14068.got.cif
#   From: 2010.03.12/outbox.cif.g09.slc.cpg/sg65_8_cif.got.tgz:14068.got - 2010.04.10 20:52:16.
