data_PCOD8267668
_publ_section_title
;
Structure prediction by ZEFSAII (Michael W. Deem and Ramdas Pophale) SiO2 
 PCOD8267668
Probable space group: C M M M
;
_chemical_formula_sum "Si O2"
_cell_formula_units_Z 88
_cell_length_a 20.897495
_cell_length_b 24.682678
_cell_length_c 8.340036
_cell_angle_alpha 90.000000
_cell_angle_beta 90.000000
_cell_angle_gamma 90.000000
_cell_volume 4301.841777
_symmetry_space_group_name_H-M "C M M M"
_symmetry_group_IT_number 65
_symmetry_cell_setting 'orthorhombic'
loop_
_space_group_symop_operation_xyz
x,y,z
-x,-y,z
x,-y,-z
-x,y,-z
-x,-y,-z
x,y,-z
-x,y,z
x,-y,z
1/2+x,1/2+y,z
1/2-x,1/2-y,z
1/2+x,1/2-y,-z
1/2-x,1/2+y,-z
1/2-x,1/2-y,-z
1/2+x,1/2+y,-z
1/2-x,1/2+y,z
1/2+x,1/2-y,z
loop_
_atom_site_type_symbol
_atom_site_label
_atom_site_fract_x
_atom_site_fract_y
_atom_site_fract_z
Si Si1 0.313356 0.781415 0.308947
Si Si2 0.000000 0.562358 0.812015
Si Si3 0.301238 0.000000 0.815012
Si Si4 0.867649 0.604763 0.687472
Si Si5 0.836068 0.000000 0.691217
Si Si6 0.569878 0.408502 0.309711
Si Si7 0.570457 0.288228 0.309260
O O1 0.309510 0.780205 0.500000
O O2 0.250000 0.750000 0.241118
O O3 0.325984 0.843320 0.249118
O O4 0.374933 0.750134 0.239257
O O5 0.061903 0.597332 0.761926
O O6 0.000000 0.500000 0.739990
O O7 0.000000 0.556364 0.000000
O O8 0.326612 0.052419 0.725609
O O9 0.225875 0.000000 0.799392
O O10 0.323221 0.000000 0.000000
O O11 0.878268 0.611719 0.500000
O O12 0.875125 0.947923 0.750488
O O13 0.821722 0.000000 0.500000
O O14 0.569069 0.408607 0.500000
O O15 0.500000 0.427862 0.248040
O O16 0.584361 0.348518 0.244525
O O17 0.572918 0.287939 0.500000
O O18 0.500000 0.268631 0.251708
#
# Coordination Sequence:
#
# PCOD8267668 Si02
#       7
#    16   8   8  16   8  16  16
#     4   9  19  32  51  83 122 152 182 236 300 347
#     4  11  23  41  65  91 126 166 192 233 304 369
#     4  12  26  42  56  77 116 159 193 231 292 358
#     4  11  23  39  64  93 117 148 198 250 293 347
#     4  10  19  30  53  83 110 141 188 241 283 335
#     4   8  14  25  45  77 113 144 177 227 287 337
#     4   8  14  25  42  68 109 150 177 213 279 346
#
# _framework density 20.456354000000001
#
# number of rings (size 3 to 8) (size 9 to 14) (size 15 to 20)
#    0.000    2.455    0.909    3.000    3.818    1.455 
#    0.000    0.000    0.000    3.273    0.000    0.000 
#    0.000    0.000    0.000    0.000    0.000    0.000 
#
# Total GULP energy -545196.774249 kJ/mol
# GULP energy per Si atom -12390.835778 kJ/mol
# Density = 2.040979 g / cm^3
# Si number density = 20.456354 Si / 1000 Ang^3
#
#
#
# Elastic Constant Matrix: (Units=GPa)
#
#
# Indices 1 2 3 4 5 6 
#
# 1 169.8462 96.3679 8.0856 0.0000 0.0000 0.0000
# 2 96.3679 157.1466 10.0335 0.0000 0.0000 0.0000
# 3 8.0856 10.0335 26.1150 0.0000 0.0000 0.0000
# 4 0.0000 0.0000 0.0000 3.6532 0.0000 0.0000
# 5 0.0000 0.0000 0.0000 0.0000 1.3039 0.0000
# 6 0.0000 0.0000 0.0000 0.0000 0.0000 41.7259
#
#
#
# Elastic Compliance Matrix: (Units=1/GPa)
#
#
# Indices 1 2 3 4 5 6 
#
# 1 0.009041 -0.005501 -0.000686 0.000000 0.000000 0.000000
# 2 -0.005501 0.009870 -0.002089 0.000000 0.000000 0.000000
# 3 -0.000686 -0.002089 0.039307 0.000000 0.000000 0.000000
# 4 0.000000 0.000000 0.000000 0.273734 0.000000 0.000000
# 5 0.000000 0.000000 0.000000 0.000000 0.766902 0.000000
# 6 0.000000 0.000000 0.000000 0.000000 0.000000 0.023966
#
#
# Mechanical properties :
#
#
# Convention : Reuss Voigt Hill
#
# Bulk Modulus (GPa) = 23.99962 64.67574 44.33768
# Shear Modulus (GPa) = 4.33553 25.24467 14.79010
#
# Velocity S-wave (km/s) = 1.45740 3.51675 2.69180
# Velocity P-wave (km/s) = 3.81963 6.94083 5.60200
#
# Compressibility (1/GPa) = 0.04166732
#
# Stress axis : x y z
#
# Youngs Moduli (GPa) = 110.60343 101.31646 25.44061
#
# Poissons Ratio (x) = 0.55731 0.01745
# Poissons Ratio (y) = 0.60839 0.05315
# Poissons Ratio (z) = 0.07587 0.21166
#
# Static dielectric constant tensor:
#      x y z
#    x 4.061560 0.000000 0.000000 
#    y 0.000000 4.188070 0.000000 
#    z 0.000000 0.000000 3.063510 
# 
# 
# High freq. dielectric constant tensor:
#      x y z
#    x 1.814070 0.000000 0.000000 
#    y 0.000000 1.811180 0.000000 
#    z 0.000000 0.000000 1.737550 
# 
# From -- ./inp_files/11912.got.cif
#   From: 2010.03.12/outbox.cif.g09.slc.cpg/sg65_6_cif.got.tgz:11912.got - 2010.04.10 20:52:16.
