data_PCOD8267262
_publ_section_title
;
Structure prediction by ZEFSAII (Michael W. Deem and Ramdas Pophale) SiO2 
 PCOD8267262
Probable space group: C M M M
;
_chemical_formula_sum "Si O2"
_cell_formula_units_Z 72
_cell_length_a 19.274156
_cell_length_b 14.306880
_cell_length_c 14.586725
_cell_angle_alpha 90.000000
_cell_angle_beta 90.000000
_cell_angle_gamma 90.000000
_cell_volume 4022.333719
_symmetry_space_group_name_H-M "C M M M"
_symmetry_group_IT_number 65
_symmetry_cell_setting 'orthorhombic'
loop_
_space_group_symop_operation_xyz
x,y,z
-x,-y,z
x,-y,-z
-x,y,-z
-x,-y,-z
x,y,-z
-x,y,z
x,-y,z
1/2+x,1/2+y,z
1/2-x,1/2-y,z
1/2+x,1/2-y,-z
1/2-x,1/2+y,-z
1/2-x,1/2-y,-z
1/2+x,1/2+y,-z
1/2-x,1/2+y,z
1/2+x,1/2-y,z
loop_
_atom_site_type_symbol
_atom_site_label
_atom_site_fract_x
_atom_site_fract_y
_atom_site_fract_z
Si Si1 0.851747 0.611236 0.100736
Si Si2 0.304019 0.889754 0.708563
Si Si3 0.921000 0.721883 0.606759
Si Si4 0.500000 0.100619 0.892787
Si Si5 0.331288 0.605544 0.394557
O O1 0.860481 0.500000 0.094499
O O2 0.799637 0.637935 0.183054
O O3 0.927672 0.654462 0.129364
O O4 0.826692 0.648707 0.000000
O O5 0.372005 0.847315 0.662243
O O6 0.233227 0.852994 0.663144
O O7 0.309708 0.000000 0.694244
O O8 0.915603 0.695873 0.500000
O O9 0.897599 0.829206 0.623155
O O10 0.000000 0.711373 0.641980
O O11 0.500000 0.000000 0.840983
O O12 0.500000 0.081904 0.000000
O O13 0.307870 0.608085 0.500000
O O14 0.350873 0.500000 0.364359
#
# Coordination Sequence:
#
# PCOD8267262 Si02
#       5
#    16  16  16   8  16
#     4   8  14  24  39  62  92 125 160 192 221 262
#     4  10  19  29  47  73 101 131 156 182 228 290
#     4  10  21  34  48  69  96 125 158 197 237 278
#     4   7  10  18  32  50  77 115 152 181 209 245
#     4   9  18  34  54  71  88 118 162 204 239 276
#
# _framework density 17.900055999999999
#
# number of rings (size 3 to 8) (size 9 to 14) (size 15 to 20)
#    0.000    3.000    0.000    2.667    1.556    4.000 
#    0.000    3.333    0.000    2.667    0.000    0.000 
#    0.000    0.000    0.000   10.667    0.000    0.444 
#
# Total GULP energy -445984.749634 kJ/mol
# GULP energy per Si atom -12388.465268 kJ/mol
# Density = 1.785931 g / cm^3
# Si number density = 17.900056 Si / 1000 Ang^3
#
#
#
# Elastic Constant Matrix: (Units=GPa)
#
#
# Indices 1 2 3 4 5 6 
#
# 1 68.0174 11.8153 28.4016 0.0000 0.0000 0.0000
# 2 11.8153 28.9068 10.8979 0.0000 0.0000 0.0000
# 3 28.4016 10.8979 69.4135 0.0000 0.0000 0.0000
# 4 0.0000 0.0000 0.0000 10.8660 0.0000 0.0000
# 5 0.0000 0.0000 0.0000 0.0000 15.2243 0.0000
# 6 0.0000 0.0000 0.0000 0.0000 0.0000 19.7089
#
#
#
# Elastic Compliance Matrix: (Units=1/GPa)
#
#
# Indices 1 2 3 4 5 6 
#
# 1 0.018380 -0.004972 -0.006740 0.000000 0.000000 0.000000
# 2 -0.004972 0.038115 -0.003950 0.000000 0.000000 0.000000
# 3 -0.006740 -0.003950 0.017784 0.000000 0.000000 0.000000
# 4 0.000000 0.000000 0.000000 0.092030 0.000000 0.000000
# 5 0.000000 0.000000 0.000000 0.000000 0.065684 0.000000
# 6 0.000000 0.000000 0.000000 0.000000 0.000000 0.050739
#
#
# Mechanical properties :
#
#
# Convention : Reuss Voigt Hill
#
# Bulk Modulus (GPa) = 23.27929 29.84080 26.56004
# Shear Modulus (GPa) = 15.22651 16.84136 16.03393
#
# Velocity S-wave (km/s) = 2.91974 3.07066 2.99615
# Velocity P-wave (km/s) = 4.93962 5.41100 5.18068
#
# Compressibility (1/GPa) = 0.04295663
#
# Stress axis : x y z
#
# Youngs Moduli (GPa) = 54.40663 26.23633 56.22938
#
# Poissons Ratio (x) = 0.13044 0.37898
# Poissons Ratio (y) = 0.27049 0.22210
# Poissons Ratio (z) = 0.36670 0.10363
#
# Static dielectric constant tensor:
#      x y z
#    x 3.439780 0.000000 0.000000 
#    y 0.000000 3.005220 0.000000 
#    z 0.000000 0.000000 3.486860 
# 
# 
# High freq. dielectric constant tensor:
#      x y z
#    x 1.683170 0.000000 0.000000 
#    y 0.000000 1.654550 0.000000 
#    z 0.000000 0.000000 1.691230 
# 
# From -- ./inp_files/39756.got.cif
#   From: 2010.03.12/outbox.cif.g09.slc.cpg/sg65_20_cif.got.tgz:39756.got - 2010.04.10 20:52:16.
