data_PCOD8267436
_publ_section_title
;
Structure prediction by ZEFSAII (Michael W. Deem and Ramdas Pophale) SiO2 
 PCOD8267436
Probable space group: C M M M
;
_chemical_formula_sum "Si O2"
_cell_formula_units_Z 104
_cell_length_a 9.115528
_cell_length_b 24.016484
_cell_length_c 27.413266
_cell_angle_alpha 90.000000
_cell_angle_beta 90.000000
_cell_angle_gamma 90.000000
_cell_volume 6001.392578
_symmetry_space_group_name_H-M "C M M M"
_symmetry_group_IT_number 65
_symmetry_cell_setting 'orthorhombic'
loop_
_space_group_symop_operation_xyz
x,y,z
-x,-y,z
x,-y,-z
-x,y,-z
-x,-y,-z
x,y,-z
-x,y,z
x,-y,z
1/2+x,1/2+y,z
1/2-x,1/2-y,z
1/2+x,1/2-y,-z
1/2-x,1/2+y,-z
1/2-x,1/2-y,-z
1/2+x,1/2+y,-z
1/2-x,1/2+y,z
1/2+x,1/2-y,z
loop_
_atom_site_type_symbol
_atom_site_label
_atom_site_fract_x
_atom_site_fract_y
_atom_site_fract_z
Si Si1 0.170309 0.934374 0.192124
Si Si2 0.670065 0.904127 0.712305
Si Si3 0.165837 0.433815 0.904963
Si Si4 0.160920 0.000000 0.659574
Si Si5 0.831139 0.692539 0.640836
Si Si6 0.333637 0.566436 0.000000
Si Si7 0.233355 0.000000 0.554320
Si Si8 0.667565 0.878265 0.447570
O O1 0.250983 0.902767 0.235708
O O2 0.245339 0.913683 0.142354
O O3 0.000000 0.917951 0.190434
O O4 0.191757 0.000000 0.200207
O O5 0.500000 0.921680 0.718138
O O6 0.748652 0.946183 0.675433
O O7 0.685337 0.842633 0.690282
O O8 0.162546 0.500000 0.906845
O O9 0.000000 0.410194 0.903568
O O10 0.249159 0.410493 0.952528
O O11 0.127256 0.000000 0.601278
O O12 0.000000 0.000000 0.685209
O O13 0.750000 0.750000 0.648211
O O14 0.758442 0.657227 0.595981
O O15 0.000000 0.705406 0.630045
O O16 0.334833 0.500000 0.000000
O O17 0.500000 0.589215 0.000000
O O18 0.330177 0.944669 0.560355
O O19 0.155979 0.000000 0.500000
O O20 0.742314 0.863181 0.500000
O O21 0.500000 0.860344 0.448849
#
# Coordination Sequence:
#
# PCOD8267436 Si02
#       8
#    16  16  16   8  16   8   8  16
#     4  10  19  30  45  69  98 126 160 202 253 300
#     4  11  22  36  54  74  98 128 165 204 247 300
#     4   9  16  25  38  57  85 124 168 208 247 292
#     4  12  23  34  52  78 104 129 157 197 250 301
#     4  10  22  38  55  75  97 127 165 206 246 294
#     4   9  15  23  35  53  81 121 168 215 254 287
#     4  10  19  33  53  77 106 132 159 194 244 300
#     4   9  17  31  53  79 103 128 160 197 239 291
#
# _framework density 17.329311000000001
#
# number of rings (size 3 to 8) (size 9 to 14) (size 15 to 20)
#    0.000    2.077    2.308    2.077    0.000    6.615 
#    0.000    0.000    0.000    0.000    0.000    0.000 
#    0.000    0.000    0.000    0.692    0.000    9.462 
#
# Total GULP energy -644481.986630 kJ/mol
# GULP energy per Si atom -12393.884358 kJ/mol
# Density = 1.728987 g / cm^3
# Si number density = 17.329311 Si / 1000 Ang^3
#
#
#
# Elastic Constant Matrix: (Units=GPa)
#
#
# Indices 1 2 3 4 5 6 
#
# 1 125.9370 37.0320 70.6931 0.0000 0.0000 0.0000
# 2 37.0320 71.7894 37.6214 0.0000 0.0000 0.0000
# 3 70.6931 37.6214 158.4496 0.0000 0.0000 0.0000
# 4 0.0000 0.0000 0.0000 7.0984 0.0000 0.0000
# 5 0.0000 0.0000 0.0000 0.0000 20.9894 0.0000
# 6 0.0000 0.0000 0.0000 0.0000 0.0000 16.9176
#
#
#
# Elastic Compliance Matrix: (Units=1/GPa)
#
#
# Indices 1 2 3 4 5 6 
#
# 1 0.011380 -0.003666 -0.004207 0.000000 0.000000 0.000000
# 2 -0.003666 0.017090 -0.002422 0.000000 0.000000 0.000000
# 3 -0.004207 -0.002422 0.008763 0.000000 0.000000 0.000000
# 4 0.000000 0.000000 0.000000 0.140876 0.000000 0.000000
# 5 0.000000 0.000000 0.000000 0.000000 0.047643 0.000000
# 6 0.000000 0.000000 0.000000 0.000000 0.000000 0.059110
#
#
# Mechanical properties :
#
#
# Convention : Reuss Voigt Hill
#
# Bulk Modulus (GPa) = 60.08366 71.87434 65.97900
# Shear Modulus (GPa) = 16.07720 23.05638 19.56679
#
# Velocity S-wave (km/s) = 3.04920 3.65154 3.36388
# Velocity P-wave (km/s) = 6.86613 7.70350 7.29684
#
# Compressibility (1/GPa) = 0.01664346
#
# Stress axis : x y z
#
# Youngs Moduli (GPa) = 87.87504 58.51407 114.11369
#
# Poissons Ratio (x) = 0.21449 0.48006
# Poissons Ratio (y) = 0.32211 0.27642
# Poissons Ratio (z) = 0.36967 0.14174
#
# Static dielectric constant tensor:
#      x y z
#    x 3.199020 0.000000 0.000000 
#    y 0.000000 2.743020 0.000000 
#    z 0.000000 0.000000 3.512200 
# 
# 
# High freq. dielectric constant tensor:
#      x y z
#    x 1.668200 0.000000 0.000000 
#    y 0.000000 1.607290 0.000000 
#    z 0.000000 0.000000 1.685360 
# 
# From -- ./inp_files/73640.got.cif
#   From: 2010.03.12/outbox.cif.g09.slc.cpg/sg65_37_cif.got.tgz:73640.got - 2010.04.10 20:52:16.
