data_PCOD8267862
_publ_section_title
;
Structure prediction by ZEFSAII (Michael W. Deem and Ramdas Pophale) SiO2 
 PCOD8267862
Probable space group: C M M M
;
_chemical_formula_sum "Si O2"
_cell_formula_units_Z 96
_cell_length_a 25.548252
_cell_length_b 18.371151
_cell_length_c 12.189458
_cell_angle_alpha 90.000000
_cell_angle_beta 90.000000
_cell_angle_gamma 90.000000
_cell_volume 5721.131806
_symmetry_space_group_name_H-M "C M M M"
_symmetry_group_IT_number 65
_symmetry_cell_setting 'orthorhombic'
loop_
_space_group_symop_operation_xyz
x,y,z
-x,-y,z
x,-y,-z
-x,y,-z
-x,-y,-z
x,y,-z
-x,y,z
x,-y,z
1/2+x,1/2+y,z
1/2-x,1/2-y,z
1/2+x,1/2-y,-z
1/2-x,1/2+y,-z
1/2-x,1/2-y,-z
1/2+x,1/2+y,-z
1/2-x,1/2+y,z
1/2+x,1/2-y,z
loop_
_atom_site_type_symbol
_atom_site_label
_atom_site_fract_x
_atom_site_fract_y
_atom_site_fract_z
Si Si1 0.248736 0.667025 0.630252
Si Si2 0.163306 0.419875 0.000000
Si Si3 0.940318 0.814392 0.372838
Si Si4 0.161127 0.412939 0.239220
Si Si5 0.349608 0.581092 0.629990
Si Si6 0.556478 0.860322 0.000000
Si Si7 0.440813 0.172392 0.761800
O O1 0.245821 0.664746 0.500000
O O2 0.250000 0.750000 0.672790
O O3 0.198170 0.625047 0.673447
O O4 0.300490 0.626851 0.675385
O O5 0.179399 0.383829 0.883175
O O6 0.186822 0.500000 0.000000
O O7 0.099838 0.423411 0.000000
O O8 0.930680 0.795044 0.500000
O O9 0.903519 0.880442 0.334182
O O10 0.924466 0.744187 0.303412
O O11 0.000000 0.838390 0.351345
O O12 0.165185 0.500000 0.247265
O O13 0.101152 0.390614 0.266100
O O14 0.346076 0.576340 0.500000
O O15 0.348513 0.500000 0.681073
O O16 0.561682 0.809591 0.108045
O O17 0.500000 0.900047 0.000000
O O18 0.500000 0.147563 0.728143
#
# Coordination Sequence:
#
# PCOD8267862 Si02
#       7
#    16   8  16  16  16   8  16
#     4  10  20  33  49  68  90 118 153 190 227 268
#     4   8  16  29  43  63  90 118 146 181 228 271
#     4   9  17  29  46  68  93 119 144 175 222 274
#     4  10  19  31  48  68  92 121 152 187 226 268
#     4   9  17  29  45  66  91 116 146 185 223 261
#     4   8  14  25  42  63  85 113 152 191 219 250
#     4   9  17  29  45  66  92 121 153 186 220 261
#
# _framework density 16.779896000000001
#
# number of rings (size 3 to 8) (size 9 to 14) (size 15 to 20)
#    0.000    2.833    0.000    1.500    0.000    3.833 
#    0.000    5.417    0.000    1.000    0.000    5.250 
#    0.000    3.333    0.000    0.000    0.000    0.000 
#
# Total GULP energy -594737.191368 kJ/mol
# GULP energy per Si atom -12390.358153 kJ/mol
# Density = 1.674170 g / cm^3
# Si number density = 16.779896 Si / 1000 Ang^3
#
#
#
# Elastic Constant Matrix: (Units=GPa)
#
#
# Indices 1 2 3 4 5 6 
#
# 1 96.8366 58.6057 26.9258 0.0000 0.0000 0.0000
# 2 58.6057 117.3666 30.8395 0.0000 0.0000 0.0000
# 3 26.9258 30.8395 33.1167 0.0000 0.0000 0.0000
# 4 0.0000 0.0000 0.0000 13.1729 0.0000 0.0000
# 5 0.0000 0.0000 0.0000 0.0000 20.4893 0.0000
# 6 0.0000 0.0000 0.0000 0.0000 0.0000 29.0621
#
#
#
# Elastic Compliance Matrix: (Units=1/GPa)
#
#
# Indices 1 2 3 4 5 6 
#
# 1 0.016061 -0.006075 -0.007401 0.000000 0.000000 0.000000
# 2 -0.006075 0.013579 -0.007705 0.000000 0.000000 0.000000
# 3 -0.007401 -0.007705 0.043389 0.000000 0.000000 0.000000
# 4 0.000000 0.000000 0.000000 0.075913 0.000000 0.000000
# 5 0.000000 0.000000 0.000000 0.000000 0.048806 0.000000
# 6 0.000000 0.000000 0.000000 0.000000 0.000000 0.034409
#
#
# Mechanical properties :
#
#
# Convention : Reuss Voigt Hill
#
# Bulk Modulus (GPa) = 32.60991 53.34021 42.97506
# Shear Modulus (GPa) = 17.55968 21.27481 19.41725
#
# Velocity S-wave (km/s) = 3.23843 3.56459 3.40542
# Velocity P-wave (km/s) = 5.78441 6.98562 6.41320
#
# Compressibility (1/GPa) = 0.03066553
#
# Stress axis : x y z
#
# Youngs Moduli (GPa) = 62.26096 73.64524 23.04712
#
# Poissons Ratio (x) = 0.44742 0.17058
# Poissons Ratio (y) = 0.37825 0.17759
# Poissons Ratio (z) = 0.46081 0.56746
#
# Static dielectric constant tensor:
#      x y z
#    x 3.236190 0.000000 0.000000 
#    y 0.000000 3.105160 0.000000 
#    z 0.000000 0.000000 3.131900 
# 
# 
# High freq. dielectric constant tensor:
#      x y z
#    x 1.653170 0.000000 0.000000 
#    y 0.000000 1.629000 0.000000 
#    z 0.000000 0.000000 1.626160 
# 
# From -- ./inp_files/32457.got.cif
#   From: 2010.03.12/outbox.cif.g09.slc.cpg/sg65_17_cif.got.tgz:32457.got - 2010.04.10 20:52:16.
