data_PCOD8267319
_publ_section_title
;
Structure prediction by ZEFSAII (Michael W. Deem and Ramdas Pophale) SiO2 
 PCOD8267319
Probable space group: C M M M
;
_chemical_formula_sum "Si O2"
_cell_formula_units_Z 104
_cell_length_a 27.007471
_cell_length_b 9.206211
_cell_length_c 27.140873
_cell_angle_alpha 90.000000
_cell_angle_beta 90.000000
_cell_angle_gamma 90.000000
_cell_volume 6748.211035
_symmetry_space_group_name_H-M "C M M M"
_symmetry_group_IT_number 65
_symmetry_cell_setting 'orthorhombic'
loop_
_space_group_symop_operation_xyz
x,y,z
-x,-y,z
x,-y,-z
-x,y,-z
-x,-y,-z
x,y,-z
-x,y,z
x,-y,z
1/2+x,1/2+y,z
1/2-x,1/2-y,z
1/2+x,1/2-y,-z
1/2-x,1/2+y,-z
1/2-x,1/2-y,-z
1/2+x,1/2+y,-z
1/2-x,1/2+y,z
1/2+x,1/2-y,z
loop_
_atom_site_type_symbol
_atom_site_label
_atom_site_fract_x
_atom_site_fract_y
_atom_site_fract_z
Si Si1 0.944966 0.832218 0.655205
Si Si2 0.555753 0.826569 0.157243
Si Si3 0.398555 0.830529 0.743062
Si Si4 0.558876 0.836934 0.947824
Si Si5 0.846825 0.830676 0.602953
Si Si6 0.198182 0.169232 0.500000
Si Si7 0.201461 0.329605 0.308939
O O1 0.935394 0.745201 0.705088
O O2 0.904538 0.792603 0.613309
O O3 0.000000 0.794236 0.635132
O O4 0.940694 0.000000 0.669343
O O5 0.500000 0.770868 0.167666
O O6 0.590756 0.772379 0.201727
O O7 0.576371 0.763960 0.104206
O O8 0.555832 0.000000 0.153590
O O9 0.341738 0.795953 0.730180
O O10 0.410139 0.000000 0.739132
O O11 0.500000 0.841696 0.944959
O O12 0.579881 0.000000 0.950268
O O13 0.575121 0.758296 0.000000
O O14 0.834574 0.786611 0.547154
O O15 0.811888 0.735708 0.637898
O O16 0.835828 0.000000 0.613079
O O17 0.250000 0.250000 0.500000
O O18 0.210467 0.000000 0.500000
O O19 0.211264 0.500000 0.315088
O O20 0.250000 0.250000 0.288191
#
# Coordination Sequence:
#
# PCOD8267319 Si02
#       7
#    16  16  16  16  16   8  16
#     4   9  17  29  44  61  83 110 135 159 189 225
#     4   8  12  18  30  49  74 102 128 155 187 222
#     4   9  17  27  40  59  80 103 133 165 195 231
#     4   7   9  13  22  39  66  99 128 150 179 222
#     4   9  18  32  47  64  85 106 130 159 191 230
#     4  10  20  32  47  65  83 103 128 162 201 236
#     4  10  19  30  44  61  80 103 130 160 197 238
#
# _framework density 15.411492000000001
#
# number of rings (size 3 to 8) (size 9 to 14) (size 15 to 20)
#    0.000    3.231    0.000    2.769    0.000    3.385 
#    0.000    0.385    0.000    2.308    0.000    0.000 
#    0.000    6.769    0.000    6.154    0.000    5.538 
#
# Total GULP energy -644205.370134 kJ/mol
# GULP energy per Si atom -12388.564810 kJ/mol
# Density = 1.537641 g / cm^3
# Si number density = 15.411492 Si / 1000 Ang^3
#
#
#
# Elastic Constant Matrix: (Units=GPa)
#
#
# Indices 1 2 3 4 5 6 
#
# 1 92.4377 27.9890 62.2377 0.0000 0.0000 0.0000
# 2 27.9890 30.1719 29.1469 0.0000 0.0000 0.0000
# 3 62.2377 29.1469 161.5488 0.0000 0.0000 0.0000
# 4 0.0000 0.0000 0.0000 9.0157 0.0000 0.0000
# 5 0.0000 0.0000 0.0000 0.0000 16.3898 0.0000
# 6 0.0000 0.0000 0.0000 0.0000 0.0000 16.8851
#
#
#
# Elastic Compliance Matrix: (Units=1/GPa)
#
#
# Indices 1 2 3 4 5 6 
#
# 1 0.017487 -0.011764 -0.004614 0.000000 0.000000 0.000000
# 2 -0.011764 0.048054 -0.004138 0.000000 0.000000 0.000000
# 3 -0.004614 -0.004138 0.008714 0.000000 0.000000 0.000000
# 4 0.000000 0.000000 0.000000 0.110917 0.000000 0.000000
# 5 0.000000 0.000000 0.000000 0.000000 0.061014 0.000000
# 6 0.000000 0.000000 0.000000 0.000000 0.000000 0.059224
#
#
# Mechanical properties :
#
#
# Convention : Reuss Voigt Hill
#
# Bulk Modulus (GPa) = 30.10022 58.10061 44.10042
# Shear Modulus (GPa) = 13.98537 19.44378 16.71458
#
# Velocity S-wave (km/s) = 3.01568 3.55581 3.29683
# Velocity P-wave (km/s) = 5.63021 7.39187 6.57035
#
# Compressibility (1/GPa) = 0.03322235
#
# Stress axis : x y z
#
# Youngs Moduli (GPa) = 57.18519 20.81011 114.75298
#
# Poissons Ratio (x) = 0.24481 0.52953
# Poissons Ratio (y) = 0.67273 0.47481
# Poissons Ratio (z) = 0.26388 0.08611
#
# Static dielectric constant tensor:
#      x y z
#    x 2.921270 0.000000 0.000000 
#    y 0.000000 2.718720 0.000000 
#    z 0.000000 0.000000 3.363810 
# 
# 
# High freq. dielectric constant tensor:
#      x y z
#    x 1.566400 0.000000 0.000000 
#    y 0.000000 1.561580 0.000000 
#    z 0.000000 0.000000 1.595180 
# 
# From -- ./inp_files/75982.got.cif
#   From: 2010.03.12/outbox.cif.g09.slc.cpg/sg65_38_cif.got.tgz:75982.got - 2010.04.10 20:52:16.
