data_PCOD8267934
_publ_section_title
;
Structure prediction by ZEFSAII (Michael W. Deem and Ramdas Pophale) SiO2 
 PCOD8267934
Probable space group: C M M M
;
_chemical_formula_sum "Si O2"
_cell_formula_units_Z 104
_cell_length_a 22.776465
_cell_length_b 32.935929
_cell_length_c 7.779448
_cell_angle_alpha 90.000000
_cell_angle_beta 90.000000
_cell_angle_gamma 90.000000
_cell_volume 5835.862095
_symmetry_space_group_name_H-M "C M M M"
_symmetry_group_IT_number 65
_symmetry_cell_setting 'orthorhombic'
loop_
_space_group_symop_operation_xyz
x,y,z
-x,-y,z
x,-y,-z
-x,y,-z
-x,-y,-z
x,y,-z
-x,y,z
x,-y,z
1/2+x,1/2+y,z
1/2-x,1/2-y,z
1/2+x,1/2-y,-z
1/2-x,1/2+y,-z
1/2-x,1/2-y,-z
1/2+x,1/2+y,-z
1/2-x,1/2+y,z
1/2+x,1/2-y,z
loop_
_atom_site_type_symbol
_atom_site_label
_atom_site_fract_x
_atom_site_fract_y
_atom_site_fract_z
Si Si1 0.218635 0.954904 0.700179
Si Si2 0.611750 0.403516 0.302095
Si Si3 0.069832 0.235559 0.500000
Si Si4 0.654207 0.954940 0.797871
Si Si5 0.931405 0.384540 0.198254
Si Si6 0.432236 0.319981 0.191523
Si Si7 0.500000 0.547639 0.799914
Si Si8 0.569362 0.825950 0.500000
O O1 0.205817 0.958260 0.500000
O O2 0.169278 0.925272 0.779308
O O3 0.283525 0.937115 0.733697
O O4 0.213916 0.000000 0.784098
O O5 0.620985 0.391792 0.500000
O O6 0.602872 0.361984 0.199055
O O7 0.557297 0.433782 0.286911
O O8 0.092249 0.212388 0.329180
O O9 0.097165 0.280838 0.500000
O O10 0.000000 0.238160 0.500000
O O11 0.602459 0.924918 0.740383
O O12 0.643182 0.000000 0.718231
O O13 0.655663 0.958196 0.000000
O O14 0.910531 0.348635 0.325262
O O15 0.000000 0.393924 0.220315
O O16 0.916750 0.372634 0.000000
O O17 0.500000 0.330008 0.233045
O O18 0.425039 0.301493 0.000000
O O19 0.500000 0.500000 0.764365
O O20 0.500000 0.558513 0.000000
O O21 0.500000 0.822543 0.500000
#
# Coordination Sequence:
#
# PCOD8267934 Si02
#       8
#    16  16   8  16  16  16   8   8
#     4   9  19  33  48  68  95 130 173 217 253 290
#     4  11  20  32  49  67  95 131 171 215 261 309
#     4   9  18  32  50  72 100 132 163 200 251 310
#     4   9  18  32  50  73 102 138 175 208 245 287
#     4   9  18  32  51  78 111 140 167 203 245 292
#     4  10  19  31  48  72  99 128 164 207 258 309
#     4  11  23  33  43  65  95 131 175 216 261 313
#     4   9  18  32  51  77 105 135 169 199 243 306
#
# _framework density 17.820847000000001
#
# number of rings (size 3 to 8) (size 9 to 14) (size 15 to 20)
#    0.000    2.385    1.538    1.154    1.077    3.385 
#    0.000    6.154    0.000    1.385    0.000    2.154 
#    0.000    3.692    0.000    0.000    0.000    0.000 
#
# Total GULP energy -644699.643575 kJ/mol
# GULP energy per Si atom -12398.070069 kJ/mol
# Density = 1.778029 g / cm^3
# Si number density = 17.820847 Si / 1000 Ang^3
#
#
#
# Elastic Constant Matrix: (Units=GPa)
#
#
# Indices 1 2 3 4 5 6 
#
# 1 75.4894 53.5490 25.6236 0.0000 0.0000 0.0000
# 2 53.5490 130.9533 52.1434 0.0000 0.0000 0.0000
# 3 25.6236 52.1434 78.6386 0.0000 0.0000 0.0000
# 4 0.0000 0.0000 0.0000 22.2143 0.0000 0.0000
# 5 0.0000 0.0000 0.0000 0.0000 18.5421 0.0000
# 6 0.0000 0.0000 0.0000 0.0000 0.0000 3.4949
#
#
#
# Elastic Compliance Matrix: (Units=1/GPa)
#
#
# Indices 1 2 3 4 5 6 
#
# 1 0.018771 -0.007120 -0.001395 0.000000 0.000000 0.000000
# 2 -0.007120 0.013077 -0.006351 0.000000 0.000000 0.000000
# 3 -0.001395 -0.006351 0.017382 0.000000 0.000000 0.000000
# 4 0.000000 0.000000 0.000000 0.045016 0.000000 0.000000
# 5 0.000000 0.000000 0.000000 0.000000 0.053931 0.000000
# 6 0.000000 0.000000 0.000000 0.000000 0.000000 0.286130
#
#
# Mechanical properties :
#
#
# Convention : Reuss Voigt Hill
#
# Bulk Modulus (GPa) = 51.28837 60.85703 56.07270
# Shear Modulus (GPa) = 10.62611 19.10128 14.86370
#
# Velocity S-wave (km/s) = 2.44452 3.27746 2.89115
# Velocity P-wave (km/s) = 6.06713 6.96749 6.53284
#
# Compressibility (1/GPa) = 0.01949760
#
# Stress axis : x y z
#
# Youngs Moduli (GPa) = 53.27268 76.47161 57.53069
#
# Poissons Ratio (x) = 0.54451 0.08026
# Poissons Ratio (y) = 0.37932 0.36536
# Poissons Ratio (z) = 0.07432 0.48565
#
# Static dielectric constant tensor:
#      x y z
#    x 3.159890 0.000000 0.000000 
#    y 0.000000 3.486920 0.000000 
#    z 0.000000 0.000000 3.348990 
# 
# 
# High freq. dielectric constant tensor:
#      x y z
#    x 1.656630 0.000000 0.000000 
#    y 0.000000 1.676370 0.000000 
#    z 0.000000 0.000000 1.697910 
# 
# From -- ./inp_files/12854.got.cif
#   From: 2010.03.12/outbox.cif.g09.slc.cpg/sg65_7_cif.got.tgz:12854.got - 2010.04.10 20:52:16.
