data_PCOD8267496
_publ_section_title
;
Structure prediction by ZEFSAII (Michael W. Deem and Ramdas Pophale) SiO2 
 PCOD8267496
Probable space group: C M M M
;
_chemical_formula_sum "Si O2"
_cell_formula_units_Z 72
_cell_length_a 8.847605
_cell_length_b 18.934754
_cell_length_c 23.117037
_cell_angle_alpha 90.000000
_cell_angle_beta 90.000000
_cell_angle_gamma 90.000000
_cell_volume 3872.733040
_symmetry_space_group_name_H-M "C M M M"
_symmetry_group_IT_number 65
_symmetry_cell_setting 'orthorhombic'
loop_
_space_group_symop_operation_xyz
x,y,z
-x,-y,z
x,-y,-z
-x,y,-z
-x,-y,-z
x,y,-z
-x,y,z
x,-y,z
1/2+x,1/2+y,z
1/2-x,1/2-y,z
1/2+x,1/2-y,-z
1/2-x,1/2+y,-z
1/2-x,1/2-y,-z
1/2+x,1/2+y,-z
1/2-x,1/2+y,z
1/2+x,1/2-y,z
loop_
_atom_site_type_symbol
_atom_site_label
_atom_site_fract_x
_atom_site_fract_y
_atom_site_fract_z
Si Si1 0.319898 0.826423 0.668497
Si Si2 0.820497 0.421029 0.564115
Si Si3 0.324320 0.082222 0.902361
Si Si4 0.177465 0.826665 0.000000
Si Si5 0.179014 0.422004 0.772193
O O1 0.500000 0.821437 0.668361
O O2 0.250000 0.750000 0.668209
O O3 0.257299 0.867425 0.612071
O O4 0.258288 0.866663 0.725448
O O5 0.767076 0.396633 0.500000
O O6 0.759580 0.500000 0.577071
O O7 0.000000 0.422288 0.566987
O O8 0.500000 0.099009 0.913251
O O9 0.275754 0.101615 0.836864
O O10 0.292069 0.000000 0.915163
O O11 0.224656 0.130514 0.943317
O O12 0.250000 0.750000 0.000000
O O13 0.000000 0.816828 0.000000
O O14 0.245719 0.500000 0.758862
O O15 0.000000 0.426575 0.767687
#
# Coordination Sequence:
#
# PCOD8267496 Si02
#       5
#    16  16  16   8  16
#     4  10  19  30  46  70 100 130 160 197 242 290
#     4   8  14  26  46  70  92 119 162 210 245 277
#     4   9  18  35  58  80 102 129 163 204 250 299
#     4  12  25  38  53  75 105 137 169 204 245 294
#     4   8  15  30  53  76  95 123 165 205 238 279
#
# _framework density 18.591521
#
# number of rings (size 3 to 8) (size 9 to 14) (size 15 to 20)
#    0.000    2.889    0.000    4.000    0.000    5.778 
#    0.000    3.333    0.000    4.000    0.000    1.556 
#    0.000    0.000    0.000    0.000    0.000    0.000 
#
# Total GULP energy -446256.122800 kJ/mol
# GULP energy per Si atom -12396.003411 kJ/mol
# Density = 1.854921 g / cm^3
# Si number density = 18.591521 Si / 1000 Ang^3
#
#
#
# Elastic Constant Matrix: (Units=GPa)
#
#
# Indices 1 2 3 4 5 6 
#
# 1 46.9616 41.4010 39.8632 0.0000 0.0000 0.0000
# 2 41.4010 150.5219 113.2028 0.0000 0.0000 0.0000
# 3 39.8632 113.2028 180.3796 0.0000 0.0000 0.0000
# 4 0.0000 0.0000 0.0000 16.6265 0.0000 0.0000
# 5 0.0000 0.0000 0.0000 0.0000 12.5303 0.0000
# 6 0.0000 0.0000 0.0000 0.0000 0.0000 29.7504
#
#
#
# Elastic Compliance Matrix: (Units=1/GPa)
#
#
# Indices 1 2 3 4 5 6 
#
# 1 0.028757 -0.005928 -0.002635 0.000000 0.000000 0.000000
# 2 -0.005928 0.013804 -0.007353 0.000000 0.000000 0.000000
# 3 -0.002635 -0.007353 0.010741 0.000000 0.000000 0.000000
# 4 0.000000 0.000000 0.000000 0.060145 0.000000 0.000000
# 5 0.000000 0.000000 0.000000 0.000000 0.079807 0.000000
# 6 0.000000 0.000000 0.000000 0.000000 0.000000 0.033613
#
#
# Mechanical properties :
#
#
# Convention : Reuss Voigt Hill
#
# Bulk Modulus (GPa) = 46.57725 85.19967 65.88846
# Shear Modulus (GPa) = 18.80728 24.00784 21.40756
#
# Velocity S-wave (km/s) = 3.18402 3.59741 3.39701
# Velocity P-wave (km/s) = 6.21488 7.94870 7.13465
#
# Compressibility (1/GPa) = 0.02146971
#
# Stress axis : x y z
#
# Youngs Moduli (GPa) = 34.77471 72.44230 93.10246
#
# Poissons Ratio (x) = 0.42943 0.24531
# Poissons Ratio (y) = 0.20614 0.68460
# Poissons Ratio (z) = 0.09163 0.53268
#
# Static dielectric constant tensor:
#      x y z
#    x 2.882990 0.000000 0.000000 
#    y 0.000000 3.509880 0.000000 
#    z 0.000000 0.000000 3.874090 
# 
# 
# High freq. dielectric constant tensor:
#      x y z
#    x 1.666480 0.000000 0.000000 
#    y 0.000000 1.721950 0.000000 
#    z 0.000000 0.000000 1.741570 
# 
# From -- ./inp_files/67104.got.cif
#   From: 2010.03.12/outbox.cif.g09.slc.cpg/sg65_34_cif.got.tgz:67104.got - 2010.04.10 20:52:16.
