data_PCOD8267619
_publ_section_title
;
Structure prediction by ZEFSAII (Michael W. Deem and Ramdas Pophale) SiO2 
 PCOD8267619
Probable space group: C M M M
;
_chemical_formula_sum "Si O2"
_cell_formula_units_Z 88
_cell_length_a 18.536317
_cell_length_b 9.100643
_cell_length_c 28.473515
_cell_angle_alpha 90.000000
_cell_angle_beta 90.000000
_cell_angle_gamma 90.000000
_cell_volume 4803.265683
_symmetry_space_group_name_H-M "C M M M"
_symmetry_group_IT_number 65
_symmetry_cell_setting 'orthorhombic'
loop_
_space_group_symop_operation_xyz
x,y,z
-x,-y,z
x,-y,-z
-x,y,-z
-x,-y,-z
x,y,-z
-x,y,z
x,-y,z
1/2+x,1/2+y,z
1/2-x,1/2-y,z
1/2+x,1/2-y,-z
1/2-x,1/2+y,-z
1/2-x,1/2-y,-z
1/2+x,1/2+y,-z
1/2-x,1/2+y,z
1/2+x,1/2-y,z
loop_
_atom_site_type_symbol
_atom_site_label
_atom_site_fract_x
_atom_site_fract_y
_atom_site_fract_z
Si Si1 0.673032 0.825359 0.588980
Si Si2 0.326192 0.828103 0.848975
Si Si3 0.583267 0.670552 0.666545
Si Si4 0.415534 0.664085 0.773967
Si Si5 0.918969 0.674018 0.500000
Si Si6 0.325402 0.829167 0.950428
O O1 0.750000 0.750000 0.583491
O O2 0.634773 0.774367 0.636528
O O3 0.623479 0.771280 0.545875
O O4 0.683136 0.000000 0.589736
O O5 0.250000 0.750000 0.842790
O O6 0.379450 0.779617 0.808303
O O7 0.362682 0.788590 0.900368
O O8 0.313004 0.000000 0.843737
O O9 0.500000 0.710170 0.656326
O O10 0.597679 0.500000 0.654728
O O11 0.603065 0.704358 0.720408
O O12 0.500000 0.672751 0.782118
O O13 0.387492 0.500000 0.785308
O O14 0.923792 0.500000 0.500000
O O15 0.000000 0.741201 0.500000
O O16 0.250000 0.750000 0.951795
O O17 0.308275 0.000000 0.949844
O O18 0.367860 0.789904 0.000000
#
# Coordination Sequence:
#
# PCOD8267619 Si02
#       6
#    16  16  16  16   8  16
#     4  11  22  36  56  81 111 143 173 210 255 300
#     4  10  19  30  48  74 101 129 164 207 251 299
#     4   9  19  37  58  78 101 131 170 213 256 305
#     4   9  19  36  55  73  98 133 168 207 256 304
#     4   9  19  36  57  81 108 139 176 215 254 298
#     4   8  14  25  41  63  92 124 158 198 245 294
#
# _framework density 18.320868000000001
#
# number of rings (size 3 to 8) (size 9 to 14) (size 15 to 20)
#    0.000    2.636    0.000    3.000    0.000    3.636 
#    0.000    3.182    0.000    3.818    0.000    3.818 
#    0.000    0.000    0.000    0.000    0.000    0.000 
#
# Total GULP energy -545173.861186 kJ/mol
# GULP energy per Si atom -12390.315027 kJ/mol
# Density = 1.827917 g / cm^3
# Si number density = 18.320868 Si / 1000 Ang^3
#
#
#
# Elastic Constant Matrix: (Units=GPa)
#
#
# Indices 1 2 3 4 5 6 
#
# 1 85.6546 40.4792 71.3219 0.0000 0.0000 0.0000
# 2 40.4792 67.2713 55.6305 0.0000 0.0000 0.0000
# 3 71.3219 55.6305 151.9610 0.0000 0.0000 0.0000
# 4 0.0000 0.0000 0.0000 24.9870 0.0000 0.0000
# 5 0.0000 0.0000 0.0000 0.0000 -0.8062 0.0000
# 6 0.0000 0.0000 0.0000 0.0000 0.0000 22.5029
#
#
#
# Elastic Compliance Matrix: (Units=1/GPa)
#
#
# Indices 1 2 3 4 5 6 
#
# 1 0.020930 -0.006412 -0.007476 0.000000 0.000000 0.000000
# 2 -0.006412 0.023284 -0.005514 0.000000 0.000000 0.000000
# 3 -0.007476 -0.005514 0.012108 0.000000 0.000000 0.000000
# 4 0.000000 0.000000 0.000000 0.040021 0.000000 0.000000
# 5 0.000000 0.000000 0.000000 0.000000 -1.240317 0.000000
# 6 0.000000 0.000000 0.000000 0.000000 0.000000 0.044439
#
#
# Mechanical properties :
#
#
# Convention : Reuss Voigt Hill
#
# Bulk Modulus (GPa) = 57.08683 71.08333 64.08508
# Shear Modulus (GPa) = -4.73982 18.50042 6.88030
#
# Velocity S-wave (km/s) = -1.61020 3.18118 1.94000
# Velocity P-wave (km/s) = 5.26974 7.23717 6.33035
#
# Compressibility (1/GPa) = 0.01751717
#
# Stress axis : x y z
#
# Youngs Moduli (GPa) = 47.77814 42.94885 82.58842
#
# Poissons Ratio (x) = 0.27538 0.61744
# Poissons Ratio (y) = 0.30634 0.45542
# Poissons Ratio (z) = 0.35720 0.23684
#
# Static dielectric constant tensor:
#      x y z
#    x 3.090350 0.000000 0.000000 
#    y 0.000000 3.211890 0.000000 
#    z 0.000000 0.000000 3.920230 
# 
# 
# High freq. dielectric constant tensor:
#      x y z
#    x 1.679450 0.000000 0.000000 
#    y 0.000000 1.706060 0.000000 
#    z 0.000000 0.000000 1.736220 
# 
# From -- ./inp_files/77870.got.cif
#   From: 2010.03.12/outbox.cif.g09.slc.cpg/sg65_39_cif.got.tgz:77870.got - 2010.04.10 20:52:16.
