data_PCOD8267604
_publ_section_title
;
Structure prediction by ZEFSAII (Michael W. Deem and Ramdas Pophale) SiO2 
 PCOD8267604
Probable space group: C M M M
;
_chemical_formula_sum "Si O2"
_cell_formula_units_Z 88
_cell_length_a 14.684785
_cell_length_b 16.499395
_cell_length_c 18.001184
_cell_angle_alpha 90.000000
_cell_angle_beta 90.000000
_cell_angle_gamma 90.000000
_cell_volume 4361.508099
_symmetry_space_group_name_H-M "C M M M"
_symmetry_group_IT_number 65
_symmetry_cell_setting 'orthorhombic'
loop_
_space_group_symop_operation_xyz
x,y,z
-x,-y,z
x,-y,-z
-x,y,-z
-x,-y,-z
x,y,-z
-x,y,z
x,-y,z
1/2+x,1/2+y,z
1/2-x,1/2-y,z
1/2+x,1/2-y,-z
1/2-x,1/2+y,-z
1/2-x,1/2-y,-z
1/2+x,1/2+y,-z
1/2-x,1/2+y,z
1/2+x,1/2-y,z
loop_
_atom_site_type_symbol
_atom_site_label
_atom_site_fract_x
_atom_site_fract_y
_atom_site_fract_z
Si Si1 0.597601 0.409453 0.834061
Si Si2 0.234038 0.654860 0.417794
Si Si3 0.599725 0.645210 0.324151
Si Si4 0.394483 0.830073 0.711192
Si Si5 0.398099 0.096297 0.000000
Si Si6 0.704475 0.902804 0.853885
O O1 0.500000 0.365641 0.856308
O O2 0.593079 0.500000 0.865952
O O3 0.603979 0.415471 0.744866
O O4 0.691284 0.369305 0.863644
O O5 0.215200 0.618742 0.500000
O O6 0.250000 0.750000 0.423554
O O7 0.326723 0.616776 0.384615
O O8 0.149344 0.633185 0.364266
O O9 0.500000 0.644111 0.362523
O O10 0.619835 0.733865 0.289695
O O11 0.500000 0.855813 0.714564
O O12 0.342312 0.864865 0.782018
O O13 0.348206 0.128175 0.073593
O O14 0.500000 0.131440 0.000000
O O15 0.398899 0.000000 0.000000
O O16 0.703439 0.000000 0.845597
#
# Coordination Sequence:
#
# PCOD8267604 Si02
#       6
#    16  16  16  16   8  16
#     4   9  17  30  50  74  97 123 158 199 241 288
#     4   9  17  29  45  69  99 128 161 202 244 286
#     4   9  17  30  49  72  96 125 161 204 247 288
#     4  10  19  30  48  72  96 129 166 201 243 291
#     4   9  18  32  49  72 101 129 161 203 240 277
#     4  10  19  32  52  75  99 129 163 199 242 290
#
# _framework density 20.176506
#
# number of rings (size 3 to 8) (size 9 to 14) (size 15 to 20)
#    0.000    2.636    1.818    0.545    0.000    1.818 
#    0.000    4.091    0.000    7.091    0.000    7.636 
#    0.000    0.000    0.000    0.000    0.000    0.000 
#
# Total GULP energy -545157.944245 kJ/mol
# GULP energy per Si atom -12389.953278 kJ/mol
# Density = 2.013058 g / cm^3
# Si number density = 20.176506 Si / 1000 Ang^3
#
#
#
# Elastic Constant Matrix: (Units=GPa)
#
#
# Indices 1 2 3 4 5 6 
#
# 1 217.1587 13.8313 84.8765 0.0000 0.0000 0.0000
# 2 13.8313 16.1431 9.7632 0.0000 0.0000 0.0000
# 3 84.8765 9.7632 134.4251 0.0000 0.0000 0.0000
# 4 0.0000 0.0000 0.0000 16.1980 0.0000 0.0000
# 5 0.0000 0.0000 0.0000 0.0000 29.8468 0.0000
# 6 0.0000 0.0000 0.0000 0.0000 0.0000 17.5699
#
#
#
# Elastic Compliance Matrix: (Units=1/GPa)
#
#
# Indices 1 2 3 4 5 6 
#
# 1 0.006259 -0.003109 -0.003726 0.000000 0.000000 0.000000
# 2 -0.003109 0.066337 -0.002855 0.000000 0.000000 0.000000
# 3 -0.003726 -0.002855 0.009999 0.000000 0.000000 0.000000
# 4 0.000000 0.000000 0.000000 0.061736 0.000000 0.000000
# 5 0.000000 0.000000 0.000000 0.000000 0.033504 0.000000
# 6 0.000000 0.000000 0.000000 0.000000 0.000000 0.056916
#
#
# Mechanical properties :
#
#
# Convention : Reuss Voigt Hill
#
# Bulk Modulus (GPa) = 15.81920 64.96324 40.39122
# Shear Modulus (GPa) = 18.16836 30.00666 24.08751
#
# Velocity S-wave (km/s) = 3.00404 3.86062 3.45895
# Velocity P-wave (km/s) = 4.45980 7.22079 6.00123
#
# Compressibility (1/GPa) = 0.06321431
#
# Stress axis : x y z
#
# Youngs Moduli (GPa) = 159.75888 15.07464 100.00714
#
# Poissons Ratio (x) = 0.04687 0.37267
# Poissons Ratio (y) = 0.49675 0.28549
# Poissons Ratio (z) = 0.59533 0.04303
#
# Static dielectric constant tensor:
#      x y z
#    x 4.207020 0.000000 0.000000 
#    y 0.000000 3.203490 0.000000 
#    z 0.000000 0.000000 3.631480 
# 
# 
# High freq. dielectric constant tensor:
#      x y z
#    x 1.814570 0.000000 0.000000 
#    y 0.000000 1.737240 0.000000 
#    z 0.000000 0.000000 1.768070 
# 
# From -- ./inp_files/52974.got.cif
#   From: 2010.03.12/outbox.cif.g09.slc.cpg/sg65_27_cif.got.tgz:52974.got - 2010.04.10 20:52:16.
