data_PCOD8267980
_publ_section_title
;
Structure prediction by ZEFSAII (Michael W. Deem and Ramdas Pophale) SiO2 
 PCOD8267980
Probable space group: C M M M
;
_chemical_formula_sum "Si O2"
_cell_formula_units_Z 104
_cell_length_a 9.293427
_cell_length_b 25.852467
_cell_length_c 22.948280
_cell_angle_alpha 90.000000
_cell_angle_beta 90.000000
_cell_angle_gamma 90.000000
_cell_volume 5513.508197
_symmetry_space_group_name_H-M "C M M M"
_symmetry_group_IT_number 65
_symmetry_cell_setting 'orthorhombic'
loop_
_space_group_symop_operation_xyz
x,y,z
-x,-y,z
x,-y,-z
-x,y,-z
-x,-y,-z
x,y,-z
-x,y,z
x,-y,z
1/2+x,1/2+y,z
1/2-x,1/2-y,z
1/2+x,1/2-y,-z
1/2-x,1/2+y,-z
1/2-x,1/2-y,-z
1/2+x,1/2+y,-z
1/2-x,1/2+y,z
1/2+x,1/2-y,z
loop_
_atom_site_type_symbol
_atom_site_label
_atom_site_fract_x
_atom_site_fract_y
_atom_site_fract_z
Si Si1 0.168427 0.661398 0.272962
Si Si2 0.666781 0.100487 0.067989
Si Si3 0.666323 0.593335 0.565144
Si Si4 0.333029 0.702171 0.380822
Si Si5 0.664671 0.056462 0.328059
Si Si6 0.163555 0.000000 0.069296
Si Si7 0.330994 0.197352 0.144761
O O1 0.263022 0.694221 0.317403
O O2 0.208144 0.600576 0.281641
O O3 0.214267 0.678311 0.208743
O O4 0.000000 0.671552 0.284547
O O5 0.500000 0.088702 0.081002
O O6 0.717508 0.152505 0.100318
O O7 0.756450 0.051535 0.092270
O O8 0.695411 0.109461 0.000000
O O9 0.721955 0.581036 0.500000
O O10 0.500000 0.579066 0.571145
O O11 0.691905 0.653755 0.577377
O O12 0.749406 0.559070 0.611636
O O13 0.500000 0.715150 0.372306
O O14 0.250000 0.750000 0.410786
O O15 0.500000 0.063483 0.345972
O O16 0.693472 0.000000 0.299578
O O17 0.000000 0.000000 0.092422
O O18 0.169515 0.000000 0.000000
O O19 0.500000 0.208015 0.140206
O O20 0.250000 0.250000 0.128062
#
# Coordination Sequence:
#
# PCOD8267980 Si02
#       7
#    16  16  16  16  16   8  16
#     4   9  18  34  52  72  98 128 166 206 250 302
#     4   9  18  34  54  77 107 142 179 217 260 312
#     4   9  19  34  49  68  96 128 161 196 238 294
#     4  10  19  31  49  71  94 125 162 201 246 293
#     4   9  18  33  52  73  97 125 159 203 250 295
#     4   9  17  31  53  79 105 135 173 215 258 303
#     4  10  21  35  52  77 105 139 177 216 260 310
#
# _framework density 18.862763000000001
#
# number of rings (size 3 to 8) (size 9 to 14) (size 15 to 20)
#    0.000    2.692    0.000    1.154    0.000    5.538 
#    1.385    1.538    0.000    0.000    0.000    0.000 
#    0.000    0.000    0.000    0.000    0.000    0.000 
#
# Total GULP energy -644752.218201 kJ/mol
# GULP energy per Si atom -12399.081119 kJ/mol
# Density = 1.881983 g / cm^3
# Si number density = 18.862763 Si / 1000 Ang^3
#
#
#
# Elastic Constant Matrix: (Units=GPa)
#
#
# Indices 1 2 3 4 5 6 
#
# 1 64.8703 47.6932 22.5537 0.0000 0.0000 0.0000
# 2 47.6932 133.8571 31.3167 0.0000 0.0000 0.0000
# 3 22.5537 31.3167 53.3277 0.0000 0.0000 0.0000
# 4 0.0000 0.0000 0.0000 16.9820 0.0000 0.0000
# 5 0.0000 0.0000 0.0000 0.0000 21.2196 0.0000
# 6 0.0000 0.0000 0.0000 0.0000 0.0000 32.6441
#
#
#
# Elastic Compliance Matrix: (Units=1/GPa)
#
#
# Indices 1 2 3 4 5 6 
#
# 1 0.022195 -0.006622 -0.005498 0.000000 0.000000 0.000000
# 2 -0.006622 0.010636 -0.003446 0.000000 0.000000 0.000000
# 3 -0.005498 -0.003446 0.023101 0.000000 0.000000 0.000000
# 4 0.000000 0.000000 0.000000 0.058886 0.000000 0.000000
# 5 0.000000 0.000000 0.000000 0.000000 0.047126 0.000000
# 6 0.000000 0.000000 0.000000 0.000000 0.000000 0.030633
#
#
# Mechanical properties :
#
#
# Convention : Reuss Voigt Hill
#
# Bulk Modulus (GPa) = 40.32115 50.57583 45.44849
# Shear Modulus (GPa) = 21.55395 24.20191 22.87793
#
# Velocity S-wave (km/s) = 3.38401 3.58586 3.48640
# Velocity P-wave (km/s) = 6.05732 6.63440 6.35242
#
# Compressibility (1/GPa) = 0.02480088
#
# Stress axis : x y z
#
# Youngs Moduli (GPa) = 45.05427 94.01936 43.28865
#
# Poissons Ratio (x) = 0.62258 0.23802
# Poissons Ratio (y) = 0.29834 0.14915
# Poissons Ratio (z) = 0.24772 0.32394
#
# Static dielectric constant tensor:
#      x y z
#    x 3.447120 0.000000 0.000000 
#    y 0.000000 3.692160 0.000000 
#    z 0.000000 0.000000 3.276630 
# 
# 
# High freq. dielectric constant tensor:
#      x y z
#    x 1.727290 0.000000 0.000000 
#    y 0.000000 1.746680 0.000000 
#    z 0.000000 0.000000 1.709720 
# 
# From -- ./inp_files/65866.got.cif
#   From: 2010.03.12/outbox.cif.g09.slc.cpg/sg65_33_cif.got.tgz:65866.got - 2010.04.10 20:52:16.
