data_PCOD8267251
_publ_section_title
;
Structure prediction by ZEFSAII (Michael W. Deem and Ramdas Pophale) SiO2 
 PCOD8267251
Probable space group: C M M M
;
_chemical_formula_sum "Si O2"
_cell_formula_units_Z 96
_cell_length_a 18.352964
_cell_length_b 20.647205
_cell_length_c 15.328063
_cell_angle_alpha 90.000000
_cell_angle_beta 90.000000
_cell_angle_gamma 90.000000
_cell_volume 5808.376495
_symmetry_space_group_name_H-M "C M M M"
_symmetry_group_IT_number 65
_symmetry_cell_setting 'orthorhombic'
loop_
_space_group_symop_operation_xyz
x,y,z
-x,-y,z
x,-y,-z
-x,y,-z
-x,-y,-z
x,y,-z
-x,y,z
x,-y,z
1/2+x,1/2+y,z
1/2-x,1/2-y,z
1/2+x,1/2-y,-z
1/2-x,1/2+y,-z
1/2-x,1/2-y,-z
1/2+x,1/2+y,-z
1/2-x,1/2+y,z
1/2+x,1/2-y,z
loop_
_atom_site_type_symbol
_atom_site_label
_atom_site_fract_x
_atom_site_fract_y
_atom_site_fract_z
Si Si1 0.209838 0.427634 0.900514
Si Si2 0.333878 0.250556 0.596114
Si Si3 0.305345 0.307828 0.101446
Si Si4 0.081674 0.609213 0.220724
Si Si5 0.416338 0.262836 0.237027
Si Si6 0.082335 0.620417 0.407332
O O1 0.242592 0.500000 0.890975
O O2 0.269365 0.375776 0.869088
O O3 0.136141 0.423784 0.845650
O O4 0.188083 0.412083 0.000000
O O5 0.343371 0.284008 0.500000
O O6 0.250000 0.250000 0.625061
O O7 0.379986 0.286472 0.671671
O O8 0.359653 0.177164 0.588711
O O9 0.250000 0.250000 0.123095
O O10 0.378539 0.299210 0.156524
O O11 0.327125 0.308093 0.000000
O O12 0.093696 0.686169 0.225056
O O13 0.095816 0.579421 0.318651
O O14 0.000000 0.592723 0.189023
O O15 0.500000 0.284104 0.237291
O O16 0.088859 0.580812 0.500000
O O17 0.000000 0.649863 0.399478
#
# Coordination Sequence:
#
# PCOD8267251 Si02
#       6
#    16  16  16  16  16  16
#     4  10  21  35  50  69  94 127 162 196 240 290
#     4   9  16  24  38  64  98 132 160 190 232 280
#     4  10  19  33  52  71  94 125 158 198 245 290
#     4   9  17  28  45  70  98 129 161 193 232 282
#     4  10  19  29  46  72 100 129 160 198 241 285
#     4   8  14  25  40  60  90 127 161 191 226 269
#
# _framework density 16.527854999999999
#
# number of rings (size 3 to 8) (size 9 to 14) (size 15 to 20)
#    0.000    2.667    1.667    2.000    2.333    2.000 
#    0.000    2.500    0.000    1.000    0.000    4.667 
#    0.000    0.000    0.000    1.500    0.000    0.167 
#
# Total GULP energy -594745.478958 kJ/mol
# GULP energy per Si atom -12390.530812 kJ/mol
# Density = 1.649024 g / cm^3
# Si number density = 16.527855 Si / 1000 Ang^3
#
#
#
# Elastic Constant Matrix: (Units=GPa)
#
#
# Indices 1 2 3 4 5 6 
#
# 1 107.8918 29.6475 60.6073 0.0000 0.0000 0.0000
# 2 29.6475 56.9024 26.6826 0.0000 0.0000 0.0000
# 3 60.6073 26.6826 106.2235 0.0000 0.0000 0.0000
# 4 0.0000 0.0000 0.0000 6.8777 0.0000 0.0000
# 5 0.0000 0.0000 0.0000 0.0000 30.3105 0.0000
# 6 0.0000 0.0000 0.0000 0.0000 0.0000 14.4711
#
#
#
# Elastic Compliance Matrix: (Units=1/GPa)
#
#
# Indices 1 2 3 4 5 6 
#
# 1 0.014458 -0.004154 -0.007206 0.000000 0.000000 0.000000
# 2 -0.004154 0.021114 -0.002934 0.000000 0.000000 0.000000
# 3 -0.007206 -0.002934 0.014262 0.000000 0.000000 0.000000
# 4 0.000000 0.000000 0.000000 0.145397 0.000000 0.000000
# 5 0.000000 0.000000 0.000000 0.000000 0.032992 0.000000
# 6 0.000000 0.000000 0.000000 0.000000 0.000000 0.069103
#
#
# Mechanical properties :
#
#
# Convention : Reuss Voigt Hill
#
# Bulk Modulus (GPa) = 47.06416 56.09917 51.58166
# Shear Modulus (GPa) = 15.01526 20.60389 17.80957
#
# Velocity S-wave (km/s) = 3.01737 3.53458 3.28617
# Velocity P-wave (km/s) = 6.37784 7.11853 6.75834
#
# Compressibility (1/GPa) = 0.02124759
#
# Stress axis : x y z
#
# Youngs Moduli (GPa) = 69.16734 47.36223 70.11517
#
# Poissons Ratio (x) = 0.19674 0.50522
# Poissons Ratio (y) = 0.28732 0.20569
# Poissons Ratio (z) = 0.49839 0.13894
#
# Static dielectric constant tensor:
#      x y z
#    x 3.052080 0.000000 0.000000 
#    y 0.000000 2.758560 0.000000 
#    z 0.000000 0.000000 3.582960 
# 
# 
# High freq. dielectric constant tensor:
#      x y z
#    x 1.628240 0.000000 0.000000 
#    y 0.000000 1.582120 0.000000 
#    z 0.000000 0.000000 1.661760 
# 
# From -- ./inp_files/54729.got.cif
#   From: 2010.03.12/outbox.cif.g09.slc.cpg/sg65_28_cif.got.tgz:54729.got - 2010.04.10 20:52:16.
