data_PCOD8267121
_publ_section_title
;
Structure prediction by ZEFSAII (Michael W. Deem and Ramdas Pophale) SiO2 
 PCOD8267121
Probable space group: C M M M
;
_chemical_formula_sum "Si O2"
_cell_formula_units_Z 80
_cell_length_a 22.341447
_cell_length_b 13.104499
_cell_length_c 18.337641
_cell_angle_alpha 90.000000
_cell_angle_beta 90.000000
_cell_angle_gamma 90.000000
_cell_volume 5368.774785
_symmetry_space_group_name_H-M "C M M M"
_symmetry_group_IT_number 65
_symmetry_cell_setting 'orthorhombic'
loop_
_space_group_symop_operation_xyz
x,y,z
-x,-y,z
x,-y,-z
-x,y,-z
-x,-y,-z
x,y,-z
-x,y,z
x,-y,z
1/2+x,1/2+y,z
1/2-x,1/2-y,z
1/2+x,1/2-y,-z
1/2-x,1/2+y,-z
1/2-x,1/2-y,-z
1/2+x,1/2+y,-z
1/2-x,1/2+y,z
1/2+x,1/2-y,z
loop_
_atom_site_type_symbol
_atom_site_label
_atom_site_fract_x
_atom_site_fract_y
_atom_site_fract_z
Si Si1 0.428757 0.112054 0.500000
Si Si2 0.844239 0.887329 0.915331
Si Si3 0.933185 0.622044 0.656082
Si Si4 0.569726 0.789330 0.915346
Si Si5 0.144614 0.381582 0.209235
Si Si6 0.750000 0.250000 0.162035
O O1 0.500000 0.101813 0.500000
O O2 0.410034 0.166067 0.576887
O O3 0.399322 0.000000 0.500000
O O4 0.904849 0.823947 0.899353
O O5 0.786008 0.829461 0.886996
O O6 0.850387 0.000000 0.879236
O O7 0.833947 0.900297 0.000000
O O8 0.933723 0.500000 0.652410
O O9 0.891650 0.660830 0.721283
O O10 0.000000 0.662540 0.672243
O O11 0.500000 0.791606 0.895126
O O12 0.605755 0.868448 0.864668
O O13 0.580108 0.820042 0.000000
O O14 0.160918 0.500000 0.217081
O O15 0.204981 0.315830 0.211047
#
# Coordination Sequence:
#
# PCOD8267121 Si02
#       6
#     8  16  16  16  16   8
#     4   7  10  18  34  57  82 102 121 150 186 228
#     4   9  17  29  44  58  73  99 135 173 208 238
#     4   8  13  22  38  60  82 102 125 153 190 236
#     4   9  18  30  42  60  84 105 128 160 198 241
#     4  10  19  29  42  58  78 107 137 164 197 236
#     4  10  19  30  40  55  78 102 136 174 204 229
#
# _framework density 14.900979
#
# number of rings (size 3 to 8) (size 9 to 14) (size 15 to 20)
#    0.000    3.100    0.000    2.700    0.000    2.800 
#    0.000    3.000    0.000    0.600    0.000    0.000 
#    0.000    0.000    0.000    9.300    0.000  173.700 
#
# Total GULP energy -495596.468395 kJ/mol
# GULP energy per Si atom -12389.911710 kJ/mol
# Density = 1.486706 g / cm^3
# Si number density = 14.900979 Si / 1000 Ang^3
#
#
#
# Elastic Constant Matrix: (Units=GPa)
#
#
# Indices 1 2 3 4 5 6 
#
# 1 92.3474 27.2746 43.2359 0.0000 0.0000 0.0000
# 2 27.2746 57.1768 24.8978 0.0000 0.0000 0.0000
# 3 43.2359 24.8978 83.6729 0.0000 0.0000 0.0000
# 4 0.0000 0.0000 0.0000 7.8174 0.0000 0.0000
# 5 0.0000 0.0000 0.0000 0.0000 14.7027 0.0000
# 6 0.0000 0.0000 0.0000 0.0000 0.0000 15.6370
#
#
#
# Elastic Compliance Matrix: (Units=1/GPa)
#
#
# Indices 1 2 3 4 5 6 
#
# 1 0.015190 -0.004398 -0.006540 0.000000 0.000000 0.000000
# 2 -0.004398 0.021366 -0.004085 0.000000 0.000000 0.000000
# 3 -0.006540 -0.004085 0.016546 0.000000 0.000000 0.000000
# 4 0.000000 0.000000 0.000000 0.127920 0.000000 0.000000
# 5 0.000000 0.000000 0.000000 0.000000 0.068015 0.000000
# 6 0.000000 0.000000 0.000000 0.000000 0.000000 0.063951
#
#
# Mechanical properties :
#
#
# Convention : Reuss Voigt Hill
#
# Bulk Modulus (GPa) = 43.37327 47.11264 45.24295
# Shear Modulus (GPa) = 14.25638 16.81734 15.53686
#
# Velocity S-wave (km/s) = 3.09648 3.36312 3.23255
# Velocity P-wave (km/s) = 6.47727 6.83861 6.66039
#
# Compressibility (1/GPa) = 0.02305568
#
# Stress axis : x y z
#
# Youngs Moduli (GPa) = 65.83444 46.80236 60.43587
#
# Poissons Ratio (x) = 0.20583 0.39527
# Poissons Ratio (y) = 0.28953 0.24690
# Poissons Ratio (z) = 0.43057 0.19121
#
# Static dielectric constant tensor:
#      x y z
#    x 2.846370 0.000000 0.000000 
#    y 0.000000 2.744350 0.000000 
#    z 0.000000 0.000000 3.113110 
# 
# 
# High freq. dielectric constant tensor:
#      x y z
#    x 1.561910 0.000000 0.000000 
#    y 0.000000 1.538560 0.000000 
#    z 0.000000 0.000000 1.565050 
# 
# From -- ./inp_files/55737.got.cif
#   From: 2010.03.12/outbox.cif.g09.slc.cpg/sg65_28_cif.got.tgz:55737.got - 2010.04.10 20:52:16.
