data_PCOD8267145
_publ_section_title
;
Structure prediction by ZEFSAII (Michael W. Deem and Ramdas Pophale) SiO2 
 PCOD8267145
Probable space group: C M M M
;
_chemical_formula_sum "Si O2"
_cell_formula_units_Z 96
_cell_length_a 9.147822
_cell_length_b 26.541655
_cell_length_c 22.824696
_cell_angle_alpha 90.000000
_cell_angle_beta 90.000000
_cell_angle_gamma 90.000000
_cell_volume 5541.798198
_symmetry_space_group_name_H-M "C M M M"
_symmetry_group_IT_number 65
_symmetry_cell_setting 'orthorhombic'
loop_
_space_group_symop_operation_xyz
x,y,z
-x,-y,z
x,-y,-z
-x,y,-z
-x,-y,-z
x,y,-z
-x,y,z
x,-y,z
1/2+x,1/2+y,z
1/2-x,1/2-y,z
1/2+x,1/2-y,-z
1/2-x,1/2+y,-z
1/2-x,1/2-y,-z
1/2+x,1/2+y,-z
1/2-x,1/2+y,z
1/2+x,1/2-y,z
loop_
_atom_site_type_symbol
_atom_site_label
_atom_site_fract_x
_atom_site_fract_y
_atom_site_fract_z
Si Si1 0.658983 0.794304 0.243519
Si Si2 0.669836 0.699476 0.434117
Si Si3 0.170938 0.137175 0.325679
Si Si4 0.332100 0.301064 0.931154
Si Si5 0.826608 0.557689 0.751845
Si Si6 0.840841 0.624784 0.854302
O O1 0.500000 0.777110 0.268234
O O2 0.750000 0.750000 0.212832
O O3 0.763175 0.814012 0.294537
O O4 0.630232 0.834794 0.194930
O O5 0.721034 0.685653 0.500000
O O6 0.500000 0.712727 0.431716
O O7 0.750000 0.750000 0.411574
O O8 0.701000 0.649710 0.394185
O O9 0.251033 0.087007 0.302183
O O10 0.000000 0.131430 0.311651
O O11 0.500000 0.295073 0.911996
O O12 0.250000 0.250000 0.911274
O O13 0.268553 0.352324 0.902433
O O14 0.315223 0.308979 0.000000
O O15 0.778571 0.500000 0.746599
O O16 0.777178 0.577068 0.817197
O O17 0.000000 0.565196 0.745537
O O18 0.000000 0.612025 0.883414
#
# Coordination Sequence:
#
# PCOD8267145 Si02
#       6
#    16  16  16  16  16  16
#     4  10  19  29  42  64  95 126 155 190 233 280
#     4   9  18  31  46  67  97 131 164 196 229 270
#     4  10  19  30  47  70  94 122 157 195 236 285
#     4  10  20  32  47  69  98 131 163 193 226 267
#     4   9  19  36  55  73  94 120 152 196 248 293
#     4   9  18  31  48  69  91 119 154 191 233 280
#
# _framework density 17.322897000000001
#
# number of rings (size 3 to 8) (size 9 to 14) (size 15 to 20)
#    0.000    2.500    0.000    3.500    0.000    8.667 
#    0.000    0.000    0.000    1.000    0.000    7.000 
#    0.000    0.000    0.000    0.000    0.000    0.000 
#
# Total GULP energy -594703.983066 kJ/mol
# GULP energy per Si atom -12389.666314 kJ/mol
# Density = 1.728347 g / cm^3
# Si number density = 17.322897 Si / 1000 Ang^3
#
#
#
# Elastic Constant Matrix: (Units=GPa)
#
#
# Indices 1 2 3 4 5 6 
#
# 1 91.0135 49.8925 40.3810 0.0000 0.0000 0.0000
# 2 49.8925 91.9339 38.5211 0.0000 0.0000 0.0000
# 3 40.3810 38.5211 69.5962 0.0000 0.0000 0.0000
# 4 0.0000 0.0000 0.0000 37.1389 0.0000 0.0000
# 5 0.0000 0.0000 0.0000 0.0000 27.2216 0.0000
# 6 0.0000 0.0000 0.0000 0.0000 0.0000 21.4460
#
#
#
# Elastic Compliance Matrix: (Units=1/GPa)
#
#
# Indices 1 2 3 4 5 6 
#
# 1 0.017593 -0.006862 -0.006410 0.000000 0.000000 0.000000
# 2 -0.006862 0.016838 -0.005338 0.000000 0.000000 0.000000
# 3 -0.006410 -0.005338 0.021042 0.000000 0.000000 0.000000
# 4 0.000000 0.000000 0.000000 0.026926 0.000000 0.000000
# 5 0.000000 0.000000 0.000000 0.000000 0.036736 0.000000
# 6 0.000000 0.000000 0.000000 0.000000 0.000000 0.046629
#
#
# Mechanical properties :
#
#
# Convention : Reuss Voigt Hill
#
# Bulk Modulus (GPa) = 54.78429 56.68142 55.73285
# Shear Modulus (GPa) = 23.91563 25.41122 24.66342
#
# Velocity S-wave (km/s) = 3.71965 3.83419 3.77735
# Velocity P-wave (km/s) = 7.08108 7.23829 7.16012
#
# Compressibility (1/GPa) = 0.01825341
#
# Stress axis : x y z
#
# Youngs Moduli (GPa) = 56.84127 59.38875 47.52319
#
# Poissons Ratio (x) = 0.40752 0.30461
# Poissons Ratio (y) = 0.39004 0.25370
# Poissons Ratio (z) = 0.36433 0.31704
#
# Static dielectric constant tensor:
#      x y z
#    x 3.375170 0.000000 0.000000 
#    y 0.000000 3.488320 0.000000 
#    z 0.000000 0.000000 3.391890 
# 
# 
# High freq. dielectric constant tensor:
#      x y z
#    x 1.678900 0.000000 0.000000 
#    y 0.000000 1.641860 0.000000 
#    z 0.000000 0.000000 1.658080 
# 
# From -- ./inp_files/68000.got.cif
#   From: 2010.03.12/outbox.cif.g09.slc.cpg/sg65_34_cif.got.tgz:68000.got - 2010.04.10 20:52:16.
