data_PCOD8267204
_publ_section_title
;
Structure prediction by ZEFSAII (Michael W. Deem and Ramdas Pophale) SiO2 
 PCOD8267204
Probable space group: C M M M
;
_chemical_formula_sum "Si O2"
_cell_formula_units_Z 96
_cell_length_a 14.484642
_cell_length_b 27.366005
_cell_length_c 14.363419
_cell_angle_alpha 90.000000
_cell_angle_beta 90.000000
_cell_angle_gamma 90.000000
_cell_volume 5693.469485
_symmetry_space_group_name_H-M "C M M M"
_symmetry_group_IT_number 65
_symmetry_cell_setting 'orthorhombic'
loop_
_space_group_symop_operation_xyz
x,y,z
-x,-y,z
x,-y,-z
-x,y,-z
-x,-y,-z
x,y,-z
-x,y,z
x,-y,z
1/2+x,1/2+y,z
1/2-x,1/2-y,z
1/2+x,1/2-y,-z
1/2-x,1/2+y,-z
1/2-x,1/2-y,-z
1/2+x,1/2+y,-z
1/2-x,1/2+y,z
1/2+x,1/2-y,z
loop_
_atom_site_type_symbol
_atom_site_label
_atom_site_fract_x
_atom_site_fract_y
_atom_site_fract_z
Si Si1 0.606227 0.113784 0.897759
Si Si2 0.397929 0.225023 0.301604
Si Si3 0.792209 0.363349 0.608430
Si Si4 0.343487 0.780062 0.101988
Si Si5 0.602242 0.324300 0.607763
Si Si6 0.108057 0.443817 0.716842
O O1 0.500000 0.130927 0.882014
O O2 0.672105 0.161266 0.891181
O O3 0.634941 0.074599 0.820048
O O4 0.617078 0.089215 0.000000
O O5 0.500000 0.213733 0.339828
O O6 0.334260 0.179682 0.328813
O O7 0.404989 0.234195 0.190405
O O8 0.360277 0.274776 0.345658
O O9 0.814785 0.354014 0.500000
O O10 0.681064 0.365076 0.625844
O O11 0.834353 0.414893 0.639172
O O12 0.250000 0.750000 0.110619
O O13 0.389303 0.768610 0.000000
O O14 0.593608 0.312752 0.500000
O O15 0.500000 0.340218 0.646104
O O16 0.136793 0.500000 0.709167
O O17 0.000000 0.436175 0.697013
#
# Coordination Sequence:
#
# PCOD8267204 Si02
#       6
#    16  16  16  16  16  16
#     4   9  17  31  50  70  95 129 166 200 236 280
#     4  11  20  30  47  72 102 134 166 197 232 283
#     4  11  21  33  51  71  96 131 165 197 241 294
#     4  10  19  29  44  68  98 132 167 198 231 277
#     4   9  19  34  51  73  98 124 160 205 243 279
#     4  10  21  35  50  72 100 127 160 203 246 290
#
# _framework density 16.861422999999998
#
# number of rings (size 3 to 8) (size 9 to 14) (size 15 to 20)
#    0.000    2.000    1.667    3.000    0.000    5.000 
#    0.000    2.500    0.000    0.500    0.000    2.333 
#    0.000    0.000    0.000    1.500    0.000    0.167 
#
# Total GULP energy -594813.871220 kJ/mol
# GULP energy per Si atom -12391.955650 kJ/mol
# Density = 1.682305 g / cm^3
# Si number density = 16.861423 Si / 1000 Ang^3
#
#
#
# Elastic Constant Matrix: (Units=GPa)
#
#
# Indices 1 2 3 4 5 6 
#
# 1 68.6964 52.0545 38.2395 0.0000 0.0000 0.0000
# 2 52.0545 92.1881 34.2328 0.0000 0.0000 0.0000
# 3 38.2395 34.2328 78.3429 0.0000 0.0000 0.0000
# 4 0.0000 0.0000 0.0000 22.3696 0.0000 0.0000
# 5 0.0000 0.0000 0.0000 0.0000 19.6631 0.0000
# 6 0.0000 0.0000 0.0000 0.0000 0.0000 23.2891
#
#
#
# Elastic Compliance Matrix: (Units=1/GPa)
#
#
# Indices 1 2 3 4 5 6 
#
# 1 0.029538 -0.013518 -0.008510 0.000000 0.000000 0.000000
# 2 -0.013518 0.019135 -0.001763 0.000000 0.000000 0.000000
# 3 -0.008510 -0.001763 0.017689 0.000000 0.000000 0.000000
# 4 0.000000 0.000000 0.000000 0.044704 0.000000 0.000000
# 5 0.000000 0.000000 0.000000 0.000000 0.050857 0.000000
# 6 0.000000 0.000000 0.000000 0.000000 0.000000 0.042939
#
#
# Mechanical properties :
#
#
# Convention : Reuss Voigt Hill
#
# Bulk Modulus (GPa) = 53.25371 54.25346 53.75358
# Shear Modulus (GPa) = 19.32717 20.71106 20.01912
#
# Velocity S-wave (km/s) = 3.38928 3.50853 3.44942
# Velocity P-wave (km/s) = 6.85332 6.97560 6.91473
#
# Compressibility (1/GPa) = 0.01877804
#
# Stress axis : x y z
#
# Youngs Moduli (GPa) = 33.85520 52.25960 56.53318
#
# Poissons Ratio (x) = 0.70646 0.48112
# Poissons Ratio (y) = 0.45767 0.09967
# Poissons Ratio (z) = 0.28812 0.09213
#
# Static dielectric constant tensor:
#      x y z
#    x 3.213840 0.000000 0.000000 
#    y 0.000000 2.940020 0.000000 
#    z 0.000000 0.000000 3.448830 
# 
# 
# High freq. dielectric constant tensor:
#      x y z
#    x 1.632990 0.000000 0.000000 
#    y 0.000000 1.617470 0.000000 
#    z 0.000000 0.000000 1.668100 
# 
# From -- ./inp_files/41284.got.cif
#   From: 2010.03.12/outbox.cif.g09.slc.cpg/sg65_21_cif.got.tgz:41284.got - 2010.04.10 20:52:16.
