data_PCOD8267985
_publ_section_title
;
Structure prediction by ZEFSAII (Michael W. Deem and Ramdas Pophale) SiO2 
 PCOD8267985
Probable space group: C M M M
;
_chemical_formula_sum "Si O2"
_cell_formula_units_Z 88
_cell_length_a 9.724360
_cell_length_b 18.652019
_cell_length_c 28.151642
_cell_angle_alpha 90.000000
_cell_angle_beta 90.000000
_cell_angle_gamma 90.000000
_cell_volume 5106.115196
_symmetry_space_group_name_H-M "C M M M"
_symmetry_group_IT_number 65
_symmetry_cell_setting 'orthorhombic'
loop_
_space_group_symop_operation_xyz
x,y,z
-x,-y,z
x,-y,-z
-x,y,-z
-x,-y,-z
x,y,-z
-x,y,z
x,-y,z
1/2+x,1/2+y,z
1/2-x,1/2-y,z
1/2+x,1/2-y,-z
1/2-x,1/2+y,-z
1/2-x,1/2-y,-z
1/2+x,1/2+y,-z
1/2-x,1/2+y,z
1/2+x,1/2-y,z
loop_
_atom_site_type_symbol
_atom_site_label
_atom_site_fract_x
_atom_site_fract_y
_atom_site_fract_z
Si Si1 0.835783 0.323075 0.500000
Si Si2 0.158140 0.417369 0.863944
Si Si3 0.345187 0.585241 0.052447
Si Si4 0.159695 0.681472 0.328893
Si Si5 0.842155 0.316763 0.221031
Si Si6 0.337996 0.079888 0.412166
O O1 0.750000 0.250000 0.500000
O O2 0.787763 0.369093 0.545417
O O3 0.000000 0.307091 0.500000
O O4 0.195456 0.500000 0.856865
O O5 0.245238 0.382853 0.907170
O O6 0.196423 0.380925 0.814180
O O7 0.000000 0.405917 0.877505
O O8 0.500000 0.610312 0.063934
O O9 0.335653 0.500000 0.052525
O O10 0.301165 0.613398 0.000000
O O11 0.250000 0.750000 0.342890
O O12 0.188300 0.657594 0.274728
O O13 0.204841 0.615397 0.362076
O O14 0.000000 0.701589 0.337010
O O15 0.750000 0.250000 0.206516
O O16 0.000000 0.293231 0.215498
O O17 0.500000 0.071776 0.415757
O O18 0.271772 0.000000 0.415701
#
# Coordination Sequence:
#
# PCOD8267985 Si02
#       6
#     8  16  16  16  16  16
#     4  10  19  31  49  71  95 124 158 194 228 268
#     4   9  17  28  43  65  90 113 141 181 225 264
#     4   8  14  25  41  62  88 116 145 177 215 262
#     4   9  17  30  48  67  88 117 152 187 223 267
#     4   9  18  31  46  65  89 118 150 183 221 266
#     4   9  17  29  47  71  95 120 153 192 231 269
#
# _framework density 17.234237
#
# number of rings (size 3 to 8) (size 9 to 14) (size 15 to 20)
#    0.000    3.091    0.000    1.364    0.000    2.909 
#    0.000    5.455    0.000    3.273    0.000    5.091 
#    0.000    0.000    0.000    0.000    0.000    0.000 
#
# Total GULP energy -545429.036116 kJ/mol
# GULP energy per Si atom -12396.114457 kJ/mol
# Density = 1.719501 g / cm^3
# Si number density = 17.234237 Si / 1000 Ang^3
#
#
#
# Elastic Constant Matrix: (Units=GPa)
#
#
# Indices 1 2 3 4 5 6 
#
# 1 52.5954 44.7690 55.3968 0.0000 0.0000 0.0000
# 2 44.7690 103.1080 75.1768 0.0000 0.0000 0.0000
# 3 55.3968 75.1768 139.8418 0.0000 0.0000 0.0000
# 4 0.0000 0.0000 0.0000 15.6649 0.0000 0.0000
# 5 0.0000 0.0000 0.0000 0.0000 21.9136 0.0000
# 6 0.0000 0.0000 0.0000 0.0000 0.0000 22.1621
#
#
#
# Elastic Compliance Matrix: (Units=1/GPa)
#
#
# Indices 1 2 3 4 5 6 
#
# 1 0.036945 -0.008833 -0.009887 0.000000 0.000000 0.000000
# 2 -0.008833 0.018062 -0.006211 0.000000 0.000000 0.000000
# 3 -0.009887 -0.006211 0.014407 0.000000 0.000000 0.000000
# 4 0.000000 0.000000 0.000000 0.063837 0.000000 0.000000
# 5 0.000000 0.000000 0.000000 0.000000 0.045634 0.000000
# 6 0.000000 0.000000 0.000000 0.000000 0.000000 0.045122
#
#
# Mechanical properties :
#
#
# Convention : Reuss Voigt Hill
#
# Bulk Modulus (GPa) = 51.14474 71.80338 61.47406
# Shear Modulus (GPa) = 17.83259 19.96162 18.89711
#
# Velocity S-wave (km/s) = 3.22019 3.40701 3.31492
# Velocity P-wave (km/s) = 6.60052 7.56509 7.09921
#
# Compressibility (1/GPa) = 0.01955235
#
# Stress axis : x y z
#
# Youngs Moduli (GPa) = 27.06717 55.36452 69.41291
#
# Poissons Ratio (x) = 0.48901 0.68629
# Poissons Ratio (y) = 0.23907 0.43112
# Poissons Ratio (z) = 0.26762 0.34387
#
# Static dielectric constant tensor:
#      x y z
#    x 3.110900 0.000000 0.000000 
#    y 0.000000 3.085960 0.000000 
#    z 0.000000 0.000000 3.532640 
# 
# 
# High freq. dielectric constant tensor:
#      x y z
#    x 1.643710 0.000000 0.000000 
#    y 0.000000 1.639970 0.000000 
#    z 0.000000 0.000000 1.681970 
# 
# From -- ./inp_files/73196.got.cif
#   From: 2010.03.12/outbox.cif.g09.slc.cpg/sg65_37_cif.got.tgz:73196.got - 2010.04.10 20:52:16.
