data_PCOD8267675
_publ_section_title
;
Structure prediction by ZEFSAII (Michael W. Deem and Ramdas Pophale) SiO2 
 PCOD8267675
Probable space group: C M M M
;
_chemical_formula_sum "Si O2"
_cell_formula_units_Z 104
_cell_length_a 27.236499
_cell_length_b 32.307709
_cell_length_c 9.245879
_cell_angle_alpha 90.000000
_cell_angle_beta 90.000000
_cell_angle_gamma 90.000000
_cell_volume 8135.900906
_symmetry_space_group_name_H-M "C M M M"
_symmetry_group_IT_number 65
_symmetry_cell_setting 'orthorhombic'
loop_
_space_group_symop_operation_xyz
x,y,z
-x,-y,z
x,-y,-z
-x,y,-z
-x,-y,-z
x,y,-z
-x,y,z
x,-y,z
1/2+x,1/2+y,z
1/2-x,1/2-y,z
1/2+x,1/2-y,-z
1/2-x,1/2+y,-z
1/2-x,1/2-y,-z
1/2+x,1/2+y,-z
1/2-x,1/2+y,z
1/2+x,1/2-y,z
loop_
_atom_site_type_symbol
_atom_site_label
_atom_site_fract_x
_atom_site_fract_y
_atom_site_fract_z
Si Si1 0.590571 0.411439 0.830368
Si Si2 0.867003 0.838698 0.336852
Si Si3 0.826379 0.769137 0.162788
Si Si4 0.221693 0.687249 0.162167
Si Si5 0.805791 0.047123 0.167351
Si Si6 0.261976 0.617886 0.338309
Si Si7 0.500000 0.451036 0.332833
O O1 0.596783 0.365829 0.762270
O O2 0.638829 0.438597 0.802819
O O3 0.547423 0.434250 0.747958
O O4 0.578551 0.407088 0.000000
O O5 0.887729 0.835685 0.500000
O O6 0.864054 0.792498 0.269463
O O7 0.813737 0.859098 0.336937
O O8 0.817462 0.721854 0.216405
O O9 0.775252 0.793027 0.162492
O O10 0.847926 0.769229 0.000000
O O11 0.220754 0.646958 0.264247
O O12 0.208219 0.673142 0.000000
O O13 0.766736 0.074518 0.254887
O O14 0.800526 0.000000 0.219663
O O15 0.792753 0.052239 0.000000
O O16 0.244202 0.608492 0.500000
O O17 0.500000 0.500000 0.320904
O O18 0.500000 0.436634 0.500000
#
# Coordination Sequence:
#
# PCOD8267675 Si02
#       7
#    16  16  16  16  16  16   8
#     4  10  19  31  45  56  66  81 103 129 157 196
#     4   9  16  25  36  51  69  85 100 121 152 186
#     4   8  13  21  33  48  64  84 107 125 143 172
#     4   8  13  21  32  45  63  85 106 126 146 172
#     4   9  17  28  40  51  62  79 104 132 161 194
#     4   9  16  23  32  47  65  83 102 125 154 186
#     4  11  23  35  45  57  71  83  97 125 167 209
#
# _framework density 12.78285
#
# number of rings (size 3 to 8) (size 9 to 14) (size 15 to 20)
#    0.000    3.000    0.000    3.000    0.000    6.462 
#    0.000    3.077    0.000    0.000    0.000    0.000 
#    0.000    0.000    0.000    0.000    0.000    0.000 
#
# Total GULP energy -644532.435426 kJ/mol
# GULP energy per Si atom -12394.854527 kJ/mol
# Density = 1.275376 g / cm^3
# Si number density = 12.782850 Si / 1000 Ang^3
#
#
#
# Elastic Constant Matrix: (Units=GPa)
#
#
# Indices 1 2 3 4 5 6 
#
# 1 16.0446 31.7092 25.2915 0.0000 0.0000 0.0000
# 2 31.7092 102.0495 65.1595 0.0000 0.0000 0.0000
# 3 25.2915 65.1595 101.2703 0.0000 0.0000 0.0000
# 4 0.0000 0.0000 0.0000 21.2322 0.0000 0.0000
# 5 0.0000 0.0000 0.0000 0.0000 7.8514 0.0000
# 6 0.0000 0.0000 0.0000 0.0000 0.0000 18.6272
#
#
#
# Elastic Compliance Matrix: (Units=1/GPa)
#
#
# Indices 1 2 3 4 5 6 
#
# 1 0.173452 -0.044531 -0.014666 0.000000 0.000000 0.000000
# 2 -0.044531 0.028065 -0.006936 0.000000 0.000000 0.000000
# 3 -0.014666 -0.006936 0.018000 0.000000 0.000000 0.000000
# 4 0.000000 0.000000 0.000000 0.047098 0.000000 0.000000
# 5 0.000000 0.000000 0.000000 0.000000 0.127366 0.000000
# 6 0.000000 0.000000 0.000000 0.000000 0.000000 0.053685
#
#
# Mechanical properties :
#
#
# Convention : Reuss Voigt Hill
#
# Bulk Modulus (GPa) = 11.46129 51.52052 31.49091
# Shear Modulus (GPa) = 8.20996 16.02244 12.11620
#
# Velocity S-wave (km/s) = 2.53704 3.54423 3.08205
# Velocity P-wave (km/s) = 4.19139 7.55914 6.11181
#
# Compressibility (1/GPa) = 0.08725019
#
# Stress axis : x y z
#
# Youngs Moduli (GPa) = 5.76529 35.63166 55.55492
#
# Poissons Ratio (x) = 1.58672 0.81476
# Poissons Ratio (y) = 0.25674 0.38534
# Poissons Ratio (z) = 0.08455 0.24715
#
# Static dielectric constant tensor:
#      x y z
#    x 2.151240 0.000000 0.000000 
#    y 0.000000 2.738170 0.000000 
#    z 0.000000 0.000000 2.803920 
# 
# 
# High freq. dielectric constant tensor:
#      x y z
#    x 1.411750 0.000000 0.000000 
#    y 0.000000 1.482850 0.000000 
#    z 0.000000 0.000000 1.500500 
# 
# From -- ./inp_files/17225.got.cif
#   From: 2010.03.12/outbox.cif.g09.slc.cpg/sg65_9_cif.got.tgz:17225.got - 2010.04.10 20:52:16.
