data_PCOD8267373
_publ_section_title
;
Structure prediction by ZEFSAII (Michael W. Deem and Ramdas Pophale) SiO2 
 PCOD8267373
Probable space group: C M M M
;
_chemical_formula_sum "Si O2"
_cell_formula_units_Z 112
_cell_length_a 31.509340
_cell_length_b 13.834935
_cell_length_c 15.573247
_cell_angle_alpha 90.000000
_cell_angle_beta 90.000000
_cell_angle_gamma 90.000000
_cell_volume 6788.840438
_symmetry_space_group_name_H-M "C M M M"
_symmetry_group_IT_number 65
_symmetry_cell_setting 'orthorhombic'
loop_
_space_group_symop_operation_xyz
x,y,z
-x,-y,z
x,-y,-z
-x,y,-z
-x,-y,-z
x,y,-z
-x,y,z
x,-y,z
1/2+x,1/2+y,z
1/2-x,1/2-y,z
1/2+x,1/2-y,-z
1/2-x,1/2+y,-z
1/2-x,1/2-y,-z
1/2+x,1/2+y,-z
1/2-x,1/2+y,z
1/2+x,1/2-y,z
loop_
_atom_site_type_symbol
_atom_site_label
_atom_site_fract_x
_atom_site_fract_y
_atom_site_fract_z
Si Si1 0.725665 0.110945 0.744346
Si Si2 0.910840 0.394707 0.399009
Si Si3 0.702237 0.215762 0.906774
Si Si4 0.631064 0.607865 0.649344
Si Si5 0.181725 0.893208 0.186477
Si Si6 0.824009 0.296100 0.596890
Si Si7 0.547444 0.296156 0.397978
O O1 0.698601 0.137182 0.830463
O O2 0.775361 0.130236 0.760064
O O3 0.712944 0.179669 0.664626
O O4 0.716637 0.000000 0.720859
O O5 0.916587 0.402199 0.500000
O O6 0.920739 0.500000 0.357222
O O7 0.862807 0.365419 0.376949
O O8 0.942876 0.312727 0.363881
O O9 0.750000 0.250000 0.915237
O O10 0.674461 0.311475 0.885321
O O11 0.687204 0.174124 0.000000
O O12 0.640212 0.500000 0.612698
O O13 0.642023 0.611439 0.749869
O O14 0.659982 0.685045 0.598922
O O15 0.580970 0.629375 0.641821
O O16 0.185440 0.000000 0.143956
O O17 0.807729 0.316881 0.500000
O O18 0.552664 0.299590 0.500000
O O19 0.500000 0.325619 0.369391
#
# Coordination Sequence:
#
# PCOD8267373 Si02
#       7
#    16  16  16  16  16  16  16
#     4  10  19  31  47  67  95 125 157 196 230 266
#     4   8  14  25  41  61  85 113 147 183 220 264
#     4   9  17  30  49  70  93 120 151 188 233 280
#     4  10  19  32  48  63  85 118 155 195 237 278
#     4   9  18  32  49  67  91 121 154 192 233 276
#     4  10  19  30  45  64  89 125 163 193 225 266
#     4   9  18  30  43  62  86 114 152 194 235 279
#
# _framework density 16.497662999999999
#
# number of rings (size 3 to 8) (size 9 to 14) (size 15 to 20)
#    0.000    2.714    1.429    1.714    0.000    3.143 
#    0.000    7.143    0.000    5.143    0.000    0.000 
#    0.000    0.571    0.000    3.143    0.000    8.286 
#
# Total GULP energy -693958.356718 kJ/mol
# GULP energy per Si atom -12392.113513 kJ/mol
# Density = 1.646011 g / cm^3
# Si number density = 16.497663 Si / 1000 Ang^3
#
#
#
# Elastic Constant Matrix: (Units=GPa)
#
#
# Indices 1 2 3 4 5 6 
#
# 1 49.9206 26.4441 23.5975 0.0000 0.0000 0.0000
# 2 26.4441 91.4505 26.2324 0.0000 0.0000 0.0000
# 3 23.5975 26.2324 72.6049 0.0000 0.0000 0.0000
# 4 0.0000 0.0000 0.0000 16.8611 0.0000 0.0000
# 5 0.0000 0.0000 0.0000 0.0000 4.0110 0.0000
# 6 0.0000 0.0000 0.0000 0.0000 0.0000 14.3832
#
#
#
# Elastic Compliance Matrix: (Units=1/GPa)
#
#
# Indices 1 2 3 4 5 6 
#
# 1 0.026086 -0.005702 -0.006418 0.000000 0.000000 0.000000
# 2 -0.005702 0.013446 -0.003005 0.000000 0.000000 0.000000
# 3 -0.006418 -0.003005 0.016945 0.000000 0.000000 0.000000
# 4 0.000000 0.000000 0.000000 0.059308 0.000000 0.000000
# 5 0.000000 0.000000 0.000000 0.000000 0.249315 0.000000
# 6 0.000000 0.000000 0.000000 0.000000 0.000000 0.069526
#
#
# Mechanical properties :
#
#
# Convention : Reuss Voigt Hill
#
# Bulk Modulus (GPa) = 38.12912 40.72488 39.42700
# Shear Modulus (GPa) = 10.55704 16.23117 13.39411
#
# Velocity S-wave (km/s) = 2.53239 3.14004 2.85244
# Velocity P-wave (km/s) = 5.63140 6.15510 5.89907
#
# Compressibility (1/GPa) = 0.02622667
#
# Stress axis : x y z
#
# Youngs Moduli (GPa) = 38.33438 74.37370 59.01528
#
# Poissons Ratio (x) = 0.42409 0.37877
# Poissons Ratio (y) = 0.21859 0.17732
# Poissons Ratio (z) = 0.24604 0.22347
#
# Static dielectric constant tensor:
#      x y z
#    x 2.894610 0.000000 0.000000 
#    y 0.000000 3.439850 0.000000 
#    z 0.000000 0.000000 3.011900 
# 
# 
# High freq. dielectric constant tensor:
#      x y z
#    x 1.597260 0.000000 0.000000 
#    y 0.000000 1.652990 0.000000 
#    z 0.000000 0.000000 1.595450 
# 
# From -- ./inp_files/41330.got.cif
#   From: 2010.03.12/outbox.cif.g09.slc.cpg/sg65_21_cif.got.tgz:41330.got - 2010.04.10 20:52:16.
