data_PCOD8267003
_publ_section_title
;
Structure prediction by ZEFSAII (Michael W. Deem and Ramdas Pophale) SiO2 
 PCOD8267003
Probable space group: C M M M
;
_chemical_formula_sum "Si O2"
_cell_formula_units_Z 104
_cell_length_a 25.896447
_cell_length_b 27.616638
_cell_length_c 8.077484
_cell_angle_alpha 90.000000
_cell_angle_beta 90.000000
_cell_angle_gamma 90.000000
_cell_volume 5776.796868
_symmetry_space_group_name_H-M "C M M M"
_symmetry_group_IT_number 65
_symmetry_cell_setting 'orthorhombic'
loop_
_space_group_symop_operation_xyz
x,y,z
-x,-y,z
x,-y,-z
-x,y,-z
-x,-y,-z
x,y,-z
-x,y,z
x,-y,z
1/2+x,1/2+y,z
1/2-x,1/2-y,z
1/2+x,1/2-y,-z
1/2-x,1/2+y,-z
1/2-x,1/2-y,-z
1/2+x,1/2+y,-z
1/2-x,1/2+y,z
1/2+x,1/2-y,z
loop_
_atom_site_type_symbol
_atom_site_label
_atom_site_fract_x
_atom_site_fract_y
_atom_site_fract_z
Si Si1 0.306598 0.888983 0.317876
Si Si2 0.123464 0.688001 0.810606
Si Si3 0.891163 0.944707 0.690972
Si Si4 0.197292 0.772037 0.195434
Si Si5 0.000000 0.057433 0.186128
Si Si6 0.698780 0.620315 0.189895
Si Si7 0.880257 0.445547 0.500000
Si Si8 0.439488 0.150558 0.500000
O O1 0.307715 0.863388 0.500000
O O2 0.329663 0.850961 0.186881
O O3 0.248566 0.904796 0.273649
O O4 0.343991 0.936393 0.336196
O O5 0.147367 0.739866 0.759301
O O6 0.081709 0.674496 0.670223
O O7 0.100588 0.689048 0.000000
O O8 0.877155 0.941027 0.500000
O O9 0.851035 0.912884 0.791513
O O10 0.948693 0.923752 0.721576
O O11 0.887388 0.000000 0.754589
O O12 0.250000 0.750000 0.273095
O O13 0.188891 0.826285 0.266988
O O14 0.203196 0.773693 0.000000
O O15 0.000000 0.000000 0.190524
O O16 0.000000 0.077637 0.000000
O O17 0.712392 0.625665 0.000000
O O18 0.902398 0.500000 0.500000
O O19 0.927059 0.406867 0.500000
O O20 0.500000 0.158657 0.500000
#
# Coordination Sequence:
#
# PCOD8267003 Si02
#       8
#    16  16  16  16   8  16   8   8
#     4   9  18  31  49  79 111 141 177 215 262 333
#     4  10  18  35  58  82 112 145 178 222 280 332
#     4  10  21  36  52  72 102 139 179 224 274 324
#     4   9  17  30  53  80 109 143 175 214 265 323
#     4   9  17  33  57  77  91 121 173 227 271 313
#     4  11  20  32  51  79 111 143 183 224 265 323
#     4   8  18  35  55  77 108 147 181 224 284 335
#     4  10  22  39  58  86 109 139 198 241 273 334
#
# _framework density 18.003056999999998
#
# number of rings (size 3 to 8) (size 9 to 14) (size 15 to 20)
#    0.462    1.923    2.308    1.615    0.000    2.923 
#    2.769    1.154    1.692   11.077    0.000    4.308 
#    0.000    0.000    0.000    0.000    0.000    0.000 
#
# Total GULP energy -644311.149292 kJ/mol
# GULP energy per Si atom -12390.599025 kJ/mol
# Density = 1.796208 g / cm^3
# Si number density = 18.003057 Si / 1000 Ang^3
#
#
#
# Elastic Constant Matrix: (Units=GPa)
#
#
# Indices 1 2 3 4 5 6 
#
# 1 118.3844 39.6063 30.8146 0.0000 0.0000 0.0000
# 2 39.6063 78.8819 24.6509 0.0000 0.0000 0.0000
# 3 30.8146 24.6509 69.8521 0.0000 0.0000 0.0000
# 4 0.0000 0.0000 0.0000 17.3409 0.0000 0.0000
# 5 0.0000 0.0000 0.0000 0.0000 25.7710 0.0000
# 6 0.0000 0.0000 0.0000 0.0000 0.0000 16.6400
#
#
#
# Elastic Compliance Matrix: (Units=1/GPa)
#
#
# Indices 1 2 3 4 5 6 
#
# 1 0.010749 -0.004401 -0.003189 0.000000 0.000000 0.000000
# 2 -0.004401 0.016050 -0.003723 0.000000 0.000000 0.000000
# 3 -0.003189 -0.003723 0.017037 0.000000 0.000000 0.000000
# 4 0.000000 0.000000 0.000000 0.057667 0.000000 0.000000
# 5 0.000000 0.000000 0.000000 0.000000 0.038803 0.000000
# 6 0.000000 0.000000 0.000000 0.000000 0.000000 0.060096
#
#
# Mechanical properties :
#
#
# Convention : Reuss Voigt Hill
#
# Bulk Modulus (GPa) = 47.14503 50.80689 48.97596
# Shear Modulus (GPa) = 21.72988 23.42016 22.57502
#
# Velocity S-wave (km/s) = 3.47798 3.61071 3.54496
# Velocity P-wave (km/s) = 6.50942 6.75763 6.63468
#
# Compressibility (1/GPa) = 0.02121114
#
# Stress axis : x y z
#
# Youngs Moduli (GPa) = 93.02840 62.30485 58.69737
#
# Poissons Ratio (x) = 0.27418 0.18719
# Poissons Ratio (y) = 0.40939 0.21852
# Poissons Ratio (z) = 0.29667 0.23195
#
# Static dielectric constant tensor:
#      x y z
#    x 3.194060 0.000000 0.000000 
#    y 0.000000 3.218380 0.000000 
#    z 0.000000 0.000000 3.211910 
# 
# 
# High freq. dielectric constant tensor:
#      x y z
#    x 1.684370 0.000000 0.000000 
#    y 0.000000 1.673470 0.000000 
#    z 0.000000 0.000000 1.691420 
# 
# From -- ./inp_files/17031.got.cif
#   From: 2010.03.12/outbox.cif.g09.slc.cpg/sg65_9_cif.got.tgz:17031.got - 2010.04.10 20:52:16.
