data_PCOD8267765
_publ_section_title
;
Structure prediction by ZEFSAII (Michael W. Deem and Ramdas Pophale) SiO2 
 PCOD8267765
Probable space group: C M M M
;
_chemical_formula_sum "Si O2"
_cell_formula_units_Z 104
_cell_length_a 9.029592
_cell_length_b 30.431330
_cell_length_c 23.232708
_cell_angle_alpha 90.000000
_cell_angle_beta 90.000000
_cell_angle_gamma 90.000000
_cell_volume 6383.941445
_symmetry_space_group_name_H-M "C M M M"
_symmetry_group_IT_number 65
_symmetry_cell_setting 'orthorhombic'
loop_
_space_group_symop_operation_xyz
x,y,z
-x,-y,z
x,-y,-z
-x,y,-z
-x,-y,-z
x,y,-z
-x,y,z
x,-y,z
1/2+x,1/2+y,z
1/2-x,1/2-y,z
1/2+x,1/2-y,-z
1/2-x,1/2+y,-z
1/2-x,1/2-y,-z
1/2+x,1/2+y,-z
1/2-x,1/2+y,z
1/2+x,1/2-y,z
loop_
_atom_site_type_symbol
_atom_site_label
_atom_site_fract_x
_atom_site_fract_y
_atom_site_fract_z
Si Si1 0.172078 0.706312 0.815240
Si Si2 0.828164 0.332611 0.064171
Si Si3 0.325528 0.113611 0.231838
Si Si4 0.664947 0.051884 0.562994
Si Si5 0.174352 0.000000 0.937905
Si Si6 0.325597 0.550887 0.676516
Si Si7 0.674722 0.589653 0.883626
O O1 0.250000 0.750000 0.791856
O O2 0.219123 0.698601 0.882438
O O3 0.215399 0.665707 0.772918
O O4 0.000000 0.715221 0.812037
O O5 0.725902 0.375635 0.068241
O O6 0.000000 0.345807 0.071955
O O7 0.802110 0.311628 0.000000
O O8 0.500000 0.107158 0.238211
O O9 0.247769 0.087190 0.282844
O O10 0.269154 0.093264 0.173389
O O11 0.714993 0.070298 0.500000
O O12 0.500000 0.069708 0.578095
O O13 0.780516 0.065808 0.612151
O O14 0.658999 0.000000 0.559354
O O15 0.225009 0.042329 0.903993
O O16 0.000000 0.000000 0.945863
O O17 0.252078 0.000000 0.000000
O O18 0.500000 0.554385 0.683470
O O19 0.274825 0.500000 0.689449
O O20 0.500000 0.594484 0.871751
#
# Coordination Sequence:
#
# PCOD8267765 Si02
#       7
#    16  16  16  16   8  16  16
#     4   9  19  34  51  70  91 116 148 189 238 289
#     4   9  18  33  49  66  91 117 142 179 227 283
#     4  10  21  36  50  67  93 124 157 193 236 284
#     4   8  14  26  44  66  95 133 172 203 234 273
#     4   9  18  30  43  61  85 111 142 185 232 273
#     4  10  20  31  46  71 101 132 168 205 238 271
#     4  10  19  31  47  65  86 114 150 192 235 278
#
# _framework density 16.290876000000001
#
# number of rings (size 3 to 8) (size 9 to 14) (size 15 to 20)
#    0.000    2.692    0.000    3.231    1.077    5.538 
#    0.000    2.692    0.000    2.769    0.000    0.000 
#    0.000    0.615    0.000    2.000    0.000    2.462 
#
# Total GULP energy -644255.831672 kJ/mol
# GULP energy per Si atom -12389.535224 kJ/mol
# Density = 1.625380 g / cm^3
# Si number density = 16.290876 Si / 1000 Ang^3
#
#
#
# Elastic Constant Matrix: (Units=GPa)
#
#
# Indices 1 2 3 4 5 6 
#
# 1 53.5057 45.2729 37.6079 0.0000 0.0000 0.0000
# 2 45.2729 106.0741 46.9787 0.0000 0.0000 0.0000
# 3 37.6079 46.9787 96.6977 0.0000 0.0000 0.0000
# 4 0.0000 0.0000 0.0000 13.8871 0.0000 0.0000
# 5 0.0000 0.0000 0.0000 0.0000 25.2071 0.0000
# 6 0.0000 0.0000 0.0000 0.0000 0.0000 21.2757
#
#
#
# Elastic Compliance Matrix: (Units=1/GPa)
#
#
# Indices 1 2 3 4 5 6 
#
# 1 0.033199 -0.010768 -0.007680 0.000000 0.000000 0.000000
# 2 -0.010768 0.015504 -0.003345 0.000000 0.000000 0.000000
# 3 -0.007680 -0.003345 0.014954 0.000000 0.000000 0.000000
# 4 0.000000 0.000000 0.000000 0.072009 0.000000 0.000000
# 5 0.000000 0.000000 0.000000 0.000000 0.039671 0.000000
# 6 0.000000 0.000000 0.000000 0.000000 0.000000 0.047002
#
#
# Mechanical properties :
#
#
# Convention : Reuss Voigt Hill
#
# Bulk Modulus (GPa) = 49.82317 57.33298 53.57807
# Shear Modulus (GPa) = 18.34079 20.50185 19.42132
#
# Velocity S-wave (km/s) = 3.35898 3.55136 3.45651
# Velocity P-wave (km/s) = 6.75970 7.21706 6.99212
#
# Compressibility (1/GPa) = 0.02007098
#
# Stress axis : x y z
#
# Youngs Moduli (GPa) = 30.12120 64.49744 66.87375
#
# Poissons Ratio (x) = 0.69451 0.51362
# Poissons Ratio (y) = 0.32434 0.22367
# Poissons Ratio (z) = 0.23135 0.21572
#
# Static dielectric constant tensor:
#      x y z
#    x 3.069370 0.000000 0.000000 
#    y 0.000000 3.037260 0.000000 
#    z 0.000000 0.000000 3.483410 
# 
# 
# High freq. dielectric constant tensor:
#      x y z
#    x 1.628550 0.000000 0.000000 
#    y 0.000000 1.600130 0.000000 
#    z 0.000000 0.000000 1.616860 
# 
# From -- ./inp_files/68493.got.cif
#   From: 2010.03.12/outbox.cif.g09.slc.cpg/sg65_35_cif.got.tgz:68493.got - 2010.04.10 20:52:16.
