data_PCOD8267885
_publ_section_title
;
Structure prediction by ZEFSAII (Michael W. Deem and Ramdas Pophale) SiO2 
 PCOD8267885
Probable space group: C M M M
;
_chemical_formula_sum "Si O2"
_cell_formula_units_Z 104
_cell_length_a 29.038165
_cell_length_b 8.907336
_cell_length_c 23.700885
_cell_angle_alpha 90.000000
_cell_angle_beta 90.000000
_cell_angle_gamma 90.000000
_cell_volume 6130.297719
_symmetry_space_group_name_H-M "C M M M"
_symmetry_group_IT_number 65
_symmetry_cell_setting 'orthorhombic'
loop_
_space_group_symop_operation_xyz
x,y,z
-x,-y,z
x,-y,-z
-x,y,-z
-x,-y,-z
x,y,-z
-x,y,z
x,-y,z
1/2+x,1/2+y,z
1/2-x,1/2-y,z
1/2+x,1/2-y,-z
1/2-x,1/2+y,-z
1/2-x,1/2-y,-z
1/2+x,1/2+y,-z
1/2-x,1/2+y,z
1/2+x,1/2-y,z
loop_
_atom_site_type_symbol
_atom_site_label
_atom_site_fract_x
_atom_site_fract_y
_atom_site_fract_z
Si Si1 0.700369 0.176888 0.121551
Si Si2 0.949773 0.822488 0.610459
Si Si3 0.550549 0.170993 0.272543
Si Si4 0.200426 0.821619 0.669285
Si Si5 0.144083 0.178544 0.437926
Si Si6 0.853534 0.325418 0.770247
Si Si7 0.201268 0.324961 0.000000
O O1 0.750000 0.250000 0.130620
O O2 0.666075 0.234051 0.170206
O O3 0.677564 0.220430 0.059978
O O4 0.707481 0.000000 0.126169
O O5 0.941004 0.778194 0.674778
O O6 0.907762 0.758725 0.572946
O O7 0.000000 0.761190 0.589660
O O8 0.949747 0.000000 0.607262
O O9 0.500000 0.202610 0.245090
O O10 0.591220 0.200896 0.227553
O O11 0.553154 0.000000 0.294464
O O12 0.250000 0.750000 0.677443
O O13 0.179093 0.762816 0.609941
O O14 0.167828 0.770244 0.719824
O O15 0.204729 0.000000 0.670430
O O16 0.160085 0.235029 0.500000
O O17 0.142973 0.000000 0.435771
O O18 0.841354 0.500000 0.760492
O O19 0.250000 0.250000 0.000000
O O20 0.209922 0.500000 0.000000
#
# Coordination Sequence:
#
# PCOD8267885 Si02
#       7
#    16  16  16  16  16  16   8
#     4   9  17  28  43  65  91 121 152 184 219 260
#     4   9  16  28  48  71  91 112 141 178 222 272
#     4   9  17  29  46  67  92 120 146 177 220 268
#     4  11  22  35  50  67  89 118 150 188 230 268
#     4   9  18  32  48  67  90 115 146 183 223 269
#     4  10  19  31  48  70  94 119 151 186 223 267
#     4   8  14  26  42  60  87 119 151 183 218 256
#
# _framework density 16.964918999999998
#
# number of rings (size 3 to 8) (size 9 to 14) (size 15 to 20)
#    0.000    2.615    1.538    0.923    0.000    2.462 
#    0.000    1.538    0.000    3.692    0.000    2.692 
#    0.000    4.308    0.000    0.000    0.000   36.538 
#
# Total GULP energy -644221.690165 kJ/mol
# GULP energy per Si atom -12388.878657 kJ/mol
# Density = 1.692631 g / cm^3
# Si number density = 16.964919 Si / 1000 Ang^3
#
#
#
# Elastic Constant Matrix: (Units=GPa)
#
#
# Indices 1 2 3 4 5 6 
#
# 1 109.3418 16.8121 60.6477 0.0000 0.0000 0.0000
# 2 16.8121 17.8345 16.3144 0.0000 0.0000 0.0000
# 3 60.6477 16.3144 135.3817 0.0000 0.0000 0.0000
# 4 0.0000 0.0000 0.0000 17.3105 0.0000 0.0000
# 5 0.0000 0.0000 0.0000 0.0000 20.9489 0.0000
# 6 0.0000 0.0000 0.0000 0.0000 0.0000 14.0409
#
#
#
# Elastic Compliance Matrix: (Units=1/GPa)
#
#
# Indices 1 2 3 4 5 6 
#
# 1 0.013075 -0.007831 -0.004914 0.000000 0.000000 0.000000
# 2 -0.007831 0.067708 -0.004651 0.000000 0.000000 0.000000
# 3 -0.004914 -0.004651 0.010148 0.000000 0.000000 0.000000
# 4 0.000000 0.000000 0.000000 0.057768 0.000000 0.000000
# 5 0.000000 0.000000 0.000000 0.000000 0.047735 0.000000
# 6 0.000000 0.000000 0.000000 0.000000 0.000000 0.071221
#
#
# Mechanical properties :
#
#
# Convention : Reuss Voigt Hill
#
# Bulk Modulus (GPa) = 17.81266 50.01183 33.91224
# Shear Modulus (GPa) = 15.56856 21.71230 18.64043
#
# Velocity S-wave (km/s) = 3.03263 3.58136 3.31836
# Velocity P-wave (km/s) = 4.77336 6.82972 5.89194
#
# Compressibility (1/GPa) = 0.05613986
#
# Stress axis : x y z
#
# Youngs Moduli (GPa) = 76.48135 14.76934 98.53930
#
# Poissons Ratio (x) = 0.11565 0.48419
# Poissons Ratio (y) = 0.59890 0.45833
# Poissons Ratio (z) = 0.37580 0.06870
#
# Static dielectric constant tensor:
#      x y z
#    x 3.405010 0.000000 0.000000 
#    y 0.000000 10.787540 0.000000 
#    z 0.000000 0.000000 3.542340 
# 
# 
# High freq. dielectric constant tensor:
#      x y z
#    x 1.648730 0.000000 0.000000 
#    y 0.000000 1.637320 0.000000 
#    z 0.000000 0.000000 1.643570 
# 
# From -- ./inp_files/72138.got.cif
#   From: 2010.03.12/outbox.cif.g09.slc.cpg/sg65_37_cif.got.tgz:72138.got - 2010.04.10 20:52:16.
