data_PCOD8267359
_publ_section_title
;
Structure prediction by ZEFSAII (Michael W. Deem and Ramdas Pophale) SiO2 
 PCOD8267359
Probable space group: C M M M
;
_chemical_formula_sum "Si O2"
_cell_formula_units_Z 120
_cell_length_a 21.607372
_cell_length_b 23.264478
_cell_length_c 13.324822
_cell_angle_alpha 90.000000
_cell_angle_beta 90.000000
_cell_angle_gamma 90.000000
_cell_volume 6698.177894
_symmetry_space_group_name_H-M "C M M M"
_symmetry_group_IT_number 65
_symmetry_cell_setting 'orthorhombic'
loop_
_space_group_symop_operation_xyz
x,y,z
-x,-y,z
x,-y,-z
-x,y,-z
-x,-y,-z
x,y,-z
-x,y,z
x,-y,z
1/2+x,1/2+y,z
1/2-x,1/2-y,z
1/2+x,1/2-y,-z
1/2-x,1/2+y,-z
1/2-x,1/2-y,-z
1/2+x,1/2+y,-z
1/2-x,1/2+y,z
1/2+x,1/2-y,z
loop_
_atom_site_type_symbol
_atom_site_label
_atom_site_fract_x
_atom_site_fract_y
_atom_site_fract_z
Si Si1 0.646826 0.567503 0.193132
Si Si2 0.109587 0.785297 0.888973
Si Si3 0.927807 0.434991 0.885227
Si Si4 0.068334 0.847794 0.296227
Si Si5 0.763484 0.151792 0.116843
Si Si6 0.072117 0.730481 0.614009
Si Si7 0.431270 0.432012 0.000000
Si Si8 0.634104 0.828063 0.795927
O O1 0.648415 0.500000 0.213135
O O2 0.617368 0.599220 0.291215
O O3 0.714763 0.590485 0.164418
O O4 0.604484 0.587989 0.099363
O O5 0.064937 0.816315 0.811256
O O6 0.181434 0.802288 0.871378
O O7 0.103676 0.716699 0.874226
O O8 0.087195 0.802624 0.000000
O O9 0.912075 0.500000 0.851592
O O10 0.890885 0.391974 0.813894
O O11 0.000000 0.422822 0.873195
O O12 0.907034 0.425669 0.000000
O O13 0.088426 0.798661 0.375587
O O14 0.000000 0.872411 0.321592
O O15 0.707552 0.172763 0.186207
O O16 0.743623 0.144541 0.000000
O O17 0.084881 0.711862 0.500000
O O18 0.116827 0.691741 0.683138
O O19 0.000000 0.720756 0.643205
O O20 0.433677 0.500000 0.000000
O O21 0.500000 0.406037 0.000000
#
# Coordination Sequence:
#
# PCOD8267359 Si02
#       8
#    16  16  16  16  16  16   8  16
#     4  10  19  31  45  67 104 145 182 216 245 283
#     4   9  18  30  43  66 102 135 162 203 249 293
#     4   9  18  31  45  67 102 133 155 188 233 282
#     4   9  18  30  48  74 100 131 170 211 262 315
#     4  10  19  30  44  66 103 142 173 206 245 290
#     4   9  19  37  58  79 102 123 153 212 282 333
#     4   9  16  26  42  64  93 136 183 217 243 276
#     4  11  19  30  52  74  91 125 174 206 239 306
#
# _framework density 17.915320999999999
#
# number of rings (size 3 to 8) (size 9 to 14) (size 15 to 20)
#    0.000    2.467    0.667    2.800    0.933    3.200 
#    0.000    0.000    0.000   15.200    0.000    3.733 
#    0.000    0.000    0.000    0.000    0.000    0.000 
#
# Total GULP energy -743722.065962 kJ/mol
# GULP energy per Si atom -12395.367766 kJ/mol
# Density = 1.787454 g / cm^3
# Si number density = 17.915321 Si / 1000 Ang^3
#
#
#
# Elastic Constant Matrix: (Units=GPa)
#
#
# Indices 1 2 3 4 5 6 
#
# 1 56.1206 20.5010 31.9695 0.0000 0.0000 0.0000
# 2 20.5010 93.7007 23.9337 0.0000 0.0000 0.0000
# 3 31.9695 23.9337 72.7970 0.0000 0.0000 0.0000
# 4 0.0000 0.0000 0.0000 19.4690 0.0000 0.0000
# 5 0.0000 0.0000 0.0000 0.0000 -40.4578 0.0000
# 6 0.0000 0.0000 0.0000 0.0000 0.0000 25.9315
#
#
#
# Elastic Compliance Matrix: (Units=1/GPa)
#
#
# Indices 1 2 3 4 5 6 
#
# 1 0.024439 -0.002845 -0.009797 0.000000 0.000000 0.000000
# 2 -0.002845 0.011982 -0.002690 0.000000 0.000000 0.000000
# 3 -0.009797 -0.002690 0.018924 0.000000 0.000000 0.000000
# 4 0.000000 0.000000 0.000000 0.051364 0.000000 0.000000
# 5 0.000000 0.000000 0.000000 0.000000 -0.024717 0.000000
# 6 0.000000 0.000000 0.000000 0.000000 0.000000 0.038563
#
#
# Mechanical properties :
#
#
# Convention : Reuss Voigt Hill
#
# Bulk Modulus (GPa) = 40.51766 41.71408 41.11587
# Shear Modulus (GPa) = 31.35866 10.73613 21.04739
#
# Velocity S-wave (km/s) = 4.18830 2.45066 3.43129
# Velocity P-wave (km/s) = 6.78634 5.59841 6.22080
#
# Compressibility (1/GPa) = 0.02468060
#
# Stress axis : x y z
#
# Youngs Moduli (GPa) = 40.91805 83.46015 52.84323
#
# Poissons Ratio (x) = 0.23741 0.51773
# Poissons Ratio (y) = 0.11639 0.14215
# Poissons Ratio (z) = 0.40089 0.22451
#
# Static dielectric constant tensor:
#      x y z
#    x 3.223150 0.000000 0.000000 
#    y 0.000000 3.379220 0.000000 
#    z 0.000000 0.000000 3.050460 
# 
# 
# High freq. dielectric constant tensor:
#      x y z
#    x 1.684150 0.000000 0.000000 
#    y 0.000000 1.699690 0.000000 
#    z 0.000000 0.000000 1.648380 
# 
# From -- ./inp_files/44789.got.cif
#   From: 2010.03.12/outbox.cif.g09.slc.cpg/sg65_23_cif.got.tgz:44789.got - 2010.04.10 20:52:16.
