data_PCOD8267392
_publ_section_title
;
Structure prediction by ZEFSAII (Michael W. Deem and Ramdas Pophale) SiO2 
 PCOD8267392
Probable space group: C M M M
;
_chemical_formula_sum "Si O2"
_cell_formula_units_Z 104
_cell_length_a 8.909517
_cell_length_b 27.517780
_cell_length_c 26.661098
_cell_angle_alpha 90.000000
_cell_angle_beta 90.000000
_cell_angle_gamma 90.000000
_cell_volume 6536.504828
_symmetry_space_group_name_H-M "C M M M"
_symmetry_group_IT_number 65
_symmetry_cell_setting 'orthorhombic'
loop_
_space_group_symop_operation_xyz
x,y,z
-x,-y,z
x,-y,-z
-x,y,-z
-x,-y,-z
x,y,-z
-x,y,z
x,-y,z
1/2+x,1/2+y,z
1/2-x,1/2-y,z
1/2+x,1/2-y,-z
1/2-x,1/2+y,-z
1/2-x,1/2-y,-z
1/2+x,1/2+y,-z
1/2-x,1/2+y,z
1/2+x,1/2-y,z
loop_
_atom_site_type_symbol
_atom_site_label
_atom_site_fract_x
_atom_site_fract_y
_atom_site_fract_z
Si Si1 0.322516 0.698449 0.055653
Si Si2 0.822891 0.608474 0.700645
Si Si3 0.176537 0.145467 0.848346
Si Si4 0.330749 0.442249 0.500000
Si Si5 0.675388 0.445098 0.789125
Si Si6 0.676075 0.944815 0.599819
Si Si7 0.321682 0.698468 0.748863
O O1 0.500000 0.704665 0.060011
O O2 0.250000 0.750000 0.066835
O O3 0.257358 0.661152 0.097500
O O4 0.277706 0.679506 0.000000
O O5 0.770190 0.567822 0.740137
O O6 0.777134 0.589035 0.646087
O O7 0.738480 0.659383 0.708859
O O8 0.000000 0.616176 0.706144
O O9 0.224800 0.090304 0.834897
O O10 0.231790 0.181650 0.804327
O O11 0.000000 0.149074 0.851887
O O12 0.318902 0.500000 0.500000
O O13 0.500000 0.423308 0.500000
O O14 0.251436 0.422310 0.550100
O O15 0.500000 0.437202 0.776408
O O16 0.709965 0.500000 0.805880
O O17 0.500000 0.944381 0.591034
O O18 0.731618 0.000000 0.610223
O O19 0.500000 0.701664 0.744630
O O20 0.250000 0.750000 0.735992
#
# Coordination Sequence:
#
# PCOD8267392 Si02
#       7
#    16  16  16   8  16  16  16
#     4   9  16  26  41  60  82 107 136 173 216 261
#     4  10  19  30  45  66  90 116 147 181 217 258
#     4   8  15  27  42  61  84 111 142 174 212 258
#     4   9  17  27  41  63  88 115 148 183 215 249
#     4   9  17  29  44  61  84 115 147 179 216 258
#     4   9  17  29  44  62  88 120 148 176 213 255
#     4  10  19  31  46  64  88 116 145 178 217 261
#
# _framework density 15.910644
#
# number of rings (size 3 to 8) (size 9 to 14) (size 15 to 20)
#    0.000    2.846    0.000    3.000    0.000    3.077 
#    0.000    4.615    0.000    0.462    0.000    3.769 
#    0.000    0.000    0.000    9.385    0.000   10.154 
#
# Total GULP energy -644591.848725 kJ/mol
# GULP energy per Si atom -12395.997091 kJ/mol
# Density = 1.587443 g / cm^3
# Si number density = 15.910644 Si / 1000 Ang^3
#
#
#
# Elastic Constant Matrix: (Units=GPa)
#
#
# Indices 1 2 3 4 5 6 
#
# 1 42.3853 34.4367 38.8302 0.0000 0.0000 0.0000
# 2 34.4367 114.0482 72.3417 0.0000 0.0000 0.0000
# 3 38.8302 72.3417 147.0086 0.0000 0.0000 0.0000
# 4 0.0000 0.0000 0.0000 22.1107 0.0000 0.0000
# 5 0.0000 0.0000 0.0000 0.0000 19.6125 0.0000
# 6 0.0000 0.0000 0.0000 0.0000 0.0000 21.6691
#
#
#
# Elastic Compliance Matrix: (Units=1/GPa)
#
#
# Indices 1 2 3 4 5 6 
#
# 1 0.034325 -0.006707 -0.005766 0.000000 0.000000 0.000000
# 2 -0.006707 0.014058 -0.005146 0.000000 0.000000 0.000000
# 3 -0.005766 -0.005146 0.010858 0.000000 0.000000 0.000000
# 4 0.000000 0.000000 0.000000 0.045227 0.000000 0.000000
# 5 0.000000 0.000000 0.000000 0.000000 0.050988 0.000000
# 6 0.000000 0.000000 0.000000 0.000000 0.000000 0.046149
#
#
# Mechanical properties :
#
#
# Convention : Reuss Voigt Hill
#
# Bulk Modulus (GPa) = 41.66324 66.07325 53.86825
# Shear Modulus (GPa) = 20.42136 23.20070 21.81103
#
# Velocity S-wave (km/s) = 3.58649 3.82276 3.70651
# Velocity P-wave (km/s) = 6.58735 7.81681 7.22827
#
# Compressibility (1/GPa) = 0.02400197
#
# Stress axis : x y z
#
# Youngs Moduli (GPa) = 29.13367 71.13611 92.10094
#
# Poissons Ratio (x) = 0.47710 0.53105
# Poissons Ratio (y) = 0.19540 0.47396
# Poissons Ratio (z) = 0.16798 0.36607
#
# Static dielectric constant tensor:
#      x y z
#    x 2.936020 0.000000 0.000000 
#    y 0.000000 2.994130 0.000000 
#    z 0.000000 0.000000 3.254680 
# 
# 
# High freq. dielectric constant tensor:
#      x y z
#    x 1.605140 0.000000 0.000000 
#    y 0.000000 1.591530 0.000000 
#    z 0.000000 0.000000 1.606960 
# 
# From -- ./inp_files/68268.got.cif
#   From: 2010.03.12/outbox.cif.g09.slc.cpg/sg65_35_cif.got.tgz:68268.got - 2010.04.10 20:52:16.
