data_PCOD8267246
_publ_section_title
;
Structure prediction by ZEFSAII (Michael W. Deem and Ramdas Pophale) SiO2 
 PCOD8267246
Probable space group: C M M M
;
_chemical_formula_sum "Si O2"
_cell_formula_units_Z 88
_cell_length_a 8.774143
_cell_length_b 23.623793
_cell_length_c 23.065559
_cell_angle_alpha 90.000000
_cell_angle_beta 90.000000
_cell_angle_gamma 90.000000
_cell_volume 4780.995347
_symmetry_space_group_name_H-M "C M M M"
_symmetry_group_IT_number 65
_symmetry_cell_setting 'orthorhombic'
loop_
_space_group_symop_operation_xyz
x,y,z
-x,-y,z
x,-y,-z
-x,y,-z
-x,-y,-z
x,y,-z
-x,y,z
x,-y,z
1/2+x,1/2+y,z
1/2-x,1/2-y,z
1/2+x,1/2-y,-z
1/2-x,1/2+y,-z
1/2-x,1/2-y,-z
1/2+x,1/2+y,-z
1/2-x,1/2+y,z
1/2+x,1/2-y,z
loop_
_atom_site_type_symbol
_atom_site_label
_atom_site_fract_x
_atom_site_fract_y
_atom_site_fract_z
Si Si1 0.318318 0.500000 0.417178
Si Si2 0.170318 0.066980 0.000000
Si Si3 0.319657 0.388066 0.227539
Si Si4 0.179866 0.565049 0.118492
Si Si5 0.319554 0.500000 0.712756
Si Si6 0.180556 0.188501 0.333039
Si Si7 0.675808 0.882999 0.436301
O O1 0.500000 0.500000 0.424284
O O2 0.259658 0.500000 0.351819
O O3 0.249620 0.444338 0.445888
O O4 0.258551 0.087549 0.942899
O O5 0.000000 0.092548 0.000000
O O6 0.164616 0.000000 0.000000
O O7 0.500000 0.388768 0.218701
O O8 0.240576 0.388528 0.164751
O O9 0.254962 0.444744 0.256669
O O10 0.270420 0.337031 0.270303
O O11 0.236373 0.500000 0.131171
O O12 0.000000 0.566747 0.117062
O O13 0.500000 0.500000 0.713793
O O14 0.250000 0.250000 0.338510
O O15 0.236268 0.151197 0.386796
O O16 0.000000 0.191281 0.337310
O O17 0.689513 0.853075 0.500000
O O18 0.500000 0.888111 0.417640
#
# Coordination Sequence:
#
# PCOD8267246 Si02
#       7
#     8   8  16  16   8  16  16
#     4  11  20  36  59  86 115 147 181 220 271 328
#     4   9  17  29  45  67 102 151 192 219 255 310
#     4  10  19  34  55  78 106 141 179 219 268 328
#     4  10  19  29  45  75 112 146 180 221 266 313
#     4   9  16  30  52  78 107 136 173 218 266 323
#     4  11  24  42  62  82 106 140 184 234 283 332
#     4  11  24  40  58  83 114 146 181 224 275 333
#
# _framework density 18.406210000000002
#
# number of rings (size 3 to 8) (size 9 to 14) (size 15 to 20)
#    0.000    1.727    2.727    2.455    0.000    6.182 
#    0.000    0.000    0.000    0.000    0.000    0.636 
#    0.000    0.000    0.000    0.000    0.000    0.000 
#
# Total GULP energy -545400.408445 kJ/mol
# GULP energy per Si atom -12395.463828 kJ/mol
# Density = 1.836432 g / cm^3
# Si number density = 18.406210 Si / 1000 Ang^3
#
#
#
# Elastic Constant Matrix: (Units=GPa)
#
#
# Indices 1 2 3 4 5 6 
#
# 1 84.6948 34.7556 50.6052 0.0000 0.0000 0.0000
# 2 34.7556 91.1893 46.4124 0.0000 0.0000 0.0000
# 3 50.6052 46.4124 157.0497 0.0000 0.0000 0.0000
# 4 0.0000 0.0000 0.0000 30.8502 0.0000 0.0000
# 5 0.0000 0.0000 0.0000 0.0000 31.0682 0.0000
# 6 0.0000 0.0000 0.0000 0.0000 0.0000 24.5893
#
#
#
# Elastic Compliance Matrix: (Units=1/GPa)
#
#
# Indices 1 2 3 4 5 6 
#
# 1 0.015791 -0.004036 -0.003895 0.000000 0.000000 0.000000
# 2 -0.004036 0.013939 -0.002819 0.000000 0.000000 0.000000
# 3 -0.003895 -0.002819 0.008456 0.000000 0.000000 0.000000
# 4 0.000000 0.000000 0.000000 0.032415 0.000000 0.000000
# 5 0.000000 0.000000 0.000000 0.000000 0.032187 0.000000
# 6 0.000000 0.000000 0.000000 0.000000 0.000000 0.040668
#
#
# Mechanical properties :
#
#
# Convention : Reuss Voigt Hill
#
# Bulk Modulus (GPa) = 59.93342 66.27557 63.10449
# Shear Modulus (GPa) = 29.32242 30.71223 30.01732
#
# Velocity S-wave (km/s) = 3.99566 4.08926 4.04273
# Velocity P-wave (km/s) = 7.34297 7.64077 7.49335
#
# Compressibility (1/GPa) = 0.01668518
#
# Stress axis : x y z
#
# Youngs Moduli (GPa) = 63.32804 71.74040 118.26330
#
# Poissons Ratio (x) = 0.28953 0.46069
# Poissons Ratio (y) = 0.25558 0.33338
# Poissons Ratio (z) = 0.24669 0.20223
#
# Static dielectric constant tensor:
#      x y z
#    x 3.335440 0.000000 0.000000 
#    y 0.000000 3.188480 0.000000 
#    z 0.000000 0.000000 3.662470 
# 
# 
# High freq. dielectric constant tensor:
#      x y z
#    x 1.716610 0.000000 0.000000 
#    y 0.000000 1.669960 0.000000 
#    z 0.000000 0.000000 1.732590 
# 
# From -- ./inp_files/59917.got.cif
#   From: 2010.03.12/outbox.cif.g09.slc.cpg/sg65_30_cif.got.tgz:59917.got - 2010.04.10 20:52:16.
