data_PCOD8267877
_publ_section_title
;
Structure prediction by ZEFSAII (Michael W. Deem and Ramdas Pophale) SiO2 
 PCOD8267877
Probable space group: C M M M
;
_chemical_formula_sum "Si O2"
_cell_formula_units_Z 72
_cell_length_a 9.280843
_cell_length_b 26.862079
_cell_length_c 16.207658
_cell_angle_alpha 90.000000
_cell_angle_beta 90.000000
_cell_angle_gamma 90.000000
_cell_volume 4040.613514
_symmetry_space_group_name_H-M "C M M M"
_symmetry_group_IT_number 65
_symmetry_cell_setting 'orthorhombic'
loop_
_space_group_symop_operation_xyz
x,y,z
-x,-y,z
x,-y,-z
-x,y,-z
-x,-y,-z
x,y,-z
-x,y,z
x,-y,z
1/2+x,1/2+y,z
1/2-x,1/2-y,z
1/2+x,1/2-y,-z
1/2-x,1/2+y,-z
1/2-x,1/2-y,-z
1/2+x,1/2+y,-z
1/2-x,1/2+y,z
1/2+x,1/2-y,z
loop_
_atom_site_type_symbol
_atom_site_label
_atom_site_fract_x
_atom_site_fract_y
_atom_site_fract_z
Si Si1 0.168298 0.202103 0.817740
Si Si2 0.166432 0.444796 0.237910
Si Si3 0.167226 0.100946 0.906964
Si Si4 0.168067 0.653527 0.327092
Si Si5 0.832705 0.301691 0.500000
O O1 0.250000 0.250000 0.854409
O O2 0.196553 0.157888 0.881827
O O3 0.236306 0.189566 0.728993
O O4 0.000000 0.213426 0.805916
O O5 0.203305 0.500000 0.272210
O O6 0.250524 0.436465 0.152911
O O7 0.208316 0.404090 0.307360
O O8 0.000000 0.439980 0.215085
O O9 0.000000 0.088099 0.899639
O O10 0.223143 0.093161 0.000000
O O11 0.208932 0.664788 0.421314
O O12 0.000000 0.664035 0.309167
O O13 0.750000 0.250000 0.500000
O O14 0.000000 0.288095 0.500000
#
# Coordination Sequence:
#
# PCOD8267877 Si02
#       5
#    16  16  16  16   8
#     4  10  19  31  48  69  94 126 161 195 235 283
#     4   9  18  33  52  72  95 124 157 195 239 283
#     4   9  19  34  49  68  95 125 159 198 237 281
#     4   9  18  33  50  70  97 126 158 195 234 279
#     4  10  20  32  49  73  99 127 158 192 231 276
#
# _framework density 17.819077
#
# number of rings (size 3 to 8) (size 9 to 14) (size 15 to 20)
#    0.000    2.667    0.000    1.333    0.000    5.333 
#    0.000    2.778    0.000    3.333    0.000    0.000 
#    0.000    8.000    0.000    0.000    0.000    0.000 
#
# Total GULP energy -446398.369114 kJ/mol
# GULP energy per Si atom -12399.954698 kJ/mol
# Density = 1.777852 g / cm^3
# Si number density = 17.819077 Si / 1000 Ang^3
#
#
#
# Elastic Constant Matrix: (Units=GPa)
#
#
# Indices 1 2 3 4 5 6 
#
# 1 53.1182 37.4507 31.0988 0.0000 0.0000 0.0000
# 2 37.4507 114.1221 45.9390 0.0000 0.0000 0.0000
# 3 31.0988 45.9390 116.5756 0.0000 0.0000 0.0000
# 4 0.0000 0.0000 0.0000 15.7346 0.0000 0.0000
# 5 0.0000 0.0000 0.0000 0.0000 24.8755 0.0000
# 6 0.0000 0.0000 0.0000 0.0000 0.0000 27.1022
#
#
#
# Elastic Compliance Matrix: (Units=1/GPa)
#
#
# Indices 1 2 3 4 5 6 
#
# 1 0.026171 -0.006867 -0.004275 0.000000 0.000000 0.000000
# 2 -0.006867 0.012217 -0.002982 0.000000 0.000000 0.000000
# 3 -0.004275 -0.002982 0.010894 0.000000 0.000000 0.000000
# 4 0.000000 0.000000 0.000000 0.063554 0.000000 0.000000
# 5 0.000000 0.000000 0.000000 0.000000 0.040200 0.000000
# 6 0.000000 0.000000 0.000000 0.000000 0.000000 0.036897
#
#
# Mechanical properties :
#
#
# Convention : Reuss Voigt Hill
#
# Bulk Modulus (GPa) = 47.54773 56.97700 52.26237
# Shear Modulus (GPa) = 22.20315 24.83095 23.51705
#
# Velocity S-wave (km/s) = 3.53375 3.73702 3.63680
# Velocity P-wave (km/s) = 6.58721 7.11794 6.85771
#
# Compressibility (1/GPa) = 0.02103150
#
# Stress axis : x y z
#
# Youngs Moduli (GPa) = 38.21062 81.85579 91.79480
#
# Poissons Ratio (x) = 0.56213 0.39246
# Poissons Ratio (y) = 0.26240 0.27375
# Poissons Ratio (z) = 0.16336 0.24411
#
# Static dielectric constant tensor:
#      x y z
#    x 3.333270 0.000000 0.000000 
#    y 0.000000 3.478350 0.000000 
#    z 0.000000 0.000000 3.268770 
# 
# 
# High freq. dielectric constant tensor:
#      x y z
#    x 1.688650 0.000000 0.000000 
#    y 0.000000 1.694330 0.000000 
#    z 0.000000 0.000000 1.676170 
# 
# From -- ./inp_files/36521.got.cif
#   From: 2010.03.12/outbox.cif.g09.slc.cpg/sg65_19_cif.got.tgz:36521.got - 2010.04.10 20:52:16.
