data_PCOD8267422
_publ_section_title
;
Structure prediction by ZEFSAII (Michael W. Deem and Ramdas Pophale) SiO2 
 PCOD8267422
Probable space group: C M M M
;
_chemical_formula_sum "Si O2"
_cell_formula_units_Z 96
_cell_length_a 11.043065
_cell_length_b 26.466654
_cell_length_c 20.537744
_cell_angle_alpha 90.000000
_cell_angle_beta 90.000000
_cell_angle_gamma 90.000000
_cell_volume 6002.627651
_symmetry_space_group_name_H-M "C M M M"
_symmetry_group_IT_number 65
_symmetry_cell_setting 'orthorhombic'
loop_
_space_group_symop_operation_xyz
x,y,z
-x,-y,z
x,-y,-z
-x,y,-z
-x,-y,-z
x,y,-z
-x,y,z
x,-y,z
1/2+x,1/2+y,z
1/2-x,1/2-y,z
1/2+x,1/2-y,-z
1/2-x,1/2+y,-z
1/2-x,1/2-y,-z
1/2+x,1/2+y,-z
1/2-x,1/2+y,z
1/2+x,1/2-y,z
loop_
_atom_site_type_symbol
_atom_site_label
_atom_site_fract_x
_atom_site_fract_y
_atom_site_fract_z
Si Si1 0.358694 0.710880 0.075923
Si Si2 0.000000 0.942758 0.833132
Si Si3 0.251741 0.559416 0.368635
Si Si4 0.271365 0.394705 0.121334
Si Si5 0.000000 0.060516 0.688069
Si Si6 0.637063 0.060462 0.500000
Si Si7 0.643222 0.057882 0.000000
Si Si8 0.639588 0.056930 0.235425
O O1 0.500000 0.727633 0.093672
O O2 0.250000 0.750000 0.092595
O O3 0.320449 0.662022 0.116600
O O4 0.355240 0.697578 0.000000
O O5 0.113204 0.930539 0.878263
O O6 0.000000 0.916106 0.761555
O O7 0.000000 0.000000 0.814401
O O8 0.260188 0.500000 0.378493
O O9 0.383337 0.581443 0.350419
O O10 0.203640 0.583053 0.436108
O O11 0.159615 0.572723 0.310218
O O12 0.186140 0.411319 0.062594
O O13 0.201708 0.401922 0.189314
O O14 0.000000 0.000000 0.689453
O O15 0.500000 0.080341 0.500000
O O16 0.638636 0.000000 0.500000
O O17 0.500000 0.058113 0.000000
O O18 0.691153 0.000000 0.000000
O O19 0.500000 0.056716 0.218556
O O20 0.693236 0.000000 0.223317
#
# Coordination Sequence:
#
# PCOD8267422 Si02
#       8
#    16   8  16  16   8   8   8  16
#     4  10  22  41  59  76  96 121 160 210 258 311
#     4  11  20  31  51  75 103 131 163 201 245 299
#     4   9  16  26  40  58  84 121 163 205 243 279
#     4  12  21  35  53  73  97 128 164 202 252 300
#     4   9  16  27  41  61  89 123 161 199 239 283
#     4   9  16  25  37  55  81 116 162 209 244 273
#     4  11  24  37  48  71 106 134 162 203 249 302
#     4  10  19  30  45  67  97 133 170 202 240 297
#
# _framework density 15.992996
#
# number of rings (size 3 to 8) (size 9 to 14) (size 15 to 20)
#    0.000    1.833    3.333    2.500    0.000    5.333 
#    0.000    2.500    0.000    0.000    0.000    0.000 
#    0.000    0.000    0.000    0.750    0.000    6.083 
#
# Total GULP energy -594845.119877 kJ/mol
# GULP energy per Si atom -12392.606664 kJ/mol
# Density = 1.595659 g / cm^3
# Si number density = 15.992996 Si / 1000 Ang^3
#
#
#
# Elastic Constant Matrix: (Units=GPa)
#
#
# Indices 1 2 3 4 5 6 
#
# 1 108.2768 34.0966 37.8059 0.0000 0.0000 0.0000
# 2 34.0966 45.0262 29.1788 0.0000 0.0000 0.0000
# 3 37.8059 29.1788 92.5803 0.0000 0.0000 0.0000
# 4 0.0000 0.0000 0.0000 4.6045 0.0000 0.0000
# 5 0.0000 0.0000 0.0000 0.0000 29.8495 0.0000
# 6 0.0000 0.0000 0.0000 0.0000 0.0000 7.2617
#
#
#
# Elastic Compliance Matrix: (Units=1/GPa)
#
#
# Indices 1 2 3 4 5 6 
#
# 1 0.012641 -0.007826 -0.002696 0.000000 0.000000 0.000000
# 2 -0.007826 0.032754 -0.007128 0.000000 0.000000 0.000000
# 3 -0.002696 -0.007128 0.014149 0.000000 0.000000 0.000000
# 4 0.000000 0.000000 0.000000 0.217177 0.000000 0.000000
# 5 0.000000 0.000000 0.000000 0.000000 0.033501 0.000000
# 6 0.000000 0.000000 0.000000 0.000000 0.000000 0.137708
#
#
# Mechanical properties :
#
#
# Convention : Reuss Voigt Hill
#
# Bulk Modulus (GPa) = 41.24357 49.78288 45.51323
# Shear Modulus (GPa) = 10.17686 17.99662 14.08674
#
# Velocity S-wave (km/s) = 2.52530 3.35816 2.97106
# Velocity P-wave (km/s) = 5.86066 6.79940 6.34741
#
# Compressibility (1/GPa) = 0.02424620
#
# Stress axis : x y z
#
# Youngs Moduli (GPa) = 79.10668 30.53021 70.67807
#
# Poissons Ratio (x) = 0.23892 0.19052
# Poissons Ratio (y) = 0.61907 0.50377
# Poissons Ratio (z) = 0.21324 0.21761
#
# Static dielectric constant tensor:
#      x y z
#    x 3.384630 0.000000 0.000000 
#    y 0.000000 2.576560 0.000000 
#    z 0.000000 0.000000 3.127930 
# 
# 
# High freq. dielectric constant tensor:
#      x y z
#    x 1.640570 0.000000 0.000000 
#    y 0.000000 1.542220 0.000000 
#    z 0.000000 0.000000 1.614470 
# 
# From -- ./inp_files/61684.got.cif
#   From: 2010.03.12/outbox.cif.g09.slc.cpg/sg65_31_cif.got.tgz:61684.got - 2010.04.10 20:52:16.
