data_PCOD8267024
_publ_section_title
;
Structure prediction by ZEFSAII (Michael W. Deem and Ramdas Pophale) SiO2 
 PCOD8267024
Probable space group: C M M M
;
_chemical_formula_sum "Si O2"
_cell_formula_units_Z 80
_cell_length_a 9.680700
_cell_length_b 25.526311
_cell_length_c 22.152074
_cell_angle_alpha 90.000000
_cell_angle_beta 90.000000
_cell_angle_gamma 90.000000
_cell_volume 5474.055691
_symmetry_space_group_name_H-M "C M M M"
_symmetry_group_IT_number 65
_symmetry_cell_setting 'orthorhombic'
loop_
_space_group_symop_operation_xyz
x,y,z
-x,-y,z
x,-y,-z
-x,y,-z
-x,-y,-z
x,y,-z
-x,y,z
x,-y,z
1/2+x,1/2+y,z
1/2-x,1/2-y,z
1/2+x,1/2-y,-z
1/2-x,1/2+y,-z
1/2-x,1/2-y,-z
1/2+x,1/2+y,-z
1/2-x,1/2+y,z
1/2+x,1/2-y,z
loop_
_atom_site_type_symbol
_atom_site_label
_atom_site_fract_x
_atom_site_fract_y
_atom_site_fract_z
Si Si1 0.843381 0.391308 0.410640
Si Si2 0.845187 0.437693 0.932694
Si Si3 0.655773 0.437818 0.173630
Si Si4 0.842900 0.560412 0.714891
Si Si5 0.844160 0.699785 0.500000
Si Si6 0.648125 0.559245 0.500000
O O1 0.820753 0.397728 0.339103
O O2 0.814735 0.333685 0.438778
O O3 0.735700 0.430218 0.440435
O O4 0.000000 0.407924 0.427393
O O5 0.845110 0.500000 0.929157
O O6 0.735838 0.414474 0.884659
O O7 0.000000 0.417347 0.917734
O O8 0.801404 0.419411 0.000000
O O9 0.500000 0.414919 0.175712
O O10 0.651109 0.500000 0.169206
O O11 0.738465 0.420942 0.233330
O O12 0.813198 0.500000 0.694687
O O13 0.000000 0.564140 0.739208
O O14 0.750000 0.750000 0.500000
O O15 0.000000 0.720120 0.500000
O O16 0.607976 0.500000 0.500000
O O17 0.500000 0.590225 0.500000
#
# Coordination Sequence:
#
# PCOD8267024 Si02
#       6
#    16  16  16  16   8   8
#     4   9  18  31  45  59  74  97 129 157 182 222
#     4   8  13  21  32  44  59  84 122 164 196 219
#     4   9  16  23  31  46  69  95 121 152 190 227
#     4   9  16  26  40  55  72  97 127 156 185 218
#     4   9  18  32  48  64  79  94 118 154 193 232
#     4  10  19  27  37  57  82 102 120 148 186 223
#
# _framework density 14.614393
#
# number of rings (size 3 to 8) (size 9 to 14) (size 15 to 20)
#    0.000    3.100    0.000    2.700    0.000    6.800 
#    0.000    4.000    0.000    0.000    0.000    0.000 
#    0.000    0.000    0.000    0.000    0.000    1.000 
#
# Total GULP energy -495577.610311 kJ/mol
# GULP energy per Si atom -12389.440258 kJ/mol
# Density = 1.458113 g / cm^3
# Si number density = 14.614393 Si / 1000 Ang^3
#
#
#
# Elastic Constant Matrix: (Units=GPa)
#
#
# Indices 1 2 3 4 5 6 
#
# 1 124.3047 29.9097 77.8036 0.0000 0.0000 0.0000
# 2 29.9097 38.3331 28.2866 0.0000 0.0000 0.0000
# 3 77.8036 28.2866 122.2187 0.0000 0.0000 0.0000
# 4 0.0000 0.0000 0.0000 6.1743 0.0000 0.0000
# 5 0.0000 0.0000 0.0000 0.0000 63.7437 0.0000
# 6 0.0000 0.0000 0.0000 0.0000 0.0000 13.7997
#
#
#
# Elastic Compliance Matrix: (Units=1/GPa)
#
#
# Indices 1 2 3 4 5 6 
#
# 1 0.014221 -0.005325 -0.007821 0.000000 0.000000 0.000000
# 2 -0.005325 0.033454 -0.004353 0.000000 0.000000 0.000000
# 3 -0.007821 -0.004353 0.014168 0.000000 0.000000 0.000000
# 4 0.000000 0.000000 0.000000 0.161962 0.000000 0.000000
# 5 0.000000 0.000000 0.000000 0.000000 0.015688 0.000000
# 6 0.000000 0.000000 0.000000 0.000000 0.000000 0.072466
#
#
# Mechanical properties :
#
#
# Convention : Reuss Voigt Hill
#
# Bulk Modulus (GPa) = 37.24925 61.87292 49.56108
# Shear Modulus (GPa) = 14.04873 26.66730 20.35801
#
# Velocity S-wave (km/s) = 3.10384 4.27632 3.73636
# Velocity P-wave (km/s) = 6.19584 8.17383 7.25258
#
# Compressibility (1/GPa) = 0.02684618
#
# Stress axis : x y z
#
# Youngs Moduli (GPa) = 70.31845 29.89175 70.58181
#
# Poissons Ratio (x) = 0.15918 0.55199
# Poissons Ratio (y) = 0.37446 0.30722
# Poissons Ratio (z) = 0.54993 0.13011
#
# Static dielectric constant tensor:
#      x y z
#    x 3.110600 0.000000 0.000000 
#    y 0.000000 2.239610 0.000000 
#    z 0.000000 0.000000 3.024040 
# 
# 
# High freq. dielectric constant tensor:
#      x y z
#    x 1.575650 0.000000 0.000000 
#    y 0.000000 1.476870 0.000000 
#    z 0.000000 0.000000 1.562860 
# 
# From -- ./inp_files/60543.got.cif
#   From: 2010.03.12/outbox.cif.g09.slc.cpg/sg65_31_cif.got.tgz:60543.got - 2010.04.10 20:52:16.
