data_PCOD8267336
_publ_section_title
;
Structure prediction by ZEFSAII (Michael W. Deem and Ramdas Pophale) SiO2 
 PCOD8267336
Probable space group: C M M M
;
_chemical_formula_sum "Si O2"
_cell_formula_units_Z 96
_cell_length_a 27.422861
_cell_length_b 9.251300
_cell_length_c 23.727833
_cell_angle_alpha 90.000000
_cell_angle_beta 90.000000
_cell_angle_gamma 90.000000
_cell_volume 6019.682753
_symmetry_space_group_name_H-M "C M M M"
_symmetry_group_IT_number 65
_symmetry_cell_setting 'orthorhombic'
loop_
_space_group_symop_operation_xyz
x,y,z
-x,-y,z
x,-y,-z
-x,y,-z
-x,-y,-z
x,y,-z
-x,y,z
x,-y,z
1/2+x,1/2+y,z
1/2-x,1/2-y,z
1/2+x,1/2-y,-z
1/2-x,1/2+y,-z
1/2-x,1/2-y,-z
1/2+x,1/2+y,-z
1/2-x,1/2+y,z
1/2+x,1/2-y,z
loop_
_atom_site_type_symbol
_atom_site_label
_atom_site_fract_x
_atom_site_fract_y
_atom_site_fract_z
Si Si1 0.554389 0.171448 0.937373
Si Si2 0.883887 0.669258 0.166801
Si Si3 0.363742 0.332752 0.334332
Si Si4 0.801020 0.169949 0.774489
Si Si5 0.701020 0.331554 0.563701
Si Si6 0.055003 0.667829 0.723299
O O1 0.500000 0.232993 0.925344
O O2 0.592802 0.228370 0.891347
O O3 0.551960 0.000000 0.932950
O O4 0.571599 0.219191 0.000000
O O5 0.869936 0.500000 0.164087
O O6 0.835612 0.762967 0.177390
O O7 0.923563 0.699159 0.215096
O O8 0.377557 0.500000 0.334154
O O9 0.324011 0.297670 0.286473
O O10 0.341947 0.282949 0.394359
O O11 0.413512 0.246530 0.324553
O O12 0.750000 0.250000 0.777801
O O13 0.794146 0.000000 0.785395
O O14 0.684780 0.293441 0.500000
O O15 0.712227 0.500000 0.571085
O O16 0.750000 0.250000 0.580756
O O17 0.056304 0.500000 0.708978
O O18 0.000000 0.728017 0.721677
#
# Coordination Sequence:
#
# PCOD8267336 Si02
#       6
#    16  16  16  16  16  16
#     4   8  13  22  40  67  93 114 139 172 208 248
#     4   9  16  27  44  65  89 115 141 172 211 251
#     4   9  18  30  44  64  88 113 140 172 211 253
#     4  10  19  30  44  63  87 113 142 175 211 252
#     4   9  17  29  45  65  88 112 139 172 210 253
#     4   9  17  28  43  64  88 114 144 176 209 247
#
# _framework density 15.947684000000001
#
# number of rings (size 3 to 8) (size 9 to 14) (size 15 to 20)
#    0.000    3.000    0.000    2.000    0.000    3.667 
#    0.000    0.000    0.000    3.000    0.000    4.667 
#    0.000    0.000    0.000    0.000    0.000    0.000 
#
# Total GULP energy -595118.151004 kJ/mol
# GULP energy per Si atom -12398.294813 kJ/mol
# Density = 1.591139 g / cm^3
# Si number density = 15.947684 Si / 1000 Ang^3
#
#
#
# Elastic Constant Matrix: (Units=GPa)
#
#
# Indices 1 2 3 4 5 6 
#
# 1 136.4886 53.9641 65.4729 0.0000 0.0000 0.0000
# 2 53.9641 48.6723 36.1431 0.0000 0.0000 0.0000
# 3 65.4729 36.1431 102.2394 0.0000 0.0000 0.0000
# 4 0.0000 0.0000 0.0000 16.5473 0.0000 0.0000
# 5 0.0000 0.0000 0.0000 0.0000 26.4488 0.0000
# 6 0.0000 0.0000 0.0000 0.0000 0.0000 26.4615
#
#
#
# Elastic Compliance Matrix: (Units=1/GPa)
#
#
# Indices 1 2 3 4 5 6 
#
# 1 0.014684 -0.012607 -0.004947 0.000000 0.000000 0.000000
# 2 -0.012607 0.038683 -0.005601 0.000000 0.000000 0.000000
# 3 -0.004947 -0.005601 0.014929 0.000000 0.000000 0.000000
# 4 0.000000 0.000000 0.000000 0.060433 0.000000 0.000000
# 5 0.000000 0.000000 0.000000 0.000000 0.037809 0.000000
# 6 0.000000 0.000000 0.000000 0.000000 0.000000 0.037791
#
#
# Mechanical properties :
#
#
# Convention : Reuss Voigt Hill
#
# Bulk Modulus (GPa) = 45.48491 66.50672 55.99581
# Shear Modulus (GPa) = 19.38222 22.67952 21.03087
#
# Velocity S-wave (km/s) = 3.48999 3.77519 3.63539
# Velocity P-wave (km/s) = 6.69502 7.79720 7.26704
#
# Compressibility (1/GPa) = 0.02198532
#
# Stress axis : x y z
#
# Youngs Moduli (GPa) = 68.10065 25.85099 66.98390
#
# Poissons Ratio (x) = 0.32591 0.33135
# Poissons Ratio (y) = 0.85857 0.37521
# Poissons Ratio (z) = 0.33687 0.14480
#
# Static dielectric constant tensor:
#      x y z
#    x 3.033260 0.000000 0.000000 
#    y 0.000000 2.887470 0.000000 
#    z 0.000000 0.000000 3.165020 
# 
# 
# High freq. dielectric constant tensor:
#      x y z
#    x 1.604750 0.000000 0.000000 
#    y 0.000000 1.596910 0.000000 
#    z 0.000000 0.000000 1.605670 
# 
# From -- ./inp_files/67855.got.cif
#   From: 2010.03.12/outbox.cif.g09.slc.cpg/sg65_34_cif.got.tgz:67855.got - 2010.04.10 20:52:16.
