data_PCOD8267854
_publ_section_title
;
Structure prediction by ZEFSAII (Michael W. Deem and Ramdas Pophale) SiO2 
 PCOD8267854
Probable space group: C M M M
;
_chemical_formula_sum "Si O2"
_cell_formula_units_Z 104
_cell_length_a 30.493237
_cell_length_b 9.291492
_cell_length_c 22.431029
_cell_angle_alpha 90.000000
_cell_angle_beta 90.000000
_cell_angle_gamma 90.000000
_cell_volume 6355.331129
_symmetry_space_group_name_H-M "C M M M"
_symmetry_group_IT_number 65
_symmetry_cell_setting 'orthorhombic'
loop_
_space_group_symop_operation_xyz
x,y,z
-x,-y,z
x,-y,-z
-x,y,-z
-x,-y,-z
x,y,-z
-x,y,z
x,-y,z
1/2+x,1/2+y,z
1/2-x,1/2-y,z
1/2+x,1/2-y,-z
1/2-x,1/2+y,-z
1/2-x,1/2-y,-z
1/2+x,1/2+y,-z
1/2-x,1/2+y,z
1/2+x,1/2-y,z
loop_
_atom_site_type_symbol
_atom_site_label
_atom_site_fract_x
_atom_site_fract_y
_atom_site_fract_z
Si Si1 0.448018 0.161124 0.565310
Si Si2 0.949831 0.655857 0.000000
Si Si3 0.879738 0.833742 0.777419
Si Si4 0.401428 0.335575 0.910399
Si Si5 0.207859 0.667625 0.194802
Si Si6 0.818093 0.661203 0.935255
Si Si7 0.449847 0.669814 0.679511
O O1 0.430555 0.212385 0.500000
O O2 0.500000 0.161671 0.563902
O O3 0.431705 0.266379 0.617348
O O4 0.430806 0.000000 0.578566
O O5 0.939685 0.744391 0.940288
O O6 0.925267 0.500000 0.000000
O O7 0.000000 0.623517 0.000000
O O8 0.904574 0.816404 0.839797
O O9 0.836068 0.736342 0.776917
O O10 0.915388 0.778528 0.729539
O O11 0.866033 0.000000 0.766531
O O12 0.406374 0.500000 0.929714
O O13 0.355914 0.278751 0.936323
O O14 0.209478 0.500000 0.212648
O O15 0.250000 0.750000 0.222030
O O16 0.211509 0.689088 0.122958
O O17 0.837906 0.500000 0.929219
O O18 0.793153 0.674959 0.000000
O O19 0.500000 0.721983 0.693945
O O20 0.449378 0.500000 0.673626
#
# Coordination Sequence:
#
# PCOD8267854 Si02
#       7
#    16   8  16  16  16  16  16
#     4   8  14  25  41  63  94 130 163 195 230 266
#     4  11  23  35  45  59  82 111 144 187 237 285
#     4   9  19  34  50  69  95 124 154 193 239 282
#     4  10  19  31  48  66  82 107 145 187 231 277
#     4  10  20  33  49  69  92 120 154 191 235 286
#     4   9  17  30  48  66  87 113 137 169 221 282
#     4   9  17  29  46  69  97 129 163 197 233 273
#
# _framework density 16.364214
#
# number of rings (size 3 to 8) (size 9 to 14) (size 15 to 20)
#    0.000    2.692    0.769    1.615    0.000    3.692 
#    0.000    3.077    0.000    1.846    0.000    0.000 
#    0.000    0.615    0.000    2.000    0.000    2.923 
#
# Total GULP energy -644293.324064 kJ/mol
# GULP energy per Si atom -12390.256232 kJ/mol
# Density = 1.632697 g / cm^3
# Si number density = 16.364214 Si / 1000 Ang^3
#
#
#
# Elastic Constant Matrix: (Units=GPa)
#
#
# Indices 1 2 3 4 5 6 
#
# 1 76.3447 48.8696 43.6442 0.0000 0.0000 0.0000
# 2 48.8696 93.2949 43.1256 0.0000 0.0000 0.0000
# 3 43.6442 43.1256 99.5068 0.0000 0.0000 0.0000
# 4 0.0000 0.0000 0.0000 23.9062 0.0000 0.0000
# 5 0.0000 0.0000 0.0000 0.0000 5.5426 0.0000
# 6 0.0000 0.0000 0.0000 0.0000 0.0000 20.4635
#
#
#
# Elastic Compliance Matrix: (Units=1/GPa)
#
#
# Indices 1 2 3 4 5 6 
#
# 1 0.022136 -0.008888 -0.005857 0.000000 0.000000 0.000000
# 2 -0.008888 0.016973 -0.003458 0.000000 0.000000 0.000000
# 3 -0.005857 -0.003458 0.014117 0.000000 0.000000 0.000000
# 4 0.000000 0.000000 0.000000 0.041830 0.000000 0.000000
# 5 0.000000 0.000000 0.000000 0.000000 0.180419 0.000000
# 6 0.000000 0.000000 0.000000 0.000000 0.000000 0.048868
#
#
# Mechanical properties :
#
#
# Convention : Reuss Voigt Hill
#
# Bulk Modulus (GPa) = 59.45049 60.04722 59.74886
# Shear Modulus (GPa) = 13.64798 18.88293 16.26545
#
# Velocity S-wave (km/s) = 2.89106 3.40062 3.15614
# Velocity P-wave (km/s) = 6.89585 7.22446 7.06207
#
# Compressibility (1/GPa) = 0.01682072
#
# Stress axis : x y z
#
# Youngs Moduli (GPa) = 45.17506 58.91863 70.83665
#
# Poissons Ratio (x) = 0.52366 0.41490
# Poissons Ratio (y) = 0.40151 0.24492
# Poissons Ratio (z) = 0.26459 0.20371
#
# Static dielectric constant tensor:
#      x y z
#    x 2.769790 0.000000 0.000000 
#    y 0.000000 3.270320 0.000000 
#    z 0.000000 0.000000 3.818650 
# 
# 
# High freq. dielectric constant tensor:
#      x y z
#    x 1.594120 0.000000 0.000000 
#    y 0.000000 1.640850 0.000000 
#    z 0.000000 0.000000 1.612470 
# 
# From -- ./inp_files/72141.got.cif
#   From: 2010.03.12/outbox.cif.g09.slc.cpg/sg65_37_cif.got.tgz:72141.got - 2010.04.10 20:52:16.
