data_PCOD8267194
_publ_section_title
;
Structure prediction by ZEFSAII (Michael W. Deem and Ramdas Pophale) SiO2 
 PCOD8267194
Probable space group: C M M M
;
_chemical_formula_sum "Si O2"
_cell_formula_units_Z 80
_cell_length_a 14.729640
_cell_length_b 17.393147
_cell_length_c 19.357159
_cell_angle_alpha 90.000000
_cell_angle_beta 90.000000
_cell_angle_gamma 90.000000
_cell_volume 4959.203358
_symmetry_space_group_name_H-M "C M M M"
_symmetry_group_IT_number 65
_symmetry_cell_setting 'orthorhombic'
loop_
_space_group_symop_operation_xyz
x,y,z
-x,-y,z
x,-y,-z
-x,y,-z
-x,-y,-z
x,y,-z
-x,y,z
x,-y,z
1/2+x,1/2+y,z
1/2-x,1/2-y,z
1/2+x,1/2-y,-z
1/2-x,1/2+y,-z
1/2-x,1/2-y,-z
1/2+x,1/2+y,-z
1/2-x,1/2+y,z
1/2+x,1/2-y,z
loop_
_atom_site_type_symbol
_atom_site_label
_atom_site_fract_x
_atom_site_fract_y
_atom_site_fract_z
Si Si1 0.659436 0.797476 0.075722
Si Si2 0.606333 0.843236 0.284844
Si Si3 0.766615 0.412004 0.177165
Si Si4 0.607442 0.913807 0.575468
Si Si5 0.600351 0.300534 0.802703
O O1 0.750000 0.750000 0.066495
O O2 0.685190 0.879941 0.108192
O O3 0.594723 0.750451 0.127402
O O4 0.613566 0.809165 0.000000
O O5 0.500000 0.862353 0.274688
O O6 0.663819 0.903717 0.240281
O O7 0.637695 0.854520 0.364500
O O8 0.627682 0.756132 0.260567
O O9 0.741387 0.500000 0.164643
O O10 0.673120 0.367875 0.193778
O O11 0.644633 0.886541 0.500000
O O12 0.500000 0.916483 0.572540
O O13 0.643837 0.000000 0.591688
O O14 0.500000 0.335931 0.790864
#
# Coordination Sequence:
#
# PCOD8267194 Si02
#       5
#    16  16  16  16  16
#     4   8  15  29  46  62  82 108 138 172 211 257
#     4   9  16  28  46  65  88 116 144 175 213 263
#     4  10  19  29  44  66  90 116 145 180 221 259
#     4   8  13  21  36  62  93 118 138 167 215 270
#     4   9  18  31  46  63  84 116 154 185 213 249
#
# _framework density 16.131623000000001
#
# number of rings (size 3 to 8) (size 9 to 14) (size 15 to 20)
#    0.000    3.200    0.000    3.000    0.000    2.400 
#    0.000    0.000    0.000    2.400    0.000   11.200 
#    0.000    0.000    0.000   12.000    0.000    0.200 
#
# Total GULP energy -495612.109254 kJ/mol
# GULP energy per Si atom -12390.302731 kJ/mol
# Density = 1.609491 g / cm^3
# Si number density = 16.131623 Si / 1000 Ang^3
#
#
#
# Elastic Constant Matrix: (Units=GPa)
#
#
# Indices 1 2 3 4 5 6 
#
# 1 48.5307 28.4376 17.0128 0.0000 0.0000 0.0000
# 2 28.4376 100.1401 48.1204 0.0000 0.0000 0.0000
# 3 17.0128 48.1204 131.3667 0.0000 0.0000 0.0000
# 4 0.0000 0.0000 0.0000 19.4555 0.0000 0.0000
# 5 0.0000 0.0000 0.0000 0.0000 18.6500 0.0000
# 6 0.0000 0.0000 0.0000 0.0000 0.0000 17.3436
#
#
#
# Elastic Compliance Matrix: (Units=1/GPa)
#
#
# Indices 1 2 3 4 5 6 
#
# 1 0.024782 -0.006669 -0.000766 0.000000 0.000000 0.000000
# 2 -0.006669 0.013914 -0.004233 0.000000 0.000000 0.000000
# 3 -0.000766 -0.004233 0.009262 0.000000 0.000000 0.000000
# 4 0.000000 0.000000 0.000000 0.051399 0.000000 0.000000
# 5 0.000000 0.000000 0.000000 0.000000 0.053619 0.000000
# 6 0.000000 0.000000 0.000000 0.000000 0.000000 0.057658
#
#
# Mechanical properties :
#
#
# Convention : Reuss Voigt Hill
#
# Bulk Modulus (GPa) = 40.61616 51.90879 46.26248
# Shear Modulus (GPa) = 20.64582 23.52095 22.08339
#
# Velocity S-wave (km/s) = 3.58136 3.82260 3.70395
# Velocity P-wave (km/s) = 6.50647 7.19244 6.85804
#
# Compressibility (1/GPa) = 0.02462074
#
# Stress axis : x y z
#
# Youngs Moduli (GPa) = 40.35157 71.86975 107.96641
#
# Poissons Ratio (x) = 0.47932 0.08275
# Poissons Ratio (y) = 0.26912 0.45703
# Poissons Ratio (z) = 0.03093 0.30423
#
# Static dielectric constant tensor:
#      x y z
#    x 2.812930 0.000000 0.000000 
#    y 0.000000 2.825620 0.000000 
#    z 0.000000 0.000000 3.643980 
# 
# 
# High freq. dielectric constant tensor:
#      x y z
#    x 1.596960 0.000000 0.000000 
#    y 0.000000 1.594320 0.000000 
#    z 0.000000 0.000000 1.624780 
# 
# From -- ./inp_files/52878.got.cif
#   From: 2010.03.12/outbox.cif.g09.slc.cpg/sg65_27_cif.got.tgz:52878.got - 2010.04.10 20:52:16.
