data_PCOD8267391
_publ_section_title
;
Structure prediction by ZEFSAII (Michael W. Deem and Ramdas Pophale) SiO2 
 PCOD8267391
Probable space group: C M M M
;
_chemical_formula_sum "Si O2"
_cell_formula_units_Z 88
_cell_length_a 15.182496
_cell_length_b 17.070023
_cell_length_c 21.321041
_cell_angle_alpha 90.000000
_cell_angle_beta 90.000000
_cell_angle_gamma 90.000000
_cell_volume 5525.679444
_symmetry_space_group_name_H-M "C M M M"
_symmetry_group_IT_number 65
_symmetry_cell_setting 'orthorhombic'
loop_
_space_group_symop_operation_xyz
x,y,z
-x,-y,z
x,-y,-z
-x,y,-z
-x,-y,-z
x,y,-z
-x,y,z
x,-y,z
1/2+x,1/2+y,z
1/2-x,1/2-y,z
1/2+x,1/2-y,-z
1/2-x,1/2+y,-z
1/2-x,1/2-y,-z
1/2+x,1/2+y,-z
1/2-x,1/2+y,z
1/2+x,1/2-y,z
loop_
_atom_site_type_symbol
_atom_site_label
_atom_site_fract_x
_atom_site_fract_y
_atom_site_fract_z
Si Si1 0.098516 0.789407 0.786685
Si Si2 0.603461 0.086398 0.569478
Si Si3 0.398894 0.858138 0.134015
Si Si4 0.748971 0.588402 0.222051
Si Si5 0.396517 0.087099 0.000000
Si Si6 0.177079 0.308626 0.675109
O O1 0.107725 0.732397 0.846334
O O2 0.167428 0.858238 0.800160
O O3 0.116056 0.739639 0.723466
O O4 0.000000 0.824420 0.782151
O O5 0.641249 0.106137 0.500000
O O6 0.500000 0.081703 0.565868
O O7 0.625724 0.156351 0.616614
O O8 0.639049 0.000000 0.590690
O O9 0.500000 0.888626 0.143739
O O10 0.331911 0.909444 0.175130
O O11 0.367686 0.865457 0.061937
O O12 0.714788 0.500000 0.227601
O O13 0.778640 0.618153 0.289932
O O14 0.500000 0.077680 0.000000
O O15 0.353621 0.000000 0.000000
O O16 0.250000 0.250000 0.647725
#
# Coordination Sequence:
#
# PCOD8267391 Si02
#       6
#    16  16  16  16   8  16
#     4   9  18  32  47  63  86 116 149 182 215 254
#     4   9  17  28  42  62  88 115 141 169 205 254
#     4   9  17  30  47  67  91 115 140 175 217 261
#     4  10  19  30  45  66  90 114 145 182 218 258
#     4   9  16  26  43  68  94 116 139 171 216 264
#     4   9  17  29  45  64  85 110 142 180 218 254
#
# _framework density 15.925643000000001
#
# number of rings (size 3 to 8) (size 9 to 14) (size 15 to 20)
#    0.000    2.818    0.000    3.818    0.000    2.545 
#    0.000    1.818    0.000    0.000    0.000    0.000 
#    0.000    5.818    0.000   33.818    0.000    1.455 
#
# Total GULP energy -545281.353059 kJ/mol
# GULP energy per Si atom -12392.758024 kJ/mol
# Density = 1.588940 g / cm^3
# Si number density = 15.925643 Si / 1000 Ang^3
#
#
#
# Elastic Constant Matrix: (Units=GPa)
#
#
# Indices 1 2 3 4 5 6 
#
# 1 73.5414 42.2467 30.3076 0.0000 0.0000 0.0000
# 2 42.2467 101.9372 51.7635 0.0000 0.0000 0.0000
# 3 30.3076 51.7635 96.2791 0.0000 0.0000 0.0000
# 4 0.0000 0.0000 0.0000 -6.7785 0.0000 0.0000
# 5 0.0000 0.0000 0.0000 0.0000 18.1920 0.0000
# 6 0.0000 0.0000 0.0000 0.0000 0.0000 22.0550
#
#
#
# Elastic Compliance Matrix: (Units=1/GPa)
#
#
# Indices 1 2 3 4 5 6 
#
# 1 0.018211 -0.006377 -0.002304 0.000000 0.000000 0.000000
# 2 -0.006377 0.015727 -0.006448 0.000000 0.000000 0.000000
# 3 -0.002304 -0.006448 0.014578 0.000000 0.000000 0.000000
# 4 0.000000 0.000000 0.000000 -0.147526 0.000000 0.000000
# 5 0.000000 0.000000 0.000000 0.000000 0.054969 0.000000
# 6 0.000000 0.000000 0.000000 0.000000 0.000000 0.045341
#
#
# Mechanical properties :
#
#
# Convention : Reuss Voigt Hill
#
# Bulk Modulus (GPa) = 54.77070 57.82149 56.29610
# Shear Modulus (GPa) = 132.81859 16.52304 74.67081
#
# Velocity S-wave (km/s) = 9.14222 3.22454 6.85485
# Velocity P-wave (km/s) = 12.07918 7.08869 9.90343
#
# Compressibility (1/GPa) = 0.01825794
#
# Stress axis : x y z
#
# Youngs Moduli (GPa) = 54.91250 63.58354 68.59436
#
# Poissons Ratio (x) = 0.40550 0.15803
# Poissons Ratio (y) = 0.35020 0.44230
# Poissons Ratio (z) = 0.12651 0.40999
#
# Static dielectric constant tensor:
#      x y z
#    x 2.935210 0.000000 0.000000 
#    y 0.000000 2.982320 0.000000 
#    z 0.000000 0.000000 3.059570 
# 
# 
# High freq. dielectric constant tensor:
#      x y z
#    x 1.595910 0.000000 0.000000 
#    y 0.000000 1.605110 0.000000 
#    z 0.000000 0.000000 1.605890 
# 
# From -- ./inp_files/55758.got.cif
#   From: 2010.03.12/outbox.cif.g09.slc.cpg/sg65_28_cif.got.tgz:55758.got - 2010.04.10 20:52:16.
