data_PCOD8267341
_publ_section_title
;
Structure prediction by ZEFSAII (Michael W. Deem and Ramdas Pophale) SiO2 
 PCOD8267341
Probable space group: C M M M
;
_chemical_formula_sum "Si O2"
_cell_formula_units_Z 96
_cell_length_a 8.898055
_cell_length_b 27.379928
_cell_length_c 23.894705
_cell_angle_alpha 90.000000
_cell_angle_beta 90.000000
_cell_angle_gamma 90.000000
_cell_volume 5821.421704
_symmetry_space_group_name_H-M "C M M M"
_symmetry_group_IT_number 65
_symmetry_cell_setting 'orthorhombic'
loop_
_space_group_symop_operation_xyz
x,y,z
-x,-y,z
x,-y,-z
-x,y,-z
-x,-y,-z
x,y,-z
-x,y,z
x,-y,z
1/2+x,1/2+y,z
1/2-x,1/2-y,z
1/2+x,1/2-y,-z
1/2-x,1/2+y,-z
1/2-x,1/2-y,-z
1/2+x,1/2+y,-z
1/2-x,1/2+y,z
1/2+x,1/2-y,z
loop_
_atom_site_type_symbol
_atom_site_label
_atom_site_fract_x
_atom_site_fract_y
_atom_site_fract_z
Si Si1 0.677091 0.104128 0.671564
Si Si2 0.678296 0.800282 0.265364
Si Si3 0.675394 0.801352 0.064286
Si Si4 0.173739 0.054473 0.771996
Si Si5 0.678720 0.944915 0.438578
Si Si6 0.822911 0.148617 0.837518
O O1 0.500000 0.099210 0.672170
O O2 0.725863 0.158726 0.689188
O O3 0.736843 0.064631 0.715388
O O4 0.741397 0.091199 0.609774
O O5 0.500000 0.795426 0.259532
O O6 0.750000 0.750000 0.286937
O O7 0.747317 0.813533 0.205292
O O8 0.500000 0.797843 0.077813
O O9 0.750000 0.750000 0.079756
O O10 0.752430 0.843283 0.101395
O O11 0.705542 0.815316 0.000000
O O12 0.217421 0.093074 0.820264
O O13 0.000000 0.059969 0.756707
O O14 0.212520 0.000000 0.793686
O O15 0.736451 0.927448 0.500000
O O16 0.500000 0.944388 0.438140
O O17 0.735732 0.000000 0.426830
O O18 0.000000 0.158294 0.838702
#
# Coordination Sequence:
#
# PCOD8267341 Si02
#       6
#    16  16  16  16  16  16
#     4   9  17  28  44  66  88 113 147 184 220 259
#     4  10  19  30  44  63  88 116 147 182 220 263
#     4  10  20  33  49  69  93 119 147 180 218 260
#     4   9  18  31  46  66  92 120 147 177 217 262
#     4   8  13  22  39  64  90 112 137 175 221 263
#     4  10  19  31  48  68  91 118 147 180 217 258
#
# _framework density 16.490817
#
# number of rings (size 3 to 8) (size 9 to 14) (size 15 to 20)
#    0.000    2.667    0.000    3.000    0.000    3.333 
#    0.000    0.000    0.000    1.500    0.000    5.833 
#    0.000    0.000    0.000    0.000    0.000    0.500 
#
# Total GULP energy -595090.674800 kJ/mol
# GULP energy per Si atom -12397.722392 kJ/mol
# Density = 1.645328 g / cm^3
# Si number density = 16.490817 Si / 1000 Ang^3
#
#
#
# Elastic Constant Matrix: (Units=GPa)
#
#
# Indices 1 2 3 4 5 6 
#
# 1 49.4728 34.2916 37.9003 0.0000 0.0000 0.0000
# 2 34.2916 113.3508 68.2671 0.0000 0.0000 0.0000
# 3 37.9003 68.2671 127.1328 0.0000 0.0000 0.0000
# 4 0.0000 0.0000 0.0000 25.7945 0.0000 0.0000
# 5 0.0000 0.0000 0.0000 0.0000 13.9510 0.0000
# 6 0.0000 0.0000 0.0000 0.0000 0.0000 19.9415
#
#
#
# Elastic Compliance Matrix: (Units=1/GPa)
#
#
# Indices 1 2 3 4 5 6 
#
# 1 0.028058 -0.005100 -0.005626 0.000000 0.000000 0.000000
# 2 -0.005100 0.013966 -0.005979 0.000000 0.000000 0.000000
# 3 -0.005626 -0.005979 0.012754 0.000000 0.000000 0.000000
# 4 0.000000 0.000000 0.000000 0.038768 0.000000 0.000000
# 5 0.000000 0.000000 0.000000 0.000000 0.071679 0.000000
# 6 0.000000 0.000000 0.000000 0.000000 0.000000 0.050147
#
#
# Mechanical properties :
#
#
# Convention : Reuss Voigt Hill
#
# Bulk Modulus (GPa) = 46.79960 63.43048 55.11504
# Shear Modulus (GPa) = 19.53857 21.90390 20.72124
#
# Velocity S-wave (km/s) = 3.44585 3.64847 3.54860
# Velocity P-wave (km/s) = 6.65377 7.50307 7.09114
#
# Compressibility (1/GPa) = 0.02136770
#
# Stress axis : x y z
#
# Youngs Moduli (GPa) = 35.64027 71.60259 78.40944
#
# Poissons Ratio (x) = 0.36517 0.44113
# Poissons Ratio (y) = 0.18176 0.46881
# Poissons Ratio (z) = 0.20051 0.42811
#
# Static dielectric constant tensor:
#      x y z
#    x 3.021690 0.000000 0.000000 
#    y 0.000000 3.188810 0.000000 
#    z 0.000000 0.000000 3.301030 
# 
# 
# High freq. dielectric constant tensor:
#      x y z
#    x 1.628910 0.000000 0.000000 
#    y 0.000000 1.625480 0.000000 
#    z 0.000000 0.000000 1.626990 
# 
# From -- ./inp_files/67858.got.cif
#   From: 2010.03.12/outbox.cif.g09.slc.cpg/sg65_34_cif.got.tgz:67858.got - 2010.04.10 20:52:16.
