data_PCOD8267038
_publ_section_title
;
Structure prediction by ZEFSAII (Michael W. Deem and Ramdas Pophale) SiO2 
 PCOD8267038
Probable space group: C M M M
;
_chemical_formula_sum "Si O2"
_cell_formula_units_Z 88
_cell_length_a 26.839925
_cell_length_b 26.837857
_cell_length_c 9.165298
_cell_angle_alpha 90.000000
_cell_angle_beta 90.000000
_cell_angle_gamma 90.000000
_cell_volume 6602.003080
_symmetry_space_group_name_H-M "C M M M"
_symmetry_group_IT_number 65
_symmetry_cell_setting 'orthorhombic'
loop_
_space_group_symop_operation_xyz
x,y,z
-x,-y,z
x,-y,-z
-x,y,-z
-x,-y,-z
x,y,-z
-x,y,z
x,-y,z
1/2+x,1/2+y,z
1/2-x,1/2-y,z
1/2+x,1/2-y,-z
1/2-x,1/2+y,-z
1/2-x,1/2-y,-z
1/2+x,1/2+y,-z
1/2-x,1/2+y,z
1/2+x,1/2-y,z
loop_
_atom_site_type_symbol
_atom_site_label
_atom_site_fract_x
_atom_site_fract_y
_atom_site_fract_z
Si Si1 0.000000 0.055967 0.326922
Si Si2 0.696047 0.557758 0.167891
Si Si3 0.651522 0.300134 0.338616
Si Si4 0.301006 0.780643 0.163772
Si Si5 0.252273 0.137483 0.336189
Si Si6 0.103169 0.101283 0.672806
O O1 0.048828 0.084954 0.271539
O O2 0.000000 0.054066 0.500000
O O3 0.000000 0.000000 0.262834
O O4 0.709386 0.500000 0.180722
O O5 0.740834 0.587471 0.245922
O O6 0.643304 0.567595 0.244614
O O7 0.692485 0.575152 0.000000
O O8 0.639515 0.279405 0.500000
O O9 0.654626 0.253378 0.229713
O O10 0.703235 0.329301 0.341683
O O11 0.609663 0.340034 0.288376
O O12 0.250000 0.750000 0.166267
O O13 0.295861 0.831151 0.257327
O O14 0.316034 0.795233 0.000000
O O15 0.269613 0.123704 0.500000
O O16 0.110787 0.092702 0.500000
#
# Coordination Sequence:
#
# PCOD8267038 Si02
#       6
#     8  16  16  16  16  16
#     4   9  16  26  41  57  69  85 115 153 188 221
#     4  10  19  28  37  50  69  91 115 145 178 210
#     4   8  14  23  34  49  67  85 106 134 169 207
#     4   9  15  22  34  51  69  87 105 128 162 203
#     4   9  16  25  37  51  67  87 110 136 165 200
#     4   9  17  28  41  54  67  86 114 148 183 219
#
# _framework density 13.329288
#
# number of rings (size 3 to 8) (size 9 to 14) (size 15 to 20)
#    0.000    3.000    0.000    3.273    0.000    8.727 
#    0.000    0.455    0.000    1.636    0.000    0.000 
#    0.000    0.000    0.000    0.000    0.000    0.000 
#
# Total GULP energy -545411.695500 kJ/mol
# GULP energy per Si atom -12395.720352 kJ/mol
# Density = 1.329895 g / cm^3
# Si number density = 13.329288 Si / 1000 Ang^3
#
#
#
# Elastic Constant Matrix: (Units=GPa)
#
#
# Indices 1 2 3 4 5 6 
#
# 1 39.7655 44.8627 25.4586 0.0000 0.0000 0.0000
# 2 44.8627 83.1386 50.0164 0.0000 0.0000 0.0000
# 3 25.4586 50.0164 91.3197 0.0000 0.0000 0.0000
# 4 0.0000 0.0000 0.0000 23.1666 0.0000 0.0000
# 5 0.0000 0.0000 0.0000 0.0000 8.1608 0.0000
# 6 0.0000 0.0000 0.0000 0.0000 0.0000 23.0253
#
#
#
# Elastic Compliance Matrix: (Units=1/GPa)
#
#
# Indices 1 2 3 4 5 6 
#
# 1 0.064438 -0.035741 0.001611 0.000000 0.000000 0.000000
# 2 -0.035741 0.037763 -0.010719 0.000000 0.000000 0.000000
# 3 0.001611 -0.010719 0.016372 0.000000 0.000000 0.000000
# 4 0.000000 0.000000 0.000000 0.043166 0.000000 0.000000
# 5 0.000000 0.000000 0.000000 0.000000 0.122538 0.000000
# 6 0.000000 0.000000 0.000000 0.000000 0.000000 0.043430
#
#
# Mechanical properties :
#
#
# Convention : Reuss Voigt Hill
#
# Bulk Modulus (GPa) = 34.63106 50.54436 42.58771
# Shear Modulus (GPa) = 11.70877 17.12961 14.41919
#
# Velocity S-wave (km/s) = 2.96704 3.58873 3.29259
# Velocity P-wave (km/s) = 6.14616 7.42793 6.81724
#
# Compressibility (1/GPa) = 0.02887581
#
# Stress axis : x y z
#
# Youngs Moduli (GPa) = 15.51873 26.48093 61.07902
#
# Poissons Ratio (x) = 0.94646 -0.09841
# Poissons Ratio (y) = 0.55466 0.65471
# Poissons Ratio (z) = -0.02500 0.28385
#
# Static dielectric constant tensor:
#      x y z
#    x 2.394260 0.000000 0.000000 
#    y 0.000000 2.706900 0.000000 
#    z 0.000000 0.000000 2.806260 
# 
# 
# High freq. dielectric constant tensor:
#      x y z
#    x 1.445700 0.000000 0.000000 
#    y 0.000000 1.498130 0.000000 
#    z 0.000000 0.000000 1.515970 
# 
# From -- ./inp_files/12647.got.cif
#   From: 2010.03.12/outbox.cif.g09.slc.cpg/sg65_7_cif.got.tgz:12647.got - 2010.04.10 20:52:16.
