data_PCOD8267449
_publ_section_title
;
Structure prediction by ZEFSAII (Michael W. Deem and Ramdas Pophale) SiO2 
 PCOD8267449
Probable space group: C M M M
;
_chemical_formula_sum "Si O2"
_cell_formula_units_Z 96
_cell_length_a 19.006529
_cell_length_b 9.158109
_cell_length_c 30.916023
_cell_angle_alpha 90.000000
_cell_angle_beta 90.000000
_cell_angle_gamma 90.000000
_cell_volume 5381.362432
_symmetry_space_group_name_H-M "C M M M"
_symmetry_group_IT_number 65
_symmetry_cell_setting 'orthorhombic'
loop_
_space_group_symop_operation_xyz
x,y,z
-x,-y,z
x,-y,-z
-x,y,-z
-x,-y,-z
x,y,-z
-x,y,z
x,-y,z
1/2+x,1/2+y,z
1/2-x,1/2-y,z
1/2+x,1/2-y,-z
1/2-x,1/2+y,-z
1/2-x,1/2-y,-z
1/2+x,1/2+y,-z
1/2-x,1/2+y,z
1/2+x,1/2-y,z
loop_
_atom_site_type_symbol
_atom_site_label
_atom_site_fract_x
_atom_site_fract_y
_atom_site_fract_z
Si Si1 0.824978 0.326184 0.125487
Si Si2 0.578188 0.173224 0.547426
Si Si3 0.321753 0.828823 0.378622
Si Si4 0.921046 0.673043 0.205052
Si Si5 0.177562 0.329310 0.718906
Si Si6 0.421459 0.173366 0.048232
O O1 0.814232 0.500000 0.125592
O O2 0.750000 0.250000 0.129485
O O3 0.874094 0.273607 0.164905
O O4 0.863577 0.268936 0.082001
O O5 0.608718 0.217919 0.500000
O O6 0.500000 0.237715 0.552395
O O7 0.623749 0.237373 0.586729
O O8 0.575482 0.000000 0.551167
O O9 0.250000 0.750000 0.388916
O O10 0.347544 0.793825 0.329916
O O11 0.310439 0.000000 0.385123
O O12 0.926774 0.500000 0.204245
O O13 0.883833 0.726445 0.249270
O O14 0.000000 0.740018 0.202480
O O15 0.191821 0.500000 0.725424
O O16 0.250000 0.250000 0.730596
O O17 0.500000 0.231190 0.060089
O O18 0.423172 0.000000 0.050078
O O19 0.400485 0.226846 0.000000
#
# Coordination Sequence:
#
# PCOD8267449 Si02
#       6
#    16  16  16  16  16  16
#     4  10  19  30  46  67  90 116 144 176 215 256
#     4   8  14  25  41  61  84 109 139 176 213 246
#     4   9  17  28  43  64  87 111 139 171 209 252
#     4   9  17  29  46  67  87 109 143 183 215 245
#     4   9  17  29  45  64  87 113 139 171 211 253
#     4   8  14  26  45  67  88 112 146 184 215 246
#
# _framework density 17.839348999999999
#
# number of rings (size 3 to 8) (size 9 to 14) (size 15 to 20)
#    0.000    3.167    0.000    2.000    0.000    3.333 
#    0.000    3.333    0.000    4.000    0.000    7.000 
#    0.000    0.000    0.000    0.000    0.000    0.000 
#
# Total GULP energy -594899.332759 kJ/mol
# GULP energy per Si atom -12393.736099 kJ/mol
# Density = 1.779875 g / cm^3
# Si number density = 17.839349 Si / 1000 Ang^3
#
#
#
# Elastic Constant Matrix: (Units=GPa)
#
#
# Indices 1 2 3 4 5 6 
#
# 1 157.2283 24.5827 113.9378 0.0000 0.0000 0.0000
# 2 24.5827 13.6691 20.8868 0.0000 0.0000 0.0000
# 3 113.9378 20.8868 167.9897 0.0000 0.0000 0.0000
# 4 0.0000 0.0000 0.0000 10.8814 0.0000 0.0000
# 5 0.0000 0.0000 0.0000 0.0000 40.8559 0.0000
# 6 0.0000 0.0000 0.0000 0.0000 0.0000 22.7389
#
#
#
# Elastic Compliance Matrix: (Units=1/GPa)
#
#
# Indices 1 2 3 4 5 6 
#
# 1 0.014255 -0.013411 -0.008001 0.000000 0.000000 0.000000
# 2 -0.013411 0.102933 -0.003702 0.000000 0.000000 0.000000
# 3 -0.008001 -0.003702 0.011840 0.000000 0.000000 0.000000
# 4 0.000000 0.000000 0.000000 0.091900 0.000000 0.000000
# 5 0.000000 0.000000 0.000000 0.000000 0.024476 0.000000
# 6 0.000000 0.000000 0.000000 0.000000 0.000000 0.043978
#
#
# Mechanical properties :
#
#
# Convention : Reuss Voigt Hill
#
# Bulk Modulus (GPa) = 12.69045 73.07797 42.88421
# Shear Modulus (GPa) = 13.66588 26.86057 20.26322
#
# Velocity S-wave (km/s) = 2.77077 3.88453 3.37393
# Velocity P-wave (km/s) = 4.16718 7.82131 6.26651
#
# Compressibility (1/GPa) = 0.07879944
#
# Stress axis : x y z
#
# Youngs Moduli (GPa) = 70.15142 9.71509 84.46217
#
# Poissons Ratio (x) = 0.13028 0.67577
# Poissons Ratio (y) = 0.94077 0.31271
# Poissons Ratio (z) = 0.56127 0.03597
#
# Static dielectric constant tensor:
#      x y z
#    x 3.493850 0.000000 0.000000 
#    y 0.000000 2.756150 0.000000 
#    z 0.000000 0.000000 3.727470 
# 
# 
# High freq. dielectric constant tensor:
#      x y z
#    x 1.690770 0.000000 0.000000 
#    y 0.000000 1.628410 0.000000 
#    z 0.000000 0.000000 1.710010 
# 
# From -- ./inp_files/75324.got.cif
#   From: 2010.03.12/outbox.cif.g09.slc.cpg/sg65_38_cif.got.tgz:75324.got - 2010.04.10 20:52:16.
