data_PCOD8267800
_publ_section_title
;
Structure prediction by ZEFSAII (Michael W. Deem and Ramdas Pophale) SiO2 
 PCOD8267800
Probable space group: C M M M
;
_chemical_formula_sum "Si O2"
_cell_formula_units_Z 120
_cell_length_a 28.760650
_cell_length_b 8.812349
_cell_length_c 28.204793
_cell_angle_alpha 90.000000
_cell_angle_beta 90.000000
_cell_angle_gamma 90.000000
_cell_volume 7148.473345
_symmetry_space_group_name_H-M "C M M M"
_symmetry_group_IT_number 65
_symmetry_cell_setting 'orthorhombic'
loop_
_space_group_symop_operation_xyz
x,y,z
-x,-y,z
x,-y,-z
-x,y,-z
-x,-y,-z
x,y,-z
-x,y,z
x,-y,z
1/2+x,1/2+y,z
1/2-x,1/2-y,z
1/2+x,1/2-y,-z
1/2-x,1/2+y,-z
1/2-x,1/2-y,-z
1/2+x,1/2+y,-z
1/2-x,1/2+y,z
1/2+x,1/2-y,z
loop_
_atom_site_type_symbol
_atom_site_label
_atom_site_fract_x
_atom_site_fract_y
_atom_site_fract_z
Si Si1 0.299155 0.824327 0.500000
Si Si2 0.199265 0.321557 0.397368
Si Si3 0.552523 0.676061 0.835250
Si Si4 0.949565 0.819822 0.727589
Si Si5 0.199464 0.179431 0.217616
Si Si6 0.298590 0.323438 0.944824
Si Si7 0.354054 0.320962 0.687534
Si Si8 0.141343 0.678692 0.867128
O O1 0.250000 0.750000 0.500000
O O2 0.323097 0.780515 0.550379
O O3 0.289292 0.000000 0.500000
O O4 0.204861 0.500000 0.390195
O O5 0.250000 0.250000 0.390152
O O6 0.163371 0.258824 0.359569
O O7 0.500000 0.699559 0.853933
O O8 0.567070 0.500000 0.838769
O O9 0.556857 0.735585 0.781388
O O10 0.586991 0.777045 0.866800
O O11 0.906732 0.760151 0.695991
O O12 0.000000 0.762435 0.707920
O O13 0.949021 0.000000 0.728286
O O14 0.250000 0.250000 0.212799
O O15 0.178090 0.225814 0.268260
O O16 0.166751 0.242343 0.176712
O O17 0.202840 0.000000 0.211995
O O18 0.297186 0.500000 0.931523
O O19 0.250000 0.250000 0.929308
O O20 0.339040 0.239456 0.916626
O O21 0.308580 0.296877 0.000000
O O22 0.353121 0.500000 0.679808
O O23 0.148132 0.500000 0.863781
#
# Coordination Sequence:
#
# PCOD8267800 Si02
#       8
#     8  16  16  16  16  16  16  16
#     4   8  16  30  46  64  87 120 161 203 244 287
#     4  10  19  31  47  67  94 127 163 202 244 292
#     4   9  17  33  56  77  99 131 170 208 247 294
#     4   8  14  28  50  72  94 124 162 201 241 286
#     4  11  22  35  48  67  99 136 171 203 239 292
#     4  10  21  38  59  80 103 132 169 211 253 298
#     4  10  19  31  48  71  98 128 161 200 244 291
#     4  12  23  34  52  77 106 136 167 205 249 295
#
# _framework density 16.786802000000002
#
# number of rings (size 3 to 8) (size 9 to 14) (size 15 to 20)
#    0.000    2.133    1.333    4.000    0.000    3.733 
#    0.000    0.000    0.000    0.800    0.000    3.267 
#    0.000    3.733    0.000    0.000    0.000    0.000 
#
# Total GULP energy -743747.715715 kJ/mol
# GULP energy per Si atom -12395.795262 kJ/mol
# Density = 1.674859 g / cm^3
# Si number density = 16.786802 Si / 1000 Ang^3
#
#
#
# Elastic Constant Matrix: (Units=GPa)
#
#
# Indices 1 2 3 4 5 6 
#
# 1 118.1534 37.4964 52.8724 0.0000 0.0000 0.0000
# 2 37.4964 61.8982 38.2771 0.0000 0.0000 0.0000
# 3 52.8724 38.2771 92.5906 0.0000 0.0000 0.0000
# 4 0.0000 0.0000 0.0000 24.3835 0.0000 0.0000
# 5 0.0000 0.0000 0.0000 0.0000 11.1985 0.0000
# 6 0.0000 0.0000 0.0000 0.0000 0.0000 24.6743
#
#
#
# Elastic Compliance Matrix: (Units=1/GPa)
#
#
# Indices 1 2 3 4 5 6 
#
# 1 0.012099 -0.004107 -0.005211 0.000000 0.000000 0.000000
# 2 -0.004107 0.023098 -0.007204 0.000000 0.000000 0.000000
# 3 -0.005211 -0.007204 0.016754 0.000000 0.000000 0.000000
# 4 0.000000 0.000000 0.000000 0.041011 0.000000 0.000000
# 5 0.000000 0.000000 0.000000 0.000000 0.089298 0.000000
# 6 0.000000 0.000000 0.000000 0.000000 0.000000 0.040528
#
#
# Mechanical properties :
#
#
# Convention : Reuss Voigt Hill
#
# Bulk Modulus (GPa) = 52.88830 58.88154 55.88492
# Shear Modulus (GPa) = 19.07429 21.65102 20.36265
#
# Velocity S-wave (km/s) = 3.37451 3.59522 3.48662
# Velocity P-wave (km/s) = 6.83794 7.23785 7.04073
#
# Compressibility (1/GPa) = 0.01890778
#
# Stress axis : x y z
#
# Youngs Moduli (GPa) = 82.65323 43.29393 59.68732
#
# Poissons Ratio (x) = 0.17779 0.31104
# Poissons Ratio (y) = 0.33943 0.42997
# Poissons Ratio (z) = 0.43071 0.31188
#
# Static dielectric constant tensor:
#      x y z
#    x 3.343570 0.000000 0.000000 
#    y 0.000000 3.092870 0.000000 
#    z 0.000000 0.000000 3.401790 
# 
# 
# High freq. dielectric constant tensor:
#      x y z
#    x 1.640520 0.000000 0.000000 
#    y 0.000000 1.643680 0.000000 
#    z 0.000000 0.000000 1.636530 
# 
# From -- ./inp_files/76150.got.cif
#   From: 2010.03.12/outbox.cif.g09.slc.cpg/sg65_39_cif.got.tgz:76150.got - 2010.04.10 20:52:16.
