data_PCOD8267430
_publ_section_title
;
Structure prediction by ZEFSAII (Michael W. Deem and Ramdas Pophale) SiO2 
 PCOD8267430
Probable space group: C M M M
;
_chemical_formula_sum "Si O2"
_cell_formula_units_Z 92
_cell_length_a 23.759789
_cell_length_b 8.898047
_cell_length_c 24.831564
_cell_angle_alpha 90.000000
_cell_angle_beta 90.000000
_cell_angle_gamma 90.000000
_cell_volume 5249.782963
_symmetry_space_group_name_H-M "C M M M"
_symmetry_group_IT_number 65
_symmetry_cell_setting 'orthorhombic'
loop_
_space_group_symop_operation_xyz
x,y,z
-x,-y,z
x,-y,-z
-x,y,-z
-x,-y,-z
x,y,-z
-x,y,z
x,-y,z
1/2+x,1/2+y,z
1/2-x,1/2-y,z
1/2+x,1/2-y,-z
1/2-x,1/2+y,-z
1/2-x,1/2-y,-z
1/2+x,1/2+y,-z
1/2-x,1/2+y,z
1/2+x,1/2-y,z
loop_
_atom_site_type_symbol
_atom_site_label
_atom_site_fract_x
_atom_site_fract_y
_atom_site_fract_z
Si Si1 0.189642 0.679416 0.102285
Si Si2 0.107973 0.821274 0.179443
Si Si3 0.433126 0.669168 0.393289
Si Si4 0.124661 0.666356 0.000000
Si Si5 0.066043 0.325021 0.715571
Si Si6 0.000000 0.166341 0.119356
Si Si7 0.067178 0.330144 0.500000
Si Si8 0.000000 0.750987 0.000000
O O1 0.193083 0.500000 0.105781
O O2 0.250000 0.750000 0.091731
O O3 0.164612 0.744245 0.157682
O O4 0.149322 0.741875 0.054031
O O5 0.099811 0.770340 0.240569
O O6 0.056096 0.755900 0.143033
O O7 0.114150 0.000000 0.175949
O O8 0.500000 0.666175 0.395931
O O9 0.409307 0.500000 0.388647
O O10 0.413161 0.766869 0.342379
O O11 0.409098 0.745763 0.447309
O O12 0.149582 0.500000 0.000000
O O13 0.056942 0.654615 0.000000
O O14 0.080587 0.500000 0.720974
O O15 0.000000 0.294688 0.723511
O O16 0.000000 0.152735 0.054602
O O17 0.000000 0.000000 0.143806
O O18 0.090036 0.500000 0.500000
O O19 0.000000 0.329367 0.500000
#
# Coordination Sequence:
#
# PCOD8267430 Si02
#       8
#    16  16  16   8  16   8   8   4
#     4  11  23  41  58  78 100 131 169 208 252 303
#     4  11  21  36  54  76 101 132 166 208 254 306
#     4   9  16  25  38  57  84 122 165 209 250 296
#     4  10  22  36  56  80 106 132 163 202 250 304
#     4  10  19  30  45  68  96 129 165 207 254 303
#     4  10  21  33  51  76 105 132 163 200 253 309
#     4   9  15  23  35  53  81 119 164 211 250 293
#     4  12  18  38  54  82 108 134 162 202 258 304
#
# _framework density 17.524533999999999
#
# number of rings (size 3 to 8) (size 9 to 14) (size 15 to 20)
#    0.000    1.826    2.609    2.870    0.000    3.826 
#    0.000    1.304    0.000    0.000    0.000    0.000 
#    0.000    0.000    0.000    0.783    0.000   11.043 
#
# Total GULP energy -570299.919478 kJ/mol
# GULP energy per Si atom -12397.824336 kJ/mol
# Density = 1.748465 g / cm^3
# Si number density = 17.524534 Si / 1000 Ang^3
#
#
#
# Elastic Constant Matrix: (Units=GPa)
#
#
# Indices 1 2 3 4 5 6 
#
# 1 73.6141 28.6862 38.0178 0.0000 0.0000 0.0000
# 2 28.6862 103.1261 42.5949 0.0000 0.0000 0.0000
# 3 38.0178 42.5949 135.6525 0.0000 0.0000 0.0000
# 4 0.0000 0.0000 0.0000 30.3907 0.0000 0.0000
# 5 0.0000 0.0000 0.0000 0.0000 7.3557 0.0000
# 6 0.0000 0.0000 0.0000 0.0000 0.0000 18.5737
#
#
#
# Elastic Compliance Matrix: (Units=1/GPa)
#
#
# Indices 1 2 3 4 5 6 
#
# 1 0.016713 -0.003119 -0.003705 0.000000 0.000000 0.000000
# 2 -0.003119 0.011724 -0.002807 0.000000 0.000000 0.000000
# 3 -0.003705 -0.002807 0.009292 0.000000 0.000000 0.000000
# 4 0.000000 0.000000 0.000000 0.032905 0.000000 0.000000
# 5 0.000000 0.000000 0.000000 0.000000 0.135948 0.000000
# 6 0.000000 0.000000 0.000000 0.000000 0.000000 0.053840
#
#
# Mechanical properties :
#
#
# Convention : Reuss Voigt Hill
#
# Bulk Modulus (GPa) = 54.15070 58.99894 56.57482
# Shear Modulus (GPa) = 17.49241 24.80362 21.14801
#
# Velocity S-wave (km/s) = 3.16281 3.76622 3.47762
# Velocity P-wave (km/s) = 6.65619 7.25617 6.96265
#
# Compressibility (1/GPa) = 0.01846698
#
# Stress axis : x y z
#
# Youngs Moduli (GPa) = 59.83383 85.29575 107.62522
#
# Poissons Ratio (x) = 0.26602 0.39871
# Poissons Ratio (y) = 0.18661 0.30213
# Poissons Ratio (z) = 0.22166 0.23945
#
# Static dielectric constant tensor:
#      x y z
#    x 2.846070 0.000000 0.000000 
#    y 0.000000 3.221110 0.000000 
#    z 0.000000 0.000000 3.377480 
# 
# 
# High freq. dielectric constant tensor:
#      x y z
#    x 1.619000 0.000000 0.000000 
#    y 0.000000 1.682390 0.000000 
#    z 0.000000 0.000000 1.687600 
# 
# From -- ./inp_files/71514.got.cif
#   From: 2010.03.12/outbox.cif.g09.slc.cpg/sg65_36_cif.got.tgz:71514.got - 2010.04.10 20:52:16.
