data_PCOD8267762
_publ_section_title
;
Structure prediction by ZEFSAII (Michael W. Deem and Ramdas Pophale) SiO2 
 PCOD8267762
Probable space group: C M M M
;
_chemical_formula_sum "Si O2"
_cell_formula_units_Z 64
_cell_length_a 9.381640
_cell_length_b 35.375753
_cell_length_c 12.577708
_cell_angle_alpha 90.000000
_cell_angle_beta 90.000000
_cell_angle_gamma 90.000000
_cell_volume 4174.322174
_symmetry_space_group_name_H-M "C M M M"
_symmetry_group_IT_number 65
_symmetry_cell_setting 'orthorhombic'
loop_
_space_group_symop_operation_xyz
x,y,z
-x,-y,z
x,-y,-z
-x,y,-z
-x,-y,-z
x,y,-z
-x,y,z
x,-y,z
1/2+x,1/2+y,z
1/2-x,1/2-y,z
1/2+x,1/2-y,-z
1/2-x,1/2+y,-z
1/2-x,1/2-y,-z
1/2+x,1/2+y,-z
1/2-x,1/2+y,z
1/2+x,1/2-y,z
loop_
_atom_site_type_symbol
_atom_site_label
_atom_site_fract_x
_atom_site_fract_y
_atom_site_fract_z
Si Si1 0.840613 0.000000 0.627079
Si Si2 0.660744 0.712987 0.000000
Si Si3 0.342198 0.930851 0.373860
Si Si4 0.167407 0.210436 0.769255
Si Si5 0.335464 0.846097 0.624615
O O1 0.764205 0.037579 0.672427
O O2 0.838905 0.000000 0.500000
O O3 0.000000 0.000000 0.671989
O O4 0.750000 0.750000 0.000000
O O5 0.690652 0.691658 0.887786
O O6 0.500000 0.727358 0.000000
O O7 0.347665 0.933573 0.500000
O O8 0.500000 0.939014 0.328283
O O9 0.292681 0.888766 0.341446
O O10 0.250000 0.250000 0.759249
O O11 0.230223 0.181726 0.684576
O O12 0.000000 0.216969 0.745475
O O13 0.311870 0.839886 0.500000
O O14 0.500000 0.838096 0.654741
#
# Coordination Sequence:
#
# PCOD8267762 Si02
#       5
#     8   8  16  16  16
#     4   9  15  21  33  55  79 102 133 172 205 235
#     4   8  16  30  46  64  82 101 130 171 216 254
#     4   8  14  25  39  53  74 107 140 167 199 240
#     4  10  19  31  47  64  83 108 139 175 213 252
#     4   9  18  31  44  60  85 115 145 175 206 244
#
# _framework density 15.33183
#
# number of rings (size 3 to 8) (size 9 to 14) (size 15 to 20)
#    0.000    3.125    0.000    2.625    0.000    4.500 
#    0.000    2.500    0.000    0.000    0.000    0.000 
#    0.000    1.000    0.000   11.250    0.000    8.500 
#
# Total GULP energy -396422.981368 kJ/mol
# GULP energy per Si atom -12388.218168 kJ/mol
# Density = 1.529693 g / cm^3
# Si number density = 15.331830 Si / 1000 Ang^3
#
#
#
# Elastic Constant Matrix: (Units=GPa)
#
#
# Indices 1 2 3 4 5 6 
#
# 1 107.9843 69.5901 40.6038 0.0000 0.0000 0.0000
# 2 69.5901 107.1244 39.3376 0.0000 0.0000 0.0000
# 3 40.6038 39.3376 48.4141 0.0000 0.0000 0.0000
# 4 0.0000 0.0000 0.0000 -1.4251 0.0000 0.0000
# 5 0.0000 0.0000 0.0000 0.0000 15.6254 0.0000
# 6 0.0000 0.0000 0.0000 0.0000 0.0000 29.0320
#
#
#
# Elastic Compliance Matrix: (Units=1/GPa)
#
#
# Indices 1 2 3 4 5 6 
#
# 1 0.017822 -0.008678 -0.007896 0.000000 0.000000 0.000000
# 2 -0.008678 0.017530 -0.006966 0.000000 0.000000 0.000000
# 3 -0.007896 -0.006966 0.032937 0.000000 0.000000 0.000000
# 4 0.000000 0.000000 0.000000 -0.701727 0.000000 0.000000
# 5 0.000000 0.000000 0.000000 0.000000 0.063998 0.000000
# 6 0.000000 0.000000 0.000000 0.000000 0.000000 0.034445
#
#
# Mechanical properties :
#
#
# Convention : Reuss Voigt Hill
#
# Bulk Modulus (GPa) = 47.14720 62.50954 54.82837
# Shear Modulus (GPa) = -10.39836 16.24591 2.92377
#
# Velocity S-wave (km/s) = -2.60709 3.25871 1.38244
# Velocity P-wave (km/s) = 4.66427 7.41745 6.19572
#
# Compressibility (1/GPa) = 0.02121017
#
# Stress axis : x y z
#
# Youngs Moduli (GPa) = 56.10988 57.04406 30.36114
#
# Poissons Ratio (x) = 0.49504 0.23973
# Poissons Ratio (y) = 0.48693 0.21148
# Poissons Ratio (z) = 0.44303 0.39735
#
# Static dielectric constant tensor:
#      x y z
#    x 3.125530 0.000000 0.000000 
#    y 0.000000 2.909320 0.000000 
#    z 0.000000 0.000000 2.891230 
# 
# 
# High freq. dielectric constant tensor:
#      x y z
#    x 1.600000 0.000000 0.000000 
#    y 0.000000 1.577440 0.000000 
#    z 0.000000 0.000000 1.542520 
# 
# From -- ./inp_files/36858.got.cif
#   From: 2010.03.12/outbox.cif.g09.slc.cpg/sg65_19_cif.got.tgz:36858.got - 2010.04.10 20:52:16.
