data_PCOD8267827
_publ_section_title
;
Structure prediction by ZEFSAII (Michael W. Deem and Ramdas Pophale) SiO2 
 PCOD8267827
Probable space group: C M M M
;
_chemical_formula_sum "Si O2"
_cell_formula_units_Z 72
_cell_length_a 18.963001
_cell_length_b 9.111911
_cell_length_c 22.968489
_cell_angle_alpha 90.000000
_cell_angle_beta 90.000000
_cell_angle_gamma 90.000000
_cell_volume 3968.706321
_symmetry_space_group_name_H-M "C M M M"
_symmetry_group_IT_number 65
_symmetry_cell_setting 'orthorhombic'
loop_
_space_group_symop_operation_xyz
x,y,z
-x,-y,z
x,-y,-z
-x,y,-z
-x,-y,-z
x,y,-z
-x,y,z
x,-y,z
1/2+x,1/2+y,z
1/2-x,1/2-y,z
1/2+x,1/2-y,-z
1/2-x,1/2+y,-z
1/2-x,1/2-y,-z
1/2+x,1/2+y,-z
1/2-x,1/2+y,z
1/2+x,1/2-y,z
loop_
_atom_site_type_symbol
_atom_site_label
_atom_site_fract_x
_atom_site_fract_y
_atom_site_fract_z
Si Si1 0.583623 0.833069 0.155286
Si Si2 0.083822 0.836704 0.732943
Si Si3 0.174891 0.174888 0.500000
Si Si4 0.678651 0.671133 0.932457
Si Si5 0.078615 0.825499 0.394866
O O1 0.500000 0.820723 0.151886
O O2 0.612306 0.771108 0.216915
O O3 0.613521 0.737468 0.102644
O O4 0.609415 0.000000 0.149386
O O5 0.106525 0.776235 0.669144
O O6 0.000000 0.844640 0.734269
O O7 0.114753 0.000000 0.743997
O O8 0.250000 0.250000 0.500000
O O9 0.132498 0.231937 0.556522
O O10 0.183458 0.000000 0.500000
O O11 0.685864 0.500000 0.918958
O O12 0.750000 0.750000 0.911984
O O13 0.663505 0.701859 0.000000
O O14 0.000000 0.761953 0.407186
O O15 0.074130 0.000000 0.396408
#
# Coordination Sequence:
#
# PCOD8267827 Si02
#       5
#    16  16   8  16  16
#     4  10  20  33  51  77 107 136 166 203 248 295
#     4   8  14  27  48  72  96 123 160 206 250 289
#     4  10  19  31  47  69  99 128 156 196 246 296
#     4  10  21  37  56  76 100 132 169 208 250 297
#     4   8  14  27  50  74  91 118 165 210 241 278
#
# _framework density 18.141933000000002
#
# number of rings (size 3 to 8) (size 9 to 14) (size 15 to 20)
#    0.000    2.889    0.000    3.000    0.000    4.444 
#    0.000    4.444    0.000    5.333    0.000    0.000 
#    0.000    0.000    0.000    0.000    0.000    0.000 
#
# Total GULP energy -446298.291213 kJ/mol
# GULP energy per Si atom -12397.174756 kJ/mol
# Density = 1.810064 g / cm^3
# Si number density = 18.141933 Si / 1000 Ang^3
#
#
#
# Elastic Constant Matrix: (Units=GPa)
#
#
# Indices 1 2 3 4 5 6 
#
# 1 65.1883 34.8114 53.5255 0.0000 0.0000 0.0000
# 2 34.8114 84.8389 59.3994 0.0000 0.0000 0.0000
# 3 53.5255 59.3994 131.5561 0.0000 0.0000 0.0000
# 4 0.0000 0.0000 0.0000 20.1335 0.0000 0.0000
# 5 0.0000 0.0000 0.0000 0.0000 9.6626 0.0000
# 6 0.0000 0.0000 0.0000 0.0000 0.0000 27.6216
#
#
#
# Elastic Compliance Matrix: (Units=1/GPa)
#
#
# Indices 1 2 3 4 5 6 
#
# 1 0.024121 -0.004425 -0.007816 0.000000 0.000000 0.000000
# 2 -0.004425 0.018047 -0.006348 0.000000 0.000000 0.000000
# 3 -0.007816 -0.006348 0.013648 0.000000 0.000000 0.000000
# 4 0.000000 0.000000 0.000000 0.049668 0.000000 0.000000
# 5 0.000000 0.000000 0.000000 0.000000 0.103492 0.000000
# 6 0.000000 0.000000 0.000000 0.000000 0.000000 0.036204
#
#
# Mechanical properties :
#
#
# Convention : Reuss Voigt Hill
#
# Bulk Modulus (GPa) = 53.65554 64.11734 58.88644
# Shear Modulus (GPa) = 17.32676 20.40667 18.86671
#
# Velocity S-wave (km/s) = 3.09377 3.35749 3.22832
# Velocity P-wave (km/s) = 6.51164 7.10276 6.81361
#
# Compressibility (1/GPa) = 0.01863741
#
# Stress axis : x y z
#
# Youngs Moduli (GPa) = 41.45799 55.40944 73.27259
#
# Poissons Ratio (x) = 0.24519 0.57269
# Poissons Ratio (y) = 0.18345 0.46515
# Poissons Ratio (z) = 0.32403 0.35175
#
# Static dielectric constant tensor:
#      x y z
#    x 3.082590 0.000000 0.000000 
#    y 0.000000 3.258610 0.000000 
#    z 0.000000 0.000000 3.742460 
# 
# 
# High freq. dielectric constant tensor:
#      x y z
#    x 1.672740 0.000000 0.000000 
#    y 0.000000 1.683430 0.000000 
#    z 0.000000 0.000000 1.718280 
# 
# From -- ./inp_files/64318.got.cif
#   From: 2010.03.12/outbox.cif.g09.slc.cpg/sg65_33_cif.got.tgz:64318.got - 2010.04.10 20:52:16.
