data_PCOD8267090
_publ_section_title
;
Structure prediction by ZEFSAII (Michael W. Deem and Ramdas Pophale) SiO2 
 PCOD8267090
Probable space group: C M M M
;
_chemical_formula_sum "Si O2"
_cell_formula_units_Z 88
_cell_length_a 13.666279
_cell_length_b 29.027925
_cell_length_c 13.664481
_cell_angle_alpha 90.000000
_cell_angle_beta 90.000000
_cell_angle_gamma 90.000000
_cell_volume 5420.750470
_symmetry_space_group_name_H-M "C M M M"
_symmetry_group_IT_number 65
_symmetry_cell_setting 'orthorhombic'
loop_
_space_group_symop_operation_xyz
x,y,z
-x,-y,z
x,-y,-z
-x,y,-z
-x,-y,-z
x,y,-z
-x,y,z
x,-y,z
1/2+x,1/2+y,z
1/2-x,1/2-y,z
1/2+x,1/2-y,-z
1/2-x,1/2+y,-z
1/2-x,1/2-y,-z
1/2+x,1/2+y,-z
1/2-x,1/2+y,z
1/2+x,1/2-y,z
loop_
_atom_site_type_symbol
_atom_site_label
_atom_site_fract_x
_atom_site_fract_y
_atom_site_fract_z
Si Si1 0.115342 0.415699 0.392617
Si Si2 0.607499 0.584931 0.115481
Si Si3 0.386514 0.187985 0.385011
Si Si4 0.615348 0.000000 0.266117
Si Si5 0.884920 0.811497 0.886390
Si Si6 0.767623 0.000000 0.884605
Si Si7 0.250000 0.250000 0.250755
O O1 0.162067 0.423352 0.500000
O O2 0.139708 0.364455 0.354921
O O3 0.156482 0.454655 0.320670
O O4 0.000000 0.421648 0.401502
O O5 0.500000 0.577478 0.161880
O O6 0.645591 0.636121 0.140470
O O7 0.678349 0.545491 0.156634
O O8 0.599021 0.579438 0.000000
O O9 0.366049 0.196083 0.500000
O O10 0.500000 0.198871 0.361646
O O11 0.317433 0.219520 0.320291
O O12 0.500000 0.000000 0.255723
O O13 0.658480 0.000000 0.157408
O O14 0.820855 0.779220 0.818041
O O15 0.000000 0.803614 0.866088
O O16 0.861619 0.800863 0.000000
O O17 0.758648 0.000000 0.000000
#
# Coordination Sequence:
#
# PCOD8267090 Si02
#       7
#    16  16  16   8  16   8   8
#     4   8  15  30  49  66  87 116 151 192 232 267
#     4   8  15  30  49  66  87 116 153 196 234 264
#     4   9  19  34  49  69  98 126 155 197 242 282
#     4  10  19  28  45  69  96 124 153 183 222 279
#     4   9  19  34  49  69  98 128 159 199 240 276
#     4  10  19  28  45  69  96 124 153 183 224 279
#     4  12  20  28  52  74  96 124 164 196 236 290
#
# _framework density 16.233913999999999
#
# number of rings (size 3 to 8) (size 9 to 14) (size 15 to 20)
#    0.000    2.909    0.000    3.818    2.545    2.364 
#    0.000    0.000    0.000    0.000    0.000    0.000 
#    0.000    5.818    0.000    0.000    0.000    0.000 
#
# Total GULP energy -545279.654932 kJ/mol
# GULP energy per Si atom -12392.719430 kJ/mol
# Density = 1.619697 g / cm^3
# Si number density = 16.233914 Si / 1000 Ang^3
#
#
#
# Elastic Constant Matrix: (Units=GPa)
#
#
# Indices 1 2 3 4 5 6 
#
# 1 74.7504 67.5787 55.5322 0.0000 0.0000 0.0000
# 2 67.5787 138.6171 66.8696 0.0000 0.0000 0.0000
# 3 55.5322 66.8696 73.0048 0.0000 0.0000 0.0000
# 4 0.0000 0.0000 0.0000 88.2890 0.0000 0.0000
# 5 0.0000 0.0000 0.0000 0.0000 22.3968 0.0000
# 6 0.0000 0.0000 0.0000 0.0000 0.0000 -10.8083
#
#
#
# Elastic Compliance Matrix: (Units=1/GPa)
#
#
# Indices 1 2 3 4 5 6 
#
# 1 0.034604 -0.007475 -0.019475 0.000000 0.000000 0.000000
# 2 -0.007475 0.014540 -0.007632 0.000000 0.000000 0.000000
# 3 -0.019475 -0.007632 0.035502 0.000000 0.000000 0.000000
# 4 0.000000 0.000000 0.000000 0.011326 0.000000 0.000000
# 5 0.000000 0.000000 0.000000 0.000000 0.044649 0.000000
# 6 0.000000 0.000000 0.000000 0.000000 0.000000 -0.092522
#
#
# Mechanical properties :
#
#
# Convention : Reuss Voigt Hill
#
# Bulk Modulus (GPa) = 64.59171 74.03705 69.31438
# Shear Modulus (GPa) = 40.84107 26.40161 33.62134
#
# Velocity S-wave (km/s) = 5.02120 4.03715 4.55582
# Velocity P-wave (km/s) = 8.57270 8.21199 8.39428
#
# Compressibility (1/GPa) = 0.01548186
#
# Stress axis : x y z
#
# Youngs Moduli (GPa) = 28.89845 68.77455 28.16722
#
# Poissons Ratio (x) = 0.51412 0.54855
# Poissons Ratio (y) = 0.21603 0.21497
# Poissons Ratio (z) = 0.56279 0.52489
#
# Static dielectric constant tensor:
#      x y z
#    x 2.907960 0.000000 0.000000 
#    y 0.000000 3.337790 0.000000 
#    z 0.000000 0.000000 2.912230 
# 
# 
# High freq. dielectric constant tensor:
#      x y z
#    x 1.604460 0.000000 0.000000 
#    y 0.000000 1.639620 0.000000 
#    z 0.000000 0.000000 1.604510 
# 
# From -- ./inp_files/25235.got.cif
#   From: 2010.03.12/outbox.cif.g09.slc.cpg/sg65_13_cif.got.tgz:25235.got - 2010.04.10 20:52:16.
