data_PCOD8267138
_publ_section_title
;
Structure prediction by ZEFSAII (Michael W. Deem and Ramdas Pophale) SiO2 
 PCOD8267138
Probable space group: C M M M
;
_chemical_formula_sum "Si O2"
_cell_formula_units_Z 104
_cell_length_a 17.885404
_cell_length_b 28.754643
_cell_length_c 12.311119
_cell_angle_alpha 90.000000
_cell_angle_beta 90.000000
_cell_angle_gamma 90.000000
_cell_volume 6331.465778
_symmetry_space_group_name_H-M "C M M M"
_symmetry_group_IT_number 65
_symmetry_cell_setting 'orthorhombic'
loop_
_space_group_symop_operation_xyz
x,y,z
-x,-y,z
x,-y,-z
-x,y,-z
-x,-y,-z
x,y,-z
-x,y,z
x,-y,z
1/2+x,1/2+y,z
1/2-x,1/2-y,z
1/2+x,1/2-y,-z
1/2-x,1/2+y,-z
1/2-x,1/2-y,-z
1/2+x,1/2+y,-z
1/2-x,1/2+y,z
1/2+x,1/2-y,z
loop_
_atom_site_type_symbol
_atom_site_label
_atom_site_fract_x
_atom_site_fract_y
_atom_site_fract_z
Si Si1 0.415159 0.298695 0.776940
Si Si2 0.782370 0.799683 0.624850
Si Si3 0.144310 0.366434 0.374461
Si Si4 0.820883 0.308252 0.000000
Si Si5 0.586240 0.054080 0.000000
Si Si6 0.918612 0.690767 0.194205
Si Si7 0.911238 0.445519 0.762912
Si Si8 0.652939 0.301615 0.000000
O O1 0.500000 0.314337 0.748763
O O2 0.356768 0.316518 0.687142
O O3 0.406038 0.243840 0.776971
O O4 0.392857 0.318704 0.895075
O O5 0.804341 0.792542 0.500000
O O6 0.750000 0.750000 0.669916
O O7 0.724520 0.841859 0.641085
O O8 0.120845 0.367371 0.500000
O O9 0.084400 0.336719 0.307168
O O10 0.139507 0.418664 0.326001
O O11 0.858411 0.328932 0.108473
O O12 0.735169 0.324070 0.000000
O O13 0.836136 0.253487 0.000000
O O14 0.616390 0.072887 0.883304
O O15 0.500000 0.065005 0.000000
O O16 0.602089 0.000000 0.000000
O O17 0.000000 0.683732 0.141147
O O18 0.894817 0.500000 0.748432
O O19 0.000000 0.435911 0.746941
#
# Coordination Sequence:
#
# PCOD8267138 Si02
#       8
#    16  16  16   8   8  16  16   8
#     4  10  19  31  48  67  89 117 155 199 244 290
#     4  10  20  35  50  64  89 126 167 206 245 289
#     4  11  22  33  46  65  92 128 167 204 245 294
#     4   9  17  28  43  61  84 120 156 194 238 285
#     4   7  12  27  50  71  91 119 155 195 239 283
#     4  10  19  29  42  63  90 118 157 203 239 280
#     4   9  18  33  52  73  98 128 162 202 247 293
#     4   9  17  27  45  64  86 117 151 193 242 297
#
# _framework density 16.425896999999999
#
# number of rings (size 3 to 8) (size 9 to 14) (size 15 to 20)
#    0.000    2.385    1.538    2.769    2.154    4.308 
#    0.000    4.615    0.000    0.000    0.000    0.000 
#    0.000    0.615    0.000    3.385    0.000   10.462 
#
# Total GULP energy -644302.613418 kJ/mol
# GULP energy per Si atom -12390.434873 kJ/mol
# Density = 1.638851 g / cm^3
# Si number density = 16.425897 Si / 1000 Ang^3
#
#
#
# Elastic Constant Matrix: (Units=GPa)
#
#
# Indices 1 2 3 4 5 6 
#
# 1 79.3644 31.1496 44.3632 0.0000 0.0000 0.0000
# 2 31.1496 52.5393 35.4498 0.0000 0.0000 0.0000
# 3 44.3632 35.4498 118.0113 0.0000 0.0000 0.0000
# 4 0.0000 0.0000 0.0000 18.8962 0.0000 0.0000
# 5 0.0000 0.0000 0.0000 0.0000 24.2196 0.0000
# 6 0.0000 0.0000 0.0000 0.0000 0.0000 17.3432
#
#
#
# Elastic Compliance Matrix: (Units=1/GPa)
#
#
# Indices 1 2 3 4 5 6 
#
# 1 0.018147 -0.007721 -0.004503 0.000000 0.000000 0.000000
# 2 -0.007721 0.027157 -0.005255 0.000000 0.000000 0.000000
# 3 -0.004503 -0.005255 0.011745 0.000000 0.000000 0.000000
# 4 0.000000 0.000000 0.000000 0.052921 0.000000 0.000000
# 5 0.000000 0.000000 0.000000 0.000000 0.041289 0.000000
# 6 0.000000 0.000000 0.000000 0.000000 0.000000 0.057659
#
#
# Mechanical properties :
#
#
# Convention : Reuss Voigt Hill
#
# Bulk Modulus (GPa) = 45.26655 52.42667 48.84661
# Shear Modulus (GPa) = 19.90126 21.35530 20.62828
#
# Velocity S-wave (km/s) = 3.48455 3.60960 3.54763
# Velocity P-wave (km/s) = 6.61871 7.02557 6.82517
#
# Compressibility (1/GPa) = 0.02209137
#
# Stress axis : x y z
#
# Youngs Moduli (GPa) = 55.10401 36.82294 85.14232
#
# Poissons Ratio (x) = 0.28432 0.38337
# Poissons Ratio (y) = 0.42547 0.44744
# Poissons Ratio (z) = 0.24811 0.19351
#
# Static dielectric constant tensor:
#      x y z
#    x 3.034260 0.000000 0.000000 
#    y 0.000000 2.790680 0.000000 
#    z 0.000000 0.000000 3.363780 
# 
# 
# High freq. dielectric constant tensor:
#      x y z
#    x 1.610890 0.000000 0.000000 
#    y 0.000000 1.585380 0.000000 
#    z 0.000000 0.000000 1.649270 
# 
# From -- ./inp_files/27743.got.cif
#   From: 2010.03.12/outbox.cif.g09.slc.cpg/sg65_14_cif.got.tgz:27743.got - 2010.04.10 20:52:16.
