data_PCOD8267506
_publ_section_title
;
Structure prediction by ZEFSAII (Michael W. Deem and Ramdas Pophale) SiO2 
 PCOD8267506
Probable space group: C M M M
;
_chemical_formula_sum "Si O2"
_cell_formula_units_Z 80
_cell_length_a 23.977726
_cell_length_b 24.023120
_cell_length_c 7.878895
_cell_angle_alpha 90.000000
_cell_angle_beta 90.000000
_cell_angle_gamma 90.000000
_cell_volume 4538.399436
_symmetry_space_group_name_H-M "C M M M"
_symmetry_group_IT_number 65
_symmetry_cell_setting 'orthorhombic'
loop_
_space_group_symop_operation_xyz
x,y,z
-x,-y,z
x,-y,-z
-x,y,-z
-x,-y,-z
x,y,-z
-x,y,z
x,-y,z
1/2+x,1/2+y,z
1/2-x,1/2-y,z
1/2+x,1/2-y,-z
1/2-x,1/2+y,-z
1/2-x,1/2-y,-z
1/2+x,1/2+y,-z
1/2-x,1/2+y,z
1/2+x,1/2-y,z
loop_
_atom_site_type_symbol
_atom_site_label
_atom_site_fract_x
_atom_site_fract_y
_atom_site_fract_z
Si Si1 0.437873 0.154495 0.193545
Si Si2 0.845361 0.933919 0.000000
Si Si3 0.933979 0.229027 0.313006
Si Si4 0.854652 0.437273 0.698148
Si Si5 0.729820 0.566083 0.687966
Si Si6 0.066303 0.844334 0.000000
O O1 0.500000 0.139286 0.261653
O O2 0.411984 0.207616 0.292387
O O3 0.398698 0.101257 0.207937
O O4 0.441832 0.173427 0.000000
O O5 0.812329 0.913150 0.832672
O O6 0.905637 0.905089 0.000000
O O7 0.854451 0.000000 0.000000
O O8 0.916013 0.207003 0.500000
O O9 0.000000 0.231494 0.293718
O O10 0.911493 0.188099 0.166947
O O11 0.867595 0.436377 0.500000
O O12 0.861156 0.500000 0.769589
O O13 0.792391 0.414065 0.733884
O O14 0.712160 0.588584 0.500000
O O15 0.730701 0.500000 0.681817
O O16 0.000000 0.853185 0.000000
#
# Coordination Sequence:
#
# PCOD8267506 Si02
#       6
#    16   8  16  16  16   8
#     4  10  19  30  46  71 102 133 170 216 257 295
#     4  10  20  33  55  81 102 132 158 186 246 300
#     4   9  17  32  53  72  95 133 174 207 240 282
#     4   9  18  31  47  69  98 134 174 215 256 294
#     4   8  16  32  51  72  98 130 173 211 235 279
#     4  10  20  35  53  79 108 126 156 198 236 296
#
# _framework density 17.627359999999999
#
# number of rings (size 3 to 8) (size 9 to 14) (size 15 to 20)
#    0.000    2.800    1.000    1.800    1.400    3.000 
#    0.000    2.000    0.000    2.400    0.000    9.800 
#    0.000    0.000    0.000    0.000    0.000    0.000 
#
# Total GULP energy -495774.869449 kJ/mol
# GULP energy per Si atom -12394.371736 kJ/mol
# Density = 1.758724 g / cm^3
# Si number density = 17.627360 Si / 1000 Ang^3
#
#
#
# Elastic Constant Matrix: (Units=GPa)
#
#
# Indices 1 2 3 4 5 6 
#
# 1 71.1004 41.4383 40.8834 0.0000 0.0000 0.0000
# 2 41.4383 70.4045 40.5746 0.0000 0.0000 0.0000
# 3 40.8834 40.5746 115.8534 0.0000 0.0000 0.0000
# 4 0.0000 0.0000 0.0000 17.0212 0.0000 0.0000
# 5 0.0000 0.0000 0.0000 0.0000 14.7573 0.0000
# 6 0.0000 0.0000 0.0000 0.0000 0.0000 7.6520
#
#
#
# Elastic Compliance Matrix: (Units=1/GPa)
#
#
# Indices 1 2 3 4 5 6 
#
# 1 0.022944 -0.011073 -0.004219 0.000000 0.000000 0.000000
# 2 -0.011073 0.023139 -0.004196 0.000000 0.000000 0.000000
# 3 -0.004219 -0.004196 0.011590 0.000000 0.000000 0.000000
# 4 0.000000 0.000000 0.000000 0.058750 0.000000 0.000000
# 5 0.000000 0.000000 0.000000 0.000000 0.067763 0.000000
# 6 0.000000 0.000000 0.000000 0.000000 0.000000 0.130685
#
#
# Mechanical properties :
#
#
# Convention : Reuss Voigt Hill
#
# Bulk Modulus (GPa) = 53.48399 55.90565 54.69482
# Shear Modulus (GPa) = 13.88582 16.85024 15.36803
#
# Velocity S-wave (km/s) = 2.80972 3.09514 2.95588
# Velocity P-wave (km/s) = 6.39792 6.67513 6.53799
#
# Compressibility (1/GPa) = 0.01869718
#
# Stress axis : x y z
#
# Youngs Moduli (GPa) = 43.58474 43.21656 86.28137
#
# Poissons Ratio (x) = 0.47853 0.36399
# Poissons Ratio (y) = 0.48261 0.36207
# Poissons Ratio (z) = 0.18387 0.18136
#
# Static dielectric constant tensor:
#      x y z
#    x 3.026070 0.000000 0.000000 
#    y 0.000000 2.994590 0.000000 
#    z 0.000000 0.000000 3.604850 
# 
# 
# High freq. dielectric constant tensor:
#      x y z
#    x 1.651020 0.000000 0.000000 
#    y 0.000000 1.653060 0.000000 
#    z 0.000000 0.000000 1.697870 
# 
# From -- ./inp_files/13820.got.cif
#   From: 2010.03.12/outbox.cif.g09.slc.cpg/sg65_7_cif.got.tgz:13820.got - 2010.04.10 20:52:16.
