data_PCOD8267223
_publ_section_title
;
Structure prediction by ZEFSAII (Michael W. Deem and Ramdas Pophale) SiO2 
 PCOD8267223
Probable space group: C M M M
;
_chemical_formula_sum "Si O2"
_cell_formula_units_Z 104
_cell_length_a 18.106010
_cell_length_b 32.603950
_cell_length_c 10.067683
_cell_angle_alpha 90.000000
_cell_angle_beta 90.000000
_cell_angle_gamma 90.000000
_cell_volume 5943.229580
_symmetry_space_group_name_H-M "C M M M"
_symmetry_group_IT_number 65
_symmetry_cell_setting 'orthorhombic'
loop_
_space_group_symop_operation_xyz
x,y,z
-x,-y,z
x,-y,-z
-x,y,-z
-x,-y,-z
x,y,-z
-x,y,z
x,-y,z
1/2+x,1/2+y,z
1/2-x,1/2-y,z
1/2+x,1/2-y,-z
1/2-x,1/2+y,-z
1/2-x,1/2-y,-z
1/2+x,1/2+y,-z
1/2-x,1/2+y,z
1/2+x,1/2-y,z
loop_
_atom_site_type_symbol
_atom_site_label
_atom_site_fract_x
_atom_site_fract_y
_atom_site_fract_z
Si Si1 0.174422 0.403280 0.656158
Si Si2 0.083120 0.324247 0.657515
Si Si3 0.343194 0.583850 0.343082
Si Si4 0.084933 0.000000 0.341618
Si Si5 0.332801 0.255277 0.341470
Si Si6 0.082694 0.834496 0.341725
Si Si7 0.581947 0.048307 0.854190
O O1 0.162997 0.410878 0.500000
O O2 0.138474 0.360345 0.702329
O O3 0.259618 0.405987 0.697290
O O4 0.135172 0.439093 0.735908
O O5 0.079635 0.322749 0.500000
O O6 0.116281 0.281697 0.712660
O O7 0.000000 0.330742 0.714440
O O8 0.351423 0.581951 0.500000
O O9 0.373026 0.540488 0.285034
O O10 0.391410 0.621461 0.285555
O O11 0.087274 0.000000 0.500000
O O12 0.000000 0.000000 0.292104
O O13 0.332155 0.254952 0.500000
O O14 0.250000 0.250000 0.286078
O O15 0.365259 0.298141 0.287055
O O16 0.086482 0.834984 0.500000
O O17 0.000000 0.826120 0.291569
O O18 0.500000 0.065843 0.825936
O O19 0.579459 0.000000 0.855239
O O20 0.608931 0.063999 0.000000
#
# Coordination Sequence:
#
# PCOD8267223 Si02
#       7
#    16  16  16   8  16  16  16
#     4  10  19  29  45  68  95 121 150 188 231 275
#     4   9  16  25  36  54  82 114 145 178 220 268
#     4   9  17  26  37  57  85 114 148 189 231 273
#     4   9  16  26  38  52  78 117 150 180 227 281
#     4   9  15  22  33  49  75 112 152 188 224 268
#     4   9  15  23  35  51  76 116 159 191 225 278
#     4   9  19  35  51  66  88 120 156 192 229 270
#
# _framework density 17.498902999999999
#
# number of rings (size 3 to 8) (size 9 to 14) (size 15 to 20)
#    0.000    2.846    0.000    2.769    1.077    8.615 
#    0.000    0.769    0.000    0.000    0.000    0.000 
#    0.000    8.615    0.000    1.538    0.000    0.000 
#
# Total GULP energy -644504.069756 kJ/mol
# GULP energy per Si atom -12394.309034 kJ/mol
# Density = 1.745907 g / cm^3
# Si number density = 17.498903 Si / 1000 Ang^3
#
#
#
# Elastic Constant Matrix: (Units=GPa)
#
#
# Indices 1 2 3 4 5 6 
#
# 1 158.2021 86.7310 16.8933 0.0000 0.0000 0.0000
# 2 86.7310 136.2134 12.0405 0.0000 0.0000 0.0000
# 3 16.8933 12.0405 17.1504 0.0000 0.0000 0.0000
# 4 0.0000 0.0000 0.0000 4.6726 0.0000 0.0000
# 5 0.0000 0.0000 0.0000 0.0000 4.1171 0.0000
# 6 0.0000 0.0000 0.0000 0.0000 0.0000 38.9819
#
#
#
# Elastic Compliance Matrix: (Units=1/GPa)
#
#
# Indices 1 2 3 4 5 6 
#
# 1 0.010237 -0.005999 -0.005872 0.000000 0.000000 0.000000
# 2 -0.005999 0.011343 -0.002054 0.000000 0.000000 0.000000
# 3 -0.005872 -0.002054 0.065534 0.000000 0.000000 0.000000
# 4 0.000000 0.000000 0.000000 0.214015 0.000000 0.000000
# 5 0.000000 0.000000 0.000000 0.000000 0.242888 0.000000
# 6 0.000000 0.000000 0.000000 0.000000 0.000000 0.025653
#
#
# Mechanical properties :
#
#
# Convention : Reuss Voigt Hill
#
# Bulk Modulus (GPa) = 16.87383 60.32173 38.59778
# Shear Modulus (GPa) = 8.10014 22.61440 15.35727
#
# Velocity S-wave (km/s) = 2.15383 3.59880 2.96567
# Velocity P-wave (km/s) = 3.98109 7.19827 5.81653
#
# Compressibility (1/GPa) = 0.05926336
#
# Stress axis : x y z
#
# Youngs Moduli (GPa) = 97.68567 88.16173 15.25936
#
# Poissons Ratio (x) = 0.52889 0.08960
# Poissons Ratio (y) = 0.58603 0.03134
# Poissons Ratio (z) = 0.57359 0.18109
#
# Static dielectric constant tensor:
#      x y z
#    x 3.519800 0.000000 0.000000 
#    y 0.000000 3.464590 0.000000 
#    z 0.000000 0.000000 2.544470 
# 
# 
# High freq. dielectric constant tensor:
#      x y z
#    x 1.692990 0.000000 0.000000 
#    y 0.000000 1.691140 0.000000 
#    z 0.000000 0.000000 1.580280 
# 
# From -- ./inp_files/27715.got.cif
#   From: 2010.03.12/outbox.cif.g09.slc.cpg/sg65_14_cif.got.tgz:27715.got - 2010.04.10 20:52:16.
