data_PCOD8267624
_publ_section_title
;
Structure prediction by ZEFSAII (Michael W. Deem and Ramdas Pophale) SiO2 
 PCOD8267624
Probable space group: C M M M
;
_chemical_formula_sum "Si O2"
_cell_formula_units_Z 104
_cell_length_a 30.016822
_cell_length_b 8.990507
_cell_length_c 22.507418
_cell_angle_alpha 90.000000
_cell_angle_beta 90.000000
_cell_angle_gamma 90.000000
_cell_volume 6073.996956
_symmetry_space_group_name_H-M "C M M M"
_symmetry_group_IT_number 65
_symmetry_cell_setting 'orthorhombic'
loop_
_space_group_symop_operation_xyz
x,y,z
-x,-y,z
x,-y,-z
-x,y,-z
-x,-y,-z
x,y,-z
-x,y,z
x,-y,z
1/2+x,1/2+y,z
1/2-x,1/2-y,z
1/2+x,1/2-y,-z
1/2-x,1/2+y,-z
1/2-x,1/2-y,-z
1/2+x,1/2+y,-z
1/2-x,1/2+y,z
1/2+x,1/2-y,z
loop_
_atom_site_type_symbol
_atom_site_label
_atom_site_fract_x
_atom_site_fract_y
_atom_site_fract_z
Si Si1 0.549985 0.677649 0.872464
Si Si2 0.500000 0.823210 0.567559
Si Si3 0.076405 0.334769 0.345776
Si Si4 0.203804 0.829085 0.500000
Si Si5 0.204277 0.675875 0.737355
Si Si6 0.612396 0.676570 0.765928
Si Si7 0.052652 0.162121 0.000000
Si Si8 0.325935 0.161980 0.608910
O O1 0.500000 0.734294 0.855945
O O2 0.549129 0.500000 0.876299
O O3 0.585633 0.730823 0.823980
O O4 0.565342 0.743313 0.937496
O O5 0.500000 0.756283 0.500000
O O6 0.457499 0.767233 0.605532
O O7 0.500000 0.000000 0.562188
O O8 0.060710 0.500000 0.324482
O O9 0.081980 0.226361 0.289664
O O10 0.122686 0.351884 0.378153
O O11 0.250000 0.750000 0.500000
O O12 0.177692 0.785965 0.440954
O O13 0.212314 0.000000 0.500000
O O14 0.204465 0.500000 0.750317
O O15 0.250000 0.750000 0.761647
O O16 0.160951 0.746990 0.768691
O O17 0.201354 0.710350 0.667216
O O18 0.618832 0.500000 0.763092
O O19 0.000000 0.141168 0.000000
O O20 0.075858 0.000000 0.000000
O O21 0.308373 0.000000 0.586866
#
# Coordination Sequence:
#
# PCOD8267624 Si02
#       8
#    16   8  16   8  16  16   8  16
#     4   8  14  24  41  68 102 139 172 203 238 278
#     4   9  18  32  53  73  87 116 165 210 246 287
#     4   9  19  34  51  70  92 121 160 202 243 286
#     4  12  24  34  48  69  90 111 139 176 227 290
#     4  10  20  35  54  73  95 123 158 198 243 291
#     4  10  19  30  48  74 104 133 162 197 245 293
#     4   7  10  20  38  62  96 135 174 207 234 271
#     4   9  19  34  51  68  89 116 146 186 232 282
#
# _framework density 17.122169
#
# number of rings (size 3 to 8) (size 9 to 14) (size 15 to 20)
#    0.000    2.769    0.000    3.923    2.154    4.308 
#    0.000    0.000    0.000    0.462    0.000    2.692 
#    0.000    7.385    0.000    0.000    0.000    0.000 
#
# Total GULP energy -644300.106760 kJ/mol
# GULP energy per Si atom -12390.386668 kJ/mol
# Density = 1.708320 g / cm^3
# Si number density = 17.122169 Si / 1000 Ang^3
#
#
#
# Elastic Constant Matrix: (Units=GPa)
#
#
# Indices 1 2 3 4 5 6 
#
# 1 98.5494 31.7815 66.3591 0.0000 0.0000 0.0000
# 2 31.7815 71.2914 42.4365 0.0000 0.0000 0.0000
# 3 66.3591 42.4365 127.1536 0.0000 0.0000 0.0000
# 4 0.0000 0.0000 0.0000 10.0357 0.0000 0.0000
# 5 0.0000 0.0000 0.0000 0.0000 15.2758 0.0000
# 6 0.0000 0.0000 0.0000 0.0000 0.0000 19.1278
#
#
#
# Elastic Compliance Matrix: (Units=1/GPa)
#
#
# Indices 1 2 3 4 5 6 
#
# 1 0.016053 -0.002707 -0.007474 0.000000 0.000000 0.000000
# 2 -0.002707 0.017961 -0.004581 0.000000 0.000000 0.000000
# 3 -0.007474 -0.004581 0.013294 0.000000 0.000000 0.000000
# 4 0.000000 0.000000 0.000000 0.099644 0.000000 0.000000
# 5 0.000000 0.000000 0.000000 0.000000 0.065463 0.000000
# 6 0.000000 0.000000 0.000000 0.000000 0.000000 0.052280
#
#
# Mechanical properties :
#
#
# Convention : Reuss Voigt Hill
#
# Bulk Modulus (GPa) = 56.23592 64.23874 60.23733
# Shear Modulus (GPa) = 16.65838 19.31568 17.98703
#
# Velocity S-wave (km/s) = 3.12254 3.36238 3.24467
# Velocity P-wave (km/s) = 6.77610 7.25765 7.02100
#
# Compressibility (1/GPa) = 0.01778223
#
# Stress axis : x y z
#
# Youngs Moduli (GPa) = 62.29295 55.67629 75.22064
#
# Poissons Ratio (x) = 0.15074 0.56222
# Poissons Ratio (y) = 0.16865 0.34462
# Poissons Ratio (z) = 0.46560 0.25508
#
# Static dielectric constant tensor:
#      x y z
#    x 3.199650 0.000000 0.000000 
#    y 0.000000 1.514960 0.000000 
#    z 0.000000 0.000000 3.364050 
# 
# 
# High freq. dielectric constant tensor:
#      x y z
#    x 1.655140 0.000000 0.000000 
#    y 0.000000 1.636150 0.000000 
#    z 0.000000 0.000000 1.649110 
# 
# From -- ./inp_files/72211.got.cif
#   From: 2010.03.12/outbox.cif.g09.slc.cpg/sg65_37_cif.got.tgz:72211.got - 2010.04.10 20:52:16.
