data_PCOD8267595
_publ_section_title
;
Structure prediction by ZEFSAII (Michael W. Deem and Ramdas Pophale) SiO2 
 PCOD8267595
Probable space group: C M M M
;
_chemical_formula_sum "Si O2"
_cell_formula_units_Z 104
_cell_length_a 28.786301
_cell_length_b 9.105950
_cell_length_c 21.757091
_cell_angle_alpha 90.000000
_cell_angle_beta 90.000000
_cell_angle_gamma 90.000000
_cell_volume 5703.112672
_symmetry_space_group_name_H-M "C M M M"
_symmetry_group_IT_number 65
_symmetry_cell_setting 'orthorhombic'
loop_
_space_group_symop_operation_xyz
x,y,z
-x,-y,z
x,-y,-z
-x,y,-z
-x,-y,-z
x,y,-z
-x,y,z
x,-y,z
1/2+x,1/2+y,z
1/2-x,1/2-y,z
1/2+x,1/2-y,-z
1/2-x,1/2+y,-z
1/2-x,1/2-y,-z
1/2+x,1/2+y,-z
1/2-x,1/2+y,z
1/2+x,1/2-y,z
loop_
_atom_site_type_symbol
_atom_site_label
_atom_site_fract_x
_atom_site_fract_y
_atom_site_fract_z
Si Si1 0.702855 0.670576 0.332147
Si Si2 0.201707 0.172189 0.809759
Si Si3 0.614001 0.162273 0.838766
Si Si4 0.554758 0.000000 0.927766
Si Si5 0.550912 0.164699 0.620215
Si Si6 0.854313 0.332231 0.567946
Si Si7 0.053385 0.833185 0.257287
O O1 0.710139 0.500000 0.343488
O O2 0.750000 0.750000 0.350087
O O3 0.688837 0.702710 0.261606
O O4 0.664098 0.729057 0.378245
O O5 0.250000 0.250000 0.827390
O O6 0.160340 0.241283 0.851129
O O7 0.206281 0.000000 0.823930
O O8 0.583742 0.235304 0.786687
O O9 0.629886 0.000000 0.816146
O O10 0.580971 0.144126 0.899385
O O11 0.500000 0.000000 0.910527
O O12 0.562111 0.000000 0.000000
O O13 0.500000 0.194028 0.590867
O O14 0.589760 0.182567 0.567969
O O15 0.560744 0.280461 0.673661
O O16 0.552901 0.000000 0.648448
O O17 0.837057 0.283017 0.500000
O O18 0.838961 0.500000 0.580646
O O19 0.000000 0.819452 0.237037
O O20 0.071222 0.000000 0.252833
#
# Coordination Sequence:
#
# PCOD8267595 Si02
#       7
#    16  16  16   8  16  16  16
#     4  10  21  36  55  77 103 135 169 214 272 331
#     4  10  20  35  56  86 120 147 180 227 284 340
#     4  10  20  31  55  83 110 149 186 227 270 323
#     4   9  20  38  60  86 118 156 199 239 270 312
#     4   9  18  32  50  71  98 133 171 217 271 330
#     4  10  21  35  50  69  95 131 176 224 268 320
#     4  10  19  30  47  75 110 139 171 220 281 341
#
# _framework density 18.235655999999999
#
# number of rings (size 3 to 8) (size 9 to 14) (size 15 to 20)
#    0.462    1.769    0.000    3.231    0.000    6.462 
#    0.000    1.538    0.000    2.308    0.000    8.615 
#    0.000    0.000    0.000    0.000    0.000    0.000 
#
# Total GULP energy -644546.853752 kJ/mol
# GULP energy per Si atom -12395.131803 kJ/mol
# Density = 1.819415 g / cm^3
# Si number density = 18.235656 Si / 1000 Ang^3
#
#
#
# Elastic Constant Matrix: (Units=GPa)
#
#
# Indices 1 2 3 4 5 6 
#
# 1 110.1150 49.5134 46.8726 0.0000 0.0000 0.0000
# 2 49.5134 101.5529 24.6971 0.0000 0.0000 0.0000
# 3 46.8726 24.6971 44.8335 0.0000 0.0000 0.0000
# 4 0.0000 0.0000 0.0000 4.2632 0.0000 0.0000
# 5 0.0000 0.0000 0.0000 0.0000 21.5196 0.0000
# 6 0.0000 0.0000 0.0000 0.0000 0.0000 32.8778
#
#
#
# Elastic Compliance Matrix: (Units=1/GPa)
#
#
# Indices 1 2 3 4 5 6 
#
# 1 0.018272 -0.004923 -0.016392 0.000000 0.000000 0.000000
# 2 -0.004923 0.012696 -0.001848 0.000000 0.000000 0.000000
# 3 -0.016392 -0.001848 0.040460 0.000000 0.000000 0.000000
# 4 0.000000 0.000000 0.000000 0.234563 0.000000 0.000000
# 5 0.000000 0.000000 0.000000 0.000000 0.046469 0.000000
# 6 0.000000 0.000000 0.000000 0.000000 0.000000 0.030416
#
#
# Mechanical properties :
#
#
# Convention : Reuss Voigt Hill
#
# Bulk Modulus (GPa) = 39.83294 55.40751 47.62022
# Shear Modulus (GPa) = 11.42678 20.76003 16.09341
#
# Velocity S-wave (km/s) = 2.50595 3.37772 2.97395
# Velocity P-wave (km/s) = 5.50126 6.75738 6.16141
#
# Compressibility (1/GPa) = 0.02510485
#
# Stress axis : x y z
#
# Youngs Moduli (GPa) = 54.72767 78.76223 24.71591
#
# Poissons Ratio (x) = 0.38771 0.40514
# Poissons Ratio (y) = 0.26940 0.04566
# Poissons Ratio (z) = 0.89708 0.14552
#
# Static dielectric constant tensor:
#      x y z
#    x 3.562410 0.000000 0.000000 
#    y 0.000000 3.437580 0.000000 
#    z 0.000000 0.000000 2.962580 
# 
# 
# High freq. dielectric constant tensor:
#      x y z
#    x 1.722840 0.000000 0.000000 
#    y 0.000000 1.708660 0.000000 
#    z 0.000000 0.000000 1.662020 
# 
# From -- ./inp_files/71797.got.cif
#   From: 2010.03.12/outbox.cif.g09.slc.cpg/sg65_36_cif.got.tgz:71797.got - 2010.04.10 20:52:16.
