data_PCOD8267560
_publ_section_title
;
Structure prediction by ZEFSAII (Michael W. Deem and Ramdas Pophale) SiO2 
 PCOD8267560
Probable space group: C M M M
;
_chemical_formula_sum "Si O2"
_cell_formula_units_Z 80
_cell_length_a 9.574688
_cell_length_b 25.256995
_cell_length_c 20.054300
_cell_angle_alpha 90.000000
_cell_angle_beta 90.000000
_cell_angle_gamma 90.000000
_cell_volume 4849.688191
_symmetry_space_group_name_H-M "C M M M"
_symmetry_group_IT_number 65
_symmetry_cell_setting 'orthorhombic'
loop_
_space_group_symop_operation_xyz
x,y,z
-x,-y,z
x,-y,-z
-x,y,-z
-x,-y,-z
x,y,-z
-x,y,z
x,-y,z
1/2+x,1/2+y,z
1/2-x,1/2-y,z
1/2+x,1/2-y,-z
1/2-x,1/2+y,-z
1/2-x,1/2-y,-z
1/2+x,1/2+y,-z
1/2-x,1/2+y,z
1/2+x,1/2-y,z
loop_
_atom_site_type_symbol
_atom_site_label
_atom_site_fract_x
_atom_site_fract_y
_atom_site_fract_z
Si Si1 0.336834 0.914200 0.321426
Si Si2 0.157476 0.059328 0.196568
Si Si3 0.839051 0.356585 0.137352
Si Si4 0.659251 0.199120 0.000000
Si Si5 0.664010 0.000000 0.426609
Si Si6 0.659926 0.199437 0.725735
O O1 0.500000 0.924187 0.304213
O O2 0.242055 0.939739 0.265060
O O3 0.293150 0.945455 0.388684
O O4 0.308992 0.850636 0.323596
O O5 0.237963 0.093276 0.141419
O O6 0.000000 0.081095 0.207741
O O7 0.152213 0.000000 0.169039
O O8 0.803989 0.316385 0.197907
O O9 0.000000 0.374636 0.143029
O O10 0.803837 0.332805 0.066072
O O11 0.750000 0.250000 0.000000
O O12 0.500000 0.217124 0.000000
O O13 0.500000 0.000000 0.435322
O O14 0.735367 0.000000 0.500000
O O15 0.500000 0.216923 0.719662
O O16 0.750000 0.250000 0.703431
#
# Coordination Sequence:
#
# PCOD8267560 Si02
#       6
#    16  16  16   8   8  16
#     4   9  17  30  49  72  98 127 159 196 240 285
#     4  10  19  30  47  71  96 122 157 197 240 289
#     4   9  19  33  48  68  93 123 161 199 240 290
#     4  10  20  34  51  70  93 123 160 201 245 298
#     4   9  16  28  51  79 101 124 159 200 237 277
#     4   9  17  28  44  68  94 122 157 196 237 280
#
# _framework density 16.495905
#
# number of rings (size 3 to 8) (size 9 to 14) (size 15 to 20)
#    0.000    2.700    1.000    2.400    0.000    5.200 
#    0.000    0.500    0.000    4.800    0.000    0.000 
#    0.000    0.000    0.000    0.000    0.000    0.400 
#
# Total GULP energy -495753.121519 kJ/mol
# GULP energy per Si atom -12393.828038 kJ/mol
# Density = 1.645836 g / cm^3
# Si number density = 16.495905 Si / 1000 Ang^3
#
#
#
# Elastic Constant Matrix: (Units=GPa)
#
#
# Indices 1 2 3 4 5 6 
#
# 1 81.0733 62.8324 38.7815 0.0000 0.0000 0.0000
# 2 62.8324 129.1131 63.2974 0.0000 0.0000 0.0000
# 3 38.7815 63.2974 113.4434 0.0000 0.0000 0.0000
# 4 0.0000 0.0000 0.0000 12.4618 0.0000 0.0000
# 5 0.0000 0.0000 0.0000 0.0000 9.3047 0.0000
# 6 0.0000 0.0000 0.0000 0.0000 0.0000 32.0296
#
#
#
# Elastic Compliance Matrix: (Units=1/GPa)
#
#
# Indices 1 2 3 4 5 6 
#
# 1 0.020111 -0.008832 -0.001947 0.000000 0.000000 0.000000
# 2 -0.008832 0.014541 -0.005094 0.000000 0.000000 0.000000
# 3 -0.001947 -0.005094 0.012323 0.000000 0.000000 0.000000
# 4 0.000000 0.000000 0.000000 0.080245 0.000000 0.000000
# 5 0.000000 0.000000 0.000000 0.000000 0.107472 0.000000
# 6 0.000000 0.000000 0.000000 0.000000 0.000000 0.031221
#
#
# Mechanical properties :
#
#
# Convention : Reuss Voigt Hill
#
# Bulk Modulus (GPa) = 65.66795 72.60582 69.13689
# Shear Modulus (GPa) = 16.51608 21.34046 18.92827
#
# Velocity S-wave (km/s) = 3.16764 3.60068 3.39108
# Velocity P-wave (km/s) = 7.29888 7.83559 7.57200
#
# Compressibility (1/GPa) = 0.01522813
#
# Stress axis : x y z
#
# Youngs Moduli (GPa) = 49.72390 68.77288 81.15150
#
# Poissons Ratio (x) = 0.60744 0.15799
# Poissons Ratio (y) = 0.43919 0.41336
# Poissons Ratio (z) = 0.09681 0.35031
#
# Static dielectric constant tensor:
#      x y z
#    x 3.151980 0.000000 0.000000 
#    y 0.000000 3.114920 0.000000 
#    z 0.000000 0.000000 3.116740 
# 
# 
# High freq. dielectric constant tensor:
#      x y z
#    x 1.632150 0.000000 0.000000 
#    y 0.000000 1.637150 0.000000 
#    z 0.000000 0.000000 1.606660 
# 
# From -- ./inp_files/60068.got.cif
#   From: 2010.03.12/outbox.cif.g09.slc.cpg/sg65_31_cif.got.tgz:60068.got - 2010.04.10 20:52:16.
