data_PCOD8267685
_publ_section_title
;
Structure prediction by ZEFSAII (Michael W. Deem and Ramdas Pophale) SiO2 
 PCOD8267685
Probable space group: C M M M
;
_chemical_formula_sum "Si O2"
_cell_formula_units_Z 72
_cell_length_a 27.192081
_cell_length_b 10.088089
_cell_length_c 17.536898
_cell_angle_alpha 90.000000
_cell_angle_beta 90.000000
_cell_angle_gamma 90.000000
_cell_volume 4810.654048
_symmetry_space_group_name_H-M "C M M M"
_symmetry_group_IT_number 65
_symmetry_cell_setting 'orthorhombic'
loop_
_space_group_symop_operation_xyz
x,y,z
-x,-y,z
x,-y,-z
-x,y,-z
-x,-y,-z
x,y,-z
-x,y,z
x,-y,z
1/2+x,1/2+y,z
1/2-x,1/2-y,z
1/2+x,1/2-y,-z
1/2-x,1/2+y,-z
1/2-x,1/2-y,-z
1/2+x,1/2+y,-z
1/2-x,1/2+y,z
1/2+x,1/2-y,z
loop_
_atom_site_type_symbol
_atom_site_label
_atom_site_fract_x
_atom_site_fract_y
_atom_site_fract_z
Si Si1 0.709398 0.500000 0.090136
Si Si2 0.441196 0.850753 0.336191
Si Si3 0.681094 0.000000 0.909627
Si Si4 0.553538 0.843511 0.500000
Si Si5 0.943128 0.152048 0.793079
Si Si6 0.863833 0.774094 0.909911
O O1 0.764002 0.500000 0.126446
O O2 0.680238 0.369777 0.116970
O O3 0.714143 0.500000 0.000000
O O4 0.500000 0.847898 0.341308
O O5 0.419426 0.806476 0.419840
O O6 0.422072 0.746272 0.273807
O O7 0.423579 0.000000 0.314586
O O8 0.650931 0.872239 0.882474
O O9 0.686363 0.000000 0.000000
O O10 0.500000 0.773831 0.500000
O O11 0.546042 0.000000 0.500000
O O12 0.914360 0.182854 0.870621
O O13 0.000000 0.183219 0.809904
O O14 0.935602 0.000000 0.767878
O O15 0.872876 0.783569 0.000000
#
# Coordination Sequence:
#
# PCOD8267685 Si02
#       6
#     8  16   8   8  16  16
#     4   9  16  30  49  65  81 104 134 173 224 271
#     4   8  14  25  42  60  79 107 141 175 210 246
#     4   9  18  30  47  67  83  98 130 183 232 269
#     4   7  10  20  39  61  79  99 134 173 208 250
#     4  10  20  31  41  57  85 120 153 179 204 240
#     4  10  19  31  45  63  84 111 146 179 213 252
#
# _framework density 14.96678
#
# number of rings (size 3 to 8) (size 9 to 14) (size 15 to 20)
#    0.000    3.000    1.111    2.000    1.556    3.111 
#    0.000    1.667    0.000    5.333    0.000    0.000 
#    0.000    0.000    0.000    6.000    0.000    0.778 
#
# Total GULP energy -446086.838758 kJ/mol
# GULP energy per Si atom -12391.301077 kJ/mol
# Density = 1.493271 g / cm^3
# Si number density = 14.966780 Si / 1000 Ang^3
#
#
#
# Elastic Constant Matrix: (Units=GPa)
#
#
# Indices 1 2 3 4 5 6 
#
# 1 49.9421 29.9968 30.0852 0.0000 0.0000 0.0000
# 2 29.9968 106.5294 37.9075 0.0000 0.0000 0.0000
# 3 30.0852 37.9075 70.8287 0.0000 0.0000 0.0000
# 4 0.0000 0.0000 0.0000 16.3152 0.0000 0.0000
# 5 0.0000 0.0000 0.0000 0.0000 2.1901 0.0000
# 6 0.0000 0.0000 0.0000 0.0000 0.0000 14.6566
#
#
#
# Elastic Compliance Matrix: (Units=1/GPa)
#
#
# Indices 1 2 3 4 5 6 
#
# 1 0.028633 -0.004613 -0.009693 0.000000 0.000000 0.000000
# 2 -0.004613 0.012339 -0.004644 0.000000 0.000000 0.000000
# 3 -0.009693 -0.004644 0.020721 0.000000 0.000000 0.000000
# 4 0.000000 0.000000 0.000000 0.061293 0.000000 0.000000
# 5 0.000000 0.000000 0.000000 0.000000 0.456602 0.000000
# 6 0.000000 0.000000 0.000000 0.000000 0.000000 0.068229
#
#
# Mechanical properties :
#
#
# Convention : Reuss Voigt Hill
#
# Bulk Modulus (GPa) = 42.03088 47.03101 44.53094
# Shear Modulus (GPa) = 7.20826 15.25308 11.23067
#
# Velocity S-wave (km/s) = 2.19696 3.19584 2.74227
# Velocity P-wave (km/s) = 5.88041 6.71638 6.31225
#
# Compressibility (1/GPa) = 0.02379203
#
# Stress axis : x y z
#
# Youngs Moduli (GPa) = 34.92435 81.04590 48.25941
#
# Poissons Ratio (x) = 0.37390 0.46779
# Poissons Ratio (y) = 0.16112 0.22412
# Poissons Ratio (z) = 0.33853 0.37638
#
# Static dielectric constant tensor:
#      x y z
#    x 2.615330 0.000000 0.000000 
#    y 0.000000 3.061910 0.000000 
#    z 0.000000 0.000000 2.941810 
# 
# 
# High freq. dielectric constant tensor:
#      x y z
#    x 1.531210 0.000000 0.000000 
#    y 0.000000 1.580660 0.000000 
#    z 0.000000 0.000000 1.551380 
# 
# From -- ./inp_files/57216.got.cif
#   From: 2010.03.12/outbox.cif.g09.slc.cpg/sg65_29_cif.got.tgz:57216.got - 2010.04.10 20:52:16.
