data_PCOD8267965
_publ_section_title
;
Structure prediction by ZEFSAII (Michael W. Deem and Ramdas Pophale) SiO2 
 PCOD8267965
Probable space group: C M M M
;
_chemical_formula_sum "Si O2"
_cell_formula_units_Z 88
_cell_length_a 19.566787
_cell_length_b 8.918916
_cell_length_c 28.663638
_cell_angle_alpha 90.000000
_cell_angle_beta 90.000000
_cell_angle_gamma 90.000000
_cell_volume 5002.221303
_symmetry_space_group_name_H-M "C M M M"
_symmetry_group_IT_number 65
_symmetry_cell_setting 'orthorhombic'
loop_
_space_group_symop_operation_xyz
x,y,z
-x,-y,z
x,-y,-z
-x,y,-z
-x,-y,-z
x,y,-z
-x,y,z
x,-y,z
1/2+x,1/2+y,z
1/2-x,1/2-y,z
1/2+x,1/2-y,-z
1/2-x,1/2+y,-z
1/2-x,1/2-y,-z
1/2+x,1/2+y,-z
1/2-x,1/2+y,z
1/2+x,1/2-y,z
loop_
_atom_site_type_symbol
_atom_site_label
_atom_site_fract_x
_atom_site_fract_y
_atom_site_fract_z
Si Si1 0.423812 0.178096 0.448179
Si Si2 0.418813 0.168451 0.000000
Si Si3 0.324573 0.322047 0.177086
Si Si4 0.176994 0.324977 0.629550
Si Si5 0.922080 0.823738 0.093262
Si Si6 0.676818 0.824837 0.268001
O O1 0.398801 0.226052 0.500000
O O2 0.500000 0.241175 0.439217
O O3 0.373388 0.245886 0.409144
O O4 0.425345 0.000000 0.444160
O O5 0.391737 0.249789 0.046422
O O6 0.500000 0.174772 0.000000
O O7 0.390571 0.000000 0.000000
O O8 0.317441 0.500000 0.180189
O O9 0.250000 0.250000 0.169280
O O10 0.374349 0.271376 0.135613
O O11 0.360248 0.258640 0.224747
O O12 0.188275 0.500000 0.620941
O O13 0.250000 0.250000 0.624182
O O14 0.142898 0.298711 0.680996
O O15 0.000000 0.771306 0.103318
O O16 0.919233 0.000000 0.085935
O O17 0.750000 0.750000 0.271410
O O18 0.683119 0.000000 0.256271
#
# Coordination Sequence:
#
# PCOD8267965 Si02
#       6
#    16   8  16  16  16  16
#     4   8  14  26  44  64  87 117 151 184 219 264
#     4   9  17  29  48  73  96 119 149 187 228 265
#     4  10  19  31  49  70  92 120 153 187 223 266
#     4   9  17  28  44  67  90 113 146 186 225 264
#     4   9  18  33  51  69  91 121 154 185 220 266
#     4   9  16  27  43  63  89 119 148 180 221 268
#
# _framework density 17.592184
#
# number of rings (size 3 to 8) (size 9 to 14) (size 15 to 20)
#    0.000    3.000    0.000    3.000    0.000    3.636 
#    0.000    1.364    0.000    1.636    0.000    1.273 
#    0.000    0.000    0.000    0.000    0.000    0.000 
#
# Total GULP energy -545211.674138 kJ/mol
# GULP energy per Si atom -12391.174412 kJ/mol
# Density = 1.755214 g / cm^3
# Si number density = 17.592184 Si / 1000 Ang^3
#
#
#
# Elastic Constant Matrix: (Units=GPa)
#
#
# Indices 1 2 3 4 5 6 
#
# 1 67.6091 25.4559 76.7581 0.0000 0.0000 0.0000
# 2 25.4559 52.6776 50.2141 0.0000 0.0000 0.0000
# 3 76.7581 50.2141 197.5584 0.0000 0.0000 0.0000
# 4 0.0000 0.0000 0.0000 19.1083 0.0000 0.0000
# 5 0.0000 0.0000 0.0000 0.0000 27.4931 0.0000
# 6 0.0000 0.0000 0.0000 0.0000 0.0000 14.9644
#
#
#
# Elastic Compliance Matrix: (Units=1/GPa)
#
#
# Indices 1 2 3 4 5 6 
#
# 1 0.027100 -0.004037 -0.009503 0.000000 0.000000 0.000000
# 2 -0.004037 0.025655 -0.004952 0.000000 0.000000 0.000000
# 3 -0.009503 -0.004952 0.010013 0.000000 0.000000 0.000000
# 4 0.000000 0.000000 0.000000 0.052333 0.000000 0.000000
# 5 0.000000 0.000000 0.000000 0.000000 0.036373 0.000000
# 6 0.000000 0.000000 0.000000 0.000000 0.000000 0.066825
#
#
# Mechanical properties :
#
#
# Convention : Reuss Voigt Hill
#
# Bulk Modulus (GPa) = 38.78550 69.18901 53.98726
# Shear Modulus (GPa) = 18.94813 23.34098 21.14455
#
# Velocity S-wave (km/s) = 3.28544 3.64645 3.47065
# Velocity P-wave (km/s) = 6.04045 7.55934 6.84217
#
# Compressibility (1/GPa) = 0.02578283
#
# Stress axis : x y z
#
# Youngs Moduli (GPa) = 36.90025 38.97891 99.87192
#
# Poissons Ratio (x) = 0.15736 0.94910
# Poissons Ratio (y) = 0.14897 0.49459
# Poissons Ratio (z) = 0.35067 0.19303
#
# Static dielectric constant tensor:
#      x y z
#    x 3.067890 0.000000 0.000000 
#    y 0.000000 3.138360 0.000000 
#    z 0.000000 0.000000 4.019870 
# 
# 
# High freq. dielectric constant tensor:
#      x y z
#    x 1.639330 0.000000 0.000000 
#    y 0.000000 1.666710 0.000000 
#    z 0.000000 0.000000 1.703290 
# 
# From -- ./inp_files/77914.got.cif
#   From: 2010.03.12/outbox.cif.g09.slc.cpg/sg65_39_cif.got.tgz:77914.got - 2010.04.10 20:52:16.
