data_PCOD8267205
_publ_section_title
;
Structure prediction by ZEFSAII (Michael W. Deem and Ramdas Pophale) SiO2 
 PCOD8267205
Probable space group: C M M M
;
_chemical_formula_sum "Si O2"
_cell_formula_units_Z 72
_cell_length_a 13.409666
_cell_length_b 23.107733
_cell_length_c 13.858833
_cell_angle_alpha 90.000000
_cell_angle_beta 90.000000
_cell_angle_gamma 90.000000
_cell_volume 4294.394749
_symmetry_space_group_name_H-M "C M M M"
_symmetry_group_IT_number 65
_symmetry_cell_setting 'orthorhombic'
loop_
_space_group_symop_operation_xyz
x,y,z
-x,-y,z
x,-y,-z
-x,y,-z
-x,-y,-z
x,y,-z
-x,y,z
x,-y,z
1/2+x,1/2+y,z
1/2-x,1/2-y,z
1/2+x,1/2-y,-z
1/2-x,1/2+y,-z
1/2-x,1/2-y,-z
1/2+x,1/2+y,-z
1/2-x,1/2+y,z
1/2+x,1/2-y,z
loop_
_atom_site_type_symbol
_atom_site_label
_atom_site_fract_x
_atom_site_fract_y
_atom_site_fract_z
Si Si1 0.892259 0.229067 0.386220
Si Si2 0.304408 0.068650 0.776361
Si Si3 0.710112 0.155414 0.386796
Si Si4 0.889190 0.931352 0.108551
Si Si5 0.500000 0.068528 0.107901
O O1 0.894503 0.236528 0.500000
O O2 0.822519 0.174970 0.361292
O O3 0.856983 0.291525 0.347663
O O4 0.000000 0.214856 0.341836
O O5 0.314862 0.097366 0.671216
O O6 0.201749 0.091508 0.825483
O O7 0.399424 0.089270 0.838783
O O8 0.303701 0.000000 0.761485
O O9 0.694871 0.142092 0.500000
O O10 0.000000 0.912146 0.146505
O O11 0.883626 0.000000 0.106437
O O12 0.873637 0.907484 0.000000
O O13 0.500000 0.000000 0.102376
O O14 0.500000 0.094843 0.000000
#
# Coordination Sequence:
#
# PCOD8267205 Si02
#       5
#    16  16  16  16   8
#     4   8  15  30  50  66  84 115 157 205 236 252
#     4  10  19  29  44  69 100 128 153 182 225 285
#     4   9  18  30  45  69  96 121 154 191 229 273
#     4   8  14  26  44  64  86 114 151 195 233 261
#     4   9  18  32  47  65  93 127 162 196 224 261
#
# _framework density 16.766041000000001
#
# number of rings (size 3 to 8) (size 9 to 14) (size 15 to 20)
#    0.000    3.222    0.000    2.667    1.556    4.000 
#    0.000    0.000    0.000    2.000    0.000   18.667 
#    0.000    0.000    0.000    0.000    0.000    0.000 
#
# Total GULP energy -446025.322029 kJ/mol
# GULP energy per Si atom -12389.592279 kJ/mol
# Density = 1.672788 g / cm^3
# Si number density = 16.766041 Si / 1000 Ang^3
#
#
#
# Elastic Constant Matrix: (Units=GPa)
#
#
# Indices 1 2 3 4 5 6 
#
# 1 132.9447 22.7094 45.6420 0.0000 0.0000 0.0000
# 2 22.7094 40.6369 36.8957 0.0000 0.0000 0.0000
# 3 45.6420 36.8957 87.9633 0.0000 0.0000 0.0000
# 4 0.0000 0.0000 0.0000 8.3345 0.0000 0.0000
# 5 0.0000 0.0000 0.0000 0.0000 19.8135 0.0000
# 6 0.0000 0.0000 0.0000 0.0000 0.0000 22.5028
#
#
#
# Elastic Compliance Matrix: (Units=1/GPa)
#
#
# Indices 1 2 3 4 5 6 
#
# 1 0.009195 -0.001303 -0.004224 0.000000 0.000000 0.000000
# 2 -0.001303 0.039928 -0.016072 0.000000 0.000000 0.000000
# 3 -0.004224 -0.016072 0.020302 0.000000 0.000000 0.000000
# 4 0.000000 0.000000 0.000000 0.119983 0.000000 0.000000
# 5 0.000000 0.000000 0.000000 0.000000 0.050471 0.000000
# 6 0.000000 0.000000 0.000000 0.000000 0.000000 0.044439
#
#
# Mechanical properties :
#
#
# Convention : Reuss Voigt Hill
#
# Bulk Modulus (GPa) = 38.12915 52.44878 45.28896
# Shear Modulus (GPa) = 14.86956 20.55003 17.70979
#
# Velocity S-wave (km/s) = 2.98129 3.50479 3.25359
# Velocity P-wave (km/s) = 5.88575 6.90860 6.41758
#
# Compressibility (1/GPa) = 0.02622666
#
# Stress axis : x y z
#
# Youngs Moduli (GPa) = 108.75702 25.04486 49.25737
#
# Poissons Ratio (x) = 0.03263 0.20809
# Poissons Ratio (y) = 0.14169 0.79165
# Poissons Ratio (z) = 0.45944 0.40251
#
# Static dielectric constant tensor:
#      x y z
#    x 4.070850 0.000000 0.000000 
#    y 0.000000 2.669240 0.000000 
#    z 0.000000 0.000000 2.925790 
# 
# 
# High freq. dielectric constant tensor:
#      x y z
#    x 1.668150 0.000000 0.000000 
#    y 0.000000 1.600190 0.000000 
#    z 0.000000 0.000000 1.621490 
# 
# From -- ./inp_files/24505.got.cif
#   From: 2010.03.12/outbox.cif.g09.slc.cpg/sg65_13_cif.got.tgz:24505.got - 2010.04.10 20:52:16.
