data_PCOD8267101
_publ_section_title
;
Structure prediction by ZEFSAII (Michael W. Deem and Ramdas Pophale) SiO2 
 PCOD8267101
Probable space group: C M M M
;
_chemical_formula_sum "Si O2"
_cell_formula_units_Z 96
_cell_length_a 18.890520
_cell_length_b 22.327348
_cell_length_c 16.772006
_cell_angle_alpha 90.000000
_cell_angle_beta 90.000000
_cell_angle_gamma 90.000000
_cell_volume 7074.016419
_symmetry_space_group_name_H-M "C M M M"
_symmetry_group_IT_number 65
_symmetry_cell_setting 'orthorhombic'
loop_
_space_group_symop_operation_xyz
x,y,z
-x,-y,z
x,-y,-z
-x,y,-z
-x,-y,-z
x,y,-z
-x,y,z
x,-y,z
1/2+x,1/2+y,z
1/2-x,1/2-y,z
1/2+x,1/2-y,-z
1/2-x,1/2+y,-z
1/2-x,1/2-y,-z
1/2+x,1/2+y,-z
1/2-x,1/2+y,z
1/2+x,1/2-y,z
loop_
_atom_site_type_symbol
_atom_site_label
_atom_site_fract_x
_atom_site_fract_y
_atom_site_fract_z
Si Si1 0.210418 0.070646 0.092693
Si Si2 0.577392 0.929269 0.500000
Si Si3 0.422422 0.645722 0.905557
Si Si4 0.583555 0.929742 0.327040
Si Si5 0.649749 0.889746 0.827559
Si Si6 0.417644 0.000000 0.913172
Si Si7 0.582171 0.779916 0.091727
O O1 0.135996 0.098087 0.122350
O O2 0.268836 0.098541 0.150978
O O3 0.207479 0.000000 0.105023
O O4 0.225715 0.086963 0.000000
O O5 0.500000 0.899568 0.500000
O O6 0.613297 0.911089 0.415600
O O7 0.568142 0.000000 0.500000
O O8 0.500000 0.627189 0.871290
O O9 0.402430 0.712720 0.876939
O O10 0.427669 0.647231 0.000000
O O11 0.500000 0.913790 0.317653
O O12 0.633261 0.892976 0.266560
O O13 0.594265 0.000000 0.310901
O O14 0.602114 0.939976 0.868386
O O15 0.629753 0.823928 0.856445
O O16 0.500000 0.000000 0.925082
O O17 0.379523 0.000000 0.000000
O O18 0.500000 0.796209 0.102459
O O19 0.604869 0.787217 0.000000
#
# Coordination Sequence:
#
# PCOD8267101 Si02
#       7
#    16   8  16  16  16   8  16
#     4  10  19  29  40  56  79 103 129 165 204 237
#     4   7  12  22  36  50  66  93 131 171 200 219
#     4   8  16  31  46  56  68  93 133 176 210 236
#     4   9  15  24  36  51  72 101 136 167 193 223
#     4  12  19  25  36  54  81 108 131 158 191 226
#     4  11  20  26  32  45  72 112 146 161 173 202
#     4   9  17  28  40  54  74 103 138 168 190 219
#
# _framework density 13.570791
#
# number of rings (size 3 to 8) (size 9 to 14) (size 15 to 20)
#    0.000    2.500    1.667    5.000    0.000    2.333 
#    0.000    4.167    0.000    0.000    0.000    0.000 
#    0.000    2.667    0.000    3.083    0.000    9.500 
#
# Total GULP energy -594814.254365 kJ/mol
# GULP energy per Si atom -12391.963633 kJ/mol
# Density = 1.353990 g / cm^3
# Si number density = 13.570791 Si / 1000 Ang^3
#
#
#
# Elastic Constant Matrix: (Units=GPa)
#
#
# Indices 1 2 3 4 5 6 
#
# 1 81.9771 37.5567 36.7285 0.0000 0.0000 0.0000
# 2 37.5567 42.7849 20.7570 0.0000 0.0000 0.0000
# 3 36.7285 20.7570 81.2318 0.0000 0.0000 0.0000
# 4 0.0000 0.0000 0.0000 10.7815 0.0000 0.0000
# 5 0.0000 0.0000 0.0000 0.0000 9.4956 0.0000
# 6 0.0000 0.0000 0.0000 0.0000 0.0000 21.6527
#
#
#
# Elastic Compliance Matrix: (Units=1/GPa)
#
#
# Indices 1 2 3 4 5 6 
#
# 1 0.022626 -0.017007 -0.005885 0.000000 0.000000 0.000000
# 2 -0.017007 0.039463 -0.002394 0.000000 0.000000 0.000000
# 3 -0.005885 -0.002394 0.015583 0.000000 0.000000 0.000000
# 4 0.000000 0.000000 0.000000 0.092752 0.000000 0.000000
# 5 0.000000 0.000000 0.000000 0.000000 0.105311 0.000000
# 6 0.000000 0.000000 0.000000 0.000000 0.000000 0.046184
#
#
# Mechanical properties :
#
#
# Convention : Reuss Voigt Hill
#
# Bulk Modulus (GPa) = 36.89930 44.00869 40.45400
# Shear Modulus (GPa) = 13.10532 15.78272 14.44402
#
# Velocity S-wave (km/s) = 3.11094 3.41397 3.26597
# Velocity P-wave (km/s) = 6.33666 6.93106 6.64051
#
# Compressibility (1/GPa) = 0.02710078
#
# Stress axis : x y z
#
# Youngs Moduli (GPa) = 44.19607 25.34028 64.17222
#
# Poissons Ratio (x) = 0.43095 0.37764
# Poissons Ratio (y) = 0.75162 0.15366
# Poissons Ratio (z) = 0.26008 0.06068
#
# Static dielectric constant tensor:
#      x y z
#    x 2.736460 0.000000 0.000000 
#    y 0.000000 2.666270 0.000000 
#    z 0.000000 0.000000 2.678240 
# 
# 
# High freq. dielectric constant tensor:
#      x y z
#    x 1.502260 0.000000 0.000000 
#    y 0.000000 1.503510 0.000000 
#    z 0.000000 0.000000 1.482960 
# 
# From -- ./inp_files/55016.got.cif
#   From: 2010.03.12/outbox.cif.g09.slc.cpg/sg65_28_cif.got.tgz:55016.got - 2010.04.10 20:52:16.
