data_PCOD8267574
_publ_section_title
;
Structure prediction by ZEFSAII (Michael W. Deem and Ramdas Pophale) SiO2 
 PCOD8267574
Probable space group: C M M M
;
_chemical_formula_sum "Si O2"
_cell_formula_units_Z 72
_cell_length_a 9.837691
_cell_length_b 27.332375
_cell_length_c 16.791957
_cell_angle_alpha 90.000000
_cell_angle_beta 90.000000
_cell_angle_gamma 90.000000
_cell_volume 4515.146659
_symmetry_space_group_name_H-M "C M M M"
_symmetry_group_IT_number 65
_symmetry_cell_setting 'orthorhombic'
loop_
_space_group_symop_operation_xyz
x,y,z
-x,-y,z
x,-y,-z
-x,y,-z
-x,-y,-z
x,y,-z
-x,y,z
x,-y,z
1/2+x,1/2+y,z
1/2-x,1/2-y,z
1/2+x,1/2-y,-z
1/2-x,1/2+y,-z
1/2-x,1/2-y,-z
1/2+x,1/2+y,-z
1/2-x,1/2+y,z
1/2+x,1/2-y,z
loop_
_atom_site_type_symbol
_atom_site_label
_atom_site_fract_x
_atom_site_fract_y
_atom_site_fract_z
Si Si1 0.000000 0.941954 0.587227
Si Si2 0.846463 0.207718 0.091449
Si Si3 0.745522 0.442014 0.691517
Si Si4 0.660535 0.599912 0.142170
Si Si5 0.000000 0.441900 0.409315
Si Si6 0.340707 0.058032 0.000000
O O1 0.127913 0.923048 0.634852
O O2 0.000000 0.918006 0.500000
O O3 0.000000 0.000000 0.579976
O O4 0.750000 0.250000 0.126641
O O5 0.826535 0.158319 0.140826
O O6 0.000000 0.226996 0.098404
O O7 0.808279 0.196057 0.000000
O O8 0.745742 0.500000 0.705185
O O9 0.727073 0.416926 0.775994
O O10 0.875561 0.423311 0.643606
O O11 0.500000 0.584390 0.132835
O O12 0.756018 0.576277 0.075657
O O13 0.000000 0.500000 0.416894
O O14 0.000000 0.420303 0.500000
O O15 0.500000 0.076549 0.000000
O O16 0.341437 0.000000 0.000000
#
# Coordination Sequence:
#
# PCOD8267574 Si02
#       6
#     8  16  16  16   8   8
#     4   9  16  28  46  69  96 127 164 201 242 291
#     4   9  18  34  53  73  95 123 163 209 259 306
#     4  10  19  30  47  72 101 134 168 205 243 286
#     4  11  21  36  53  73 101 133 171 208 253 300
#     4   9  18  32  48  67  98 139 172 203 248 293
#     4  11  25  37  48  69 100 141 180 211 236 283
#
# _framework density 15.946327
#
# number of rings (size 3 to 8) (size 9 to 14) (size 15 to 20)
#    0.000    2.111    2.222    1.667    1.556    5.333 
#    0.000    0.000    0.000    0.000    0.000    0.000 
#    0.000    5.333    0.000    0.000    0.000    0.000 
#
# Total GULP energy -446167.268362 kJ/mol
# GULP energy per Si atom -12393.535232 kJ/mol
# Density = 1.591003 g / cm^3
# Si number density = 15.946327 Si / 1000 Ang^3
#
#
#
# Elastic Constant Matrix: (Units=GPa)
#
#
# Indices 1 2 3 4 5 6 
#
# 1 149.7027 40.4852 81.1930 0.0000 0.0000 0.0000
# 2 40.4852 55.3111 36.2393 0.0000 0.0000 0.0000
# 3 81.1930 36.2393 151.8231 0.0000 0.0000 0.0000
# 4 0.0000 0.0000 0.0000 -21.2876 0.0000 0.0000
# 5 0.0000 0.0000 0.0000 0.0000 2.2118 0.0000
# 6 0.0000 0.0000 0.0000 0.0000 0.0000 24.4122
#
#
#
# Elastic Compliance Matrix: (Units=1/GPa)
#
#
# Indices 1 2 3 4 5 6 
#
# 1 0.010337 -0.004676 -0.004412 0.000000 0.000000 0.000000
# 2 -0.004676 0.023546 -0.003120 0.000000 0.000000 0.000000
# 3 -0.004412 -0.003120 0.009691 0.000000 0.000000 0.000000
# 4 0.000000 0.000000 0.000000 -0.046976 0.000000 0.000000
# 5 0.000000 0.000000 0.000000 0.000000 0.452111 0.000000
# 6 0.000000 0.000000 0.000000 0.000000 0.000000 0.040963
#
#
# Mechanical properties :
#
#
# Convention : Reuss Voigt Hill
#
# Bulk Modulus (GPa) = 52.19514 74.74134 63.46824
# Shear Modulus (GPa) = 9.60662 14.32857 11.96759
#
# Velocity S-wave (km/s) = 2.45712 3.00083 2.74248
# Velocity P-wave (km/s) = 6.39161 7.67978 7.06512
#
# Compressibility (1/GPa) = 0.01915887
#
# Stress axis : x y z
#
# Youngs Moduli (GPa) = 96.73587 42.47002 103.18937
#
# Poissons Ratio (x) = 0.19858 0.45530
# Poissons Ratio (y) = 0.45230 0.32193
# Poissons Ratio (z) = 0.42682 0.13250
#
# Static dielectric constant tensor:
#      x y z
#    x 3.368210 0.000000 0.000000 
#    y 0.000000 2.736160 0.000000 
#    z 0.000000 0.000000 2.839080 
# 
# 
# High freq. dielectric constant tensor:
#      x y z
#    x 1.633540 0.000000 0.000000 
#    y 0.000000 1.568420 0.000000 
#    z 0.000000 0.000000 1.612960 
# 
# From -- ./inp_files/49778.got.cif
#   From: 2010.03.12/outbox.cif.g09.slc.cpg/sg65_25_cif.got.tgz:49778.got - 2010.04.10 20:52:16.
