data_PCOD8267263
_publ_section_title
;
Structure prediction by ZEFSAII (Michael W. Deem and Ramdas Pophale) SiO2 
 PCOD8267263
Probable space group: C M M M
;
_chemical_formula_sum "Si O2"
_cell_formula_units_Z 64
_cell_length_a 9.333900
_cell_length_b 15.358059
_cell_length_c 23.989406
_cell_angle_alpha 90.000000
_cell_angle_beta 90.000000
_cell_angle_gamma 90.000000
_cell_volume 3438.895429
_symmetry_space_group_name_H-M "C M M M"
_symmetry_group_IT_number 65
_symmetry_cell_setting 'orthorhombic'
loop_
_space_group_symop_operation_xyz
x,y,z
-x,-y,z
x,-y,-z
-x,y,-z
-x,-y,-z
x,y,-z
-x,y,z
x,-y,z
1/2+x,1/2+y,z
1/2-x,1/2-y,z
1/2+x,1/2-y,-z
1/2-x,1/2+y,-z
1/2-x,1/2-y,-z
1/2+x,1/2+y,-z
1/2-x,1/2+y,z
1/2+x,1/2-y,z
loop_
_atom_site_type_symbol
_atom_site_label
_atom_site_fract_x
_atom_site_fract_y
_atom_site_fract_z
Si Si1 0.832302 0.000000 0.698096
Si Si2 0.168497 0.500000 0.416909
Si Si3 0.170480 0.838461 0.000000
Si Si4 0.831776 0.167833 0.768477
Si Si5 0.330139 0.405385 0.882292
Si Si6 0.331036 0.154429 0.500000
O O1 0.786958 0.916163 0.733485
O O2 0.749513 0.000000 0.640758
O O3 0.000000 0.000000 0.685157
O O4 0.210034 0.408975 0.448033
O O5 0.000000 0.500000 0.407045
O O6 0.250000 0.750000 0.000000
O O7 0.226881 0.884897 0.055907
O O8 0.000000 0.827412 0.000000
O O9 0.750000 0.250000 0.742338
O O10 0.779122 0.158434 0.832975
O O11 0.000000 0.184407 0.764903
O O12 0.500000 0.405530 0.883662
O O13 0.271490 0.500000 0.866028
O O14 0.500000 0.176015 0.500000
O O15 0.250000 0.250000 0.500000
#
# Coordination Sequence:
#
# PCOD8267263 Si02
#       6
#     8   8   8  16  16   8
#     4  10  21  37  55  77 108 146 185 222 262 312
#     4   9  20  38  58  82 115 149 180 220 266 309
#     4  10  19  29  47  73  97 124 164 213 265 321
#     4  10  20  35  54  75 103 139 178 222 270 319
#     4   9  16  30  51  72  95 128 172 217 261 317
#     4   9  19  37  60  86 116 149 181 217 264 312
#
# _framework density 18.610627000000001
#
# number of rings (size 3 to 8) (size 9 to 14) (size 15 to 20)
#    0.000    2.500    1.250    1.875    0.000    4.500 
#    0.000    6.250    0.000    3.000    0.000    0.000 
#    0.000    0.000    0.000    0.000    0.000    0.000 
#
# Total GULP energy -396428.933515 kJ/mol
# GULP energy per Si atom -12388.404172 kJ/mol
# Density = 1.856827 g / cm^3
# Si number density = 18.610627 Si / 1000 Ang^3
#
#
#
# Elastic Constant Matrix: (Units=GPa)
#
#
# Indices 1 2 3 4 5 6 
#
# 1 28.0957 48.3274 46.4292 0.0000 0.0000 0.0000
# 2 48.3274 168.7286 68.5059 0.0000 0.0000 0.0000
# 3 46.4292 68.5059 148.1465 0.0000 0.0000 0.0000
# 4 0.0000 0.0000 0.0000 -5.8448 0.0000 0.0000
# 5 0.0000 0.0000 0.0000 0.0000 24.5346 0.0000
# 6 0.0000 0.0000 0.0000 0.0000 0.0000 33.9244
#
#
#
# Elastic Compliance Matrix: (Units=1/GPa)
#
#
# Indices 1 2 3 4 5 6 
#
# 1 0.120752 -0.023664 -0.026901 0.000000 0.000000 0.000000
# 2 -0.023664 0.011934 0.001898 0.000000 0.000000 0.000000
# 3 -0.026901 0.001898 0.014303 0.000000 0.000000 0.000000
# 4 0.000000 0.000000 0.000000 -0.171092 0.000000 0.000000
# 5 0.000000 0.000000 0.000000 0.000000 0.040759 0.000000
# 6 0.000000 0.000000 0.000000 0.000000 0.000000 0.029477
#
#
# Mechanical properties :
#
#
# Convention : Reuss Voigt Hill
#
# Bulk Modulus (GPa) = 20.13898 74.61065 47.37482
# Shear Modulus (GPa) = 31.24616 22.63670 26.94143
#
# Velocity S-wave (km/s) = 4.10193 3.49138 3.80891
# Velocity P-wave (km/s) = 5.76881 7.51201 6.69737
#
# Compressibility (1/GPa) = 0.04965494
#
# Stress axis : x y z
#
# Youngs Moduli (GPa) = 8.28145 83.79446 69.91355
#
# Poissons Ratio (x) = 1.98289 1.88076
# Poissons Ratio (y) = 0.19597 -0.13268
# Poissons Ratio (z) = 0.22278 -0.15902
#
# Static dielectric constant tensor:
#      x y z
#    x 3.051540 0.000000 0.000000 
#    y 0.000000 3.556360 0.000000 
#    z 0.000000 0.000000 3.154490 
# 
# 
# High freq. dielectric constant tensor:
#      x y z
#    x 1.685650 0.000000 0.000000 
#    y 0.000000 1.735190 0.000000 
#    z 0.000000 0.000000 1.729770 
# 
# From -- ./inp_files/66886.got.cif
#   From: 2010.03.12/outbox.cif.g09.slc.cpg/sg65_34_cif.got.tgz:66886.got - 2010.04.10 20:52:16.
