data_PCOD8267921
_publ_section_title
;
Structure prediction by ZEFSAII (Michael W. Deem and Ramdas Pophale) SiO2 
 PCOD8267921
Probable space group: C M M M
;
_chemical_formula_sum "Si O2"
_cell_formula_units_Z 88
_cell_length_a 32.901750
_cell_length_b 11.546312
_cell_length_c 12.567266
_cell_angle_alpha 90.000000
_cell_angle_beta 90.000000
_cell_angle_gamma 90.000000
_cell_volume 4774.227327
_symmetry_space_group_name_H-M "C M M M"
_symmetry_group_IT_number 65
_symmetry_cell_setting 'orthorhombic'
loop_
_space_group_symop_operation_xyz
x,y,z
-x,-y,z
x,-y,-z
-x,y,-z
-x,-y,-z
x,y,-z
-x,y,z
x,-y,z
1/2+x,1/2+y,z
1/2-x,1/2-y,z
1/2+x,1/2-y,-z
1/2-x,1/2+y,-z
1/2-x,1/2-y,-z
1/2+x,1/2+y,-z
1/2-x,1/2+y,z
1/2+x,1/2-y,z
loop_
_atom_site_type_symbol
_atom_site_label
_atom_site_fract_x
_atom_site_fract_y
_atom_site_fract_z
Si Si1 0.766820 0.369553 0.311131
Si Si2 0.104133 0.500000 0.876395
Si Si3 0.349024 0.201340 0.232315
Si Si4 0.290566 0.630007 0.118025
Si Si5 0.548073 0.000000 0.313695
Si Si6 0.500000 0.369824 0.626617
Si Si7 0.421357 0.759957 0.379211
O O1 0.755350 0.500000 0.359473
O O2 0.750000 0.250000 0.371198
O O3 0.815560 0.363667 0.305817
O O4 0.749558 0.360979 0.191142
O O5 0.130129 0.612770 0.848212
O O6 0.062372 0.500000 0.809262
O O7 0.092657 0.500000 0.000000
O O8 0.328296 0.299385 0.162888
O O9 0.381428 0.263136 0.309469
O O10 0.306786 0.500000 0.115170
O O11 0.278377 0.672575 0.000000
O O12 0.566625 0.106367 0.377797
O O13 0.500000 0.000000 0.318118
O O14 0.500000 0.500000 0.667756
O O15 0.500000 0.358676 0.500000
O O16 0.459187 0.310457 0.671281
O O17 0.412204 0.720624 0.500000
#
# Coordination Sequence:
#
# PCOD8267921 Si02
#       7
#    16   8  16  16   8   8  16
#     4   9  17  30  46  69 100 136 169 216 259 305
#     4  10  20  30  45  72 104 133 161 201 255 309
#     4  10  19  31  48  72 103 132 166 210 256 306
#     4   9  18  31  49  73  99 133 174 212 251 300
#     4  10  19  33  52  73  99 128 165 203 252 303
#     4   9  18  33  53  77 101 125 160 206 256 308
#     4  10  20  33  52  77 101 129 165 209 259 307
#
# _framework density 18.432303000000001
#
# number of rings (size 3 to 8) (size 9 to 14) (size 15 to 20)
#    0.000    2.455    1.818    0.818    0.000    5.273 
#    0.000    0.000    0.000    4.909    0.000    5.091 
#    0.000    5.818    0.000    0.000    0.000    0.000 
#
# Total GULP energy -545224.843784 kJ/mol
# GULP energy per Si atom -12391.473722 kJ/mol
# Density = 1.839035 g / cm^3
# Si number density = 18.432303 Si / 1000 Ang^3
#
#
#
# Elastic Constant Matrix: (Units=GPa)
#
#
# Indices 1 2 3 4 5 6 
#
# 1 101.5149 23.7611 27.0732 0.0000 0.0000 0.0000
# 2 23.7611 110.5197 6.8214 0.0000 0.0000 0.0000
# 3 27.0732 6.8214 53.9558 0.0000 0.0000 0.0000
# 4 0.0000 0.0000 0.0000 19.3515 0.0000 0.0000
# 5 0.0000 0.0000 0.0000 0.0000 18.7556 0.0000
# 6 0.0000 0.0000 0.0000 0.0000 0.0000 23.5063
#
#
#
# Elastic Compliance Matrix: (Units=1/GPa)
#
#
# Indices 1 2 3 4 5 6 
#
# 1 0.011882 -0.002204 -0.005684 0.000000 0.000000 0.000000
# 2 -0.002204 0.009528 -0.000099 0.000000 0.000000 0.000000
# 3 -0.005684 -0.000099 0.021398 0.000000 0.000000 0.000000
# 4 0.000000 0.000000 0.000000 0.051675 0.000000 0.000000
# 5 0.000000 0.000000 0.000000 0.000000 0.053317 0.000000
# 6 0.000000 0.000000 0.000000 0.000000 0.000000 0.042542
#
#
# Mechanical properties :
#
#
# Convention : Reuss Voigt Hill
#
# Bulk Modulus (GPa) = 37.26326 42.36686 39.81506
# Shear Modulus (GPa) = 23.22763 26.21167 24.71965
#
# Velocity S-wave (km/s) = 3.55372 3.77510 3.66608
# Velocity P-wave (km/s) = 6.09088 6.48358 6.29029
#
# Compressibility (1/GPa) = 0.02683609
#
# Stress axis : x y z
#
# Youngs Moduli (GPa) = 84.15836 104.95303 46.73343
#
# Poissons Ratio (x) = 0.23130 0.26561
# Poissons Ratio (y) = 0.18547 0.00462
# Poissons Ratio (z) = 0.47832 0.01037
#
# Static dielectric constant tensor:
#      x y z
#    x 3.409540 0.000000 0.000000 
#    y 0.000000 3.781520 0.000000 
#    z 0.000000 0.000000 3.030760 
# 
# 
# High freq. dielectric constant tensor:
#      x y z
#    x 1.714340 0.000000 0.000000 
#    y 0.000000 1.731010 0.000000 
#    z 0.000000 0.000000 1.674830 
# 
# From -- ./inp_files/47666.got.cif
#   From: 2010.03.12/outbox.cif.g09.slc.cpg/sg65_24_cif.got.tgz:47666.got - 2010.04.10 20:52:16.
