data_PCOD8267171
_publ_section_title
;
Structure prediction by ZEFSAII (Michael W. Deem and Ramdas Pophale) SiO2 
 PCOD8267171
Probable space group: C M M M
;
_chemical_formula_sum "Si O2"
_cell_formula_units_Z 104
_cell_length_a 29.844027
_cell_length_b 15.666536
_cell_length_c 14.033276
_cell_angle_alpha 90.000000
_cell_angle_beta 90.000000
_cell_angle_gamma 90.000000
_cell_volume 6561.293605
_symmetry_space_group_name_H-M "C M M M"
_symmetry_group_IT_number 65
_symmetry_cell_setting 'orthorhombic'
loop_
_space_group_symop_operation_xyz
x,y,z
-x,-y,z
x,-y,-z
-x,y,-z
-x,-y,-z
x,y,-z
-x,y,z
x,-y,z
1/2+x,1/2+y,z
1/2-x,1/2-y,z
1/2+x,1/2-y,-z
1/2-x,1/2+y,-z
1/2-x,1/2-y,-z
1/2+x,1/2+y,-z
1/2-x,1/2+y,z
1/2+x,1/2-y,z
loop_
_atom_site_type_symbol
_atom_site_label
_atom_site_fract_x
_atom_site_fract_y
_atom_site_fract_z
Si Si1 0.699816 0.599079 0.744276
Si Si2 0.550515 0.000000 0.111277
Si Si3 0.303163 0.092889 0.270548
Si Si4 0.196884 0.752967 0.393816
Si Si5 0.370763 0.121383 0.109973
Si Si6 0.952078 0.904043 0.113301
Si Si7 0.864379 0.179489 0.889794
O O1 0.687667 0.500000 0.723627
O O2 0.752469 0.612806 0.760860
O O3 0.682242 0.659103 0.657926
O O4 0.677108 0.633214 0.840238
O O5 0.580158 0.916160 0.139572
O O6 0.500000 0.000000 0.159097
O O7 0.542136 0.000000 0.000000
O O8 0.321175 0.168607 0.338716
O O9 0.332564 0.081675 0.175824
O O10 0.304631 0.000000 0.323633
O O11 0.176050 0.752924 0.500000
O O12 0.250000 0.750000 0.400200
O O13 0.367013 0.220959 0.127169
O O14 0.361080 0.096892 0.000000
O O15 0.910674 0.853092 0.157051
O O16 0.000000 0.864565 0.146521
O O17 0.948613 0.000000 0.150833
O O18 0.949552 0.901141 0.000000
O O19 0.859857 0.155219 0.000000
#
# Coordination Sequence:
#
# PCOD8267171 Si02
#       7
#    16   8  16  16  16  16  16
#     4  10  20  31  46  69  96 130 162 193 235 281
#     4   9  18  32  48  68  95 127 167 209 247 287
#     4  10  19  32  49  68  94 125 161 197 233 288
#     4   9  18  33  50  68  92 120 155 201 246 286
#     4  10  19  30  46  66  92 130 162 194 237 277
#     4   8  14  25  40  57  81 115 150 185 225 264
#     4  10  19  29  43  65  95 127 161 196 230 274
#
# _framework density 15.850533
#
# number of rings (size 3 to 8) (size 9 to 14) (size 15 to 20)
#    0.000    2.538    2.308    0.923    0.000    2.769 
#    0.000    9.231    0.000    0.000    0.000    0.000 
#    0.000    3.077    0.000    3.231    0.000    0.308 
#
# Total GULP energy -644261.632377 kJ/mol
# GULP energy per Si atom -12389.646776 kJ/mol
# Density = 1.581446 g / cm^3
# Si number density = 15.850533 Si / 1000 Ang^3
#
#
#
# Elastic Constant Matrix: (Units=GPa)
#
#
# Indices 1 2 3 4 5 6 
#
# 1 79.2924 41.4249 37.0677 0.0000 0.0000 0.0000
# 2 41.4249 121.3253 45.1874 0.0000 0.0000 0.0000
# 3 37.0677 45.1874 66.9316 0.0000 0.0000 0.0000
# 4 0.0000 0.0000 0.0000 12.0828 0.0000 0.0000
# 5 0.0000 0.0000 0.0000 0.0000 2.7727 0.0000
# 6 0.0000 0.0000 0.0000 0.0000 0.0000 21.7854
#
#
#
# Elastic Compliance Matrix: (Units=1/GPa)
#
#
# Indices 1 2 3 4 5 6 
#
# 1 0.017920 -0.003236 -0.007740 0.000000 0.000000 0.000000
# 2 -0.003236 0.011595 -0.006036 0.000000 0.000000 0.000000
# 3 -0.007740 -0.006036 0.023302 0.000000 0.000000 0.000000
# 4 0.000000 0.000000 0.000000 0.082762 0.000000 0.000000
# 5 0.000000 0.000000 0.000000 0.000000 0.360665 0.000000
# 6 0.000000 0.000000 0.000000 0.000000 0.000000 0.045902
#
#
# Mechanical properties :
#
#
# Convention : Reuss Voigt Hill
#
# Bulk Modulus (GPa) = 53.20872 57.21213 55.21043
# Shear Modulus (GPa) = 8.58463 16.91946 12.75205
#
# Velocity S-wave (km/s) = 2.32975 3.27071 2.83948
# Velocity P-wave (km/s) = 6.39366 7.10187 6.75705
#
# Compressibility (1/GPa) = 0.01879391
#
# Stress axis : x y z
#
# Youngs Moduli (GPa) = 55.80247 86.24138 42.91423
#
# Poissons Ratio (x) = 0.27907 0.33215
# Poissons Ratio (y) = 0.18057 0.25904
# Poissons Ratio (z) = 0.43190 0.52057
#
# Static dielectric constant tensor:
#      x y z
#    x 3.168920 0.000000 0.000000 
#    y 0.000000 3.329830 0.000000 
#    z 0.000000 0.000000 2.809390 
# 
# 
# High freq. dielectric constant tensor:
#      x y z
#    x 1.593470 0.000000 0.000000 
#    y 0.000000 1.629040 0.000000 
#    z 0.000000 0.000000 1.563670 
# 
# From -- ./inp_files/34151.got.cif
#   From: 2010.03.12/outbox.cif.g09.slc.cpg/sg65_18_cif.got.tgz:34151.got - 2010.04.10 20:52:16.
