data_PCOD8267713
_publ_section_title
;
Structure prediction by ZEFSAII (Michael W. Deem and Ramdas Pophale) SiO2 
 PCOD8267713
Probable space group: C M M M
;
_chemical_formula_sum "Si O2"
_cell_formula_units_Z 104
_cell_length_a 8.754983
_cell_length_b 27.091150
_cell_length_c 27.134629
_cell_angle_alpha 90.000000
_cell_angle_beta 90.000000
_cell_angle_gamma 90.000000
_cell_volume 6435.860708
_symmetry_space_group_name_H-M "C M M M"
_symmetry_group_IT_number 65
_symmetry_cell_setting 'orthorhombic'
loop_
_space_group_symop_operation_xyz
x,y,z
-x,-y,z
x,-y,-z
-x,y,-z
-x,-y,-z
x,y,-z
-x,y,z
x,-y,z
1/2+x,1/2+y,z
1/2-x,1/2-y,z
1/2+x,1/2-y,-z
1/2-x,1/2+y,-z
1/2-x,1/2-y,-z
1/2+x,1/2+y,-z
1/2-x,1/2+y,z
1/2+x,1/2-y,z
loop_
_atom_site_type_symbol
_atom_site_label
_atom_site_fract_x
_atom_site_fract_y
_atom_site_fract_z
Si Si1 0.817254 0.444258 0.157351
Si Si2 0.180569 0.695603 0.500000
Si Si3 0.671584 0.941301 0.947813
Si Si4 0.320880 0.101743 0.256303
Si Si5 0.680496 0.800364 0.309916
Si Si6 0.322188 0.554940 0.348267
Si Si7 0.819428 0.848371 0.596634
O O1 0.760313 0.500000 0.167171
O O2 0.752196 0.423691 0.104214
O O3 0.754536 0.410312 0.201950
O O4 0.000000 0.443218 0.154607
O O5 0.250000 0.750000 0.500000
O O6 0.233959 0.664503 0.453236
O O7 0.000000 0.700842 0.500000
O O8 0.500000 0.920513 0.950269
O O9 0.666990 0.000000 0.944893
O O10 0.754239 0.925100 0.000000
O O11 0.500000 0.093924 0.256075
O O12 0.276408 0.157555 0.270427
O O13 0.257877 0.063463 0.296136
O O14 0.500000 0.796548 0.318483
O O15 0.750000 0.750000 0.288327
O O16 0.762826 0.810917 0.361593
O O17 0.500000 0.560663 0.338138
O O18 0.280528 0.500000 0.367780
O O19 0.271714 0.595590 0.388659
O O20 0.000000 0.842348 0.589371
#
# Coordination Sequence:
#
# PCOD8267713 Si02
#       7
#    16   8  16  16  16  16  16
#     4   8  12  18  30  50  77 107 136 166 202 243
#     4  12  24  38  55  74  95 115 140 175 215 254
#     4   7   9  13  22  39  67 103 136 162 194 240
#     4   9  17  27  41  62  85 110 141 176 211 250
#     4  10  19  31  46  64  86 111 139 171 211 255
#     4   9  18  32  49  68  91 119 147 173 202 240
#     4  10  20  35  53  72  93 116 143 172 204 244
#
# _framework density 16.159455000000001
#
# number of rings (size 3 to 8) (size 9 to 14) (size 15 to 20)
#    0.000    2.923    0.000    3.923    0.000    2.154 
#    0.000    0.385    0.000    2.308    0.000    0.000 
#    0.000    1.231    0.000    6.154    0.000    5.538 
#
# Total GULP energy -644234.058931 kJ/mol
# GULP energy per Si atom -12389.116518 kJ/mol
# Density = 1.612268 g / cm^3
# Si number density = 16.159455 Si / 1000 Ang^3
#
#
#
# Elastic Constant Matrix: (Units=GPa)
#
#
# Indices 1 2 3 4 5 6 
#
# 1 40.2772 23.7328 31.9222 0.0000 0.0000 0.0000
# 2 23.7328 93.7994 61.3823 0.0000 0.0000 0.0000
# 3 31.9222 61.3823 166.7621 0.0000 0.0000 0.0000
# 4 0.0000 0.0000 0.0000 19.4048 0.0000 0.0000
# 5 0.0000 0.0000 0.0000 0.0000 5.1305 0.0000
# 6 0.0000 0.0000 0.0000 0.0000 0.0000 16.5800
#
#
#
# Elastic Compliance Matrix: (Units=1/GPa)
#
#
# Indices 1 2 3 4 5 6 
#
# 1 0.031104 -0.005234 -0.004027 0.000000 0.000000 0.000000
# 2 -0.005234 0.014925 -0.004492 0.000000 0.000000 0.000000
# 3 -0.004027 -0.004492 0.008421 0.000000 0.000000 0.000000
# 4 0.000000 0.000000 0.000000 0.051534 0.000000 0.000000
# 5 0.000000 0.000000 0.000000 0.000000 0.194914 0.000000
# 6 0.000000 0.000000 0.000000 0.000000 0.000000 0.060314
#
#
# Mechanical properties :
#
#
# Convention : Reuss Voigt Hill
#
# Bulk Modulus (GPa) = 37.11532 59.43479 48.27505
# Shear Modulus (GPa) = 12.57234 20.47649 16.52441
#
# Velocity S-wave (km/s) = 2.79232 3.56357 3.20126
# Velocity P-wave (km/s) = 5.78049 7.33431 6.60326
#
# Compressibility (1/GPa) = 0.02694305
#
# Stress axis : x y z
#
# Youngs Moduli (GPa) = 32.15007 67.00314 118.75405
#
# Poissons Ratio (x) = 0.35072 0.47827
# Poissons Ratio (y) = 0.16828 0.53339
# Poissons Ratio (z) = 0.12948 0.30095
#
# Static dielectric constant tensor:
#      x y z
#    x 2.841420 0.000000 0.000000 
#    y 0.000000 3.061910 0.000000 
#    z 0.000000 0.000000 3.577670 
# 
# 
# High freq. dielectric constant tensor:
#      x y z
#    x 1.597270 0.000000 0.000000 
#    y 0.000000 1.594980 0.000000 
#    z 0.000000 0.000000 1.627190 
# 
# From -- ./inp_files/73731.got.cif
#   From: 2010.03.12/outbox.cif.g09.slc.cpg/sg65_37_cif.got.tgz:73731.got - 2010.04.10 20:52:16.
