data_PCOD8267074
_publ_section_title
;
Structure prediction by ZEFSAII (Michael W. Deem and Ramdas Pophale) SiO2 
 PCOD8267074
Probable space group: C M M M
;
_chemical_formula_sum "Si O2"
_cell_formula_units_Z 104
_cell_length_a 9.053451
_cell_length_b 23.287386
_cell_length_c 27.762376
_cell_angle_alpha 90.000000
_cell_angle_beta 90.000000
_cell_angle_gamma 90.000000
_cell_volume 5853.175271
_symmetry_space_group_name_H-M "C M M M"
_symmetry_group_IT_number 65
_symmetry_cell_setting 'orthorhombic'
loop_
_space_group_symop_operation_xyz
x,y,z
-x,-y,z
x,-y,-z
-x,y,-z
-x,-y,-z
x,y,-z
-x,y,z
x,-y,z
1/2+x,1/2+y,z
1/2-x,1/2-y,z
1/2+x,1/2-y,-z
1/2-x,1/2+y,-z
1/2-x,1/2-y,-z
1/2+x,1/2+y,-z
1/2-x,1/2+y,z
1/2+x,1/2-y,z
loop_
_atom_site_type_symbol
_atom_site_label
_atom_site_fract_x
_atom_site_fract_y
_atom_site_fract_z
Si Si1 0.173698 0.896088 0.738847
Si Si2 0.173675 0.500000 0.208840
Si Si3 0.666658 0.500000 0.887816
Si Si4 0.169946 0.190429 0.819322
Si Si5 0.665474 0.568092 0.447135
Si Si6 0.672060 0.067523 0.353100
Si Si7 0.831232 0.874486 0.084584
Si Si8 0.325655 0.188700 0.000000
O O1 0.207364 0.836993 0.767232
O O2 0.238140 0.893852 0.684958
O O3 0.000000 0.909341 0.737393
O O4 0.257276 0.944825 0.767287
O O5 0.209186 0.500000 0.152733
O O6 0.000000 0.500000 0.217965
O O7 0.500000 0.500000 0.865184
O O8 0.688039 0.443200 0.919993
O O9 0.250000 0.250000 0.826735
O O10 0.213029 0.145846 0.861648
O O11 0.000000 0.205457 0.822770
O O12 0.716405 0.590998 0.500000
O O13 0.500000 0.590353 0.435635
O O14 0.665054 0.500000 0.448251
O O15 0.777531 0.589151 0.405896
O O16 0.500000 0.079925 0.347265
O O17 0.707844 0.000000 0.345103
O O18 0.721067 0.845602 0.047344
O O19 0.000000 0.856953 0.072401
O O20 0.250000 0.250000 0.000000
O O21 0.500000 0.196912 0.000000
#
# Coordination Sequence:
#
# PCOD8267074 Si02
#       8
#    16   8   8  16  16  16  16   8
#     4  11  21  35  53  73 102 142 180 215 258 315
#     4  12  22  32  51  81 111 139 173 216 263 306
#     4  10  20  39  63  86 115 145 177 210 255 320
#     4  10  22  38  58  81 105 136 177 217 261 312
#     4   8  14  25  40  58  85 128 176 213 252 308
#     4  10  19  28  41  68 100 130 170 218 267 310
#     4  10  21  40  64  88 112 143 180 217 260 315
#     4  12  26  43  62  85 113 146 184 228 271 314
#
# _framework density 17.768132999999999
#
# number of rings (size 3 to 8) (size 9 to 14) (size 15 to 20)
#    0.000    1.846    2.308    3.231    0.000    4.923 
#    0.000    3.077    0.000    0.000    0.000    0.000 
#    0.000    0.615    0.000    2.000    0.000    2.462 
#
# Total GULP energy -644735.651551 kJ/mol
# GULP energy per Si atom -12398.762530 kJ/mol
# Density = 1.772769 g / cm^3
# Si number density = 17.768133 Si / 1000 Ang^3
#
#
#
# Elastic Constant Matrix: (Units=GPa)
#
#
# Indices 1 2 3 4 5 6 
#
# 1 105.2423 44.3844 59.2244 0.0000 0.0000 0.0000
# 2 44.3844 93.7345 38.6109 0.0000 0.0000 0.0000
# 3 59.2244 38.6109 118.7254 0.0000 0.0000 0.0000
# 4 0.0000 0.0000 0.0000 12.1131 0.0000 0.0000
# 5 0.0000 0.0000 0.0000 0.0000 30.4947 0.0000
# 6 0.0000 0.0000 0.0000 0.0000 0.0000 18.3353
#
#
#
# Elastic Compliance Matrix: (Units=1/GPa)
#
#
# Indices 1 2 3 4 5 6 
#
# 1 0.014722 -0.004557 -0.005862 0.000000 0.000000 0.000000
# 2 -0.004557 0.013729 -0.002192 0.000000 0.000000 0.000000
# 3 -0.005862 -0.002192 0.012060 0.000000 0.000000 0.000000
# 4 0.000000 0.000000 0.000000 0.082555 0.000000 0.000000
# 5 0.000000 0.000000 0.000000 0.000000 0.032793 0.000000
# 6 0.000000 0.000000 0.000000 0.000000 0.000000 0.054540
#
#
# Mechanical properties :
#
#
# Convention : Reuss Voigt Hill
#
# Bulk Modulus (GPa) = 65.40210 66.90463 66.15336
# Shear Modulus (GPa) = 20.77133 23.88745 22.32939
#
# Velocity S-wave (km/s) = 3.42281 3.67058 3.54886
# Velocity P-wave (km/s) = 7.24633 7.46326 7.35560
#
# Compressibility (1/GPa) = 0.01529003
#
# Stress axis : x y z
#
# Youngs Moduli (GPa) = 67.92338 72.83933 82.91938
#
# Poissons Ratio (x) = 0.33189 0.48609
# Poissons Ratio (y) = 0.30949 0.18175
# Poissons Ratio (z) = 0.39818 0.15965
#
# Static dielectric constant tensor:
#      x y z
#    x 3.351780 0.000000 0.000000 
#    y 0.000000 2.981650 0.000000 
#    z 0.000000 0.000000 3.605020 
# 
# 
# High freq. dielectric constant tensor:
#      x y z
#    x 1.690810 0.000000 0.000000 
#    y 0.000000 1.649160 0.000000 
#    z 0.000000 0.000000 1.694310 
# 
# From -- ./inp_files/73669.got.cif
#   From: 2010.03.12/outbox.cif.g09.slc.cpg/sg65_37_cif.got.tgz:73669.got - 2010.04.10 20:52:16.
