data_PCOD8267425
_publ_section_title
;
Structure prediction by ZEFSAII (Michael W. Deem and Ramdas Pophale) SiO2 
 PCOD8267425
Probable space group: C M M M
;
_chemical_formula_sum "Si O2"
_cell_formula_units_Z 104
_cell_length_a 22.229167
_cell_length_b 27.162222
_cell_length_c 9.390394
_cell_angle_alpha 90.000000
_cell_angle_beta 90.000000
_cell_angle_gamma 90.000000
_cell_volume 5669.859507
_symmetry_space_group_name_H-M "C M M M"
_symmetry_group_IT_number 65
_symmetry_cell_setting 'orthorhombic'
loop_
_space_group_symop_operation_xyz
x,y,z
-x,-y,z
x,-y,-z
-x,y,-z
-x,-y,-z
x,y,-z
-x,y,z
x,-y,z
1/2+x,1/2+y,z
1/2-x,1/2-y,z
1/2+x,1/2-y,-z
1/2-x,1/2+y,-z
1/2-x,1/2-y,-z
1/2+x,1/2+y,-z
1/2-x,1/2+y,z
1/2+x,1/2-y,z
loop_
_atom_site_type_symbol
_atom_site_label
_atom_site_fract_x
_atom_site_fract_y
_atom_site_fract_z
Si Si1 0.067555 0.767703 0.169600
Si Si2 0.433563 0.378331 0.168179
Si Si3 0.500000 0.058811 0.840099
Si Si4 0.790903 0.607725 0.164693
Si Si5 0.830886 0.945507 0.833528
Si Si6 0.308339 0.779591 0.831787
Si Si7 0.389644 0.058171 0.340713
O O1 0.076967 0.823237 0.227032
O O2 0.125739 0.737290 0.228945
O O3 0.000000 0.748835 0.219619
O O4 0.068052 0.766290 0.000000
O O5 0.500000 0.396851 0.207564
O O6 0.388012 0.417907 0.236656
O O7 0.423607 0.376135 0.000000
O O8 0.557136 0.079988 0.756171
O O9 0.500000 0.000000 0.844945
O O10 0.500000 0.080501 0.000000
O O11 0.723496 0.591369 0.194867
O O12 0.799469 0.663886 0.211310
O O13 0.828364 0.572440 0.265893
O O14 0.809285 0.599406 0.000000
O O15 0.821944 0.000000 0.764546
O O16 0.840920 0.952890 0.000000
O O17 0.250000 0.750000 0.769619
O O18 0.308811 0.772080 0.000000
O O19 0.393605 0.080325 0.500000
O O20 0.394865 0.000000 0.348507
#
# Coordination Sequence:
#
# PCOD8267425 Si02
#       7
#    16  16   8  16  16  16  16
#     4   8  13  22  35  51  75 107 141 181 229 279
#     4   8  13  21  34  53  79 114 151 184 229 290
#     4   9  17  31  53  77  97 121 157 199 239 281
#     4  10  19  30  45  68  94 124 161 201 245 287
#     4   9  16  24  35  54  83 117 151 190 233 279
#     4   9  16  26  41  61  86 118 156 198 244 291
#     4  10  20  34  51  70  96 130 164 197 238 291
#
# _framework density 18.342606
#
# number of rings (size 3 to 8) (size 9 to 14) (size 15 to 20)
#    0.000    3.000    0.000    3.000    0.000    6.462 
#    1.385    1.538    0.000    0.462    0.000    0.000 
#    0.000    0.615    0.000    3.231    0.000    3.692 
#
# Total GULP energy -644272.826917 kJ/mol
# GULP energy per Si atom -12389.862056 kJ/mol
# Density = 1.830086 g / cm^3
# Si number density = 18.342606 Si / 1000 Ang^3
#
#
#
# Elastic Constant Matrix: (Units=GPa)
#
#
# Indices 1 2 3 4 5 6 
#
# 1 153.3269 63.0360 28.1305 0.0000 0.0000 0.0000
# 2 63.0360 86.2198 10.4505 0.0000 0.0000 0.0000
# 3 28.1305 10.4505 50.6413 0.0000 0.0000 0.0000
# 4 0.0000 0.0000 0.0000 6.7769 0.0000 0.0000
# 5 0.0000 0.0000 0.0000 0.0000 -4.0827 0.0000
# 6 0.0000 0.0000 0.0000 0.0000 0.0000 35.6447
#
#
#
# Elastic Compliance Matrix: (Units=1/GPa)
#
#
# Indices 1 2 3 4 5 6 
#
# 1 0.010128 -0.006895 -0.004203 0.000000 0.000000 0.000000
# 2 -0.006895 0.016590 0.000407 0.000000 0.000000 0.000000
# 3 -0.004203 0.000407 0.021998 0.000000 0.000000 0.000000
# 4 0.000000 0.000000 0.000000 0.147560 0.000000 0.000000
# 5 0.000000 0.000000 0.000000 0.000000 -0.244935 0.000000
# 6 0.000000 0.000000 0.000000 0.000000 0.000000 0.028055
#
#
# Mechanical properties :
#
#
# Convention : Reuss Voigt Hill
#
# Bulk Modulus (GPa) = 36.58666 54.82466 45.70566
# Shear Modulus (GPa) = 505.62819 20.23919 262.93369
#
# Velocity S-wave (km/s) = 16.62096 3.32535 11.98570
# Velocity P-wave (km/s) = 19.70612 6.68566 14.71444
#
# Compressibility (1/GPa) = 0.02733237
#
# Stress axis : x y z
#
# Youngs Moduli (GPa) = 98.73749 60.27700 45.45968
#
# Poissons Ratio (x) = 0.41562 0.19107
# Poissons Ratio (y) = 0.68081 -0.01848
# Poissons Ratio (z) = 0.41499 -0.02451
#
# Static dielectric constant tensor:
#      x y z
#    x 3.787700 0.000000 0.000000 
#    y 0.000000 3.455310 0.000000 
#    z 0.000000 0.000000 2.786890 
# 
# 
# High freq. dielectric constant tensor:
#      x y z
#    x 1.732180 0.000000 0.000000 
#    y 0.000000 1.702520 0.000000 
#    z 0.000000 0.000000 1.631780 
# 
# From -- ./inp_files/14780.got.cif
#   From: 2010.03.12/outbox.cif.g09.slc.cpg/sg65_8_cif.got.tgz:14780.got - 2010.04.10 20:52:16.
