data_PCOD8267185
_publ_section_title
;
Structure prediction by ZEFSAII (Michael W. Deem and Ramdas Pophale) SiO2 
 PCOD8267185
Probable space group: C M M M
;
_chemical_formula_sum "Si O2"
_cell_formula_units_Z 104
_cell_length_a 30.606897
_cell_length_b 8.985849
_cell_length_c 22.376019
_cell_angle_alpha 90.000000
_cell_angle_beta 90.000000
_cell_angle_gamma 90.000000
_cell_volume 6154.053118
_symmetry_space_group_name_H-M "C M M M"
_symmetry_group_IT_number 65
_symmetry_cell_setting 'orthorhombic'
loop_
_space_group_symop_operation_xyz
x,y,z
-x,-y,z
x,-y,-z
-x,y,-z
-x,-y,-z
x,y,-z
-x,y,z
x,-y,z
1/2+x,1/2+y,z
1/2-x,1/2-y,z
1/2+x,1/2-y,-z
1/2-x,1/2+y,-z
1/2-x,1/2-y,-z
1/2+x,1/2+y,-z
1/2-x,1/2+y,z
1/2+x,1/2-y,z
loop_
_atom_site_type_symbol
_atom_site_label
_atom_site_fract_x
_atom_site_fract_y
_atom_site_fract_z
Si Si1 0.051153 0.174448 0.879824
Si Si2 0.448184 0.167742 0.000000
Si Si3 0.881784 0.675286 0.205791
Si Si4 0.206862 0.831497 0.202512
Si Si5 0.379003 0.174428 0.344132
Si Si6 0.048487 0.323174 0.433419
Si Si7 0.707797 0.666726 0.655241
O O1 0.068358 0.245109 0.941648
O O2 0.077055 0.250871 0.826234
O O3 0.000000 0.206975 0.869810
O O4 0.060997 0.000000 0.881348
O O5 0.500000 0.164211 0.000000
O O6 0.429151 0.000000 0.000000
O O7 0.880945 0.500000 0.193556
O O8 0.836470 0.744237 0.181288
O O9 0.888330 0.712934 0.275380
O O10 0.250000 0.750000 0.176476
O O11 0.209154 0.831332 0.273529
O O12 0.205293 0.000000 0.177731
O O13 0.418387 0.240354 0.383950
O O14 0.335215 0.251083 0.367974
O O15 0.372822 0.000000 0.353352
O O16 0.062817 0.272010 0.500000
O O17 0.047858 0.500000 0.430154
O O18 0.000000 0.261653 0.419017
O O19 0.707831 0.500000 0.630238
O O20 0.750000 0.750000 0.628964
#
# Coordination Sequence:
#
# PCOD8267185 Si02
#       7
#    16   8  16  16  16  16  16
#     4  10  20  33  48  67  94 127 160 193 230 273
#     4   9  17  31  51  71  90 117 156 197 233 271
#     4  10  19  29  43  67  97 125 154 189 232 279
#     4   9  16  27  43  63  89 120 153 188 227 272
#     4   9  17  28  44  67  93 119 149 188 232 275
#     4   8  14  26  45  67  88 113 150 193 232 272
#     4   9  16  26  42  63  88 117 147 180 221 271
#
# _framework density 16.899432000000001
#
# number of rings (size 3 to 8) (size 9 to 14) (size 15 to 20)
#    0.000    2.846    0.000    2.538    0.000    6.769 
#    0.000    1.538    0.000    1.385    0.000    1.615 
#    0.000    0.000    0.000    0.000    0.000    0.000 
#
# Total GULP energy -644701.248336 kJ/mol
# GULP energy per Si atom -12398.100930 kJ/mol
# Density = 1.686097 g / cm^3
# Si number density = 16.899432 Si / 1000 Ang^3
#
#
#
# Elastic Constant Matrix: (Units=GPa)
#
#
# Indices 1 2 3 4 5 6 
#
# 1 129.8921 62.7398 62.1289 0.0000 0.0000 0.0000
# 2 62.7398 101.8023 42.8054 0.0000 0.0000 0.0000
# 3 62.1289 42.8054 66.2072 0.0000 0.0000 0.0000
# 4 0.0000 0.0000 0.0000 11.7922 0.0000 0.0000
# 5 0.0000 0.0000 0.0000 0.0000 3.9879 0.0000
# 6 0.0000 0.0000 0.0000 0.0000 0.0000 30.7629
#
#
#
# Elastic Compliance Matrix: (Units=1/GPa)
#
#
# Indices 1 2 3 4 5 6 
#
# 1 0.015452 -0.004705 -0.011458 0.000000 0.000000 0.000000
# 2 -0.004705 0.014923 -0.005233 0.000000 0.000000 0.000000
# 3 -0.011458 -0.005233 0.029240 0.000000 0.000000 0.000000
# 4 0.000000 0.000000 0.000000 0.084802 0.000000 0.000000
# 5 0.000000 0.000000 0.000000 0.000000 0.250756 0.000000
# 6 0.000000 0.000000 0.000000 0.000000 0.000000 0.032507
#
#
# Mechanical properties :
#
#
# Convention : Reuss Voigt Hill
#
# Bulk Modulus (GPa) = 59.44505 70.36109 64.90307
# Shear Modulus (GPa) = 10.50246 17.99045 14.24646
#
# Velocity S-wave (km/s) = 2.49563 3.26630 2.90662
# Velocity P-wave (km/s) = 6.59972 7.48001 7.05361
#
# Compressibility (1/GPa) = 0.01682226
#
# Stress axis : x y z
#
# Youngs Moduli (GPa) = 64.71758 67.01073 34.20005
#
# Poissons Ratio (x) = 0.31528 0.39186
# Poissons Ratio (y) = 0.30449 0.17897
# Poissons Ratio (z) = 0.74153 0.35068
#
# Static dielectric constant tensor:
#      x y z
#    x 3.318090 0.000000 0.000000 
#    y 0.000000 3.188560 0.000000 
#    z 0.000000 0.000000 2.936430 
# 
# 
# High freq. dielectric constant tensor:
#      x y z
#    x 1.653200 0.000000 0.000000 
#    y 0.000000 1.651490 0.000000 
#    z 0.000000 0.000000 1.611220 
# 
# From -- ./inp_files/71828.got.cif
#   From: 2010.03.12/outbox.cif.g09.slc.cpg/sg65_36_cif.got.tgz:71828.got - 2010.04.10 20:52:16.
