data_PCOD8267273
_publ_section_title
;
Structure prediction by ZEFSAII (Michael W. Deem and Ramdas Pophale) SiO2 
 PCOD8267273
Probable space group: C M M M
;
_chemical_formula_sum "Si O2"
_cell_formula_units_Z 72
_cell_length_a 9.195038
_cell_length_b 29.546799
_cell_length_c 14.984608
_cell_angle_alpha 90.000000
_cell_angle_beta 90.000000
_cell_angle_gamma 90.000000
_cell_volume 4071.077335
_symmetry_space_group_name_H-M "C M M M"
_symmetry_group_IT_number 65
_symmetry_cell_setting 'orthorhombic'
loop_
_space_group_symop_operation_xyz
x,y,z
-x,-y,z
x,-y,-z
-x,y,-z
-x,-y,-z
x,y,-z
-x,y,z
x,-y,z
1/2+x,1/2+y,z
1/2-x,1/2-y,z
1/2+x,1/2-y,-z
1/2-x,1/2+y,-z
1/2-x,1/2-y,-z
1/2+x,1/2+y,-z
1/2-x,1/2+y,z
1/2+x,1/2-y,z
loop_
_atom_site_type_symbol
_atom_site_label
_atom_site_fract_x
_atom_site_fract_y
_atom_site_fract_z
Si Si1 0.168870 0.795501 0.399514
Si Si2 0.668723 0.795256 0.896006
Si Si3 0.169982 0.857608 0.764598
Si Si4 0.826858 0.049910 0.690540
Si Si5 0.156661 0.947091 0.500000
O O1 0.214368 0.810835 0.500000
O O2 0.250000 0.750000 0.370389
O O3 0.210181 0.834791 0.330034
O O4 0.000000 0.784032 0.395416
O O5 0.500000 0.789634 0.872655
O O6 0.750000 0.750000 0.864185
O O7 0.735075 0.837582 0.844152
O O8 0.694658 0.804335 0.000000
O O9 0.214427 0.910799 0.760318
O O10 0.000000 0.851259 0.786857
O O11 0.759416 0.063810 0.592958
O O12 0.000000 0.048307 0.678128
O O13 0.770843 0.000000 0.722400
O O14 0.000000 0.921061 0.500000
O O15 0.125848 0.000000 0.500000
#
# Coordination Sequence:
#
# PCOD8267273 Si02
#       5
#    16  16  16  16   8
#     4   9  18  30  42  61  93 129 161 192 229 278
#     4  10  21  37  56  76  98 123 154 197 248 300
#     4  10  19  29  48  75 100 129 163 202 243 286
#     4   8  14  24  40  66  99 132 166 204 243 281
#     4   7  10  18  34  58  90 127 164 201 238 273
#
# _framework density 17.685737
#
# number of rings (size 3 to 8) (size 9 to 14) (size 15 to 20)
#    0.000    3.000    0.000    2.667    1.556    4.000 
#    0.000    0.000    0.000    1.333    0.000    4.667 
#    0.000    2.667    0.000    0.000    0.000    0.000 
#
# Total GULP energy -446072.411051 kJ/mol
# GULP energy per Si atom -12390.900307 kJ/mol
# Density = 1.764548 g / cm^3
# Si number density = 17.685737 Si / 1000 Ang^3
#
#
#
# Elastic Constant Matrix: (Units=GPa)
#
#
# Indices 1 2 3 4 5 6 
#
# 1 51.0832 43.5344 38.0621 0.0000 0.0000 0.0000
# 2 43.5344 132.0189 58.7592 0.0000 0.0000 0.0000
# 3 38.0621 58.7592 69.3620 0.0000 0.0000 0.0000
# 4 0.0000 0.0000 0.0000 24.4144 0.0000 0.0000
# 5 0.0000 0.0000 0.0000 0.0000 21.4242 0.0000
# 6 0.0000 0.0000 0.0000 0.0000 0.0000 16.9841
#
#
#
# Elastic Compliance Matrix: (Units=1/GPa)
#
#
# Indices 1 2 3 4 5 6 
#
# 1 0.034908 -0.004792 -0.015096 0.000000 0.000000 0.000000
# 2 -0.004792 0.012817 -0.008228 0.000000 0.000000 0.000000
# 3 -0.015096 -0.008228 0.029671 0.000000 0.000000 0.000000
# 4 0.000000 0.000000 0.000000 0.040959 0.000000 0.000000
# 5 0.000000 0.000000 0.000000 0.000000 0.046676 0.000000
# 6 0.000000 0.000000 0.000000 0.000000 0.000000 0.058879
#
#
# Mechanical properties :
#
#
# Convention : Reuss Voigt Hill
#
# Bulk Modulus (GPa) = 47.25051 59.24172 53.24612
# Shear Modulus (GPa) = 17.40960 20.03843 18.72401
#
# Velocity S-wave (km/s) = 3.14090 3.36970 3.25731
# Velocity P-wave (km/s) = 6.31889 6.97922 6.65724
#
# Compressibility (1/GPa) = 0.02116379
#
# Stress axis : x y z
#
# Youngs Moduli (GPa) = 28.64674 78.02020 33.70261
#
# Poissons Ratio (x) = 0.37390 0.50877
# Poissons Ratio (y) = 0.13728 0.27731
# Poissons Ratio (z) = 0.43245 0.64196
#
# Static dielectric constant tensor:
#      x y z
#    x 2.923420 0.000000 0.000000 
#    y 0.000000 3.416640 0.000000 
#    z 0.000000 0.000000 3.290120 
# 
# 
# High freq. dielectric constant tensor:
#      x y z
#    x 1.639900 0.000000 0.000000 
#    y 0.000000 1.682620 0.000000 
#    z 0.000000 0.000000 1.672220 
# 
# From -- ./inp_files/36936.got.cif
#   From: 2010.03.12/outbox.cif.g09.slc.cpg/sg65_19_cif.got.tgz:36936.got - 2010.04.10 20:52:16.
