data_PCOD8267409
_publ_section_title
;
Structure prediction by ZEFSAII (Michael W. Deem and Ramdas Pophale) SiO2 
 PCOD8267409
Probable space group: C M M M
;
_chemical_formula_sum "Si O2"
_cell_formula_units_Z 104
_cell_length_a 8.161697
_cell_length_b 27.826768
_cell_length_c 27.776671
_cell_angle_alpha 90.000000
_cell_angle_beta 90.000000
_cell_angle_gamma 90.000000
_cell_volume 6308.461105
_symmetry_space_group_name_H-M "C M M M"
_symmetry_group_IT_number 65
_symmetry_cell_setting 'orthorhombic'
loop_
_space_group_symop_operation_xyz
x,y,z
-x,-y,z
x,-y,-z
-x,y,-z
-x,-y,-z
x,y,-z
-x,y,z
x,-y,z
1/2+x,1/2+y,z
1/2-x,1/2-y,z
1/2+x,1/2-y,-z
1/2-x,1/2+y,-z
1/2-x,1/2-y,-z
1/2+x,1/2+y,-z
1/2-x,1/2+y,z
1/2+x,1/2-y,z
loop_
_atom_site_type_symbol
_atom_site_label
_atom_site_fract_x
_atom_site_fract_y
_atom_site_fract_z
Si Si1 0.500000 0.443252 0.446418
Si Si2 0.689733 0.447730 0.806703
Si Si3 0.812212 0.443826 0.383823
Si Si4 0.193698 0.855503 0.857300
Si Si5 0.691585 0.198679 0.946721
Si Si6 0.693083 0.696708 0.762634
Si Si7 0.687258 0.104042 0.717048
O O1 0.500000 0.500000 0.449542
O O2 0.500000 0.420718 0.500000
O O3 0.670686 0.427019 0.421038
O O4 0.500000 0.453381 0.817893
O O5 0.775639 0.500000 0.813398
O O6 0.764744 0.408269 0.843546
O O7 0.706377 0.429121 0.752250
O O8 0.792103 0.500000 0.370912
O O9 0.777158 0.411852 0.337124
O O10 0.000000 0.434639 0.403038
O O11 0.256633 0.842608 0.910046
O O12 0.254063 0.817829 0.816465
O O13 0.000000 0.856419 0.857874
O O14 0.500000 0.199434 0.950973
O O15 0.750000 0.250000 0.926508
O O16 0.768208 0.188980 0.000000
O O17 0.500000 0.692878 0.759139
O O18 0.750000 0.750000 0.749938
O O19 0.768282 0.660222 0.723417
O O20 0.500000 0.095347 0.730927
#
# Coordination Sequence:
#
# PCOD8267409 Si02
#       7
#     8  16  16  16  16  16  16
#     4   9  18  30  46  68  94 130 168 200 243 289
#     4   9  18  31  47  67  91 120 154 190 225 266
#     4   9  18  30  45  68  97 129 164 202 239 281
#     4   9  18  31  47  67  89 116 149 181 224 271
#     4  10  20  32  47  67  88 111 142 182 226 273
#     4  10  20  32  46  66  93 125 154 186 226 274
#     4  10  19  30  45  67  94 125 158 193 229 274
#
# _framework density 16.485793999999999
#
# number of rings (size 3 to 8) (size 9 to 14) (size 15 to 20)
#    0.000    2.538    0.000    3.231    2.154    6.462 
#    0.000    1.538    0.000    0.462    0.000    3.231 
#    0.000    0.615    0.308    0.000    0.000    0.000 
#
# Total GULP energy -644496.650972 kJ/mol
# GULP energy per Si atom -12394.166365 kJ/mol
# Density = 1.644827 g / cm^3
# Si number density = 16.485794 Si / 1000 Ang^3
#
#
#
# Elastic Constant Matrix: (Units=GPa)
#
#
# Indices 1 2 3 4 5 6 
#
# 1 52.6338 25.6243 41.7748 0.0000 0.0000 0.0000
# 2 25.6243 113.9197 57.5637 0.0000 0.0000 0.0000
# 3 41.7748 57.5637 109.0529 0.0000 0.0000 0.0000
# 4 0.0000 0.0000 0.0000 21.9692 0.0000 0.0000
# 5 0.0000 0.0000 0.0000 0.0000 23.9758 0.0000
# 6 0.0000 0.0000 0.0000 0.0000 0.0000 18.4077
#
#
#
# Elastic Compliance Matrix: (Units=1/GPa)
#
#
# Indices 1 2 3 4 5 6 
#
# 1 0.027414 -0.001173 -0.009882 0.000000 0.000000 0.000000
# 2 -0.001173 0.012021 -0.005896 0.000000 0.000000 0.000000
# 3 -0.009882 -0.005896 0.016068 0.000000 0.000000 0.000000
# 4 0.000000 0.000000 0.000000 0.045518 0.000000 0.000000
# 5 0.000000 0.000000 0.000000 0.000000 0.041709 0.000000
# 6 0.000000 0.000000 0.000000 0.000000 0.000000 0.054325
#
#
# Mechanical properties :
#
#
# Convention : Reuss Voigt Hill
#
# Bulk Modulus (GPa) = 46.29581 58.39245 52.34413
# Shear Modulus (GPa) = 20.99455 22.91345 21.95400
#
# Velocity S-wave (km/s) = 3.57247 3.73217 3.65319
# Velocity P-wave (km/s) = 6.72012 7.35315 7.04375
#
# Compressibility (1/GPa) = 0.02160023
#
# Stress axis : x y z
#
# Youngs Moduli (GPa) = 36.47824 83.18601 62.23633
#
# Poissons Ratio (x) = 0.09755 0.61504
# Poissons Ratio (y) = 0.04278 0.36696
# Poissons Ratio (z) = 0.36049 0.49048
#
# Static dielectric constant tensor:
#      x y z
#    x 3.184990 0.000000 0.000000 
#    y 0.000000 3.105790 0.000000 
#    z 0.000000 0.000000 3.717390 
# 
# 
# High freq. dielectric constant tensor:
#      x y z
#    x 1.643240 0.000000 0.000000 
#    y 0.000000 1.618210 0.000000 
#    z 0.000000 0.000000 1.611950 
# 
# From -- ./inp_files/73739.got.cif
#   From: 2010.03.12/outbox.cif.g09.slc.cpg/sg65_37_cif.got.tgz:73739.got - 2010.04.10 20:52:16.
