data_PCOD8267771
_publ_section_title
;
Structure prediction by ZEFSAII (Michael W. Deem and Ramdas Pophale) SiO2 
 PCOD8267771
Probable space group: C M M M
;
_chemical_formula_sum "Si O2"
_cell_formula_units_Z 80
_cell_length_a 31.651221
_cell_length_b 8.807484
_cell_length_c 14.758573
_cell_angle_alpha 90.000000
_cell_angle_beta 90.000000
_cell_angle_gamma 90.000000
_cell_volume 4114.212307
_symmetry_space_group_name_H-M "C M M M"
_symmetry_group_IT_number 65
_symmetry_cell_setting 'orthorhombic'
loop_
_space_group_symop_operation_xyz
x,y,z
-x,-y,z
x,-y,-z
-x,y,-z
-x,-y,-z
x,y,-z
-x,y,z
x,-y,z
1/2+x,1/2+y,z
1/2-x,1/2-y,z
1/2+x,1/2-y,-z
1/2-x,1/2+y,-z
1/2-x,1/2-y,-z
1/2+x,1/2+y,-z
1/2-x,1/2+y,z
1/2+x,1/2-y,z
loop_
_atom_site_type_symbol
_atom_site_label
_atom_site_fract_x
_atom_site_fract_y
_atom_site_fract_z
Si Si1 0.207027 0.819844 0.712864
Si Si2 0.579911 0.319483 0.901760
Si Si3 0.374280 0.319107 0.397763
Si Si4 0.175192 0.819736 0.098345
Si Si5 0.953588 0.819117 0.285201
O O1 0.250000 0.750000 0.672270
O O2 0.167249 0.760154 0.654678
O O3 0.202389 0.759685 0.816739
O O4 0.209717 0.000000 0.707571
O O5 0.580164 0.500000 0.899111
O O6 0.627592 0.258770 0.890423
O O7 0.552611 0.257123 0.817618
O O8 0.561730 0.265026 0.000000
O O9 0.372946 0.256508 0.500000
O O10 0.375145 0.500000 0.396306
O O11 0.416772 0.254371 0.350167
O O12 0.174281 0.000000 0.101654
O O13 0.193472 0.764928 0.000000
O O14 0.000000 0.765113 0.319105
O O15 0.951105 0.000000 0.285337
#
# Coordination Sequence:
#
# PCOD8267771 Si02
#       5
#    16  16  16  16  16
#     4  10  19  31  47  66  88 115 148 183 219 261
#     4   8  12  19  32  50  75 108 142 172 205 251
#     4   9  17  29  42  56  79 111 144 179 220 262
#     4   8  13  23  40  59  81 112 146 176 210 256
#     4   9  15  22  34  54  80 110 144 177 210 255
#
# _framework density 19.444790999999999
#
# number of rings (size 3 to 8) (size 9 to 14) (size 15 to 20)
#    0.000    3.200    2.000    1.200    0.000    1.600 
#    0.000    4.000    0.000    0.000    0.000    0.000 
#    0.000    0.800    0.000    1.800    0.000    8.400 
#
# Total GULP energy -495524.225296 kJ/mol
# GULP energy per Si atom -12388.105632 kJ/mol
# Density = 1.940053 g / cm^3
# Si number density = 19.444791 Si / 1000 Ang^3
#
#
#
# Elastic Constant Matrix: (Units=GPa)
#
#
# Indices 1 2 3 4 5 6 
#
# 1 163.6852 9.6164 88.1273 0.0000 0.0000 0.0000
# 2 9.6164 3.3469 9.0595 0.0000 0.0000 0.0000
# 3 88.1273 9.0595 164.2805 0.0000 0.0000 0.0000
# 4 0.0000 0.0000 0.0000 3.8576 0.0000 0.0000
# 5 0.0000 0.0000 0.0000 0.0000 16.0869 0.0000
# 6 0.0000 0.0000 0.0000 0.0000 0.0000 13.6596
#
#
#
# Elastic Compliance Matrix: (Units=1/GPa)
#
#
# Indices 1 2 3 4 5 6 
#
# 1 0.009220 -0.015402 -0.004096 0.000000 0.000000 0.000000
# 2 -0.015402 0.376935 -0.012525 0.000000 0.000000 0.000000
# 3 -0.004096 -0.012525 0.008975 0.000000 0.000000 0.000000
# 4 0.000000 0.000000 0.000000 0.259226 0.000000 0.000000
# 5 0.000000 0.000000 0.000000 0.000000 0.062162 0.000000
# 6 0.000000 0.000000 0.000000 0.000000 0.000000 0.073209
#
#
# Mechanical properties :
#
#
# Convention : Reuss Voigt Hill
#
# Bulk Modulus (GPa) = 3.02037 60.54656 31.78346
# Shear Modulus (GPa) = 5.18600 21.68812 13.43706
#
# Velocity S-wave (km/s) = 1.63488 3.34334 2.63161
# Velocity P-wave (km/s) = 2.26284 6.79037 5.06111
#
# Compressibility (1/GPa) = 0.33108490
#
# Stress axis : x y z
#
# Youngs Moduli (GPa) = 108.46402 2.65298 111.41597
#
# Poissons Ratio (x) = 0.04086 0.45641
# Poissons Ratio (y) = 1.67051 1.39544
# Poissons Ratio (z) = 0.44432 0.03323
#
# Static dielectric constant tensor:
#      x y z
#    x 3.655640 0.000000 0.000000 
#    y 0.000000 2.568170 0.000000 
#    z 0.000000 0.000000 4.019280 
# 
# 
# High freq. dielectric constant tensor:
#      x y z
#    x 1.758510 0.000000 0.000000 
#    y 0.000000 1.652920 0.000000 
#    z 0.000000 0.000000 1.768960 
# 
# From -- ./inp_files/38523.got.cif
#   From: 2010.03.12/outbox.cif.g09.slc.cpg/sg65_20_cif.got.tgz:38523.got - 2010.04.10 20:52:16.
