data_PCOD8267761
_publ_section_title
;
Structure prediction by ZEFSAII (Michael W. Deem and Ramdas Pophale) SiO2 
 PCOD8267761
Probable space group: C M M M
;
_chemical_formula_sum "Si O2"
_cell_formula_units_Z 104
_cell_length_a 28.750926
_cell_length_b 9.870826
_cell_length_c 24.137549
_cell_angle_alpha 90.000000
_cell_angle_beta 90.000000
_cell_angle_gamma 90.000000
_cell_volume 6850.125081
_symmetry_space_group_name_H-M "C M M M"
_symmetry_group_IT_number 65
_symmetry_cell_setting 'orthorhombic'
loop_
_space_group_symop_operation_xyz
x,y,z
-x,-y,z
x,-y,-z
-x,y,-z
-x,-y,-z
x,y,-z
-x,y,z
x,-y,z
1/2+x,1/2+y,z
1/2-x,1/2-y,z
1/2+x,1/2-y,-z
1/2-x,1/2+y,-z
1/2-x,1/2-y,-z
1/2+x,1/2+y,-z
1/2-x,1/2+y,z
1/2+x,1/2-y,z
loop_
_atom_site_type_symbol
_atom_site_label
_atom_site_fract_x
_atom_site_fract_y
_atom_site_fract_z
Si Si1 0.386111 0.156570 0.820668
Si Si2 0.080669 0.146587 0.000000
Si Si3 0.052140 0.660294 0.719714
Si Si4 0.707509 0.156346 0.880959
Si Si5 0.050693 0.149953 0.117766
Si Si6 0.055506 0.154668 0.500000
Si Si7 0.334395 0.157761 0.000000
Si Si8 0.054955 0.348118 0.596530
O O1 0.406885 0.209503 0.761640
O O2 0.331699 0.181113 0.833253
O O3 0.412249 0.238070 0.867467
O O4 0.398585 0.000000 0.828234
O O5 0.046620 0.155501 0.051930
O O6 0.117659 0.265127 0.000000
O O7 0.107054 0.000000 0.000000
O O8 0.048653 0.500000 0.720101
O O9 0.067409 0.706055 0.658101
O O10 0.000000 0.717618 0.734683
O O11 0.750000 0.250000 0.862523
O O12 0.692854 0.197070 0.943605
O O13 0.723062 0.000000 0.880073
O O14 0.000000 0.184341 0.142823
O O15 0.066414 0.000000 0.138165
O O16 0.074643 0.237316 0.553362
O O17 0.000000 0.150042 0.500000
O O18 0.074991 0.000000 0.500000
O O19 0.346398 0.000000 0.000000
O O20 0.075703 0.500000 0.585635
O O21 0.000000 0.358783 0.589984
#
# Coordination Sequence:
#
# PCOD8267761 Si02
#       8
#    16   8  16  16  16   8   8  16
#     4  10  19  32  49  67  86 109 140 179 217 253
#     4  10  19  31  47  63  83 113 140 166 204 251
#     4   8  14  25  42  63  85 111 144 177 208 244
#     4  10  21  34  50  68  87 108 134 172 218 268
#     4  10  20  32  45  63  87 114 142 170 204 250
#     4   9  15  21  31  51  79 109 142 181 216 237
#     4  10  19  34  50  68  88 103 130 174 218 263
#     4   8  13  22  36  53  75 107 145 177 203 237
#
# _framework density 15.182205
#
# number of rings (size 3 to 8) (size 9 to 14) (size 15 to 20)
#    0.000    2.692    1.538    2.077    0.000    4.000 
#    0.000    0.769    0.000    4.154    0.000    0.000 
#    0.000    0.000    0.000    0.692    0.000    6.538 
#
# Total GULP energy -644186.482610 kJ/mol
# GULP energy per Si atom -12388.201589 kJ/mol
# Density = 1.514765 g / cm^3
# Si number density = 15.182205 Si / 1000 Ang^3
#
#
#
# Elastic Constant Matrix: (Units=GPa)
#
#
# Indices 1 2 3 4 5 6 
#
# 1 67.2491 37.9173 33.4163 0.0000 0.0000 0.0000
# 2 37.9173 62.6375 35.8696 0.0000 0.0000 0.0000
# 3 33.4163 35.8696 102.1469 0.0000 0.0000 0.0000
# 4 0.0000 0.0000 0.0000 10.5811 0.0000 0.0000
# 5 0.0000 0.0000 0.0000 0.0000 7.4620 0.0000
# 6 0.0000 0.0000 0.0000 0.0000 0.0000 18.7516
#
#
#
# Elastic Compliance Matrix: (Units=1/GPa)
#
#
# Indices 1 2 3 4 5 6 
#
# 1 0.023464 -0.012277 -0.003365 0.000000 0.000000 0.000000
# 2 -0.012277 0.026407 -0.005257 0.000000 0.000000 0.000000
# 3 -0.003365 -0.005257 0.012737 0.000000 0.000000 0.000000
# 4 0.000000 0.000000 0.000000 0.094508 0.000000 0.000000
# 5 0.000000 0.000000 0.000000 0.000000 0.134011 0.000000
# 6 0.000000 0.000000 0.000000 0.000000 0.000000 0.053329
#
#
# Mechanical properties :
#
#
# Convention : Reuss Voigt Hill
#
# Bulk Modulus (GPa) = 48.05265 49.60443 48.82854
# Shear Modulus (GPa) = 12.71649 15.68098 14.19873
#
# Velocity S-wave (km/s) = 2.89726 3.21729 3.06146
# Velocity P-wave (km/s) = 6.55069 6.82239 6.68792
#
# Compressibility (1/GPa) = 0.02081050
#
# Stress axis : x y z
#
# Youngs Moduli (GPa) = 42.61782 37.86882 78.51420
#
# Poissons Ratio (x) = 0.46492 0.26420
# Poissons Ratio (y) = 0.52322 0.41272
# Poissons Ratio (z) = 0.14341 0.19906
#
# Static dielectric constant tensor:
#      x y z
#    x 2.600470 0.000000 0.000000 
#    y 0.000000 2.945940 0.000000 
#    z 0.000000 0.000000 3.190730 
# 
# 
# High freq. dielectric constant tensor:
#      x y z
#    x 1.534950 0.000000 0.000000 
#    y 0.000000 1.578420 0.000000 
#    z 0.000000 0.000000 1.575390 
# 
# From -- ./inp_files/76261.got.cif
#   From: 2010.03.12/outbox.cif.g09.slc.cpg/sg65_39_cif.got.tgz:76261.got - 2010.04.10 20:52:16.
