data_PCOD8267325
_publ_section_title
;
Structure prediction by ZEFSAII (Michael W. Deem and Ramdas Pophale) SiO2 
 PCOD8267325
Probable space group: C M M M
;
_chemical_formula_sum "Si O2"
_cell_formula_units_Z 88
_cell_length_a 23.755216
_cell_length_b 29.892481
_cell_length_c 8.543373
_cell_angle_alpha 90.000000
_cell_angle_beta 90.000000
_cell_angle_gamma 90.000000
_cell_volume 6066.669184
_symmetry_space_group_name_H-M "C M M M"
_symmetry_group_IT_number 65
_symmetry_cell_setting 'orthorhombic'
loop_
_space_group_symop_operation_xyz
x,y,z
-x,-y,z
x,-y,-z
-x,y,-z
-x,-y,-z
x,y,-z
-x,y,z
x,-y,z
1/2+x,1/2+y,z
1/2-x,1/2-y,z
1/2+x,1/2-y,-z
1/2-x,1/2+y,-z
1/2-x,1/2-y,-z
1/2+x,1/2+y,-z
1/2-x,1/2+y,z
1/2+x,1/2-y,z
loop_
_atom_site_type_symbol
_atom_site_label
_atom_site_fract_x
_atom_site_fract_y
_atom_site_fract_z
Si Si1 0.720148 0.797468 0.824807
Si Si2 0.881363 0.747323 0.316125
Si Si3 0.066221 0.000000 0.314203
Si Si4 0.322926 0.339547 0.317349
Si Si5 0.500000 0.352750 0.320276
Si Si6 0.098824 0.907498 0.817070
Si Si7 0.000000 0.758344 0.818700
O O1 0.750000 0.750000 0.821882
O O2 0.657801 0.791590 0.755207
O O3 0.757260 0.831336 0.721002
O O4 0.715707 0.816560 0.000000
O O5 0.877531 0.743358 0.500000
O O6 0.860878 0.796903 0.263736
O O7 0.944451 0.737574 0.259360
O O8 0.098862 0.958514 0.237917
O O9 0.073666 0.000000 0.500000
O O10 0.000000 0.000000 0.268325
O O11 0.329974 0.349026 0.500000
O O12 0.341969 0.383181 0.219176
O O13 0.500000 0.335632 0.500000
O O14 0.445954 0.382543 0.290966
O O15 0.500000 0.311400 0.203498
O O16 0.083825 0.904328 0.000000
O O17 0.000000 0.746380 0.000000
#
# Coordination Sequence:
#
# PCOD8267325 Si02
#       7
#    16  16   8  16   8  16   8
#     4   9  17  29  44  62  84 106 137 175 212 249
#     4  10  19  30  44  61  85 112 141 173 213 258
#     4  11  23  37  51  63  84 112 140 175 222 271
#     4  10  19  31  47  63  83 109 140 174 215 259
#     4  12  22  33  45  60  82 110 141 176 219 265
#     4  12  23  34  49  66  83 106 141 181 221 262
#     4  12  22  30  43  63  86 112 144 181 218 254
#
# _framework density 14.505489000000001
#
# number of rings (size 3 to 8) (size 9 to 14) (size 15 to 20)
#    0.000    1.364    2.727    5.182    0.000    4.000 
#    0.000    0.000    0.000    0.000    0.000    0.000 
#    0.000    0.000    0.000    0.000    0.000    0.909 
#
# Total GULP energy -545672.968900 kJ/mol
# GULP energy per Si atom -12401.658384 kJ/mol
# Density = 1.447247 g / cm^3
# Si number density = 14.505489 Si / 1000 Ang^3
#
#
#
# Elastic Constant Matrix: (Units=GPa)
#
#
# Indices 1 2 3 4 5 6 
#
# 1 98.2605 36.9142 23.2854 0.0000 0.0000 0.0000
# 2 36.9142 49.1538 19.0570 0.0000 0.0000 0.0000
# 3 23.2854 19.0570 72.1067 0.0000 0.0000 0.0000
# 4 0.0000 0.0000 0.0000 19.4707 0.0000 0.0000
# 5 0.0000 0.0000 0.0000 0.0000 25.0149 0.0000
# 6 0.0000 0.0000 0.0000 0.0000 0.0000 11.7884
#
#
#
# Elastic Compliance Matrix: (Units=1/GPa)
#
#
# Indices 1 2 3 4 5 6 
#
# 1 0.014431 -0.010062 -0.002001 0.000000 0.000000 0.000000
# 2 -0.010062 0.029682 -0.004595 0.000000 0.000000 0.000000
# 3 -0.002001 -0.004595 0.015729 0.000000 0.000000 0.000000
# 4 0.000000 0.000000 0.000000 0.051359 0.000000 0.000000
# 5 0.000000 0.000000 0.000000 0.000000 0.039976 0.000000
# 6 0.000000 0.000000 0.000000 0.000000 0.000000 0.084829
#
#
# Mechanical properties :
#
#
# Convention : Reuss Voigt Hill
#
# Bulk Modulus (GPa) = 37.69901 42.00382 39.85142
# Shear Modulus (GPa) = 17.97488 20.60577 19.29033
#
# Velocity S-wave (km/s) = 3.52401 3.77311 3.65069
# Velocity P-wave (km/s) = 6.52718 6.92834 6.73075
#
# Compressibility (1/GPa) = 0.02652590
#
# Stress axis : x y z
#
# Youngs Moduli (GPa) = 69.29388 33.68990 63.57666
#
# Poissons Ratio (x) = 0.33899 0.12722
# Poissons Ratio (y) = 0.69724 0.29216
# Poissons Ratio (z) = 0.13866 0.15482
#
# Static dielectric constant tensor:
#      x y z
#    x 2.828690 0.000000 0.000000 
#    y 0.000000 2.594280 0.000000 
#    z 0.000000 0.000000 2.917070 
# 
# 
# High freq. dielectric constant tensor:
#      x y z
#    x 1.543240 0.000000 0.000000 
#    y 0.000000 1.502750 0.000000 
#    z 0.000000 0.000000 1.575960 
# 
# From -- ./inp_files/12685.got.cif
#   From: 2010.03.12/outbox.cif.g09.slc.cpg/sg65_7_cif.got.tgz:12685.got - 2010.04.10 20:52:16.
