data_PCOD8267327
_publ_section_title
;
Structure prediction by ZEFSAII (Michael W. Deem and Ramdas Pophale) SiO2 
 PCOD8267327
Probable space group: C M M M
;
_chemical_formula_sum "Si O2"
_cell_formula_units_Z 80
_cell_length_a 10.298708
_cell_length_b 27.915346
_cell_length_c 18.377284
_cell_angle_alpha 90.000000
_cell_angle_beta 90.000000
_cell_angle_gamma 90.000000
_cell_volume 5283.322080
_symmetry_space_group_name_H-M "C M M M"
_symmetry_group_IT_number 65
_symmetry_cell_setting 'orthorhombic'
loop_
_space_group_symop_operation_xyz
x,y,z
-x,-y,z
x,-y,-z
-x,y,-z
-x,-y,-z
x,y,-z
-x,y,z
x,-y,z
1/2+x,1/2+y,z
1/2-x,1/2-y,z
1/2+x,1/2-y,-z
1/2-x,1/2+y,-z
1/2-x,1/2-y,-z
1/2+x,1/2+y,-z
1/2-x,1/2+y,z
1/2+x,1/2-y,z
loop_
_atom_site_type_symbol
_atom_site_label
_atom_site_fract_x
_atom_site_fract_y
_atom_site_fract_z
Si Si1 0.640160 0.052199 0.415144
Si Si2 0.851282 0.944257 0.800985
Si Si3 0.645673 0.611150 0.654533
Si Si4 0.853891 0.209966 0.416701
Si Si5 0.355427 0.056733 0.919033
O O1 0.627656 0.046527 0.500000
O O2 0.500000 0.070363 0.384231
O O3 0.754468 0.088354 0.400548
O O4 0.671411 0.000000 0.380585
O O5 0.822780 0.907828 0.735089
O O6 0.755743 0.925350 0.864138
O O7 0.000000 0.939169 0.827632
O O8 0.823375 0.000000 0.779448
O O9 0.500000 0.595265 0.632968
O O10 0.661613 0.667987 0.643144
O O11 0.829106 0.191872 0.500000
O O12 0.750000 0.250000 0.394937
O O13 0.000000 0.231191 0.411174
O O14 0.500000 0.073578 0.893793
O O15 0.351653 0.000000 0.921950
O O16 0.326092 0.077070 0.000000
#
# Coordination Sequence:
#
# PCOD8267327 Si02
#       5
#    16  16  16  16  16
#     4   9  18  30  41  56  80 109 141 174 205 240
#     4   9  17  27  39  59  87 115 141 169 201 239
#     4  10  19  30  44  62  84 109 138 172 211 255
#     4   9  18  32  48  64  81 103 135 176 219 260
#     4   8  14  25  40  57  79 110 146 177 201 229
#
# _framework density 15.141987
#
# number of rings (size 3 to 8) (size 9 to 14) (size 15 to 20)
#    0.000    3.000    0.000    2.400    0.000    4.400 
#    0.000    7.000    0.000    0.000    0.000    0.000 
#    0.000    0.800    0.000    1.800    0.000    3.200 
#
# Total GULP energy -495565.906775 kJ/mol
# GULP energy per Si atom -12389.147669 kJ/mol
# Density = 1.510752 g / cm^3
# Si number density = 15.141987 Si / 1000 Ang^3
#
#
#
# Elastic Constant Matrix: (Units=GPa)
#
#
# Indices 1 2 3 4 5 6 
#
# 1 113.3507 51.9668 53.2377 0.0000 0.0000 0.0000
# 2 51.9668 58.5504 36.3770 0.0000 0.0000 0.0000
# 3 53.2377 36.3770 69.2310 0.0000 0.0000 0.0000
# 4 0.0000 0.0000 0.0000 7.3871 0.0000 0.0000
# 5 0.0000 0.0000 0.0000 0.0000 23.1958 0.0000
# 6 0.0000 0.0000 0.0000 0.0000 0.0000 19.0137
#
#
#
# Elastic Compliance Matrix: (Units=1/GPa)
#
#
# Indices 1 2 3 4 5 6 
#
# 1 0.017297 -0.010524 -0.007772 0.000000 0.000000 0.000000
# 2 -0.010524 0.031760 -0.008596 0.000000 0.000000 0.000000
# 3 -0.007772 -0.008596 0.024937 0.000000 0.000000 0.000000
# 4 0.000000 0.000000 0.000000 0.135371 0.000000 0.000000
# 5 0.000000 0.000000 0.000000 0.000000 0.043111 0.000000
# 6 0.000000 0.000000 0.000000 0.000000 0.000000 0.052594
#
#
# Mechanical properties :
#
#
# Convention : Reuss Voigt Hill
#
# Bulk Modulus (GPa) = 49.47419 58.25501 53.86460
# Shear Modulus (GPa) = 13.67658 16.55603 15.11631
#
# Velocity S-wave (km/s) = 3.00863 3.31023 3.16302
# Velocity P-wave (km/s) = 6.69429 7.29151 6.99927
#
# Compressibility (1/GPa) = 0.02021256
#
# Stress axis : x y z
#
# Youngs Moduli (GPa) = 57.81382 31.48618 40.10081
#
# Poissons Ratio (x) = 0.33135 0.31165
# Poissons Ratio (y) = 0.60841 0.34469
# Poissons Ratio (z) = 0.44930 0.27064
#
# Static dielectric constant tensor:
#      x y z
#    x 3.217270 0.000000 0.000000 
#    y 0.000000 2.628820 0.000000 
#    z 0.000000 0.000000 2.867300 
# 
# 
# High freq. dielectric constant tensor:
#      x y z
#    x 1.601650 0.000000 0.000000 
#    y 0.000000 1.534240 0.000000 
#    z 0.000000 0.000000 1.559020 
# 
# From -- ./inp_files/38262.got.cif
#   From: 2010.03.12/outbox.cif.g09.slc.cpg/sg65_20_cif.got.tgz:38262.got - 2010.04.10 20:52:16.
