data_PCOD8267018
_publ_section_title
;
Structure prediction by ZEFSAII (Michael W. Deem and Ramdas Pophale) SiO2 
 PCOD8267018
Probable space group: C M M M
;
_chemical_formula_sum "Si O2"
_cell_formula_units_Z 104
_cell_length_a 18.960149
_cell_length_b 30.876692
_cell_length_c 12.108487
_cell_angle_alpha 90.000000
_cell_angle_beta 90.000000
_cell_angle_gamma 90.000000
_cell_volume 7088.631356
_symmetry_space_group_name_H-M "C M M M"
_symmetry_group_IT_number 65
_symmetry_cell_setting 'orthorhombic'
loop_
_space_group_symop_operation_xyz
x,y,z
-x,-y,z
x,-y,-z
-x,y,-z
-x,-y,-z
x,y,-z
-x,y,z
x,-y,z
1/2+x,1/2+y,z
1/2-x,1/2-y,z
1/2+x,1/2-y,-z
1/2-x,1/2+y,-z
1/2-x,1/2-y,-z
1/2+x,1/2+y,-z
1/2-x,1/2+y,z
1/2+x,1/2-y,z
loop_
_atom_site_type_symbol
_atom_site_label
_atom_site_fract_x
_atom_site_fract_y
_atom_site_fract_z
Si Si1 0.673980 0.124785 0.631844
Si Si2 0.579441 0.202566 0.368636
Si Si3 0.333382 0.621002 0.631464
Si Si4 0.416098 0.449844 0.760389
Si Si5 0.421167 0.047917 0.631324
Si Si6 0.578851 0.298515 0.631204
Si Si7 0.423281 0.448945 0.000000
O O1 0.673018 0.125292 0.500000
O O2 0.635000 0.167689 0.678616
O O3 0.753549 0.122179 0.676251
O O4 0.633021 0.082993 0.679573
O O5 0.579558 0.200873 0.500000
O O6 0.500000 0.191968 0.326799
O O7 0.602673 0.250630 0.328298
O O8 0.335525 0.619465 0.500000
O O9 0.374349 0.578753 0.672648
O O10 0.369742 0.664603 0.678578
O O11 0.500000 0.441554 0.751623
O O12 0.399393 0.500000 0.734526
O O13 0.386553 0.436449 0.883384
O O14 0.420669 0.049627 0.500000
O O15 0.500000 0.058674 0.673798
O O16 0.398212 0.000000 0.671737
O O17 0.580136 0.299602 0.500000
O O18 0.500000 0.308347 0.674002
O O19 0.434248 0.500000 0.000000
O O20 0.500000 0.426654 0.000000
#
# Coordination Sequence:
#
# PCOD8267018 Si02
#       7
#    16  16  16  16  16  16   8
#     4   9  16  23  31  46  69  96 126 157 184 216
#     4   8  13  22  36  49  61  87 130 171 196 212
#     4  10  19  26  33  51  81 111 128 141 174 227
#     4   9  17  29  44  58  72  95 128 162 189 213
#     4   8  13  21  32  43  56  81 119 158 191 219
#     4   8  14  24  35  46  64  93 127 159 187 215
#     4   7  12  26  46  62  70  81 115 167 207 218
#
# _framework density 14.671379
#
# number of rings (size 3 to 8) (size 9 to 14) (size 15 to 20)
#    0.000    3.462    0.000    3.231    0.000    4.308 
#    0.000    5.385    0.000    0.000    0.000    0.000 
#    0.000    2.462    0.000    4.846    0.000   24.154 
#
# Total GULP energy -644187.905763 kJ/mol
# GULP energy per Si atom -12388.228957 kJ/mol
# Density = 1.463799 g / cm^3
# Si number density = 14.671379 Si / 1000 Ang^3
#
#
#
# Elastic Constant Matrix: (Units=GPa)
#
#
# Indices 1 2 3 4 5 6 
#
# 1 107.6198 80.7260 13.8140 0.0000 0.0000 0.0000
# 2 80.7260 128.0172 15.3624 0.0000 0.0000 0.0000
# 3 13.8140 15.3624 14.9542 0.0000 0.0000 0.0000
# 4 0.0000 0.0000 0.0000 3.5879 0.0000 0.0000
# 5 0.0000 0.0000 0.0000 0.0000 3.9690 0.0000
# 6 0.0000 0.0000 0.0000 0.0000 0.0000 15.3780
#
#
#
# Elastic Compliance Matrix: (Units=1/GPa)
#
#
# Indices 1 2 3 4 5 6 
#
# 1 0.018045 -0.010698 -0.005680 0.000000 0.000000 0.000000
# 2 -0.010698 0.015252 -0.005786 0.000000 0.000000 0.000000
# 3 -0.005680 -0.005786 0.078061 0.000000 0.000000 0.000000
# 4 0.000000 0.000000 0.000000 0.278711 0.000000 0.000000
# 5 0.000000 0.000000 0.000000 0.000000 0.251951 0.000000
# 6 0.000000 0.000000 0.000000 0.000000 0.000000 0.065028
#
#
# Mechanical properties :
#
#
# Convention : Reuss Voigt Hill
#
# Bulk Modulus (GPa) = 14.91835 52.26621 33.59228
# Shear Modulus (GPa) = 6.46230 13.96625 10.21427
#
# Velocity S-wave (km/s) = 2.10101 3.08870 2.64143
# Velocity P-wave (km/s) = 4.00950 6.95859 5.67882
#
# Compressibility (1/GPa) = 0.06703156
#
# Stress axis : x y z
#
# Youngs Moduli (GPa) = 55.41612 65.56732 12.81044
#
# Poissons Ratio (x) = 0.70141 0.07276
# Poissons Ratio (y) = 0.59282 0.07412
# Poissons Ratio (z) = 0.31475 0.37937
#
# Static dielectric constant tensor:
#      x y z
#    x 2.953750 0.000000 0.000000 
#    y 0.000000 3.112520 0.000000 
#    z 0.000000 0.000000 2.310000 
# 
# 
# High freq. dielectric constant tensor:
#      x y z
#    x 1.557340 0.000000 0.000000 
#    y 0.000000 1.572510 0.000000 
#    z 0.000000 0.000000 1.476330 
# 
# From -- ./inp_files/27709.got.cif
#   From: 2010.03.12/outbox.cif.g09.slc.cpg/sg65_14_cif.got.tgz:27709.got - 2010.04.10 20:52:16.
