data_PCOD8267136
_publ_section_title
;
Structure prediction by ZEFSAII (Michael W. Deem and Ramdas Pophale) SiO2 
 PCOD8267136
Probable space group: C M M M
;
_chemical_formula_sum "Si O2"
_cell_formula_units_Z 104
_cell_length_a 27.055630
_cell_length_b 8.928857
_cell_length_c 26.121072
_cell_angle_alpha 90.000000
_cell_angle_beta 90.000000
_cell_angle_gamma 90.000000
_cell_volume 6310.220206
_symmetry_space_group_name_H-M "C M M M"
_symmetry_group_IT_number 65
_symmetry_cell_setting 'orthorhombic'
loop_
_space_group_symop_operation_xyz
x,y,z
-x,-y,z
x,-y,-z
-x,y,-z
-x,-y,-z
x,y,-z
-x,y,z
x,-y,z
1/2+x,1/2+y,z
1/2-x,1/2-y,z
1/2+x,1/2-y,-z
1/2-x,1/2+y,-z
1/2-x,1/2-y,-z
1/2+x,1/2+y,-z
1/2-x,1/2+y,z
1/2+x,1/2-y,z
loop_
_atom_site_type_symbol
_atom_site_label
_atom_site_fract_x
_atom_site_fract_y
_atom_site_fract_z
Si Si1 0.944356 0.827683 0.844439
Si Si2 0.301615 0.674239 0.797517
Si Si3 0.395137 0.823537 0.752189
Si Si4 0.303215 0.824673 0.000000
Si Si5 0.558420 0.671565 0.656555
Si Si6 0.441332 0.831890 0.556190
Si Si7 0.649958 0.671355 0.905128
O O1 0.934500 0.726861 0.794989
O O2 0.906667 0.788966 0.890336
O O3 0.000000 0.799624 0.864235
O O4 0.935975 0.000000 0.827532
O O5 0.298530 0.500000 0.784744
O O6 0.250000 0.750000 0.784720
O O7 0.342463 0.746951 0.761194
O O8 0.315007 0.701681 0.856731
O O9 0.414839 0.776926 0.697063
O O10 0.388594 0.000000 0.754864
O O11 0.250000 0.750000 0.000000
O O12 0.334095 0.780246 0.950198
O O13 0.294740 0.000000 0.000000
O O14 0.500000 0.695287 0.661792
O O15 0.573262 0.500000 0.666016
O O16 0.577683 0.720077 0.600273
O O17 0.422144 0.778561 0.500000
O O18 0.500000 0.832023 0.555822
O O19 0.422093 0.000000 0.567516
O O20 0.654591 0.500000 0.923738
#
# Coordination Sequence:
#
# PCOD8267136 Si02
#       7
#    16  16  16   8  16  16  16
#     4   9  18  34  54  73  95 125 159 194 232 274
#     4  10  20  35  54  74  96 122 152 188 232 281
#     4  11  21  31  46  69  96 126 159 194 233 278
#     4  12  24  36  53  74  97 123 152 191 235 278
#     4  10  19  29  42  62  91 126 162 200 238 276
#     4   8  14  25  40  58  83 117 156 196 237 281
#     4   9  19  35  54  75  98 123 153 188 226 274
#
# _framework density 16.481200999999999
#
# number of rings (size 3 to 8) (size 9 to 14) (size 15 to 20)
#    0.000    2.308    0.000    5.308    0.000    7.692 
#    0.000    1.923    0.000    2.308    0.000    0.000 
#    0.000    0.615    0.000    2.308    0.000    3.538 
#
# Total GULP energy -644810.007662 kJ/mol
# GULP energy per Si atom -12400.192455 kJ/mol
# Density = 1.644369 g / cm^3
# Si number density = 16.481201 Si / 1000 Ang^3
#
#
#
# Elastic Constant Matrix: (Units=GPa)
#
#
# Indices 1 2 3 4 5 6 
#
# 1 95.4197 44.6935 40.9967 0.0000 0.0000 0.0000
# 2 44.6935 112.1450 54.5378 0.0000 0.0000 0.0000
# 3 40.9967 54.5378 100.2530 0.0000 0.0000 0.0000
# 4 0.0000 0.0000 0.0000 30.8142 0.0000 0.0000
# 5 0.0000 0.0000 0.0000 0.0000 13.0796 0.0000
# 6 0.0000 0.0000 0.0000 0.0000 0.0000 24.5218
#
#
#
# Elastic Compliance Matrix: (Units=1/GPa)
#
#
# Indices 1 2 3 4 5 6 
#
# 1 0.013779 -0.003741 -0.003600 0.000000 0.000000 0.000000
# 2 -0.003741 0.013140 -0.005619 0.000000 0.000000 0.000000
# 3 -0.003600 -0.005619 0.014503 0.000000 0.000000 0.000000
# 4 0.000000 0.000000 0.000000 0.032453 0.000000 0.000000
# 5 0.000000 0.000000 0.000000 0.000000 0.076455 0.000000
# 6 0.000000 0.000000 0.000000 0.000000 0.000000 0.040780
#
#
# Mechanical properties :
#
#
# Convention : Reuss Voigt Hill
#
# Bulk Modulus (GPa) = 64.49798 65.36374 64.93086
# Shear Modulus (GPa) = 22.50265 24.85575 23.67920
#
# Velocity S-wave (km/s) = 3.69908 3.88767 3.79455
# Velocity P-wave (km/s) = 7.58047 7.73936 7.66032
#
# Compressibility (1/GPa) = 0.01550436
#
# Stress axis : x y z
#
# Youngs Moduli (GPa) = 72.57583 76.10202 68.94990
#
# Poissons Ratio (x) = 0.28468 0.24819
# Poissons Ratio (y) = 0.27149 0.38740
# Poissons Ratio (z) = 0.26124 0.42759
#
# Static dielectric constant tensor:
#      x y z
#    x 2.990950 0.000000 0.000000 
#    y 0.000000 3.177630 0.000000 
#    z 0.000000 0.000000 3.155490 
# 
# 
# High freq. dielectric constant tensor:
#      x y z
#    x 1.609630 0.000000 0.000000 
#    y 0.000000 1.642600 0.000000 
#    z 0.000000 0.000000 1.627440 
# 
# From -- ./inp_files/71840.got.cif
#   From: 2010.03.12/outbox.cif.g09.slc.cpg/sg65_36_cif.got.tgz:71840.got - 2010.04.10 20:52:16.
