data_PCOD8267384
_publ_section_title
;
Structure prediction by ZEFSAII (Michael W. Deem and Ramdas Pophale) SiO2 
 PCOD8267384
Probable space group: C M M M
;
_chemical_formula_sum "Si O2"
_cell_formula_units_Z 80
_cell_length_a 18.235648
_cell_length_b 8.824320
_cell_length_c 26.264691
_cell_angle_alpha 90.000000
_cell_angle_beta 90.000000
_cell_angle_gamma 90.000000
_cell_volume 4226.440360
_symmetry_space_group_name_H-M "C M M M"
_symmetry_group_IT_number 65
_symmetry_cell_setting 'orthorhombic'
loop_
_space_group_symop_operation_xyz
x,y,z
-x,-y,z
x,-y,-z
-x,y,-z
-x,-y,-z
x,y,-z
-x,y,z
x,-y,z
1/2+x,1/2+y,z
1/2-x,1/2-y,z
1/2+x,1/2-y,-z
1/2-x,1/2+y,-z
1/2-x,1/2-y,-z
1/2+x,1/2+y,-z
1/2-x,1/2+y,z
1/2+x,1/2-y,z
loop_
_atom_site_type_symbol
_atom_site_label
_atom_site_fract_x
_atom_site_fract_y
_atom_site_fract_z
Si Si1 0.417614 0.818548 0.890878
Si Si2 0.917505 0.319890 0.500000
Si Si3 0.087098 0.666116 0.000000
Si Si4 0.670151 0.819912 0.598461
Si Si5 0.671020 0.180018 0.794374
Si Si6 0.917710 0.319891 0.696556
O O1 0.500000 0.761871 0.878576
O O2 0.363815 0.758539 0.847001
O O3 0.417449 0.000000 0.893196
O O4 0.390606 0.752699 0.946397
O O5 0.920872 0.500000 0.500000
O O6 0.875096 0.261047 0.450224
O O7 0.000000 0.253490 0.500000
O O8 0.123663 0.500000 0.000000
O O9 0.000000 0.649195 0.000000
O O10 0.750000 0.750000 0.596881
O O11 0.628283 0.759752 0.648478
O O12 0.676999 0.000000 0.598569
O O13 0.750000 0.250000 0.786847
O O14 0.620360 0.237375 0.748202
O O15 0.677091 0.000000 0.794607
O O16 0.920903 0.500000 0.695476
O O17 0.000000 0.253236 0.694133
#
# Coordination Sequence:
#
# PCOD8267384 Si02
#       6
#    16   8   8  16  16  16
#     4   8  13  23  41  63  84 109 144 183 218 252
#     4   9  17  30  49  71  92 119 158 194 218 249
#     4   7  10  18  35  60  85 105 134 181 224 250
#     4  10  19  31  49  71  95 121 148 183 225 267
#     4  10  19  30  45  65  90 117 144 178 219 263
#     4   9  17  30  49  70  88 112 151 191 220 252
#
# _framework density 18.928457000000002
#
# number of rings (size 3 to 8) (size 9 to 14) (size 15 to 20)
#    0.000    3.000    0.000    3.300    0.000    4.800 
#    0.000    0.500    0.000    6.600    0.000    0.000 
#    0.000    2.400    0.000    0.000    0.000    0.000 
#
# Total GULP energy -495725.560430 kJ/mol
# GULP energy per Si atom -12393.139011 kJ/mol
# Density = 1.888538 g / cm^3
# Si number density = 18.928457 Si / 1000 Ang^3
#
#
#
# Elastic Constant Matrix: (Units=GPa)
#
#
# Indices 1 2 3 4 5 6 
#
# 1 168.0258 15.4439 100.4552 0.0000 0.0000 0.0000
# 2 15.4439 7.9414 15.8237 0.0000 0.0000 0.0000
# 3 100.4552 15.8237 208.6408 0.0000 0.0000 0.0000
# 4 0.0000 0.0000 0.0000 5.1665 0.0000 0.0000
# 5 0.0000 0.0000 0.0000 0.0000 26.8056 0.0000
# 6 0.0000 0.0000 0.0000 0.0000 0.0000 23.6277
#
#
#
# Elastic Compliance Matrix: (Units=1/GPa)
#
#
# Indices 1 2 3 4 5 6 
#
# 1 0.009044 -0.010498 -0.003558 0.000000 0.000000 0.000000
# 2 -0.010498 0.160525 -0.007120 0.000000 0.000000 0.000000
# 3 -0.003558 -0.007120 0.007046 0.000000 0.000000 0.000000
# 4 0.000000 0.000000 0.000000 0.193555 0.000000 0.000000
# 5 0.000000 0.000000 0.000000 0.000000 0.037306 0.000000
# 6 0.000000 0.000000 0.000000 0.000000 0.000000 0.042323
#
#
# Mechanical properties :
#
#
# Convention : Reuss Voigt Hill
#
# Bulk Modulus (GPa) = 7.44807 72.00594 39.72701
# Shear Modulus (GPa) = 9.31264 27.97898 18.64581
#
# Velocity S-wave (km/s) = 2.22049 3.84883 3.14198
# Velocity P-wave (km/s) = 3.24307 7.60757 5.84776
#
# Compressibility (1/GPa) = 0.13426302
#
# Stress axis : x y z
#
# Youngs Moduli (GPa) = 110.57595 6.22955 141.92328
#
# Poissons Ratio (x) = 0.06540 0.50497
# Poissons Ratio (y) = 1.16078 1.01052
# Poissons Ratio (z) = 0.39344 0.04436
#
# Static dielectric constant tensor:
#      x y z
#    x 3.448700 0.000000 0.000000 
#    y 0.000000 2.756380 0.000000 
#    z 0.000000 0.000000 4.066890 
# 
# 
# High freq. dielectric constant tensor:
#      x y z
#    x 1.733080 0.000000 0.000000 
#    y 0.000000 1.658550 0.000000 
#    z 0.000000 0.000000 1.764930 
# 
# From -- ./inp_files/69740.got.cif
#   From: 2010.03.12/outbox.cif.g09.slc.cpg/sg65_35_cif.got.tgz:69740.got - 2010.04.10 20:52:16.
