data_PCOD8267444
_publ_section_title
;
Structure prediction by ZEFSAII (Michael W. Deem and Ramdas Pophale) SiO2 
 PCOD8267444
Probable space group: C M M M
;
_chemical_formula_sum "Si O2"
_cell_formula_units_Z 72
_cell_length_a 13.787584
_cell_length_b 34.072611
_cell_length_c 9.342043
_cell_angle_alpha 90.000000
_cell_angle_beta 90.000000
_cell_angle_gamma 90.000000
_cell_volume 4388.695490
_symmetry_space_group_name_H-M "C M M M"
_symmetry_group_IT_number 65
_symmetry_cell_setting 'orthorhombic'
loop_
_space_group_symop_operation_xyz
x,y,z
-x,-y,z
x,-y,-z
-x,y,-z
-x,-y,-z
x,y,-z
-x,y,z
x,-y,z
1/2+x,1/2+y,z
1/2-x,1/2-y,z
1/2+x,1/2-y,-z
1/2-x,1/2+y,-z
1/2-x,1/2-y,-z
1/2+x,1/2+y,-z
1/2-x,1/2+y,z
1/2+x,1/2-y,z
loop_
_atom_site_type_symbol
_atom_site_label
_atom_site_fract_x
_atom_site_fract_y
_atom_site_fract_z
Si Si1 0.384744 0.000000 0.661544
Si Si2 0.887571 0.575151 0.833929
Si Si3 0.114741 0.274477 0.339074
Si Si4 0.795759 0.343861 0.835605
Si Si5 0.890839 0.799996 0.163841
O O1 0.347184 0.038704 0.742601
O O2 0.500000 0.000000 0.664362
O O3 0.344315 0.000000 0.500000
O O4 0.823057 0.612338 0.787268
O O5 0.000000 0.584327 0.799764
O O6 0.873869 0.564656 0.000000
O O7 0.156415 0.274413 0.500000
O O8 0.145466 0.313759 0.260222
O O9 0.152755 0.235517 0.258290
O O10 0.000000 0.272984 0.338792
O O11 0.680042 0.337295 0.815409
O O12 0.827323 0.337309 0.000000
O O13 0.000000 0.812217 0.210385
O O14 0.890035 0.785479 0.000000
#
# Coordination Sequence:
#
# PCOD8267444 Si02
#       5
#     8  16  16  16  16
#     4   9  17  29  45  65  90 117 140 164 201 253
#     4   9  17  29  45  65  89 115 141 170 207 254
#     4  10  20  31  43  62  89 119 149 183 223 264
#     4  10  19  30  46  67  88 114 149 185 220 259
#     4   9  18  32  47  62  84 116 152 188 224 260
#
# _framework density 16.405787
#
# number of rings (size 3 to 8) (size 9 to 14) (size 15 to 20)
#    0.000    2.556    0.000    2.333    0.000    8.000 
#    0.000    2.222    0.000    0.000    0.000    0.778 
#    0.000    6.222    0.000    0.000    0.000    0.000 
#
# Total GULP energy -446389.973884 kJ/mol
# GULP energy per Si atom -12399.721497 kJ/mol
# Density = 1.636845 g / cm^3
# Si number density = 16.405787 Si / 1000 Ang^3
#
#
#
# Elastic Constant Matrix: (Units=GPa)
#
#
# Indices 1 2 3 4 5 6 
#
# 1 40.6747 53.8596 32.1504 0.0000 0.0000 0.0000
# 2 53.8596 149.6365 71.3035 0.0000 0.0000 0.0000
# 3 32.1504 71.3035 87.3284 0.0000 0.0000 0.0000
# 4 0.0000 0.0000 0.0000 6.9960 0.0000 0.0000
# 5 0.0000 0.0000 0.0000 0.0000 13.7572 0.0000
# 6 0.0000 0.0000 0.0000 0.0000 0.0000 23.7440
#
#
#
# Elastic Compliance Matrix: (Units=1/GPa)
#
#
# Indices 1 2 3 4 5 6 
#
# 1 0.048780 -0.014732 -0.005930 0.000000 0.000000 0.000000
# 2 -0.014732 0.015388 -0.007141 0.000000 0.000000 0.000000
# 3 -0.005930 -0.007141 0.019465 0.000000 0.000000 0.000000
# 4 0.000000 0.000000 0.000000 0.142939 0.000000 0.000000
# 5 0.000000 0.000000 0.000000 0.000000 0.072689 0.000000
# 6 0.000000 0.000000 0.000000 0.000000 0.000000 0.042116
#
#
# Mechanical properties :
#
#
# Convention : Reuss Voigt Hill
#
# Bulk Modulus (GPa) = 35.67954 65.80743 50.74348
# Shear Modulus (GPa) = 12.30546 16.92118 14.61332
#
# Velocity S-wave (km/s) = 2.74171 3.21505 2.98777
# Velocity P-wave (km/s) = 5.64074 7.34721 6.54979
#
# Compressibility (1/GPa) = 0.02802727
#
# Stress axis : x y z
#
# Youngs Moduli (GPa) = 20.50026 64.98556 51.37557
#
# Poissons Ratio (x) = 0.95736 0.30465
# Poissons Ratio (y) = 0.30201 0.36686
# Poissons Ratio (z) = 0.12157 0.46404
#
# Static dielectric constant tensor:
#      x y z
#    x 3.044490 0.000000 0.000000 
#    y 0.000000 3.031470 0.000000 
#    z 0.000000 0.000000 3.278160 
# 
# 
# High freq. dielectric constant tensor:
#      x y z
#    x 1.612110 0.000000 0.000000 
#    y 0.000000 1.616020 0.000000 
#    z 0.000000 0.000000 1.636460 
# 
# From -- ./inp_files/7292.got.cif
#   From: 2010.03.12/outbox.cif.g09.slc.cpg/sg65_4_cif.got.tgz:7292.got - 2010.04.10 20:52:16.
