data_PCOD8267495
_publ_section_title
;
Structure prediction by ZEFSAII (Michael W. Deem and Ramdas Pophale) SiO2 
 PCOD8267495
Probable space group: C M M M
;
_chemical_formula_sum "Si O2"
_cell_formula_units_Z 96
_cell_length_a 26.806421
_cell_length_b 15.548199
_cell_length_c 14.090240
_cell_angle_alpha 90.000000
_cell_angle_beta 90.000000
_cell_angle_gamma 90.000000
_cell_volume 5872.693226
_symmetry_space_group_name_H-M "C M M M"
_symmetry_group_IT_number 65
_symmetry_cell_setting 'orthorhombic'
loop_
_space_group_symop_operation_xyz
x,y,z
-x,-y,z
x,-y,-z
-x,y,-z
-x,-y,-z
x,y,-z
-x,y,z
x,-y,z
1/2+x,1/2+y,z
1/2-x,1/2-y,z
1/2+x,1/2-y,-z
1/2-x,1/2+y,-z
1/2-x,1/2-y,-z
1/2+x,1/2+y,-z
1/2-x,1/2+y,z
1/2+x,1/2-y,z
loop_
_atom_site_type_symbol
_atom_site_label
_atom_site_fract_x
_atom_site_fract_y
_atom_site_fract_z
Si Si1 0.629108 0.642197 0.890404
Si Si2 0.445272 0.500000 0.887340
Si Si3 0.309224 0.253760 0.394235
Si Si4 0.393345 0.161273 0.111077
Si Si5 0.205114 0.902940 0.259409
Si Si6 0.679702 0.097638 0.733618
Si Si7 0.000000 0.595848 0.112317
O O1 0.583303 0.585052 0.851987
O O2 0.616462 0.739819 0.868661
O O3 0.679849 0.612818 0.841452
O O4 0.638356 0.624434 0.000000
O O5 0.500000 0.500000 0.840512
O O6 0.449964 0.500000 0.000000
O O7 0.332020 0.261161 0.500000
O O8 0.250000 0.250000 0.400543
O O9 0.321532 0.339684 0.334912
O O10 0.333856 0.168546 0.346456
O O11 0.354289 0.106599 0.172763
O O12 0.449730 0.143156 0.146689
O O13 0.386318 0.136992 0.000000
O O14 0.263028 0.883820 0.239583
O O15 0.197196 0.000000 0.296523
O O16 0.673184 0.000000 0.694029
O O17 0.000000 0.500000 0.155007
O O18 0.000000 0.593338 0.000000
#
# Coordination Sequence:
#
# PCOD8267495 Si02
#       7
#    16   8  16  16  16  16   8
#     4  10  19  30  46  69  99 133 163 195 236 283
#     4   9  18  30  46  68  97 131 167 202 235 273
#     4   9  18  33  50  69  96 126 158 201 249 291
#     4  10  20  32  48  70  98 131 166 201 238 282
#     4  10  19  32  49  71 100 130 162 198 237 290
#     4  10  20  32  49  72  98 129 164 199 238 288
#     4   9  18  32  48  65  92 126 161 203 244 278
#
# _framework density 16.346844000000001
#
# number of rings (size 3 to 8) (size 9 to 14) (size 15 to 20)
#    0.000    2.333    2.500    0.500    1.167    2.333 
#    0.000    6.667    0.000    0.000    0.000    0.583 
#    0.000    2.667    0.000    0.000    0.000    0.000 
#
# Total GULP energy -595023.579732 kJ/mol
# GULP energy per Si atom -12396.324578 kJ/mol
# Density = 1.630964 g / cm^3
# Si number density = 16.346844 Si / 1000 Ang^3
#
#
#
# Elastic Constant Matrix: (Units=GPa)
#
#
# Indices 1 2 3 4 5 6 
#
# 1 79.5957 38.2805 40.9271 0.0000 0.0000 0.0000
# 2 38.2805 115.6471 40.5388 0.0000 0.0000 0.0000
# 3 40.9271 40.5388 66.8203 0.0000 0.0000 0.0000
# 4 0.0000 0.0000 0.0000 16.9662 0.0000 0.0000
# 5 0.0000 0.0000 0.0000 0.0000 5.4236 0.0000
# 6 0.0000 0.0000 0.0000 0.0000 0.0000 21.7911
#
#
#
# Elastic Compliance Matrix: (Units=1/GPa)
#
#
# Indices 1 2 3 4 5 6 
#
# 1 0.019033 -0.002812 -0.009952 0.000000 0.000000 0.000000
# 2 -0.002812 0.011398 -0.005193 0.000000 0.000000 0.000000
# 3 -0.009952 -0.005193 0.024211 0.000000 0.000000 0.000000
# 4 0.000000 0.000000 0.000000 0.058941 0.000000 0.000000
# 5 0.000000 0.000000 0.000000 0.000000 0.184378 0.000000
# 6 0.000000 0.000000 0.000000 0.000000 0.000000 0.045890
#
#
# Mechanical properties :
#
#
# Convention : Reuss Voigt Hill
#
# Bulk Modulus (GPa) = 53.39122 55.72842 54.55982
# Shear Modulus (GPa) = 12.95314 18.32398 15.63856
#
# Velocity S-wave (km/s) = 2.81800 3.35169 3.09637
# Velocity P-wave (km/s) = 6.58184 7.01026 6.79942
#
# Compressibility (1/GPa) = 0.01872967
#
# Stress axis : x y z
#
# Youngs Moduli (GPa) = 52.54110 87.73498 41.30306
#
# Poissons Ratio (x) = 0.24667 0.41103
# Poissons Ratio (y) = 0.14772 0.21448
# Poissons Ratio (z) = 0.52287 0.45560
#
# Static dielectric constant tensor:
#      x y z
#    x 3.079400 0.000000 0.000000 
#    y 0.000000 3.369430 0.000000 
#    z 0.000000 0.000000 2.943680 
# 
# 
# High freq. dielectric constant tensor:
#      x y z
#    x 1.610240 0.000000 0.000000 
#    y 0.000000 1.651020 0.000000 
#    z 0.000000 0.000000 1.593670 
# 
# From -- ./inp_files/33874.got.cif
#   From: 2010.03.12/outbox.cif.g09.slc.cpg/sg65_17_cif.got.tgz:33874.got - 2010.04.10 20:52:16.
