data_PCOD8267030
_publ_section_title
;
Structure prediction by ZEFSAII (Michael W. Deem and Ramdas Pophale) SiO2 
 PCOD8267030
Probable space group: C M M M
;
_chemical_formula_sum "Si O2"
_cell_formula_units_Z 96
_cell_length_a 9.363317
_cell_length_b 27.278754
_cell_length_c 23.916879
_cell_angle_alpha 90.000000
_cell_angle_beta 90.000000
_cell_angle_gamma 90.000000
_cell_volume 6108.840171
_symmetry_space_group_name_H-M "C M M M"
_symmetry_group_IT_number 65
_symmetry_cell_setting 'orthorhombic'
loop_
_space_group_symop_operation_xyz
x,y,z
-x,-y,z
x,-y,-z
-x,y,-z
-x,-y,-z
x,y,-z
-x,y,z
x,-y,z
1/2+x,1/2+y,z
1/2-x,1/2-y,z
1/2+x,1/2-y,-z
1/2-x,1/2+y,-z
1/2-x,1/2-y,-z
1/2+x,1/2+y,-z
1/2-x,1/2+y,z
1/2+x,1/2-y,z
loop_
_atom_site_type_symbol
_atom_site_label
_atom_site_fract_x
_atom_site_fract_y
_atom_site_fract_z
Si Si1 0.330621 0.553627 0.380862
Si Si2 0.829736 0.149068 0.561658
Si Si3 0.340113 0.558132 0.061559
Si Si4 0.167681 0.442889 0.832555
Si Si5 0.665561 0.297444 0.329228
Si Si6 0.334794 0.603043 0.732769
O O1 0.500000 0.552275 0.385183
O O2 0.265929 0.500000 0.395256
O O3 0.271462 0.594373 0.424036
O O4 0.287642 0.567936 0.317936
O O5 0.773511 0.164481 0.500000
O O6 0.776348 0.186795 0.609074
O O7 0.000000 0.147679 0.563374
O O8 0.500000 0.576780 0.076049
O O9 0.339096 0.500000 0.060071
O O10 0.230051 0.576591 0.108500
O O11 0.293997 0.577962 0.000000
O O12 0.205836 0.500000 0.822546
O O13 0.236370 0.409698 0.784819
O O14 0.000000 0.434001 0.833175
O O15 0.500000 0.283913 0.332853
O O16 0.750000 0.250000 0.308340
O O17 0.691267 0.340711 0.284899
O O18 0.500000 0.594355 0.748626
#
# Coordination Sequence:
#
# PCOD8267030 Si02
#       6
#    16  16  16  16  16  16
#     4   8  13  21  35  55  77 104 137 169 202 240
#     4   8  14  24  37  56  82 106 130 164 204 249
#     4   8  14  25  40  57  80 115 155 184 205 235
#     4  10  19  27  38  61  90 117 145 177 212 245
#     4   9  18  31  46  63  81 104 134 170 216 263
#     4   9  17  29  43  58  79 108 142 176 209 252
#
# _framework density 15.714930000000001
#
# number of rings (size 3 to 8) (size 9 to 14) (size 15 to 20)
#    0.000    3.333    0.000    3.500    0.000    3.333 
#    0.000    3.333    0.000    0.000    0.000    0.000 
#    0.000    0.667    0.000   19.833    0.000   16.000 
#
# Total GULP energy -594828.974534 kJ/mol
# GULP energy per Si atom -12392.270303 kJ/mol
# Density = 1.567916 g / cm^3
# Si number density = 15.714930 Si / 1000 Ang^3
#
#
#
# Elastic Constant Matrix: (Units=GPa)
#
#
# Indices 1 2 3 4 5 6 
#
# 1 55.2626 28.1291 47.4712 0.0000 0.0000 0.0000
# 2 28.1291 65.3493 24.6651 0.0000 0.0000 0.0000
# 3 47.4712 24.6651 105.7970 0.0000 0.0000 0.0000
# 4 0.0000 0.0000 0.0000 12.6540 0.0000 0.0000
# 5 0.0000 0.0000 0.0000 0.0000 11.1720 0.0000
# 6 0.0000 0.0000 0.0000 0.0000 0.0000 18.8770
#
#
#
# Elastic Compliance Matrix: (Units=1/GPa)
#
#
# Indices 1 2 3 4 5 6 
#
# 1 0.034390 -0.009845 -0.013136 0.000000 0.000000 0.000000
# 2 -0.009845 0.019597 -0.000151 0.000000 0.000000 0.000000
# 3 -0.013136 -0.000151 0.015381 0.000000 0.000000 0.000000
# 4 0.000000 0.000000 0.000000 0.079026 0.000000 0.000000
# 5 0.000000 0.000000 0.000000 0.000000 0.089509 0.000000
# 6 0.000000 0.000000 0.000000 0.000000 0.000000 0.052975
#
#
# Mechanical properties :
#
#
# Convention : Reuss Voigt Hill
#
# Bulk Modulus (GPa) = 43.28142 47.43774 45.35958
# Shear Modulus (GPa) = 14.49925 16.95017 15.72471
#
# Velocity S-wave (km/s) = 3.04080 3.28777 3.16669
# Velocity P-wave (km/s) = 6.31902 6.68315 6.50363
#
# Compressibility (1/GPa) = 0.02310460
#
# Stress axis : x y z
#
# Youngs Moduli (GPa) = 29.07786 51.02743 65.01385
#
# Poissons Ratio (x) = 0.50238 0.85400
# Poissons Ratio (y) = 0.28628 0.00984
# Poissons Ratio (z) = 0.38196 0.00772
#
# Static dielectric constant tensor:
#      x y z
#    x 2.680610 0.000000 0.000000 
#    y 0.000000 2.857830 0.000000 
#    z 0.000000 0.000000 3.183990 
# 
# 
# High freq. dielectric constant tensor:
#      x y z
#    x 1.570760 0.000000 0.000000 
#    y 0.000000 1.573630 0.000000 
#    z 0.000000 0.000000 1.603270 
# 
# From -- ./inp_files/68064.got.cif
#   From: 2010.03.12/outbox.cif.g09.slc.cpg/sg65_35_cif.got.tgz:68064.got - 2010.04.10 20:52:16.
