data_PCOD8267047
_publ_section_title
;
Structure prediction by ZEFSAII (Michael W. Deem and Ramdas Pophale) SiO2 
 PCOD8267047
Probable space group: C M M M
;
_chemical_formula_sum "Si O2"
_cell_formula_units_Z 80
_cell_length_a 8.955951
_cell_length_b 30.748194
_cell_length_c 18.743308
_cell_angle_alpha 90.000000
_cell_angle_beta 90.000000
_cell_angle_gamma 90.000000
_cell_volume 5161.519389
_symmetry_space_group_name_H-M "C M M M"
_symmetry_group_IT_number 65
_symmetry_cell_setting 'orthorhombic'
loop_
_space_group_symop_operation_xyz
x,y,z
-x,-y,z
x,-y,-z
-x,y,-z
-x,-y,-z
x,y,-z
-x,y,z
x,-y,z
1/2+x,1/2+y,z
1/2-x,1/2-y,z
1/2+x,1/2-y,-z
1/2-x,1/2+y,-z
1/2-x,1/2-y,-z
1/2+x,1/2+y,-z
1/2-x,1/2+y,z
1/2+x,1/2-y,z
loop_
_atom_site_type_symbol
_atom_site_label
_atom_site_fract_x
_atom_site_fract_y
_atom_site_fract_z
Si Si1 0.331761 0.342069 0.703265
Si Si2 0.327573 0.795646 0.418259
Si Si3 0.668204 0.706122 0.160250
Si Si4 0.829317 0.050142 0.082359
Si Si5 0.176042 0.621720 0.828775
O O1 0.500000 0.357691 0.686328
O O2 0.247038 0.332876 0.629679
O O3 0.333987 0.298576 0.753154
O O4 0.245242 0.379614 0.748315
O O5 0.306180 0.810064 0.500000
O O6 0.500000 0.790756 0.397721
O O7 0.250000 0.750000 0.403222
O O8 0.500000 0.706743 0.129534
O O9 0.750000 0.750000 0.136656
O O10 0.756054 0.663868 0.129176
O O11 0.718127 0.077985 0.130383
O O12 0.000000 0.063671 0.098067
O O13 0.803715 0.000000 0.102112
O O14 0.790402 0.058342 0.000000
O O15 0.000000 0.626538 0.823839
#
# Coordination Sequence:
#
# PCOD8267047 Si02
#       5
#    16  16  16  16  16
#     4   9  18  29  43  60  84 119 158 196 232 274
#     4  10  19  28  39  58  86 120 158 199 241 282
#     4   9  17  27  42  63  86 116 154 192 228 268
#     4   9  18  34  55  76  99 126 152 182 227 282
#     4  10  19  30  46  69  96 123 155 195 233 275
#
# _framework density 15.499313000000001
#
# number of rings (size 3 to 8) (size 9 to 14) (size 15 to 20)
#    1.200    1.400    0.000    4.200    0.000    3.600 
#    0.000    1.000    0.000    0.600    0.000    0.000 
#    0.000    0.800    0.000    8.400    0.000    3.600 
#
# Total GULP energy -495695.329354 kJ/mol
# GULP energy per Si atom -12392.383234 kJ/mol
# Density = 1.546404 g / cm^3
# Si number density = 15.499313 Si / 1000 Ang^3
#
#
#
# Elastic Constant Matrix: (Units=GPa)
#
#
# Indices 1 2 3 4 5 6 
#
# 1 148.0848 46.9061 45.1030 0.0000 0.0000 0.0000
# 2 46.9061 65.6338 37.0718 0.0000 0.0000 0.0000
# 3 45.1030 37.0718 58.1563 0.0000 0.0000 0.0000
# 4 0.0000 0.0000 0.0000 -0.0197 0.0000 0.0000
# 5 0.0000 0.0000 0.0000 0.0000 23.7132 0.0000
# 6 0.0000 0.0000 0.0000 0.0000 0.0000 26.8142
#
#
#
# Elastic Compliance Matrix: (Units=1/GPa)
#
#
# Indices 1 2 3 4 5 6 
#
# 1 0.009500 -0.004106 -0.004750 0.000000 0.000000 0.000000
# 2 -0.004106 0.025583 -0.013123 0.000000 0.000000 0.000000
# 3 -0.004750 -0.013123 0.029245 0.000000 0.000000 0.000000
# 4 0.000000 0.000000 0.000000-50.801549 0.000000 0.000000
# 5 0.000000 0.000000 0.000000 0.000000 0.042171 0.000000
# 6 0.000000 0.000000 0.000000 0.000000 0.000000 0.037294
#
#
# Mechanical properties :
#
#
# Convention : Reuss Voigt Hill
#
# Bulk Modulus (GPa) = 49.09652 58.89295 53.99473
# Shear Modulus (GPa) = -0.09880 19.62113 9.76116
#
# Velocity S-wave (km/s) = -0.25275 3.56186 2.51227
# Velocity P-wave (km/s) = 5.62674 7.41589 6.58238
#
# Compressibility (1/GPa) = 0.02036804
#
# Stress axis : x y z
#
# Youngs Moduli (GPa) = 105.25785 39.08818 34.19428
#
# Poissons Ratio (x) = 0.16052 0.16244
# Poissons Ratio (y) = 0.43224 0.44874
# Poissons Ratio (z) = 0.50002 0.51296
#
# Static dielectric constant tensor:
#      x y z
#    x 3.011360 0.000000 0.000000 
#    y 0.000000 2.619240 0.000000 
#    z 0.000000 0.000000 2.719000 
# 
# 
# High freq. dielectric constant tensor:
#      x y z
#    x 1.612860 0.000000 0.000000 
#    y 0.000000 1.558130 0.000000 
#    z 0.000000 0.000000 1.568060 
# 
# From -- ./inp_files/49867.got.cif
#   From: 2010.03.12/outbox.cif.g09.slc.cpg/sg65_25_cif.got.tgz:49867.got - 2010.04.10 20:52:16.
