data_PCOD8267539
_publ_section_title
;
Structure prediction by ZEFSAII (Michael W. Deem and Ramdas Pophale) SiO2 
 PCOD8267539
Probable space group: C M M M
;
_chemical_formula_sum "Si O2"
_cell_formula_units_Z 88
_cell_length_a 30.194580
_cell_length_b 13.046602
_cell_length_c 12.985445
_cell_angle_alpha 90.000000
_cell_angle_beta 90.000000
_cell_angle_gamma 90.000000
_cell_volume 5115.442933
_symmetry_space_group_name_H-M "C M M M"
_symmetry_group_IT_number 65
_symmetry_cell_setting 'orthorhombic'
loop_
_space_group_symop_operation_xyz
x,y,z
-x,-y,z
x,-y,-z
-x,y,-z
-x,-y,-z
x,y,-z
-x,y,z
x,-y,z
1/2+x,1/2+y,z
1/2-x,1/2-y,z
1/2+x,1/2-y,-z
1/2-x,1/2+y,-z
1/2-x,1/2-y,-z
1/2+x,1/2+y,-z
1/2-x,1/2+y,z
1/2+x,1/2-y,z
loop_
_atom_site_type_symbol
_atom_site_label
_atom_site_fract_x
_atom_site_fract_y
_atom_site_fract_z
Si Si1 0.820919 0.724293 0.303787
Si Si2 0.636451 0.118546 0.882838
Si Si3 0.242249 0.884451 0.617237
Si Si4 0.084728 0.781966 0.381194
Si Si5 0.449548 0.500000 0.622169
Si Si6 0.549321 0.884385 0.765852
O O1 0.833007 0.690467 0.188080
O O2 0.787891 0.821138 0.303034
O O3 0.794417 0.632012 0.359666
O O4 0.864043 0.753890 0.368170
O O5 0.584826 0.136370 0.855784
O O6 0.649617 0.000000 0.866209
O O7 0.644161 0.152738 0.000000
O O8 0.231977 0.850365 0.500000
O O9 0.228980 0.000000 0.635159
O O10 0.071313 0.777568 0.500000
O O11 0.054913 0.697234 0.325230
O O12 0.074874 0.896667 0.336988
O O13 0.500000 0.500000 0.662677
O O14 0.447966 0.500000 0.500000
O O15 0.500000 0.872438 0.812639
O O16 0.556110 0.000000 0.721631
#
# Coordination Sequence:
#
# PCOD8267539 Si02
#       6
#    16  16  16  16   8  16
#     4  10  19  33  50  73  99 127 169 210 253 298
#     4   9  18  33  53  74  97 128 166 211 260 306
#     4  10  20  33  51  74 105 138 165 199 243 300
#     4  10  19  30  47  70 100 136 171 208 249 301
#     4   9  18  30  44  66  97 135 175 209 240 284
#     4   9  18  31  47  71 100 129 165 208 254 306
#
# _framework density 17.202809999999999
#
# number of rings (size 3 to 8) (size 9 to 14) (size 15 to 20)
#    0.000    2.455    0.000    3.273    1.273    2.545 
#    0.000    4.545    0.000    1.636    0.000    0.000 
#    0.000    6.909    0.000    0.000    0.000    0.000 
#
# Total GULP energy -545379.405892 kJ/mol
# GULP energy per Si atom -12394.986498 kJ/mol
# Density = 1.716366 g / cm^3
# Si number density = 17.202810 Si / 1000 Ang^3
#
#
#
# Elastic Constant Matrix: (Units=GPa)
#
#
# Indices 1 2 3 4 5 6 
#
# 1 105.0625 42.2515 42.3256 0.0000 0.0000 0.0000
# 2 42.2515 112.1736 59.4011 0.0000 0.0000 0.0000
# 3 42.3256 59.4011 95.4222 0.0000 0.0000 0.0000
# 4 0.0000 0.0000 0.0000 22.4785 0.0000 0.0000
# 5 0.0000 0.0000 0.0000 0.0000 16.1787 0.0000
# 6 0.0000 0.0000 0.0000 0.0000 0.0000 24.0191
#
#
#
# Elastic Compliance Matrix: (Units=1/GPa)
#
#
# Indices 1 2 3 4 5 6 
#
# 1 0.012059 -0.002550 -0.003761 0.000000 0.000000 0.000000
# 2 -0.002550 0.013838 -0.007483 0.000000 0.000000 0.000000
# 3 -0.003761 -0.007483 0.016806 0.000000 0.000000 0.000000
# 4 0.000000 0.000000 0.000000 0.044487 0.000000 0.000000
# 5 0.000000 0.000000 0.000000 0.000000 0.061810 0.000000
# 6 0.000000 0.000000 0.000000 0.000000 0.000000 0.041634
#
#
# Mechanical properties :
#
#
# Convention : Reuss Voigt Hill
#
# Bulk Modulus (GPa) = 66.16382 66.73497 66.44940
# Shear Modulus (GPa) = 22.39529 23.78058 23.08794
#
# Velocity S-wave (km/s) = 3.61201 3.72205 3.66745
# Velocity P-wave (km/s) = 7.47931 7.57290 7.52625
#
# Compressibility (1/GPa) = 0.01511400
#
# Stress axis : x y z
#
# Youngs Moduli (GPa) = 82.92505 72.26486 59.50143
#
# Poissons Ratio (x) = 0.18431 0.22380
# Poissons Ratio (y) = 0.21149 0.44525
# Poissons Ratio (z) = 0.31190 0.54076
#
# Static dielectric constant tensor:
#      x y z
#    x 3.355790 0.000000 0.000000 
#    y 0.000000 3.375890 0.000000 
#    z 0.000000 0.000000 2.889920 
# 
# 
# High freq. dielectric constant tensor:
#      x y z
#    x 1.673750 0.000000 0.000000 
#    y 0.000000 1.671900 0.000000 
#    z 0.000000 0.000000 1.625380 
# 
# From -- ./inp_files/33799.got.cif
#   From: 2010.03.12/outbox.cif.g09.slc.cpg/sg65_17_cif.got.tgz:33799.got - 2010.04.10 20:52:16.
