data_PCOD8267616
_publ_section_title
;
Structure prediction by ZEFSAII (Michael W. Deem and Ramdas Pophale) SiO2 
 PCOD8267616
Probable space group: C M M M
;
_chemical_formula_sum "Si O2"
_cell_formula_units_Z 80
_cell_length_a 25.603834
_cell_length_b 19.466302
_cell_length_c 9.088131
_cell_angle_alpha 90.000000
_cell_angle_beta 90.000000
_cell_angle_gamma 90.000000
_cell_volume 4529.633230
_symmetry_space_group_name_H-M "C M M M"
_symmetry_group_IT_number 65
_symmetry_cell_setting 'orthorhombic'
loop_
_space_group_symop_operation_xyz
x,y,z
-x,-y,z
x,-y,-z
-x,y,-z
-x,-y,-z
x,y,-z
-x,y,z
x,-y,z
1/2+x,1/2+y,z
1/2-x,1/2-y,z
1/2+x,1/2-y,-z
1/2-x,1/2+y,-z
1/2-x,1/2-y,-z
1/2+x,1/2+y,-z
1/2-x,1/2+y,z
1/2+x,1/2-y,z
loop_
_atom_site_type_symbol
_atom_site_label
_atom_site_fract_x
_atom_site_fract_y
_atom_site_fract_z
Si Si1 0.939730 0.579330 0.830350
Si Si2 0.148288 0.826573 0.327106
Si Si3 0.354495 0.832307 0.672510
Si Si4 0.057736 0.923304 0.674876
Si Si5 0.251111 0.168336 0.833952
O O1 0.927336 0.500000 0.796339
O O2 0.904741 0.626580 0.726874
O O3 0.000000 0.595474 0.794568
O O4 0.927425 0.596086 0.000000
O O5 0.156296 0.836847 0.500000
O O6 0.137418 0.747483 0.288059
O O7 0.099436 0.869205 0.263012
O O8 0.199524 0.857548 0.249289
O O9 0.347408 0.843791 0.500000
O O10 0.302444 0.860322 0.752199
O O11 0.057660 0.920688 0.500000
O O12 0.000000 0.903353 0.733582
O O13 0.072494 0.000000 0.728417
O O14 0.250000 0.250000 0.829745
O O15 0.251360 0.140023 0.000000
#
# Coordination Sequence:
#
# PCOD8267616 Si02
#       5
#    16  16  16  16  16
#     4   9  19  36  54  70  93 127 162 195 235 285
#     4   9  17  29  47  72  99 124 156 201 244 279
#     4  10  19  30  48  74 100 124 154 196 243 288
#     4   8  14  26  45  68  94 125 158 190 228 275
#     4   9  17  30  48  68  93 127 163 196 235 285
#
# _framework density 17.661473999999998
#
# number of rings (size 3 to 8) (size 9 to 14) (size 15 to 20)
#    0.000    3.000    0.000    2.400    0.000    4.800 
#    0.000    4.000    0.000    4.800    0.000    1.400 
#    0.000    0.000    0.000    0.000    0.000    0.000 
#
# Total GULP energy -495921.548480 kJ/mol
# GULP energy per Si atom -12398.038712 kJ/mol
# Density = 1.762128 g / cm^3
# Si number density = 17.661474 Si / 1000 Ang^3
#
#
#
# Elastic Constant Matrix: (Units=GPa)
#
#
# Indices 1 2 3 4 5 6 
#
# 1 156.6920 69.8684 58.1874 0.0000 0.0000 0.0000
# 2 69.8684 65.4589 36.7559 0.0000 0.0000 0.0000
# 3 58.1874 36.7559 73.0309 0.0000 0.0000 0.0000
# 4 0.0000 0.0000 0.0000 16.5867 0.0000 0.0000
# 5 0.0000 0.0000 0.0000 0.0000 31.4884 0.0000
# 6 0.0000 0.0000 0.0000 0.0000 0.0000 10.4522
#
#
#
# Elastic Compliance Matrix: (Units=1/GPa)
#
#
# Indices 1 2 3 4 5 6 
#
# 1 0.013287 -0.011483 -0.004807 0.000000 0.000000 0.000000
# 2 -0.011483 0.031219 -0.006563 0.000000 0.000000 0.000000
# 3 -0.004807 -0.006563 0.020826 0.000000 0.000000 0.000000
# 4 0.000000 0.000000 0.000000 0.060289 0.000000 0.000000
# 5 0.000000 0.000000 0.000000 0.000000 0.031758 0.000000
# 6 0.000000 0.000000 0.000000 0.000000 0.000000 0.095674
#
#
# Mechanical properties :
#
#
# Convention : Reuss Voigt Hill
#
# Bulk Modulus (GPa) = 50.95445 69.42280 60.18862
# Shear Modulus (GPa) = 16.37726 20.39680 18.38703
#
# Velocity S-wave (km/s) = 3.04844 3.40203 3.23008
# Velocity P-wave (km/s) = 6.42681 7.40436 6.93284
#
# Compressibility (1/GPa) = 0.01962537
#
# Stress axis : x y z
#
# Youngs Moduli (GPa) = 75.25896 32.03228 48.01642
#
# Poissons Ratio (x) = 0.36783 0.23084
# Poissons Ratio (y) = 0.86421 0.31513
# Poissons Ratio (z) = 0.36180 0.21022
#
# Static dielectric constant tensor:
#      x y z
#    x 3.534730 0.000000 0.000000 
#    y 0.000000 3.111420 0.000000 
#    z 0.000000 0.000000 3.105730 
# 
# 
# High freq. dielectric constant tensor:
#      x y z
#    x 1.696240 0.000000 0.000000 
#    y 0.000000 1.657070 0.000000 
#    z 0.000000 0.000000 1.665910 
# 
# From -- ./inp_files/9637.got.cif
#   From: 2010.03.12/outbox.cif.g09.slc.cpg/sg65_5_cif.got.tgz:9637.got - 2010.04.10 20:52:16.
