data_PCOD8267579
_publ_section_title
;
Structure prediction by ZEFSAII (Michael W. Deem and Ramdas Pophale) SiO2 
 PCOD8267579
Probable space group: C M M M
;
_chemical_formula_sum "Si O2"
_cell_formula_units_Z 80
_cell_length_a 9.563315
_cell_length_b 29.343740
_cell_length_c 16.533580
_cell_angle_alpha 90.000000
_cell_angle_beta 90.000000
_cell_angle_gamma 90.000000
_cell_volume 4639.709912
_symmetry_space_group_name_H-M "C M M M"
_symmetry_group_IT_number 65
_symmetry_cell_setting 'orthorhombic'
loop_
_space_group_symop_operation_xyz
x,y,z
-x,-y,z
x,-y,-z
-x,y,-z
-x,-y,-z
x,y,-z
-x,y,z
x,-y,z
1/2+x,1/2+y,z
1/2-x,1/2-y,z
1/2+x,1/2-y,-z
1/2-x,1/2+y,-z
1/2-x,1/2-y,-z
1/2+x,1/2+y,-z
1/2-x,1/2+y,z
1/2+x,1/2-y,z
loop_
_atom_site_type_symbol
_atom_site_label
_atom_site_fract_x
_atom_site_fract_y
_atom_site_fract_z
Si Si1 0.333782 0.449096 0.089067
Si Si2 0.836129 0.626351 0.627220
Si Si3 0.665480 0.051833 0.500000
Si Si4 0.660381 0.706984 0.908683
Si Si5 0.664089 0.625531 0.210174
Si Si6 0.338395 0.796408 0.500000
O O1 0.500000 0.445838 0.087573
O O2 0.282815 0.500000 0.108371
O O3 0.276106 0.417507 0.160392
O O4 0.278456 0.434056 0.000000
O O5 0.787391 0.580893 0.578613
O O6 0.747590 0.629455 0.707736
O O7 0.804013 0.672528 0.577812
O O8 0.000000 0.623185 0.647193
O O9 0.500000 0.048587 0.500000
O O10 0.729150 0.000000 0.500000
O O11 0.500000 0.721450 0.902302
O O12 0.750000 0.750000 0.882860
O O13 0.698166 0.668214 0.845692
O O14 0.695764 0.690492 0.000000
O O15 0.500000 0.621300 0.229700
O O16 0.500000 0.781894 0.500000
O O17 0.250000 0.750000 0.500000
#
# Coordination Sequence:
#
# PCOD8267579 Si02
#       6
#    16  16   8  16  16   8
#     4   8  14  26  45  68  94 126 162 195 228 270
#     4   9  19  34  50  72  98 121 152 192 231 277
#     4   8  15  32  56  73  89 122 161 189 221 275
#     4   9  18  32  48  66  91 125 163 198 231 271
#     4  10  19  30  47  72  99 124 153 193 236 275
#     4   9  19  36  55  71  91 122 156 190 230 278
#
# _framework density 17.242457999999999
#
# number of rings (size 3 to 8) (size 9 to 14) (size 15 to 20)
#    0.000    3.100    0.000    2.400    0.000    5.600 
#    0.000    5.500    0.000    2.400    0.000    1.400 
#    0.000    0.000    0.000    0.000    0.000    0.000 
#
# Total GULP energy -495757.546627 kJ/mol
# GULP energy per Si atom -12393.938666 kJ/mol
# Density = 1.720321 g / cm^3
# Si number density = 17.242458 Si / 1000 Ang^3
#
#
#
# Elastic Constant Matrix: (Units=GPa)
#
#
# Indices 1 2 3 4 5 6 
#
# 1 46.0644 56.2839 62.4508 0.0000 0.0000 0.0000
# 2 56.2839 145.6580 88.9969 0.0000 0.0000 0.0000
# 3 62.4508 88.9969 156.9523 0.0000 0.0000 0.0000
# 4 0.0000 0.0000 0.0000 14.3375 0.0000 0.0000
# 5 0.0000 0.0000 0.0000 0.0000 30.2392 0.0000
# 6 0.0000 0.0000 0.0000 0.0000 0.0000 18.8742
#
#
#
# Elastic Compliance Matrix: (Units=1/GPa)
#
#
# Indices 1 2 3 4 5 6 
#
# 1 0.060100 -0.013178 -0.016441 0.000000 0.000000 0.000000
# 2 -0.013178 0.013394 -0.002352 0.000000 0.000000 0.000000
# 3 -0.016441 -0.002352 0.014247 0.000000 0.000000 0.000000
# 4 0.000000 0.000000 0.000000 0.069747 0.000000 0.000000
# 5 0.000000 0.000000 0.000000 0.000000 0.033070 0.000000
# 6 0.000000 0.000000 0.000000 0.000000 0.000000 0.052982
#
#
# Mechanical properties :
#
#
# Convention : Reuss Voigt Hill
#
# Bulk Modulus (GPa) = 42.01745 84.90420 63.46083
# Shear Modulus (GPa) = 15.85215 22.08639 18.96927
#
# Velocity S-wave (km/s) = 3.03540 3.58289 3.32045
# Velocity P-wave (km/s) = 6.05858 8.15257 7.18230
#
# Compressibility (1/GPa) = 0.02379963
#
# Stress axis : x y z
#
# Youngs Moduli (GPa) = 16.63897 74.65926 70.19118
#
# Poissons Ratio (x) = 0.98383 1.15405
# Poissons Ratio (y) = 0.21926 0.16506
# Poissons Ratio (z) = 0.27357 0.17557
#
# Static dielectric constant tensor:
#      x y z
#    x 2.867460 0.000000 0.000000 
#    y 0.000000 3.497700 0.000000 
#    z 0.000000 0.000000 3.238310 
# 
# 
# High freq. dielectric constant tensor:
#      x y z
#    x 1.629050 0.000000 0.000000 
#    y 0.000000 1.675500 0.000000 
#    z 0.000000 0.000000 1.670070 
# 
# From -- ./inp_files/50227.got.cif
#   From: 2010.03.12/outbox.cif.g09.slc.cpg/sg65_26_cif.got.tgz:50227.got - 2010.04.10 20:52:16.
