data_PCOD8267986
_publ_section_title
;
Structure prediction by ZEFSAII (Michael W. Deem and Ramdas Pophale) SiO2 
 PCOD8267986
Probable space group: C M M M
;
_chemical_formula_sum "Si O2"
_cell_formula_units_Z 104
_cell_length_a 18.598099
_cell_length_b 9.001823
_cell_length_c 33.192927
_cell_angle_alpha 90.000000
_cell_angle_beta 90.000000
_cell_angle_gamma 90.000000
_cell_volume 5557.053466
_symmetry_space_group_name_H-M "C M M M"
_symmetry_group_IT_number 65
_symmetry_cell_setting 'orthorhombic'
loop_
_space_group_symop_operation_xyz
x,y,z
-x,-y,z
x,-y,-z
-x,y,-z
-x,-y,-z
x,y,-z
-x,y,z
x,-y,z
1/2+x,1/2+y,z
1/2-x,1/2-y,z
1/2+x,1/2-y,-z
1/2-x,1/2+y,-z
1/2-x,1/2-y,-z
1/2+x,1/2+y,-z
1/2-x,1/2+y,z
1/2+x,1/2-y,z
loop_
_atom_site_type_symbol
_atom_site_label
_atom_site_fract_x
_atom_site_fract_y
_atom_site_fract_z
Si Si1 0.676238 0.175208 0.351977
Si Si2 0.173069 0.823688 0.881246
Si Si3 0.583501 0.172248 0.187020
Si Si4 0.322480 0.827542 0.261586
Si Si5 0.080338 0.176387 0.044691
Si Si6 0.419854 0.176346 0.424436
Si Si7 0.827407 0.676635 0.500000
O O1 0.750000 0.250000 0.365950
O O2 0.655633 0.225562 0.306533
O O3 0.613762 0.229620 0.381997
O O4 0.686970 0.000000 0.354986
O O5 0.250000 0.750000 0.876348
O O6 0.122744 0.777021 0.844611
O O7 0.136731 0.763421 0.922520
O O8 0.181884 0.000000 0.881294
O O9 0.500000 0.211738 0.186495
O O10 0.612673 0.210639 0.231510
O O11 0.597605 0.000000 0.176203
O O12 0.250000 0.750000 0.246162
O O13 0.304855 0.000000 0.261790
O O14 0.000000 0.236686 0.054494
O O15 0.078562 0.000000 0.046118
O O16 0.103985 0.230598 0.000000
O O17 0.500000 0.244057 0.428080
O O18 0.370908 0.233936 0.461040
O O19 0.424230 0.000000 0.426152
O O20 0.818395 0.500000 0.500000
O O21 0.750000 0.750000 0.500000
#
# Coordination Sequence:
#
# PCOD8267986 Si02
#       7
#    16  16  16  16  16  16   8
#     4   9  17  30  49  71  95 125 161 199 238 284
#     4  11  22  35  53  77 104 135 171 208 247 293
#     4  10  21  36  53  74 101 131 164 206 254 300
#     4   9  18  32  50  72  97 127 162 200 243 290
#     4   8  15  30  52  76 101 130 165 204 245 290
#     4   9  17  29  47  71  96 123 158 199 239 281
#     4  10  19  31  49  71  95 124 158 196 238 286
#
# _framework density 18.714955
#
# number of rings (size 3 to 8) (size 9 to 14) (size 15 to 20)
#    0.000    2.615    0.000    2.538    0.000    4.615 
#    0.000    3.077    0.000    3.692    0.000    9.692 
#    0.000    0.000    0.000    0.000    0.000    0.000 
#
# Total GULP energy -644734.430073 kJ/mol
# GULP energy per Si atom -12398.739040 kJ/mol
# Density = 1.867236 g / cm^3
# Si number density = 18.714955 Si / 1000 Ang^3
#
#
#
# Elastic Constant Matrix: (Units=GPa)
#
#
# Indices 1 2 3 4 5 6 
#
# 1 162.4506 34.8948 89.6957 0.0000 0.0000 0.0000
# 2 34.8948 30.9704 31.7589 0.0000 0.0000 0.0000
# 3 89.6957 31.7589 136.2612 0.0000 0.0000 0.0000
# 4 0.0000 0.0000 0.0000 19.5867 0.0000 0.0000
# 5 0.0000 0.0000 0.0000 0.0000 39.6807 0.0000
# 6 0.0000 0.0000 0.0000 0.0000 0.0000 19.3751
#
#
#
# Elastic Compliance Matrix: (Units=1/GPa)
#
#
# Indices 1 2 3 4 5 6 
#
# 1 0.010515 -0.006241 -0.005467 0.000000 0.000000 0.000000
# 2 -0.006241 0.046135 -0.006644 0.000000 0.000000 0.000000
# 3 -0.005467 -0.006644 0.012486 0.000000 0.000000 0.000000
# 4 0.000000 0.000000 0.000000 0.051055 0.000000 0.000000
# 5 0.000000 0.000000 0.000000 0.000000 0.025201 0.000000
# 6 0.000000 0.000000 0.000000 0.000000 0.000000 0.051613
#
#
# Mechanical properties :
#
#
# Convention : Reuss Voigt Hill
#
# Bulk Modulus (GPa) = 30.83511 71.37567 51.10539
# Shear Modulus (GPa) = 20.44828 27.28402 23.86615
#
# Velocity S-wave (km/s) = 3.30906 3.82235 3.57493
# Velocity P-wave (km/s) = 5.57780 7.59616 6.66384
#
# Compressibility (1/GPa) = 0.03243056
#
# Stress axis : x y z
#
# Youngs Moduli (GPa) = 95.10398 21.67575 80.08897
#
# Poissons Ratio (x) = 0.13528 0.43783
# Poissons Ratio (y) = 0.59356 0.53215
# Poissons Ratio (z) = 0.51992 0.14402
#
# Static dielectric constant tensor:
#      x y z
#    x 3.568430 0.000000 0.000000 
#    y 0.000000 3.092410 0.000000 
#    z 0.000000 0.000000 3.826950 
# 
# 
# High freq. dielectric constant tensor:
#      x y z
#    x 1.729690 0.000000 0.000000 
#    y 0.000000 1.688820 0.000000 
#    z 0.000000 0.000000 1.743560 
# 
# From -- ./inp_files/78215.got.cif
#   From: 2010.03.12/outbox.cif.g09.slc.cpg/sg65_40_cif.got.tgz:78215.got - 2010.04.10 20:52:16.
