data_PCOD8267193
_publ_section_title
;
Structure prediction by ZEFSAII (Michael W. Deem and Ramdas Pophale) SiO2 
 PCOD8267193
Probable space group: C M M M
;
_chemical_formula_sum "Si O2"
_cell_formula_units_Z 80
_cell_length_a 14.506370
_cell_length_b 25.396218
_cell_length_c 12.806899
_cell_angle_alpha 90.000000
_cell_angle_beta 90.000000
_cell_angle_gamma 90.000000
_cell_volume 4718.150406
_symmetry_space_group_name_H-M "C M M M"
_symmetry_group_IT_number 65
_symmetry_cell_setting 'orthorhombic'
loop_
_space_group_symop_operation_xyz
x,y,z
-x,-y,z
x,-y,-z
-x,y,-z
-x,-y,-z
x,y,-z
-x,y,z
x,-y,z
1/2+x,1/2+y,z
1/2-x,1/2-y,z
1/2+x,1/2-y,-z
1/2-x,1/2+y,-z
1/2-x,1/2-y,-z
1/2+x,1/2+y,-z
1/2-x,1/2+y,z
1/2+x,1/2-y,z
loop_
_atom_site_type_symbol
_atom_site_label
_atom_site_fract_x
_atom_site_fract_y
_atom_site_fract_z
Si Si1 0.750000 0.750000 0.236330
Si Si2 0.395206 0.681554 0.881478
Si Si3 0.891593 0.000000 0.616422
Si Si4 0.604810 0.389307 0.305824
Si Si5 0.104112 0.441706 0.376077
Si Si6 0.220361 0.342808 0.618640
O O1 0.671446 0.726229 0.162813
O O2 0.801724 0.707133 0.308894
O O3 0.500000 0.702758 0.874180
O O4 0.384900 0.627708 0.815024
O O5 0.367832 0.667959 0.000000
O O6 0.860381 0.949178 0.681705
O O7 0.845840 0.000000 0.500000
O O8 0.000000 0.000000 0.602441
O O9 0.500000 0.382182 0.345862
O O10 0.669582 0.352941 0.377785
O O11 0.105793 0.440266 0.500000
O O12 0.139270 0.500000 0.338816
O O13 0.167944 0.394147 0.334200
O O14 0.000000 0.432663 0.335328
O O15 0.190148 0.330353 0.500000
#
# Coordination Sequence:
#
# PCOD8267193 Si02
#       6
#     8  16   8  16  16  16
#     4  10  20  32  46  70  96 120 152 200 238 286
#     4   9  18  34  53  68  86 116 154 199 248 287
#     4   9  16  26  41  63  94 126 151 176 209 259
#     4   9  18  30  44  67  95 123 157 192 225 273
#     4   8  15  28  44  62  85 117 160 201 230 263
#     4  10  19  29  44  65  95 131 160 186 228 282
#
# _framework density 16.955795999999999
#
# number of rings (size 3 to 8) (size 9 to 14) (size 15 to 20)
#    0.000    2.900    0.000    1.800    1.400    2.000 
#    0.000    0.500    0.000    6.600    0.000    0.000 
#    0.000    0.000    0.000   21.200    0.000    4.200 
#
# Total GULP energy -495748.566939 kJ/mol
# GULP energy per Si atom -12393.714173 kJ/mol
# Density = 1.691720 g / cm^3
# Si number density = 16.955796 Si / 1000 Ang^3
#
#
#
# Elastic Constant Matrix: (Units=GPa)
#
#
# Indices 1 2 3 4 5 6 
#
# 1 55.2820 42.1285 33.2341 0.0000 0.0000 0.0000
# 2 42.1285 123.9317 59.6308 0.0000 0.0000 0.0000
# 3 33.2341 59.6308 94.5988 0.0000 0.0000 0.0000
# 4 0.0000 0.0000 0.0000 19.0134 0.0000 0.0000
# 5 0.0000 0.0000 0.0000 0.0000 16.4295 0.0000
# 6 0.0000 0.0000 0.0000 0.0000 0.0000 27.5139
#
#
#
# Elastic Compliance Matrix: (Units=1/GPa)
#
#
# Indices 1 2 3 4 5 6 
#
# 1 0.026034 -0.006386 -0.005121 0.000000 0.000000 0.000000
# 2 -0.006386 0.013148 -0.006044 0.000000 0.000000 0.000000
# 3 -0.005121 -0.006044 0.016180 0.000000 0.000000 0.000000
# 4 0.000000 0.000000 0.000000 0.052594 0.000000 0.000000
# 5 0.000000 0.000000 0.000000 0.000000 0.060866 0.000000
# 6 0.000000 0.000000 0.000000 0.000000 0.000000 0.036345
#
#
# Mechanical properties :
#
#
# Convention : Reuss Voigt Hill
#
# Bulk Modulus (GPa) = 49.35858 60.42214 54.89036
# Shear Modulus (GPa) = 20.24094 21.84596 21.04345
#
# Velocity S-wave (km/s) = 3.45881 3.59333 3.52671
# Velocity P-wave (km/s) = 6.71748 7.27520 7.00189
#
# Compressibility (1/GPa) = 0.02025990
#
# Stress axis : x y z
#
# Youngs Moduli (GPa) = 38.41124 76.05660 61.80409
#
# Poissons Ratio (x) = 0.48569 0.31649
# Poissons Ratio (y) = 0.24529 0.37357
# Poissons Ratio (z) = 0.19670 0.45972
#
# Static dielectric constant tensor:
#      x y z
#    x 3.261290 0.000000 0.000000 
#    y 0.000000 3.421270 0.000000 
#    z 0.000000 0.000000 2.965870 
# 
# 
# High freq. dielectric constant tensor:
#      x y z
#    x 1.655540 0.000000 0.000000 
#    y 0.000000 1.655510 0.000000 
#    z 0.000000 0.000000 1.616630 
# 
# From -- ./inp_files/25033.got.cif
#   From: 2010.03.12/outbox.cif.g09.slc.cpg/sg65_13_cif.got.tgz:25033.got - 2010.04.10 20:52:16.
