data_PCOD8267299
_publ_section_title
;
Structure prediction by ZEFSAII (Michael W. Deem and Ramdas Pophale) SiO2 
 PCOD8267299
Probable space group: C M M M
;
_chemical_formula_sum "Si O2"
_cell_formula_units_Z 88
_cell_length_a 25.507302
_cell_length_b 8.932101
_cell_length_c 24.802787
_cell_angle_alpha 90.000000
_cell_angle_beta 90.000000
_cell_angle_gamma 90.000000
_cell_volume 5650.913156
_symmetry_space_group_name_H-M "C M M M"
_symmetry_group_IT_number 65
_symmetry_cell_setting 'orthorhombic'
loop_
_space_group_symop_operation_xyz
x,y,z
-x,-y,z
x,-y,-z
-x,y,-z
-x,-y,-z
x,y,-z
-x,y,z
x,-y,z
1/2+x,1/2+y,z
1/2-x,1/2-y,z
1/2+x,1/2-y,-z
1/2-x,1/2+y,-z
1/2-x,1/2-y,-z
1/2+x,1/2+y,-z
1/2-x,1/2+y,z
1/2+x,1/2-y,z
loop_
_atom_site_type_symbol
_atom_site_label
_atom_site_fract_x
_atom_site_fract_y
_atom_site_fract_z
Si Si1 0.937657 0.831600 0.559152
Si Si2 0.500000 0.177856 0.060375
Si Si3 0.805039 0.824685 0.062023
Si Si4 0.898933 0.321978 0.124928
Si Si5 0.562307 0.166966 0.336906
Si Si6 0.438852 0.674933 0.771020
O O1 0.920097 0.770710 0.500000
O O2 0.914036 0.729628 0.606894
O O3 0.000000 0.831920 0.562578
O O4 0.916686 0.000000 0.567152
O O5 0.551389 0.237076 0.090831
O O6 0.500000 0.000000 0.059187
O O7 0.500000 0.244000 0.000000
O O8 0.750000 0.750000 0.076354
O O9 0.847443 0.749208 0.100039
O O10 0.801572 0.000000 0.074250
O O11 0.820259 0.793336 0.000000
O O12 0.894402 0.500000 0.123718
O O13 0.905053 0.266416 0.185897
O O14 0.500000 0.165271 0.340368
O O15 0.580378 0.272161 0.287776
O O16 0.584241 0.000000 0.327791
O O17 0.500000 0.712887 0.779433
O O18 0.427617 0.500000 0.777158
#
# Coordination Sequence:
#
# PCOD8267299 Si02
#       6
#    16   8  16  16  16  16
#     4   8  13  21  32  46  66  94 130 172 217 260
#     4   9  18  30  45  67  93 119 144 173 216 267
#     4  10  21  37  55  74  94 117 147 183 223 268
#     4  11  20  32  50  70  94 120 149 184 223 269
#     4   9  16  24  35  51  72 100 137 178 219 260
#     4  10  19  30  43  59  84 115 148 183 221 265
#
# _framework density 15.572704999999999
#
# number of rings (size 3 to 8) (size 9 to 14) (size 15 to 20)
#    0.000    2.455    0.909    3.273    0.000    5.091 
#    0.000    1.818    0.000    2.182    0.000    0.000 
#    0.000    0.000    0.000    0.000    0.000    0.909 
#
# Total GULP energy -545535.704570 kJ/mol
# GULP energy per Si atom -12398.538740 kJ/mol
# Density = 1.553726 g / cm^3
# Si number density = 15.572705 Si / 1000 Ang^3
#
#
#
# Elastic Constant Matrix: (Units=GPa)
#
#
# Indices 1 2 3 4 5 6 
#
# 1 56.3326 33.9369 43.3087 0.0000 0.0000 0.0000
# 2 33.9369 86.4878 50.0890 0.0000 0.0000 0.0000
# 3 43.3087 50.0890 129.1407 0.0000 0.0000 0.0000
# 4 0.0000 0.0000 0.0000 30.8327 0.0000 0.0000
# 5 0.0000 0.0000 0.0000 0.0000 15.6174 0.0000
# 6 0.0000 0.0000 0.0000 0.0000 0.0000 17.4662
#
#
#
# Elastic Compliance Matrix: (Units=1/GPa)
#
#
# Indices 1 2 3 4 5 6 
#
# 1 0.026718 -0.006828 -0.006312 0.000000 0.000000 0.000000
# 2 -0.006828 0.016657 -0.004171 0.000000 0.000000 0.000000
# 3 -0.006312 -0.004171 0.011478 0.000000 0.000000 0.000000
# 4 0.000000 0.000000 0.000000 0.032433 0.000000 0.000000
# 5 0.000000 0.000000 0.000000 0.000000 0.064031 0.000000
# 6 0.000000 0.000000 0.000000 0.000000 0.000000 0.057254
#
#
# Mechanical properties :
#
#
# Convention : Reuss Voigt Hill
#
# Bulk Modulus (GPa) = 49.42841 58.51446 53.97143
# Shear Modulus (GPa) = 20.00514 22.42503 21.21508
#
# Velocity S-wave (km/s) = 3.58806 3.79888 3.69497
# Velocity P-wave (km/s) = 6.99821 7.54311 7.27576
#
# Compressibility (1/GPa) = 0.02023128
#
# Stress axis : x y z
#
# Youngs Moduli (GPa) = 37.42827 60.03413 87.12453
#
# Poissons Ratio (x) = 0.40994 0.54989
# Poissons Ratio (y) = 0.25558 0.36337
# Poissons Ratio (z) = 0.23623 0.25039
#
# Static dielectric constant tensor:
#      x y z
#    x 2.529510 0.000000 0.000000 
#    y 0.000000 3.056290 0.000000 
#    z 0.000000 0.000000 3.207420 
# 
# 
# High freq. dielectric constant tensor:
#      x y z
#    x 1.528840 0.000000 0.000000 
#    y 0.000000 1.606520 0.000000 
#    z 0.000000 0.000000 1.610220 
# 
# From -- ./inp_files/70951.got.cif
#   From: 2010.03.12/outbox.cif.g09.slc.cpg/sg65_36_cif.got.tgz:70951.got - 2010.04.10 20:52:16.
