data_PCOD8267845
_publ_section_title
;
Structure prediction by ZEFSAII (Michael W. Deem and Ramdas Pophale) SiO2 
 PCOD8267845
Probable space group: C M M M
;
_chemical_formula_sum "Si O2"
_cell_formula_units_Z 104
_cell_length_a 17.965664
_cell_length_b 24.925294
_cell_length_c 13.892380
_cell_angle_alpha 90.000000
_cell_angle_beta 90.000000
_cell_angle_gamma 90.000000
_cell_volume 6221.000222
_symmetry_space_group_name_H-M "C M M M"
_symmetry_group_IT_number 65
_symmetry_cell_setting 'orthorhombic'
loop_
_space_group_symop_operation_xyz
x,y,z
-x,-y,z
x,-y,-z
-x,y,-z
-x,-y,-z
x,y,-z
-x,y,z
x,-y,z
1/2+x,1/2+y,z
1/2-x,1/2-y,z
1/2+x,1/2-y,-z
1/2-x,1/2+y,-z
1/2-x,1/2-y,-z
1/2+x,1/2+y,-z
1/2-x,1/2+y,z
1/2+x,1/2-y,z
loop_
_atom_site_type_symbol
_atom_site_label
_atom_site_fract_x
_atom_site_fract_y
_atom_site_fract_z
Si Si1 0.721043 0.563341 0.893087
Si Si2 0.139877 0.563625 0.769275
Si Si3 0.913494 0.145805 0.391850
Si Si4 0.500000 0.063477 0.893251
Si Si5 0.915536 0.061998 0.232037
Si Si6 0.166071 0.251160 0.614435
Si Si7 0.587536 0.859252 0.387307
O O1 0.729063 0.500000 0.901580
O O2 0.784440 0.583976 0.820072
O O3 0.639678 0.579487 0.853448
O O4 0.730597 0.588605 0.000000
O O5 0.139450 0.500000 0.750785
O O6 0.129561 0.592398 0.666764
O O7 0.073187 0.582840 0.837972
O O8 0.885019 0.133408 0.500000
O O9 0.894854 0.094146 0.328137
O O10 0.873413 0.197620 0.346463
O O11 0.000000 0.159330 0.392494
O O12 0.500000 0.000000 0.901139
O O13 0.500000 0.088942 0.000000
O O14 0.000000 0.073751 0.197717
O O15 0.904400 0.000000 0.259012
O O16 0.164062 0.250738 0.500000
O O17 0.250000 0.250000 0.654265
O O18 0.122033 0.303448 0.651288
O O19 0.603228 0.867451 0.500000
O O20 0.500000 0.859775 0.364884
#
# Coordination Sequence:
#
# PCOD8267845 Si02
#       7
#    16  16  16   8  16  16  16
#     4   9  18  32  49  69  96 129 163 205 250 289
#     4  10  19  31  47  72 102 132 166 199 240 294
#     4   9  17  30  48  69  97 130 160 192 232 280
#     4   9  16  28  47  69  95 127 164 204 238 275
#     4   9  18  31  48  74 103 128 159 197 242 302
#     4   9  18  31  48  69  92 123 166 209 239 272
#     4  10  20  33  49  71 102 135 166 201 239 285
#
# _framework density 16.717569000000001
#
# number of rings (size 3 to 8) (size 9 to 14) (size 15 to 20)
#    0.000    2.692    0.769    0.923    2.154    4.615 
#    0.000    3.846    0.000    2.769    0.000    3.231 
#    0.000    0.000    0.000    0.000    0.000    0.000 
#
# Total GULP energy -644705.605142 kJ/mol
# GULP energy per Si atom -12398.184714 kJ/mol
# Density = 1.667952 g / cm^3
# Si number density = 16.717569 Si / 1000 Ang^3
#
#
#
# Elastic Constant Matrix: (Units=GPa)
#
#
# Indices 1 2 3 4 5 6 
#
# 1 107.7346 45.8483 55.5249 0.0000 0.0000 0.0000
# 2 45.8483 70.2259 44.3837 0.0000 0.0000 0.0000
# 3 55.5249 44.3837 86.9373 0.0000 0.0000 0.0000
# 4 0.0000 0.0000 0.0000 4.2059 0.0000 0.0000
# 5 0.0000 0.0000 0.0000 0.0000 24.6236 0.0000
# 6 0.0000 0.0000 0.0000 0.0000 0.0000 22.2012
#
#
#
# Elastic Compliance Matrix: (Units=1/GPa)
#
#
# Indices 1 2 3 4 5 6 
#
# 1 0.015190 -0.005589 -0.006848 0.000000 0.000000 0.000000
# 2 -0.005589 0.023079 -0.008213 0.000000 0.000000 0.000000
# 3 -0.006848 -0.008213 0.020069 0.000000 0.000000 0.000000
# 4 0.000000 0.000000 0.000000 0.237759 0.000000 0.000000
# 5 0.000000 0.000000 0.000000 0.000000 0.040611 0.000000
# 6 0.000000 0.000000 0.000000 0.000000 0.000000 0.045043
#
#
# Mechanical properties :
#
#
# Convention : Reuss Voigt Hill
#
# Bulk Modulus (GPa) = 58.69148 61.82351 60.25750
# Shear Modulus (GPa) = 11.66230 18.14888 14.90559
#
# Velocity S-wave (km/s) = 2.64409 3.29844 2.98923
# Velocity P-wave (km/s) = 6.67124 7.18107 6.93085
#
# Compressibility (1/GPa) = 0.01703825
#
# Stress axis : x y z
#
# Youngs Moduli (GPa) = 65.83273 43.32880 49.82723
#
# Poissons Ratio (x) = 0.24216 0.34123
# Poissons Ratio (y) = 0.36793 0.40923
# Poissons Ratio (z) = 0.45084 0.35586
#
# Static dielectric constant tensor:
#      x y z
#    x 3.338360 0.000000 0.000000 
#    y 0.000000 2.957820 0.000000 
#    z 0.000000 0.000000 3.072310 
# 
# 
# High freq. dielectric constant tensor:
#      x y z
#    x 1.659610 0.000000 0.000000 
#    y 0.000000 1.616000 0.000000 
#    z 0.000000 0.000000 1.622810 
# 
# From -- ./inp_files/27509.got.cif
#   From: 2010.03.12/outbox.cif.g09.slc.cpg/sg65_14_cif.got.tgz:27509.got - 2010.04.10 20:52:16.
