data_PCOD8267270
_publ_section_title
;
Structure prediction by ZEFSAII (Michael W. Deem and Ramdas Pophale) SiO2 
 PCOD8267270
Probable space group: C M M M
;
_chemical_formula_sum "Si O2"
_cell_formula_units_Z 88
_cell_length_a 16.825429
_cell_length_b 29.499894
_cell_length_c 9.673418
_cell_angle_alpha 90.000000
_cell_angle_beta 90.000000
_cell_angle_gamma 90.000000
_cell_volume 4801.385276
_symmetry_space_group_name_H-M "C M M M"
_symmetry_group_IT_number 65
_symmetry_cell_setting 'orthorhombic'
loop_
_space_group_symop_operation_xyz
x,y,z
-x,-y,z
x,-y,-z
-x,y,-z
-x,-y,-z
x,y,-z
-x,y,z
x,-y,z
1/2+x,1/2+y,z
1/2-x,1/2-y,z
1/2+x,1/2-y,-z
1/2-x,1/2+y,-z
1/2-x,1/2-y,-z
1/2+x,1/2+y,-z
1/2-x,1/2+y,z
1/2+x,1/2-y,z
loop_
_atom_site_type_symbol
_atom_site_label
_atom_site_fract_x
_atom_site_fract_y
_atom_site_fract_z
Si Si1 0.089063 0.446601 0.153627
Si Si2 0.354770 0.295999 0.154657
Si Si3 0.333630 0.196519 0.155261
Si Si4 0.629656 0.622490 0.340571
Si Si5 0.500000 0.551186 0.336644
Si Si6 0.184335 0.615279 0.660333
O O1 0.090267 0.500000 0.163338
O O2 0.148032 0.429202 0.271233
O O3 0.000000 0.428507 0.181228
O O4 0.117063 0.431105 0.000000
O O5 0.375323 0.244141 0.198272
O O6 0.260585 0.299527 0.158715
O O7 0.395363 0.332300 0.256700
O O8 0.386245 0.305760 0.000000
O O9 0.357410 0.158208 0.265241
O O10 0.361013 0.183000 0.000000
O O11 0.611019 0.632939 0.500000
O O12 0.578177 0.579310 0.288887
O O13 0.721611 0.611682 0.315958
O O14 0.500000 0.500000 0.271712
O O15 0.500000 0.546103 0.500000
O O16 0.162370 0.617720 0.500000
#
# Coordination Sequence:
#
# PCOD8267270 Si02
#       6
#    16  16  16  16   8  16
#     4   9  19  36  55  72  93 127 166 198 236 294
#     4   8  14  26  46  70  95 125 161 201 242 289
#     4   8  14  26  45  69  97 130 164 194 234 292
#     4   9  18  31  49  73  98 129 169 210 252 296
#     4   9  18  34  53  69  93 135 179 213 250 301
#     4  10  19  29  47  78 107 128 158 206 256 295
#
# _framework density 18.328044999999999
#
# number of rings (size 3 to 8) (size 9 to 14) (size 15 to 20)
#    0.000    3.182    0.000    2.182    0.000    2.909 
#    0.000    6.818    2.000    1.091    0.000    0.000 
#    0.000    0.000    0.000    0.000    0.000    0.000 
#
# Total GULP energy -545293.365556 kJ/mol
# GULP energy per Si atom -12393.031035 kJ/mol
# Density = 1.828633 g / cm^3
# Si number density = 18.328045 Si / 1000 Ang^3
#
#
#
# Elastic Constant Matrix: (Units=GPa)
#
#
# Indices 1 2 3 4 5 6 
#
# 1 46.5505 44.8200 42.4161 0.0000 0.0000 0.0000
# 2 44.8200 124.9819 66.8104 0.0000 0.0000 0.0000
# 3 42.4161 66.8104 107.3803 0.0000 0.0000 0.0000
# 4 0.0000 0.0000 0.0000 35.5210 0.0000 0.0000
# 5 0.0000 0.0000 0.0000 0.0000 15.3096 0.0000
# 6 0.0000 0.0000 0.0000 0.0000 0.0000 18.7439
#
#
#
# Elastic Compliance Matrix: (Units=1/GPa)
#
#
# Indices 1 2 3 4 5 6 
#
# 1 0.038874 -0.008589 -0.010012 0.000000 0.000000 0.000000
# 2 -0.008589 0.013886 -0.005247 0.000000 0.000000 0.000000
# 3 -0.010012 -0.005247 0.016532 0.000000 0.000000 0.000000
# 4 0.000000 0.000000 0.000000 0.028152 0.000000 0.000000
# 5 0.000000 0.000000 0.000000 0.000000 0.065318 0.000000
# 6 0.000000 0.000000 0.000000 0.000000 0.000000 0.053351
#
#
# Mechanical properties :
#
#
# Convention : Reuss Voigt Hill
#
# Bulk Modulus (GPa) = 46.30277 65.22286 55.76282
# Shear Modulus (GPa) = 18.44963 22.23931 20.34447
#
# Velocity S-wave (km/s) = 3.17619 3.48717 3.33531
# Velocity P-wave (km/s) = 6.22648 7.20260 6.73226
#
# Compressibility (1/GPa) = 0.02159698
#
# Stress axis : x y z
#
# Youngs Moduli (GPa) = 25.72404 72.01452 60.48853
#
# Poissons Ratio (x) = 0.61852 0.60560
# Poissons Ratio (y) = 0.22094 0.31739
# Poissons Ratio (z) = 0.25754 0.37786
#
# Static dielectric constant tensor:
#      x y z
#    x 3.156100 0.000000 0.000000 
#    y 0.000000 3.657610 0.000000 
#    z 0.000000 0.000000 3.402540 
# 
# 
# High freq. dielectric constant tensor:
#      x y z
#    x 1.680590 0.000000 0.000000 
#    y 0.000000 1.715890 0.000000 
#    z 0.000000 0.000000 1.698950 
# 
# From -- ./inp_files/10133.got.cif
#   From: 2010.03.12/outbox.cif.g09.slc.cpg/sg65_6_cif.got.tgz:10133.got - 2010.04.10 20:52:16.
