data_PCOD8267489
_publ_section_title
;
Structure prediction by ZEFSAII (Michael W. Deem and Ramdas Pophale) SiO2 
 PCOD8267489
Probable space group: C M M M
;
_chemical_formula_sum "Si O2"
_cell_formula_units_Z 88
_cell_length_a 18.700601
_cell_length_b 8.818674
_cell_length_c 28.339313
_cell_angle_alpha 90.000000
_cell_angle_beta 90.000000
_cell_angle_gamma 90.000000
_cell_volume 4673.563742
_symmetry_space_group_name_H-M "C M M M"
_symmetry_group_IT_number 65
_symmetry_cell_setting 'orthorhombic'
loop_
_space_group_symop_operation_xyz
x,y,z
-x,-y,z
x,-y,-z
-x,y,-z
-x,-y,-z
x,y,-z
-x,y,z
x,-y,z
1/2+x,1/2+y,z
1/2-x,1/2-y,z
1/2+x,1/2-y,-z
1/2-x,1/2+y,-z
1/2-x,1/2-y,-z
1/2+x,1/2+y,-z
1/2-x,1/2+y,z
1/2+x,1/2-y,z
loop_
_atom_site_type_symbol
_atom_site_label
_atom_site_fract_x
_atom_site_fract_y
_atom_site_fract_z
Si Si1 0.672105 0.678982 0.588676
Si Si2 0.327229 0.180678 0.138495
Si Si3 0.421146 0.820426 0.775766
Si Si4 0.083071 0.676765 0.330331
Si Si5 0.919184 0.180227 0.500000
Si Si6 0.920008 0.319926 0.052109
O O1 0.680828 0.500000 0.586637
O O2 0.750000 0.750000 0.584462
O O3 0.634091 0.724244 0.637084
O O4 0.622887 0.739767 0.545917
O O5 0.250000 0.250000 0.138003
O O6 0.366626 0.243278 0.185328
O O7 0.367984 0.244456 0.092340
O O8 0.323208 0.000000 0.138354
O O9 0.500000 0.752850 0.785982
O O10 0.396523 0.775671 0.723090
O O11 0.425747 0.000000 0.779551
O O12 0.098345 0.500000 0.339167
O O13 0.000000 0.713911 0.340517
O O14 0.000000 0.246864 0.500000
O O15 0.922550 0.000000 0.500000
O O16 0.921453 0.500000 0.054783
O O17 0.000000 0.257790 0.061246
O O18 0.893407 0.267699 0.000000
#
# Coordination Sequence:
#
# PCOD8267489 Si02
#       6
#    16  16  16  16   8  16
#     4  11  22  36  55  78 107 139 170 205 247 296
#     4  10  19  30  46  69  97 127 158 194 240 291
#     4   8  15  30  52  73  93 124 166 206 240 280
#     4   9  18  34  55  78 103 130 165 209 253 298
#     4   9  19  36  57  79 102 131 168 209 250 294
#     4   8  14  26  46  70  91 115 156 205 241 275
#
# _framework density 18.829315000000001
#
# number of rings (size 3 to 8) (size 9 to 14) (size 15 to 20)
#    0.000    2.818    0.000    3.545    0.000    4.364 
#    0.000    4.091    0.000    6.545    0.000    1.273 
#    0.000    0.000    0.000    0.000    0.000    0.000 
#
# Total GULP energy -545458.617685 kJ/mol
# GULP energy per Si atom -12396.786766 kJ/mol
# Density = 1.878646 g / cm^3
# Si number density = 18.829315 Si / 1000 Ang^3
#
#
#
# Elastic Constant Matrix: (Units=GPa)
#
#
# Indices 1 2 3 4 5 6 
#
# 1 160.3803 31.1862 110.8308 0.0000 0.0000 0.0000
# 2 31.1862 29.2932 28.6354 0.0000 0.0000 0.0000
# 3 110.8308 28.6354 177.7743 0.0000 0.0000 0.0000
# 4 0.0000 0.0000 0.0000 13.8648 0.0000 0.0000
# 5 0.0000 0.0000 0.0000 0.0000 23.3465 0.0000
# 6 0.0000 0.0000 0.0000 0.0000 0.0000 22.2047
#
#
#
# Elastic Compliance Matrix: (Units=1/GPa)
#
#
# Indices 1 2 3 4 5 6 
#
# 1 0.011893 -0.006425 -0.006380 0.000000 0.000000 0.000000
# 2 -0.006425 0.043989 -0.003080 0.000000 0.000000 0.000000
# 3 -0.006380 -0.003080 0.010099 0.000000 0.000000 0.000000
# 4 0.000000 0.000000 0.000000 0.072125 0.000000 0.000000
# 5 0.000000 0.000000 0.000000 0.000000 0.042833 0.000000
# 6 0.000000 0.000000 0.000000 0.000000 0.000000 0.045035
#
#
# Mechanical properties :
#
#
# Convention : Reuss Voigt Hill
#
# Bulk Modulus (GPa) = 29.23050 78.75030 53.99040
# Shear Modulus (GPa) = 18.57716 25.00290 21.79003
#
# Velocity S-wave (km/s) = 3.14444 3.64795 3.40551
# Velocity P-wave (km/s) = 5.36106 7.72382 6.64825
#
# Compressibility (1/GPa) = 0.03421084
#
# Stress axis : x y z
#
# Youngs Moduli (GPa) = 84.08080 22.73306 99.02422
#
# Poissons Ratio (x) = 0.14607 0.63175
# Poissons Ratio (y) = 0.54025 0.30497
# Poissons Ratio (z) = 0.53641 0.07001
#
# Static dielectric constant tensor:
#      x y z
#    x 3.562450 0.000000 0.000000 
#    y 0.000000 2.933410 0.000000 
#    z 0.000000 0.000000 3.855370 
# 
# 
# High freq. dielectric constant tensor:
#      x y z
#    x 1.734800 0.000000 0.000000 
#    y 0.000000 1.680110 0.000000 
#    z 0.000000 0.000000 1.750540 
# 
# From -- ./inp_files/77936.got.cif
#   From: 2010.03.12/outbox.cif.g09.slc.cpg/sg65_39_cif.got.tgz:77936.got - 2010.04.10 20:52:16.
