data_PCOD8267224
_publ_section_title
;
Structure prediction by ZEFSAII (Michael W. Deem and Ramdas Pophale) SiO2 
 PCOD8267224
Probable space group: C M M M
;
_chemical_formula_sum "Si O2"
_cell_formula_units_Z 104
_cell_length_a 26.502339
_cell_length_b 17.178849
_cell_length_c 13.636433
_cell_angle_alpha 90.000000
_cell_angle_beta 90.000000
_cell_angle_gamma 90.000000
_cell_volume 6208.390850
_symmetry_space_group_name_H-M "C M M M"
_symmetry_group_IT_number 65
_symmetry_cell_setting 'orthorhombic'
loop_
_space_group_symop_operation_xyz
x,y,z
-x,-y,z
x,-y,-z
-x,y,-z
-x,-y,-z
x,y,-z
-x,y,z
x,-y,z
1/2+x,1/2+y,z
1/2-x,1/2-y,z
1/2+x,1/2-y,-z
1/2-x,1/2+y,-z
1/2-x,1/2-y,-z
1/2+x,1/2+y,-z
1/2-x,1/2+y,z
1/2+x,1/2-y,z
loop_
_atom_site_type_symbol
_atom_site_label
_atom_site_fract_x
_atom_site_fract_y
_atom_site_fract_z
Si Si1 0.188276 0.869277 0.109238
Si Si2 0.288050 0.091513 0.795930
Si Si3 0.271551 0.592527 0.391918
Si Si4 0.370279 0.413528 0.291149
Si Si5 0.559618 0.586753 0.000000
Si Si6 0.139286 0.706285 0.113411
Si Si7 0.440643 0.688610 0.186323
O O1 0.247654 0.886015 0.120593
O O2 0.158617 0.921045 0.187472
O O3 0.178194 0.777652 0.125466
O O4 0.170815 0.894456 0.000000
O O5 0.267995 0.122675 0.689744
O O6 0.340007 0.133628 0.824474
O O7 0.298702 0.000000 0.793516
O O8 0.256245 0.623911 0.500000
O O9 0.271442 0.500000 0.388731
O O10 0.329210 0.619220 0.368837
O O11 0.390151 0.500000 0.319468
O O12 0.417563 0.353688 0.283183
O O13 0.576637 0.633479 0.096146
O O14 0.582653 0.500000 0.000000
O O15 0.500000 0.581599 0.000000
O O16 0.085500 0.728687 0.163834
O O17 0.130972 0.683081 0.000000
O O18 0.500000 0.700019 0.198883
#
# Coordination Sequence:
#
# PCOD8267224 Si02
#       7
#    16  16  16  16   8  16  16
#     4   9  17  28  41  60  90 126 148 170 214 275
#     4  10  19  29  45  69  90 113 152 194 229 267
#     4   8  15  30  49  68  93 120 144 180 232 285
#     4   9  17  26  42  69  93 116 149 183 221 270
#     4   9  16  26  42  64  86 111 149 193 226 254
#     4  10  19  30  44  62  90 128 159 185 220 275
#     4  10  19  31  44  61  89 125 159 191 228 268
#
# _framework density 16.751522000000001
#
# number of rings (size 3 to 8) (size 9 to 14) (size 15 to 20)
#    0.000    2.692    0.769    2.769    1.077    4.308 
#    0.000    0.000    0.000   17.538    0.000    3.231 
#    0.000    0.000    0.000    3.846    0.000    0.000 
#
# Total GULP energy -644526.460458 kJ/mol
# GULP energy per Si atom -12394.739624 kJ/mol
# Density = 1.671340 g / cm^3
# Si number density = 16.751522 Si / 1000 Ang^3
#
#
#
# Elastic Constant Matrix: (Units=GPa)
#
#
# Indices 1 2 3 4 5 6 
#
# 1 92.2113 38.0115 24.7428 0.0000 0.0000 0.0000
# 2 38.0115 56.9274 20.6242 0.0000 0.0000 0.0000
# 3 24.7428 20.6242 74.1502 0.0000 0.0000 0.0000
# 4 0.0000 0.0000 0.0000 13.3067 0.0000 0.0000
# 5 0.0000 0.0000 0.0000 0.0000 17.4049 0.0000
# 6 0.0000 0.0000 0.0000 0.0000 0.0000 23.5002
#
#
#
# Elastic Compliance Matrix: (Units=1/GPa)
#
#
# Indices 1 2 3 4 5 6 
#
# 1 0.015379 -0.009352 -0.002531 0.000000 0.000000 0.000000
# 2 -0.009352 0.025222 -0.003895 0.000000 0.000000 0.000000
# 3 -0.002531 -0.003895 0.015414 0.000000 0.000000 0.000000
# 4 0.000000 0.000000 0.000000 0.075150 0.000000 0.000000
# 5 0.000000 0.000000 0.000000 0.000000 0.057455 0.000000
# 6 0.000000 0.000000 0.000000 0.000000 0.000000 0.042553
#
#
# Mechanical properties :
#
#
# Convention : Reuss Voigt Hill
#
# Bulk Modulus (GPa) = 40.88278 43.33843 42.11061
# Shear Modulus (GPa) = 18.45839 20.16971 19.31405
#
# Velocity S-wave (km/s) = 3.32308 3.47371 3.39923
# Velocity P-wave (km/s) = 6.25957 6.48200 6.37176
#
# Compressibility (1/GPa) = 0.02446017
#
# Stress axis : x y z
#
# Youngs Moduli (GPa) = 65.02496 39.64852 64.87701
#
# Poissons Ratio (x) = 0.37079 0.16417
# Poissons Ratio (y) = 0.60810 0.25267
# Poissons Ratio (z) = 0.16455 0.15441
#
# Static dielectric constant tensor:
#      x y z
#    x 3.014720 0.000000 0.000000 
#    y 0.000000 2.891940 0.000000 
#    z 0.000000 0.000000 3.298830 
# 
# 
# High freq. dielectric constant tensor:
#      x y z
#    x 1.627570 0.000000 0.000000 
#    y 0.000000 1.616280 0.000000 
#    z 0.000000 0.000000 1.624940 
# 
# From -- ./inp_files/45945.got.cif
#   From: 2010.03.12/outbox.cif.g09.slc.cpg/sg65_23_cif.got.tgz:45945.got - 2010.04.10 20:52:16.
