data_PCOD8267550
_publ_section_title
;
Structure prediction by ZEFSAII (Michael W. Deem and Ramdas Pophale) SiO2 
 PCOD8267550
Probable space group: C M M M
;
_chemical_formula_sum "Si O2"
_cell_formula_units_Z 96
_cell_length_a 19.151543
_cell_length_b 8.932139
_cell_length_c 30.942661
_cell_angle_alpha 90.000000
_cell_angle_beta 90.000000
_cell_angle_gamma 90.000000
_cell_volume 5293.182916
_symmetry_space_group_name_H-M "C M M M"
_symmetry_group_IT_number 65
_symmetry_cell_setting 'orthorhombic'
loop_
_space_group_symop_operation_xyz
x,y,z
-x,-y,z
x,-y,-z
-x,y,-z
-x,-y,-z
x,y,-z
-x,y,z
x,-y,z
1/2+x,1/2+y,z
1/2-x,1/2-y,z
1/2+x,1/2-y,-z
1/2-x,1/2+y,-z
1/2-x,1/2-y,-z
1/2+x,1/2+y,-z
1/2-x,1/2+y,z
1/2+x,1/2-y,z
loop_
_atom_site_type_symbol
_atom_site_label
_atom_site_fract_x
_atom_site_fract_y
_atom_site_fract_z
Si Si1 0.178497 0.824652 0.950160
Si Si2 0.174834 0.824658 0.546881
Si Si3 0.579966 0.824831 0.288891
Si Si4 0.082552 0.328260 0.116733
Si Si5 0.825817 0.322537 0.630823
Si Si6 0.916953 0.168712 0.202629
O O1 0.250000 0.750000 0.933917
O O2 0.114173 0.760106 0.923444
O O3 0.184361 0.000000 0.942329
O O4 0.164367 0.784790 0.000000
O O5 0.136948 0.800268 0.500000
O O6 0.250000 0.750000 0.544110
O O7 0.136817 0.743105 0.587207
O O8 0.182449 0.000000 0.556923
O O9 0.500000 0.778337 0.298017
O O10 0.625472 0.774046 0.329631
O O11 0.610800 0.742172 0.246815
O O12 0.586058 0.000000 0.279952
O O13 0.105695 0.500000 0.114627
O O14 0.111617 0.260234 0.161556
O O15 0.000000 0.309288 0.113586
O O16 0.818794 0.500000 0.626963
O O17 0.750000 0.250000 0.637666
O O18 0.000000 0.173936 0.202723
O O19 0.888566 0.000000 0.199580
#
# Coordination Sequence:
#
# PCOD8267550 Si02
#       6
#    16  16  16  16  16  16
#     4  10  21  37  56  77 104 138 173 209 250 299
#     4   9  16  26  42  64  90 120 154 192 233 279
#     4   9  18  33  51  70  94 126 163 198 236 287
#     4  10  20  34  54  79 106 135 168 209 253 295
#     4  10  19  30  47  70  96 124 153 193 240 283
#     4   9  17  30  50  75 100 127 162 204 248 292
#
# _framework density 18.136534999999999
#
# number of rings (size 3 to 8) (size 9 to 14) (size 15 to 20)
#    0.000    2.500    0.000    3.500    0.000    6.667 
#    0.000    2.500    0.000    2.500    0.000    3.500 
#    0.000    0.000    0.000    0.000    0.000    0.000 
#
# Total GULP energy -595053.410713 kJ/mol
# GULP energy per Si atom -12396.946057 kJ/mol
# Density = 1.809526 g / cm^3
# Si number density = 18.136535 Si / 1000 Ang^3
#
#
#
# Elastic Constant Matrix: (Units=GPa)
#
#
# Indices 1 2 3 4 5 6 
#
# 1 38.3241 30.1620 45.9418 0.0000 0.0000 0.0000
# 2 30.1620 106.3923 72.3907 0.0000 0.0000 0.0000
# 3 45.9418 72.3907 156.0401 0.0000 0.0000 0.0000
# 4 0.0000 0.0000 0.0000 38.5276 0.0000 0.0000
# 5 0.0000 0.0000 0.0000 0.0000 28.9088 0.0000
# 6 0.0000 0.0000 0.0000 0.0000 0.0000 22.9440
#
#
#
# Elastic Compliance Matrix: (Units=1/GPa)
#
#
# Indices 1 2 3 4 5 6 
#
# 1 0.042154 -0.005123 -0.010034 0.000000 0.000000 0.000000
# 2 -0.005123 0.014357 -0.005152 0.000000 0.000000 0.000000
# 3 -0.010034 -0.005152 0.011753 0.000000 0.000000 0.000000
# 4 0.000000 0.000000 0.000000 0.025955 0.000000 0.000000
# 5 0.000000 0.000000 0.000000 0.000000 0.034592 0.000000
# 6 0.000000 0.000000 0.000000 0.000000 0.000000 0.043584
#
#
# Mechanical properties :
#
#
# Convention : Reuss Voigt Hill
#
# Bulk Modulus (GPa) = 36.17282 66.41616 51.29449
# Shear Modulus (GPa) = 22.49913 28.22688 25.36301
#
# Velocity S-wave (km/s) = 3.52595 3.94935 3.74364
# Velocity P-wave (km/s) = 6.04686 7.58261 6.85786
#
# Compressibility (1/GPa) = 0.02764507
#
# Stress axis : x y z
#
# Youngs Moduli (GPa) = 23.72242 69.65117 85.08270
#
# Poissons Ratio (x) = 0.35683 0.85376
# Poissons Ratio (y) = 0.12153 0.43837
# Poissons Ratio (z) = 0.23804 0.35887
#
# Static dielectric constant tensor:
#      x y z
#    x 2.938220 0.000000 0.000000 
#    y 0.000000 3.505930 0.000000 
#    z 0.000000 0.000000 3.866420 
# 
# 
# High freq. dielectric constant tensor:
#      x y z
#    x 1.651310 0.000000 0.000000 
#    y 0.000000 1.718420 0.000000 
#    z 0.000000 0.000000 1.723190 
# 
# From -- ./inp_files/75688.got.cif
#   From: 2010.03.12/outbox.cif.g09.slc.cpg/sg65_38_cif.got.tgz:75688.got - 2010.04.10 20:52:16.
