data_PCOD8267088
_publ_section_title
;
Structure prediction by ZEFSAII (Michael W. Deem and Ramdas Pophale) SiO2 
 PCOD8267088
Probable space group: C M M M
;
_chemical_formula_sum "Si O2"
_cell_formula_units_Z 88
_cell_length_a 20.313550
_cell_length_b 14.280739
_cell_length_c 17.228340
_cell_angle_alpha 90.000000
_cell_angle_beta 90.000000
_cell_angle_gamma 90.000000
_cell_volume 4997.812320
_symmetry_space_group_name_H-M "C M M M"
_symmetry_group_IT_number 65
_symmetry_cell_setting 'orthorhombic'
loop_
_space_group_symop_operation_xyz
x,y,z
-x,-y,z
x,-y,-z
-x,y,-z
-x,-y,-z
x,y,-z
-x,y,z
x,-y,z
1/2+x,1/2+y,z
1/2-x,1/2-y,z
1/2+x,1/2-y,-z
1/2-x,1/2+y,-z
1/2-x,1/2-y,-z
1/2+x,1/2+y,-z
1/2-x,1/2+y,z
1/2+x,1/2-y,z
loop_
_atom_site_type_symbol
_atom_site_label
_atom_site_fract_x
_atom_site_fract_y
_atom_site_fract_z
Si Si1 0.421673 0.747769 0.292051
Si Si2 0.769875 0.607897 0.911010
Si Si3 0.921822 0.896695 0.584117
Si Si4 0.577588 0.607358 0.000000
Si Si5 0.578230 0.895679 0.414779
Si Si6 0.148705 0.779039 0.130308
O O1 0.500000 0.748646 0.278301
O O2 0.396057 0.661636 0.343535
O O3 0.396354 0.836658 0.341534
O O4 0.385203 0.741667 0.211364
O O5 0.785822 0.500000 0.886084
O O6 0.833259 0.675914 0.903667
O O7 0.712377 0.653811 0.858826
O O8 0.744988 0.610105 0.000000
O O9 0.899620 0.855339 0.500000
O O10 0.000000 0.898196 0.586251
O O11 0.892509 0.000000 0.593798
O O12 0.598765 0.665145 0.924359
O O13 0.606289 0.500000 0.000000
O O14 0.500000 0.601149 0.000000
O O15 0.602162 0.858633 0.500000
O O16 0.500000 0.892672 0.414770
O O17 0.604968 0.000000 0.402101
#
# Coordination Sequence:
#
# PCOD8267088 Si02
#       6
#    16  16  16   8  16  16
#     4  10  19  28  44  73 109 139 158 192 250 309
#     4  10  20  38  62  76  87 121 175 229 265 289
#     4   8  14  25  40  60  92 134 172 198 225 276
#     4  11  22  35  53  77 109 143 165 190 244 317
#     4   8  14  26  44  66  96 137 179 209 236 283
#     4  11  20  35  53  78 104 129 166 214 255 302
#
# _framework density 17.607703999999998
#
# number of rings (size 3 to 8) (size 9 to 14) (size 15 to 20)
#    0.000    2.455    1.818    3.273    0.000    4.364 
#    0.000    1.818    0.000    2.182    0.000   10.182 
#    0.000   17.455    0.000    0.000    0.000    0.000 
#
# Total GULP energy -545106.606730 kJ/mol
# GULP energy per Si atom -12388.786517 kJ/mol
# Density = 1.756763 g / cm^3
# Si number density = 17.607704 Si / 1000 Ang^3
#
#
#
# Elastic Constant Matrix: (Units=GPa)
#
#
# Indices 1 2 3 4 5 6 
#
# 1 41.2062 35.1503 36.1379 0.0000 0.0000 0.0000
# 2 35.1503 146.1445 68.9130 0.0000 0.0000 0.0000
# 3 36.1379 68.9130 147.7626 0.0000 0.0000 0.0000
# 4 0.0000 0.0000 0.0000 27.9661 0.0000 0.0000
# 5 0.0000 0.0000 0.0000 0.0000 9.1853 0.0000
# 6 0.0000 0.0000 0.0000 0.0000 0.0000 17.6004
#
#
#
# Elastic Compliance Matrix: (Units=1/GPa)
#
#
# Indices 1 2 3 4 5 6 
#
# 1 0.033977 -0.005453 -0.005767 0.000000 0.000000 0.000000
# 2 -0.005453 0.009647 -0.003165 0.000000 0.000000 0.000000
# 3 -0.005767 -0.003165 0.009654 0.000000 0.000000 0.000000
# 4 0.000000 0.000000 0.000000 0.035758 0.000000 0.000000
# 5 0.000000 0.000000 0.000000 0.000000 0.108869 0.000000
# 6 0.000000 0.000000 0.000000 0.000000 0.000000 0.056817
#
#
# Mechanical properties :
#
#
# Convention : Reuss Voigt Hill
#
# Bulk Modulus (GPa) = 40.80277 68.39066 54.59671
# Shear Modulus (GPa) = 17.14322 23.94450 20.54386
#
# Velocity S-wave (km/s) = 3.12367 3.69167 3.41948
# Velocity P-wave (km/s) = 6.01941 7.55625 6.83119
#
# Compressibility (1/GPa) = 0.02450814
#
# Stress axis : x y z
#
# Youngs Moduli (GPa) = 29.43172 103.66277 103.58201
#
# Poissons Ratio (x) = 0.56526 0.59731
# Poissons Ratio (y) = 0.16049 0.32788
# Poissons Ratio (z) = 0.16972 0.32813
#
# Static dielectric constant tensor:
#      x y z
#    x 2.788780 0.000000 0.000000 
#    y 0.000000 3.799440 0.000000 
#    z 0.000000 0.000000 3.323330 
# 
# 
# High freq. dielectric constant tensor:
#      x y z
#    x 1.623650 0.000000 0.000000 
#    y 0.000000 1.698270 0.000000 
#    z 0.000000 0.000000 1.681650 
# 
# From -- ./inp_files/45568.got.cif
#   From: 2010.03.12/outbox.cif.g09.slc.cpg/sg65_23_cif.got.tgz:45568.got - 2010.04.10 20:52:16.
