data_PCOD8267581
_publ_section_title
;
Structure prediction by ZEFSAII (Michael W. Deem and Ramdas Pophale) SiO2 
 PCOD8267581
Probable space group: C M M M
;
_chemical_formula_sum "Si O2"
_cell_formula_units_Z 80
_cell_length_a 26.653519
_cell_length_b 15.500324
_cell_length_c 11.411969
_cell_angle_alpha 90.000000
_cell_angle_beta 90.000000
_cell_angle_gamma 90.000000
_cell_volume 4714.720106
_symmetry_space_group_name_H-M "C M M M"
_symmetry_group_IT_number 65
_symmetry_cell_setting 'orthorhombic'
loop_
_space_group_symop_operation_xyz
x,y,z
-x,-y,z
x,-y,-z
-x,y,-z
-x,-y,-z
x,y,-z
-x,y,z
x,-y,z
1/2+x,1/2+y,z
1/2-x,1/2-y,z
1/2+x,1/2-y,-z
1/2-x,1/2+y,-z
1/2-x,1/2-y,-z
1/2+x,1/2+y,-z
1/2-x,1/2+y,z
1/2+x,1/2-y,z
loop_
_atom_site_type_symbol
_atom_site_label
_atom_site_fract_x
_atom_site_fract_y
_atom_site_fract_z
Si Si1 0.598334 0.500000 0.362021
Si Si2 0.558539 0.331518 0.246448
Si Si3 0.226789 0.662624 0.360983
Si Si4 0.940679 0.903056 0.000000
Si Si5 0.387853 0.829711 0.639080
Si Si6 0.443939 0.000000 0.360829
Si Si7 0.288041 0.500000 0.360007
O O1 0.600873 0.500000 0.500000
O O2 0.568033 0.416511 0.322075
O O3 0.655156 0.500000 0.311549
O O4 0.500000 0.307249 0.253336
O O5 0.590682 0.253369 0.296514
O O6 0.576649 0.350026 0.113965
O O7 0.230870 0.662445 0.500000
O O8 0.250000 0.750000 0.308521
O O9 0.169273 0.655867 0.322383
O O10 0.258835 0.583216 0.310035
O O11 0.000000 0.913059 0.000000
O O12 0.917263 0.000000 0.000000
O O13 0.393425 0.815748 0.500000
O O14 0.416756 0.914153 0.684604
O O15 0.500000 0.000000 0.310157
O O16 0.443524 0.000000 0.500000
O O17 0.287505 0.500000 0.500000
#
# Coordination Sequence:
#
# PCOD8267581 Si02
#       7
#     8  16  16   8  16   8   8
#     4  11  21  30  45  75 107 131 156 192 246 301
#     4  11  21  33  50  71  99 130 162 201 240 291
#     4   9  16  27  42  61  91 127 158 191 227 272
#     4   9  18  36  54  67  88 128 176 205 231 281
#     4  10  19  30  47  73 100 129 163 196 241 291
#     4   9  17  29  43  62  95 132 159 185 223 283
#     4   9  17  29  44  65  96 132 166 195 229 280
#
# _framework density 16.968133999999999
#
# number of rings (size 3 to 8) (size 9 to 14) (size 15 to 20)
#    0.000    2.200    1.000    3.300    0.000    8.400 
#    0.000    0.000    0.000    0.600    0.000   10.500 
#    0.000    0.000    0.000    0.000    0.000    0.000 
#
# Total GULP energy -495989.884207 kJ/mol
# GULP energy per Si atom -12399.747105 kJ/mol
# Density = 1.692951 g / cm^3
# Si number density = 16.968134 Si / 1000 Ang^3
#
#
#
# Elastic Constant Matrix: (Units=GPa)
#
#
# Indices 1 2 3 4 5 6 
#
# 1 73.1740 16.3850 13.0805 0.0000 0.0000 0.0000
# 2 16.3850 106.5886 18.1575 0.0000 0.0000 0.0000
# 3 13.0805 18.1575 50.0786 0.0000 0.0000 0.0000
# 4 0.0000 0.0000 0.0000 -128.5031 0.0000 0.0000
# 5 0.0000 0.0000 0.0000 0.0000 7.9688 0.0000
# 6 0.0000 0.0000 0.0000 0.0000 0.0000 40.9803
#
#
#
# Elastic Compliance Matrix: (Units=1/GPa)
#
#
# Indices 1 2 3 4 5 6 
#
# 1 0.014619 -0.001702 -0.003201 0.000000 0.000000 0.000000
# 2 -0.001702 0.010198 -0.003253 0.000000 0.000000 0.000000
# 3 -0.003201 -0.003253 0.021984 0.000000 0.000000 0.000000
# 4 0.000000 0.000000 0.000000 -0.007782 0.000000 0.000000
# 5 0.000000 0.000000 0.000000 0.000000 0.125490 0.000000
# 6 0.000000 0.000000 0.000000 0.000000 0.000000 0.024402
#
#
# Mechanical properties :
#
#
# Convention : Reuss Voigt Hill
#
# Bulk Modulus (GPa) = 32.79908 36.12079 34.45994
# Shear Modulus (GPa) = 23.21402 -3.76292 9.72555
#
# Velocity S-wave (km/s) = 3.70279 -1.49079 2.39668
# Velocity P-wave (km/s) = 6.13617 4.28607 5.29259
#
# Compressibility (1/GPa) = 0.03048866
#
# Stress axis : x y z
#
# Youngs Moduli (GPa) = 68.40204 98.06204 45.48706
#
# Poissons Ratio (x) = 0.16690 0.14563
# Poissons Ratio (y) = 0.11642 0.14797
# Poissons Ratio (z) = 0.21899 0.31899
#
# Static dielectric constant tensor:
#      x y z
#    x 3.338170 0.000000 0.000000 
#    y 0.000000 1.447130 0.000000 
#    z 0.000000 0.000000 2.813820 
# 
# 
# High freq. dielectric constant tensor:
#      x y z
#    x 1.663420 0.000000 0.000000 
#    y 0.000000 1.671570 0.000000 
#    z 0.000000 0.000000 1.592230 
# 
# From -- ./inp_files/32174.got.cif
#   From: 2010.03.12/outbox.cif.g09.slc.cpg/sg65_17_cif.got.tgz:32174.got - 2010.04.10 20:52:16.
