data_PCOD8267210
_publ_section_title
;
Structure prediction by ZEFSAII (Michael W. Deem and Ramdas Pophale) SiO2 
 PCOD8267210
Probable space group: C M M M
;
_chemical_formula_sum "Si O2"
_cell_formula_units_Z 104
_cell_length_a 10.405366
_cell_length_b 41.135622
_cell_length_c 14.345359
_cell_angle_alpha 90.000000
_cell_angle_beta 90.000000
_cell_angle_gamma 90.000000
_cell_volume 6140.261264
_symmetry_space_group_name_H-M "C M M M"
_symmetry_group_IT_number 65
_symmetry_cell_setting 'orthorhombic'
loop_
_space_group_symop_operation_xyz
x,y,z
-x,-y,z
x,-y,-z
-x,y,-z
-x,-y,-z
x,y,-z
-x,y,z
x,-y,z
1/2+x,1/2+y,z
1/2-x,1/2-y,z
1/2+x,1/2-y,-z
1/2-x,1/2+y,-z
1/2-x,1/2-y,-z
1/2+x,1/2+y,-z
1/2-x,1/2+y,z
1/2+x,1/2-y,z
loop_
_atom_site_type_symbol
_atom_site_label
_atom_site_fract_x
_atom_site_fract_y
_atom_site_fract_z
Si Si1 0.150304 0.440819 0.894852
Si Si2 0.652852 0.843058 0.707783
Si Si3 0.000000 0.961737 0.394710
Si Si4 0.647822 0.777259 0.609276
Si Si5 0.756594 0.462917 0.292690
Si Si6 0.151732 0.634190 0.100133
Si Si7 0.354079 0.095158 0.601628
O O1 0.234868 0.460814 0.819861
O O2 0.186091 0.403256 0.881654
O O3 0.000000 0.447173 0.875523
O O4 0.185123 0.452339 0.000000
O O5 0.500000 0.845776 0.709130
O O6 0.696079 0.809657 0.660719
O O7 0.705961 0.844227 0.814474
O O8 0.712676 0.874141 0.653341
O O9 0.878874 0.950484 0.333579
O O10 0.000000 0.946649 0.500000
O O11 0.000000 0.000000 0.404468
O O12 0.656318 0.784057 0.500000
O O13 0.500000 0.767842 0.636439
O O14 0.750000 0.750000 0.640196
O O15 0.785712 0.500000 0.323523
O O16 0.856588 0.437944 0.338255
O O17 0.000000 0.637614 0.094252
O O18 0.210683 0.645568 0.000000
O O19 0.288376 0.089719 0.500000
O O20 0.500000 0.105260 0.586059
#
# Coordination Sequence:
#
# PCOD8267210 Si02
#       7
#    16  16   8  16  16  16  16
#     4   9  17  30  48  72 101 126 148 185 244 304
#     4   9  15  26  45  68  93 123 156 189 230 280
#     4   9  20  38  53  61  77 117 170 212 243 283
#     4   9  17  29  47  70  97 129 160 190 230 282
#     4  11  21  33  49  66  88 124 165 202 244 291
#     4   8  13  23  42  67  94 123 154 188 226 274
#     4  10  19  29  44  69  97 120 149 195 245 293
#
# _framework density 16.937390000000001
#
# number of rings (size 3 to 8) (size 9 to 14) (size 15 to 20)
#    0.000    2.692    1.538    2.308    0.000    4.308 
#    0.000    1.923    1.692    1.846    0.000    0.000 
#    0.000    0.000    0.000    0.000    0.000    0.000 
#
# Total GULP energy -644276.058520 kJ/mol
# GULP energy per Si atom -12389.924202 kJ/mol
# Density = 1.689884 g / cm^3
# Si number density = 16.937390 Si / 1000 Ang^3
#
#
#
# Elastic Constant Matrix: (Units=GPa)
#
#
# Indices 1 2 3 4 5 6 
#
# 1 39.5964 23.0307 30.4778 0.0000 0.0000 0.0000
# 2 23.0307 106.0759 59.2458 0.0000 0.0000 0.0000
# 3 30.4778 59.2458 136.6815 0.0000 0.0000 0.0000
# 4 0.0000 0.0000 0.0000 264.1875 0.0000 0.0000
# 5 0.0000 0.0000 0.0000 0.0000 17.3411 0.0000
# 6 0.0000 0.0000 0.0000 0.0000 0.0000 16.6315
#
#
#
# Elastic Compliance Matrix: (Units=1/GPa)
#
#
# Indices 1 2 3 4 5 6 
#
# 1 0.031645 -0.003865 -0.005381 0.000000 0.000000 0.000000
# 2 -0.003865 0.012911 -0.004734 0.000000 0.000000 0.000000
# 3 -0.005381 -0.004734 0.010568 0.000000 0.000000 0.000000
# 4 0.000000 0.000000 0.000000 0.003785 0.000000 0.000000
# 5 0.000000 0.000000 0.000000 0.000000 0.057667 0.000000
# 6 0.000000 0.000000 0.000000 0.000000 0.000000 0.060127
#
#
# Mechanical properties :
#
#
# Convention : Reuss Voigt Hill
#
# Bulk Modulus (GPa) = 36.81508 56.42917 46.62213
# Shear Modulus (GPa) = 23.39539 70.93866 47.16702
#
# Velocity S-wave (km/s) = 3.72060 6.47872 5.28283
# Velocity P-wave (km/s) = 6.34352 9.45271 8.04966
#
# Compressibility (1/GPa) = 0.02716278
#
# Stress axis : x y z
#
# Youngs Moduli (GPa) = 31.60086 77.45543 94.62286
#
# Poissons Ratio (x) = 0.29938 0.50915
# Poissons Ratio (y) = 0.12214 0.44798
# Poissons Ratio (z) = 0.17004 0.36670
#
# Static dielectric constant tensor:
#      x y z
#    x 2.784920 0.000000 0.000000 
#    y 0.000000 3.020610 0.000000 
#    z 0.000000 0.000000 3.876050 
# 
# 
# High freq. dielectric constant tensor:
#      x y z
#    x 1.595170 0.000000 0.000000 
#    y 0.000000 1.632920 0.000000 
#    z 0.000000 0.000000 1.671740 
# 
# From -- ./inp_files/38998.got.cif
#   From: 2010.03.12/outbox.cif.g09.slc.cpg/sg65_20_cif.got.tgz:38998.got - 2010.04.10 20:52:16.
