data_PCOD8267420
_publ_section_title
;
Structure prediction by ZEFSAII (Michael W. Deem and Ramdas Pophale) SiO2 
 PCOD8267420
Probable space group: C M M M
;
_chemical_formula_sum "Si O2"
_cell_formula_units_Z 104
_cell_length_a 8.892823
_cell_length_b 27.394888
_cell_length_c 26.061441
_cell_angle_alpha 90.000000
_cell_angle_beta 90.000000
_cell_angle_gamma 90.000000
_cell_volume 6349.033269
_symmetry_space_group_name_H-M "C M M M"
_symmetry_group_IT_number 65
_symmetry_cell_setting 'orthorhombic'
loop_
_space_group_symop_operation_xyz
x,y,z
-x,-y,z
x,-y,-z
-x,y,-z
-x,-y,-z
x,y,-z
-x,y,z
x,-y,z
1/2+x,1/2+y,z
1/2-x,1/2-y,z
1/2+x,1/2-y,-z
1/2-x,1/2+y,-z
1/2-x,1/2-y,-z
1/2+x,1/2+y,-z
1/2-x,1/2+y,z
1/2+x,1/2-y,z
loop_
_atom_site_type_symbol
_atom_site_label
_atom_site_fract_x
_atom_site_fract_y
_atom_site_fract_z
Si Si1 0.175918 0.610640 0.698170
Si Si2 0.669235 0.057870 0.500000
Si Si3 0.324125 0.199566 0.941192
Si Si4 0.322585 0.302468 0.753283
Si Si5 0.677138 0.443336 0.396030
Si Si6 0.324599 0.640701 0.855554
Si Si7 0.174177 0.555856 0.198546
O O1 0.253392 0.662262 0.710254
O O2 0.247339 0.588852 0.647429
O O3 0.208529 0.572601 0.743694
O O4 0.000000 0.619256 0.689780
O O5 0.500000 0.079260 0.500000
O O6 0.757782 0.076118 0.449879
O O7 0.664986 0.000000 0.500000
O O8 0.500000 0.204838 0.932500
O O9 0.250000 0.250000 0.923229
O O10 0.261202 0.155940 0.906936
O O11 0.283311 0.187704 0.000000
O O12 0.500000 0.299337 0.745264
O O13 0.250000 0.250000 0.746380
O O14 0.280994 0.322661 0.809586
O O15 0.500000 0.435132 0.395697
O O16 0.718594 0.500000 0.387119
O O17 0.500000 0.640874 0.866936
O O18 0.273142 0.586208 0.841573
O O19 0.223233 0.500000 0.193225
O O20 0.000000 0.563854 0.185111
#
# Coordination Sequence:
#
# PCOD8267420 Si02
#       7
#    16   8  16  16  16  16  16
#     4  10  19  31  48  70  95 125 160 195 233 278
#     4   9  17  29  45  65  90 123 162 199 235 279
#     4  10  20  33  50  72  97 124 154 190 233 280
#     4  10  20  33  48  69  96 125 157 192 233 279
#     4  10  19  30  45  67  97 129 159 195 238 281
#     4  10  20  32  49  72  97 126 157 191 232 279
#     4   9  18  32  49  69  95 127 161 196 233 275
#
# _framework density 16.380447
#
# number of rings (size 3 to 8) (size 9 to 14) (size 15 to 20)
#    0.000    2.231    0.000    3.462    0.000    7.385 
#    0.000    0.000    0.000    0.462    0.000    3.769 
#    0.000    0.000    0.000    0.000    0.000    0.000 
#
# Total GULP energy -644989.439553 kJ/mol
# GULP energy per Si atom -12403.643068 kJ/mol
# Density = 1.634316 g / cm^3
# Si number density = 16.380447 Si / 1000 Ang^3
#
#
#
# Elastic Constant Matrix: (Units=GPa)
#
#
# Indices 1 2 3 4 5 6 
#
# 1 87.7340 51.3591 55.0521 0.0000 0.0000 0.0000
# 2 51.3591 110.9526 59.2829 0.0000 0.0000 0.0000
# 3 55.0521 59.2829 107.3385 0.0000 0.0000 0.0000
# 4 0.0000 0.0000 0.0000 24.8731 0.0000 0.0000
# 5 0.0000 0.0000 0.0000 0.0000 30.6527 0.0000
# 6 0.0000 0.0000 0.0000 0.0000 0.0000 30.1772
#
#
#
# Elastic Compliance Matrix: (Units=1/GPa)
#
#
# Indices 1 2 3 4 5 6 
#
# 1 0.018558 -0.004972 -0.006772 0.000000 0.000000 0.000000
# 2 -0.004972 0.014118 -0.005247 0.000000 0.000000 0.000000
# 3 -0.006772 -0.005247 0.015688 0.000000 0.000000 0.000000
# 4 0.000000 0.000000 0.000000 0.040204 0.000000 0.000000
# 5 0.000000 0.000000 0.000000 0.000000 0.032624 0.000000
# 6 0.000000 0.000000 0.000000 0.000000 0.000000 0.033138
#
#
# Mechanical properties :
#
#
# Convention : Reuss Voigt Hill
#
# Bulk Modulus (GPa) = 69.53626 70.82373 70.17999
# Shear Modulus (GPa) = 25.89256 26.49599 26.19427
#
# Velocity S-wave (km/s) = 3.98011 4.02623 4.00324
# Velocity P-wave (km/s) = 7.97901 8.05882 8.01902
#
# Compressibility (1/GPa) = 0.01438099
#
# Stress axis : x y z
#
# Youngs Moduli (GPa) = 53.88484 70.83127 63.74419
#
# Poissons Ratio (x) = 0.35217 0.43168
# Poissons Ratio (y) = 0.26792 0.33449
# Poissons Ratio (z) = 0.36491 0.37167
#
# Static dielectric constant tensor:
#      x y z
#    x 3.226960 0.000000 0.000000 
#    y 0.000000 2.975560 0.000000 
#    z 0.000000 0.000000 3.067400 
# 
# 
# High freq. dielectric constant tensor:
#      x y z
#    x 1.648690 0.000000 0.000000 
#    y 0.000000 1.610530 0.000000 
#    z 0.000000 0.000000 1.623250 
# 
# From -- ./inp_files/68237.got.cif
#   From: 2010.03.12/outbox.cif.g09.slc.cpg/sg65_35_cif.got.tgz:68237.got - 2010.04.10 20:52:16.
