data_PCOD8267424
_publ_section_title
;
Structure prediction by ZEFSAII (Michael W. Deem and Ramdas Pophale) SiO2 
 PCOD8267424
Probable space group: C M M M
;
_chemical_formula_sum "Si O2"
_cell_formula_units_Z 104
_cell_length_a 29.651992
_cell_length_b 22.803929
_cell_length_c 8.939273
_cell_angle_alpha 90.000000
_cell_angle_beta 90.000000
_cell_angle_gamma 90.000000
_cell_volume 6044.574783
_symmetry_space_group_name_H-M "C M M M"
_symmetry_group_IT_number 65
_symmetry_cell_setting 'orthorhombic'
loop_
_space_group_symop_operation_xyz
x,y,z
-x,-y,z
x,-y,-z
-x,y,-z
-x,-y,-z
x,y,-z
-x,y,z
x,-y,z
1/2+x,1/2+y,z
1/2-x,1/2-y,z
1/2+x,1/2-y,-z
1/2-x,1/2+y,-z
1/2-x,1/2-y,-z
1/2+x,1/2+y,-z
1/2-x,1/2+y,z
1/2+x,1/2-y,z
loop_
_atom_site_type_symbol
_atom_site_label
_atom_site_fract_x
_atom_site_fract_y
_atom_site_fract_z
Si Si1 0.448075 0.715826 0.325016
Si Si2 0.894933 0.112238 0.177511
Si Si3 0.879650 0.565204 0.178009
Si Si4 0.780859 0.569558 0.165875
Si Si5 0.051696 0.662605 0.173882
Si Si6 0.449432 0.500000 0.177953
Si Si7 0.807961 0.068344 0.674215
O O1 0.438254 0.711375 0.500000
O O2 0.500000 0.701059 0.287245
O O3 0.416405 0.671409 0.237712
O O4 0.435791 0.780504 0.269288
O O5 0.924049 0.057446 0.238517
O O6 0.844258 0.106416 0.236613
O O7 0.894256 0.113966 0.000000
O O8 0.889242 0.500000 0.243813
O O9 0.830090 0.588886 0.228090
O O10 0.917720 0.609639 0.236492
O O11 0.880503 0.561660 0.000000
O O12 0.781281 0.500000 0.155417
O O13 0.741469 0.591057 0.276604
O O14 0.771983 0.595767 0.000000
O O15 0.000000 0.643962 0.198641
O O16 0.061442 0.675964 0.000000
O O17 0.500000 0.500000 0.243333
O O18 0.450235 0.500000 0.000000
O O19 0.814026 0.079908 0.500000
O O20 0.814241 0.000000 0.715243
#
# Coordination Sequence:
#
# PCOD8267424 Si02
#       7
#    16  16  16  16  16   8  16
#     4  10  21  36  51  68  94 130 169 205 243 287
#     4  11  20  32  51  72  96 125 162 205 248 293
#     4   8  14  26  47  77 107 131 159 200 245 286
#     4   8  14  26  45  67  94 129 165 197 235 286
#     4   9  17  30  50  75 101 131 167 202 238 286
#     4   9  18  30  45  69  97 121 149 193 244 289
#     4  10  19  30  45  68 100 130 160 199 244 292
#
# _framework density 17.205511999999999
#
# number of rings (size 3 to 8) (size 9 to 14) (size 15 to 20)
#    0.000    2.692    0.769    2.769    0.000    2.462 
#    0.000    2.308    0.000    4.154    0.000    8.615 
#    0.000    0.000    0.000    0.000    0.000    0.000 
#
# Total GULP energy -644720.776935 kJ/mol
# GULP energy per Si atom -12398.476480 kJ/mol
# Density = 1.716635 g / cm^3
# Si number density = 17.205512 Si / 1000 Ang^3
#
#
#
# Elastic Constant Matrix: (Units=GPa)
#
#
# Indices 1 2 3 4 5 6 
#
# 1 137.7147 71.7145 42.9601 0.0000 0.0000 0.0000
# 2 71.7145 85.1283 34.8676 0.0000 0.0000 0.0000
# 3 42.9601 34.8676 61.4101 0.0000 0.0000 0.0000
# 4 0.0000 0.0000 0.0000 15.8383 0.0000 0.0000
# 5 0.0000 0.0000 0.0000 0.0000 18.2830 0.0000
# 6 0.0000 0.0000 0.0000 0.0000 0.0000 20.3701
#
#
#
# Elastic Compliance Matrix: (Units=1/GPa)
#
#
# Indices 1 2 3 4 5 6 
#
# 1 0.013627 -0.009871 -0.003929 0.000000 0.000000 0.000000
# 2 -0.009871 0.022456 -0.005845 0.000000 0.000000 0.000000
# 3 -0.003929 -0.005845 0.022351 0.000000 0.000000 0.000000
# 4 0.000000 0.000000 0.000000 0.063138 0.000000 0.000000
# 5 0.000000 0.000000 0.000000 0.000000 0.054696 0.000000
# 6 0.000000 0.000000 0.000000 0.000000 0.000000 0.049092
#
#
# Mechanical properties :
#
#
# Convention : Reuss Voigt Hill
#
# Bulk Modulus (GPa) = 52.23128 64.81526 58.52327
# Shear Modulus (GPa) = 18.44810 19.87901 19.16356
#
# Velocity S-wave (km/s) = 3.27803 3.40278 3.34099
# Velocity P-wave (km/s) = 6.68958 7.29326 6.99793
#
# Compressibility (1/GPa) = 0.01914562
#
# Stress axis : x y z
#
# Youngs Moduli (GPa) = 73.38356 44.53054 44.74065
#
# Poissons Ratio (x) = 0.43955 0.17576
# Poissons Ratio (y) = 0.72435 0.26152
# Poissons Ratio (z) = 0.28829 0.26029
#
# Static dielectric constant tensor:
#      x y z
#    x 3.490430 0.000000 0.000000 
#    y 0.000000 3.064760 0.000000 
#    z 0.000000 0.000000 3.018450 
# 
# 
# High freq. dielectric constant tensor:
#      x y z
#    x 1.673350 0.000000 0.000000 
#    y 0.000000 1.634620 0.000000 
#    z 0.000000 0.000000 1.646580 
# 
# From -- ./inp_files/16733.got.cif
#   From: 2010.03.12/outbox.cif.g09.slc.cpg/sg65_9_cif.got.tgz:16733.got - 2010.04.10 20:52:16.
