data_PCOD8267923
_publ_section_title
;
Structure prediction by ZEFSAII (Michael W. Deem and Ramdas Pophale) SiO2 
 PCOD8267923
Probable space group: C M M M
;
_chemical_formula_sum "Si O2"
_cell_formula_units_Z 120
_cell_length_a 26.569358
_cell_length_b 19.531683
_cell_length_c 12.865280
_cell_angle_alpha 90.000000
_cell_angle_beta 90.000000
_cell_angle_gamma 90.000000
_cell_volume 6676.363440
_symmetry_space_group_name_H-M "C M M M"
_symmetry_group_IT_number 65
_symmetry_cell_setting 'orthorhombic'
loop_
_space_group_symop_operation_xyz
x,y,z
-x,-y,z
x,-y,-z
-x,y,-z
-x,-y,-z
x,y,-z
-x,y,z
x,-y,z
1/2+x,1/2+y,z
1/2-x,1/2-y,z
1/2+x,1/2-y,-z
1/2-x,1/2+y,-z
1/2-x,1/2-y,-z
1/2+x,1/2+y,-z
1/2-x,1/2+y,z
1/2+x,1/2-y,z
loop_
_atom_site_type_symbol
_atom_site_label
_atom_site_fract_x
_atom_site_fract_y
_atom_site_fract_z
Si Si1 0.368836 0.808747 0.618728
Si Si2 0.444956 0.691219 0.117951
Si Si3 0.261749 0.173620 0.295865
Si Si4 0.059651 0.578273 0.000000
Si Si5 0.440214 0.835717 0.201691
Si Si6 0.372596 0.422506 0.812484
Si Si7 0.344911 0.653046 0.616688
Si Si8 0.239926 0.922227 0.117652
O O1 0.384139 0.825343 0.500000
O O2 0.311949 0.834229 0.636677
O O3 0.407921 0.849850 0.693482
O O4 0.369022 0.727227 0.638740
O O5 0.500000 0.670459 0.160137
O O6 0.425313 0.757492 0.178420
O O7 0.410247 0.625576 0.126246
O O8 0.448336 0.715431 0.000000
O O9 0.250000 0.250000 0.256167
O O10 0.215204 0.150213 0.366875
O O11 0.270009 0.127432 0.193967
O O12 0.078068 0.616058 0.894105
O O13 0.080050 0.500000 0.000000
O O14 0.000000 0.579548 0.000000
O O15 0.500000 0.845293 0.222415
O O16 0.391814 0.500000 0.821453
O O17 0.371248 0.401469 0.691777
O O18 0.319319 0.412242 0.867122
O O19 0.356355 0.629493 0.500000
O O20 0.255425 0.000000 0.143132
O O21 0.254385 0.902986 0.000000
#
# Coordination Sequence:
#
# PCOD8267923 Si02
#       8
#    16  16  16   8  16  16  16  16
#     4  10  19  33  54  79 105 135 173 217 263 311
#     4  10  19  32  50  73 104 139 177 221 264 309
#     4   9  18  32  50  75 102 130 171 218 261 308
#     4   9  18  36  62  86 106 131 167 213 263 320
#     4  10  19  34  56  82 109 137 172 213 262 318
#     4  10  19  31  48  72 103 141 184 225 265 308
#     4   9  17  31  51  73  98 133 177 224 267 307
#     4   9  18  33  50  70 102 140 173 210 258 313
#
# _framework density 17.973856999999999
#
# number of rings (size 3 to 8) (size 9 to 14) (size 15 to 20)
#    0.000    2.467    2.000    0.800    0.000    3.467 
#    1.200    1.333    0.000    2.800    0.000    2.800 
#    0.000    0.000    0.000    0.000    0.000    0.000 
#
# Total GULP energy -743796.257630 kJ/mol
# GULP energy per Si atom -12396.604294 kJ/mol
# Density = 1.793295 g / cm^3
# Si number density = 17.973857 Si / 1000 Ang^3
#
#
#
# Elastic Constant Matrix: (Units=GPa)
#
#
# Indices 1 2 3 4 5 6 
#
# 1 45.1107 21.8859 31.7187 0.0000 0.0000 0.0000
# 2 21.8859 66.2947 34.2446 0.0000 0.0000 0.0000
# 3 31.7187 34.2446 110.9890 0.0000 0.0000 0.0000
# 4 0.0000 0.0000 0.0000 25.1498 0.0000 0.0000
# 5 0.0000 0.0000 0.0000 0.0000 26.6813 0.0000
# 6 0.0000 0.0000 0.0000 0.0000 0.0000 19.5436
#
#
#
# Elastic Compliance Matrix: (Units=1/GPa)
#
#
# Indices 1 2 3 4 5 6 
#
# 1 0.029923 -0.006497 -0.006547 0.000000 0.000000 0.000000
# 2 -0.006497 0.019355 -0.004115 0.000000 0.000000 0.000000
# 3 -0.006547 -0.004115 0.012151 0.000000 0.000000 0.000000
# 4 0.000000 0.000000 0.000000 0.039762 0.000000 0.000000
# 5 0.000000 0.000000 0.000000 0.000000 0.037479 0.000000
# 6 0.000000 0.000000 0.000000 0.000000 0.000000 0.051168
#
#
# Mechanical properties :
#
#
# Convention : Reuss Voigt Hill
#
# Bulk Modulus (GPa) = 36.88574 44.23256 40.55915
# Shear Modulus (GPa) = 21.44165 23.24462 22.34314
#
# Velocity S-wave (km/s) = 3.45764 3.60007 3.52957
# Velocity P-wave (km/s) = 6.04208 6.47638 6.26300
#
# Compressibility (1/GPa) = 0.02711075
#
# Stress axis : x y z
#
# Youngs Moduli (GPa) = 33.41915 51.66753 82.30064
#
# Poissons Ratio (x) = 0.33566 0.53882
# Poissons Ratio (y) = 0.21711 0.33867
# Poissons Ratio (z) = 0.21879 0.21261
#
# Static dielectric constant tensor:
#      x y z
#    x 3.129450 0.000000 0.000000 
#    y 0.000000 3.286390 0.000000 
#    z 0.000000 0.000000 3.366680 
# 
# 
# High freq. dielectric constant tensor:
#      x y z
#    x 1.676700 0.000000 0.000000 
#    y 0.000000 1.681270 0.000000 
#    z 0.000000 0.000000 1.699640 
# 
# From -- ./inp_files/32822.got.cif
#   From: 2010.03.12/outbox.cif.g09.slc.cpg/sg65_17_cif.got.tgz:32822.got - 2010.04.10 20:52:16.
