data_PCOD8267997
_publ_section_title
;
Structure prediction by ZEFSAII (Michael W. Deem and Ramdas Pophale) SiO2 
 PCOD8267997
Probable space group: C M M M
;
_chemical_formula_sum "Si O2"
_cell_formula_units_Z 96
_cell_length_a 14.532803
_cell_length_b 23.029485
_cell_length_c 15.732025
_cell_angle_alpha 90.000000
_cell_angle_beta 90.000000
_cell_angle_gamma 90.000000
_cell_volume 5265.240831
_symmetry_space_group_name_H-M "C M M M"
_symmetry_group_IT_number 65
_symmetry_cell_setting 'orthorhombic'
loop_
_space_group_symop_operation_xyz
x,y,z
-x,-y,z
x,-y,-z
-x,y,-z
-x,-y,-z
x,y,-z
-x,y,z
x,-y,z
1/2+x,1/2+y,z
1/2-x,1/2-y,z
1/2+x,1/2-y,-z
1/2-x,1/2+y,-z
1/2-x,1/2-y,-z
1/2+x,1/2+y,-z
1/2-x,1/2+y,z
1/2+x,1/2-y,z
loop_
_atom_site_type_symbol
_atom_site_label
_atom_site_fract_x
_atom_site_fract_y
_atom_site_fract_z
Si Si1 0.602780 0.736737 0.903518
Si Si2 0.897596 0.638653 0.153316
Si Si3 0.204305 0.121596 0.095201
Si Si4 0.214646 0.931858 0.407280
Si Si5 0.602236 0.431850 0.751291
Si Si6 0.601864 0.065941 0.320830
O O1 0.500000 0.710198 0.895066
O O2 0.613703 0.791597 0.841016
O O3 0.676469 0.687427 0.879401
O O4 0.620093 0.758851 0.000000
O O5 0.814906 0.613721 0.095866
O O6 0.886142 0.611860 0.245895
O O7 0.000000 0.623411 0.116095
O O8 0.157608 0.078912 0.162175
O O9 0.168897 0.106872 0.000000
O O10 0.188497 0.905159 0.500000
O O11 0.153862 0.904201 0.331011
O O12 0.322619 0.919235 0.391714
O O13 0.196144 0.000000 0.409773
O O14 0.500000 0.404583 0.756673
O O15 0.596000 0.500000 0.739060
O O16 0.500000 0.071669 0.361380
O O17 0.617088 0.000000 0.285873
#
# Coordination Sequence:
#
# PCOD8267997 Si02
#       6
#    16  16  16  16  16  16
#     4   9  18  32  49  71  97 126 168 216 252 285
#     4  10  19  31  49  72 100 134 168 206 249 291
#     4  11  21  33  51  73 100 135 172 209 249 291
#     4   9  17  31  52  76 101 129 162 201 248 298
#     4  10  21  36  52  73 102 132 165 206 250 299
#     4   9  17  30  49  74 104 134 164 200 243 295
#
# _framework density 18.232785
#
# number of rings (size 3 to 8) (size 9 to 14) (size 15 to 20)
#    0.000    2.333    1.667    1.500    0.000    4.333 
#    0.000    4.167    0.000    1.500    0.000   14.000 
#    0.000    4.000    0.000    0.000    0.000    0.000 
#
# Total GULP energy -594832.348285 kJ/mol
# GULP energy per Si atom -12392.340589 kJ/mol
# Density = 1.819129 g / cm^3
# Si number density = 18.232785 Si / 1000 Ang^3
#
#
#
# Elastic Constant Matrix: (Units=GPa)
#
#
# Indices 1 2 3 4 5 6 
#
# 1 139.1717 15.5442 54.7995 0.0000 0.0000 0.0000
# 2 15.5442 30.4038 23.0550 0.0000 0.0000 0.0000
# 3 54.7995 23.0550 109.6294 0.0000 0.0000 0.0000
# 4 0.0000 0.0000 0.0000 9.1963 0.0000 0.0000
# 5 0.0000 0.0000 0.0000 0.0000 19.7750 0.0000
# 6 0.0000 0.0000 0.0000 0.0000 0.0000 21.8348
#
#
#
# Elastic Compliance Matrix: (Units=1/GPa)
#
#
# Indices 1 2 3 4 5 6 
#
# 1 0.008997 -0.001415 -0.004200 0.000000 0.000000 0.000000
# 2 -0.001415 0.039353 -0.007569 0.000000 0.000000 0.000000
# 3 -0.004200 -0.007569 0.012813 0.000000 0.000000 0.000000
# 4 0.000000 0.000000 0.000000 0.108740 0.000000 0.000000
# 5 0.000000 0.000000 0.000000 0.000000 0.050569 0.000000
# 6 0.000000 0.000000 0.000000 0.000000 0.000000 0.045798
#
#
# Mechanical properties :
#
#
# Convention : Reuss Voigt Hill
#
# Bulk Modulus (GPa) = 28.73890 51.77803 40.25846
# Shear Modulus (GPa) = 16.43462 22.54829 19.49146
#
# Velocity S-wave (km/s) = 3.00555 3.52047 3.27315
# Velocity P-wave (km/s) = 5.27645 6.70708 6.03431
#
# Compressibility (1/GPa) = 0.03479604
#
# Stress axis : x y z
#
# Youngs Moduli (GPa) = 111.14724 25.41079 78.04854
#
# Poissons Ratio (x) = 0.03596 0.32778
# Poissons Ratio (y) = 0.15730 0.59071
# Poissons Ratio (z) = 0.46678 0.19232
#
# Static dielectric constant tensor:
#      x y z
#    x 3.851630 0.000000 0.000000 
#    y 0.000000 3.031860 0.000000 
#    z 0.000000 0.000000 3.303880 
# 
# 
# High freq. dielectric constant tensor:
#      x y z
#    x 1.732100 0.000000 0.000000 
#    y 0.000000 1.662630 0.000000 
#    z 0.000000 0.000000 1.683570 
# 
# From -- ./inp_files/40378.got.cif
#   From: 2010.03.12/outbox.cif.g09.slc.cpg/sg65_21_cif.got.tgz:40378.got - 2010.04.10 20:52:16.
