data_PCOD8267199
_publ_section_title
;
Structure prediction by ZEFSAII (Michael W. Deem and Ramdas Pophale) SiO2 
 PCOD8267199
Probable space group: C M M M
;
_chemical_formula_sum "Si O2"
_cell_formula_units_Z 72
_cell_length_a 9.427542
_cell_length_b 25.055945
_cell_length_c 17.357444
_cell_angle_alpha 90.000000
_cell_angle_beta 90.000000
_cell_angle_gamma 90.000000
_cell_volume 4100.105538
_symmetry_space_group_name_H-M "C M M M"
_symmetry_group_IT_number 65
_symmetry_cell_setting 'orthorhombic'
loop_
_space_group_symop_operation_xyz
x,y,z
-x,-y,z
x,-y,-z
-x,y,-z
-x,-y,-z
x,y,-z
-x,y,z
x,-y,z
1/2+x,1/2+y,z
1/2-x,1/2-y,z
1/2+x,1/2-y,-z
1/2-x,1/2+y,-z
1/2-x,1/2-y,-z
1/2+x,1/2+y,-z
1/2-x,1/2+y,z
1/2+x,1/2-y,z
loop_
_atom_site_type_symbol
_atom_site_label
_atom_site_fract_x
_atom_site_fract_y
_atom_site_fract_z
Si Si1 0.337087 0.348711 0.584413
Si Si2 0.337387 0.700165 0.743486
Si Si3 0.337966 0.940412 0.356667
Si Si4 0.166846 0.000000 0.084849
Si Si5 0.834606 0.915740 0.791786
O O1 0.319003 0.321116 0.500000
O O2 0.500000 0.365871 0.598531
O O3 0.290097 0.310397 0.654484
O O4 0.241122 0.401549 0.584079
O O5 0.500000 0.716994 0.747170
O O6 0.250000 0.750000 0.776567
O O7 0.307446 0.648091 0.796373
O O8 0.500000 0.921286 0.345639
O O9 0.259783 0.940464 0.274985
O O10 0.332966 0.000000 0.391072
O O11 0.211958 0.054131 0.129927
O O12 0.000000 0.000000 0.074700
O O13 0.239063 0.000000 0.000000
O O14 0.000000 0.926733 0.773126
#
# Coordination Sequence:
#
# PCOD8267199 Si02
#       5
#    16  16  16   8  16
#     4   9  19  34  48  64  89 122 163 208 251 294
#     4   9  18  31  48  70  93 124 165 204 241 283
#     4  10  19  29  44  67  95 127 162 198 239 289
#     4   9  16  28  53  85 106 123 154 197 239 276
#     4   9  17  31  51  73  99 128 160 197 236 283
#
# _framework density 17.560524000000001
#
# number of rings (size 3 to 8) (size 9 to 14) (size 15 to 20)
#    0.000    2.778    1.111    2.000    0.000    6.222 
#    0.000    2.222    0.000    2.000    0.000    0.000 
#    0.000    0.000    0.000    0.000    0.000    0.444 
#
# Total GULP energy -446146.963699 kJ/mol
# GULP energy per Si atom -12392.971214 kJ/mol
# Density = 1.752056 g / cm^3
# Si number density = 17.560524 Si / 1000 Ang^3
#
#
#
# Elastic Constant Matrix: (Units=GPa)
#
#
# Indices 1 2 3 4 5 6 
#
# 1 59.0417 36.3359 9.7404 0.0000 0.0000 0.0000
# 2 36.3359 113.4968 33.9714 0.0000 0.0000 0.0000
# 3 9.7404 33.9714 90.6161 0.0000 0.0000 0.0000
# 4 0.0000 0.0000 0.0000 14.6404 0.0000 0.0000
# 5 0.0000 0.0000 0.0000 0.0000 7.3164 0.0000
# 6 0.0000 0.0000 0.0000 0.0000 0.0000 29.9634
#
#
#
# Elastic Compliance Matrix: (Units=1/GPa)
#
#
# Indices 1 2 3 4 5 6 
#
# 1 0.021100 -0.006844 0.000298 0.000000 0.000000 0.000000
# 2 -0.006844 0.012145 -0.003817 0.000000 0.000000 0.000000
# 3 0.000298 -0.003817 0.012435 0.000000 0.000000 0.000000
# 4 0.000000 0.000000 0.000000 0.068304 0.000000 0.000000
# 5 0.000000 0.000000 0.000000 0.000000 0.136680 0.000000
# 6 0.000000 0.000000 0.000000 0.000000 0.000000 0.033374
#
#
# Mechanical properties :
#
#
# Convention : Reuss Voigt Hill
#
# Bulk Modulus (GPa) = 40.07705 47.02777 43.55241
# Shear Modulus (GPa) = 15.97023 22.59115 19.28069
#
# Velocity S-wave (km/s) = 3.01896 3.59064 3.31714
# Velocity P-wave (km/s) = 5.91811 6.63542 6.28700
#
# Compressibility (1/GPa) = 0.02495193
#
# Stress axis : x y z
#
# Youngs Moduli (GPa) = 47.39274 82.34117 80.42072
#
# Poissons Ratio (x) = 0.56357 -0.02395
# Poissons Ratio (y) = 0.32437 0.30698
# Poissons Ratio (z) = -0.01411 0.31431
#
# Static dielectric constant tensor:
#      x y z
#    x 3.170650 0.000000 0.000000 
#    y 0.000000 3.194610 0.000000 
#    z 0.000000 0.000000 3.247320 
# 
# 
# High freq. dielectric constant tensor:
#      x y z
#    x 1.669560 0.000000 0.000000 
#    y 0.000000 1.673510 0.000000 
#    z 0.000000 0.000000 1.646280 
# 
# From -- ./inp_files/49513.got.cif
#   From: 2010.03.12/outbox.cif.g09.slc.cpg/sg65_25_cif.got.tgz:49513.got - 2010.04.10 20:52:16.
