data_PCOD8267938
_publ_section_title
;
Structure prediction by ZEFSAII (Michael W. Deem and Ramdas Pophale) SiO2 
 PCOD8267938
Probable space group: C M M M
;
_chemical_formula_sum "Si O2"
_cell_formula_units_Z 60
_cell_length_a 15.164163
_cell_length_b 18.024320
_cell_length_c 12.706978
_cell_angle_alpha 90.000000
_cell_angle_beta 90.000000
_cell_angle_gamma 90.000000
_cell_volume 3473.118579
_symmetry_space_group_name_H-M "C M M M"
_symmetry_group_IT_number 65
_symmetry_cell_setting 'orthorhombic'
loop_
_space_group_symop_operation_xyz
x,y,z
-x,-y,z
x,-y,-z
-x,y,-z
-x,-y,-z
x,y,-z
-x,y,z
x,-y,z
1/2+x,1/2+y,z
1/2-x,1/2-y,z
1/2+x,1/2-y,-z
1/2-x,1/2+y,-z
1/2-x,1/2-y,-z
1/2+x,1/2+y,-z
1/2-x,1/2+y,z
1/2+x,1/2-y,z
loop_
_atom_site_type_symbol
_atom_site_label
_atom_site_fract_x
_atom_site_fract_y
_atom_site_fract_z
Si Si1 0.664723 0.417163 0.000000
Si Si2 0.328756 0.913880 0.621498
Si Si3 0.000000 0.184560 0.228093
Si Si4 0.674203 0.586011 0.228228
Si Si5 0.000000 0.813580 0.000000
Si Si6 0.500000 0.822473 0.376647
O O1 0.716915 0.404135 0.889928
O O2 0.626353 0.500000 0.000000
O O3 0.583485 0.364331 0.000000
O O4 0.305415 0.899895 0.500000
O O5 0.246492 0.884563 0.689564
O O6 0.414547 0.868958 0.656935
O O7 0.348139 0.000000 0.643736
O O8 0.085624 0.133152 0.241292
O O9 0.000000 0.228206 0.113542
O O10 0.000000 0.244410 0.319033
O O11 0.651531 0.500000 0.250971
O O12 0.500000 0.806216 0.500000
#
# Coordination Sequence:
#
# PCOD8267938 Si02
#       6
#     8  16   8  16   4   8
#     4   8  13  24  45  71  95 121 156 193 227 268
#     4   9  18  34  54  72  90 118 159 202 240 279
#     4  10  19  31  48  73 102 129 156 188 232 283
#     4   9  17  30  50  74  99 126 156 192 233 278
#     4   8  15  28  44  64  95 132 162 184 216 272
#     4  10  21  35  51  69  91 124 163 201 237 276
#
# _framework density 17.275541
#
# number of rings (size 3 to 8) (size 9 to 14) (size 15 to 20)
#    0.000    2.933    0.000    1.000    0.000    6.933 
#    0.000    4.000    0.000    8.800    0.000    5.600 
#    0.000    0.000    0.000    0.000    0.000    0.000 
#
# Total GULP energy -371657.693210 kJ/mol
# GULP energy per Si atom -12388.589774 kJ/mol
# Density = 1.723622 g / cm^3
# Si number density = 17.275541 Si / 1000 Ang^3
#
#
#
# Elastic Constant Matrix: (Units=GPa)
#
#
# Indices 1 2 3 4 5 6 
#
# 1 121.7547 47.1452 74.1510 0.0000 0.0000 0.0000
# 2 47.1452 60.0777 46.0108 0.0000 0.0000 0.0000
# 3 74.1510 46.0108 96.5175 0.0000 0.0000 0.0000
# 4 0.0000 0.0000 0.0000 24.0327 0.0000 0.0000
# 5 0.0000 0.0000 0.0000 0.0000 6.9219 0.0000
# 6 0.0000 0.0000 0.0000 0.0000 0.0000 11.0926
#
#
#
# Elastic Compliance Matrix: (Units=1/GPa)
#
#
# Indices 1 2 3 4 5 6 
#
# 1 0.016356 -0.005058 -0.010155 0.000000 0.000000 0.000000
# 2 -0.005058 0.027781 -0.009357 0.000000 0.000000 0.000000
# 3 -0.010155 -0.009357 0.022623 0.000000 0.000000 0.000000
# 4 0.000000 0.000000 0.000000 0.041610 0.000000 0.000000
# 5 0.000000 0.000000 0.000000 0.000000 0.144469 0.000000
# 6 0.000000 0.000000 0.000000 0.000000 0.000000 0.090150
#
#
# Mechanical properties :
#
#
# Convention : Reuss Voigt Hill
#
# Bulk Modulus (GPa) = 56.75473 68.10709 62.43091
# Shear Modulus (GPa) = 12.56273 15.81230 14.18751
#
# Velocity S-wave (km/s) = 2.69959 3.02867 2.86885
# Velocity P-wave (km/s) = 6.53001 7.19306 6.86954
#
# Compressibility (1/GPa) = 0.01761968
#
# Stress axis : x y z
#
# Youngs Moduli (GPa) = 61.13871 35.99596 44.20320
#
# Poissons Ratio (x) = 0.18208 0.44886
# Poissons Ratio (y) = 0.30927 0.41362
# Poissons Ratio (z) = 0.62083 0.33682
#
# Static dielectric constant tensor:
#      x y z
#    x 3.073330 0.000000 0.000000 
#    y 0.000000 2.985810 0.000000 
#    z 0.000000 0.000000 3.826180 
# 
# 
# High freq. dielectric constant tensor:
#      x y z
#    x 1.652200 0.000000 0.000000 
#    y 0.000000 1.646290 0.000000 
#    z 0.000000 0.000000 1.683610 
# 
# From -- ./inp_files/23871.got.cif
#   From: 2010.03.12/outbox.cif.g09.slc.cpg/sg65_12_cif.got.tgz:23871.got - 2010.04.10 20:52:16.
