data_PCOD8267977
_publ_section_title
;
Structure prediction by ZEFSAII (Michael W. Deem and Ramdas Pophale) SiO2 
 PCOD8267977
Probable space group: C M M M
;
_chemical_formula_sum "Si O2"
_cell_formula_units_Z 104
_cell_length_a 8.745610
_cell_length_b 27.562841
_cell_length_c 26.466492
_cell_angle_alpha 90.000000
_cell_angle_beta 90.000000
_cell_angle_gamma 90.000000
_cell_volume 6379.850001
_symmetry_space_group_name_H-M "C M M M"
_symmetry_group_IT_number 65
_symmetry_cell_setting 'orthorhombic'
loop_
_space_group_symop_operation_xyz
x,y,z
-x,-y,z
x,-y,-z
-x,y,-z
-x,-y,-z
x,y,-z
-x,y,z
x,-y,z
1/2+x,1/2+y,z
1/2-x,1/2-y,z
1/2+x,1/2-y,-z
1/2-x,1/2+y,-z
1/2-x,1/2-y,-z
1/2+x,1/2+y,-z
1/2-x,1/2+y,z
1/2+x,1/2-y,z
loop_
_atom_site_type_symbol
_atom_site_label
_atom_site_fract_x
_atom_site_fract_y
_atom_site_fract_z
Si Si1 0.327673 0.442380 0.000000
Si Si2 0.180123 0.552885 0.701939
Si Si3 0.678778 0.301516 0.442175
Si Si4 0.819258 0.610926 0.201052
Si Si5 0.681385 0.698414 0.743568
Si Si6 0.680774 0.055004 0.897646
Si Si7 0.818493 0.352692 0.648243
O O1 0.245608 0.422699 0.050354
O O2 0.317139 0.500000 0.000000
O O3 0.500000 0.423226 0.000000
O O4 0.255836 0.500000 0.691525
O O5 0.227701 0.570935 0.757450
O O6 0.234206 0.592230 0.660558
O O7 0.000000 0.547603 0.699259
O O8 0.714030 0.315455 0.500000
O O9 0.500000 0.299141 0.431090
O O10 0.750000 0.250000 0.428036
O O11 0.757399 0.341982 0.407614
O O12 0.731933 0.660760 0.212971
O O13 0.763933 0.589955 0.147416
O O14 0.000000 0.621183 0.202595
O O15 0.500000 0.701253 0.740628
O O16 0.750000 0.750000 0.759200
O O17 0.745988 0.683767 0.688768
O O18 0.500000 0.054441 0.901013
O O19 0.741048 0.000000 0.888363
O O20 0.000000 0.346757 0.651034
#
# Coordination Sequence:
#
# PCOD8267977 Si02
#       7
#     8  16  16  16  16  16  16
#     4   9  17  27  39  59  90 125 158 193 231 269
#     4   8  14  26  45  68  92 118 149 184 220 258
#     4  10  20  33  49  69  93 119 148 184 227 274
#     4   9  17  29  46  69  93 118 151 189 228 268
#     4  11  21  33  48  66  92 122 152 185 223 269
#     4   9  16  27  45  67  92 123 157 191 226 268
#     4  10  19  31  49  71  94 120 151 186 223 265
#
# _framework density 16.301324000000001
#
# number of rings (size 3 to 8) (size 9 to 14) (size 15 to 20)
#    0.000    2.538    0.000    4.385    0.000    4.308 
#    0.000    0.000    0.000   15.692    0.000    3.769 
#    0.000    0.000    0.000    0.000    0.000    0.000 
#
# Total GULP energy -644710.844100 kJ/mol
# GULP energy per Si atom -12398.285463 kJ/mol
# Density = 1.626422 g / cm^3
# Si number density = 16.301324 Si / 1000 Ang^3
#
#
#
# Elastic Constant Matrix: (Units=GPa)
#
#
# Indices 1 2 3 4 5 6 
#
# 1 69.9651 38.6152 42.7505 0.0000 0.0000 0.0000
# 2 38.6152 115.8829 67.6068 0.0000 0.0000 0.0000
# 3 42.7505 67.6068 130.2718 0.0000 0.0000 0.0000
# 4 0.0000 0.0000 0.0000 25.7984 0.0000 0.0000
# 5 0.0000 0.0000 0.0000 0.0000 25.6764 0.0000
# 6 0.0000 0.0000 0.0000 0.0000 0.0000 19.3747
#
#
#
# Elastic Compliance Matrix: (Units=1/GPa)
#
#
# Indices 1 2 3 4 5 6 
#
# 1 0.019013 -0.003866 -0.004233 0.000000 0.000000 0.000000
# 2 -0.003866 0.013163 -0.005562 0.000000 0.000000 0.000000
# 3 -0.004233 -0.005562 0.011952 0.000000 0.000000 0.000000
# 4 0.000000 0.000000 0.000000 0.038762 0.000000 0.000000
# 5 0.000000 0.000000 0.000000 0.000000 0.038946 0.000000
# 6 0.000000 0.000000 0.000000 0.000000 0.000000 0.051614
#
#
# Mechanical properties :
#
#
# Convention : Reuss Voigt Hill
#
# Bulk Modulus (GPa) = 59.50602 68.22941 63.86771
# Shear Modulus (GPa) = 24.22778 25.31306 24.77042
#
# Velocity S-wave (km/s) = 3.85937 3.94486 3.90235
# Velocity P-wave (km/s) = 7.51283 7.91803 7.71809
#
# Compressibility (1/GPa) = 0.01680502
#
# Stress axis : x y z
#
# Youngs Moduli (GPa) = 52.59526 75.97174 83.66754
#
# Poissons Ratio (x) = 0.29371 0.35417
# Poissons Ratio (y) = 0.20334 0.46539
# Poissons Ratio (z) = 0.22264 0.42258
#
# Static dielectric constant tensor:
#      x y z
#    x 2.990520 0.000000 0.000000 
#    y 0.000000 3.151580 0.000000 
#    z 0.000000 0.000000 3.125760 
# 
# 
# High freq. dielectric constant tensor:
#      x y z
#    x 1.622240 0.000000 0.000000 
#    y 0.000000 1.609220 0.000000 
#    z 0.000000 0.000000 1.621490 
# 
# From -- ./inp_files/73791.got.cif
#   From: 2010.03.12/outbox.cif.g09.slc.cpg/sg65_37_cif.got.tgz:73791.got - 2010.04.10 20:52:16.
