data_PCOD8267954
_publ_section_title
;
Structure prediction by ZEFSAII (Michael W. Deem and Ramdas Pophale) SiO2 
 PCOD8267954
Probable space group: C M M M
;
_chemical_formula_sum "Si O2"
_cell_formula_units_Z 88
_cell_length_a 9.326559
_cell_length_b 18.838029
_cell_length_c 28.093727
_cell_angle_alpha 90.000000
_cell_angle_beta 90.000000
_cell_angle_gamma 90.000000
_cell_volume 4935.898960
_symmetry_space_group_name_H-M "C M M M"
_symmetry_group_IT_number 65
_symmetry_cell_setting 'orthorhombic'
loop_
_space_group_symop_operation_xyz
x,y,z
-x,-y,z
x,-y,-z
-x,y,-z
-x,-y,-z
x,y,-z
-x,y,z
x,-y,z
1/2+x,1/2+y,z
1/2-x,1/2-y,z
1/2+x,1/2-y,-z
1/2-x,1/2+y,-z
1/2-x,1/2-y,-z
1/2+x,1/2+y,-z
1/2-x,1/2+y,z
1/2+x,1/2-y,z
loop_
_atom_site_type_symbol
_atom_site_label
_atom_site_fract_x
_atom_site_fract_y
_atom_site_fract_z
Si Si1 0.829887 0.578402 0.637080
Si Si2 0.667234 0.821061 0.171861
Si Si3 0.667096 0.821333 0.446177
Si Si4 0.329247 0.825141 0.000000
Si Si5 0.667385 0.179256 0.279894
Si Si6 0.169583 0.579491 0.088133
O O1 0.761351 0.500000 0.637013
O O2 0.776300 0.618560 0.589732
O O3 0.778108 0.617756 0.684946
O O4 0.000000 0.573291 0.636604
O O5 0.500000 0.804760 0.164862
O O6 0.750000 0.750000 0.157267
O O7 0.702496 0.844081 0.225896
O O8 0.717879 0.885224 0.137986
O O9 0.698546 0.847038 0.500000
O O10 0.500000 0.805734 0.438375
O O11 0.750000 0.750000 0.433886
O O12 0.250000 0.750000 0.000000
O O13 0.277056 0.870361 0.954528
O O14 0.500000 0.812220 0.000000
O O15 0.500000 0.194642 0.286800
O O16 0.750000 0.250000 0.294138
O O17 0.236358 0.500000 0.084361
O O18 0.000000 0.572900 0.085462
#
# Coordination Sequence:
#
# PCOD8267954 Si02
#       6
#    16  16  16   8  16  16
#     4   9  17  28  43  65  90 113 141 179 218 254
#     4   9  17  29  46  67  89 114 145 180 216 255
#     4   9  17  29  46  66  86 111 143 177 213 254
#     4  10  19  31  49  69  89 116 148 182 218 256
#     4   9  17  29  46  66  87 114 146 179 215 254
#     4   9  17  29  46  68  91 115 146 182 217 255
#
# _framework density 17.828565999999999
#
# number of rings (size 3 to 8) (size 9 to 14) (size 15 to 20)
#    0.000    2.909    0.000    1.364    0.000    2.182 
#    0.000    5.455    0.000    4.909    0.000    7.636 
#    0.000    0.000    0.000    0.000    0.000    0.000 
#
# Total GULP energy -545511.403351 kJ/mol
# GULP energy per Si atom -12397.986440 kJ/mol
# Density = 1.778799 g / cm^3
# Si number density = 17.828566 Si / 1000 Ang^3
#
#
#
# Elastic Constant Matrix: (Units=GPa)
#
#
# Indices 1 2 3 4 5 6 
#
# 1 22.3420 33.4823 24.6394 0.0000 0.0000 0.0000
# 2 33.4823 182.7693 110.2484 0.0000 0.0000 0.0000
# 3 24.6394 110.2484 146.0889 0.0000 0.0000 0.0000
# 4 0.0000 0.0000 0.0000 27.9270 0.0000 0.0000
# 5 0.0000 0.0000 0.0000 0.0000 14.7962 0.0000
# 6 0.0000 0.0000 0.0000 0.0000 0.0000 22.7668
#
#
#
# Elastic Compliance Matrix: (Units=1/GPa)
#
#
# Indices 1 2 3 4 5 6 
#
# 1 0.062656 -0.009368 -0.003497 0.000000 0.000000 0.000000
# 2 -0.009368 0.011444 -0.007056 0.000000 0.000000 0.000000
# 3 -0.003497 -0.007056 0.012760 0.000000 0.000000 0.000000
# 4 0.000000 0.000000 0.000000 0.035808 0.000000 0.000000
# 5 0.000000 0.000000 0.000000 0.000000 0.067585 0.000000
# 6 0.000000 0.000000 0.000000 0.000000 0.000000 0.043924
#
#
# Mechanical properties :
#
#
# Convention : Reuss Voigt Hill
#
# Bulk Modulus (GPa) = 21.26963 76.43782 48.85372
# Shear Modulus (GPa) = 17.25968 25.28668 21.27318
#
# Velocity S-wave (km/s) = 3.11479 3.77015 3.45803
# Velocity P-wave (km/s) = 4.98918 7.86886 6.58828
#
# Compressibility (1/GPa) = 0.04701540
#
# Stress axis : x y z
#
# Youngs Moduli (GPa) = 15.96025 87.38105 78.36827
#
# Poissons Ratio (x) = 0.81863 0.27409
# Poissons Ratio (y) = 0.14952 0.55300
# Poissons Ratio (z) = 0.05582 0.61660
#
# Static dielectric constant tensor:
#      x y z
#    x 2.921040 0.000000 0.000000 
#    y 0.000000 3.509350 0.000000 
#    z 0.000000 0.000000 3.566890 
# 
# 
# High freq. dielectric constant tensor:
#      x y z
#    x 1.643200 0.000000 0.000000 
#    y 0.000000 1.689030 0.000000 
#    z 0.000000 0.000000 1.708900 
# 
# From -- ./inp_files/74236.got.cif
#   From: 2010.03.12/outbox.cif.g09.slc.cpg/sg65_38_cif.got.tgz:74236.got - 2010.04.10 20:52:16.
