data_PCOD8267893
_publ_section_title
;
Structure prediction by ZEFSAII (Michael W. Deem and Ramdas Pophale) SiO2 
 PCOD8267893
Probable space group: C M M M
;
_chemical_formula_sum "Si O2"
_cell_formula_units_Z 104
_cell_length_a 18.671544
_cell_length_b 17.391605
_cell_length_c 18.748594
_cell_angle_alpha 90.000000
_cell_angle_beta 90.000000
_cell_angle_gamma 90.000000
_cell_volume 6088.195645
_symmetry_space_group_name_H-M "C M M M"
_symmetry_group_IT_number 65
_symmetry_cell_setting 'orthorhombic'
loop_
_space_group_symop_operation_xyz
x,y,z
-x,-y,z
x,-y,-z
-x,y,-z
-x,-y,-z
x,y,-z
-x,y,z
x,-y,z
1/2+x,1/2+y,z
1/2-x,1/2-y,z
1/2+x,1/2-y,-z
1/2-x,1/2+y,-z
1/2-x,1/2-y,-z
1/2+x,1/2+y,-z
1/2-x,1/2+y,z
1/2+x,1/2-y,z
loop_
_atom_site_type_symbol
_atom_site_label
_atom_site_fract_x
_atom_site_fract_y
_atom_site_fract_z
Si Si1 0.081018 0.324458 0.358837
Si Si2 0.919552 0.145692 0.645378
Si Si3 0.084658 0.413501 0.500000
Si Si4 0.158468 0.909825 0.782934
Si Si5 0.286881 0.413071 0.580564
Si Si6 0.419599 0.591261 0.921594
Si Si7 0.721867 0.166241 0.288895
O O1 0.082619 0.234702 0.376862
O O2 0.109787 0.370121 0.428373
O O3 0.135226 0.341061 0.292284
O O4 0.000000 0.350100 0.337454
O O5 0.888477 0.135439 0.724965
O O6 0.872605 0.098077 0.588634
O O7 0.000000 0.113475 0.642933
O O8 0.117153 0.500000 0.500000
O O9 0.000000 0.416270 0.500000
O O10 0.135132 0.879080 0.861007
O O11 0.242835 0.891781 0.769024
O O12 0.144138 0.000000 0.774889
O O13 0.262108 0.396813 0.500000
O O14 0.267341 0.500000 0.603127
O O15 0.248759 0.352380 0.631496
O O16 0.500000 0.620633 0.904271
O O17 0.419517 0.500000 0.922556
O O18 0.395554 0.621868 0.000000
O O19 0.750000 0.250000 0.267731
#
# Coordination Sequence:
#
# PCOD8267893 Si02
#       7
#    16  16   8  16  16  16  16
#     4  10  21  35  52  71  90 118 162 211 257 307
#     4  10  19  31  48  70  96 129 162 192 236 296
#     4   9  20  36  51  68  89 115 157 222 281 301
#     4  10  19  31  49  74 103 132 162 196 235 285
#     4  10  22  35  47  67  93 123 161 204 248 296
#     4   8  14  26  47  77 110 139 164 191 227 275
#     4  11  20  34  50  67  92 128 162 198 245 297
#
# _framework density 17.082236999999999
#
# number of rings (size 3 to 8) (size 9 to 14) (size 15 to 20)
#    0.000    2.231    3.077    2.769    2.154    3.692 
#    0.000    0.769    0.000    0.462    0.000    0.000 
#    0.000    0.615    0.000    3.846    0.000    0.154 
#
# Total GULP energy -644456.756849 kJ/mol
# GULP energy per Si atom -12393.399170 kJ/mol
# Density = 1.704336 g / cm^3
# Si number density = 17.082237 Si / 1000 Ang^3
#
#
#
# Elastic Constant Matrix: (Units=GPa)
#
#
# Indices 1 2 3 4 5 6 
#
# 1 81.7326 5.7723 25.4369 0.0000 0.0000 0.0000
# 2 5.7723 56.9561 24.7992 0.0000 0.0000 0.0000
# 3 25.4369 24.7992 88.1372 0.0000 0.0000 0.0000
# 4 0.0000 0.0000 0.0000 10.3942 0.0000 0.0000
# 5 0.0000 0.0000 0.0000 0.0000 25.9598 0.0000
# 6 0.0000 0.0000 0.0000 0.0000 0.0000 21.4620
#
#
#
# Elastic Compliance Matrix: (Units=1/GPa)
#
#
# Indices 1 2 3 4 5 6 
#
# 1 0.013449 0.000373 -0.003986 0.000000 0.000000 0.000000
# 2 0.000373 0.020019 -0.005740 0.000000 0.000000 0.000000
# 3 -0.003986 -0.005740 0.014112 0.000000 0.000000 0.000000
# 4 0.000000 0.000000 0.000000 0.096207 0.000000 0.000000
# 5 0.000000 0.000000 0.000000 0.000000 0.038521 0.000000
# 6 0.000000 0.000000 0.000000 0.000000 0.000000 0.046594
#
#
# Mechanical properties :
#
#
# Convention : Reuss Voigt Hill
#
# Bulk Modulus (GPa) = 34.63581 37.64919 36.14250
# Shear Modulus (GPa) = 19.43751 22.95103 21.19427
#
# Velocity S-wave (km/s) = 3.37690 3.66944 3.52621
# Velocity P-wave (km/s) = 5.96025 6.32778 6.14676
#
# Compressibility (1/GPa) = 0.02887185
#
# Stress axis : x y z
#
# Youngs Moduli (GPa) = 74.35295 49.95252 70.86369
#
# Poissons Ratio (x) = -0.01862 0.28249
# Poissons Ratio (y) = -0.02771 0.40678
# Poissons Ratio (z) = 0.29640 0.28674
#
# Static dielectric constant tensor:
#      x y z
#    x 3.506070 0.000000 0.000000 
#    y 0.000000 3.097290 0.000000 
#    z 0.000000 0.000000 3.202520 
# 
# 
# High freq. dielectric constant tensor:
#      x y z
#    x 1.664400 0.000000 0.000000 
#    y 0.000000 1.643350 0.000000 
#    z 0.000000 0.000000 1.624040 
# 
# From -- ./inp_files/55895.got.cif
#   From: 2010.03.12/outbox.cif.g09.slc.cpg/sg65_28_cif.got.tgz:55895.got - 2010.04.10 20:52:16.
