data_PCOD8267987
_publ_section_title
;
Structure prediction by ZEFSAII (Michael W. Deem and Ramdas Pophale) SiO2 
 PCOD8267987
Probable space group: C M M M
;
_chemical_formula_sum "Si O2"
_cell_formula_units_Z 80
_cell_length_a 9.386912
_cell_length_b 18.782688
_cell_length_c 25.566869
_cell_angle_alpha 90.000000
_cell_angle_beta 90.000000
_cell_angle_gamma 90.000000
_cell_volume 4507.731474
_symmetry_space_group_name_H-M "C M M M"
_symmetry_group_IT_number 65
_symmetry_cell_setting 'orthorhombic'
loop_
_space_group_symop_operation_xyz
x,y,z
-x,-y,z
x,-y,-z
-x,y,-z
-x,-y,-z
x,y,-z
-x,y,z
x,-y,z
1/2+x,1/2+y,z
1/2-x,1/2-y,z
1/2+x,1/2-y,-z
1/2-x,1/2+y,-z
1/2-x,1/2-y,-z
1/2+x,1/2+y,-z
1/2-x,1/2+y,z
1/2+x,1/2-y,z
loop_
_atom_site_type_symbol
_atom_site_label
_atom_site_fract_x
_atom_site_fract_y
_atom_site_fract_z
Si Si1 0.169709 0.324882 0.000000
Si Si2 0.664258 0.917570 0.401442
Si Si3 0.161559 0.915127 0.500000
Si Si4 0.835063 0.319307 0.307331
Si Si5 0.331592 0.920396 0.096902
Si Si6 0.333422 0.179165 0.189089
O O1 0.250000 0.250000 0.000000
O O2 0.221355 0.370146 0.050020
O O3 0.000000 0.311496 0.000000
O O4 0.500000 0.903748 0.415915
O O5 0.759031 0.885671 0.448475
O O6 0.708005 0.881626 0.346918
O O7 0.696484 0.000000 0.393344
O O8 0.000000 0.886989 0.500000
O O9 0.168944 0.000000 0.500000
O O10 0.750000 0.250000 0.324340
O O11 0.796041 0.343638 0.248452
O O12 0.000000 0.299949 0.311478
O O13 0.500000 0.927115 0.093797
O O14 0.284140 0.885273 0.151809
O O15 0.264866 0.000000 0.092735
O O16 0.500000 0.195527 0.181963
O O17 0.250000 0.250000 0.172674
#
# Coordination Sequence:
#
# PCOD8267987 Si02
#       6
#     8  16   8  16  16  16
#     4  10  19  31  49  71  95 126 162 196 232 278
#     4   9  17  30  48  68  90 117 150 188 228 270
#     4   9  17  29  46  69  94 119 149 185 226 273
#     4   9  18  31  47  68  93 121 152 187 229 275
#     4   9  17  29  47  71  96 122 156 198 237 272
#     4   9  17  30  48  68  91 121 155 190 229 275
#
# _framework density 17.747285000000002
#
# number of rings (size 3 to 8) (size 9 to 14) (size 15 to 20)
#    0.000    2.900    0.000    1.200    0.000    4.000 
#    0.000    4.500    0.000    3.000    0.000    5.600 
#    0.000    0.000    0.000    0.000    0.000    0.000 
#
# Total GULP energy -495938.188952 kJ/mol
# GULP energy per Si atom -12398.454724 kJ/mol
# Density = 1.770689 g / cm^3
# Si number density = 17.747285 Si / 1000 Ang^3
#
#
#
# Elastic Constant Matrix: (Units=GPa)
#
#
# Indices 1 2 3 4 5 6 
#
# 1 46.6426 41.3261 47.1177 0.0000 0.0000 0.0000
# 2 41.3261 121.2042 84.0828 0.0000 0.0000 0.0000
# 3 47.1177 84.0828 143.4071 0.0000 0.0000 0.0000
# 4 0.0000 0.0000 0.0000 26.8522 0.0000 0.0000
# 5 0.0000 0.0000 0.0000 0.0000 18.3384 0.0000
# 6 0.0000 0.0000 0.0000 0.0000 0.0000 24.5516
#
#
#
# Elastic Compliance Matrix: (Units=1/GPa)
#
#
# Indices 1 2 3 4 5 6 
#
# 1 0.035025 -0.006673 -0.007595 0.000000 0.000000 0.000000
# 2 -0.006673 0.015179 -0.006707 0.000000 0.000000 0.000000
# 3 -0.007595 -0.006707 0.013401 0.000000 0.000000 0.000000
# 4 0.000000 0.000000 0.000000 0.037241 0.000000 0.000000
# 5 0.000000 0.000000 0.000000 0.000000 0.054530 0.000000
# 6 0.000000 0.000000 0.000000 0.000000 0.000000 0.040731
#
#
# Mechanical properties :
#
#
# Convention : Reuss Voigt Hill
#
# Bulk Modulus (GPa) = 46.18129 72.92301 59.55215
# Shear Modulus (GPa) = 20.38531 23.19693 21.79112
#
# Velocity S-wave (km/s) = 3.39284 3.61926 3.50788
# Velocity P-wave (km/s) = 6.43635 7.65796 7.07357
#
# Compressibility (1/GPa) = 0.02165379
#
# Stress axis : x y z
#
# Youngs Moduli (GPa) = 28.55144 65.88159 74.62091
#
# Poissons Ratio (x) = 0.43964 0.56674
# Poissons Ratio (y) = 0.19053 0.50049
# Poissons Ratio (z) = 0.21685 0.44187
#
# Static dielectric constant tensor:
#      x y z
#    x 3.103250 0.000000 0.000000 
#    y 0.000000 3.265750 0.000000 
#    z 0.000000 0.000000 3.557260 
# 
# 
# High freq. dielectric constant tensor:
#      x y z
#    x 1.660050 0.000000 0.000000 
#    y 0.000000 1.672160 0.000000 
#    z 0.000000 0.000000 1.702540 
# 
# From -- ./inp_files/72859.got.cif
#   From: 2010.03.12/outbox.cif.g09.slc.cpg/sg65_37_cif.got.tgz:72859.got - 2010.04.10 20:52:16.
