data_PCOD8267107
_publ_section_title
;
Structure prediction by ZEFSAII (Michael W. Deem and Ramdas Pophale) SiO2 
 PCOD8267107
Probable space group: C M M M
;
_chemical_formula_sum "Si O2"
_cell_formula_units_Z 88
_cell_length_a 25.666302
_cell_length_b 9.270298
_cell_length_c 24.975503
_cell_angle_alpha 90.000000
_cell_angle_beta 90.000000
_cell_angle_gamma 90.000000
_cell_volume 5942.528027
_symmetry_space_group_name_H-M "C M M M"
_symmetry_group_IT_number 65
_symmetry_cell_setting 'orthorhombic'
loop_
_space_group_symop_operation_xyz
x,y,z
-x,-y,z
x,-y,-z
-x,y,-z
-x,-y,-z
x,y,-z
-x,y,z
x,-y,z
1/2+x,1/2+y,z
1/2-x,1/2-y,z
1/2+x,1/2-y,-z
1/2-x,1/2+y,-z
1/2-x,1/2-y,-z
1/2+x,1/2+y,-z
1/2-x,1/2+y,z
1/2+x,1/2-y,z
loop_
_atom_site_type_symbol
_atom_site_label
_atom_site_fract_x
_atom_site_fract_y
_atom_site_fract_z
Si Si1 0.062176 0.838049 0.602279
Si Si2 0.196671 0.166414 0.000000
Si Si3 0.938488 0.658999 0.701312
Si Si4 0.558119 0.155201 0.000000
Si Si5 0.437929 0.162989 0.500000
Si Si6 0.389314 0.670293 0.085618
Si Si7 0.939702 0.329881 0.822173
O O1 0.084189 0.769485 0.657403
O O2 0.083228 0.745057 0.552426
O O3 0.000000 0.839704 0.602293
O O4 0.084108 0.000000 0.597440
O O5 0.250000 0.250000 0.000000
O O6 0.164723 0.205487 0.054309
O O7 0.210683 0.000000 0.000000
O O8 0.914556 0.500000 0.690911
O O9 0.925180 0.710856 0.761203
O O10 0.000000 0.648342 0.694736
O O11 0.566173 0.252737 0.948170
O O12 0.500000 0.105187 0.000000
O O13 0.589721 0.000000 0.000000
O O14 0.500000 0.161824 0.500000
O O15 0.416203 0.000000 0.500000
O O16 0.398582 0.500000 0.088762
O O17 0.396397 0.740716 0.144113
O O18 0.932845 0.500000 0.832732
O O19 0.000000 0.285493 0.834484
#
# Coordination Sequence:
#
# PCOD8267107 Si02
#       7
#    16   8  16   8   8  16  16
#     4   9  15  21  29  42  59  79 109 150 192 229
#     4   9  20  36  50  64  79  96 120 152 189 228
#     4   8  14  24  35  46  64  91 121 151 180 213
#     4  10  19  29  41  57  78 104 130 150 172 211
#     4   9  15  21  29  39  53  77 109 147 192 233
#     4  10  20  31  43  62  83  98 119 152 188 224
#     4   9  17  28  41  58  80 106 134 157 179 218
#
# _framework density 14.808513
#
# number of rings (size 3 to 8) (size 9 to 14) (size 15 to 20)
#    0.000    2.909    0.000    3.818    0.000    9.455 
#    0.000    1.818    0.000    0.000    0.000    0.000 
#    0.000    0.000    0.000    0.000    0.000    0.000 
#
# Total GULP energy -545126.670886 kJ/mol
# GULP energy per Si atom -12389.242520 kJ/mol
# Density = 1.477481 g / cm^3
# Si number density = 14.808513 Si / 1000 Ang^3
#
#
#
# Elastic Constant Matrix: (Units=GPa)
#
#
# Indices 1 2 3 4 5 6 
#
# 1 40.1173 30.9710 28.5200 0.0000 0.0000 0.0000
# 2 30.9710 114.7984 75.8168 0.0000 0.0000 0.0000
# 3 28.5200 75.8168 132.1255 0.0000 0.0000 0.0000
# 4 0.0000 0.0000 0.0000 29.2296 0.0000 0.0000
# 5 0.0000 0.0000 0.0000 0.0000 6.2616 0.0000
# 6 0.0000 0.0000 0.0000 0.0000 0.0000 13.9103
#
#
#
# Elastic Compliance Matrix: (Units=1/GPa)
#
#
# Indices 1 2 3 4 5 6 
#
# 1 0.032290 -0.006615 -0.003174 0.000000 0.000000 0.000000
# 2 -0.006615 0.015382 -0.007399 0.000000 0.000000 0.000000
# 3 -0.003174 -0.007399 0.012499 0.000000 0.000000 0.000000
# 4 0.000000 0.000000 0.000000 0.034212 0.000000 0.000000
# 5 0.000000 0.000000 0.000000 0.000000 0.159702 0.000000
# 6 0.000000 0.000000 0.000000 0.000000 0.000000 0.071889
#
#
# Mechanical properties :
#
#
# Convention : Reuss Voigt Hill
#
# Bulk Modulus (GPa) = 38.76606 61.96188 50.36397
# Shear Modulus (GPa) = 13.55200 19.99588 16.77394
#
# Velocity S-wave (km/s) = 3.02842 3.67862 3.36925
# Velocity P-wave (km/s) = 6.20190 7.74441 7.01568
#
# Compressibility (1/GPa) = 0.02579576
#
# Stress axis : x y z
#
# Youngs Moduli (GPa) = 30.96886 65.01148 80.00524
#
# Poissons Ratio (x) = 0.43007 0.25394
# Poissons Ratio (y) = 0.20487 0.59192
# Poissons Ratio (z) = 0.09830 0.48099
#
# Static dielectric constant tensor:
#      x y z
#    x 2.226360 0.000000 0.000000 
#    y 0.000000 3.062420 0.000000 
#    z 0.000000 0.000000 2.957090 
# 
# 
# High freq. dielectric constant tensor:
#      x y z
#    x 1.476010 0.000000 0.000000 
#    y 0.000000 1.583980 0.000000 
#    z 0.000000 0.000000 1.578670 
# 
# From -- ./inp_files/72086.got.cif
#   From: 2010.03.12/outbox.cif.g09.slc.cpg/sg65_37_cif.got.tgz:72086.got - 2010.04.10 20:52:16.
