data_PCOD8267588
_publ_section_title
;
Structure prediction by ZEFSAII (Michael W. Deem and Ramdas Pophale) SiO2 
 PCOD8267588
Probable space group: C M M M
;
_chemical_formula_sum "Si O2"
_cell_formula_units_Z 104
_cell_length_a 23.543418
_cell_length_b 8.682805
_cell_length_c 27.789977
_cell_angle_alpha 90.000000
_cell_angle_beta 90.000000
_cell_angle_gamma 90.000000
_cell_volume 5680.907898
_symmetry_space_group_name_H-M "C M M M"
_symmetry_group_IT_number 65
_symmetry_cell_setting 'orthorhombic'
loop_
_space_group_symop_operation_xyz
x,y,z
-x,-y,z
x,-y,-z
-x,y,-z
-x,-y,-z
x,y,-z
-x,y,z
x,-y,z
1/2+x,1/2+y,z
1/2-x,1/2-y,z
1/2+x,1/2-y,-z
1/2-x,1/2+y,-z
1/2-x,1/2-y,-z
1/2+x,1/2+y,-z
1/2-x,1/2+y,z
1/2+x,1/2-y,z
loop_
_atom_site_type_symbol
_atom_site_label
_atom_site_fract_x
_atom_site_fract_y
_atom_site_fract_z
Si Si1 0.311446 0.822913 0.945883
Si Si2 0.187629 0.319316 0.223383
Si Si3 0.500000 0.181845 0.846858
Si Si4 0.500000 0.319256 0.257290
Si Si5 0.067289 0.672379 0.500000
Si Si6 0.116353 0.181374 0.136170
Si Si7 0.565691 0.318427 0.598964
Si Si8 0.106968 0.679495 0.308231
O O1 0.250000 0.750000 0.944550
O O2 0.348313 0.718297 0.911105
O O3 0.309551 0.000000 0.927953
O O4 0.336305 0.814056 0.000000
O O5 0.190405 0.500000 0.212682
O O6 0.250000 0.250000 0.218767
O O7 0.146132 0.244369 0.184254
O O8 0.163836 0.286173 0.277231
O O9 0.500000 0.263804 0.796323
O O10 0.556315 0.236620 0.874127
O O11 0.500000 0.000000 0.840712
O O12 0.500000 0.500000 0.259908
O O13 0.555434 0.260482 0.282667
O O14 0.092479 0.500000 0.500000
O O15 0.088236 0.761360 0.547369
O O16 0.000000 0.668579 0.500000
O O17 0.108045 0.000000 0.142218
O O18 0.500000 0.266429 0.608424
O O19 0.570282 0.500000 0.600942
O O20 0.609271 0.246787 0.637852
O O21 0.094769 0.500000 0.311003
#
# Coordination Sequence:
#
# PCOD8267588 Si02
#       8
#    16  16   8   8   8  16  16  16
#     4  10  21  39  63  89 117 150 190 236 284 332
#     4  11  24  40  58  81 112 148 188 232 279 329
#     4  12  24  40  59  83 115 151 190 229 273 332
#     4  12  22  34  54  80 110 146 186 226 271 325
#     4   9  17  29  45  67 100 141 182 221 270 327
#     4  12  24  39  61  87 117 150 187 230 279 334
#     4  10  19  30  47  73 106 141 181 226 272 325
#     4  11  22  35  54  78 109 147 186 228 274 328
#
# _framework density 18.306933999999998
#
# number of rings (size 3 to 8) (size 9 to 14) (size 15 to 20)
#    0.000    1.154    2.308    5.308    0.000    4.308 
#    0.000    0.385    0.000    2.308    0.000    0.538 
#    0.000    0.000    0.000    0.000    0.000    0.000 
#
# Total GULP energy -644841.404167 kJ/mol
# GULP energy per Si atom -12400.796234 kJ/mol
# Density = 1.826527 g / cm^3
# Si number density = 18.306934 Si / 1000 Ang^3
#
#
#
# Elastic Constant Matrix: (Units=GPa)
#
#
# Indices 1 2 3 4 5 6 
#
# 1 79.2879 42.2339 35.1127 0.0000 0.0000 0.0000
# 2 42.2339 144.1264 47.5475 0.0000 0.0000 0.0000
# 3 35.1127 47.5475 113.7364 0.0000 0.0000 0.0000
# 4 0.0000 0.0000 0.0000 39.6178 0.0000 0.0000
# 5 0.0000 0.0000 0.0000 0.0000 46.1840 0.0000
# 6 0.0000 0.0000 0.0000 0.0000 0.0000 24.4616
#
#
#
# Elastic Compliance Matrix: (Units=1/GPa)
#
#
# Indices 1 2 3 4 5 6 
#
# 1 0.016042 -0.003558 -0.003465 0.000000 0.000000 0.000000
# 2 -0.003558 0.008837 -0.002596 0.000000 0.000000 0.000000
# 3 -0.003465 -0.002596 0.010947 0.000000 0.000000 0.000000
# 4 0.000000 0.000000 0.000000 0.025241 0.000000 0.000000
# 5 0.000000 0.000000 0.000000 0.000000 0.021653 0.000000
# 6 0.000000 0.000000 0.000000 0.000000 0.000000 0.040880
#
#
# Mechanical properties :
#
#
# Convention : Reuss Voigt Hill
#
# Bulk Modulus (GPa) = 60.28221 65.21542 62.74882
# Shear Modulus (GPa) = 33.69998 36.20312 34.95155
#
# Velocity S-wave (km/s) = 4.29515 4.45180 4.37418
# Velocity P-wave (km/s) = 7.58932 7.88197 7.73703
#
# Compressibility (1/GPa) = 0.01658864
#
# Stress axis : x y z
#
# Youngs Moduli (GPa) = 62.33697 113.15639 91.34640
#
# Poissons Ratio (x) = 0.40257 0.31653
# Poissons Ratio (y) = 0.22177 0.23715
# Poissons Ratio (z) = 0.21601 0.29377
#
# Static dielectric constant tensor:
#      x y z
#    x 3.023870 0.000000 0.000000 
#    y 0.000000 3.634690 0.000000 
#    z 0.000000 0.000000 3.669580 
# 
# 
# High freq. dielectric constant tensor:
#      x y z
#    x 1.679730 0.000000 0.000000 
#    y 0.000000 1.733070 0.000000 
#    z 0.000000 0.000000 1.717440 
# 
# From -- ./inp_files/75830.got.cif
#   From: 2010.03.12/outbox.cif.g09.slc.cpg/sg65_38_cif.got.tgz:75830.got - 2010.04.10 20:52:16.
