data_PCOD8267446
_publ_section_title
;
Structure prediction by ZEFSAII (Michael W. Deem and Ramdas Pophale) SiO2 
 PCOD8267446
Probable space group: C M M M
;
_chemical_formula_sum "Si O2"
_cell_formula_units_Z 72
_cell_length_a 9.188066
_cell_length_b 18.573790
_cell_length_c 23.575184
_cell_angle_alpha 90.000000
_cell_angle_beta 90.000000
_cell_angle_gamma 90.000000
_cell_volume 4023.275089
_symmetry_space_group_name_H-M "C M M M"
_symmetry_group_IT_number 65
_symmetry_cell_setting 'orthorhombic'
loop_
_space_group_symop_operation_xyz
x,y,z
-x,-y,z
x,-y,-z
-x,y,-z
-x,-y,-z
x,y,-z
-x,y,z
x,-y,z
1/2+x,1/2+y,z
1/2-x,1/2-y,z
1/2+x,1/2-y,-z
1/2-x,1/2+y,-z
1/2-x,1/2-y,-z
1/2+x,1/2+y,-z
1/2-x,1/2+y,z
1/2+x,1/2-y,z
loop_
_atom_site_type_symbol
_atom_site_label
_atom_site_fract_x
_atom_site_fract_y
_atom_site_fract_z
Si Si1 0.170924 0.326096 0.877403
Si Si2 0.327231 0.080428 0.437021
Si Si3 0.827012 0.674260 0.666803
Si Si4 0.666590 0.823126 0.000000
Si Si5 0.827303 0.419588 0.773568
O O1 0.250000 0.250000 0.870735
O O2 0.202076 0.362684 0.939945
O O3 0.231977 0.380750 0.830275
O O4 0.000000 0.312372 0.868180
O O5 0.276367 0.104945 0.500000
O O6 0.500000 0.078070 0.433801
O O7 0.268408 0.136645 0.390724
O O8 0.267590 0.000000 0.423977
O O9 0.750000 0.750000 0.673491
O O10 0.775909 0.624574 0.718788
O O11 0.000000 0.685284 0.666173
O O12 0.750000 0.750000 0.000000
O O13 0.500000 0.800923 0.000000
O O14 0.761027 0.500000 0.770751
O O15 0.000000 0.424176 0.775101
#
# Coordination Sequence:
#
# PCOD8267446 Si02
#       5
#    16  16  16   8  16
#     4   9  16  27  44  64  86 111 140 174 210 250
#     4   8  14  26  45  67  88 112 145 180 209 243
#     4  10  19  30  46  67  89 113 142 177 215 253
#     4   8  14  24  39  61  85 109 137 168 206 250
#     4   9  17  29  45  64  85 111 144 179 213 250
#
# _framework density 17.895868
#
# number of rings (size 3 to 8) (size 9 to 14) (size 15 to 20)
#    0.000    3.111    0.000    2.000    0.000    3.111 
#    0.000    0.556    0.000    8.000    0.000    1.556 
#    0.000    8.889    0.000    0.000    0.000    0.000 
#
# Total GULP energy -446028.018412 kJ/mol
# GULP energy per Si atom -12389.667178 kJ/mol
# Density = 1.785514 g / cm^3
# Si number density = 17.895868 Si / 1000 Ang^3
#
#
#
# Elastic Constant Matrix: (Units=GPa)
#
#
# Indices 1 2 3 4 5 6 
#
# 1 14.8978 21.0027 22.1736 0.0000 0.0000 0.0000
# 2 21.0027 141.7460 101.2529 0.0000 0.0000 0.0000
# 3 22.1736 101.2529 195.0841 0.0000 0.0000 0.0000
# 4 0.0000 0.0000 0.0000 29.4791 0.0000 0.0000
# 5 0.0000 0.0000 0.0000 0.0000 10.8253 0.0000
# 6 0.0000 0.0000 0.0000 0.0000 0.0000 20.1691
#
#
#
# Elastic Compliance Matrix: (Units=1/GPa)
#
#
# Indices 1 2 3 4 5 6 
#
# 1 0.087975 -0.009364 -0.005139 0.000000 0.000000 0.000000
# 2 -0.009364 0.012208 -0.005272 0.000000 0.000000 0.000000
# 3 -0.005139 -0.005272 0.008446 0.000000 0.000000 0.000000
# 4 0.000000 0.000000 0.000000 0.033922 0.000000 0.000000
# 5 0.000000 0.000000 0.000000 0.000000 0.092376 0.000000
# 6 0.000000 0.000000 0.000000 0.000000 0.000000 0.049581
#
#
# Mechanical properties :
#
#
# Convention : Reuss Voigt Hill
#
# Bulk Modulus (GPa) = 14.47628 71.17625 42.82626
# Shear Modulus (GPa) = 14.40568 25.91462 20.16015
#
# Velocity S-wave (km/s) = 2.84028 3.80949 3.36002
# Velocity P-wave (km/s) = 4.34316 7.69470 6.24786
#
# Compressibility (1/GPa) = 0.06907853
#
# Stress axis : x y z
#
# Youngs Moduli (GPa) = 11.36691 81.91116 118.39346
#
# Poissons Ratio (x) = 0.76704 0.60843
# Poissons Ratio (y) = 0.10644 0.62417
# Poissons Ratio (z) = 0.05842 0.43184
#
# Static dielectric constant tensor:
#      x y z
#    x 2.802110 0.000000 0.000000 
#    y 0.000000 3.233220 0.000000 
#    z 0.000000 0.000000 4.053810 
# 
# 
# High freq. dielectric constant tensor:
#      x y z
#    x 1.637450 0.000000 0.000000 
#    y 0.000000 1.675800 0.000000 
#    z 0.000000 0.000000 1.722140 
# 
# From -- ./inp_files/59222.got.cif
#   From: 2010.03.12/outbox.cif.g09.slc.cpg/sg65_30_cif.got.tgz:59222.got - 2010.04.10 20:52:16.
