data_PCOD8267062
_publ_section_title
;
Structure prediction by ZEFSAII (Michael W. Deem and Ramdas Pophale) SiO2 
 PCOD8267062
Probable space group: C M M M
;
_chemical_formula_sum "Si O2"
_cell_formula_units_Z 104
_cell_length_a 8.774400
_cell_length_b 27.296807
_cell_length_c 26.528666
_cell_angle_alpha 90.000000
_cell_angle_beta 90.000000
_cell_angle_gamma 90.000000
_cell_volume 6353.963121
_symmetry_space_group_name_H-M "C M M M"
_symmetry_group_IT_number 65
_symmetry_cell_setting 'orthorhombic'
loop_
_space_group_symop_operation_xyz
x,y,z
-x,-y,z
x,-y,-z
-x,y,-z
-x,-y,-z
x,y,-z
-x,y,z
x,-y,z
1/2+x,1/2+y,z
1/2-x,1/2-y,z
1/2+x,1/2-y,-z
1/2-x,1/2+y,-z
1/2-x,1/2-y,-z
1/2+x,1/2+y,-z
1/2-x,1/2+y,z
1/2+x,1/2-y,z
loop_
_atom_site_type_symbol
_atom_site_label
_atom_site_fract_x
_atom_site_fract_y
_atom_site_fract_z
Si Si1 0.820244 0.303287 0.500000
Si Si2 0.824123 0.057287 0.844486
Si Si3 0.180395 0.801379 0.299541
Si Si4 0.178871 0.608760 0.248109
Si Si5 0.320355 0.946567 0.346883
Si Si6 0.328713 0.058108 0.055120
Si Si7 0.680872 0.150982 0.604213
O O1 0.750000 0.250000 0.500000
O O2 0.764643 0.333229 0.548849
O O3 0.000000 0.297464 0.500000
O O4 0.722217 0.087493 0.805819
O O5 0.782756 0.076514 0.900598
O O6 0.000000 0.067934 0.833877
O O7 0.785026 0.000000 0.838796
O O8 0.250000 0.750000 0.282238
O O9 0.232479 0.840924 0.258223
O O10 0.240436 0.814049 0.355276
O O11 0.000000 0.798079 0.300927
O O12 0.227933 0.569612 0.290727
O O13 0.000000 0.619705 0.250585
O O14 0.500000 0.951512 0.350063
O O15 0.265787 0.905395 0.386875
O O16 0.246194 0.000000 0.358746
O O17 0.500000 0.076915 0.066051
O O18 0.327571 0.000000 0.053856
O O19 0.273558 0.077680 0.000000
O O20 0.500000 0.156066 0.611408
#
# Coordination Sequence:
#
# PCOD8267062 Si02
#       7
#     8  16  16  16  16  16  16
#     4  10  20  32  47  67  91 117 148 190 233 274
#     4  10  19  28  40  63  95 127 158 194 235 276
#     4  11  21  34  51  70  92 117 146 182 228 279
#     4  10  19  31  47  67  91 120 155 191 226 270
#     4   8  14  26  45  66  88 116 148 181 218 261
#     4   8  14  25  40  57  80 116 161 201 235 274
#     4   9  18  32  48  69  94 119 150 185 222 268
#
# _framework density 16.367736000000001
#
# number of rings (size 3 to 8) (size 9 to 14) (size 15 to 20)
#    0.000    2.615    0.000    4.615    0.000    3.692 
#    0.000    1.923    0.000    6.462    0.000    0.000 
#    0.000    6.154    0.000    2.308    0.000    3.538 
#
# Total GULP energy -644608.668821 kJ/mol
# GULP energy per Si atom -12396.320554 kJ/mol
# Density = 1.633048 g / cm^3
# Si number density = 16.367736 Si / 1000 Ang^3
#
#
#
# Elastic Constant Matrix: (Units=GPa)
#
#
# Indices 1 2 3 4 5 6 
#
# 1 59.3979 27.2997 28.3229 0.0000 0.0000 0.0000
# 2 27.2997 102.9173 47.4574 0.0000 0.0000 0.0000
# 3 28.3229 47.4574 117.0399 0.0000 0.0000 0.0000
# 4 0.0000 0.0000 0.0000 537.8001 0.0000 0.0000
# 5 0.0000 0.0000 0.0000 0.0000 23.2073 0.0000
# 6 0.0000 0.0000 0.0000 0.0000 0.0000 20.4421
#
#
#
# Elastic Compliance Matrix: (Units=1/GPa)
#
#
# Indices 1 2 3 4 5 6 
#
# 1 0.020180 -0.003814 -0.003337 0.000000 0.000000 0.000000
# 2 -0.003814 0.012672 -0.004215 0.000000 0.000000 0.000000
# 3 -0.003337 -0.004215 0.011061 0.000000 0.000000 0.000000
# 4 0.000000 0.000000 0.000000 0.001859 0.000000 0.000000
# 5 0.000000 0.000000 0.000000 0.000000 0.043090 0.000000
# 6 0.000000 0.000000 0.000000 0.000000 0.000000 0.048919
#
#
# Mechanical properties :
#
#
# Convention : Reuss Voigt Hill
#
# Bulk Modulus (GPa) = 47.21415 53.94614 50.58015
# Shear Modulus (GPa) = 29.83773 128.04157 78.93965
#
# Velocity S-wave (km/s) = 4.27425 8.85426 6.95223
# Velocity P-wave (km/s) = 7.29845 11.72863 9.76802
#
# Compressibility (1/GPa) = 0.02118009
#
# Stress axis : x y z
#
# Youngs Moduli (GPa) = 49.55463 78.91390 90.40950
#
# Poissons Ratio (x) = 0.30099 0.30168
# Poissons Ratio (y) = 0.18901 0.38110
# Poissons Ratio (z) = 0.16535 0.33264
#
# Static dielectric constant tensor:
#      x y z
#    x 2.986210 0.000000 0.000000 
#    y 0.000000 3.143070 0.000000 
#    z 0.000000 0.000000 3.270430 
# 
# 
# High freq. dielectric constant tensor:
#      x y z
#    x 1.621840 0.000000 0.000000 
#    y 0.000000 1.606320 0.000000 
#    z 0.000000 0.000000 1.625990 
# 
# From -- ./inp_files/73759.got.cif
#   From: 2010.03.12/outbox.cif.g09.slc.cpg/sg65_37_cif.got.tgz:73759.got - 2010.04.10 20:52:16.
