data_PCOD8267772
_publ_section_title
;
Structure prediction by ZEFSAII (Michael W. Deem and Ramdas Pophale) SiO2 
 PCOD8267772
Probable space group: C M M M
;
_chemical_formula_sum "Si O2"
_cell_formula_units_Z 96
_cell_length_a 33.013384
_cell_length_b 18.131722
_cell_length_c 9.597444
_cell_angle_alpha 90.000000
_cell_angle_beta 90.000000
_cell_angle_gamma 90.000000
_cell_volume 5744.929215
_symmetry_space_group_name_H-M "C M M M"
_symmetry_group_IT_number 65
_symmetry_cell_setting 'orthorhombic'
loop_
_space_group_symop_operation_xyz
x,y,z
-x,-y,z
x,-y,-z
-x,y,-z
-x,-y,-z
x,y,-z
-x,y,z
x,-y,z
1/2+x,1/2+y,z
1/2-x,1/2-y,z
1/2+x,1/2-y,-z
1/2-x,1/2+y,-z
1/2-x,1/2-y,-z
1/2+x,1/2+y,-z
1/2-x,1/2+y,z
1/2+x,1/2-y,z
loop_
_atom_site_type_symbol
_atom_site_label
_atom_site_fract_x
_atom_site_fract_y
_atom_site_fract_z
Si Si1 0.955239 0.274894 0.334116
Si Si2 0.326411 0.586039 0.161996
Si Si3 0.623481 0.307079 0.661887
Si Si4 0.755817 0.664939 0.162086
Si Si5 0.667894 0.155707 0.339377
Si Si6 0.413854 0.919213 0.665205
O O1 0.954116 0.279001 0.500000
O O2 0.921812 0.215182 0.286427
O O3 0.943961 0.356390 0.274886
O O4 0.000000 0.252551 0.279506
O O5 0.326415 0.500000 0.195879
O O6 0.362572 0.623199 0.248428
O O7 0.283520 0.619522 0.209212
O O8 0.334163 0.602377 0.000000
O O9 0.623128 0.329347 0.500000
O O10 0.653851 0.239396 0.688727
O O11 0.750000 0.750000 0.200321
O O12 0.793715 0.633828 0.247164
O O13 0.765091 0.653600 0.000000
O O14 0.679792 0.145364 0.500000
O O15 0.632166 0.100523 0.294755
O O16 0.417813 0.920497 0.500000
O O17 0.424880 0.000000 0.727202
#
# Coordination Sequence:
#
# PCOD8267772 Si02
#       6
#    16  16  16  16  16  16
#     4   8  14  25  43  68  94 120 152 188 225 266
#     4  10  21  35  49  67  91 118 150 190 233 272
#     4   9  17  30  48  69  93 120 151 187 224 268
#     4  10  19  31  47  66  88 118 155 191 226 268
#     4   9  17  28  44  66  92 124 158 190 223 260
#     4   8  14  24  38  61  95 129 157 186 222 263
#
# _framework density 16.710388999999999
#
# number of rings (size 3 to 8) (size 9 to 14) (size 15 to 20)
#    0.000    3.000    1.667    2.000    0.000    2.333 
#    0.000    1.667    0.000    1.000    0.000    3.500 
#    0.000    0.000    0.000    7.333    0.000    7.333 
#
# Total GULP energy -595004.173870 kJ/mol
# GULP energy per Si atom -12395.920289 kJ/mol
# Density = 1.667236 g / cm^3
# Si number density = 16.710389 Si / 1000 Ang^3
#
#
#
# Elastic Constant Matrix: (Units=GPa)
#
#
# Indices 1 2 3 4 5 6 
#
# 1 138.9446 61.1950 41.6784 0.0000 0.0000 0.0000
# 2 61.1950 98.9837 30.7542 0.0000 0.0000 0.0000
# 3 41.6784 30.7542 32.6599 0.0000 0.0000 0.0000
# 4 0.0000 0.0000 0.0000 17.0239 0.0000 0.0000
# 5 0.0000 0.0000 0.0000 0.0000 6.4922 0.0000
# 6 0.0000 0.0000 0.0000 0.0000 0.0000 19.2638
#
#
#
# Elastic Compliance Matrix: (Units=1/GPa)
#
#
# Indices 1 2 3 4 5 6 
#
# 1 0.012678 -0.003974 -0.012437 0.000000 0.000000 0.000000
# 2 -0.003974 0.015526 -0.009549 0.000000 0.000000 0.000000
# 3 -0.012437 -0.009549 0.055482 0.000000 0.000000 0.000000
# 4 0.000000 0.000000 0.000000 0.058741 0.000000 0.000000
# 5 0.000000 0.000000 0.000000 0.000000 0.154032 0.000000
# 6 0.000000 0.000000 0.000000 0.000000 0.000000 0.051911
#
#
# Mechanical properties :
#
#
# Convention : Reuss Voigt Hill
#
# Bulk Modulus (GPa) = 31.47995 59.76037 45.62016
# Shear Modulus (GPa) = 12.16907 17.68669 14.92788
#
# Velocity S-wave (km/s) = 2.70151 3.25687 2.99210
# Velocity P-wave (km/s) = 5.34886 7.06987 6.26870
#
# Compressibility (1/GPa) = 0.03176626
#
# Stress axis : x y z
#
# Youngs Moduli (GPa) = 78.87765 64.40665 18.02393
#
# Poissons Ratio (x) = 0.25594 0.22416
# Poissons Ratio (y) = 0.31344 0.17212
# Poissons Ratio (z) = 0.98098 0.61504
#
# Static dielectric constant tensor:
#      x y z
#    x 3.261960 0.000000 0.000000 
#    y 0.000000 3.136180 0.000000 
#    z 0.000000 0.000000 2.759810 
# 
# 
# High freq. dielectric constant tensor:
#      x y z
#    x 1.643440 0.000000 0.000000 
#    y 0.000000 1.633900 0.000000 
#    z 0.000000 0.000000 1.603740 
# 
# From -- ./inp_files/32433.got.cif
#   From: 2010.03.12/outbox.cif.g09.slc.cpg/sg65_17_cif.got.tgz:32433.got - 2010.04.10 20:52:16.
