data_PCOD8267928
_publ_section_title
;
Structure prediction by ZEFSAII (Michael W. Deem and Ramdas Pophale) SiO2 
 PCOD8267928
Probable space group: C M M M
;
_chemical_formula_sum "Si O2"
_cell_formula_units_Z 104
_cell_length_a 26.038898
_cell_length_b 9.410508
_cell_length_c 24.568811
_cell_angle_alpha 90.000000
_cell_angle_beta 90.000000
_cell_angle_gamma 90.000000
_cell_volume 6020.323216
_symmetry_space_group_name_H-M "C M M M"
_symmetry_group_IT_number 65
_symmetry_cell_setting 'orthorhombic'
loop_
_space_group_symop_operation_xyz
x,y,z
-x,-y,z
x,-y,-z
-x,y,-z
-x,-y,-z
x,y,-z
-x,y,z
x,-y,z
1/2+x,1/2+y,z
1/2-x,1/2-y,z
1/2+x,1/2-y,-z
1/2-x,1/2+y,-z
1/2-x,1/2-y,-z
1/2+x,1/2+y,-z
1/2-x,1/2+y,z
1/2+x,1/2-y,z
loop_
_atom_site_type_symbol
_atom_site_label
_atom_site_fract_x
_atom_site_fract_y
_atom_site_fract_z
Si Si1 0.060969 0.661942 0.000000
Si Si2 0.057618 0.841703 0.305234
Si Si3 0.560850 0.664526 0.104840
Si Si4 0.297667 0.838787 0.262542
Si Si5 0.788464 0.000000 0.563684
Si Si6 0.902581 0.662809 0.207307
Si Si7 0.848058 0.234040 0.628103
Si Si8 0.167199 0.500000 0.436928
O O1 0.080639 0.748719 0.947605
O O2 0.082814 0.500000 0.000000
O O3 0.000000 0.656861 0.000000
O O4 0.068074 0.723510 0.259709
O O5 0.097082 0.831714 0.355528
O O6 0.000000 0.818122 0.327782
O O7 0.062891 0.000000 0.279442
O O8 0.500000 0.674725 0.110756
O O9 0.578224 0.500000 0.100324
O O10 0.586322 0.738220 0.156370
O O11 0.250000 0.750000 0.239153
O O12 0.341760 0.833042 0.217189
O O13 0.316146 0.768752 0.318180
O O14 0.280493 0.000000 0.274088
O O15 0.812965 0.863785 0.590990
O O16 0.727931 0.000000 0.573973
O O17 0.801294 0.000000 0.500000
O O18 0.921010 0.500000 0.197447
O O19 0.860358 0.368889 0.591570
O O20 0.153820 0.500000 0.500000
#
# Coordination Sequence:
#
# PCOD8267928 Si02
#       8
#     8  16  16  16   8  16  16   8
#     4   9  17  29  47  71 100 139 180 217 261 305
#     4  10  21  37  55  74  99 134 174 211 252 302
#     4  10  19  31  48  72 105 141 177 216 256 302
#     4  10  21  34  52  75 103 134 166 204 253 309
#     4  11  22  36  55  79 103 133 166 201 253 308
#     4  10  21  34  49  77 106 133 171 214 258 304
#     4  11  21  36  54  79 104 132 165 206 253 307
#     4  11  22  36  55  79 107 131 160 205 255 310
#
# _framework density 17.274819999999998
#
# number of rings (size 3 to 8) (size 9 to 14) (size 15 to 20)
#    0.000    1.769    1.538    3.462    2.154    6.462 
#    0.000    0.000    0.000    2.769    0.000    0.538 
#    0.000    0.000    0.000    0.000    0.000    0.000 
#
# Total GULP energy -644827.991615 kJ/mol
# GULP energy per Si atom -12400.538300 kJ/mol
# Density = 1.723550 g / cm^3
# Si number density = 17.274820 Si / 1000 Ang^3
#
#
#
# Elastic Constant Matrix: (Units=GPa)
#
#
# Indices 1 2 3 4 5 6 
#
# 1 73.1651 37.8871 26.1134 0.0000 0.0000 0.0000
# 2 37.8871 139.3728 45.3031 0.0000 0.0000 0.0000
# 3 26.1134 45.3031 94.7519 0.0000 0.0000 0.0000
# 4 0.0000 0.0000 0.0000 38.5838 0.0000 0.0000
# 5 0.0000 0.0000 0.0000 0.0000 125.4929 0.0000
# 6 0.0000 0.0000 0.0000 0.0000 0.0000 23.6432
#
#
#
# Elastic Compliance Matrix: (Units=1/GPa)
#
#
# Indices 1 2 3 4 5 6 
#
# 1 0.016533 -0.003568 -0.002851 0.000000 0.000000 0.000000
# 2 -0.003568 0.009265 -0.003447 0.000000 0.000000 0.000000
# 3 -0.002851 -0.003447 0.012987 0.000000 0.000000 0.000000
# 4 0.000000 0.000000 0.000000 0.025918 0.000000 0.000000
# 5 0.000000 0.000000 0.000000 0.000000 0.007969 0.000000
# 6 0.000000 0.000000 0.000000 0.000000 0.000000 0.042295
#
#
# Mechanical properties :
#
#
# Convention : Reuss Voigt Hill
#
# Bulk Modulus (GPa) = 52.47853 58.43300 55.45576
# Shear Modulus (GPa) = 35.44884 50.74305 43.09595
#
# Velocity S-wave (km/s) = 4.53487 5.42566 5.00014
# Velocity P-wave (km/s) = 7.60688 8.55274 8.09364
#
# Compressibility (1/GPa) = 0.01905541
#
# Stress axis : x y z
#
# Youngs Moduli (GPa) = 60.48671 107.93115 76.99760
#
# Poissons Ratio (x) = 0.38506 0.21949
# Poissons Ratio (y) = 0.21579 0.26538
# Poissons Ratio (z) = 0.17242 0.37200
#
# Static dielectric constant tensor:
#      x y z
#    x 3.123950 0.000000 0.000000 
#    y 0.000000 3.514560 0.000000 
#    z 0.000000 0.000000 3.175450 
# 
# 
# High freq. dielectric constant tensor:
#      x y z
#    x 1.642400 0.000000 0.000000 
#    y 0.000000 1.692540 0.000000 
#    z 0.000000 0.000000 1.656560 
# 
# From -- ./inp_files/71920.got.cif
#   From: 2010.03.12/outbox.cif.g09.slc.cpg/sg65_36_cif.got.tgz:71920.got - 2010.04.10 20:52:16.
