data_PCOD8267376
_publ_section_title
;
Structure prediction by ZEFSAII (Michael W. Deem and Ramdas Pophale) SiO2 
 PCOD8267376
Probable space group: C M M M
;
_chemical_formula_sum "Si O2"
_cell_formula_units_Z 104
_cell_length_a 27.857409
_cell_length_b 28.179354
_cell_length_c 9.258232
_cell_angle_alpha 90.000000
_cell_angle_beta 90.000000
_cell_angle_gamma 90.000000
_cell_volume 7267.747206
_symmetry_space_group_name_H-M "C M M M"
_symmetry_group_IT_number 65
_symmetry_cell_setting 'orthorhombic'
loop_
_space_group_symop_operation_xyz
x,y,z
-x,-y,z
x,-y,-z
-x,y,-z
-x,-y,-z
x,y,-z
-x,y,z
x,-y,z
1/2+x,1/2+y,z
1/2-x,1/2-y,z
1/2+x,1/2-y,-z
1/2-x,1/2+y,-z
1/2-x,1/2-y,-z
1/2+x,1/2+y,-z
1/2-x,1/2+y,z
1/2+x,1/2-y,z
loop_
_atom_site_type_symbol
_atom_site_label
_atom_site_fract_x
_atom_site_fract_y
_atom_site_fract_z
Si Si1 0.209754 0.710658 0.337615
Si Si2 0.444311 0.690577 0.338101
Si Si3 0.356460 0.277811 0.170013
Si Si4 0.500000 0.553525 0.150943
Si Si5 0.190870 0.945310 0.669112
Si Si6 0.276731 0.644084 0.170385
Si Si7 0.085420 0.083788 0.341234
O O1 0.194371 0.694735 0.500000
O O2 0.250000 0.750000 0.350159
O O3 0.164905 0.732180 0.251210
O O4 0.230374 0.666801 0.246646
O O5 0.442328 0.712625 0.500000
O O6 0.500000 0.688006 0.285236
O O7 0.411440 0.719400 0.225973
O O8 0.419231 0.639891 0.343145
O O9 0.324922 0.325151 0.204425
O O10 0.356907 0.267922 0.000000
O O11 0.500000 0.500000 0.107439
O O12 0.547626 0.563121 0.234763
O O13 0.500000 0.583157 0.000000
O O14 0.199626 0.934618 0.500000
O O15 0.221451 0.909147 0.765982
O O16 0.136451 0.934370 0.713013
O O17 0.203887 0.000000 0.706168
O O18 0.267602 0.641750 0.000000
O O19 0.075302 0.063000 0.500000
#
# Coordination Sequence:
#
# PCOD8267376 Si02
#       7
#    16  16  16   8  16  16  16
#     4   9  17  29  47  67  85 107 134 167 207 254
#     4  10  19  31  46  62  80 107 143 180 217 260
#     4  10  19  30  45  65  87 109 134 171 217 263
#     4  11  23  33  41  55  73  93 125 175 229 273
#     4  10  20  32  46  62  80 107 144 181 217 260
#     4  10  19  30  45  65  88 110 134 171 217 263
#     4  10  19  33  48  58  72 100 139 180 219 260
#
# _framework density 14.309799
#
# number of rings (size 3 to 8) (size 9 to 14) (size 15 to 20)
#    0.000    2.077    2.308    2.077    0.000    6.154 
#    0.000    0.000    0.000    0.000    0.000    0.000 
#    0.000    0.000    0.000    0.000    0.000    0.769 
#
# Total GULP energy -644457.884194 kJ/mol
# GULP energy per Si atom -12393.420850 kJ/mol
# Density = 1.427723 g / cm^3
# Si number density = 14.309799 Si / 1000 Ang^3
#
#
#
# Elastic Constant Matrix: (Units=GPa)
#
#
# Indices 1 2 3 4 5 6 
#
# 1 46.0321 38.0067 39.7890 0.0000 0.0000 0.0000
# 2 38.0067 72.5203 47.8058 0.0000 0.0000 0.0000
# 3 39.7890 47.8058 87.7909 0.0000 0.0000 0.0000
# 4 0.0000 0.0000 0.0000 20.0902 0.0000 0.0000
# 5 0.0000 0.0000 0.0000 0.0000 41.9690 0.0000
# 6 0.0000 0.0000 0.0000 0.0000 0.0000 26.3494
#
#
#
# Elastic Compliance Matrix: (Units=1/GPa)
#
#
# Indices 1 2 3 4 5 6 
#
# 1 0.044933 -0.015793 -0.011765 0.000000 0.000000 0.000000
# 2 -0.015793 0.027062 -0.007578 0.000000 0.000000 0.000000
# 3 -0.011765 -0.007578 0.020849 0.000000 0.000000 0.000000
# 4 0.000000 0.000000 0.000000 0.049776 0.000000 0.000000
# 5 0.000000 0.000000 0.000000 0.000000 0.023827 0.000000
# 6 0.000000 0.000000 0.000000 0.000000 0.000000 0.037952
#
#
# Mechanical properties :
#
#
# Convention : Reuss Voigt Hill
#
# Bulk Modulus (GPa) = 44.30338 50.83849 47.57094
# Shear Modulus (GPa) = 17.71826 23.06452 20.39139
#
# Velocity S-wave (km/s) = 3.52261 4.01908 3.77901
# Velocity P-wave (km/s) = 6.89728 7.55920 7.23581
#
# Compressibility (1/GPa) = 0.02257164
#
# Stress axis : x y z
#
# Youngs Moduli (GPa) = 22.25551 36.95220 47.96280
#
# Poissons Ratio (x) = 0.58359 0.56426
# Poissons Ratio (y) = 0.35149 0.36349
# Poissons Ratio (z) = 0.26183 0.28004
#
# Static dielectric constant tensor:
#      x y z
#    x 2.622470 0.000000 0.000000 
#    y 0.000000 2.671640 0.000000 
#    z 0.000000 0.000000 2.809710 
# 
# 
# High freq. dielectric constant tensor:
#      x y z
#    x 1.516380 0.000000 0.000000 
#    y 0.000000 1.513320 0.000000 
#    z 0.000000 0.000000 1.564050 
# 
# From -- ./inp_files/14779.got.cif
#   From: 2010.03.12/outbox.cif.g09.slc.cpg/sg65_8_cif.got.tgz:14779.got - 2010.04.10 20:52:16.
