data_PCOD8267176
_publ_section_title
;
Structure prediction by ZEFSAII (Michael W. Deem and Ramdas Pophale) SiO2 
 PCOD8267176
Probable space group: C M M M
;
_chemical_formula_sum "Si O2"
_cell_formula_units_Z 72
_cell_length_a 19.670174
_cell_length_b 22.461584
_cell_length_c 8.928148
_cell_angle_alpha 90.000000
_cell_angle_beta 90.000000
_cell_angle_gamma 90.000000
_cell_volume 3944.663505
_symmetry_space_group_name_H-M "C M M M"
_symmetry_group_IT_number 65
_symmetry_cell_setting 'orthorhombic'
loop_
_space_group_symop_operation_xyz
x,y,z
-x,-y,z
x,-y,-z
-x,y,-z
-x,-y,-z
x,y,-z
-x,y,z
x,-y,z
1/2+x,1/2+y,z
1/2-x,1/2-y,z
1/2+x,1/2-y,-z
1/2-x,1/2+y,-z
1/2-x,1/2-y,-z
1/2+x,1/2+y,-z
1/2-x,1/2+y,z
1/2+x,1/2-y,z
loop_
_atom_site_type_symbol
_atom_site_label
_atom_site_fract_x
_atom_site_fract_y
_atom_site_fract_z
Si Si1 0.371319 0.568405 0.327488
Si Si2 0.500000 0.224862 0.322548
Si Si3 0.889496 0.369027 0.323069
Si Si4 0.500000 0.066705 0.161742
Si Si5 0.769597 0.568128 0.823332
Si Si6 0.500000 0.358131 0.678351
O O1 0.354131 0.583628 0.500000
O O2 0.393666 0.500000 0.311424
O O3 0.306502 0.583299 0.226731
O O4 0.432849 0.608295 0.264239
O O5 0.500000 0.226986 0.500000
O O6 0.569316 0.190679 0.271022
O O7 0.500000 0.291145 0.255185
O O8 0.881245 0.370982 0.500000
O O9 0.934218 0.423078 0.263072
O O10 0.815887 0.380013 0.250203
O O11 0.500000 0.000000 0.113009
O O12 0.500000 0.102050 0.000000
O O13 0.788052 0.500000 0.772558
O O14 0.776037 0.573913 0.000000
O O15 0.500000 0.358151 0.500000
#
# Coordination Sequence:
#
# PCOD8267176 Si02
#       6
#    16   8  16   8  16   8
#     4   9  17  30  52  81 104 123 154 197 245 295
#     4   8  17  32  49  72  98 127 166 205 242 283
#     4  10  19  31  48  69  95 128 168 209 240 276
#     4  10  19  29  43  66  95 127 162 199 246 299
#     4  10  20  33  49  71 101 134 163 196 246 301
#     4   9  16  31  55  77  99 126 158 201 246 290
#
# _framework density 18.252509
#
# number of rings (size 3 to 8) (size 9 to 14) (size 15 to 20)
#    0.000    2.556    0.000    3.333    0.000    6.222 
#    0.000    1.667    0.000   17.333    0.000    0.000 
#    0.000    0.000    0.000    0.000    0.000    0.000 
#
# Total GULP energy -446085.169687 kJ/mol
# GULP energy per Si atom -12391.254714 kJ/mol
# Density = 1.821097 g / cm^3
# Si number density = 18.252509 Si / 1000 Ang^3
#
#
#
# Elastic Constant Matrix: (Units=GPa)
#
#
# Indices 1 2 3 4 5 6 
#
# 1 136.6129 73.7146 39.9220 0.0000 0.0000 0.0000
# 2 73.7146 111.8048 31.7336 0.0000 0.0000 0.0000
# 3 39.9220 31.7336 59.7945 0.0000 0.0000 0.0000
# 4 0.0000 0.0000 0.0000 10.8711 0.0000 0.0000
# 5 0.0000 0.0000 0.0000 0.0000 -44.9494 0.0000
# 6 0.0000 0.0000 0.0000 0.0000 0.0000 16.4029
#
#
#
# Elastic Compliance Matrix: (Units=1/GPa)
#
#
# Indices 1 2 3 4 5 6 
#
# 1 0.012360 -0.006837 -0.004624 0.000000 0.000000 0.000000
# 2 -0.006837 0.014312 -0.003031 0.000000 0.000000 0.000000
# 3 -0.004624 -0.003031 0.021420 0.000000 0.000000 0.000000
# 4 0.000000 0.000000 0.000000 0.091987 0.000000 0.000000
# 5 0.000000 0.000000 0.000000 0.000000 -0.022247 0.000000
# 6 0.000000 0.000000 0.000000 0.000000 0.000000 0.060965
#
#
# Mechanical properties :
#
#
# Convention : Reuss Voigt Hill
#
# Bulk Modulus (GPa) = 52.33265 66.55028 59.44147
# Shear Modulus (GPa) = 23.34811 7.32105 15.33458
#
# Velocity S-wave (km/s) = 3.58043 2.00492 2.90165
# Velocity P-wave (km/s) = 6.76952 6.47299 6.62292
#
# Compressibility (1/GPa) = 0.01910853
#
# Stress axis : x y z
#
# Youngs Moduli (GPa) = 80.90401 69.87090 46.68600
#
# Poissons Ratio (x) = 0.47770 0.21588
# Poissons Ratio (y) = 0.55313 0.14150
# Poissons Ratio (z) = 0.37410 0.21177
#
# Static dielectric constant tensor:
#      x y z
#    x 3.430640 0.000000 0.000000 
#    y 0.000000 3.434350 0.000000 
#    z 0.000000 0.000000 3.168430 
# 
# 
# High freq. dielectric constant tensor:
#      x y z
#    x 1.711100 0.000000 0.000000 
#    y 0.000000 1.684090 0.000000 
#    z 0.000000 0.000000 1.694900 
# 
# From -- ./inp_files/9313.got.cif
#   From: 2010.03.12/outbox.cif.g09.slc.cpg/sg65_5_cif.got.tgz:9313.got - 2010.04.10 20:52:16.
