data_PCOD8267129
_publ_section_title
;
Structure prediction by ZEFSAII (Michael W. Deem and Ramdas Pophale) SiO2 
 PCOD8267129
Probable space group: C M M M
;
_chemical_formula_sum "Si O2"
_cell_formula_units_Z 64
_cell_length_a 13.550449
_cell_length_b 34.277023
_cell_length_c 8.732637
_cell_angle_alpha 90.000000
_cell_angle_beta 90.000000
_cell_angle_gamma 90.000000
_cell_volume 4056.039629
_symmetry_space_group_name_H-M "C M M M"
_symmetry_group_IT_number 65
_symmetry_cell_setting 'orthorhombic'
loop_
_space_group_symop_operation_xyz
x,y,z
-x,-y,z
x,-y,-z
-x,y,-z
-x,-y,-z
x,y,-z
-x,y,z
x,-y,z
1/2+x,1/2+y,z
1/2-x,1/2-y,z
1/2+x,1/2-y,-z
1/2-x,1/2+y,-z
1/2-x,1/2-y,-z
1/2+x,1/2+y,-z
1/2-x,1/2+y,z
1/2+x,1/2-y,z
loop_
_atom_site_type_symbol
_atom_site_label
_atom_site_fract_x
_atom_site_fract_y
_atom_site_fract_z
Si Si1 0.615775 0.120531 0.176049
Si Si2 0.117103 0.457362 0.672204
Si Si3 0.294093 0.805680 0.320482
Si Si4 0.887537 0.768152 0.179372
O O1 0.500000 0.124637 0.211780
O O2 0.654780 0.077126 0.217339
O O3 0.675013 0.150591 0.280684
O O4 0.639377 0.129022 0.000000
O O5 0.155120 0.449351 0.500000
O O6 0.155960 0.500000 0.728899
O O7 0.000000 0.458026 0.673568
O O8 0.303808 0.798331 0.500000
O O9 0.181307 0.798685 0.268878
O O10 0.365999 0.775877 0.233005
O O11 0.000000 0.778898 0.217265
O O12 0.865192 0.770968 0.000000
#
# Coordination Sequence:
#
# PCOD8267129 Si02
#       4
#    16  16  16  16
#     4  10  19  29  42  61  87 118 150 183 216 253
#     4   8  14  25  40  58  82 112 144 177 214 256
#     4  11  21  31  46  66  88 114 145 181 216 255
#     4  10  20  34  50  65  85 113 143 178 219 260
#
# _framework density 15.778938
#
# number of rings (size 3 to 8) (size 9 to 14) (size 15 to 20)
#    0.000    2.250    0.000    6.750    0.000    7.000 
#    0.000    2.500    0.000    0.000    0.000    0.000 
#    0.000    1.000    0.000   10.500    0.000    5.000 
#
# Total GULP energy -396741.970416 kJ/mol
# GULP energy per Si atom -12398.186576 kJ/mol
# Density = 1.574302 g / cm^3
# Si number density = 15.778938 Si / 1000 Ang^3
#
#
#
# Elastic Constant Matrix: (Units=GPa)
#
#
# Indices 1 2 3 4 5 6 
#
# 1 55.9536 28.4122 24.5613 0.0000 0.0000 0.0000
# 2 28.4122 102.2157 25.2009 0.0000 0.0000 0.0000
# 3 24.5613 25.2009 60.9461 0.0000 0.0000 0.0000
# 4 0.0000 0.0000 0.0000 29.2436 0.0000 0.0000
# 5 0.0000 0.0000 0.0000 0.0000 16.1955 0.0000
# 6 0.0000 0.0000 0.0000 0.0000 0.0000 16.0457
#
#
#
# Elastic Compliance Matrix: (Units=1/GPa)
#
#
# Indices 1 2 3 4 5 6 
#
# 1 0.023571 -0.004688 -0.007561 0.000000 0.000000 0.000000
# 2 -0.004688 0.011826 -0.003001 0.000000 0.000000 0.000000
# 3 -0.007561 -0.003001 0.020696 0.000000 0.000000 0.000000
# 4 0.000000 0.000000 0.000000 0.034195 0.000000 0.000000
# 5 0.000000 0.000000 0.000000 0.000000 0.061746 0.000000
# 6 0.000000 0.000000 0.000000 0.000000 0.000000 0.062322
#
#
# Mechanical properties :
#
#
# Convention : Reuss Voigt Hill
#
# Bulk Modulus (GPa) = 39.07142 41.71823 40.39482
# Shear Modulus (GPa) = 19.73269 21.69303 20.71286
#
# Velocity S-wave (km/s) = 3.54018 3.71186 3.62704
# Velocity P-wave (km/s) = 6.44407 6.69830 6.57241
#
# Compressibility (1/GPa) = 0.02559416
#
# Stress axis : x y z
#
# Youngs Moduli (GPa) = 42.42454 84.55850 48.31899
#
# Poissons Ratio (x) = 0.39640 0.36533
# Poissons Ratio (y) = 0.19888 0.14500
# Poissons Ratio (z) = 0.32076 0.25375
#
# Static dielectric constant tensor:
#      x y z
#    x 2.703070 0.000000 0.000000 
#    y 0.000000 3.201120 0.000000 
#    z 0.000000 0.000000 3.096260 
# 
# 
# High freq. dielectric constant tensor:
#      x y z
#    x 1.557370 0.000000 0.000000 
#    y 0.000000 1.606830 0.000000 
#    z 0.000000 0.000000 1.619570 
# 
# From -- ./inp_files/7568.got.cif
#   From: 2010.03.12/outbox.cif.g09.slc.cpg/sg65_4_cif.got.tgz:7568.got - 2010.04.10 20:52:16.
