data_PCOD8267368
_publ_section_title
;
Structure prediction by ZEFSAII (Michael W. Deem and Ramdas Pophale) SiO2 
 PCOD8267368
Probable space group: C M M M
;
_chemical_formula_sum "Si O2"
_cell_formula_units_Z 104
_cell_length_a 30.002482
_cell_length_b 9.591379
_cell_length_c 23.157863
_cell_angle_alpha 90.000000
_cell_angle_beta 90.000000
_cell_angle_gamma 90.000000
_cell_volume 6664.026517
_symmetry_space_group_name_H-M "C M M M"
_symmetry_group_IT_number 65
_symmetry_cell_setting 'orthorhombic'
loop_
_space_group_symop_operation_xyz
x,y,z
-x,-y,z
x,-y,-z
-x,y,-z
-x,-y,-z
x,y,-z
-x,y,z
x,-y,z
1/2+x,1/2+y,z
1/2-x,1/2-y,z
1/2+x,1/2-y,-z
1/2-x,1/2+y,-z
1/2-x,1/2-y,-z
1/2+x,1/2+y,-z
1/2-x,1/2+y,z
1/2+x,1/2-y,z
loop_
_atom_site_type_symbol
_atom_site_label
_atom_site_fract_x
_atom_site_fract_y
_atom_site_fract_z
Si Si1 0.947148 0.155933 0.936519
Si Si2 0.386936 0.840305 0.722848
Si Si3 0.209751 0.657275 0.315991
Si Si4 0.332826 0.160443 0.564316
Si Si5 0.448802 0.838450 0.830592
Si Si6 0.000000 0.835789 0.437156
Si Si7 0.907934 0.834279 0.385731
O O1 0.930229 0.258922 0.886788
O O2 0.000000 0.157594 0.937427
O O3 0.929888 0.000000 0.922875
O O4 0.929505 0.203431 0.000000
O O5 0.333169 0.823331 0.725914
O O6 0.413208 0.802340 0.780981
O O7 0.402948 0.727157 0.677561
O O8 0.397984 0.000000 0.704114
O O9 0.226875 0.500000 0.313826
O O10 0.250000 0.750000 0.291889
O O11 0.200111 0.699590 0.383052
O O12 0.311358 0.180685 0.500000
O O13 0.374872 0.262960 0.568532
O O14 0.348382 0.000000 0.572716
O O15 0.500000 0.794473 0.813809
O O16 0.447837 0.000000 0.845951
O O17 0.957048 0.787437 0.402758
O O18 0.000000 0.764588 0.500000
O O19 0.000000 0.000000 0.444579
O O20 0.900043 0.000000 0.385755
#
# Coordination Sequence:
#
# PCOD8267368 Si02
#       7
#    16  16  16  16  16   8  16
#     4   8  14  25  40  60  90 126 157 185 218 250
#     4   9  19  34  47  63  90 118 143 181 225 259
#     4   9  18  32  48  65  86 111 139 175 221 269
#     4   9  18  33  49  64  85 109 132 167 219 272
#     4   9  17  28  44  66  90 121 157 187 214 248
#     4   9  18  30  41  57  83 109 136 177 222 255
#     4  10  19  30  45  63  82 110 145 180 217 258
#
# _framework density 15.60618
#
# number of rings (size 3 to 8) (size 9 to 14) (size 15 to 20)
#    0.000    3.000    0.000    2.308    1.077    4.615 
#    0.000    2.692    0.000    2.769    0.000    0.000 
#    0.000    0.615    0.000    1.385    0.000    2.462 
#
# Total GULP energy -644319.055411 kJ/mol
# GULP energy per Si atom -12390.751066 kJ/mol
# Density = 1.557066 g / cm^3
# Si number density = 15.606180 Si / 1000 Ang^3
#
#
#
# Elastic Constant Matrix: (Units=GPa)
#
#
# Indices 1 2 3 4 5 6 
#
# 1 78.6466 35.9830 32.6146 0.0000 0.0000 0.0000
# 2 35.9830 58.8037 33.5478 0.0000 0.0000 0.0000
# 3 32.6146 33.5478 91.2556 0.0000 0.0000 0.0000
# 4 0.0000 0.0000 0.0000 25.4031 0.0000 0.0000
# 5 0.0000 0.0000 0.0000 0.0000 11.6983 0.0000
# 6 0.0000 0.0000 0.0000 0.0000 0.0000 20.9048
#
#
#
# Elastic Compliance Matrix: (Units=1/GPa)
#
#
# Indices 1 2 3 4 5 6 
#
# 1 0.018314 -0.009456 -0.003069 0.000000 0.000000 0.000000
# 2 -0.009456 0.026401 -0.006326 0.000000 0.000000 0.000000
# 3 -0.003069 -0.006326 0.014381 0.000000 0.000000 0.000000
# 4 0.000000 0.000000 0.000000 0.039365 0.000000 0.000000
# 5 0.000000 0.000000 0.000000 0.000000 0.085483 0.000000
# 6 0.000000 0.000000 0.000000 0.000000 0.000000 0.047836
#
#
# Mechanical properties :
#
#
# Convention : Reuss Voigt Hill
#
# Bulk Modulus (GPa) = 46.74297 48.11075 47.42686
# Shear Modulus (GPa) = 18.07575 20.03859 19.05717
#
# Velocity S-wave (km/s) = 3.40699 3.58720 3.49826
# Velocity P-wave (km/s) = 6.74488 6.93198 6.83907
#
# Compressibility (1/GPa) = 0.02139359
#
# Stress axis : x y z
#
# Youngs Moduli (GPa) = 54.60246 37.87739 69.53688
#
# Poissons Ratio (x) = 0.35816 0.21343
# Poissons Ratio (y) = 0.51631 0.43990
# Poissons Ratio (z) = 0.16759 0.23962
#
# Static dielectric constant tensor:
#      x y z
#    x 2.861110 0.000000 0.000000 
#    y 0.000000 3.000400 0.000000 
#    z 0.000000 0.000000 3.057310 
# 
# 
# High freq. dielectric constant tensor:
#      x y z
#    x 1.570960 0.000000 0.000000 
#    y 0.000000 1.601640 0.000000 
#    z 0.000000 0.000000 1.584280 
# 
# From -- ./inp_files/72157.got.cif
#   From: 2010.03.12/outbox.cif.g09.slc.cpg/sg65_37_cif.got.tgz:72157.got - 2010.04.10 20:52:16.
