data_PCOD8267912
_publ_section_title
;
Structure prediction by ZEFSAII (Michael W. Deem and Ramdas Pophale) SiO2 
 PCOD8267912
Probable space group: C M M M
;
_chemical_formula_sum "Si O2"
_cell_formula_units_Z 96
_cell_length_a 17.651376
_cell_length_b 24.232202
_cell_length_c 13.455449
_cell_angle_alpha 90.000000
_cell_angle_beta 90.000000
_cell_angle_gamma 90.000000
_cell_volume 5755.322194
_symmetry_space_group_name_H-M "C M M M"
_symmetry_group_IT_number 65
_symmetry_cell_setting 'orthorhombic'
loop_
_space_group_symop_operation_xyz
x,y,z
-x,-y,z
x,-y,-z
-x,y,-z
-x,-y,-z
x,y,-z
-x,y,z
x,-y,z
1/2+x,1/2+y,z
1/2-x,1/2-y,z
1/2+x,1/2-y,-z
1/2-x,1/2+y,-z
1/2-x,1/2-y,-z
1/2+x,1/2+y,-z
1/2-x,1/2+y,z
1/2+x,1/2-y,z
loop_
_atom_site_type_symbol
_atom_site_label
_atom_site_fract_x
_atom_site_fract_y
_atom_site_fract_z
Si Si1 0.302307 0.699567 0.259403
Si Si2 0.312198 0.134073 0.612264
Si Si3 0.086323 0.736859 0.611083
Si Si4 0.310053 0.602174 0.883919
Si Si5 0.155681 0.564771 0.205609
Si Si6 0.912691 0.000000 0.118063
Si Si7 0.500000 0.934242 0.887474
O O1 0.250000 0.750000 0.219625
O O2 0.260803 0.665410 0.345652
O O3 0.377476 0.723110 0.308393
O O4 0.327976 0.660020 0.169799
O O5 0.295742 0.113810 0.500000
O O6 0.382616 0.175087 0.616295
O O7 0.331766 0.081568 0.680064
O O8 0.099373 0.760698 0.500000
O O9 0.000000 0.733080 0.640529
O O10 0.222777 0.587030 0.863975
O O11 0.367242 0.554347 0.844041
O O12 0.322472 0.611382 0.000000
O O13 0.155476 0.500000 0.198441
O O14 0.075503 0.588753 0.166528
O O15 0.000000 0.000000 0.157972
O O16 0.912595 0.000000 0.000000
O O17 0.500000 0.000000 0.885088
O O18 0.500000 0.912213 0.000000
#
# Coordination Sequence:
#
# PCOD8267912 Si02
#       7
#    16  16  16  16  16   8   8
#     4   9  18  32  49  73  99 129 164 208 250 301
#     4   9  18  31  48  70  99 130 162 202 248 296
#     4   9  17  30  50  72  93 124 164 205 248 294
#     4  10  19  32  52  73  99 132 167 208 252 299
#     4  10  19  31  48  71  98 130 168 202 242 293
#     4   9  18  32  50  73  98 126 165 211 254 300
#     4   9  18  30  45  65  91 125 164 204 239 276
#
# _framework density 16.680212999999998
#
# number of rings (size 3 to 8) (size 9 to 14) (size 15 to 20)
#    0.000    2.667    0.833    1.000    1.167    4.000 
#    0.000    0.000    0.000    1.500    0.000    0.000 
#    0.000    5.333    0.000    0.000    0.000    0.000 
#
# Total GULP energy -595084.324965 kJ/mol
# GULP energy per Si atom -12397.590103 kJ/mol
# Density = 1.664225 g / cm^3
# Si number density = 16.680213 Si / 1000 Ang^3
#
#
#
# Elastic Constant Matrix: (Units=GPa)
#
#
# Indices 1 2 3 4 5 6 
#
# 1 62.9628 -15.9492 2.1104 0.0000 0.0000 0.0000
# 2 -15.9492 18.2053 7.2241 0.0000 0.0000 0.0000
# 3 2.1104 7.2241 72.6730 0.0000 0.0000 0.0000
# 4 0.0000 0.0000 0.0000 25.1194 0.0000 0.0000
# 5 0.0000 0.0000 0.0000 0.0000 15.2521 0.0000
# 6 0.0000 0.0000 0.0000 0.0000 0.0000 14.5781
#
#
#
# Elastic Compliance Matrix: (Units=1/GPa)
#
#
# Indices 1 2 3 4 5 6 
#
# 1 0.020846 0.019263 -0.002520 0.000000 0.000000 0.000000
# 2 0.019263 0.074985 -0.008013 0.000000 0.000000 0.000000
# 3 -0.002520 -0.008013 0.014630 0.000000 0.000000 0.000000
# 4 0.000000 0.000000 0.000000 0.039810 0.000000 0.000000
# 5 0.000000 0.000000 0.000000 0.000000 0.065565 0.000000
# 6 0.000000 0.000000 0.000000 0.000000 0.000000 0.068596
#
#
# Mechanical properties :
#
#
# Convention : Reuss Voigt Hill
#
# Bulk Modulus (GPa) = 7.81736 15.62351 11.72043
# Shear Modulus (GPa) = 16.14923 21.68700 18.91812
#
# Velocity S-wave (km/s) = 3.11491 3.60969 3.37139
# Velocity P-wave (km/s) = 4.19925 5.17300 4.71135
#
# Compressibility (1/GPa) = 0.12792048
#
# Stress axis : x y z
#
# Youngs Moduli (GPa) = 47.96979 13.33605 68.35265
#
# Poissons Ratio (x) = -0.25689 0.17226
# Poissons Ratio (y) = -0.92405 0.54773
# Poissons Ratio (z) = 0.12089 0.10687
#
# Static dielectric constant tensor:
#      x y z
#    x 3.280400 0.000000 0.000000 
#    y 0.000000 3.085510 0.000000 
#    z 0.000000 0.000000 3.135700 
# 
# 
# High freq. dielectric constant tensor:
#      x y z
#    x 1.646920 0.000000 0.000000 
#    y 0.000000 1.628940 0.000000 
#    z 0.000000 0.000000 1.633380 
# 
# From -- ./inp_files/27201.got.cif
#   From: 2010.03.12/outbox.cif.g09.slc.cpg/sg65_14_cif.got.tgz:27201.got - 2010.04.10 20:52:16.
