data_PCOD8267906
_publ_section_title
;
Structure prediction by ZEFSAII (Michael W. Deem and Ramdas Pophale) SiO2 
 PCOD8267906
Probable space group: C M M M
;
_chemical_formula_sum "Si O2"
_cell_formula_units_Z 104
_cell_length_a 9.000973
_cell_length_b 28.747509
_cell_length_c 23.214112
_cell_angle_alpha 90.000000
_cell_angle_beta 90.000000
_cell_angle_gamma 90.000000
_cell_volume 6006.780372
_symmetry_space_group_name_H-M "C M M M"
_symmetry_group_IT_number 65
_symmetry_cell_setting 'orthorhombic'
loop_
_space_group_symop_operation_xyz
x,y,z
-x,-y,z
x,-y,-z
-x,y,-z
-x,-y,-z
x,y,-z
-x,y,z
x,-y,z
1/2+x,1/2+y,z
1/2-x,1/2-y,z
1/2+x,1/2-y,-z
1/2-x,1/2+y,-z
1/2-x,1/2-y,-z
1/2+x,1/2+y,-z
1/2-x,1/2+y,z
1/2+x,1/2-y,z
loop_
_atom_site_type_symbol
_atom_site_label
_atom_site_fract_x
_atom_site_fract_y
_atom_site_fract_z
Si Si1 0.171938 0.145674 0.672572
Si Si2 0.823718 0.700112 0.226270
Si Si3 0.822476 0.300271 0.000000
Si Si4 0.169806 0.948729 0.275354
Si Si5 0.823879 0.353052 0.112648
Si Si6 0.826170 0.797337 0.435684
Si Si7 0.175932 0.448929 0.156321
O O1 0.274358 0.171431 0.718300
O O2 0.201097 0.090177 0.676140
O O3 0.217314 0.161575 0.608323
O O4 0.000000 0.157843 0.685502
O O5 0.750000 0.750000 0.227936
O O6 0.766221 0.674128 0.168854
O O7 0.000000 0.705469 0.226801
O O8 0.750000 0.250000 0.000000
O O9 0.762221 0.328354 0.944535
O O10 0.000000 0.295243 0.000000
O O11 0.270749 0.938171 0.220516
O O12 0.000000 0.946148 0.254225
O O13 0.205545 0.000000 0.301199
O O14 0.768056 0.407043 0.114913
O O15 0.000000 0.352001 0.111273
O O16 0.771730 0.811328 0.500000
O O17 0.750000 0.750000 0.414519
O O18 0.000000 0.787851 0.435329
O O19 0.233873 0.500000 0.135108
O O20 0.000000 0.448867 0.158373
#
# Coordination Sequence:
#
# PCOD8267906 Si02
#       7
#    16  16   8  16  16  16  16
#     4  10  19  31  48  71  96 124 157 193 237 282
#     4  11  21  32  46  68  97 124 154 194 241 283
#     4  10  20  36  53  67  91 125 164 198 231 278
#     4   9  17  29  46  70  98 125 154 190 233 281
#     4   9  18  32  49  70  94 123 155 195 236 276
#     4   9  18  32  48  66  91 124 160 195 231 275
#     4   9  16  29  49  71  95 122 153 189 234 286
#
# _framework density 17.313766999999999
#
# number of rings (size 3 to 8) (size 9 to 14) (size 15 to 20)
#    0.000    2.462    1.538    1.385    0.000    1.846 
#    0.000    1.923    0.000    2.769    0.000    3.231 
#    0.000    3.077    0.000    9.077    0.000    9.538 
#
# Total GULP energy -644553.216887 kJ/mol
# GULP energy per Si atom -12395.254171 kJ/mol
# Density = 1.727436 g / cm^3
# Si number density = 17.313767 Si / 1000 Ang^3
#
#
#
# Elastic Constant Matrix: (Units=GPa)
#
#
# Indices 1 2 3 4 5 6 
#
# 1 23.9010 26.8878 21.2104 0.0000 0.0000 0.0000
# 2 26.8878 171.5387 82.3747 0.0000 0.0000 0.0000
# 3 21.2104 82.3747 116.1770 0.0000 0.0000 0.0000
# 4 0.0000 0.0000 0.0000 30.1662 0.0000 0.0000
# 5 0.0000 0.0000 0.0000 0.0000 18.9543 0.0000
# 6 0.0000 0.0000 0.0000 0.0000 0.0000 10.9387
#
#
#
# Elastic Compliance Matrix: (Units=1/GPa)
#
#
# Indices 1 2 3 4 5 6 
#
# 1 0.053226 -0.005575 -0.005765 0.000000 0.000000 0.000000
# 2 -0.005575 0.009423 -0.005664 0.000000 0.000000 0.000000
# 3 -0.005765 -0.005664 0.013676 0.000000 0.000000 0.000000
# 4 0.000000 0.000000 0.000000 0.033150 0.000000 0.000000
# 5 0.000000 0.000000 0.000000 0.000000 0.052759 0.000000
# 6 0.000000 0.000000 0.000000 0.000000 0.000000 0.091418
#
#
# Mechanical properties :
#
#
# Convention : Reuss Voigt Hill
#
# Bulk Modulus (GPa) = 23.63005 63.61807 43.62406
# Shear Modulus (GPa) = 16.56923 24.08810 20.32866
#
# Velocity S-wave (km/s) = 3.09689 3.73402 3.43028
# Velocity P-wave (km/s) = 5.14446 7.44409 6.39843
#
# Compressibility (1/GPa) = 0.04231899
#
# Stress axis : x y z
#
# Youngs Moduli (GPa) = 18.78772 106.12178 73.12159
#
# Poissons Ratio (x) = 0.59159 0.42154
# Poissons Ratio (y) = 0.10473 0.41414
# Poissons Ratio (z) = 0.10831 0.60104
#
# Static dielectric constant tensor:
#      x y z
#    x 3.085090 0.000000 0.000000 
#    y 0.000000 3.673700 0.000000 
#    z 0.000000 0.000000 3.333130 
# 
# 
# High freq. dielectric constant tensor:
#      x y z
#    x 1.652050 0.000000 0.000000 
#    y 0.000000 1.682960 0.000000 
#    z 0.000000 0.000000 1.648610 
# 
# From -- ./inp_files/68525.got.cif
#   From: 2010.03.12/outbox.cif.g09.slc.cpg/sg65_35_cif.got.tgz:68525.got - 2010.04.10 20:52:16.
