data_PCOD8267884
_publ_section_title
;
Structure prediction by ZEFSAII (Michael W. Deem and Ramdas Pophale) SiO2 
 PCOD8267884
Probable space group: C M M M
;
_chemical_formula_sum "Si O2"
_cell_formula_units_Z 104
_cell_length_a 27.587771
_cell_length_b 8.752114
_cell_length_c 26.694138
_cell_angle_alpha 90.000000
_cell_angle_beta 90.000000
_cell_angle_gamma 90.000000
_cell_volume 6445.334771
_symmetry_space_group_name_H-M "C M M M"
_symmetry_group_IT_number 65
_symmetry_cell_setting 'orthorhombic'
loop_
_space_group_symop_operation_xyz
x,y,z
-x,-y,z
x,-y,-z
-x,y,-z
-x,-y,-z
x,y,-z
-x,y,z
x,-y,z
1/2+x,1/2+y,z
1/2-x,1/2-y,z
1/2+x,1/2-y,-z
1/2-x,1/2+y,-z
1/2-x,1/2-y,-z
1/2+x,1/2+y,-z
1/2-x,1/2+y,z
1/2+x,1/2-y,z
loop_
_atom_site_type_symbol
_atom_site_label
_atom_site_fract_x
_atom_site_fract_y
_atom_site_fract_z
Si Si1 0.888652 0.321092 0.144693
Si Si2 0.802861 0.680303 0.392258
Si Si3 0.352380 0.181525 0.292631
Si Si4 0.944674 0.176705 0.057590
Si Si5 0.301363 0.680782 0.801275
Si Si6 0.447004 0.180126 0.240737
Si Si7 0.302159 0.179043 0.500000
O O1 0.877353 0.500000 0.147649
O O2 0.908448 0.278263 0.090243
O O3 0.839269 0.231350 0.156102
O O4 0.928860 0.272199 0.185617
O O5 0.796563 0.500000 0.388772
O O6 0.750000 0.750000 0.384501
O O7 0.838596 0.737539 0.348442
O O8 0.826655 0.728033 0.446737
O O9 0.316121 0.257651 0.253325
O O10 0.407649 0.235941 0.281856
O O11 0.347680 0.000000 0.286031
O O12 0.000000 0.228086 0.067290
O O13 0.938220 0.000000 0.071897
O O14 0.930764 0.204761 0.000000
O O15 0.297983 0.500000 0.799238
O O16 0.250000 0.750000 0.816771
O O17 0.500000 0.255389 0.250763
O O18 0.452115 0.000000 0.243982
O O19 0.250000 0.250000 0.500000
O O20 0.295595 0.000000 0.500000
#
# Coordination Sequence:
#
# PCOD8267884 Si02
#       7
#    16  16  16  16  16  16   8
#     4  10  19  31  48  70  93 118 152 189 224 265
#     4   9  16  25  38  56  80 109 140 176 216 260
#     4   9  17  28  42  63  87 112 145 181 218 261
#     4   9  18  32  49  71 100 130 157 187 225 266
#     4  11  21  33  48  66  90 119 149 181 220 266
#     4   8  14  25  41  61  85 111 140 176 214 252
#     4   8  14  24  36  52  75 105 139 173 214 260
#
# _framework density 16.135701999999998
#
# number of rings (size 3 to 8) (size 9 to 14) (size 15 to 20)
#    0.000    2.769    0.000    4.154    0.000    3.077 
#    0.000    0.769    0.000    4.615    0.000    0.538 
#    0.000    4.308    0.000    0.000    0.000   34.615 
#
# Total GULP energy -644400.317519 kJ/mol
# GULP energy per Si atom -12392.313798 kJ/mol
# Density = 1.609898 g / cm^3
# Si number density = 16.135702 Si / 1000 Ang^3
#
#
#
# Elastic Constant Matrix: (Units=GPa)
#
#
# Indices 1 2 3 4 5 6 
#
# 1 108.1821 25.6133 56.7398 0.0000 0.0000 0.0000
# 2 25.6133 46.4147 26.7833 0.0000 0.0000 0.0000
# 3 56.7398 26.7833 120.1006 0.0000 0.0000 0.0000
# 4 0.0000 0.0000 0.0000 19.4003 0.0000 0.0000
# 5 0.0000 0.0000 0.0000 0.0000 19.5190 0.0000
# 6 0.0000 0.0000 0.0000 0.0000 0.0000 18.6391
#
#
#
# Elastic Compliance Matrix: (Units=1/GPa)
#
#
# Indices 1 2 3 4 5 6 
#
# 1 0.012949 -0.004150 -0.005192 0.000000 0.000000 0.000000
# 2 -0.004150 0.026057 -0.003850 0.000000 0.000000 0.000000
# 3 -0.005192 -0.003850 0.011638 0.000000 0.000000 0.000000
# 4 0.000000 0.000000 0.000000 0.051546 0.000000 0.000000
# 5 0.000000 0.000000 0.000000 0.000000 0.051232 0.000000
# 6 0.000000 0.000000 0.000000 0.000000 0.000000 0.053651
#
#
# Mechanical properties :
#
#
# Convention : Reuss Voigt Hill
#
# Bulk Modulus (GPa) = 41.22131 54.77446 47.99789
# Shear Modulus (GPa) = 20.70017 22.54909 21.62463
#
# Velocity S-wave (km/s) = 3.58562 3.74232 3.66481
# Velocity P-wave (km/s) = 6.53791 7.25900 6.90787
#
# Compressibility (1/GPa) = 0.02425930
#
# Stress axis : x y z
#
# Youngs Moduli (GPa) = 77.22311 38.37789 85.92499
#
# Poissons Ratio (x) = 0.15926 0.44615
# Poissons Ratio (y) = 0.32046 0.33084
# Poissons Ratio (z) = 0.40097 0.14777
#
# Static dielectric constant tensor:
#      x y z
#    x 3.142940 0.000000 0.000000 
#    y 0.000000 3.039110 0.000000 
#    z 0.000000 0.000000 3.345490 
# 
# 
# High freq. dielectric constant tensor:
#      x y z
#    x 1.600630 0.000000 0.000000 
#    y 0.000000 1.610740 0.000000 
#    z 0.000000 0.000000 1.619120 
# 
# From -- ./inp_files/76025.got.cif
#   From: 2010.03.12/outbox.cif.g09.slc.cpg/sg65_39_cif.got.tgz:76025.got - 2010.04.10 20:52:16.
