data_PCOD8267408
_publ_section_title
;
Structure prediction by ZEFSAII (Michael W. Deem and Ramdas Pophale) SiO2 
 PCOD8267408
Probable space group: C M M M
;
_chemical_formula_sum "Si O2"
_cell_formula_units_Z 104
_cell_length_a 8.593616
_cell_length_b 27.257539
_cell_length_c 26.862647
_cell_angle_alpha 90.000000
_cell_angle_beta 90.000000
_cell_angle_gamma 90.000000
_cell_volume 6292.328549
_symmetry_space_group_name_H-M "C M M M"
_symmetry_group_IT_number 65
_symmetry_cell_setting 'orthorhombic'
loop_
_space_group_symop_operation_xyz
x,y,z
-x,-y,z
x,-y,-z
-x,y,-z
-x,-y,-z
x,y,-z
-x,y,z
x,-y,z
1/2+x,1/2+y,z
1/2-x,1/2-y,z
1/2+x,1/2-y,-z
1/2-x,1/2+y,-z
1/2-x,1/2-y,-z
1/2+x,1/2+y,-z
1/2-x,1/2+y,z
1/2+x,1/2-y,z
loop_
_atom_site_type_symbol
_atom_site_label
_atom_site_fract_x
_atom_site_fract_y
_atom_site_fract_z
Si Si1 0.816775 0.801626 0.804958
Si Si2 0.682205 0.695945 0.000000
Si Si3 0.181713 0.609034 0.753346
Si Si4 0.184123 0.349663 0.098167
Si Si5 0.680985 0.558032 0.339683
Si Si6 0.316090 0.053639 0.149856
Si Si7 0.184560 0.945033 0.552595
O O1 0.750000 0.750000 0.786287
O O2 0.775903 0.840855 0.762150
O O3 0.734834 0.814587 0.857037
O O4 0.000000 0.798926 0.813264
O O5 0.750000 0.750000 0.000000
O O6 0.734123 0.665899 0.952122
O O7 0.500000 0.701470 0.000000
O O8 0.216026 0.587378 0.699411
O O9 0.236182 0.569702 0.794829
O O10 0.000000 0.620846 0.758894
O O11 0.238628 0.405566 0.110019
O O12 0.000000 0.345647 0.091692
O O13 0.500000 0.569301 0.330005
O O14 0.712915 0.500000 0.335561
O O15 0.736722 0.578350 0.394507
O O16 0.500000 0.049778 0.148110
O O17 0.242467 0.000000 0.137772
O O18 0.237790 0.918476 0.500000
O O19 0.000000 0.947334 0.554255
O O20 0.251128 0.000000 0.550841
#
# Coordination Sequence:
#
# PCOD8267408 Si02
#       7
#    16   8  16  16  16  16  16
#     4  11  21  35  53  72  95 121 150 185 229 278
#     4  12  24  38  55  74  97 123 154 193 237 278
#     4  10  19  30  45  67  94 124 158 192 229 275
#     4  10  20  35  54  77 101 124 154 188 225 272
#     4   9  16  25  39  62  91 122 158 199 238 273
#     4   8  15  29  49  70  92 121 156 189 218 256
#     4   7  10  18  33  53  79 114 155 195 233 273
#
# _framework density 16.528061999999998
#
# number of rings (size 3 to 8) (size 9 to 14) (size 15 to 20)
#    0.000    2.615    0.000    6.231    0.000    0.923 
#    0.000    0.385    0.000   12.000    0.000    2.154 
#    0.000    0.615    0.000    1.692    0.000    2.462 
#
# Total GULP energy -644314.437439 kJ/mol
# GULP energy per Si atom -12390.662258 kJ/mol
# Density = 1.649044 g / cm^3
# Si number density = 16.528062 Si / 1000 Ang^3
#
#
#
# Elastic Constant Matrix: (Units=GPa)
#
#
# Indices 1 2 3 4 5 6 
#
# 1 64.5767 26.5807 27.4699 0.0000 0.0000 0.0000
# 2 26.5807 105.7026 52.3817 0.0000 0.0000 0.0000
# 3 27.4699 52.3817 134.7253 0.0000 0.0000 0.0000
# 4 0.0000 0.0000 0.0000 15.2586 0.0000 0.0000
# 5 0.0000 0.0000 0.0000 0.0000 20.9703 0.0000
# 6 0.0000 0.0000 0.0000 0.0000 0.0000 19.0101
#
#
#
# Elastic Compliance Matrix: (Units=1/GPa)
#
#
# Indices 1 2 3 4 5 6 
#
# 1 0.017853 -0.003326 -0.002347 0.000000 0.000000 0.000000
# 2 -0.003326 0.012338 -0.004119 0.000000 0.000000 0.000000
# 3 -0.002347 -0.004119 0.009502 0.000000 0.000000 0.000000
# 4 0.000000 0.000000 0.000000 0.065537 0.000000 0.000000
# 5 0.000000 0.000000 0.000000 0.000000 0.047687 0.000000
# 6 0.000000 0.000000 0.000000 0.000000 0.000000 0.052604
#
#
# Mechanical properties :
#
#
# Convention : Reuss Voigt Hill
#
# Bulk Modulus (GPa) = 49.72821 57.54101 53.63461
# Shear Modulus (GPa) = 21.56960 24.28596 22.92778
#
# Velocity S-wave (km/s) = 3.61644 3.83740 3.72856
# Velocity P-wave (km/s) = 6.89860 7.38403 7.14544
#
# Compressibility (1/GPa) = 0.02010931
#
# Stress axis : x y z
#
# Youngs Moduli (GPa) = 56.01307 81.04958 105.23612
#
# Poissons Ratio (x) = 0.26961 0.24697
# Poissons Ratio (y) = 0.18632 0.43345
# Poissons Ratio (z) = 0.13145 0.33383
#
# Static dielectric constant tensor:
#      x y z
#    x 2.941340 0.000000 0.000000 
#    y 0.000000 3.169440 0.000000 
#    z 0.000000 0.000000 3.366930 
# 
# 
# High freq. dielectric constant tensor:
#      x y z
#    x 1.622820 0.000000 0.000000 
#    y 0.000000 1.609850 0.000000 
#    z 0.000000 0.000000 1.638890 
# 
# From -- ./inp_files/73794.got.cif
#   From: 2010.03.12/outbox.cif.g09.slc.cpg/sg65_37_cif.got.tgz:73794.got - 2010.04.10 20:52:16.
