data_PCOD8267029
_publ_section_title
;
Structure prediction by ZEFSAII (Michael W. Deem and Ramdas Pophale) SiO2 
 PCOD8267029
Probable space group: C M M M
;
_chemical_formula_sum "Si O2"
_cell_formula_units_Z 104
_cell_length_a 21.923668
_cell_length_b 29.913299
_cell_length_c 9.458483
_cell_angle_alpha 90.000000
_cell_angle_beta 90.000000
_cell_angle_gamma 90.000000
_cell_volume 6202.960511
_symmetry_space_group_name_H-M "C M M M"
_symmetry_group_IT_number 65
_symmetry_cell_setting 'orthorhombic'
loop_
_space_group_symop_operation_xyz
x,y,z
-x,-y,z
x,-y,-z
-x,y,-z
-x,-y,-z
x,y,-z
-x,y,z
x,-y,z
1/2+x,1/2+y,z
1/2-x,1/2-y,z
1/2+x,1/2-y,-z
1/2-x,1/2+y,-z
1/2-x,1/2-y,-z
1/2+x,1/2+y,-z
1/2-x,1/2+y,z
1/2+x,1/2-y,z
loop_
_atom_site_type_symbol
_atom_site_label
_atom_site_fract_x
_atom_site_fract_y
_atom_site_fract_z
Si Si1 0.572579 0.672317 0.839643
Si Si2 0.928942 0.913014 0.336458
Si Si3 0.929678 0.659459 0.161469
Si Si4 0.068720 0.500000 0.649714
Si Si5 0.072305 0.255283 0.659726
Si Si6 0.733206 0.000000 0.839566
Si Si7 0.871972 0.567309 0.839716
Si Si8 0.855113 0.000000 0.666049
O O1 0.500000 0.674584 0.842393
O O2 0.594421 0.627541 0.760637
O O3 0.599166 0.714304 0.751719
O O4 0.598372 0.672988 0.000000
O O5 0.916280 0.900899 0.500000
O O6 0.892573 0.956565 0.286270
O O7 0.000000 0.922894 0.312453
O O8 0.908491 0.698733 0.265363
O O9 0.879999 0.620160 0.187344
O O10 0.000000 0.644457 0.192825
O O11 0.925542 0.676603 0.000000
O O12 0.105837 0.500000 0.500000
O O13 0.080558 0.455541 0.736969
O O14 0.000000 0.500000 0.607149
O O15 0.098902 0.253964 0.500000
O O16 0.000000 0.251114 0.654512
O O17 0.694484 0.045525 0.809362
O O18 0.789612 0.000000 0.736416
O O19 0.756809 0.000000 0.000000
O O20 0.890673 0.555986 0.000000
O O21 0.845046 0.000000 0.500000
#
# Coordination Sequence:
#
# PCOD8267029 Si02
#       8
#    16  16  16   8  16   8  16   8
#     4   9  16  26  41  63  92 124 154 180 209 252
#     4   9  17  30  48  70  96 123 149 177 212 259
#     4   9  16  26  42  64  88 115 150 192 232 268
#     4  10  19  27  38  60  87 112 141 184 236 282
#     4   9  16  25  38  59  90 125 154 180 215 262
#     4   9  19  34  49  65  86 115 154 195 229 267
#     4   9  18  32  47  61  81 115 156 192 229 274
#     4  10  20  33  50  71  93 119 149 181 221 268
#
# _framework density 16.766186999999999
#
# number of rings (size 3 to 8) (size 9 to 14) (size 15 to 20)
#    0.000    2.846    0.000    2.308    0.000    8.308 
#    0.000    1.538    0.000    2.308    0.000    1.077 
#    0.000    8.615    0.000    0.000    0.000    0.000 
#
# Total GULP energy -644463.671862 kJ/mol
# GULP energy per Si atom -12393.532151 kJ/mol
# Density = 1.672803 g / cm^3
# Si number density = 16.766187 Si / 1000 Ang^3
#
#
#
# Elastic Constant Matrix: (Units=GPa)
#
#
# Indices 1 2 3 4 5 6 
#
# 1 44.8218 41.4610 31.2996 0.0000 0.0000 0.0000
# 2 41.4610 148.8697 84.1917 0.0000 0.0000 0.0000
# 3 31.2996 84.1917 119.0039 0.0000 0.0000 0.0000
# 4 0.0000 0.0000 0.0000 36.4547 0.0000 0.0000
# 5 0.0000 0.0000 0.0000 0.0000 19.1047 0.0000
# 6 0.0000 0.0000 0.0000 0.0000 0.0000 -3.9449
#
#
#
# Elastic Compliance Matrix: (Units=1/GPa)
#
#
# Indices 1 2 3 4 5 6 
#
# 1 0.030854 -0.006674 -0.003393 0.000000 0.000000 0.000000
# 2 -0.006674 0.012641 -0.007188 0.000000 0.000000 0.000000
# 3 -0.003393 -0.007188 0.014381 0.000000 0.000000 0.000000
# 4 0.000000 0.000000 0.000000 0.027431 0.000000 0.000000
# 5 0.000000 0.000000 0.000000 0.000000 0.052343 0.000000
# 6 0.000000 0.000000 0.000000 0.000000 0.000000 -0.253490
#
#
# Mechanical properties :
#
#
# Convention : Reuss Voigt Hill
#
# Bulk Modulus (GPa) = 42.79844 69.62222 56.21033
# Shear Modulus (GPa) = -67.98867 20.70575 -23.64146
#
# Velocity S-wave (km/s) = -6.37488 3.51803 -3.75916
# Velocity P-wave (km/s) = 5.34822 7.62349 3.84149
#
# Compressibility (1/GPa) = 0.02336534
#
# Stress axis : x y z
#
# Youngs Moduli (GPa) = 32.41109 79.10796 69.53744
#
# Poissons Ratio (x) = 0.52795 0.23597
# Poissons Ratio (y) = 0.21631 0.49982
# Poissons Ratio (z) = 0.10998 0.56861
#
# Static dielectric constant tensor:
#      x y z
#    x 2.622070 0.000000 0.000000 
#    y 0.000000 3.307260 0.000000 
#    z 0.000000 0.000000 3.323940 
# 
# 
# High freq. dielectric constant tensor:
#      x y z
#    x 1.582260 0.000000 0.000000 
#    y 0.000000 1.652670 0.000000 
#    z 0.000000 0.000000 1.660060 
# 
# From -- ./inp_files/17029.got.cif
#   From: 2010.03.12/outbox.cif.g09.slc.cpg/sg65_9_cif.got.tgz:17029.got - 2010.04.10 20:52:16.
