data_PCOD8267830
_publ_section_title
;
Structure prediction by ZEFSAII (Michael W. Deem and Ramdas Pophale) SiO2 
 PCOD8267830
Probable space group: C M M M
;
_chemical_formula_sum "Si O2"
_cell_formula_units_Z 104
_cell_length_a 8.964451
_cell_length_b 26.311290
_cell_length_c 23.182554
_cell_angle_alpha 90.000000
_cell_angle_beta 90.000000
_cell_angle_gamma 90.000000
_cell_volume 5467.982540
_symmetry_space_group_name_H-M "C M M M"
_symmetry_group_IT_number 65
_symmetry_cell_setting 'orthorhombic'
loop_
_space_group_symop_operation_xyz
x,y,z
-x,-y,z
x,-y,-z
-x,y,-z
-x,-y,-z
x,y,-z
-x,y,z
x,-y,z
1/2+x,1/2+y,z
1/2-x,1/2-y,z
1/2+x,1/2-y,-z
1/2-x,1/2+y,-z
1/2-x,1/2-y,-z
1/2+x,1/2+y,-z
1/2-x,1/2+y,z
1/2+x,1/2-y,z
loop_
_atom_site_type_symbol
_atom_site_label
_atom_site_fract_x
_atom_site_fract_y
_atom_site_fract_z
Si Si1 0.171818 0.399692 0.935203
Si Si2 0.678113 0.303447 0.651611
Si Si3 0.674031 0.344371 0.228262
Si Si4 0.336695 0.500000 0.568453
Si Si5 0.826576 0.056225 0.830439
Si Si6 0.821831 0.890438 0.564771
Si Si7 0.825124 0.198599 0.893735
O O1 0.240090 0.440363 0.890989
O O2 0.258601 0.346710 0.931126
O O3 0.000000 0.390263 0.919450
O O4 0.189502 0.421196 0.000000
O O5 0.500000 0.297888 0.651145
O O6 0.750000 0.250000 0.633857
O O7 0.744516 0.320576 0.713948
O O8 0.734637 0.345854 0.606474
O O9 0.500000 0.347944 0.239793
O O10 0.733862 0.401688 0.214939
O O11 0.712811 0.309058 0.173897
O O12 0.500000 0.500000 0.597718
O O13 0.354329 0.500000 0.500000
O O14 0.257127 0.446166 0.585619
O O15 0.000000 0.067257 0.843813
O O16 0.802263 0.000000 0.804216
O O17 0.766023 0.877878 0.500000
O O18 0.000000 0.894041 0.565814
O O19 0.750000 0.250000 0.915565
O O20 0.000000 0.201285 0.904817
#
# Coordination Sequence:
#
# PCOD8267830 Si02
#       7
#    16  16  16   8  16  16  16
#     4  10  21  35  50  71  99 128 160 197 236 284
#     4  10  19  31  47  69  99 131 165 203 245 292
#     4   8  16  31  48  69  95 123 158 198 239 289
#     4   7  10  20  38  60  89 121 153 193 240 285
#     4   9  18  34  54  73  96 125 156 196 246 296
#     4   8  14  25  42  66  97 130 163 202 248 295
#     4  10  19  32  51  71  94 125 162 202 246 293
#
# _framework density 19.019812999999999
#
# number of rings (size 3 to 8) (size 9 to 14) (size 15 to 20)
#    0.000    3.000    0.000    3.231    0.000    2.462 
#    1.385    4.615    0.000    0.000    0.000    0.538 
#    0.000    1.846    0.000    0.000    0.000    0.000 
#
# Total GULP energy -644397.157289 kJ/mol
# GULP energy per Si atom -12392.253025 kJ/mol
# Density = 1.897652 g / cm^3
# Si number density = 19.019813 Si / 1000 Ang^3
#
#
#
# Elastic Constant Matrix: (Units=GPa)
#
#
# Indices 1 2 3 4 5 6 
#
# 1 43.8855 24.8251 14.1504 0.0000 0.0000 0.0000
# 2 24.8251 139.0392 35.1179 0.0000 0.0000 0.0000
# 3 14.1504 35.1179 73.9909 0.0000 0.0000 0.0000
# 4 0.0000 0.0000 0.0000 19.2111 0.0000 0.0000
# 5 0.0000 0.0000 0.0000 0.0000 11.8679 0.0000
# 6 0.0000 0.0000 0.0000 0.0000 0.0000 24.2392
#
#
#
# Elastic Compliance Matrix: (Units=1/GPa)
#
#
# Indices 1 2 3 4 5 6 
#
# 1 0.025974 -0.003844 -0.003143 0.000000 0.000000 0.000000
# 2 -0.003844 0.008741 -0.003413 0.000000 0.000000 0.000000
# 3 -0.003143 -0.003413 0.015736 0.000000 0.000000 0.000000
# 4 0.000000 0.000000 0.000000 0.052053 0.000000 0.000000
# 5 0.000000 0.000000 0.000000 0.000000 0.084261 0.000000
# 6 0.000000 0.000000 0.000000 0.000000 0.000000 0.041255
#
#
# Mechanical properties :
#
#
# Convention : Reuss Voigt Hill
#
# Bulk Modulus (GPa) = 33.72597 45.01139 39.36868
# Shear Modulus (GPa) = 19.32701 23.25179 21.28940
#
# Velocity S-wave (km/s) = 3.19117 3.50023 3.34927
# Velocity P-wave (km/s) = 5.59898 6.32869 5.97499
#
# Compressibility (1/GPa) = 0.02965074
#
# Stress axis : x y z
#
# Youngs Moduli (GPa) = 38.49949 114.40783 63.54702
#
# Poissons Ratio (x) = 0.43976 0.19974
# Poissons Ratio (y) = 0.14798 0.21691
# Poissons Ratio (z) = 0.12101 0.39052
#
# Static dielectric constant tensor:
#      x y z
#    x 3.063870 0.000000 0.000000 
#    y 0.000000 3.704400 0.000000 
#    z 0.000000 0.000000 3.481110 
# 
# 
# High freq. dielectric constant tensor:
#      x y z
#    x 1.693530 0.000000 0.000000 
#    y 0.000000 1.753130 0.000000 
#    z 0.000000 0.000000 1.723200 
# 
# From -- ./inp_files/68221.got.cif
#   From: 2010.03.12/outbox.cif.g09.slc.cpg/sg65_35_cif.got.tgz:68221.got - 2010.04.10 20:52:16.
