data_PCOD8267969
_publ_section_title
;
Structure prediction by ZEFSAII (Michael W. Deem and Ramdas Pophale) SiO2 
 PCOD8267969
Probable space group: C M M M
;
_chemical_formula_sum "Si O2"
_cell_formula_units_Z 104
_cell_length_a 9.296000
_cell_length_b 25.865621
_cell_length_c 22.754698
_cell_angle_alpha 90.000000
_cell_angle_beta 90.000000
_cell_angle_gamma 90.000000
_cell_volume 5471.294611
_symmetry_space_group_name_H-M "C M M M"
_symmetry_group_IT_number 65
_symmetry_cell_setting 'orthorhombic'
loop_
_space_group_symop_operation_xyz
x,y,z
-x,-y,z
x,-y,-z
-x,y,-z
-x,-y,-z
x,y,-z
-x,y,z
x,-y,z
1/2+x,1/2+y,z
1/2-x,1/2-y,z
1/2+x,1/2-y,-z
1/2-x,1/2+y,-z
1/2-x,1/2-y,-z
1/2+x,1/2+y,-z
1/2-x,1/2+y,z
1/2+x,1/2-y,z
loop_
_atom_site_type_symbol
_atom_site_label
_atom_site_fract_x
_atom_site_fract_y
_atom_site_fract_z
Si Si1 0.166463 0.651332 0.268149
Si Si2 0.666856 0.100282 0.068334
Si Si3 0.663796 0.605273 0.564618
Si Si4 0.167701 0.698804 0.392172
Si Si5 0.832621 0.057545 0.314518
Si Si6 0.163377 0.000000 0.069897
Si Si7 0.330773 0.197949 0.145488
O O1 0.199509 0.687166 0.323885
O O2 0.249457 0.597275 0.273094
O O3 0.218844 0.682165 0.210936
O O4 0.000000 0.636835 0.263101
O O5 0.500000 0.087886 0.079882
O O6 0.756815 0.051513 0.093082
O O7 0.715408 0.151978 0.101863
O O8 0.698461 0.109782 0.000000
O O9 0.682492 0.579255 0.500000
O O10 0.500000 0.625017 0.573099
O O11 0.771310 0.653360 0.567604
O O12 0.702798 0.565072 0.616150
O O13 0.250000 0.750000 0.410878
O O14 0.000000 0.705557 0.404937
O O15 0.000000 0.065604 0.302429
O O16 0.782830 0.000000 0.297415
O O17 0.000000 0.000000 0.093496
O O18 0.168917 0.000000 0.000000
O O19 0.500000 0.208696 0.142184
O O20 0.250000 0.250000 0.126131
#
# Coordination Sequence:
#
# PCOD8267969 Si02
#       7
#    16  16  16  16  16   8  16
#     4   9  19  35  52  72  98 130 168 207 250 303
#     4   9  18  34  55  78 107 144 181 216 261 317
#     4   9  18  32  49  70  97 128 161 197 240 294
#     4  10  19  31  49  70  93 124 162 203 248 294
#     4   9  18  33  53  76 101 128 161 204 252 300
#     4   9  17  31  53  79 105 135 175 221 262 301
#     4  10  21  36  54  78 107 139 177 218 262 313
#
# _framework density 19.008298
#
# number of rings (size 3 to 8) (size 9 to 14) (size 15 to 20)
#    0.000    2.692    0.000    1.154    0.000    4.308 
#    1.385    1.538    0.000    0.000    0.000    4.308 
#    0.000    0.000    0.000    0.000    0.000    0.000 
#
# Total GULP energy -644807.692103 kJ/mol
# GULP energy per Si atom -12400.147925 kJ/mol
# Density = 1.896503 g / cm^3
# Si number density = 19.008298 Si / 1000 Ang^3
#
#
#
# Elastic Constant Matrix: (Units=GPa)
#
#
# Indices 1 2 3 4 5 6 
#
# 1 69.7579 56.2961 18.7584 0.0000 0.0000 0.0000
# 2 56.2961 132.3265 26.8372 0.0000 0.0000 0.0000
# 3 18.7584 26.8372 57.0258 0.0000 0.0000 0.0000
# 4 0.0000 0.0000 0.0000 18.9685 0.0000 0.0000
# 5 0.0000 0.0000 0.0000 0.0000 20.2779 0.0000
# 6 0.0000 0.0000 0.0000 0.0000 0.0000 36.6355
#
#
#
# Elastic Compliance Matrix: (Units=1/GPa)
#
#
# Indices 1 2 3 4 5 6 
#
# 1 0.022340 -0.008859 -0.003179 0.000000 0.000000 0.000000
# 2 -0.008859 0.011868 -0.002671 0.000000 0.000000 0.000000
# 3 -0.003179 -0.002671 0.019839 0.000000 0.000000 0.000000
# 4 0.000000 0.000000 0.000000 0.052719 0.000000 0.000000
# 5 0.000000 0.000000 0.000000 0.000000 0.049315 0.000000
# 6 0.000000 0.000000 0.000000 0.000000 0.000000 0.027296
#
#
# Mechanical properties :
#
#
# Convention : Reuss Voigt Hill
#
# Bulk Modulus (GPa) = 40.60526 51.43262 46.01894
# Shear Modulus (GPa) = 22.62398 25.65761 24.14080
#
# Velocity S-wave (km/s) = 3.45369 3.67796 3.56759
# Velocity P-wave (km/s) = 6.10837 6.71962 6.42127
#
# Compressibility (1/GPa) = 0.02462735
#
# Stress axis : x y z
#
# Youngs Moduli (GPa) = 44.76287 84.26134 50.40646
#
# Poissons Ratio (x) = 0.74650 0.16026
# Poissons Ratio (y) = 0.39657 0.13463
# Poissons Ratio (z) = 0.14231 0.22506
#
# Static dielectric constant tensor:
#      x y z
#    x 3.426590 0.000000 0.000000 
#    y 0.000000 3.425360 0.000000 
#    z 0.000000 0.000000 3.429890 
# 
# 
# High freq. dielectric constant tensor:
#      x y z
#    x 1.733730 0.000000 0.000000 
#    y 0.000000 1.735700 0.000000 
#    z 0.000000 0.000000 1.729320 
# 
# From -- ./inp_files/65865.got.cif
#   From: 2010.03.12/outbox.cif.g09.slc.cpg/sg65_33_cif.got.tgz:65865.got - 2010.04.10 20:52:16.
