data_PCOD8267149
_publ_section_title
;
Structure prediction by ZEFSAII (Michael W. Deem and Ramdas Pophale) SiO2 
 PCOD8267149
Probable space group: C M M M
;
_chemical_formula_sum "Si O2"
_cell_formula_units_Z 104
_cell_length_a 9.302085
_cell_length_b 30.848369
_cell_length_c 21.879626
_cell_angle_alpha 90.000000
_cell_angle_beta 90.000000
_cell_angle_gamma 90.000000
_cell_volume 6278.449493
_symmetry_space_group_name_H-M "C M M M"
_symmetry_group_IT_number 65
_symmetry_cell_setting 'orthorhombic'
loop_
_space_group_symop_operation_xyz
x,y,z
-x,-y,z
x,-y,-z
-x,y,-z
-x,-y,-z
x,y,-z
-x,y,z
x,-y,z
1/2+x,1/2+y,z
1/2-x,1/2-y,z
1/2+x,1/2-y,-z
1/2-x,1/2+y,-z
1/2-x,1/2-y,-z
1/2+x,1/2+y,-z
1/2-x,1/2+y,z
1/2+x,1/2-y,z
loop_
_atom_site_type_symbol
_atom_site_label
_atom_site_fract_x
_atom_site_fract_y
_atom_site_fract_z
Si Si1 0.829895 0.796239 0.367010
Si Si2 0.338094 0.548102 0.295118
Si Si3 0.832540 0.368885 0.293415
Si Si4 0.335041 0.128060 0.850444
Si Si5 0.338974 0.547187 0.149916
Si Si6 0.832383 0.292789 0.070128
Si Si7 0.338199 0.292668 0.500000
O O1 0.750000 0.750000 0.360996
O O2 0.756519 0.829281 0.320828
O O3 0.807724 0.817075 0.435601
O O4 0.000000 0.790857 0.351909
O O5 0.500000 0.558161 0.318492
O O6 0.289877 0.500000 0.318468
O O7 0.229911 0.585384 0.319044
O O8 0.336231 0.548281 0.222613
O O9 0.809492 0.365143 0.221137
O O10 0.000000 0.365906 0.311550
O O11 0.500000 0.121809 0.866605
O O12 0.259226 0.085138 0.876635
O O13 0.272564 0.168986 0.887025
O O14 0.500000 0.554647 0.125919
O O15 0.282331 0.500000 0.127655
O O16 0.750000 0.250000 0.090843
O O17 0.000000 0.284520 0.081139
O O18 0.799042 0.304716 0.000000
O O19 0.500000 0.276228 0.500000
O O20 0.250000 0.250000 0.500000
#
# Coordination Sequence:
#
# PCOD8267149 Si02
#       7
#    16  16  16  16  16  16   8
#     4  10  19  32  48  66  90 119 151 184 219 258
#     4   8  14  26  43  62  86 117 151 184 218 257
#     4  10  19  29  42  66  97 122 146 177 219 268
#     4   9  18  30  44  65  91 116 144 180 220 262
#     4   8  14  25  42  64  88 114 144 176 212 257
#     4   9  18  33  50  65  82 108 146 188 224 259
#     4   8  16  30  48  66  83 110 149 188 218 251
#
# _framework density 16.564599999999999
#
# number of rings (size 3 to 8) (size 9 to 14) (size 15 to 20)
#    0.000    3.077    0.000    1.846    0.000    3.077 
#    0.000    4.615    0.000    0.462    0.000    3.769 
#    0.000    4.308    0.000    0.000    0.000    0.000 
#
# Total GULP energy -644315.790726 kJ/mol
# GULP energy per Si atom -12390.688283 kJ/mol
# Density = 1.652690 g / cm^3
# Si number density = 16.564600 Si / 1000 Ang^3
#
#
#
# Elastic Constant Matrix: (Units=GPa)
#
#
# Indices 1 2 3 4 5 6 
#
# 1 88.2758 73.3808 31.7834 0.0000 0.0000 0.0000
# 2 73.3808 150.6334 45.1283 0.0000 0.0000 0.0000
# 3 31.7834 45.1283 34.6638 0.0000 0.0000 0.0000
# 4 0.0000 0.0000 0.0000 1.5235 0.0000 0.0000
# 5 0.0000 0.0000 0.0000 0.0000 16.5489 0.0000
# 6 0.0000 0.0000 0.0000 0.0000 0.0000 36.0896
#
#
#
# Elastic Compliance Matrix: (Units=1/GPa)
#
#
# Indices 1 2 3 4 5 6 
#
# 1 0.020839 -0.007258 -0.009658 0.000000 0.000000 0.000000
# 2 -0.007258 0.013412 -0.010805 0.000000 0.000000 0.000000
# 3 -0.009658 -0.010805 0.051771 0.000000 0.000000 0.000000
# 4 0.000000 0.000000 0.000000 0.656378 0.000000 0.000000
# 5 0.000000 0.000000 0.000000 0.000000 0.060427 0.000000
# 6 0.000000 0.000000 0.000000 0.000000 0.000000 0.027709
#
#
# Mechanical properties :
#
#
# Convention : Reuss Voigt Hill
#
# Bulk Modulus (GPa) = 32.70232 63.79534 48.24883
# Shear Modulus (GPa) = 5.57928 19.05108 12.31518
#
# Velocity S-wave (km/s) = 1.83726 3.39500 2.72961
# Velocity P-wave (km/s) = 4.92807 7.34607 6.25502
#
# Compressibility (1/GPa) = 0.03057887
#
# Stress axis : x y z
#
# Youngs Moduli (GPa) = 47.98688 74.56207 19.31570
#
# Poissons Ratio (x) = 0.54119 0.18655
# Poissons Ratio (y) = 0.34830 0.20871
# Poissons Ratio (z) = 0.46346 0.80567
#
# Static dielectric constant tensor:
#      x y z
#    x 3.249150 0.000000 0.000000 
#    y 0.000000 3.331200 0.000000 
#    z 0.000000 0.000000 3.090420 
# 
# 
# High freq. dielectric constant tensor:
#      x y z
#    x 1.643410 0.000000 0.000000 
#    y 0.000000 1.639200 0.000000 
#    z 0.000000 0.000000 1.599350 
# 
# From -- ./inp_files/68466.got.cif
#   From: 2010.03.12/outbox.cif.g09.slc.cpg/sg65_35_cif.got.tgz:68466.got - 2010.04.10 20:52:16.
