data_PCOD8267778
_publ_section_title
;
Structure prediction by ZEFSAII (Michael W. Deem and Ramdas Pophale) SiO2 
 PCOD8267778
Probable space group: C M M M
;
_chemical_formula_sum "Si O2"
_cell_formula_units_Z 88
_cell_length_a 27.215792
_cell_length_b 9.164947
_cell_length_c 21.247406
_cell_angle_alpha 90.000000
_cell_angle_beta 90.000000
_cell_angle_gamma 90.000000
_cell_volume 5299.767914
_symmetry_space_group_name_H-M "C M M M"
_symmetry_group_IT_number 65
_symmetry_cell_setting 'orthorhombic'
loop_
_space_group_symop_operation_xyz
x,y,z
-x,-y,z
x,-y,-z
-x,y,-z
-x,-y,-z
x,y,-z
-x,y,z
x,-y,z
1/2+x,1/2+y,z
1/2-x,1/2-y,z
1/2+x,1/2-y,-z
1/2-x,1/2+y,-z
1/2-x,1/2-y,-z
1/2+x,1/2+y,-z
1/2-x,1/2+y,z
1/2+x,1/2-y,z
loop_
_atom_site_type_symbol
_atom_site_label
_atom_site_fract_x
_atom_site_fract_y
_atom_site_fract_z
Si Si1 0.055655 0.670186 0.685406
Si Si2 0.445197 0.172958 0.930592
Si Si3 0.612945 0.171210 0.189015
Si Si4 0.302200 0.672660 0.500000
Si Si5 0.801171 0.171144 0.749532
Si Si6 0.358750 0.669634 0.624191
O O1 0.058254 0.500000 0.671065
O O2 0.074048 0.704542 0.755807
O O3 0.089653 0.748577 0.633761
O O4 0.000000 0.728566 0.679065
O O5 0.500000 0.236685 0.920571
O O6 0.409489 0.231808 0.876242
O O7 0.447925 0.000000 0.925119
O O8 0.425503 0.219001 0.000000
O O9 0.662234 0.262946 0.198786
O O10 0.625831 0.000000 0.186451
O O11 0.293090 0.500000 0.500000
O O12 0.250000 0.750000 0.500000
O O13 0.333120 0.723976 0.560468
O O14 0.750000 0.250000 0.758226
O O15 0.821379 0.206868 0.680264
O O16 0.794889 0.000000 0.760981
O O17 0.371206 0.500000 0.621314
#
# Coordination Sequence:
#
# PCOD8267778 Si02
#       6
#    16  16  16   8  16  16
#     4   9  17  29  46  68  93 121 153 186 218 256
#     4   8  13  22  40  68  97 121 147 180 217 259
#     4   9  16  27  45  68  93 120 149 183 222 261
#     4  10  20  34  51  70  91 115 146 183 225 272
#     4  10  19  31  47  67  90 115 146 184 225 267
#     4   9  19  33  48  68  92 117 146 181 222 269
#
# _framework density 16.604500999999999
#
# number of rings (size 3 to 8) (size 9 to 14) (size 15 to 20)
#    0.000    2.909    0.000    2.182    0.000    4.000 
#    0.000    0.455    0.000    5.455    0.000    1.273 
#    0.000    0.000    0.000    0.000    0.000    0.000 
#
# Total GULP energy -545550.203312 kJ/mol
# GULP energy per Si atom -12398.868257 kJ/mol
# Density = 1.656671 g / cm^3
# Si number density = 16.604501 Si / 1000 Ang^3
#
#
#
# Elastic Constant Matrix: (Units=GPa)
#
#
# Indices 1 2 3 4 5 6 
#
# 1 161.1821 56.2084 81.3597 0.0000 0.0000 0.0000
# 2 56.2084 45.5346 37.5856 0.0000 0.0000 0.0000
# 3 81.3597 37.5856 131.5641 0.0000 0.0000 0.0000
# 4 0.0000 0.0000 0.0000 16.5351 0.0000 0.0000
# 5 0.0000 0.0000 0.0000 0.0000 24.0709 0.0000
# 6 0.0000 0.0000 0.0000 0.0000 0.0000 28.7614
#
#
#
# Elastic Compliance Matrix: (Units=1/GPa)
#
#
# Indices 1 2 3 4 5 6 
#
# 1 0.012557 -0.011896 -0.004367 0.000000 0.000000 0.000000
# 2 -0.011896 0.040008 -0.004073 0.000000 0.000000 0.000000
# 3 -0.004367 -0.004073 0.011465 0.000000 0.000000 0.000000
# 4 0.000000 0.000000 0.000000 0.060478 0.000000 0.000000
# 5 0.000000 0.000000 0.000000 0.000000 0.041544 0.000000
# 6 0.000000 0.000000 0.000000 0.000000 0.000000 0.034769
#
#
# Mechanical properties :
#
#
# Convention : Reuss Voigt Hill
#
# Bulk Modulus (GPa) = 42.81173 76.50980 59.66076
# Shear Modulus (GPa) = 20.05803 24.74860 22.40332
#
# Velocity S-wave (km/s) = 3.47938 3.86486 3.67717
# Velocity P-wave (km/s) = 6.47925 8.12982 7.35101
#
# Compressibility (1/GPa) = 0.02335809
#
# Stress axis : x y z
#
# Youngs Moduli (GPa) = 79.63886 24.99521 87.22297
#
# Poissons Ratio (x) = 0.29734 0.38088
# Poissons Ratio (y) = 0.94736 0.35527
# Poissons Ratio (z) = 0.34776 0.10181
#
# Static dielectric constant tensor:
#      x y z
#    x 3.161220 0.000000 0.000000 
#    y 0.000000 2.924730 0.000000 
#    z 0.000000 0.000000 3.275870 
# 
# 
# High freq. dielectric constant tensor:
#      x y z
#    x 1.638630 0.000000 0.000000 
#    y 0.000000 1.619690 0.000000 
#    z 0.000000 0.000000 1.633340 
# 
# From -- ./inp_files/60278.got.cif
#   From: 2010.03.12/outbox.cif.g09.slc.cpg/sg65_31_cif.got.tgz:60278.got - 2010.04.10 20:52:16.
