data_PCOD8267511
_publ_section_title
;
Structure prediction by ZEFSAII (Michael W. Deem and Ramdas Pophale) SiO2 
 PCOD8267511
Probable space group: C M M M
;
_chemical_formula_sum "Si O2"
_cell_formula_units_Z 72
_cell_length_a 27.575321
_cell_length_b 9.644649
_cell_length_c 16.969184
_cell_angle_alpha 90.000000
_cell_angle_beta 90.000000
_cell_angle_gamma 90.000000
_cell_volume 4513.027318
_symmetry_space_group_name_H-M "C M M M"
_symmetry_group_IT_number 65
_symmetry_cell_setting 'orthorhombic'
loop_
_space_group_symop_operation_xyz
x,y,z
-x,-y,z
x,-y,-z
-x,y,-z
-x,-y,-z
x,y,-z
-x,y,z
x,-y,z
1/2+x,1/2+y,z
1/2-x,1/2-y,z
1/2+x,1/2-y,-z
1/2-x,1/2+y,-z
1/2-x,1/2-y,-z
1/2+x,1/2+y,-z
1/2-x,1/2+y,z
1/2+x,1/2-y,z
loop_
_atom_site_type_symbol
_atom_site_label
_atom_site_fract_x
_atom_site_fract_y
_atom_site_fract_z
Si Si1 0.053377 0.837039 0.000000
Si Si2 0.386173 0.666865 0.848285
Si Si3 0.057454 0.754713 0.306964
Si Si4 0.298642 0.836588 0.091169
Si Si5 0.442611 0.000000 0.589397
Si Si6 0.442662 0.500000 0.414063
O O1 0.081793 0.790118 0.077155
O O2 0.000000 0.767353 0.000000
O O3 0.047436 0.000000 0.000000
O O4 0.376856 0.500000 0.843690
O O5 0.414806 0.726087 0.774134
O O6 0.337037 0.755069 0.854655
O O7 0.075185 0.624462 0.356520
O O8 0.075465 0.871220 0.365541
O O9 0.000000 0.756522 0.289261
O O10 0.250000 0.750000 0.105111
O O11 0.293216 0.000000 0.115414
O O12 0.314367 0.826808 0.000000
O O13 0.500000 0.000000 0.579626
O O14 0.420339 0.000000 0.500000
O O15 0.500000 0.500000 0.423576
O O16 0.418069 0.500000 0.500000
#
# Coordination Sequence:
#
# PCOD8267511 Si02
#       6
#     8  16  16  16   8   8
#     4   9  18  30  46  67  98 143 182 209 234 283
#     4  11  20  32  50  74 104 137 177 213 254 299
#     4  10  19  30  46  71 103 139 176 217 253 297
#     4  10  21  37  57  77  99 127 167 215 266 311
#     4   9  18  32  48  67  96 137 178 215 264 313
#     4   9  16  28  46  67  94 131 174 217 258 295
#
# _framework density 15.953815000000001
#
# number of rings (size 3 to 8) (size 9 to 14) (size 15 to 20)
#    0.000    2.111    2.222    2.000    1.556    4.444 
#    0.000    0.000    0.000    0.667    0.000    0.000 
#    0.000    5.333    0.000    0.000    0.000    0.000 
#
# Total GULP energy -446037.323244 kJ/mol
# GULP energy per Si atom -12389.925646 kJ/mol
# Density = 1.591750 g / cm^3
# Si number density = 15.953815 Si / 1000 Ang^3
#
#
#
# Elastic Constant Matrix: (Units=GPa)
#
#
# Indices 1 2 3 4 5 6 
#
# 1 72.1678 46.2413 50.5252 0.0000 0.0000 0.0000
# 2 46.2413 137.2543 66.7752 0.0000 0.0000 0.0000
# 3 50.5252 66.7752 151.0532 0.0000 0.0000 0.0000
# 4 0.0000 0.0000 0.0000 26.1485 0.0000 0.0000
# 5 0.0000 0.0000 0.0000 0.0000 -1.3712 0.0000
# 6 0.0000 0.0000 0.0000 0.0000 0.0000 25.1376
#
#
#
# Elastic Compliance Matrix: (Units=1/GPa)
#
#
# Indices 1 2 3 4 5 6 
#
# 1 0.020015 -0.004441 -0.004731 0.000000 0.000000 0.000000
# 2 -0.004441 0.010267 -0.003053 0.000000 0.000000 0.000000
# 3 -0.004731 -0.003053 0.009553 0.000000 0.000000 0.000000
# 4 0.000000 0.000000 0.000000 0.038243 0.000000 0.000000
# 5 0.000000 0.000000 0.000000 0.000000 -0.729280 0.000000
# 6 0.000000 0.000000 0.000000 0.000000 0.000000 0.039781
#
#
# Mechanical properties :
#
#
# Convention : Reuss Voigt Hill
#
# Bulk Modulus (GPa) = 65.00709 76.39540 70.70124
# Shear Modulus (GPa) = -8.59340 23.11188 7.25924
#
# Velocity S-wave (km/s) = -2.32339 3.81027 2.13542
# Velocity P-wave (km/s) = 5.79983 8.20652 7.10580
#
# Compressibility (1/GPa) = 0.01538294
#
# Stress axis : x y z
#
# Youngs Moduli (GPa) = 49.96324 97.39502 104.68415
#
# Poissons Ratio (x) = 0.43255 0.49530
# Poissons Ratio (y) = 0.22189 0.31964
# Poissons Ratio (z) = 0.23639 0.29738
#
# Static dielectric constant tensor:
#      x y z
#    x 2.793840 0.000000 0.000000 
#    y 0.000000 3.388380 0.000000 
#    z 0.000000 0.000000 3.171140 
# 
# 
# High freq. dielectric constant tensor:
#      x y z
#    x 1.574930 0.000000 0.000000 
#    y 0.000000 1.623930 0.000000 
#    z 0.000000 0.000000 1.615390 
# 
# From -- ./inp_files/57180.got.cif
#   From: 2010.03.12/outbox.cif.g09.slc.cpg/sg65_29_cif.got.tgz:57180.got - 2010.04.10 20:52:16.
