data_PCOD8267735
_publ_section_title
;
Structure prediction by ZEFSAII (Michael W. Deem and Ramdas Pophale) SiO2 
 PCOD8267735
Probable space group: C M M M
;
_chemical_formula_sum "Si O2"
_cell_formula_units_Z 80
_cell_length_a 9.806529
_cell_length_b 27.403266
_cell_length_c 19.745233
_cell_angle_alpha 90.000000
_cell_angle_beta 90.000000
_cell_angle_gamma 90.000000
_cell_volume 5306.154683
_symmetry_space_group_name_H-M "C M M M"
_symmetry_group_IT_number 65
_symmetry_cell_setting 'orthorhombic'
loop_
_space_group_symop_operation_xyz
x,y,z
-x,-y,z
x,-y,-z
-x,y,-z
-x,-y,-z
x,y,-z
-x,y,z
x,-y,z
1/2+x,1/2+y,z
1/2-x,1/2-y,z
1/2+x,1/2-y,-z
1/2-x,1/2+y,-z
1/2-x,1/2-y,-z
1/2+x,1/2+y,-z
1/2-x,1/2+y,z
1/2+x,1/2-y,z
loop_
_atom_site_type_symbol
_atom_site_label
_atom_site_fract_x
_atom_site_fract_y
_atom_site_fract_z
Si Si1 0.652756 0.941966 0.075735
Si Si2 0.654723 0.944068 0.684586
Si Si3 0.720455 0.135490 0.420162
Si Si4 0.500000 0.788020 0.420119
Si Si5 0.000000 0.179759 0.419892
Si Si6 0.844950 0.941902 0.193537
O O1 0.500000 0.923468 0.094669
O O2 0.765410 0.920910 0.127730
O O3 0.653385 0.000000 0.079017
O O4 0.691640 0.924338 0.000000
O O5 0.500000 0.938976 0.712404
O O6 0.671613 0.913393 0.616257
O O7 0.760464 0.924492 0.740806
O O8 0.686930 0.000000 0.665929
O O9 0.706533 0.125788 0.500000
O O10 0.632243 0.182011 0.396884
O O11 0.871879 0.148260 0.396302
O O12 0.500000 0.781936 0.500000
O O13 0.500000 0.734051 0.386833
O O14 0.000000 0.186308 0.500000
O O15 0.000000 0.921290 0.195473
O O16 0.847774 0.000000 0.190889
#
# Coordination Sequence:
#
# PCOD8267735 Si02
#       6
#    16  16  16   8   8  16
#     4   8  13  22  37  56  77 101 132 171 210 247
#     4  10  20  32  44  57  79 114 151 184 213 246
#     4  10  19  31  46  66  85 106 140 177 216 262
#     4   9  16  30  49  67  85 103 129 168 214 268
#     4   9  18  30  47  67  87 105 123 164 224 274
#     4   9  17  27  39  55  76 105 141 178 212 247
#
# _framework density 15.076832
#
# number of rings (size 3 to 8) (size 9 to 14) (size 15 to 20)
#    0.000    2.800    1.000    1.800    1.400    5.600 
#    0.000    3.000    0.000    1.800    0.000    0.000 
#    0.000    0.000    0.000    0.000    0.000    6.000 
#
# Total GULP energy -495782.367183 kJ/mol
# GULP energy per Si atom -12394.559180 kJ/mol
# Density = 1.504252 g / cm^3
# Si number density = 15.076832 Si / 1000 Ang^3
#
#
#
# Elastic Constant Matrix: (Units=GPa)
#
#
# Indices 1 2 3 4 5 6 
#
# 1 122.5010 22.6350 42.8736 0.0000 0.0000 0.0000
# 2 22.6350 42.4793 25.0863 0.0000 0.0000 0.0000
# 3 42.8736 25.0863 70.0812 0.0000 0.0000 0.0000
# 4 0.0000 0.0000 0.0000 1.6249 0.0000 0.0000
# 5 0.0000 0.0000 0.0000 0.0000 22.7533 0.0000
# 6 0.0000 0.0000 0.0000 0.0000 0.0000 16.7210
#
#
#
# Elastic Compliance Matrix: (Units=1/GPa)
#
#
# Indices 1 2 3 4 5 6 
#
# 1 0.010561 -0.002298 -0.005639 0.000000 0.000000 0.000000
# 2 -0.002298 0.030351 -0.009459 0.000000 0.000000 0.000000
# 3 -0.005639 -0.009459 0.021105 0.000000 0.000000 0.000000
# 4 0.000000 0.000000 0.000000 0.615422 0.000000 0.000000
# 5 0.000000 0.000000 0.000000 0.000000 0.043950 0.000000
# 6 0.000000 0.000000 0.000000 0.000000 0.000000 0.059805
#
#
# Mechanical properties :
#
#
# Convention : Reuss Voigt Hill
#
# Bulk Modulus (GPa) = 36.72860 46.25015 41.48938
# Shear Modulus (GPa) = 6.06017 17.85094 11.95556
#
# Velocity S-wave (km/s) = 2.00705 3.44466 2.81904
# Velocity P-wave (km/s) = 5.45755 6.82377 6.17854
#
# Compressibility (1/GPa) = 0.02722674
#
# Stress axis : x y z
#
# Youngs Moduli (GPa) = 94.68671 32.94766 47.38315
#
# Poissons Ratio (x) = 0.07570 0.26717
# Poissons Ratio (y) = 0.21756 0.44819
# Poissons Ratio (z) = 0.53389 0.31165
#
# Static dielectric constant tensor:
#      x y z
#    x 3.260230 0.000000 0.000000 
#    y 0.000000 2.528640 0.000000 
#    z 0.000000 0.000000 2.791810 
# 
# 
# High freq. dielectric constant tensor:
#      x y z
#    x 1.598750 0.000000 0.000000 
#    y 0.000000 1.522940 0.000000 
#    z 0.000000 0.000000 1.554100 
# 
# From -- ./inp_files/60089.got.cif
#   From: 2010.03.12/outbox.cif.g09.slc.cpg/sg65_31_cif.got.tgz:60089.got - 2010.04.10 20:52:16.
