data_PCOD8267348
_publ_section_title
;
Structure prediction by ZEFSAII (Michael W. Deem and Ramdas Pophale) SiO2 
 PCOD8267348
Probable space group: C M M M
;
_chemical_formula_sum "Si O2"
_cell_formula_units_Z 88
_cell_length_a 29.053390
_cell_length_b 8.969616
_cell_length_c 20.739724
_cell_angle_alpha 90.000000
_cell_angle_beta 90.000000
_cell_angle_gamma 90.000000
_cell_volume 5404.725447
_symmetry_space_group_name_H-M "C M M M"
_symmetry_group_IT_number 65
_symmetry_cell_setting 'orthorhombic'
loop_
_space_group_symop_operation_xyz
x,y,z
-x,-y,z
x,-y,-z
-x,y,-z
-x,-y,-z
x,y,-z
-x,y,z
x,-y,z
1/2+x,1/2+y,z
1/2-x,1/2-y,z
1/2+x,1/2-y,-z
1/2-x,1/2+y,-z
1/2-x,1/2-y,-z
1/2+x,1/2+y,-z
1/2-x,1/2+y,z
1/2+x,1/2-y,z
loop_
_atom_site_type_symbol
_atom_site_label
_atom_site_fract_x
_atom_site_fract_y
_atom_site_fract_z
Si Si1 0.855347 0.827814 0.820025
Si Si2 0.799976 0.176982 0.305089
Si Si3 0.554457 0.164348 0.000000
Si Si4 0.702302 0.174399 0.926493
Si Si5 0.299408 0.174634 0.569975
Si Si6 0.449029 0.671919 0.872489
O O1 0.833062 0.774587 0.753203
O O2 0.836936 0.732465 0.879406
O O3 0.910911 0.802730 0.816494
O O4 0.843369 0.000000 0.832925
O O5 0.750000 0.250000 0.293938
O O6 0.824425 0.243451 0.370006
O O7 0.794892 0.000000 0.310966
O O8 0.570572 0.247517 0.935856
O O9 0.500000 0.154479 0.000000
O O10 0.577072 0.000000 0.000000
O O11 0.750000 0.250000 0.906614
O O12 0.708701 0.000000 0.916933
O O13 0.688511 0.214588 0.000000
O O14 0.324357 0.198278 0.500000
O O15 0.250000 0.250000 0.565895
O O16 0.294164 0.000000 0.585115
O O17 0.500000 0.731064 0.850942
O O18 0.452972 0.500000 0.890850
#
# Coordination Sequence:
#
# PCOD8267348 Si02
#       6
#    16  16   8  16  16  16
#     4  10  21  33  47  67  89 117 151 187 226 271
#     4  10  19  30  44  64  91 120 151 182 216 257
#     4   9  17  29  45  65  86 105 132 177 229 275
#     4  10  21  35  49  65  85 113 150 189 228 268
#     4   9  16  26  42  64  89 118 150 179 210 250
#     4   9  18  33  50  66  86 114 147 183 227 278
#
# _framework density 16.282046999999999
#
# number of rings (size 3 to 8) (size 9 to 14) (size 15 to 20)
#    0.000    2.455    0.000    3.545    1.273    6.909 
#    0.000    0.000    0.000    0.000    0.000    0.000 
#    0.000    0.727    0.000    9.091    0.000    1.455 
#
# Total GULP energy -545258.379140 kJ/mol
# GULP energy per Si atom -12392.235890 kJ/mol
# Density = 1.624499 g / cm^3
# Si number density = 16.282047 Si / 1000 Ang^3
#
#
#
# Elastic Constant Matrix: (Units=GPa)
#
#
# Indices 1 2 3 4 5 6 
#
# 1 74.8996 31.2758 59.2717 0.0000 0.0000 0.0000
# 2 31.2758 72.1505 43.1611 0.0000 0.0000 0.0000
# 3 59.2717 43.1611 120.2966 0.0000 0.0000 0.0000
# 4 0.0000 0.0000 0.0000 22.7096 0.0000 0.0000
# 5 0.0000 0.0000 0.0000 0.0000 10.0220 0.0000
# 6 0.0000 0.0000 0.0000 0.0000 0.0000 14.4503
#
#
#
# Elastic Compliance Matrix: (Units=1/GPa)
#
#
# Indices 1 2 3 4 5 6 
#
# 1 0.022765 -0.004021 -0.009774 0.000000 0.000000 0.000000
# 2 -0.004021 0.018358 -0.004605 0.000000 0.000000 0.000000
# 3 -0.009774 -0.004605 0.014781 0.000000 0.000000 0.000000
# 4 0.000000 0.000000 0.000000 0.044034 0.000000 0.000000
# 5 0.000000 0.000000 0.000000 0.000000 0.099780 0.000000
# 6 0.000000 0.000000 0.000000 0.000000 0.000000 0.069203
#
#
# Mechanical properties :
#
#
# Convention : Reuss Voigt Hill
#
# Bulk Modulus (GPa) = 52.34815 59.41821 55.88318
# Shear Modulus (GPa) = 16.02105 18.34559 17.18332
#
# Velocity S-wave (km/s) = 3.14023 3.36033 3.25215
# Velocity P-wave (km/s) = 6.73563 7.18527 6.96408
#
# Compressibility (1/GPa) = 0.01910287
#
# Stress axis : x y z
#
# Youngs Moduli (GPa) = 43.92742 54.47213 67.65569
#
# Poissons Ratio (x) = 0.21905 0.66125
# Poissons Ratio (y) = 0.17665 0.31157
# Poissons Ratio (z) = 0.42933 0.25086
#
# Static dielectric constant tensor:
#      x y z
#    x 2.949840 0.000000 0.000000 
#    y 0.000000 3.214330 0.000000 
#    z 0.000000 0.000000 3.530610 
# 
# 
# High freq. dielectric constant tensor:
#      x y z
#    x 1.591010 0.000000 0.000000 
#    y 0.000000 1.638820 0.000000 
#    z 0.000000 0.000000 1.617320 
# 
# From -- ./inp_files/66250.got.cif
#   From: 2010.03.12/outbox.cif.g09.slc.cpg/sg65_34_cif.got.tgz:66250.got - 2010.04.10 20:52:16.
