data_PCOD8267721
_publ_section_title
;
Structure prediction by ZEFSAII (Michael W. Deem and Ramdas Pophale) SiO2 
 PCOD8267721
Probable space group: C M M M
;
_chemical_formula_sum "Si O2"
_cell_formula_units_Z 96
_cell_length_a 27.643166
_cell_length_b 8.705769
_cell_length_c 23.824351
_cell_angle_alpha 90.000000
_cell_angle_beta 90.000000
_cell_angle_gamma 90.000000
_cell_volume 5733.449610
_symmetry_space_group_name_H-M "C M M M"
_symmetry_group_IT_number 65
_symmetry_cell_setting 'orthorhombic'
loop_
_space_group_symop_operation_xyz
x,y,z
-x,-y,z
x,-y,-z
-x,y,-z
-x,-y,-z
x,y,-z
-x,y,z
x,-y,z
1/2+x,1/2+y,z
1/2-x,1/2-y,z
1/2+x,1/2-y,-z
1/2-x,1/2+y,-z
1/2-x,1/2-y,-z
1/2+x,1/2+y,-z
1/2-x,1/2+y,z
1/2+x,1/2-y,z
loop_
_atom_site_type_symbol
_atom_site_label
_atom_site_fract_x
_atom_site_fract_y
_atom_site_fract_z
Si Si1 0.393719 0.681266 0.169807
Si Si2 0.144098 0.680948 0.337384
Si Si3 0.945370 0.817048 0.061736
Si Si4 0.055099 0.180932 0.718460
Si Si5 0.198676 0.818010 0.765890
Si Si6 0.198657 0.179498 0.564739
O O1 0.394717 0.500000 0.164210
O O2 0.410612 0.753487 0.110215
O O3 0.431006 0.732196 0.218437
O O4 0.339701 0.735519 0.186409
O O5 0.149014 0.500000 0.333101
O O6 0.089055 0.731113 0.325468
O O7 0.181782 0.756479 0.294222
O O8 0.156973 0.738416 0.399529
O O9 0.000000 0.759144 0.072507
O O10 0.944629 0.000000 0.063961
O O11 0.927591 0.761259 0.000000
O O12 0.000000 0.228121 0.706418
O O13 0.063628 0.000000 0.710998
O O14 0.250000 0.750000 0.783543
O O15 0.201921 0.000000 0.761834
O O16 0.186733 0.213014 0.500000
O O17 0.250000 0.250000 0.581965
O O18 0.199789 0.000000 0.578165
#
# Coordination Sequence:
#
# PCOD8267721 Si02
#       6
#    16  16  16  16  16  16
#     4   8  14  24  39  60  86 117 150 184 225 271
#     4  11  21  32  48  70  97 124 151 186 227 272
#     4   8  12  18  32  57  87 115 143 179 224 271
#     4   9  17  30  48  68  92 123 157 191 227 270
#     4  10  19  31  46  64  88 118 153 190 229 274
#     4  10  20  34  52  73  97 124 154 187 224 268
#
# _framework density 16.743846000000001
#
# number of rings (size 3 to 8) (size 9 to 14) (size 15 to 20)
#    0.000    2.667    0.000    5.000    0.000    3.333 
#    0.000    0.000    0.000    1.000    0.000    3.500 
#    0.000   16.000    0.000   53.500    0.000   49.000 
#
# Total GULP energy -595055.806512 kJ/mol
# GULP energy per Si atom -12396.995969 kJ/mol
# Density = 1.670574 g / cm^3
# Si number density = 16.743846 Si / 1000 Ang^3
#
#
#
# Elastic Constant Matrix: (Units=GPa)
#
#
# Indices 1 2 3 4 5 6 
#
# 1 124.9828 38.5533 72.4038 0.0000 0.0000 0.0000
# 2 38.5533 62.8379 34.1079 0.0000 0.0000 0.0000
# 3 72.4038 34.1079 116.7970 0.0000 0.0000 0.0000
# 4 0.0000 0.0000 0.0000 9.4484 0.0000 0.0000
# 5 0.0000 0.0000 0.0000 0.0000 29.0785 0.0000
# 6 0.0000 0.0000 0.0000 0.0000 0.0000 24.3884
#
#
#
# Elastic Compliance Matrix: (Units=1/GPa)
#
#
# Indices 1 2 3 4 5 6 
#
# 1 0.013447 -0.004427 -0.007043 0.000000 0.000000 0.000000
# 2 -0.004427 0.020369 -0.003204 0.000000 0.000000 0.000000
# 3 -0.007043 -0.003204 0.013863 0.000000 0.000000 0.000000
# 4 0.000000 0.000000 0.000000 0.105838 0.000000 0.000000
# 5 0.000000 0.000000 0.000000 0.000000 0.034390 0.000000
# 6 0.000000 0.000000 0.000000 0.000000 0.000000 0.041003
#
#
# Mechanical properties :
#
#
# Convention : Reuss Voigt Hill
#
# Bulk Modulus (GPa) = 54.55117 66.08309 60.31713
# Shear Modulus (GPa) = 18.91295 23.21990 21.06643
#
# Velocity S-wave (km/s) = 3.36452 3.72798 3.55090
# Velocity P-wave (km/s) = 6.90969 7.62123 7.27417
#
# Compressibility (1/GPa) = 0.01833141
#
# Stress axis : x y z
#
# Youngs Moduli (GPa) = 74.36696 49.09355 72.13188
#
# Poissons Ratio (x) = 0.21735 0.50802
# Poissons Ratio (y) = 0.32924 0.23110
# Poissons Ratio (z) = 0.52376 0.15729
#
# Static dielectric constant tensor:
#      x y z
#    x 3.208220 0.000000 0.000000 
#    y 0.000000 2.900450 0.000000 
#    z 0.000000 0.000000 3.338290 
# 
# 
# High freq. dielectric constant tensor:
#      x y z
#    x 1.637800 0.000000 0.000000 
#    y 0.000000 1.623400 0.000000 
#    z 0.000000 0.000000 1.638880 
# 
# From -- ./inp_files/68015.got.cif
#   From: 2010.03.12/outbox.cif.g09.slc.cpg/sg65_35_cif.got.tgz:68015.got - 2010.04.10 20:52:16.
