data_PCOD8267366
_publ_section_title
;
Structure prediction by ZEFSAII (Michael W. Deem and Ramdas Pophale) SiO2 
 PCOD8267366
Probable space group: C M M M
;
_chemical_formula_sum "Si O2"
_cell_formula_units_Z 96
_cell_length_a 9.851682
_cell_length_b 26.834609
_cell_length_c 24.383464
_cell_angle_alpha 90.000000
_cell_angle_beta 90.000000
_cell_angle_gamma 90.000000
_cell_volume 6446.159684
_symmetry_space_group_name_H-M "C M M M"
_symmetry_group_IT_number 65
_symmetry_cell_setting 'orthorhombic'
loop_
_space_group_symop_operation_xyz
x,y,z
-x,-y,z
x,-y,-z
-x,y,-z
-x,-y,-z
x,y,-z
-x,y,z
x,-y,z
1/2+x,1/2+y,z
1/2-x,1/2-y,z
1/2+x,1/2-y,-z
1/2-x,1/2+y,-z
1/2-x,1/2-y,-z
1/2+x,1/2+y,-z
1/2-x,1/2+y,z
1/2+x,1/2-y,z
loop_
_atom_site_type_symbol
_atom_site_label
_atom_site_fract_x
_atom_site_fract_y
_atom_site_fract_z
Si Si1 0.153772 0.108332 0.632374
Si Si2 0.853771 0.557841 0.440830
Si Si3 0.653731 0.058971 0.155539
Si Si4 0.847967 0.059270 0.938565
Si Si5 0.343499 0.703183 0.437189
Si Si6 0.654358 0.442521 0.744610
O O1 0.241719 0.066411 0.604173
O O2 0.198706 0.162012 0.608416
O O3 0.173996 0.098915 0.697050
O O4 0.000000 0.098540 0.614981
O O5 0.811289 0.580856 0.500000
O O6 0.871431 0.500000 0.447614
O O7 0.000000 0.580817 0.422939
O O8 0.500000 0.081040 0.157764
O O9 0.735759 0.081257 0.103330
O O10 0.737784 0.073700 0.209572
O O11 0.645620 0.000000 0.150295
O O12 0.000000 0.078425 0.923540
O O13 0.847921 0.000000 0.935119
O O14 0.808906 0.076735 0.000000
O O15 0.319220 0.684384 0.500000
O O16 0.500000 0.718777 0.429318
O O17 0.250000 0.750000 0.423925
O O18 0.500000 0.439042 0.767520
O O19 0.680931 0.500000 0.725117
#
# Coordination Sequence:
#
# PCOD8267366 Si02
#       6
#    16  16  16  16  16  16
#     4  10  19  30  45  63  79  98 129 165 196 229
#     4   9  18  30  41  56  80 106 128 152 187 231
#     4   9  16  24  34  49  70  97 129 164 198 229
#     4   8  13  21  33  48  66  91 125 164 203 237
#     4   9  18  32  48  65  83 100 121 154 197 244
#     4   9  17  28  40  54  75 103 132 161 194 231
#
# _framework density 14.892587000000001
#
# number of rings (size 3 to 8) (size 9 to 14) (size 15 to 20)
#    0.000    3.000    0.000    2.500    0.000    5.667 
#    0.000    5.833    0.000    0.000    0.000    0.000 
#    0.000    0.000    0.000    0.000    0.000    0.833 
#
# Total GULP energy -594640.800425 kJ/mol
# GULP energy per Si atom -12388.350009 kJ/mol
# Density = 1.485869 g / cm^3
# Si number density = 14.892587 Si / 1000 Ang^3
#
#
#
# Elastic Constant Matrix: (Units=GPa)
#
#
# Indices 1 2 3 4 5 6 
#
# 1 104.6104 27.8024 70.0950 0.0000 0.0000 0.0000
# 2 27.8024 36.1929 31.8147 0.0000 0.0000 0.0000
# 3 70.0950 31.8147 101.3514 0.0000 0.0000 0.0000
# 4 0.0000 0.0000 0.0000 9.2400 0.0000 0.0000
# 5 0.0000 0.0000 0.0000 0.0000 35.5465 0.0000
# 6 0.0000 0.0000 0.0000 0.0000 0.0000 14.8440
#
#
#
# Elastic Compliance Matrix: (Units=1/GPa)
#
#
# Indices 1 2 3 4 5 6 
#
# 1 0.018232 -0.004035 -0.011343 0.000000 0.000000 0.000000
# 2 -0.004035 0.039052 -0.009468 0.000000 0.000000 0.000000
# 3 -0.011343 -0.009468 0.020683 0.000000 0.000000 0.000000
# 4 0.000000 0.000000 0.000000 0.108225 0.000000 0.000000
# 5 0.000000 0.000000 0.000000 0.000000 0.028132 0.000000
# 6 0.000000 0.000000 0.000000 0.000000 0.000000 0.067367
#
#
# Mechanical properties :
#
#
# Convention : Reuss Voigt Hill
#
# Bulk Modulus (GPa) = 35.36558 55.73097 45.54827
# Shear Modulus (GPa) = 14.67101 19.42228 17.04665
#
# Velocity S-wave (km/s) = 3.14207 3.61523 3.38692
# Velocity P-wave (km/s) = 6.07965 7.41146 6.77834
#
# Compressibility (1/GPa) = 0.02827608
#
# Stress axis : x y z
#
# Youngs Moduli (GPa) = 54.84916 25.60697 48.34783
#
# Poissons Ratio (x) = 0.10331 0.54840
# Poissons Ratio (y) = 0.22129 0.45777
# Poissons Ratio (z) = 0.62214 0.24245
#
# Static dielectric constant tensor:
#      x y z
#    x 3.187530 0.000000 0.000000 
#    y 0.000000 2.379770 0.000000 
#    z 0.000000 0.000000 2.950280 
# 
# 
# High freq. dielectric constant tensor:
#      x y z
#    x 1.585990 0.000000 0.000000 
#    y 0.000000 1.501020 0.000000 
#    z 0.000000 0.000000 1.566250 
# 
# From -- ./inp_files/73699.got.cif
#   From: 2010.03.12/outbox.cif.g09.slc.cpg/sg65_37_cif.got.tgz:73699.got - 2010.04.10 20:52:16.
