data_PCOD8267283
_publ_section_title
;
Structure prediction by ZEFSAII (Michael W. Deem and Ramdas Pophale) SiO2 
 PCOD8267283
Probable space group: C M M M
;
_chemical_formula_sum "Si O2"
_cell_formula_units_Z 80
_cell_length_a 9.081973
_cell_length_b 33.670669
_cell_length_c 18.576624
_cell_angle_alpha 90.000000
_cell_angle_beta 90.000000
_cell_angle_gamma 90.000000
_cell_volume 5680.659296
_symmetry_space_group_name_H-M "C M M M"
_symmetry_group_IT_number 65
_symmetry_cell_setting 'orthorhombic'
loop_
_space_group_symop_operation_xyz
x,y,z
-x,-y,z
x,-y,-z
-x,y,-z
-x,-y,-z
x,y,-z
-x,y,z
x,-y,z
1/2+x,1/2+y,z
1/2-x,1/2-y,z
1/2+x,1/2-y,-z
1/2-x,1/2+y,-z
1/2-x,1/2-y,-z
1/2+x,1/2+y,-z
1/2-x,1/2+y,z
1/2+x,1/2-y,z
loop_
_atom_site_type_symbol
_atom_site_label
_atom_site_fract_x
_atom_site_fract_y
_atom_site_fract_z
Si Si1 0.171256 0.291546 0.575955
Si Si2 0.166259 0.500000 0.914526
Si Si3 0.827894 0.708174 0.000000
Si Si4 0.326974 0.421042 0.083777
Si Si5 0.672796 0.792188 0.731841
Si Si6 0.826420 0.344432 0.135143
O O1 0.210715 0.314925 0.500000
O O2 0.250000 0.250000 0.573516
O O3 0.212838 0.311625 0.652861
O O4 0.000000 0.282362 0.577142
O O5 0.251784 0.538845 0.886882
O O6 0.000000 0.500000 0.883921
O O7 0.165263 0.500000 0.000000
O O8 0.750000 0.750000 0.000000
O O9 0.778450 0.683898 0.930033
O O10 0.000000 0.716327 0.000000
O O11 0.500000 0.424455 0.096653
O O12 0.261325 0.385345 0.130248
O O13 0.289172 0.413969 0.000000
O O14 0.500000 0.784370 0.740487
O O15 0.750000 0.750000 0.743994
O O16 0.725353 0.823600 0.791169
O O17 0.000000 0.353516 0.133013
#
# Coordination Sequence:
#
# PCOD8267283 Si02
#       6
#    16   8   8  16  16  16
#     4   8  13  22  36  53  72  94 122 157 197 238
#     4   9  17  29  47  65  81 101 122 151 194 241
#     4  10  20  30  40  51  68  97 134 172 203 230
#     4  10  19  30  44  62  80  99 127 163 197 233
#     4   9  17  27  39  55  75 101 133 168 202 237
#     4  10  19  30  41  54  75 103 134 166 200 236
#
# _framework density 14.082872999999999
#
# number of rings (size 3 to 8) (size 9 to 14) (size 15 to 20)
#    0.000    2.700    1.000    1.500    0.000    3.600 
#    0.000    0.000    0.000    0.000    0.000    0.000 
#    0.000    0.000    0.000    0.900    0.000   21.200 
#
# Total GULP energy -495576.832698 kJ/mol
# GULP energy per Si atom -12389.420817 kJ/mol
# Density = 1.405082 g / cm^3
# Si number density = 14.082873 Si / 1000 Ang^3
#
#
#
# Elastic Constant Matrix: (Units=GPa)
#
#
# Indices 1 2 3 4 5 6 
#
# 1 45.9719 41.0770 30.1666 0.0000 0.0000 0.0000
# 2 41.0770 103.4413 54.5234 0.0000 0.0000 0.0000
# 3 30.1666 54.5234 123.6655 0.0000 0.0000 0.0000
# 4 0.0000 0.0000 0.0000 5.1401 0.0000 0.0000
# 5 0.0000 0.0000 0.0000 0.0000 9.4292 0.0000
# 6 0.0000 0.0000 0.0000 0.0000 0.0000 25.3348
#
#
#
# Elastic Compliance Matrix: (Units=1/GPa)
#
#
# Indices 1 2 3 4 5 6 
#
# 1 0.034607 -0.012106 -0.003104 0.000000 0.000000 0.000000
# 2 -0.012106 0.016829 -0.004467 0.000000 0.000000 0.000000
# 3 -0.003104 -0.004467 0.010813 0.000000 0.000000 0.000000
# 4 0.000000 0.000000 0.000000 0.194548 0.000000 0.000000
# 5 0.000000 0.000000 0.000000 0.000000 0.106053 0.000000
# 6 0.000000 0.000000 0.000000 0.000000 0.000000 0.039471
#
#
# Mechanical properties :
#
#
# Convention : Reuss Voigt Hill
#
# Bulk Modulus (GPa) = 43.67905 58.29033 50.98469
# Shear Modulus (GPa) = 11.12826 17.80161 14.46493
#
# Velocity S-wave (km/s) = 2.81410 3.55922 3.20836
# Velocity P-wave (km/s) = 6.45305 7.64013 7.07154
#
# Compressibility (1/GPa) = 0.02289427
#
# Stress axis : x y z
#
# Youngs Moduli (GPa) = 28.89622 59.42078 92.48186
#
# Poissons Ratio (x) = 0.71936 0.28709
# Poissons Ratio (y) = 0.34982 0.41309
# Poissons Ratio (z) = 0.08970 0.26542
#
# Static dielectric constant tensor:
#      x y z
#    x 2.207430 0.000000 0.000000 
#    y 0.000000 2.560110 0.000000 
#    z 0.000000 0.000000 3.231930 
# 
# 
# High freq. dielectric constant tensor:
#      x y z
#    x 1.544900 0.000000 0.000000 
#    y 0.000000 1.504330 0.000000 
#    z 0.000000 0.000000 1.527660 
# 
# From -- ./inp_files/60561.got.cif
#   From: 2010.03.12/outbox.cif.g09.slc.cpg/sg65_31_cif.got.tgz:60561.got - 2010.04.10 20:52:16.
