data_PCOD8267500
_publ_section_title
;
Structure prediction by ZEFSAII (Michael W. Deem and Ramdas Pophale) SiO2 
 PCOD8267500
Probable space group: C M M M
;
_chemical_formula_sum "Si O2"
_cell_formula_units_Z 96
_cell_length_a 24.874988
_cell_length_b 14.767597
_cell_length_c 13.637306
_cell_angle_alpha 90.000000
_cell_angle_beta 90.000000
_cell_angle_gamma 90.000000
_cell_volume 5009.579783
_symmetry_space_group_name_H-M "C M M M"
_symmetry_group_IT_number 65
_symmetry_cell_setting 'orthorhombic'
loop_
_space_group_symop_operation_xyz
x,y,z
-x,-y,z
x,-y,-z
-x,y,-z
-x,-y,-z
x,y,-z
-x,y,z
x,-y,z
1/2+x,1/2+y,z
1/2-x,1/2-y,z
1/2+x,1/2-y,-z
1/2-x,1/2+y,-z
1/2-x,1/2-y,-z
1/2+x,1/2+y,-z
1/2-x,1/2+y,z
1/2+x,1/2-y,z
loop_
_atom_site_type_symbol
_atom_site_label
_atom_site_fract_x
_atom_site_fract_y
_atom_site_fract_z
Si Si1 0.309974 0.399684 0.890006
Si Si2 0.692828 0.200330 0.612028
Si Si3 0.919786 0.251019 0.684641
Si Si4 0.500000 0.898333 0.613740
Si Si5 0.700993 0.103255 0.198151
Si Si6 0.383463 0.765554 0.890079
Si Si7 0.500000 0.604680 0.383594
O O1 0.329326 0.500000 0.859133
O O2 0.261994 0.365497 0.820807
O O3 0.360440 0.335089 0.880324
O O4 0.286909 0.399384 0.000000
O O5 0.685143 0.167981 0.500000
O O6 0.750000 0.250000 0.623770
O O7 0.641678 0.261210 0.646334
O O8 0.690877 0.115121 0.685571
O O9 0.947035 0.340173 0.638938
O O10 0.926325 0.269343 0.801965
O O11 0.947815 0.156831 0.656509
O O12 0.500000 0.914914 0.500000
O O13 0.500000 0.000000 0.663383
O O14 0.662538 0.160871 0.128434
O O15 0.691746 0.000000 0.168321
O O16 0.407887 0.780668 0.000000
O O17 0.500000 0.500000 0.347837
O O18 0.500000 0.609888 0.500000
#
# Coordination Sequence:
#
# PCOD8267500 Si02
#       7
#    16  16  16   8  16  16   8
#     4   9  17  30  49  72  99 137 187 233 266 305
#     4  10  20  34  53  79 114 152 183 217 272 340
#     4  10  20  37  59  83 112 142 181 231 274 320
#     4  10  21  39  64  86 102 132 184 239 279 310
#     4  10  19  30  46  70 103 146 192 230 264 311
#     4  10  20  33  51  76 107 142 178 221 276 331
#     4  10  21  39  64  88 108 138 184 235 279 316
#
# _framework density 19.163284000000001
#
# number of rings (size 3 to 8) (size 9 to 14) (size 15 to 20)
#    0.000    2.167    0.000    5.000    0.000    6.000 
#    0.000    2.500    0.000    2.000    0.000    0.000 
#    0.000    0.000    0.000    0.000    0.000    0.000 
#
# Total GULP energy -594817.518551 kJ/mol
# GULP energy per Si atom -12392.031636 kJ/mol
# Density = 1.911967 g / cm^3
# Si number density = 19.163284 Si / 1000 Ang^3
#
#
#
# Elastic Constant Matrix: (Units=GPa)
#
#
# Indices 1 2 3 4 5 6 
#
# 1 91.1288 31.7101 22.8890 0.0000 0.0000 0.0000
# 2 31.7101 99.8457 22.4427 0.0000 0.0000 0.0000
# 3 22.8890 22.4427 117.5143 0.0000 0.0000 0.0000
# 4 0.0000 0.0000 0.0000 26.1083 0.0000 0.0000
# 5 0.0000 0.0000 0.0000 0.0000 25.8014 0.0000
# 6 0.0000 0.0000 0.0000 0.0000 0.0000 1.7921
#
#
#
# Elastic Compliance Matrix: (Units=1/GPa)
#
#
# Indices 1 2 3 4 5 6 
#
# 1 0.012682 -0.003628 -0.001777 0.000000 0.000000 0.000000
# 2 -0.003628 0.011503 -0.001490 0.000000 0.000000 0.000000
# 3 -0.001777 -0.001490 0.009140 0.000000 0.000000 0.000000
# 4 0.000000 0.000000 0.000000 0.038302 0.000000 0.000000
# 5 0.000000 0.000000 0.000000 0.000000 0.038758 0.000000
# 6 0.000000 0.000000 0.000000 0.000000 0.000000 0.558018
#
#
# Mechanical properties :
#
#
# Convention : Reuss Voigt Hill
#
# Bulk Modulus (GPa) = 51.19253 51.39693 51.29473
# Shear Modulus (GPa) = 7.25999 26.17016 16.71508
#
# Velocity S-wave (km/s) = 1.94852 3.69947 2.95658
# Velocity P-wave (km/s) = 5.64218 6.71765 6.20326
#
# Compressibility (1/GPa) = 0.01953410
#
# Stress axis : x y z
#
# Youngs Moduli (GPa) = 78.84915 86.93608 109.40500
#
# Poissons Ratio (x) = 0.31543 0.19445
# Poissons Ratio (y) = 0.28609 0.16302
# Poissons Ratio (z) = 0.14014 0.12954
#
# Static dielectric constant tensor:
#      x y z
#    x 3.359100 0.000000 0.000000 
#    y 0.000000 3.521370 0.000000 
#    z 0.000000 0.000000 3.808130 
# 
# 
# High freq. dielectric constant tensor:
#      x y z
#    x 1.724620 0.000000 0.000000 
#    y 0.000000 1.740020 0.000000 
#    z 0.000000 0.000000 1.757610 
# 
# From -- ./inp_files/45680.got.cif
#   From: 2010.03.12/outbox.cif.g09.slc.cpg/sg65_23_cif.got.tgz:45680.got - 2010.04.10 20:52:16.
