data_PCOD8267667
_publ_section_title
;
Structure prediction by ZEFSAII (Michael W. Deem and Ramdas Pophale) SiO2 
 PCOD8267667
Probable space group: C M M M
;
_chemical_formula_sum "Si O2"
_cell_formula_units_Z 104
_cell_length_a 19.803273
_cell_length_b 15.673528
_cell_length_c 17.602625
_cell_angle_alpha 90.000000
_cell_angle_beta 90.000000
_cell_angle_gamma 90.000000
_cell_volume 5463.628674
_symmetry_space_group_name_H-M "C M M M"
_symmetry_group_IT_number 65
_symmetry_cell_setting 'orthorhombic'
loop_
_space_group_symop_operation_xyz
x,y,z
-x,-y,z
x,-y,-z
-x,y,-z
-x,-y,-z
x,y,-z
-x,y,z
x,-y,z
1/2+x,1/2+y,z
1/2-x,1/2-y,z
1/2+x,1/2-y,-z
1/2-x,1/2+y,-z
1/2-x,1/2-y,-z
1/2+x,1/2+y,-z
1/2-x,1/2+y,z
1/2+x,1/2-y,z
loop_
_atom_site_type_symbol
_atom_site_label
_atom_site_fract_x
_atom_site_fract_y
_atom_site_fract_z
Si Si1 0.424332 0.400081 0.000000
Si Si2 0.315641 0.163978 0.087397
Si Si3 0.172875 0.849646 0.865882
Si Si4 0.840703 0.598309 0.323712
Si Si5 0.683244 0.403394 0.699353
Si Si6 0.329656 0.741806 0.584082
Si Si7 0.926674 0.597724 0.181399
O O1 0.386044 0.372518 0.076014
O O2 0.430043 0.500000 0.000000
O O3 0.500000 0.359834 0.000000
O O4 0.245893 0.113763 0.106068
O O5 0.320868 0.247884 0.139310
O O6 0.381262 0.107775 0.105903
O O7 0.316666 0.191673 0.000000
O O8 0.154030 0.886459 0.783431
O O9 0.855646 0.500000 0.349062
O O10 0.763665 0.607951 0.297249
O O11 0.858165 0.665551 0.390222
O O12 0.886168 0.631058 0.254235
O O13 0.664218 0.500000 0.674250
O O14 0.650204 0.336185 0.640189
O O15 0.358806 0.721940 0.500000
O O16 0.250000 0.750000 0.580350
O O17 0.941072 0.500000 0.194043
O O18 0.000000 0.644248 0.173332
#
# Coordination Sequence:
#
# PCOD8267667 Si02
#       7
#     8  16  16  16  16  16  16
#     4  11  24  39  54  76 108 141 176 229 284 326
#     4  11  21  35  55  79 101 142 187 228 284 333
#     4  11  20  37  56  77 106 138 186 236 276 329
#     4   9  17  31  51  77 106 143 186 220 264 328
#     4  10  19  30  53  80 103 142 186 223 272 335
#     4   9  18  31  49  77 112 142 171 224 280 322
#     4  10  21  35  51  76 111 146 183 230 274 320
#
# _framework density 19.034967999999999
#
# number of rings (size 3 to 8) (size 9 to 14) (size 15 to 20)
#    0.000    1.923    3.077    1.846    4.308    2.462 
#    0.000    3.846    0.000    0.462    0.000    2.154 
#    0.000    0.000    0.000    6.615    0.000    2.000 
#
# Total GULP energy -644503.643481 kJ/mol
# GULP energy per Si atom -12394.300836 kJ/mol
# Density = 1.899164 g / cm^3
# Si number density = 19.034968 Si / 1000 Ang^3
#
#
#
# Elastic Constant Matrix: (Units=GPa)
#
#
# Indices 1 2 3 4 5 6 
#
# 1 95.2288 25.4773 39.5334 0.0000 0.0000 0.0000
# 2 25.4773 92.9417 58.2151 0.0000 0.0000 0.0000
# 3 39.5334 58.2151 135.9672 0.0000 0.0000 0.0000
# 4 0.0000 0.0000 0.0000 24.8356 0.0000 0.0000
# 5 0.0000 0.0000 0.0000 0.0000 14.5544 0.0000
# 6 0.0000 0.0000 0.0000 0.0000 0.0000 15.1371
#
#
#
# Elastic Compliance Matrix: (Units=1/GPa)
#
#
# Indices 1 2 3 4 5 6 
#
# 1 0.012098 -0.001521 -0.002866 0.000000 0.000000 0.000000
# 2 -0.001521 0.014894 -0.005935 0.000000 0.000000 0.000000
# 3 -0.002866 -0.005935 0.010729 0.000000 0.000000 0.000000
# 4 0.000000 0.000000 0.000000 0.040265 0.000000 0.000000
# 5 0.000000 0.000000 0.000000 0.000000 0.068708 0.000000
# 6 0.000000 0.000000 0.000000 0.000000 0.000000 0.066063
#
#
# Mechanical properties :
#
#
# Convention : Reuss Voigt Hill
#
# Bulk Modulus (GPa) = 58.55886 63.39879 60.97883
# Shear Modulus (GPa) = 20.91250 24.29955 22.60602
#
# Velocity S-wave (km/s) = 3.31816 3.57679 3.44990
# Velocity P-wave (km/s) = 6.74618 7.10188 6.92631
#
# Compressibility (1/GPa) = 0.01707684
#
# Stress axis : x y z
#
# Youngs Moduli (GPa) = 82.65924 67.14333 93.20506
#
# Poissons Ratio (x) = 0.10212 0.26716
# Poissons Ratio (y) = 0.12572 0.55313
# Poissons Ratio (z) = 0.23693 0.39846
#
# Static dielectric constant tensor:
#      x y z
#    x 3.852520 0.000000 0.000000 
#    y 0.000000 3.529090 0.000000 
#    z 0.000000 0.000000 3.537200 
# 
# 
# High freq. dielectric constant tensor:
#      x y z
#    x 1.703380 0.000000 0.000000 
#    y 0.000000 1.739240 0.000000 
#    z 0.000000 0.000000 1.732840 
# 
# From -- ./inp_files/55844.got.cif
#   From: 2010.03.12/outbox.cif.g09.slc.cpg/sg65_28_cif.got.tgz:55844.got - 2010.04.10 20:52:16.
