data_PCOD8267352
_publ_section_title
;
Structure prediction by ZEFSAII (Michael W. Deem and Ramdas Pophale) SiO2 
 PCOD8267352
Probable space group: C M M M
;
_chemical_formula_sum "Si O2"
_cell_formula_units_Z 120
_cell_length_a 28.051432
_cell_length_b 9.128984
_cell_length_c 28.729183
_cell_angle_alpha 90.000000
_cell_angle_beta 90.000000
_cell_angle_gamma 90.000000
_cell_volume 7357.000035
_symmetry_space_group_name_H-M "C M M M"
_symmetry_group_IT_number 65
_symmetry_cell_setting 'orthorhombic'
loop_
_space_group_symop_operation_xyz
x,y,z
-x,-y,z
x,-y,-z
-x,y,-z
-x,-y,-z
x,y,-z
-x,y,z
x,-y,z
1/2+x,1/2+y,z
1/2-x,1/2-y,z
1/2+x,1/2-y,-z
1/2-x,1/2+y,-z
1/2-x,1/2-y,-z
1/2+x,1/2+y,-z
1/2-x,1/2+y,z
1/2+x,1/2-y,z
loop_
_atom_site_type_symbol
_atom_site_label
_atom_site_fract_x
_atom_site_fract_y
_atom_site_fract_z
Si Si1 0.200254 0.670877 0.680662
Si Si2 0.642720 0.172709 0.591127
Si Si3 0.799259 0.168959 0.950896
Si Si4 0.301215 0.673351 0.150423
Si Si5 0.554566 0.668515 0.269170
Si Si6 0.800490 0.672683 0.500000
Si Si7 0.053591 0.171321 0.623929
Si Si8 0.860401 0.328437 0.228486
O O1 0.210365 0.500000 0.675821
O O2 0.250000 0.750000 0.685435
O O3 0.172556 0.730065 0.635410
O O4 0.169725 0.709035 0.725819
O O5 0.670114 0.223724 0.545029
O O6 0.590371 0.243466 0.591119
O O7 0.635811 0.000000 0.592859
O O8 0.750000 0.250000 0.952694
O O9 0.823833 0.206784 0.901303
O O10 0.786198 0.000000 0.949998
O O11 0.827790 0.205594 0.000000
O O12 0.295233 0.500000 0.159707
O O13 0.250000 0.750000 0.156913
O O14 0.338686 0.741178 0.185592
O O15 0.500000 0.688737 0.253649
O O16 0.570390 0.500000 0.263176
O O17 0.561089 0.718284 0.322555
O O18 0.585991 0.772077 0.236304
O O19 0.791709 0.500000 0.500000
O O20 0.750000 0.750000 0.500000
O O21 0.000000 0.212435 0.608085
O O22 0.062464 0.000000 0.618200
O O23 0.860987 0.500000 0.217233
#
# Coordination Sequence:
#
# PCOD8267352 Si02
#       8
#    16  16  16  16  16   8  16  16
#     4  10  21  33  46  66  92 122 158 194 228 273
#     4  10  20  36  53  74  98 124 159 197 238 282
#     4   8  14  25  41  60  83 116 160 204 242 280
#     4  10  19  30  44  64  94 131 166 202 243 283
#     4   9  18  33  52  73  96 122 155 195 239 285
#     4  10  22  38  57  76  99 127 160 201 239 282
#     4   9  18  33  54  79 101 123 154 191 234 284
#     4  11  21  32  46  68  97 128 161 194 234 285
#
# _framework density 16.310997
#
# number of rings (size 3 to 8) (size 9 to 14) (size 15 to 20)
#    0.000    2.400    1.333    2.400    0.000    4.267 
#    0.000    1.667    0.000    2.000    0.000    0.000 
#    0.000    0.533    0.000    6.133    0.000    1.733 
#
# Total GULP energy -743672.457410 kJ/mol
# GULP energy per Si atom -12394.540957 kJ/mol
# Density = 1.627387 g / cm^3
# Si number density = 16.310997 Si / 1000 Ang^3
#
#
#
# Elastic Constant Matrix: (Units=GPa)
#
#
# Indices 1 2 3 4 5 6 
#
# 1 102.7188 45.3872 55.2933 0.0000 0.0000 0.0000
# 2 45.3872 53.5755 47.4330 0.0000 0.0000 0.0000
# 3 55.2933 47.4330 130.3126 0.0000 0.0000 0.0000
# 4 0.0000 0.0000 0.0000 20.5295 0.0000 0.0000
# 5 0.0000 0.0000 0.0000 0.0000 5.3537 0.0000
# 6 0.0000 0.0000 0.0000 0.0000 0.0000 30.1697
#
#
#
# Elastic Compliance Matrix: (Units=1/GPa)
#
#
# Indices 1 2 3 4 5 6 
#
# 1 0.016212 -0.011278 -0.002774 0.000000 0.000000 0.000000
# 2 -0.011278 0.035387 -0.008095 0.000000 0.000000 0.000000
# 3 -0.002774 -0.008095 0.011797 0.000000 0.000000 0.000000
# 4 0.000000 0.000000 0.000000 0.048710 0.000000 0.000000
# 5 0.000000 0.000000 0.000000 0.000000 0.186787 0.000000
# 6 0.000000 0.000000 0.000000 0.000000 0.000000 0.033146
#
#
# Mechanical properties :
#
#
# Convention : Reuss Voigt Hill
#
# Bulk Modulus (GPa) = 52.35106 64.75934 58.55520
# Shear Modulus (GPa) = 13.06503 20.44347 16.75425
#
# Velocity S-wave (km/s) = 2.83326 3.54412 3.20843
# Velocity P-wave (km/s) = 6.54739 7.51909 7.05000
#
# Compressibility (1/GPa) = 0.01910181
#
# Stress axis : x y z
#
# Youngs Moduli (GPa) = 61.68332 28.25906 84.76547
#
# Poissons Ratio (x) = 0.31872 0.23510
# Poissons Ratio (y) = 0.69569 0.68618
# Poissons Ratio (z) = 0.17108 0.22876
#
# Static dielectric constant tensor:
#      x y z
#    x 2.897220 0.000000 0.000000 
#    y 0.000000 3.064600 0.000000 
#    z 0.000000 0.000000 3.469560 
# 
# 
# High freq. dielectric constant tensor:
#      x y z
#    x 1.605370 0.000000 0.000000 
#    y 0.000000 1.631630 0.000000 
#    z 0.000000 0.000000 1.626990 
# 
# From -- ./inp_files/76135.got.cif
#   From: 2010.03.12/outbox.cif.g09.slc.cpg/sg65_39_cif.got.tgz:76135.got - 2010.04.10 20:52:16.
