data_PCOD8267673
_publ_section_title
;
Structure prediction by ZEFSAII (Michael W. Deem and Ramdas Pophale) SiO2 
 PCOD8267673
Probable space group: C M M M
;
_chemical_formula_sum "Si O2"
_cell_formula_units_Z 72
_cell_length_a 22.528283
_cell_length_b 13.903003
_cell_length_c 13.024253
_cell_angle_alpha 90.000000
_cell_angle_beta 90.000000
_cell_angle_gamma 90.000000
_cell_volume 4079.336521
_symmetry_space_group_name_H-M "C M M M"
_symmetry_group_IT_number 65
_symmetry_cell_setting 'orthorhombic'
loop_
_space_group_symop_operation_xyz
x,y,z
-x,-y,z
x,-y,-z
-x,y,-z
-x,-y,-z
x,y,-z
-x,y,z
x,-y,z
1/2+x,1/2+y,z
1/2-x,1/2-y,z
1/2+x,1/2-y,-z
1/2-x,1/2+y,-z
1/2-x,1/2-y,-z
1/2+x,1/2+y,-z
1/2-x,1/2+y,z
1/2+x,1/2-y,z
loop_
_atom_site_type_symbol
_atom_site_label
_atom_site_fract_x
_atom_site_fract_y
_atom_site_fract_z
Si Si1 0.569885 0.311890 0.239086
Si Si2 0.730789 0.390366 0.189846
Si Si3 0.069961 0.000000 0.113980
Si Si4 0.660718 0.785886 0.882944
Si Si5 0.157763 0.889359 0.614527
O O1 0.500000 0.297748 0.252229
O O2 0.590042 0.406027 0.175273
O O3 0.597708 0.221713 0.177042
O O4 0.601314 0.324851 0.349497
O O5 0.717037 0.500000 0.155982
O O6 0.693894 0.317326 0.118893
O O7 0.800398 0.367314 0.174489
O O8 0.713651 0.373331 0.309428
O O9 0.000000 0.000000 0.104252
O O10 0.098252 0.000000 0.000000
O O11 0.648800 0.816315 0.000000
O O12 0.176236 0.856340 0.500000
O O13 0.137415 0.000000 0.614229
#
# Coordination Sequence:
#
# PCOD8267673 Si02
#       5
#    16  16   8  16  16
#     4  10  19  31  44  66  97 126 161 198 231 281
#     4   9  18  33  49  68  95 123 158 202 241 286
#     4   9  16  26  41  61  87 121 154 184 224 273
#     4  10  20  31  47  72  96 126 162 195 243 293
#     4   9  17  30  49  71  95 125 159 197 245 295
#
# _framework density 17.649927999999999
#
# number of rings (size 3 to 8) (size 9 to 14) (size 15 to 20)
#    0.000    2.556    1.111    2.000    1.556    3.556 
#    0.000   10.000    0.000    0.667    0.000    1.556 
#    0.000    0.000    0.000   23.556    0.000    0.000 
#
# Total GULP energy -446220.744660 kJ/mol
# GULP energy per Si atom -12395.020685 kJ/mol
# Density = 1.760976 g / cm^3
# Si number density = 17.649928 Si / 1000 Ang^3
#
#
#
# Elastic Constant Matrix: (Units=GPa)
#
#
# Indices 1 2 3 4 5 6 
#
# 1 75.1007 14.5129 37.1832 0.0000 0.0000 0.0000
# 2 14.5129 34.9322 9.6850 0.0000 0.0000 0.0000
# 3 37.1832 9.6850 126.7216 0.0000 0.0000 0.0000
# 4 0.0000 0.0000 0.0000 17.3603 0.0000 0.0000
# 5 0.0000 0.0000 0.0000 0.0000 20.8075 0.0000
# 6 0.0000 0.0000 0.0000 0.0000 0.0000 26.8254
#
#
#
# Elastic Compliance Matrix: (Units=1/GPa)
#
#
# Indices 1 2 3 4 5 6 
#
# 1 0.016610 -0.005669 -0.004440 0.000000 0.000000 0.000000
# 2 -0.005669 0.031182 -0.000720 0.000000 0.000000 0.000000
# 3 -0.004440 -0.000720 0.009249 0.000000 0.000000 0.000000
# 4 0.000000 0.000000 0.000000 0.057603 0.000000 0.000000
# 5 0.000000 0.000000 0.000000 0.000000 0.048060 0.000000
# 6 0.000000 0.000000 0.000000 0.000000 0.000000 0.037278
#
#
# Mechanical properties :
#
#
# Convention : Reuss Voigt Hill
#
# Bulk Modulus (GPa) = 28.26315 39.94629 34.10472
# Shear Modulus (GPa) = 21.41935 24.69020 23.05477
#
# Velocity S-wave (km/s) = 3.48741 3.74422 3.61809
# Velocity P-wave (km/s) = 5.68014 6.43226 6.06786
#
# Compressibility (1/GPa) = 0.03538176
#
# Stress axis : x y z
#
# Youngs Moduli (GPa) = 60.20641 32.06996 108.11735
#
# Poissons Ratio (x) = 0.18182 0.48008
# Poissons Ratio (y) = 0.34134 0.07780
# Poissons Ratio (z) = 0.26734 0.02308
#
# Static dielectric constant tensor:
#      x y z
#    x 3.237590 0.000000 0.000000 
#    y 0.000000 3.218260 0.000000 
#    z 0.000000 0.000000 3.360530 
# 
# 
# High freq. dielectric constant tensor:
#      x y z
#    x 1.672060 0.000000 0.000000 
#    y 0.000000 1.639630 0.000000 
#    z 0.000000 0.000000 1.681110 
# 
# From -- ./inp_files/24503.got.cif
#   From: 2010.03.12/outbox.cif.g09.slc.cpg/sg65_13_cif.got.tgz:24503.got - 2010.04.10 20:52:16.
