data_PCOD8267732
_publ_section_title
;
Structure prediction by ZEFSAII (Michael W. Deem and Ramdas Pophale) SiO2 
 PCOD8267732
Probable space group: C M M M
;
_chemical_formula_sum "Si O2"
_cell_formula_units_Z 88
_cell_length_a 14.272269
_cell_length_b 22.730168
_cell_length_c 15.408800
_cell_angle_alpha 90.000000
_cell_angle_beta 90.000000
_cell_angle_gamma 90.000000
_cell_volume 4998.785328
_symmetry_space_group_name_H-M "C M M M"
_symmetry_group_IT_number 65
_symmetry_cell_setting 'orthorhombic'
loop_
_space_group_symop_operation_xyz
x,y,z
-x,-y,z
x,-y,-z
-x,y,-z
-x,-y,-z
x,y,-z
-x,y,z
x,-y,z
1/2+x,1/2+y,z
1/2-x,1/2-y,z
1/2+x,1/2-y,-z
1/2-x,1/2+y,-z
1/2-x,1/2-y,-z
1/2+x,1/2+y,-z
1/2-x,1/2+y,z
1/2+x,1/2-y,z
loop_
_atom_site_type_symbol
_atom_site_label
_atom_site_fract_x
_atom_site_fract_y
_atom_site_fract_z
Si Si1 0.604438 0.930192 0.903704
Si Si2 0.889938 0.745771 0.404998
Si Si3 0.267821 0.067800 0.250459
Si Si4 0.110452 0.934428 0.500000
Si Si5 0.389718 0.634720 0.328542
Si Si6 0.609651 0.114051 0.399052
O O1 0.500000 0.905126 0.886056
O O2 0.674761 0.905660 0.830993
O O3 0.600914 0.000000 0.897215
O O4 0.638312 0.910808 0.000000
O O5 0.845018 0.757502 0.500000
O O6 0.858682 0.796869 0.338423
O O7 0.862395 0.680931 0.372133
O O8 0.000000 0.749841 0.416704
O O9 0.171680 0.105366 0.252831
O O10 0.329892 0.072006 0.337864
O O11 0.240668 0.000000 0.236252
O O12 0.142174 0.899003 0.415514
O O13 0.000000 0.939688 0.500000
O O14 0.155109 0.000000 0.500000
O O15 0.500000 0.627577 0.307898
O O16 0.634147 0.102078 0.500000
O O17 0.500000 0.102055 0.382884
#
# Coordination Sequence:
#
# PCOD8267732 Si02
#       6
#    16  16  16   8  16  16
#     4   8  15  31  54  74  91 115 151 196 241 283
#     4   8  14  29  49  64  83 120 171 215 239 258
#     4  11  22  31  45  71 100 127 155 189 234 293
#     4   9  16  26  40  57  83 123 164 199 233 261
#     4  10  19  31  46  65  91 127 168 207 237 262
#     4   9  19  33  47  66  95 128 159 195 239 286
#
# _framework density 17.604275999999999
#
# number of rings (size 3 to 8) (size 9 to 14) (size 15 to 20)
#    0.000    2.818    0.909    2.727    1.273    3.273 
#    0.000    2.727    0.000    0.545    0.000    5.091 
#    0.000    4.364    0.000    0.000    0.000    0.000 
#
# Total GULP energy -545315.107634 kJ/mol
# GULP energy per Si atom -12393.525173 kJ/mol
# Density = 1.756421 g / cm^3
# Si number density = 17.604276 Si / 1000 Ang^3
#
#
#
# Elastic Constant Matrix: (Units=GPa)
#
#
# Indices 1 2 3 4 5 6 
#
# 1 60.6682 -2.1599 38.3308 0.0000 0.0000 0.0000
# 2 -2.1599 39.6787 8.8295 0.0000 0.0000 0.0000
# 3 38.3308 8.8295 78.4899 0.0000 0.0000 0.0000
# 4 0.0000 0.0000 0.0000 9.1961 0.0000 0.0000
# 5 0.0000 0.0000 0.0000 0.0000 17.6487 0.0000
# 6 0.0000 0.0000 0.0000 0.0000 0.0000 17.7907
#
#
#
# Elastic Compliance Matrix: (Units=1/GPa)
#
#
# Indices 1 2 3 4 5 6 
#
# 1 0.024470 0.004094 -0.012410 0.000000 0.000000 0.000000
# 2 0.004094 0.026534 -0.004984 0.000000 0.000000 0.000000
# 3 -0.012410 -0.004984 0.019362 0.000000 0.000000 0.000000
# 4 0.000000 0.000000 0.000000 0.108742 0.000000 0.000000
# 5 0.000000 0.000000 0.000000 0.000000 0.056661 0.000000
# 6 0.000000 0.000000 0.000000 0.000000 0.000000 0.056209
#
#
# Mechanical properties :
#
#
# Convention : Reuss Voigt Hill
#
# Bulk Modulus (GPa) = 22.84965 29.87084 26.36024
# Shear Modulus (GPa) = 15.00744 17.84953 16.42848
#
# Velocity S-wave (km/s) = 2.92291 3.18768 3.05816
# Velocity P-wave (km/s) = 4.93953 5.52750 5.24176
#
# Compressibility (1/GPa) = 0.04376435
#
# Stress axis : x y z
#
# Youngs Moduli (GPa) = 40.86656 37.68705 51.64804
#
# Poissons Ratio (x) = -0.15428 0.64097
# Poissons Ratio (y) = -0.16729 0.25741
# Poissons Ratio (z) = 0.50717 0.18783
#
# Static dielectric constant tensor:
#      x y z
#    x 3.262300 0.000000 0.000000 
#    y 0.000000 3.364280 0.000000 
#    z 0.000000 0.000000 3.046280 
# 
# 
# High freq. dielectric constant tensor:
#      x y z
#    x 1.683820 0.000000 0.000000 
#    y 0.000000 1.666770 0.000000 
#    z 0.000000 0.000000 1.632760 
# 
# From -- ./inp_files/40557.got.cif
#   From: 2010.03.12/outbox.cif.g09.slc.cpg/sg65_21_cif.got.tgz:40557.got - 2010.04.10 20:52:16.
