data_PCOD8267572
_publ_section_title
;
Structure prediction by ZEFSAII (Michael W. Deem and Ramdas Pophale) SiO2 
 PCOD8267572
Probable space group: C M M M
;
_chemical_formula_sum "Si O2"
_cell_formula_units_Z 72
_cell_length_a 8.884141
_cell_length_b 15.894949
_cell_length_c 24.869421
_cell_angle_alpha 90.000000
_cell_angle_beta 90.000000
_cell_angle_gamma 90.000000
_cell_volume 3511.884754
_symmetry_space_group_name_H-M "C M M M"
_symmetry_group_IT_number 65
_symmetry_cell_setting 'orthorhombic'
loop_
_space_group_symop_operation_xyz
x,y,z
-x,-y,z
x,-y,-z
-x,y,-z
-x,-y,-z
x,y,-z
-x,y,z
x,-y,z
1/2+x,1/2+y,z
1/2-x,1/2-y,z
1/2+x,1/2-y,-z
1/2-x,1/2+y,-z
1/2-x,1/2-y,-z
1/2+x,1/2+y,-z
1/2-x,1/2+y,z
1/2+x,1/2-y,z
loop_
_atom_site_type_symbol
_atom_site_label
_atom_site_fract_x
_atom_site_fract_y
_atom_site_fract_z
Si Si1 0.679076 0.000000 0.439144
Si Si2 0.327395 0.595963 0.723171
Si Si3 0.176971 0.159094 0.838136
Si Si4 0.823733 0.341185 0.941700
Si Si5 0.677384 0.835574 0.623361
O O1 0.739797 0.915601 0.410145
O O2 0.500000 0.000000 0.437160
O O3 0.739547 0.000000 0.500000
O O4 0.500000 0.623555 0.714365
O O5 0.301076 0.500000 0.706466
O O6 0.281539 0.606021 0.785357
O O7 0.223357 0.653737 0.685720
O O8 0.250000 0.250000 0.831311
O O9 0.246604 0.111467 0.890905
O O10 0.000000 0.167603 0.846150
O O11 0.750000 0.250000 0.943856
O O12 0.000000 0.332623 0.930571
O O13 0.795484 0.386114 0.000000
O O14 0.500000 0.827625 0.618416
O O15 0.750000 0.750000 0.600056
#
# Coordination Sequence:
#
# PCOD8267572 Si02
#       5
#     8  16  16  16  16
#     4   9  20  40  63  89 125 163 200 243 288 339
#     4  10  21  37  56  79 111 147 186 237 291 343
#     4  10  19  30  47  72 100 133 172 219 275 336
#     4   9  16  26  42  65  94 128 167 216 272 329
#     4  11  22  38  62  91 120 158 201 242 292 347
#
# _framework density 20.501812000000001
#
# number of rings (size 3 to 8) (size 9 to 14) (size 15 to 20)
#    0.000    2.111    1.111    4.000    0.000    5.333 
#    0.000    0.000    0.000    5.333    0.000    4.667 
#    0.000    0.000    0.000    0.000    0.000    0.000 
#
# Total GULP energy -446218.222591 kJ/mol
# GULP energy per Si atom -12394.950628 kJ/mol
# Density = 2.045515 g / cm^3
# Si number density = 20.501812 Si / 1000 Ang^3
#
#
#
# Elastic Constant Matrix: (Units=GPa)
#
#
# Indices 1 2 3 4 5 6 
#
# 1 89.6181 36.4712 48.5819 0.0000 0.0000 0.0000
# 2 36.4712 100.4883 51.7534 0.0000 0.0000 0.0000
# 3 48.5819 51.7534 145.6376 0.0000 0.0000 0.0000
# 4 0.0000 0.0000 0.0000 23.5397 0.0000 0.0000
# 5 0.0000 0.0000 0.0000 0.0000 23.6284 0.0000
# 6 0.0000 0.0000 0.0000 0.0000 0.0000 22.6612
#
#
#
# Elastic Compliance Matrix: (Units=1/GPa)
#
#
# Indices 1 2 3 4 5 6 
#
# 1 0.014510 -0.003395 -0.003634 0.000000 0.000000 0.000000
# 2 -0.003395 0.012975 -0.003478 0.000000 0.000000 0.000000
# 3 -0.003634 -0.003478 0.009315 0.000000 0.000000 0.000000
# 4 0.000000 0.000000 0.000000 0.042481 0.000000 0.000000
# 5 0.000000 0.000000 0.000000 0.000000 0.042322 0.000000
# 6 0.000000 0.000000 0.000000 0.000000 0.000000 0.044128
#
#
# Mechanical properties :
#
#
# Convention : Reuss Voigt Hill
#
# Bulk Modulus (GPa) = 63.34897 67.70632 65.52765
# Shear Modulus (GPa) = 26.04078 27.22838 26.63458
#
# Velocity S-wave (km/s) = 3.56781 3.64826 3.60826
# Velocity P-wave (km/s) = 6.92377 7.13040 7.02785
#
# Compressibility (1/GPa) = 0.01578558
#
# Stress axis : x y z
#
# Youngs Moduli (GPa) = 68.91846 77.07199 107.35838
#
# Poissons Ratio (x) = 0.26164 0.39013
# Poissons Ratio (y) = 0.23396 0.37343
# Poissons Ratio (z) = 0.25044 0.26808
#
# Static dielectric constant tensor:
#      x y z
#    x 3.661900 0.000000 0.000000 
#    y 0.000000 3.494200 0.000000 
#    z 0.000000 0.000000 4.369250 
# 
# 
# High freq. dielectric constant tensor:
#      x y z
#    x 1.794190 0.000000 0.000000 
#    y 0.000000 1.773280 0.000000 
#    z 0.000000 0.000000 1.816660 
# 
# From -- ./inp_files/72529.got.cif
#   From: 2010.03.12/outbox.cif.g09.slc.cpg/sg65_37_cif.got.tgz:72529.got - 2010.04.10 20:52:16.
