data_PCOD8267355
_publ_section_title
;
Structure prediction by ZEFSAII (Michael W. Deem and Ramdas Pophale) SiO2 
 PCOD8267355
Probable space group: C M M M
;
_chemical_formula_sum "Si O2"
_cell_formula_units_Z 96
_cell_length_a 9.036137
_cell_length_b 25.581638
_cell_length_c 24.935991
_cell_angle_alpha 90.000000
_cell_angle_beta 90.000000
_cell_angle_gamma 90.000000
_cell_volume 5764.183373
_symmetry_space_group_name_H-M "C M M M"
_symmetry_group_IT_number 65
_symmetry_cell_setting 'orthorhombic'
loop_
_space_group_symop_operation_xyz
x,y,z
-x,-y,z
x,-y,-z
-x,y,-z
-x,-y,-z
x,y,-z
-x,y,z
x,-y,z
1/2+x,1/2+y,z
1/2-x,1/2-y,z
1/2+x,1/2-y,-z
1/2-x,1/2+y,-z
1/2-x,1/2-y,-z
1/2+x,1/2+y,-z
1/2-x,1/2+y,z
1/2+x,1/2-y,z
loop_
_atom_site_type_symbol
_atom_site_label
_atom_site_fract_x
_atom_site_fract_y
_atom_site_fract_z
Si Si1 0.165422 0.500000 0.368250
Si Si2 0.326323 0.697201 0.438825
Si Si3 0.173477 0.105129 0.757936
Si Si4 0.668227 0.000000 0.759234
Si Si5 0.671290 0.195381 0.056586
Si Si6 0.328498 0.397745 0.632572
Si Si7 0.175818 0.693180 0.826742
O O1 0.169773 0.500000 0.304409
O O2 0.246206 0.551381 0.389976
O O3 0.000000 0.500000 0.390715
O O4 0.282310 0.684134 0.500000
O O5 0.500000 0.704869 0.432262
O O6 0.250000 0.750000 0.418906
O O7 0.266968 0.651262 0.400749
O O8 0.246669 0.051610 0.780021
O O9 0.202691 0.111728 0.694957
O O10 0.251451 0.154473 0.784581
O O11 0.000000 0.104025 0.771627
O O12 0.500000 0.000000 0.781408
O O13 0.500000 0.208435 0.057800
O O14 0.750000 0.250000 0.054408
O O15 0.711342 0.168515 0.113612
O O16 0.709863 0.164360 0.000000
O O17 0.500000 0.406893 0.621250
O O18 0.250000 0.750000 0.820153
O O19 0.000000 0.697688 0.816257
#
# Coordination Sequence:
#
# PCOD8267355 Si02
#       7
#     8  16  16   8  16  16  16
#     4   9  17  29  48  72  93 115 145 184 225 264
#     4   9  18  33  51  69  89 116 152 190 225 263
#     4  10  19  31  47  68  94 122 152 186 226 272
#     4   9  17  31  49  68  89 116 154 192 225 265
#     4   8  14  25  41  60  83 114 151 187 222 262
#     4   9  18  32  49  68  91 120 150 182 224 272
#     4  10  19  30  44  65  95 126 154 187 227 270
#
# _framework density 16.654571000000001
#
# number of rings (size 3 to 8) (size 9 to 14) (size 15 to 20)
#    0.000    2.833    0.000    1.500    0.000    4.667 
#    0.000    2.083    0.000    2.500    0.000    0.583 
#    0.000    4.667    0.000    0.000    0.000    0.000 
#
# Total GULP energy -594755.551632 kJ/mol
# GULP energy per Si atom -12390.740659 kJ/mol
# Density = 1.661666 g / cm^3
# Si number density = 16.654571 Si / 1000 Ang^3
#
#
#
# Elastic Constant Matrix: (Units=GPa)
#
#
# Indices 1 2 3 4 5 6 
#
# 1 81.4770 62.5963 42.0083 0.0000 0.0000 0.0000
# 2 62.5963 137.4893 61.5887 0.0000 0.0000 0.0000
# 3 42.0083 61.5887 64.0194 0.0000 0.0000 0.0000
# 4 0.0000 0.0000 0.0000 1.7758 0.0000 0.0000
# 5 0.0000 0.0000 0.0000 0.0000 17.4959 0.0000
# 6 0.0000 0.0000 0.0000 0.0000 0.0000 32.6461
#
#
#
# Elastic Compliance Matrix: (Units=1/GPa)
#
#
# Indices 1 2 3 4 5 6 
#
# 1 0.020998 -0.005954 -0.008051 0.000000 0.000000 0.000000
# 2 -0.005954 0.014469 -0.010013 0.000000 0.000000 0.000000
# 3 -0.008051 -0.010013 0.030536 0.000000 0.000000 0.000000
# 4 0.000000 0.000000 0.000000 0.563128 0.000000 0.000000
# 5 0.000000 0.000000 0.000000 0.000000 0.057156 0.000000
# 6 0.000000 0.000000 0.000000 0.000000 0.000000 0.030632
#
#
# Mechanical properties :
#
#
# Convention : Reuss Voigt Hill
#
# Bulk Modulus (GPa) = 55.65463 68.37472 62.01467
# Shear Modulus (GPa) = 6.48554 18.16971 12.32762
#
# Velocity S-wave (km/s) = 1.97550 3.30657 2.72360
# Velocity P-wave (km/s) = 6.22037 7.46469 6.87076
#
# Compressibility (1/GPa) = 0.01796796
#
# Stress axis : x y z
#
# Youngs Moduli (GPa) = 47.62247 69.11134 32.74771
#
# Poissons Ratio (x) = 0.41147 0.26366
# Poissons Ratio (y) = 0.28353 0.32791
# Poissons Ratio (z) = 0.38342 0.69204
#
# Static dielectric constant tensor:
#      x y z
#    x 3.221350 0.000000 0.000000 
#    y 0.000000 3.055450 0.000000 
#    z 0.000000 0.000000 3.400210 
# 
# 
# High freq. dielectric constant tensor:
#      x y z
#    x 1.651660 0.000000 0.000000 
#    y 0.000000 1.621940 0.000000 
#    z 0.000000 0.000000 1.630870 
# 
# From -- ./inp_files/67911.got.cif
#   From: 2010.03.12/outbox.cif.g09.slc.cpg/sg65_34_cif.got.tgz:67911.got - 2010.04.10 20:52:16.
