data_PCOD8267007
_publ_section_title
;
Structure prediction by ZEFSAII (Michael W. Deem and Ramdas Pophale) SiO2 
 PCOD8267007
Probable space group: C M M M
;
_chemical_formula_sum "Si O2"
_cell_formula_units_Z 88
_cell_length_a 21.688312
_cell_length_b 10.746896
_cell_length_c 18.401246
_cell_angle_alpha 90.000000
_cell_angle_beta 90.000000
_cell_angle_gamma 90.000000
_cell_volume 4288.999836
_symmetry_space_group_name_H-M "C M M M"
_symmetry_group_IT_number 65
_symmetry_cell_setting 'orthorhombic'
loop_
_space_group_symop_operation_xyz
x,y,z
-x,-y,z
x,-y,-z
-x,y,-z
-x,-y,-z
x,y,-z
-x,y,z
x,-y,z
1/2+x,1/2+y,z
1/2-x,1/2-y,z
1/2+x,1/2-y,-z
1/2-x,1/2+y,-z
1/2-x,1/2-y,-z
1/2+x,1/2+y,-z
1/2-x,1/2+y,z
1/2+x,1/2-y,z
loop_
_atom_site_type_symbol
_atom_site_label
_atom_site_fract_x
_atom_site_fract_y
_atom_site_fract_z
Si Si1 0.298851 0.857257 0.282075
Si Si2 0.124441 0.357081 0.580507
Si Si3 0.298106 0.359548 0.916533
Si Si4 0.500000 0.366455 0.734099
Si Si5 0.395518 0.241487 0.820559
Si Si6 0.500000 0.143249 0.921129
Si Si7 0.500000 0.293046 0.420023
O O1 0.250000 0.750000 0.261013
O O2 0.325582 0.814651 0.360138
O O3 0.351315 0.856419 0.220144
O O4 0.271997 0.000000 0.284592
O O5 0.152391 0.332445 0.500000
O O6 0.108947 0.500000 0.593521
O O7 0.059969 0.289945 0.589505
O O8 0.270601 0.500000 0.904156
O O9 0.250000 0.250000 0.896874
O O10 0.356618 0.345636 0.863743
O O11 0.319243 0.344374 0.000000
O O12 0.500000 0.500000 0.772303
O O13 0.437732 0.299355 0.757964
O O14 0.500000 0.388004 0.646928
O O15 0.437975 0.173876 0.878635
O O16 0.500000 0.000000 0.936051
O O17 0.500000 0.211759 0.000000
O O18 0.500000 0.358826 0.500000
#
# Coordination Sequence:
#
# PCOD8267007 Si02
#       7
#    16  16  16   8  16   8   8
#     4  11  24  40  60  88 121 161 206 253 298 351
#     4   9  18  35  60  88 118 154 198 245 295 354
#     4  10  22  40  63  89 117 154 201 248 294 348
#     4  11  23  37  56  86 120 158 195 241 299 354
#     4  11  22  39  60  86 118 160 195 243 292 365
#     4  10  22  39  61  90 121 152 189 239 302 365
#     4  10  18  35  60  88 117 151 196 243 297 357
#
# _framework density 20.517605
#
# number of rings (size 3 to 8) (size 9 to 14) (size 15 to 20)
#    0.000    1.727    1.818    2.455    0.000    6.000 
#    0.000    1.818    0.000    4.364    0.000    0.000 
#    0.000    0.000    0.000    0.000    0.000    0.000 
#
# Total GULP energy -545285.543098 kJ/mol
# GULP energy per Si atom -12392.853252 kJ/mol
# Density = 2.047091 g / cm^3
# Si number density = 20.517605 Si / 1000 Ang^3
#
#
#
# Elastic Constant Matrix: (Units=GPa)
#
#
# Indices 1 2 3 4 5 6 
#
# 1 100.3343 49.2671 54.2379 0.0000 0.0000 0.0000
# 2 49.2671 107.2253 34.2191 0.0000 0.0000 0.0000
# 3 54.2379 34.2191 144.7594 0.0000 0.0000 0.0000
# 4 0.0000 0.0000 0.0000 20.9813 0.0000 0.0000
# 5 0.0000 0.0000 0.0000 0.0000 9.1867 0.0000
# 6 0.0000 0.0000 0.0000 0.0000 0.0000 22.9422
#
#
#
# Elastic Compliance Matrix: (Units=1/GPa)
#
#
# Indices 1 2 3 4 5 6 
#
# 1 0.015012 -0.005519 -0.004320 0.000000 0.000000 0.000000
# 2 -0.005519 0.012116 -0.000796 0.000000 0.000000 0.000000
# 3 -0.004320 -0.000796 0.008715 0.000000 0.000000 0.000000
# 4 0.000000 0.000000 0.000000 0.047662 0.000000 0.000000
# 5 0.000000 0.000000 0.000000 0.000000 0.108854 0.000000
# 6 0.000000 0.000000 0.000000 0.000000 0.000000 0.043588
#
#
# Mechanical properties :
#
#
# Convention : Reuss Voigt Hill
#
# Bulk Modulus (GPa) = 68.62265 69.75191 69.18728
# Shear Modulus (GPa) = 19.07861 24.92834 22.00347
#
# Velocity S-wave (km/s) = 3.05268 3.48943 3.27833
# Velocity P-wave (km/s) = 6.77816 7.09258 6.93715
#
# Compressibility (1/GPa) = 0.01457245
#
# Stress axis : x y z
#
# Youngs Moduli (GPa) = 66.61387 82.53511 114.74667
#
# Poissons Ratio (x) = 0.45550 0.49571
# Poissons Ratio (y) = 0.36763 0.09137
# Poissons Ratio (z) = 0.28777 0.06572
#
# Static dielectric constant tensor:
#      x y z
#    x 3.600350 0.000000 0.000000 
#    y 0.000000 3.507230 0.000000 
#    z 0.000000 0.000000 4.197000 
# 
# 
# High freq. dielectric constant tensor:
#      x y z
#    x 1.789850 0.000000 0.000000 
#    y 0.000000 1.788410 0.000000 
#    z 0.000000 0.000000 1.830580 
# 
# From -- ./inp_files/51499.got.cif
#   From: 2010.03.12/outbox.cif.g09.slc.cpg/sg65_26_cif.got.tgz:51499.got - 2010.04.10 20:52:16.
