data_PCOD8267691
_publ_section_title
;
Structure prediction by ZEFSAII (Michael W. Deem and Ramdas Pophale) SiO2 
 PCOD8267691
Probable space group: C M M M
;
_chemical_formula_sum "Si O2"
_cell_formula_units_Z 72
_cell_length_a 7.764329
_cell_length_b 18.865731
_cell_length_c 27.050297
_cell_angle_alpha 90.000000
_cell_angle_beta 90.000000
_cell_angle_gamma 90.000000
_cell_volume 3962.320534
_symmetry_space_group_name_H-M "C M M M"
_symmetry_group_IT_number 65
_symmetry_cell_setting 'orthorhombic'
loop_
_space_group_symop_operation_xyz
x,y,z
-x,-y,z
x,-y,-z
-x,y,-z
-x,-y,-z
x,y,-z
-x,y,z
x,-y,z
1/2+x,1/2+y,z
1/2-x,1/2-y,z
1/2+x,1/2-y,-z
1/2-x,1/2+y,-z
1/2-x,1/2-y,-z
1/2+x,1/2+y,-z
1/2-x,1/2+y,z
1/2+x,1/2-y,z
loop_
_atom_site_type_symbol
_atom_site_label
_atom_site_fract_x
_atom_site_fract_y
_atom_site_fract_z
Si Si1 0.702727 0.331311 0.000000
Si Si2 0.500000 0.915362 0.733153
Si Si3 0.808183 0.915562 0.199854
Si Si4 0.500000 0.915277 0.621651
Si Si5 0.704261 0.578832 0.909520
Si Si6 0.808788 0.084283 0.444601
O O1 0.750000 0.250000 0.000000
O O2 0.781241 0.368693 0.048916
O O3 0.500000 0.341072 0.000000
O O4 0.328833 0.886157 0.760441
O O5 0.500000 0.885955 0.677397
O O6 0.500000 0.000000 0.733871
O O7 0.746802 0.891837 0.144989
O O8 0.000000 0.885911 0.212351
O O9 0.814533 0.000000 0.200854
O O10 0.668979 0.885222 0.593749
O O11 0.500000 0.000000 0.621421
O O12 0.500000 0.574455 0.913388
O O13 0.781479 0.500000 0.917939
O O14 0.765442 0.111271 0.500000
O O15 0.000000 0.110146 0.428792
O O16 0.802378 0.000000 0.444192
#
# Coordination Sequence:
#
# PCOD8267691 Si02
#       6
#     8   8  16   8  16  16
#     4  10  19  31  45  65  93 112 130 166 214 262
#     4   9  16  23  32  50  72  91 114 155 205 247
#     4   8  14  25  39  54  71  92 123 160 195 235
#     4   9  15  20  27  40  59  82 107 141 197 249
#     4   8  14  27  48  65  77 106 146 173 197 244
#     4   8  13  20  28  37  51  76 113 152 187 230
#
# _framework density 18.17117
#
# number of rings (size 3 to 8) (size 9 to 14) (size 15 to 20)
#    0.000    3.556    0.000    2.667    0.000    3.556 
#    2.000    4.444    0.000    0.667    0.000    0.000 
#    0.000    0.000    0.000    0.000    0.000    0.000 
#
# Total GULP energy -446082.461003 kJ/mol
# GULP energy per Si atom -12391.179472 kJ/mol
# Density = 1.812981 g / cm^3
# Si number density = 18.171170 Si / 1000 Ang^3
#
#
#
# Elastic Constant Matrix: (Units=GPa)
#
#
# Indices 1 2 3 4 5 6 
#
# 1 114.1491 13.3110 92.6969 0.0000 0.0000 0.0000
# 2 13.3110 31.4444 29.3562 0.0000 0.0000 0.0000
# 3 92.6969 29.3562 183.5356 0.0000 0.0000 0.0000
# 4 0.0000 0.0000 0.0000 1.6885 0.0000 0.0000
# 5 0.0000 0.0000 0.0000 0.0000 23.3282 0.0000
# 6 0.0000 0.0000 0.0000 0.0000 0.0000 7.2897
#
#
#
# Elastic Compliance Matrix: (Units=1/GPa)
#
#
# Indices 1 2 3 4 5 6 
#
# 1 0.014871 0.000843 -0.007646 0.000000 0.000000 0.000000
# 2 0.000843 0.037432 -0.006413 0.000000 0.000000 0.000000
# 3 -0.007646 -0.006413 0.010336 0.000000 0.000000 0.000000
# 4 0.000000 0.000000 0.000000 0.592238 0.000000 0.000000
# 5 0.000000 0.000000 0.000000 0.000000 0.042867 0.000000
# 6 0.000000 0.000000 0.000000 0.000000 0.000000 0.137180
#
#
# Mechanical properties :
#
#
# Convention : Reuss Voigt Hill
#
# Bulk Modulus (GPa) = 27.61845 66.65082 47.13464
# Shear Modulus (GPa) = 5.72460 19.37895 12.55177
#
# Velocity S-wave (km/s) = 1.77685 3.26922 2.63107
# Velocity P-wave (km/s) = 4.40927 7.14209 5.93511
#
# Compressibility (1/GPa) = 0.03620768
#
# Stress axis : x y z
#
# Youngs Moduli (GPa) = 67.24549 26.71477 96.75178
#
# Poissons Ratio (x) = -0.02251 0.73972
# Poissons Ratio (y) = -0.05667 0.62046
# Poissons Ratio (z) = 0.51413 0.17132
#
# Static dielectric constant tensor:
#      x y z
#    x 3.522820 0.000000 0.000000 
#    y 0.000000 2.392950 0.000000 
#    z 0.000000 0.000000 3.690830 
# 
# 
# High freq. dielectric constant tensor:
#      x y z
#    x 1.704000 0.000000 0.000000 
#    y 0.000000 1.609680 0.000000 
#    z 0.000000 0.000000 1.710920 
# 
# From -- ./inp_files/67143.got.cif
#   From: 2010.03.12/outbox.cif.g09.slc.cpg/sg65_34_cif.got.tgz:67143.got - 2010.04.10 20:52:16.
