data_PCOD8267813
_publ_section_title
;
Structure prediction by ZEFSAII (Michael W. Deem and Ramdas Pophale) SiO2 
 PCOD8267813
Probable space group: C M M M
;
_chemical_formula_sum "Si O2"
_cell_formula_units_Z 80
_cell_length_a 8.729386
_cell_length_b 27.675260
_cell_length_c 18.679465
_cell_angle_alpha 90.000000
_cell_angle_beta 90.000000
_cell_angle_gamma 90.000000
_cell_volume 4512.735098
_symmetry_space_group_name_H-M "C M M M"
_symmetry_group_IT_number 65
_symmetry_cell_setting 'orthorhombic'
loop_
_space_group_symop_operation_xyz
x,y,z
-x,-y,z
x,-y,-z
-x,y,-z
-x,-y,-z
x,y,-z
-x,y,z
x,-y,z
1/2+x,1/2+y,z
1/2-x,1/2-y,z
1/2+x,1/2-y,-z
1/2-x,1/2+y,-z
1/2-x,1/2-y,-z
1/2+x,1/2+y,-z
1/2-x,1/2+y,z
1/2+x,1/2-y,z
loop_
_atom_site_type_symbol
_atom_site_label
_atom_site_fract_x
_atom_site_fract_y
_atom_site_fract_z
Si Si1 0.681125 0.642234 0.705195
Si Si2 0.321048 0.198959 0.417181
Si Si3 0.320209 0.107557 0.921648
Si Si4 0.679827 0.800610 0.833536
Si Si5 0.818528 0.444999 0.217222
O O1 0.500000 0.642758 0.706944
O O2 0.741210 0.655945 0.626619
O O3 0.744962 0.681814 0.760065
O O4 0.739939 0.588483 0.723438
O O5 0.287361 0.188241 0.500000
O O6 0.500000 0.200343 0.400044
O O7 0.250000 0.250000 0.393708
O O8 0.500000 0.100386 0.928654
O O9 0.281724 0.161877 0.896773
O O10 0.258179 0.069913 0.862153
O O11 0.244318 0.098248 0.000000
O O12 0.500000 0.795788 0.820284
O O13 0.750000 0.750000 0.857788
O O14 0.771510 0.500000 0.232482
O O15 0.000000 0.436834 0.221732
#
# Coordination Sequence:
#
# PCOD8267813 Si02
#       5
#    16  16  16  16  16
#     4  11  21  33  51  73 100 132 166 205 244 287
#     4  10  20  34  53  78 108 138 166 197 236 284
#     4   8  15  28  46  70  98 126 159 201 248 298
#     4  10  19  31  47  68  96 130 168 206 245 292
#     4   9  18  33  53  75  98 126 162 205 252 300
#
# _framework density 17.727608
#
# number of rings (size 3 to 8) (size 9 to 14) (size 15 to 20)
#    0.000    2.400    0.000    4.800    0.000    2.400 
#    0.000    2.000    0.000   15.000    0.000    9.800 
#    0.000    0.000    0.000    0.000    0.000    0.000 
#
# Total GULP energy -495983.354974 kJ/mol
# GULP energy per Si atom -12399.583874 kJ/mol
# Density = 1.768726 g / cm^3
# Si number density = 17.727608 Si / 1000 Ang^3
#
#
#
# Elastic Constant Matrix: (Units=GPa)
#
#
# Indices 1 2 3 4 5 6 
#
# 1 90.9102 53.3254 44.4937 0.0000 0.0000 0.0000
# 2 53.3254 126.9917 62.6491 0.0000 0.0000 0.0000
# 3 44.4937 62.6491 106.5689 0.0000 0.0000 0.0000
# 4 0.0000 0.0000 0.0000 20.9546 0.0000 0.0000
# 5 0.0000 0.0000 0.0000 0.0000 15.3110 0.0000
# 6 0.0000 0.0000 0.0000 0.0000 0.0000 28.1332
#
#
#
# Elastic Compliance Matrix: (Units=1/GPa)
#
#
# Indices 1 2 3 4 5 6 
#
# 1 0.015589 -0.004698 -0.003747 0.000000 0.000000 0.000000
# 2 -0.004698 0.012507 -0.005391 0.000000 0.000000 0.000000
# 3 -0.003747 -0.005391 0.014117 0.000000 0.000000 0.000000
# 4 0.000000 0.000000 0.000000 0.047722 0.000000 0.000000
# 5 0.000000 0.000000 0.000000 0.000000 0.065313 0.000000
# 6 0.000000 0.000000 0.000000 0.000000 0.000000 0.035545
#
#
# Mechanical properties :
#
#
# Convention : Reuss Voigt Hill
#
# Bulk Modulus (GPa) = 68.76735 71.71192 70.23963
# Shear Modulus (GPa) = 22.39019 23.81325 23.10172
#
# Velocity S-wave (km/s) = 3.55774 3.66906 3.61383
# Velocity P-wave (km/s) = 7.46673 7.64783 7.55782
#
# Compressibility (1/GPa) = 0.01454179
#
# Stress axis : x y z
#
# Youngs Moduli (GPa) = 64.14677 79.95728 70.83477
#
# Poissons Ratio (x) = 0.37560 0.26543
# Poissons Ratio (y) = 0.30133 0.38188
# Poissons Ratio (z) = 0.24037 0.43106
#
# Static dielectric constant tensor:
#      x y z
#    x 3.160100 0.000000 0.000000 
#    y 0.000000 3.255920 0.000000 
#    z 0.000000 0.000000 3.389640 
# 
# 
# High freq. dielectric constant tensor:
#      x y z
#    x 1.675680 0.000000 0.000000 
#    y 0.000000 1.677770 0.000000 
#    z 0.000000 0.000000 1.681230 
# 
# From -- ./inp_files/49854.got.cif
#   From: 2010.03.12/outbox.cif.g09.slc.cpg/sg65_25_cif.got.tgz:49854.got - 2010.04.10 20:52:16.
