data_PCOD8267160
_publ_section_title
;
Structure prediction by ZEFSAII (Michael W. Deem and Ramdas Pophale) SiO2 
 PCOD8267160
Probable space group: C M M M
;
_chemical_formula_sum "Si O2"
_cell_formula_units_Z 80
_cell_length_a 19.461261
_cell_length_b 9.184450
_cell_length_c 25.553520
_cell_angle_alpha 90.000000
_cell_angle_beta 90.000000
_cell_angle_gamma 90.000000
_cell_volume 4567.461171
_symmetry_space_group_name_H-M "C M M M"
_symmetry_group_IT_number 65
_symmetry_cell_setting 'orthorhombic'
loop_
_space_group_symop_operation_xyz
x,y,z
-x,-y,z
x,-y,-z
-x,y,-z
-x,-y,-z
x,y,-z
-x,y,z
x,-y,z
1/2+x,1/2+y,z
1/2-x,1/2-y,z
1/2+x,1/2-y,-z
1/2-x,1/2+y,-z
1/2-x,1/2-y,-z
1/2+x,1/2+y,-z
1/2-x,1/2+y,z
1/2+x,1/2-y,z
loop_
_atom_site_type_symbol
_atom_site_label
_atom_site_fract_x
_atom_site_fract_y
_atom_site_fract_z
Si Si1 0.577022 0.172704 0.000000
Si Si2 0.179766 0.329646 0.911558
Si Si3 0.176488 0.673861 0.500000
Si Si4 0.180488 0.670807 0.207137
Si Si5 0.423949 0.827027 0.292522
Si Si6 0.577085 0.172643 0.408827
O O1 0.618113 0.225993 0.948556
O O2 0.500000 0.240288 0.000000
O O3 0.571398 0.000000 0.000000
O O4 0.193264 0.500000 0.919589
O O5 0.250000 0.250000 0.927253
O O6 0.157631 0.293254 0.852150
O O7 0.186337 0.500000 0.500000
O O8 0.250000 0.750000 0.500000
O O9 0.133498 0.730133 0.449730
O O10 0.191473 0.500000 0.214922
O O11 0.250000 0.750000 0.221838
O O12 0.124729 0.735900 0.247261
O O13 0.500000 0.765896 0.281584
O O14 0.399953 0.777086 0.350540
O O15 0.424638 0.000000 0.289702
O O16 0.500000 0.232186 0.421613
O O17 0.574039 0.000000 0.412105
#
# Coordination Sequence:
#
# PCOD8267160 Si02
#       6
#     8  16   8  16  16  16
#     4   9  17  28  43  65  88 107 134 176 218 247
#     4   9  17  29  45  63  84 112 142 170 203 247
#     4  10  19  29  43  65  89 110 136 172 212 250
#     4   9  17  28  43  64  87 111 139 170 206 247
#     4   8  14  25  42  64  86 107 137 177 212 240
#     4   8  14  26  44  63  82 108 143 177 205 239
#
# _framework density 17.515201000000001
#
# number of rings (size 3 to 8) (size 9 to 14) (size 15 to 20)
#    0.000    3.300    0.000    1.800    0.000    2.800 
#    0.000    4.000    0.000    3.000    0.000    8.400 
#    0.000    0.000    0.000    0.000    0.000    0.000 
#
# Total GULP energy -495742.459107 kJ/mol
# GULP energy per Si atom -12393.561478 kJ/mol
# Density = 1.747534 g / cm^3
# Si number density = 17.515201 Si / 1000 Ang^3
#
#
#
# Elastic Constant Matrix: (Units=GPa)
#
#
# Indices 1 2 3 4 5 6 
#
# 1 162.2427 24.7669 118.7859 0.0000 0.0000 0.0000
# 2 24.7669 13.4449 20.6936 0.0000 0.0000 0.0000
# 3 118.7859 20.6936 159.9844 0.0000 0.0000 0.0000
# 4 0.0000 0.0000 0.0000 11.1211 0.0000 0.0000
# 5 0.0000 0.0000 0.0000 0.0000 40.2129 0.0000
# 6 0.0000 0.0000 0.0000 0.0000 0.0000 23.3788
#
#
#
# Elastic Compliance Matrix: (Units=1/GPa)
#
#
# Indices 1 2 3 4 5 6 
#
# 1 0.015189 -0.013262 -0.009562 0.000000 0.000000 0.000000
# 2 -0.013262 0.104446 -0.003663 0.000000 0.000000 0.000000
# 3 -0.009562 -0.003663 0.013824 0.000000 0.000000 0.000000
# 4 0.000000 0.000000 0.000000 0.089919 0.000000 0.000000
# 5 0.000000 0.000000 0.000000 0.000000 0.024868 0.000000
# 6 0.000000 0.000000 0.000000 0.000000 0.000000 0.042774
#
#
# Mechanical properties :
#
#
# Convention : Reuss Voigt Hill
#
# Bulk Modulus (GPa) = 12.42475 73.79610 43.11043
# Shear Modulus (GPa) = 13.48354 26.37093 19.92724
#
# Velocity S-wave (km/s) = 2.77757 3.88442 3.37666
# Velocity P-wave (km/s) = 4.17081 7.89572 6.31419
#
# Compressibility (1/GPa) = 0.08048450
#
# Stress axis : x y z
#
# Youngs Moduli (GPa) = 65.83643 9.57434 72.33688
#
# Poissons Ratio (x) = 0.12698 0.69170
# Poissons Ratio (y) = 0.87315 0.26495
# Poissons Ratio (z) = 0.62955 0.03507
#
# Static dielectric constant tensor:
#      x y z
#    x 3.473190 0.000000 0.000000 
#    y 0.000000 2.718500 0.000000 
#    z 0.000000 0.000000 3.644880 
# 
# 
# High freq. dielectric constant tensor:
#      x y z
#    x 1.676460 0.000000 0.000000 
#    y 0.000000 1.616390 0.000000 
#    z 0.000000 0.000000 1.693680 
# 
# From -- ./inp_files/70419.got.cif
#   From: 2010.03.12/outbox.cif.g09.slc.cpg/sg65_36_cif.got.tgz:70419.got - 2010.04.10 20:52:16.
