data_PCOD8267900
_publ_section_title
;
Structure prediction by ZEFSAII (Michael W. Deem and Ramdas Pophale) SiO2 
 PCOD8267900
Probable space group: C M M M
;
_chemical_formula_sum "Si O2"
_cell_formula_units_Z 104
_cell_length_a 28.523203
_cell_length_b 8.902956
_cell_length_c 23.246015
_cell_angle_alpha 90.000000
_cell_angle_beta 90.000000
_cell_angle_gamma 90.000000
_cell_volume 5903.112141
_symmetry_space_group_name_H-M "C M M M"
_symmetry_group_IT_number 65
_symmetry_cell_setting 'orthorhombic'
loop_
_space_group_symop_operation_xyz
x,y,z
-x,-y,z
x,-y,-z
-x,y,-z
-x,-y,-z
x,y,-z
-x,y,z
x,-y,z
1/2+x,1/2+y,z
1/2-x,1/2-y,z
1/2+x,1/2-y,-z
1/2-x,1/2+y,-z
1/2-x,1/2-y,-z
1/2+x,1/2+y,-z
1/2-x,1/2+y,z
1/2+x,1/2-y,z
loop_
_atom_site_type_symbol
_atom_site_label
_atom_site_fract_x
_atom_site_fract_y
_atom_site_fract_z
Si Si1 0.108828 0.822466 0.111245
Si Si2 0.947241 0.321230 0.563514
Si Si3 0.702627 0.823811 0.278426
Si Si4 0.052691 0.178309 0.000000
Si Si5 0.893560 0.321961 0.672453
Si Si6 0.444994 0.173357 0.786613
Si Si7 0.298063 0.823305 0.854581
O O1 0.080489 0.777561 0.167740
O O2 0.159439 0.744500 0.108856
O O3 0.115993 0.000000 0.110253
O O4 0.079839 0.764029 0.056291
O O5 0.929984 0.269466 0.500000
O O6 0.947392 0.500000 0.567114
O O7 0.912885 0.253561 0.612416
O O8 0.000000 0.262212 0.574510
O O9 0.750000 0.750000 0.302437
O O10 0.658719 0.760199 0.314977
O O11 0.693817 0.780788 0.212099
O O12 0.708020 0.000000 0.285681
O O13 0.000000 0.245685 0.000000
O O14 0.050126 0.000000 0.000000
O O15 0.891401 0.500000 0.668369
O O16 0.928666 0.275057 0.723454
O O17 0.500000 0.198376 0.791619
O O18 0.430775 0.000000 0.797854
O O19 0.250000 0.750000 0.877119
O O20 0.295533 0.000000 0.864332
#
# Coordination Sequence:
#
# PCOD8267900 Si02
#       7
#    16  16  16   8  16  16  16
#     4  11  21  35  55  76 100 132 168 207 250 297
#     4   8  13  21  36  61  92 126 164 201 237 285
#     4   9  17  29  46  67  95 126 158 194 239 293
#     4   9  20  38  56  73  98 135 174 207 244 295
#     4   9  15  26  42  64  94 128 160 197 248 298
#     4  10  19  31  48  71 100 131 162 203 255 304
#     4  10  19  34  54  78 105 131 164 203 249 303
#
# _framework density 17.617826000000001
#
# number of rings (size 3 to 8) (size 9 to 14) (size 15 to 20)
#    0.000    2.538    1.538    2.308    0.000    3.385 
#    0.000    1.923    0.000    3.231    0.000    0.000 
#    0.000    1.846    0.000    8.462    0.000    7.692 
#
# Total GULP energy -644719.654455 kJ/mol
# GULP energy per Si atom -12398.454893 kJ/mol
# Density = 1.757773 g / cm^3
# Si number density = 17.617826 Si / 1000 Ang^3
#
#
#
# Elastic Constant Matrix: (Units=GPa)
#
#
# Indices 1 2 3 4 5 6 
#
# 1 155.6162 35.9902 71.5896 0.0000 0.0000 0.0000
# 2 35.9902 36.1815 24.2852 0.0000 0.0000 0.0000
# 3 71.5896 24.2852 108.6702 0.0000 0.0000 0.0000
# 4 0.0000 0.0000 0.0000 8.7159 0.0000 0.0000
# 5 0.0000 0.0000 0.0000 0.0000 31.5806 0.0000
# 6 0.0000 0.0000 0.0000 0.0000 0.0000 26.6917
#
#
#
# Elastic Compliance Matrix: (Units=1/GPa)
#
#
# Indices 1 2 3 4 5 6 
#
# 1 0.010476 -0.006810 -0.005379 0.000000 0.000000 0.000000
# 2 -0.006810 0.036942 -0.003770 0.000000 0.000000 0.000000
# 3 -0.005379 -0.003770 0.013588 0.000000 0.000000 0.000000
# 4 0.000000 0.000000 0.000000 0.114733 0.000000 0.000000
# 5 0.000000 0.000000 0.000000 0.000000 0.031665 0.000000
# 6 0.000000 0.000000 0.000000 0.000000 0.000000 0.037465
#
#
# Mechanical properties :
#
#
# Convention : Reuss Voigt Hill
#
# Bulk Modulus (GPa) = 34.37723 62.68863 48.53293
# Shear Modulus (GPa) = 17.45303 24.63783 21.04543
#
# Velocity S-wave (km/s) = 3.15087 3.74366 3.45998
# Velocity P-wave (km/s) = 5.72646 7.37200 6.60071
#
# Compressibility (1/GPa) = 0.02908902
#
# Stress axis : x y z
#
# Youngs Moduli (GPa) = 95.45909 27.06924 73.59224
#
# Poissons Ratio (x) = 0.18433 0.39588
# Poissons Ratio (y) = 0.65004 0.27742
# Poissons Ratio (z) = 0.51351 0.10204
#
# Static dielectric constant tensor:
#      x y z
#    x 3.536640 0.000000 0.000000 
#    y 0.000000 2.901480 0.000000 
#    z 0.000000 0.000000 3.390460 
# 
# 
# High freq. dielectric constant tensor:
#      x y z
#    x 1.693740 0.000000 0.000000 
#    y 0.000000 1.643690 0.000000 
#    z 0.000000 0.000000 1.667230 
# 
# From -- ./inp_files/68462.got.cif
#   From: 2010.03.12/outbox.cif.g09.slc.cpg/sg65_35_cif.got.tgz:68462.got - 2010.04.10 20:52:16.
