data_PCOD8267933
_publ_section_title
;
Structure prediction by ZEFSAII (Michael W. Deem and Ramdas Pophale) SiO2 
 PCOD8267933
Probable space group: C M M M
;
_chemical_formula_sum "Si O2"
_cell_formula_units_Z 80
_cell_length_a 8.700612
_cell_length_b 26.048407
_cell_length_c 19.822648
_cell_angle_alpha 90.000000
_cell_angle_beta 90.000000
_cell_angle_gamma 90.000000
_cell_volume 4492.547111
_symmetry_space_group_name_H-M "C M M M"
_symmetry_group_IT_number 65
_symmetry_cell_setting 'orthorhombic'
loop_
_space_group_symop_operation_xyz
x,y,z
-x,-y,z
x,-y,-z
-x,y,-z
-x,-y,-z
x,y,-z
-x,y,z
x,-y,z
1/2+x,1/2+y,z
1/2-x,1/2-y,z
1/2+x,1/2-y,-z
1/2-x,1/2+y,-z
1/2-x,1/2-y,-z
1/2+x,1/2+y,-z
1/2-x,1/2+y,z
1/2+x,1/2-y,z
loop_
_atom_site_type_symbol
_atom_site_label
_atom_site_fract_x
_atom_site_fract_y
_atom_site_fract_z
Si Si1 0.676640 0.841174 0.635935
Si Si2 0.816461 0.196280 0.225959
Si Si3 0.315955 0.500000 0.076534
Si Si4 0.680524 0.694723 0.500000
Si Si5 0.828825 0.555803 0.298271
Si Si6 0.322390 0.409711 0.830801
O O1 0.500000 0.822819 0.630907
O O2 0.753916 0.811392 0.698277
O O3 0.764473 0.833010 0.567003
O O4 0.692431 0.902174 0.644286
O O5 0.750000 0.250000 0.197136
O O6 0.758012 0.149178 0.176988
O O7 0.000000 0.198170 0.228267
O O8 0.500000 0.500000 0.081592
O O9 0.250707 0.552707 0.111512
O O10 0.257074 0.500000 0.000000
O O11 0.500000 0.697562 0.500000
O O12 0.750000 0.750000 0.500000
O O13 0.806297 0.500000 0.331970
O O14 0.703644 0.562205 0.239964
O O15 0.000000 0.561252 0.266111
O O16 0.500000 0.404730 0.846427
#
# Coordination Sequence:
#
# PCOD8267933 Si02
#       6
#    16  16   8   8  16  16
#     4  10  20  34  51  72  97 126 161 200 244 292
#     4  10  19  31  48  72  99 127 163 205 249 293
#     4   9  16  28  49  77 105 130 161 202 243 285
#     4  12  24  38  53  68  91 123 160 201 247 296
#     4   9  17  30  50  74  99 127 158 195 240 289
#     4   9  17  29  48  73  99 129 164 202 243 287
#
# _framework density 17.807269000000002
#
# number of rings (size 3 to 8) (size 9 to 14) (size 15 to 20)
#    0.000    2.300    1.000    2.700    0.000    1.600 
#    0.000    0.500    0.000    4.800    0.000    0.000 
#    0.000    0.000    0.000    0.000    0.000    0.600 
#
# Total GULP energy -495602.252406 kJ/mol
# GULP energy per Si atom -12390.056310 kJ/mol
# Density = 1.776674 g / cm^3
# Si number density = 17.807269 Si / 1000 Ang^3
#
#
#
# Elastic Constant Matrix: (Units=GPa)
#
#
# Indices 1 2 3 4 5 6 
#
# 1 63.4354 36.6130 27.1350 0.0000 0.0000 0.0000
# 2 36.6130 170.8324 65.3828 0.0000 0.0000 0.0000
# 3 27.1350 65.3828 102.7364 0.0000 0.0000 0.0000
# 4 0.0000 0.0000 0.0000 31.3833 0.0000 0.0000
# 5 0.0000 0.0000 0.0000 0.0000 13.3420 0.0000
# 6 0.0000 0.0000 0.0000 0.0000 0.0000 21.3829
#
#
#
# Elastic Compliance Matrix: (Units=1/GPa)
#
#
# Indices 1 2 3 4 5 6 
#
# 1 0.018736 -0.002805 -0.003164 0.000000 0.000000 0.000000
# 2 -0.002805 0.008158 -0.004451 0.000000 0.000000 0.000000
# 3 -0.003164 -0.004451 0.013402 0.000000 0.000000 0.000000
# 4 0.000000 0.000000 0.000000 0.031864 0.000000 0.000000
# 5 0.000000 0.000000 0.000000 0.000000 0.074952 0.000000
# 6 0.000000 0.000000 0.000000 0.000000 0.000000 0.046766
#
#
# Mechanical properties :
#
#
# Convention : Reuss Voigt Hill
#
# Bulk Modulus (GPa) = 51.39473 66.14065 58.76769
# Shear Modulus (GPa) = 22.60356 27.07984 24.84170
#
# Velocity S-wave (km/s) = 3.56665 3.90387 3.73906
# Velocity P-wave (km/s) = 6.77389 7.58574 7.19128
#
# Compressibility (1/GPa) = 0.01945725
#
# Stress axis : x y z
#
# Youngs Moduli (GPa) = 53.37267 122.57187 74.61479
#
# Poissons Ratio (x) = 0.34378 0.23606
# Poissons Ratio (y) = 0.14970 0.33214
# Poissons Ratio (z) = 0.16885 0.54561
#
# Static dielectric constant tensor:
#      x y z
#    x 3.320530 0.000000 0.000000 
#    y 0.000000 3.777020 0.000000 
#    z 0.000000 0.000000 3.076870 
# 
# 
# High freq. dielectric constant tensor:
#      x y z
#    x 1.683080 0.000000 0.000000 
#    y 0.000000 1.710350 0.000000 
#    z 0.000000 0.000000 1.647700 
# 
# From -- ./inp_files/50169.got.cif
#   From: 2010.03.12/outbox.cif.g09.slc.cpg/sg65_26_cif.got.tgz:50169.got - 2010.04.10 20:52:16.
