data_PCOD8267601
_publ_section_title
;
Structure prediction by ZEFSAII (Michael W. Deem and Ramdas Pophale) SiO2 
 PCOD8267601
Probable space group: C M M M
;
_chemical_formula_sum "Si O2"
_cell_formula_units_Z 96
_cell_length_a 20.433110
_cell_length_b 27.799944
_cell_length_c 9.398406
_cell_angle_alpha 90.000000
_cell_angle_beta 90.000000
_cell_angle_gamma 90.000000
_cell_volume 5338.664095
_symmetry_space_group_name_H-M "C M M M"
_symmetry_group_IT_number 65
_symmetry_cell_setting 'orthorhombic'
loop_
_space_group_symop_operation_xyz
x,y,z
-x,-y,z
x,-y,-z
-x,y,-z
-x,-y,-z
x,y,-z
-x,y,z
x,-y,z
1/2+x,1/2+y,z
1/2-x,1/2-y,z
1/2+x,1/2-y,-z
1/2-x,1/2+y,-z
1/2-x,1/2-y,-z
1/2+x,1/2+y,-z
1/2-x,1/2+y,z
1/2+x,1/2-y,z
loop_
_atom_site_type_symbol
_atom_site_label
_atom_site_fract_x
_atom_site_fract_y
_atom_site_fract_z
Si Si1 0.815713 0.946416 0.831328
Si Si2 0.927379 0.553749 0.831012
Si Si3 0.925673 0.780009 0.664397
Si Si4 0.425486 0.625419 0.833855
Si Si5 0.807276 0.615562 0.169185
Si Si6 0.807683 0.286846 0.664610
O O1 0.880093 0.917987 0.779097
O O2 0.751311 0.918704 0.779120
O O3 0.816730 0.000000 0.764683
O O4 0.815392 0.950180 0.000000
O O5 0.911881 0.500000 0.773384
O O6 0.874379 0.591599 0.773056
O O7 0.000000 0.569841 0.780695
O O8 0.923831 0.552428 0.000000
O O9 0.918003 0.794285 0.500000
O O10 0.904559 0.826237 0.754192
O O11 0.877690 0.736424 0.703861
O O12 0.000000 0.764068 0.700482
O O13 0.500000 0.611012 0.798878
O O14 0.414864 0.635299 0.000000
O O15 0.797623 0.667042 0.238644
O O16 0.807443 0.622045 0.000000
O O17 0.805065 0.302176 0.500000
O O18 0.750000 0.250000 0.701261
#
# Coordination Sequence:
#
# PCOD8267601 Si02
#       6
#    16  16  16  16  16  16
#     4   9  17  29  46  69  96 123 151 185 225 270
#     4   8  14  26  45  69  96 123 150 182 222 269
#     4   9  18  33  51  68  89 121 156 186 223 274
#     4   9  17  29  47  71  95 119 150 188 227 265
#     4  10  19  30  48  72  93 117 153 193 228 263
#     4  10  21  35  49  66  91 123 155 187 228 277
#
# _framework density 17.982026999999999
#
# number of rings (size 3 to 8) (size 9 to 14) (size 15 to 20)
#    0.000    2.833    0.000    2.000    0.000    4.000 
#    0.000    1.667    0.000    3.500    0.000    3.500 
#    0.000    0.000    0.000    0.000    0.000    0.000 
#
# Total GULP energy -595139.935812 kJ/mol
# GULP energy per Si atom -12398.748663 kJ/mol
# Density = 1.794110 g / cm^3
# Si number density = 17.982027 Si / 1000 Ang^3
#
#
#
# Elastic Constant Matrix: (Units=GPa)
#
#
# Indices 1 2 3 4 5 6 
#
# 1 114.6801 65.3094 25.9528 0.0000 0.0000 0.0000
# 2 65.3094 125.2555 36.4057 0.0000 0.0000 0.0000
# 3 25.9528 36.4057 28.2349 0.0000 0.0000 0.0000
# 4 0.0000 0.0000 0.0000 -7.7935 0.0000 0.0000
# 5 0.0000 0.0000 0.0000 0.0000 13.4161 0.0000
# 6 0.0000 0.0000 0.0000 0.0000 0.0000 32.9746
#
#
#
# Elastic Compliance Matrix: (Units=1/GPa)
#
#
# Indices 1 2 3 4 5 6 
#
# 1 0.012841 -0.005222 -0.005070 0.000000 0.000000 0.000000
# 2 -0.005222 0.014892 -0.014402 0.000000 0.000000 0.000000
# 3 -0.005070 -0.014402 0.058648 0.000000 0.000000 0.000000
# 4 0.000000 0.000000 0.000000 -0.128312 0.000000 0.000000
# 5 0.000000 0.000000 0.000000 0.000000 0.074537 0.000000
# 6 0.000000 0.000000 0.000000 0.000000 0.000000 0.030326
#
#
# Mechanical properties :
#
#
# Convention : Reuss Voigt Hill
#
# Bulk Modulus (GPa) = 27.03250 58.16734 42.59992
# Shear Modulus (GPa) = 40.11141 17.08628 28.59885
#
# Velocity S-wave (km/s) = 4.72809 3.08585 3.99232
# Velocity P-wave (km/s) = 6.69867 6.71672 6.70770
#
# Compressibility (1/GPa) = 0.03699251
#
# Stress axis : x y z
#
# Youngs Moduli (GPa) = 77.87486 67.14825 17.05089
#
# Poissons Ratio (x) = 0.35063 0.08645
# Poissons Ratio (y) = 0.40664 0.24557
# Poissons Ratio (z) = 0.39485 0.96709
#
# Static dielectric constant tensor:
#      x y z
#    x 3.686530 0.000000 0.000000 
#    y 0.000000 3.356650 0.000000 
#    z 0.000000 0.000000 2.928480 
# 
# 
# High freq. dielectric constant tensor:
#      x y z
#    x 1.716160 0.000000 0.000000 
#    y 0.000000 1.694810 0.000000 
#    z 0.000000 0.000000 1.651480 
# 
# From -- ./inp_files/12284.got.cif
#   From: 2010.03.12/outbox.cif.g09.slc.cpg/sg65_7_cif.got.tgz:12284.got - 2010.04.10 20:52:16.
