data_PCOD8267407
_publ_section_title
;
Structure prediction by ZEFSAII (Michael W. Deem and Ramdas Pophale) SiO2 
 PCOD8267407
Probable space group: C M M M
;
_chemical_formula_sum "Si O2"
_cell_formula_units_Z 104
_cell_length_a 27.388318
_cell_length_b 8.954827
_cell_length_c 26.256263
_cell_angle_alpha 90.000000
_cell_angle_beta 90.000000
_cell_angle_gamma 90.000000
_cell_volume 6439.549348
_symmetry_space_group_name_H-M "C M M M"
_symmetry_group_IT_number 65
_symmetry_cell_setting 'orthorhombic'
loop_
_space_group_symop_operation_xyz
x,y,z
-x,-y,z
x,-y,-z
-x,y,-z
-x,-y,-z
x,y,-z
-x,y,z
x,-y,z
1/2+x,1/2+y,z
1/2-x,1/2-y,z
1/2+x,1/2-y,-z
1/2-x,1/2+y,-z
1/2-x,1/2-y,-z
1/2+x,1/2+y,-z
1/2-x,1/2+y,z
1/2+x,1/2-y,z
loop_
_atom_site_type_symbol
_atom_site_label
_atom_site_fract_x
_atom_site_fract_y
_atom_site_fract_z
Si Si1 0.557234 0.176567 0.889673
Si Si2 0.056563 0.673419 0.000000
Si Si3 0.800332 0.174000 0.558706
Si Si4 0.302151 0.824211 0.743883
Si Si5 0.859707 0.674493 0.357350
Si Si6 0.444102 0.673063 0.303665
Si Si7 0.888269 0.174128 0.798013
O O1 0.500000 0.213877 0.882530
O O2 0.589170 0.266926 0.849952
O O3 0.565698 0.000000 0.882877
O O4 0.576591 0.234105 0.945668
O O5 0.066816 0.500000 0.000000
O O6 0.000000 0.707896 0.000000
O O7 0.812414 0.207624 0.500000
O O8 0.750000 0.250000 0.575522
O O9 0.843992 0.241124 0.591637
O O10 0.795077 0.000000 0.569838
O O11 0.250000 0.750000 0.750610
O O12 0.322842 0.783210 0.688183
O O13 0.337855 0.759369 0.786951
O O14 0.297660 0.000000 0.751536
O O15 0.860545 0.500000 0.368354
O O16 0.913942 0.728511 0.343619
O O17 0.500000 0.721747 0.308604
O O18 0.436215 0.500000 0.317029
O O19 0.427092 0.707568 0.246400
O O20 0.876668 0.000000 0.802923
#
# Coordination Sequence:
#
# PCOD8267407 Si02
#       7
#    16   8  16  16  16  16  16
#     4   9  16  27  44  65  91 123 157 192 228 268
#     4   7  12  24  41  61  86 119 156 189 225 269
#     4  10  20  33  50  72  97 124 153 186 226 272
#     4  10  20  33  48  68  93 121 153 187 226 271
#     4  10  20  32  49  72  96 123 153 187 227 271
#     4   9  18  32  48  66  92 126 159 190 226 269
#     4  10  19  30  45  67  94 123 154 188 228 272
#
# _framework density 16.150198
#
# number of rings (size 3 to 8) (size 9 to 14) (size 15 to 20)
#    0.000    2.538    0.000    3.692    0.000    5.846 
#    0.000    0.385    0.000    1.846    0.000    3.769 
#    0.000    0.000    0.000    0.000    0.000    0.000 
#
# Total GULP energy -644703.001259 kJ/mol
# GULP energy per Si atom -12398.134640 kJ/mol
# Density = 1.611344 g / cm^3
# Si number density = 16.150198 Si / 1000 Ang^3
#
#
#
# Elastic Constant Matrix: (Units=GPa)
#
#
# Indices 1 2 3 4 5 6 
#
# 1 110.2670 48.6279 57.2015 0.0000 0.0000 0.0000
# 2 48.6279 71.9737 49.5282 0.0000 0.0000 0.0000
# 3 57.2015 49.5282 104.7654 0.0000 0.0000 0.0000
# 4 0.0000 0.0000 0.0000 26.1326 0.0000 0.0000
# 5 0.0000 0.0000 0.0000 0.0000 21.3864 0.0000
# 6 0.0000 0.0000 0.0000 0.0000 0.0000 29.4403
#
#
#
# Elastic Compliance Matrix: (Units=1/GPa)
#
#
# Indices 1 2 3 4 5 6 
#
# 1 0.014401 -0.006402 -0.004837 0.000000 0.000000 0.000000
# 2 -0.006402 0.023439 -0.007586 0.000000 0.000000 0.000000
# 3 -0.004837 -0.007586 0.015772 0.000000 0.000000 0.000000
# 4 0.000000 0.000000 0.000000 0.038266 0.000000 0.000000
# 5 0.000000 0.000000 0.000000 0.000000 0.046759 0.000000
# 6 0.000000 0.000000 0.000000 0.000000 0.000000 0.033967
#
#
# Mechanical properties :
#
#
# Convention : Reuss Voigt Hill
#
# Bulk Modulus (GPa) = 62.63875 66.41347 64.52611
# Shear Modulus (GPa) = 23.19399 24.16844 23.68121
#
# Velocity S-wave (km/s) = 3.79376 3.87263 3.83340
# Velocity P-wave (km/s) = 7.61968 7.82356 7.72229
#
# Compressibility (1/GPa) = 0.01596456
#
# Stress axis : x y z
#
# Youngs Moduli (GPa) = 69.43983 42.66376 63.40346
#
# Poissons Ratio (x) = 0.27311 0.30665
# Poissons Ratio (y) = 0.44452 0.48096
# Poissons Ratio (z) = 0.33585 0.32363
#
# Static dielectric constant tensor:
#      x y z
#    x 2.920670 0.000000 0.000000 
#    y 0.000000 3.052410 0.000000 
#    z 0.000000 0.000000 3.155060 
# 
# 
# High freq. dielectric constant tensor:
#      x y z
#    x 1.601540 0.000000 0.000000 
#    y 0.000000 1.625750 0.000000 
#    z 0.000000 0.000000 1.617400 
# 
# From -- ./inp_files/71815.got.cif
#   From: 2010.03.12/outbox.cif.g09.slc.cpg/sg65_36_cif.got.tgz:71815.got - 2010.04.10 20:52:16.
