data_PCOD8267920
_publ_section_title
;
Structure prediction by ZEFSAII (Michael W. Deem and Ramdas Pophale) SiO2 
 PCOD8267920
Probable space group: C M M M
;
_chemical_formula_sum "Si O2"
_cell_formula_units_Z 104
_cell_length_a 28.490030
_cell_length_b 9.305263
_cell_length_c 23.319150
_cell_angle_alpha 90.000000
_cell_angle_beta 90.000000
_cell_angle_gamma 90.000000
_cell_volume 6182.075077
_symmetry_space_group_name_H-M "C M M M"
_symmetry_group_IT_number 65
_symmetry_cell_setting 'orthorhombic'
loop_
_space_group_symop_operation_xyz
x,y,z
-x,-y,z
x,-y,-z
-x,y,-z
-x,-y,-z
x,y,-z
-x,y,z
x,-y,z
1/2+x,1/2+y,z
1/2-x,1/2-y,z
1/2+x,1/2-y,-z
1/2-x,1/2+y,-z
1/2-x,1/2-y,-z
1/2+x,1/2+y,-z
1/2-x,1/2+y,z
1/2+x,1/2-y,z
loop_
_atom_site_type_symbol
_atom_site_label
_atom_site_fract_x
_atom_site_fract_y
_atom_site_fract_z
Si Si1 0.853551 0.663989 0.781922
Si Si2 0.799328 0.831626 0.875563
Si Si3 0.946637 0.832732 0.387857
Si Si4 0.796487 0.162581 0.000000
Si Si5 0.864169 0.665328 0.435798
Si Si6 0.052198 0.336989 0.726799
Si Si7 0.298235 0.167159 0.666193
O O1 0.842497 0.500000 0.799839
O O2 0.836170 0.771152 0.830532
O O3 0.909449 0.690326 0.776212
O O4 0.829463 0.701391 0.721599
O O5 0.750000 0.750000 0.868694
O O6 0.822565 0.805759 0.939345
O O7 0.790863 0.000000 0.863503
O O8 0.912077 0.755510 0.432110
O O9 0.938151 0.770800 0.324776
O O10 0.000000 0.804938 0.408166
O O11 0.934673 0.000000 0.386197
O O12 0.750000 0.250000 0.000000
O O13 0.779503 0.000000 0.000000
O O14 0.843697 0.683991 0.500000
O O15 0.876347 0.500000 0.422355
O O16 0.825850 0.721943 0.390256
O O17 0.057880 0.500000 0.703266
O O18 0.000000 0.312873 0.752673
O O19 0.250000 0.250000 0.671944
O O20 0.286472 0.000000 0.660974
#
# Coordination Sequence:
#
# PCOD8267920 Si02
#       7
#    16  16  16   8  16  16  16
#     4  10  19  32  50  75 103 128 160 202 245 289
#     4  10  19  31  48  72 102 137 172 205 242 285
#     4  10  20  33  51  76 103 126 151 192 247 300
#     4   8  16  30  46  66  97 134 171 207 240 279
#     4  10  21  38  56  71  91 125 168 205 240 291
#     4   9  17  32  54  75  98 130 163 195 237 291
#     4  10  21  36  51  71  96 125 159 201 245 288
#
# _framework density 16.822831000000001
#
# number of rings (size 3 to 8) (size 9 to 14) (size 15 to 20)
#    0.000    2.308    1.538    1.385    0.000    5.538 
#    0.000    1.538    0.000    0.000    0.000    0.538 
#    0.000    4.308    0.000    0.000    0.000    0.000 
#
# Total GULP energy -644600.605258 kJ/mol
# GULP energy per Si atom -12396.165486 kJ/mol
# Density = 1.678454 g / cm^3
# Si number density = 16.822831 Si / 1000 Ang^3
#
#
#
# Elastic Constant Matrix: (Units=GPa)
#
#
# Indices 1 2 3 4 5 6 
#
# 1 95.9622 41.2268 48.8564 0.0000 0.0000 0.0000
# 2 41.2268 70.3742 44.6054 0.0000 0.0000 0.0000
# 3 48.8564 44.6054 112.2480 0.0000 0.0000 0.0000
# 4 0.0000 0.0000 0.0000 23.2130 0.0000 0.0000
# 5 0.0000 0.0000 0.0000 0.0000 17.3488 0.0000
# 6 0.0000 0.0000 0.0000 0.0000 0.0000 25.3298
#
#
#
# Elastic Compliance Matrix: (Units=1/GPa)
#
#
# Indices 1 2 3 4 5 6 
#
# 1 0.015230 -0.006310 -0.004122 0.000000 0.000000 0.000000
# 2 -0.006310 0.021608 -0.005840 0.000000 0.000000 0.000000
# 3 -0.004122 -0.005840 0.013024 0.000000 0.000000 0.000000
# 4 0.000000 0.000000 0.000000 0.043079 0.000000 0.000000
# 5 0.000000 0.000000 0.000000 0.000000 0.057641 0.000000
# 6 0.000000 0.000000 0.000000 0.000000 0.000000 0.039479
#
#
# Mechanical properties :
#
#
# Convention : Reuss Voigt Hill
#
# Bulk Modulus (GPa) = 57.74209 60.88463 59.31336
# Shear Modulus (GPa) = 21.89368 22.77137 22.33253
#
# Velocity S-wave (km/s) = 3.61144 3.68312 3.64746
# Velocity P-wave (km/s) = 7.19640 7.37275 7.28511
#
# Compressibility (1/GPa) = 0.01731839
#
# Stress axis : x y z
#
# Youngs Moduli (GPa) = 65.66058 46.27947 76.78382
#
# Poissons Ratio (x) = 0.29201 0.31647
# Poissons Ratio (y) = 0.41430 0.44844
# Poissons Ratio (z) = 0.27062 0.27029
#
# Static dielectric constant tensor:
#      x y z
#    x 3.125480 0.000000 0.000000 
#    y 0.000000 3.205240 0.000000 
#    z 0.000000 0.000000 3.346420 
# 
# 
# High freq. dielectric constant tensor:
#      x y z
#    x 1.634170 0.000000 0.000000 
#    y 0.000000 1.654050 0.000000 
#    z 0.000000 0.000000 1.637310 
# 
# From -- ./inp_files/68240.got.cif
#   From: 2010.03.12/outbox.cif.g09.slc.cpg/sg65_35_cif.got.tgz:68240.got - 2010.04.10 20:52:16.
