data_PCOD8267563
_publ_section_title
;
Structure prediction by ZEFSAII (Michael W. Deem and Ramdas Pophale) SiO2 
 PCOD8267563
Probable space group: C M M M
;
_chemical_formula_sum "Si O2"
_cell_formula_units_Z 104
_cell_length_a 18.327121
_cell_length_b 9.314312
_cell_length_c 33.587734
_cell_angle_alpha 90.000000
_cell_angle_beta 90.000000
_cell_angle_gamma 90.000000
_cell_volume 5733.578113
_symmetry_space_group_name_H-M "C M M M"
_symmetry_group_IT_number 65
_symmetry_cell_setting 'orthorhombic'
loop_
_space_group_symop_operation_xyz
x,y,z
-x,-y,z
x,-y,-z
-x,y,-z
-x,-y,-z
x,y,-z
-x,y,z
x,-y,z
1/2+x,1/2+y,z
1/2-x,1/2-y,z
1/2+x,1/2-y,-z
1/2-x,1/2+y,-z
1/2-x,1/2-y,-z
1/2+x,1/2+y,-z
1/2-x,1/2+y,z
1/2+x,1/2-y,z
loop_
_atom_site_type_symbol
_atom_site_label
_atom_site_fract_x
_atom_site_fract_y
_atom_site_fract_z
Si Si1 0.083718 0.667150 0.654014
Si Si2 0.326058 0.169902 0.268706
Si Si3 0.674474 0.829544 0.882202
Si Si4 0.325593 0.330538 0.500000
Si Si5 0.581482 0.170368 0.044156
Si Si6 0.581546 0.169926 0.806356
Si Si7 0.583853 0.667386 0.423421
O O1 0.092020 0.500000 0.645066
O O2 0.131675 0.714562 0.691439
O O3 0.113147 0.750567 0.615423
O O4 0.000000 0.707970 0.663319
O O5 0.250000 0.250000 0.267785
O O6 0.373637 0.226324 0.231601
O O7 0.312816 0.000000 0.266319
O O8 0.750000 0.750000 0.876028
O O9 0.638107 0.772161 0.923103
O O10 0.621614 0.781840 0.846554
O O11 0.687531 0.000000 0.882599
O O12 0.312384 0.500000 0.500000
O O13 0.250000 0.250000 0.500000
O O14 0.370238 0.281349 0.461284
O O15 0.500000 0.230051 0.052889
O O16 0.578619 0.000000 0.046567
O O17 0.607055 0.219905 0.000000
O O18 0.500000 0.236305 0.805838
O O19 0.575849 0.000000 0.804309
O O20 0.500000 0.706879 0.432039
O O21 0.593859 0.500000 0.415325
#
# Coordination Sequence:
#
# PCOD8267563 Si02
#       7
#    16  16  16   8  16  16  16
#     4   9  18  33  52  73  96 124 160 198 234 275
#     4  10  20  33  50  72  99 128 156 192 238 284
#     4  10  19  30  47  71  97 124 155 194 240 288
#     4  10  21  35  51  73 101 130 160 196 238 284
#     4   8  14  26  45  68  92 120 159 203 238 272
#     4   9  17  31  52  73  91 119 163 205 235 272
#     4   9  18  34  55  75  96 126 163 200 237 278
#
# _framework density 18.138760999999999
#
# number of rings (size 3 to 8) (size 9 to 14) (size 15 to 20)
#    0.000    2.769    0.000    2.077    0.000    6.769 
#    0.000    3.077    0.000    6.462    0.000    1.077 
#    0.000    0.000    0.000    0.000    0.000    0.000 
#
# Total GULP energy -644776.614773 kJ/mol
# GULP energy per Si atom -12399.550284 kJ/mol
# Density = 1.809748 g / cm^3
# Si number density = 18.138761 Si / 1000 Ang^3
#
#
#
# Elastic Constant Matrix: (Units=GPa)
#
#
# Indices 1 2 3 4 5 6 
#
# 1 146.5097 38.6088 101.5132 0.0000 0.0000 0.0000
# 2 38.6088 24.6696 41.8240 0.0000 0.0000 0.0000
# 3 101.5132 41.8240 185.6160 0.0000 0.0000 0.0000
# 4 0.0000 0.0000 0.0000 16.2921 0.0000 0.0000
# 5 0.0000 0.0000 0.0000 0.0000 16.4798 0.0000
# 6 0.0000 0.0000 0.0000 0.0000 0.0000 28.6513
#
#
#
# Elastic Compliance Matrix: (Units=1/GPa)
#
#
# Indices 1 2 3 4 5 6 
#
# 1 0.013378 -0.013807 -0.004205 0.000000 0.000000 0.000000
# 2 -0.013807 0.079844 -0.010440 0.000000 0.000000 0.000000
# 3 -0.004205 -0.010440 0.010040 0.000000 0.000000 0.000000
# 4 0.000000 0.000000 0.000000 0.061379 0.000000 0.000000
# 5 0.000000 0.000000 0.000000 0.000000 0.060680 0.000000
# 6 0.000000 0.000000 0.000000 0.000000 0.000000 0.034902
#
#
# Mechanical properties :
#
#
# Convention : Reuss Voigt Hill
#
# Bulk Modulus (GPa) = 21.57174 80.07639 50.82406
# Shear Modulus (GPa) = 15.03399 23.94126 19.48763
#
# Velocity S-wave (km/s) = 2.88207 3.63698 3.28130
# Velocity P-wave (km/s) = 4.79516 7.86633 6.51432
#
# Compressibility (1/GPa) = 0.04635695
#
# Stress axis : x y z
#
# Youngs Moduli (GPa) = 74.75142 12.52443 99.60627
#
# Poissons Ratio (x) = 0.17293 0.41885
# Poissons Ratio (y) = 1.03212 1.03985
# Poissons Ratio (z) = 0.31434 0.13075
#
# Static dielectric constant tensor:
#      x y z
#    x 3.399940 0.000000 0.000000 
#    y 0.000000 2.951450 0.000000 
#    z 0.000000 0.000000 3.680020 
# 
# 
# High freq. dielectric constant tensor:
#      x y z
#    x 1.706760 0.000000 0.000000 
#    y 0.000000 1.659090 0.000000 
#    z 0.000000 0.000000 1.721890 
# 
# From -- ./inp_files/77659.got.cif
#   From: 2010.03.12/outbox.cif.g09.slc.cpg/sg65_39_cif.got.tgz:77659.got - 2010.04.10 20:52:16.
