data_PCOD8267953
_publ_section_title
;
Structure prediction by ZEFSAII (Michael W. Deem and Ramdas Pophale) SiO2 
 PCOD8267953
Probable space group: C M M M
;
_chemical_formula_sum "Si O2"
_cell_formula_units_Z 72
_cell_length_a 18.965200
_cell_length_b 9.240694
_cell_length_c 23.198728
_cell_angle_alpha 90.000000
_cell_angle_beta 90.000000
_cell_angle_gamma 90.000000
_cell_volume 4065.614428
_symmetry_space_group_name_H-M "C M M M"
_symmetry_group_IT_number 65
_symmetry_cell_setting 'orthorhombic'
loop_
_space_group_symop_operation_xyz
x,y,z
-x,-y,z
x,-y,-z
-x,y,-z
-x,-y,-z
x,y,-z
-x,y,z
x,-y,z
1/2+x,1/2+y,z
1/2-x,1/2-y,z
1/2+x,1/2-y,-z
1/2-x,1/2+y,-z
1/2-x,1/2-y,-z
1/2+x,1/2+y,-z
1/2-x,1/2+y,z
1/2+x,1/2-y,z
loop_
_atom_site_type_symbol
_atom_site_label
_atom_site_fract_x
_atom_site_fract_y
_atom_site_fract_z
Si Si1 0.674562 0.327773 0.000000
Si Si2 0.178736 0.830635 0.338312
Si Si3 0.420667 0.671337 0.106636
Si Si4 0.921688 0.171636 0.436831
Si Si5 0.822021 0.168790 0.791819
O O1 0.750000 0.250000 0.000000
O O2 0.629205 0.275194 0.054869
O O3 0.686987 0.500000 0.000000
O O4 0.250000 0.750000 0.351830
O O5 0.123815 0.765337 0.384291
O O6 0.152731 0.797727 0.273328
O O7 0.191149 0.000000 0.347479
O O8 0.500000 0.737610 0.102133
O O9 0.426974 0.500000 0.104161
O O10 0.384675 0.722095 0.166415
O O11 0.890909 0.215869 0.500000
O O12 0.000000 0.235895 0.430350
O O13 0.924603 0.000000 0.431891
O O14 0.750000 0.250000 0.807395
O O15 0.806438 0.000000 0.800918
#
# Coordination Sequence:
#
# PCOD8267953 Si02
#       5
#     8  16  16  16  16
#     4  10  19  31  49  69  89 116 146 176 212 254
#     4   9  17  28  43  64  87 111 140 174 212 252
#     4   9  17  29  46  68  90 112 143 181 215 247
#     4   8  14  25  41  61  84 109 139 176 214 250
#     4   9  17  29  45  64  87 114 142 174 211 252
#
# _framework density 17.709499999999998
#
# number of rings (size 3 to 8) (size 9 to 14) (size 15 to 20)
#    0.000    3.111    0.000    1.667    0.000    2.667 
#    0.000    4.444    0.000    4.000    0.000    7.778 
#    0.000    0.000    0.000    0.000    0.000    0.000 
#
# Total GULP energy -446178.780201 kJ/mol
# GULP energy per Si atom -12393.855006 kJ/mol
# Density = 1.766919 g / cm^3
# Si number density = 17.709500 Si / 1000 Ang^3
#
#
#
# Elastic Constant Matrix: (Units=GPa)
#
#
# Indices 1 2 3 4 5 6 
#
# 1 152.0507 26.4321 110.6876 0.0000 0.0000 0.0000
# 2 26.4321 16.5310 22.2563 0.0000 0.0000 0.0000
# 3 110.6876 22.2563 165.2103 0.0000 0.0000 0.0000
# 4 0.0000 0.0000 0.0000 12.7704 0.0000 0.0000
# 5 0.0000 0.0000 0.0000 0.0000 38.8694 0.0000
# 6 0.0000 0.0000 0.0000 0.0000 0.0000 22.5495
#
#
#
# Elastic Compliance Matrix: (Units=1/GPa)
#
#
# Indices 1 2 3 4 5 6 
#
# 1 0.014688 -0.012504 -0.008156 0.000000 0.000000 0.000000
# 2 -0.012504 0.084540 -0.003011 0.000000 0.000000 0.000000
# 3 -0.008156 -0.003011 0.011923 0.000000 0.000000 0.000000
# 4 0.000000 0.000000 0.000000 0.078306 0.000000 0.000000
# 5 0.000000 0.000000 0.000000 0.000000 0.025727 0.000000
# 6 0.000000 0.000000 0.000000 0.000000 0.000000 0.044347
#
#
# Mechanical properties :
#
#
# Convention : Reuss Voigt Hill
#
# Bulk Modulus (GPa) = 15.67204 72.50490 44.08847
# Shear Modulus (GPa) = 15.23725 26.46557 20.85141
#
# Velocity S-wave (km/s) = 2.93644 3.86998 3.43507
# Velocity P-wave (km/s) = 4.51283 7.81019 6.37827
#
# Compressibility (1/GPa) = 0.06380792
#
# Stress axis : x y z
#
# Youngs Moduli (GPa) = 68.08407 11.82870 83.87212
#
# Poissons Ratio (x) = 0.14791 0.68406
# Poissons Ratio (y) = 0.85133 0.25256
# Poissons Ratio (z) = 0.55529 0.03562
#
# Static dielectric constant tensor:
#      x y z
#    x 3.485180 0.000000 0.000000 
#    y 0.000000 2.810190 0.000000 
#    z 0.000000 0.000000 3.663010 
# 
# 
# High freq. dielectric constant tensor:
#      x y z
#    x 1.684000 0.000000 0.000000 
#    y 0.000000 1.629590 0.000000 
#    z 0.000000 0.000000 1.704960 
# 
# From -- ./inp_files/59270.got.cif
#   From: 2010.03.12/outbox.cif.g09.slc.cpg/sg65_30_cif.got.tgz:59270.got - 2010.04.10 20:52:16.
