data_PCOD8267737
_publ_section_title
;
Structure prediction by ZEFSAII (Michael W. Deem and Ramdas Pophale) SiO2 
 PCOD8267737
Probable space group: C M M M
;
_chemical_formula_sum "Si O2"
_cell_formula_units_Z 104
_cell_length_a 9.421444
_cell_length_b 27.570423
_cell_length_c 27.605263
_cell_angle_alpha 90.000000
_cell_angle_beta 90.000000
_cell_angle_gamma 90.000000
_cell_volume 7170.555300
_symmetry_space_group_name_H-M "C M M M"
_symmetry_group_IT_number 65
_symmetry_cell_setting 'orthorhombic'
loop_
_space_group_symop_operation_xyz
x,y,z
-x,-y,z
x,-y,-z
-x,y,-z
-x,-y,-z
x,y,-z
-x,y,z
x,-y,z
1/2+x,1/2+y,z
1/2-x,1/2-y,z
1/2+x,1/2-y,-z
1/2-x,1/2+y,-z
1/2-x,1/2-y,-z
1/2+x,1/2+y,-z
1/2-x,1/2+y,z
1/2+x,1/2-y,z
loop_
_atom_site_type_symbol
_atom_site_label
_atom_site_fract_x
_atom_site_fract_y
_atom_site_fract_z
Si Si1 0.658914 0.945126 0.633095
Si Si2 0.000000 0.714282 0.443057
Si Si3 0.837436 0.557750 0.000000
Si Si4 0.837845 0.557790 0.814737
Si Si5 0.000000 0.178681 0.557055
Si Si6 0.838875 0.057758 0.276769
Si Si7 0.337525 0.557737 0.092649
Si Si8 0.714061 0.133975 0.556857
O O1 0.500000 0.944007 0.655070
O O2 0.766847 0.924430 0.673330
O O3 0.661442 0.913214 0.584745
O O4 0.700900 0.000000 0.618464
O O5 0.000000 0.767663 0.418281
O O6 0.864794 0.683103 0.427056
O O7 0.000000 0.722036 0.500000
O O8 0.750581 0.576987 0.046462
O O9 0.842610 0.500000 0.000000
O O10 0.000000 0.577731 0.000000
O O11 0.841743 0.500000 0.814574
O O12 0.755886 0.577852 0.767477
O O13 0.747786 0.576868 0.860547
O O14 0.000000 0.577754 0.816307
O O15 0.872141 0.144936 0.573157
O O16 0.000000 0.187171 0.500000
O O17 0.000000 0.077864 0.273400
O O18 0.839674 0.000000 0.275008
O O19 0.500000 0.577769 0.092278
O O20 0.342758 0.500000 0.092458
O O21 0.692591 0.123405 0.500000
#
# Coordination Sequence:
#
# PCOD8267737 Si02
#       8
#    16   8   8  16   8  16  16  16
#     4  10  20  32  44  58  79 107 135 162 192 230
#     4   9  16  30  49  67  85 105 128 156 189 228
#     4   9  15  21  27  37  55  79 105 133 173 225
#     4   9  15  23  35  49  63  80 107 144 183 223
#     4   9  18  30  47  67  87 105 124 156 195 230
#     4   9  17  28  41  54  68  89 119 154 190 225
#     4   9  15  21  29  41  58  79 104 136 176 223
#     4  10  19  31  46  66  86 106 132 158 189 233
#
# _framework density 14.503757999999999
#
# number of rings (size 3 to 8) (size 9 to 14) (size 15 to 20)
#    0.000    2.692    0.769    2.077    1.077    8.615 
#    0.000    0.769    0.000    1.385    0.000    0.000 
#    0.000    0.000    0.000    0.000    0.000    0.000 
#
# Total GULP energy -644444.861299 kJ/mol
# GULP energy per Si atom -12393.170410 kJ/mol
# Density = 1.447075 g / cm^3
# Si number density = 14.503758 Si / 1000 Ang^3
#
#
#
# Elastic Constant Matrix: (Units=GPa)
#
#
# Indices 1 2 3 4 5 6 
#
# 1 131.3247 13.0610 46.0309 0.0000 0.0000 0.0000
# 2 13.0610 28.1654 19.8653 0.0000 0.0000 0.0000
# 3 46.0309 19.8653 86.4079 0.0000 0.0000 0.0000
# 4 0.0000 0.0000 0.0000 0.7790 0.0000 0.0000
# 5 0.0000 0.0000 0.0000 0.0000 24.5522 0.0000
# 6 0.0000 0.0000 0.0000 0.0000 0.0000 11.8132
#
#
#
# Elastic Compliance Matrix: (Units=1/GPa)
#
#
# Indices 1 2 3 4 5 6 
#
# 1 0.009386 -0.000986 -0.004773 0.000000 0.000000 0.000000
# 2 -0.000986 0.042479 -0.009241 0.000000 0.000000 0.000000
# 3 -0.004773 -0.009241 0.016240 0.000000 0.000000 0.000000
# 4 0.000000 0.000000 0.000000 1.283767 0.000000 0.000000
# 5 0.000000 0.000000 0.000000 0.000000 0.040730 0.000000
# 6 0.000000 0.000000 0.000000 0.000000 0.000000 0.084651
#
#
# Mechanical properties :
#
#
# Convention : Reuss Voigt Hill
#
# Bulk Modulus (GPa) = 26.24298 44.86806 35.55552
# Shear Modulus (GPa) = 3.28957 18.55825 10.92391
#
# Velocity S-wave (km/s) = 1.50765 3.58096 2.74739
# Velocity P-wave (km/s) = 4.60042 6.93544 5.88490
#
# Compressibility (1/GPa) = 0.03810542
#
# Stress axis : x y z
#
# Youngs Moduli (GPa) = 106.54297 23.54085 61.57485
#
# Poissons Ratio (x) = 0.02321 0.29392
# Poissons Ratio (y) = 0.10503 0.56901
# Poissons Ratio (z) = 0.50857 0.21754
#
# Static dielectric constant tensor:
#      x y z
#    x 3.388470 0.000000 0.000000 
#    y 0.000000 2.277280 0.000000 
#    z 0.000000 0.000000 2.775960 
# 
# 
# High freq. dielectric constant tensor:
#      x y z
#    x 1.582110 0.000000 0.000000 
#    y 0.000000 1.474720 0.000000 
#    z 0.000000 0.000000 1.543010 
# 
# From -- ./inp_files/73839.got.cif
#   From: 2010.03.12/outbox.cif.g09.slc.cpg/sg65_37_cif.got.tgz:73839.got - 2010.04.10 20:52:16.
