data_PCOD8267606
_publ_section_title
;
Structure prediction by ZEFSAII (Michael W. Deem and Ramdas Pophale) SiO2 
 PCOD8267606
Probable space group: C M M M
;
_chemical_formula_sum "Si O2"
_cell_formula_units_Z 72
_cell_length_a 8.779724
_cell_length_b 18.840167
_cell_length_c 23.347467
_cell_angle_alpha 90.000000
_cell_angle_beta 90.000000
_cell_angle_gamma 90.000000
_cell_volume 3861.938753
_symmetry_space_group_name_H-M "C M M M"
_symmetry_group_IT_number 65
_symmetry_cell_setting 'orthorhombic'
loop_
_space_group_symop_operation_xyz
x,y,z
-x,-y,z
x,-y,-z
-x,y,-z
-x,-y,-z
x,y,-z
-x,y,z
x,-y,z
1/2+x,1/2+y,z
1/2-x,1/2-y,z
1/2+x,1/2-y,-z
1/2-x,1/2+y,-z
1/2-x,1/2-y,-z
1/2+x,1/2+y,-z
1/2-x,1/2+y,z
1/2+x,1/2-y,z
loop_
_atom_site_type_symbol
_atom_site_label
_atom_site_fract_x
_atom_site_fract_y
_atom_site_fract_z
Si Si1 0.180068 0.327650 0.174506
Si Si2 0.321754 0.327264 0.062032
Si Si3 0.820790 0.327473 0.500000
Si Si4 0.175576 0.418179 0.717449
Si Si5 0.322405 0.417848 0.599157
O O1 0.250000 0.250000 0.181612
O O2 0.242654 0.366043 0.116263
O O3 0.233757 0.373759 0.228397
O O4 0.000000 0.322779 0.170828
O O5 0.500000 0.320635 0.074271
O O6 0.250000 0.250000 0.058906
O O7 0.292579 0.365455 0.000000
O O8 0.750000 0.250000 0.500000
O O9 0.771250 0.369786 0.443937
O O10 0.000000 0.319229 0.500000
O O11 0.200070 0.500000 0.733022
O O12 0.276886 0.395647 0.663292
O O13 0.000000 0.401955 0.702864
O O14 0.500000 0.403834 0.589696
O O15 0.280513 0.500000 0.587892
#
# Coordination Sequence:
#
# PCOD8267606 Si02
#       5
#    16  16   8  16  16
#     4  10  19  30  48  73 100 130 164 208 257 304
#     4   9  16  26  42  65  94 127 163 204 249 300
#     4  12  25  40  59  83 113 145 175 214 263 308
#     4   9  19  36  55  75 101 136 177 214 251 299
#     4  10  21  38  60  84 109 139 177 217 256 306
#
# _framework density 18.643485999999999
#
# number of rings (size 3 to 8) (size 9 to 14) (size 15 to 20)
#    0.000    2.222    0.000    4.667    0.000    6.667 
#    0.000    2.222    0.000    0.667    0.000    4.667 
#    0.000    0.000    0.000    0.000    0.000    0.000 
#
# Total GULP energy -446273.870864 kJ/mol
# GULP energy per Si atom -12396.496413 kJ/mol
# Density = 1.860105 g / cm^3
# Si number density = 18.643486 Si / 1000 Ang^3
#
#
#
# Elastic Constant Matrix: (Units=GPa)
#
#
# Indices 1 2 3 4 5 6 
#
# 1 109.9161 43.9683 72.1207 0.0000 0.0000 0.0000
# 2 43.9683 67.3324 73.5383 0.0000 0.0000 0.0000
# 3 72.1207 73.5383 177.5863 0.0000 0.0000 0.0000
# 4 0.0000 0.0000 0.0000 -41.4379 0.0000 0.0000
# 5 0.0000 0.0000 0.0000 0.0000 36.3478 0.0000
# 6 0.0000 0.0000 0.0000 0.0000 0.0000 23.4411
#
#
#
# Elastic Compliance Matrix: (Units=1/GPa)
#
#
# Indices 1 2 3 4 5 6 
#
# 1 0.013292 -0.005083 -0.003293 0.000000 0.000000 0.000000
# 2 -0.005083 0.029058 -0.009969 0.000000 0.000000 0.000000
# 3 -0.003293 -0.009969 0.011097 0.000000 0.000000 0.000000
# 4 0.000000 0.000000 0.000000 -0.024133 0.000000 0.000000
# 5 0.000000 0.000000 0.000000 0.000000 0.027512 0.000000
# 6 0.000000 0.000000 0.000000 0.000000 0.000000 0.042660
#
#
# Mechanical properties :
#
#
# Convention : Reuss Voigt Hill
#
# Bulk Modulus (GPa) = 59.67646 81.56549 70.62097
# Shear Modulus (GPa) = 35.27034 14.68404 24.97719
#
# Velocity S-wave (km/s) = 4.35424 2.80951 3.66420
# Velocity P-wave (km/s) = 7.57350 7.37357 7.47421
#
# Compressibility (1/GPa) = 0.01675703
#
# Stress axis : x y z
#
# Youngs Moduli (GPa) = 75.23357 34.41338 90.11784
#
# Poissons Ratio (x) = 0.17492 0.29678
# Poissons Ratio (y) = 0.38241 0.89837
# Poissons Ratio (z) = 0.24776 0.34306
#
# Static dielectric constant tensor:
#      x y z
#    x 3.517220 0.000000 0.000000 
#    y 0.000000 3.185000 0.000000 
#    z 0.000000 0.000000 4.118450 
# 
# 
# High freq. dielectric constant tensor:
#      x y z
#    x 1.735520 0.000000 0.000000 
#    y 0.000000 1.683020 0.000000 
#    z 0.000000 0.000000 1.749260 
# 
# From -- ./inp_files/67061.got.cif
#   From: 2010.03.12/outbox.cif.g09.slc.cpg/sg65_34_cif.got.tgz:67061.got - 2010.04.10 20:52:16.
