data_PCOD8267570
_publ_section_title
;
Structure prediction by ZEFSAII (Michael W. Deem and Ramdas Pophale) SiO2 
 PCOD8267570
Probable space group: C M M M
;
_chemical_formula_sum "Si O2"
_cell_formula_units_Z 104
_cell_length_a 27.240398
_cell_length_b 16.045417
_cell_length_c 13.637490
_cell_angle_alpha 90.000000
_cell_angle_beta 90.000000
_cell_angle_gamma 90.000000
_cell_volume 5960.722476
_symmetry_space_group_name_H-M "C M M M"
_symmetry_group_IT_number 65
_symmetry_cell_setting 'orthorhombic'
loop_
_space_group_symop_operation_xyz
x,y,z
-x,-y,z
x,-y,-z
-x,y,-z
-x,-y,-z
x,y,-z
-x,y,z
x,-y,z
1/2+x,1/2+y,z
1/2-x,1/2-y,z
1/2+x,1/2-y,-z
1/2-x,1/2+y,-z
1/2-x,1/2-y,-z
1/2+x,1/2+y,-z
1/2-x,1/2+y,z
1/2+x,1/2-y,z
loop_
_atom_site_type_symbol
_atom_site_label
_atom_site_fract_x
_atom_site_fract_y
_atom_site_fract_z
Si Si1 0.283192 0.329529 0.749646
Si Si2 0.442042 0.000000 0.611897
Si Si3 0.642822 0.246694 0.389991
Si Si4 0.360291 0.405694 0.115135
Si Si5 0.943939 0.327166 0.296546
Si Si6 0.290928 0.092454 0.390884
Si Si7 0.943908 0.775123 0.888112
O O1 0.250000 0.250000 0.780194
O O2 0.327612 0.308980 0.677485
O O3 0.308584 0.370569 0.843793
O O4 0.250051 0.395391 0.691852
O O5 0.425470 0.080290 0.675343
O O6 0.500000 0.000000 0.601439
O O7 0.419701 0.000000 0.500000
O O8 0.646999 0.280067 0.500000
O O9 0.586169 0.241284 0.358496
O O10 0.664189 0.154289 0.376051
O O11 0.369675 0.500000 0.153546
O O12 0.407073 0.348935 0.144635
O O13 0.353218 0.405528 0.000000
O O14 0.935865 0.306342 0.180845
O O15 0.000000 0.314952 0.327698
O O16 0.267859 0.106089 0.500000
O O17 0.312857 0.000000 0.379951
O O18 0.000000 0.808109 0.877462
O O19 0.933277 0.747024 0.000000
#
# Coordination Sequence:
#
# PCOD8267570 Si02
#       7
#    16   8  16  16  16  16  16
#     4  10  19  33  50  71  99 131 167 206 251 301
#     4   9  18  30  45  71 105 135 166 206 245 289
#     4  10  19  30  47  71  98 128 166 205 243 295
#     4  10  20  34  54  79 103 129 168 215 262 310
#     4  10  19  32  50  74 103 137 170 205 252 305
#     4   9  18  31  48  70  96 128 164 204 248 292
#     4   9  18  34  55  78 103 131 167 211 258 310
#
# _framework density 17.447548999999999
#
# number of rings (size 3 to 8) (size 9 to 14) (size 15 to 20)
#    0.000    2.385    1.538    1.385    1.077    3.385 
#    0.000    1.923    0.000    2.308    0.000    0.000 
#    0.000    2.462    0.000    0.000    0.000    0.000 
#
# Total GULP energy -644499.030975 kJ/mol
# GULP energy per Si atom -12394.212134 kJ/mol
# Density = 1.740784 g / cm^3
# Si number density = 17.447549 Si / 1000 Ang^3
#
#
#
# Elastic Constant Matrix: (Units=GPa)
#
#
# Indices 1 2 3 4 5 6 
#
# 1 65.3755 14.7374 32.4505 0.0000 0.0000 0.0000
# 2 14.7374 69.9156 40.2215 0.0000 0.0000 0.0000
# 3 32.4505 40.2215 67.7163 0.0000 0.0000 0.0000
# 4 0.0000 0.0000 0.0000 25.1323 0.0000 0.0000
# 5 0.0000 0.0000 0.0000 0.0000 28.4689 0.0000
# 6 0.0000 0.0000 0.0000 0.0000 0.0000 20.1377
#
#
#
# Elastic Compliance Matrix: (Units=1/GPa)
#
#
# Indices 1 2 3 4 5 6 
#
# 1 0.020252 0.001997 -0.010891 0.000000 0.000000 0.000000
# 2 0.001997 0.021924 -0.013979 0.000000 0.000000 0.000000
# 3 -0.010891 -0.013979 0.028290 0.000000 0.000000 0.000000
# 4 0.000000 0.000000 0.000000 0.039789 0.000000 0.000000
# 5 0.000000 0.000000 0.000000 0.000000 0.035126 0.000000
# 6 0.000000 0.000000 0.000000 0.000000 0.000000 0.049658
#
#
# Mechanical properties :
#
#
# Convention : Reuss Voigt Hill
#
# Bulk Modulus (GPa) = 40.45471 41.98069 41.21770
# Shear Modulus (GPa) = 20.07822 22.45430 21.26626
#
# Velocity S-wave (km/s) = 3.39599 3.59131 3.49502
# Velocity P-wave (km/s) = 6.21400 6.42729 6.32154
#
# Compressibility (1/GPa) = 0.02471900
#
# Stress axis : x y z
#
# Youngs Moduli (GPa) = 49.37758 45.61199 35.34862
#
# Poissons Ratio (x) = -0.09106 0.38498
# Poissons Ratio (y) = -0.09858 0.49414
# Poissons Ratio (z) = 0.53777 0.63761
#
# Static dielectric constant tensor:
#      x y z
#    x 3.284990 0.000000 0.000000 
#    y 0.000000 3.245610 0.000000 
#    z 0.000000 0.000000 3.287020 
# 
# 
# High freq. dielectric constant tensor:
#      x y z
#    x 1.678980 0.000000 0.000000 
#    y 0.000000 1.657830 0.000000 
#    z 0.000000 0.000000 1.669310 
# 
# From -- ./inp_files/32521.got.cif
#   From: 2010.03.12/outbox.cif.g09.slc.cpg/sg65_17_cif.got.tgz:32521.got - 2010.04.10 20:52:16.
