data_PCOD8267385
_publ_section_title
;
Structure prediction by ZEFSAII (Michael W. Deem and Ramdas Pophale) SiO2 
 PCOD8267385
Probable space group: C M M M
;
_chemical_formula_sum "Si O2"
_cell_formula_units_Z 96
_cell_length_a 18.194289
_cell_length_b 8.831851
_cell_length_c 31.479588
_cell_angle_alpha 90.000000
_cell_angle_beta 90.000000
_cell_angle_gamma 90.000000
_cell_volume 5058.431370
_symmetry_space_group_name_H-M "C M M M"
_symmetry_group_IT_number 65
_symmetry_cell_setting 'orthorhombic'
loop_
_space_group_symop_operation_xyz
x,y,z
-x,-y,z
x,-y,-z
-x,y,-z
-x,-y,-z
x,y,-z
-x,y,z
x,-y,z
1/2+x,1/2+y,z
1/2-x,1/2-y,z
1/2+x,1/2-y,-z
1/2-x,1/2+y,-z
1/2-x,1/2-y,-z
1/2+x,1/2+y,-z
1/2-x,1/2+y,z
1/2+x,1/2-y,z
loop_
_atom_site_type_symbol
_atom_site_label
_atom_site_fract_x
_atom_site_fract_y
_atom_site_fract_z
Si Si1 0.082673 0.320035 0.417704
Si Si2 0.582422 0.179957 0.746567
Si Si3 0.912687 0.333985 0.000000
Si Si4 0.417435 0.818701 0.091035
Si Si5 0.830033 0.679925 0.500000
Si Si6 0.670957 0.820144 0.828306
Si Si7 0.329926 0.179918 0.664631
O O1 0.079317 0.500000 0.417948
O O2 0.126175 0.260793 0.458849
O O3 0.124173 0.261608 0.375805
O O4 0.000000 0.253716 0.418196
O O5 0.500000 0.246602 0.744365
O O6 0.620112 0.237022 0.789806
O O7 0.628755 0.240208 0.706561
O O8 0.579275 0.000000 0.745585
O O9 0.890278 0.252936 0.955274
O O10 0.876105 0.500000 0.000000
O O11 0.000000 0.350701 0.000000
O O12 0.500000 0.762016 0.101228
O O13 0.363708 0.758684 0.127728
O O14 0.417252 0.000000 0.089107
O O15 0.823023 0.500000 0.500000
O O16 0.750000 0.750000 0.500000
O O17 0.750000 0.750000 0.821864
O O18 0.677098 0.000000 0.828542
O O19 0.250000 0.250000 0.662833
O O20 0.322980 0.000000 0.664768
#
# Coordination Sequence:
#
# PCOD8267385 Si02
#       7
#    16  16   8  16   8  16  16
#     4   9  17  30  49  71  92 119 158 195 222 256
#     4   9  17  30  49  70  88 112 151 191 220 252
#     4   7  10  18  35  60  85 105 134 181 224 250
#     4   8  13  23  41  63  84 109 144 183 218 252
#     4  10  19  31  49  71  95 122 152 190 232 272
#     4  10  19  30  45  65  90 117 144 178 219 263
#     4  10  19  31  49  71  95 121 148 183 225 268
#
# _framework density 18.978214999999999
#
# number of rings (size 3 to 8) (size 9 to 14) (size 15 to 20)
#    0.000    2.917    0.000    3.250    0.000    5.000 
#    0.000    0.417    0.000    7.000    0.000    0.000 
#    0.000    2.000    0.000    0.000    0.000    0.000 
#
# Total GULP energy -594932.313642 kJ/mol
# GULP energy per Si atom -12394.423201 kJ/mol
# Density = 1.893502 g / cm^3
# Si number density = 18.978215 Si / 1000 Ang^3
#
#
#
# Elastic Constant Matrix: (Units=GPa)
#
#
# Indices 1 2 3 4 5 6 
#
# 1 175.0746 16.4235 101.5438 0.0000 0.0000 0.0000
# 2 16.4235 8.4500 16.2421 0.0000 0.0000 0.0000
# 3 101.5438 16.2421 208.1067 0.0000 0.0000 0.0000
# 4 0.0000 0.0000 0.0000 5.4479 0.0000 0.0000
# 5 0.0000 0.0000 0.0000 0.0000 30.1185 0.0000
# 6 0.0000 0.0000 0.0000 0.0000 0.0000 24.6932
#
#
#
# Elastic Compliance Matrix: (Units=1/GPa)
#
#
# Indices 1 2 3 4 5 6 
#
# 1 0.008660 -0.010247 -0.003426 0.000000 0.000000 0.000000
# 2 -0.010247 0.151355 -0.006813 0.000000 0.000000 0.000000
# 3 -0.003426 -0.006813 0.007009 0.000000 0.000000 0.000000
# 4 0.000000 0.000000 0.000000 0.183558 0.000000 0.000000
# 5 0.000000 0.000000 0.000000 0.000000 0.033202 0.000000
# 6 0.000000 0.000000 0.000000 0.000000 0.000000 0.040497
#
#
# Mechanical properties :
#
#
# Convention : Reuss Voigt Hill
#
# Bulk Modulus (GPa) = 7.93321 73.33890 40.63606
# Shear Modulus (GPa) = 9.85669 29.21337 19.53503
#
# Velocity S-wave (km/s) = 2.28144 3.92766 3.21181
# Velocity P-wave (km/s) = 3.33604 7.70041 5.93403
#
# Compressibility (1/GPa) = 0.12605236
#
# Stress axis : x y z
#
# Youngs Moduli (GPa) = 115.47175 6.60698 142.68206
#
# Poissons Ratio (x) = 0.06770 0.48881
# Poissons Ratio (y) = 1.18323 0.97208
# Poissons Ratio (z) = 0.39559 0.04501
#
# Static dielectric constant tensor:
#      x y z
#    x 3.486930 0.000000 0.000000 
#    y 0.000000 2.778490 0.000000 
#    z 0.000000 0.000000 4.050130 
# 
# 
# High freq. dielectric constant tensor:
#      x y z
#    x 1.738960 0.000000 0.000000 
#    y 0.000000 1.662390 0.000000 
#    z 0.000000 0.000000 1.766100 
# 
# From -- ./inp_files/77645.got.cif
#   From: 2010.03.12/outbox.cif.g09.slc.cpg/sg65_39_cif.got.tgz:77645.got - 2010.04.10 20:52:16.
