data_PCOD8267763
_publ_section_title
;
Structure prediction by ZEFSAII (Michael W. Deem and Ramdas Pophale) SiO2 
 PCOD8267763
Probable space group: C M M M
;
_chemical_formula_sum "Si O2"
_cell_formula_units_Z 80
_cell_length_a 23.625689
_cell_length_b 25.634691
_cell_length_c 8.817434
_cell_angle_alpha 90.000000
_cell_angle_beta 90.000000
_cell_angle_gamma 90.000000
_cell_volume 5340.166367
_symmetry_space_group_name_H-M "C M M M"
_symmetry_group_IT_number 65
_symmetry_cell_setting 'orthorhombic'
loop_
_space_group_symop_operation_xyz
x,y,z
-x,-y,z
x,-y,-z
-x,y,-z
-x,-y,-z
x,y,-z
-x,y,z
x,-y,z
1/2+x,1/2+y,z
1/2-x,1/2-y,z
1/2+x,1/2-y,-z
1/2-x,1/2+y,-z
1/2-x,1/2-y,-z
1/2+x,1/2+y,-z
1/2-x,1/2+y,z
1/2+x,1/2-y,z
loop_
_atom_site_type_symbol
_atom_site_label
_atom_site_fract_x
_atom_site_fract_y
_atom_site_fract_z
Si Si1 0.612974 0.939365 0.175193
Si Si2 0.500000 0.897202 0.679032
Si Si3 0.615636 0.758813 0.820140
Si Si4 0.317567 0.146062 0.321689
Si Si5 0.500000 0.776085 0.321085
Si Si6 0.281406 0.695184 0.167296
O O1 0.554473 0.925193 0.254428
O O2 0.665102 0.909578 0.253733
O O3 0.625620 0.000000 0.196113
O O4 0.608909 0.923334 0.000000
O O5 0.500000 0.904106 0.500000
O O6 0.500000 0.836662 0.725284
O O7 0.640674 0.811033 0.747226
O O8 0.554282 0.747781 0.750965
O O9 0.654562 0.708285 0.778978
O O10 0.612907 0.767041 0.000000
O O11 0.325873 0.145853 0.500000
O O12 0.251633 0.157057 0.281917
O O13 0.500000 0.767904 0.500000
O O14 0.250000 0.750000 0.159157
O O15 0.281332 0.669312 0.000000
#
# Coordination Sequence:
#
# PCOD8267763 Si02
#       6
#    16   8  16  16   8  16
#     4  11  23  36  49  63  81 112 152 190 227 266
#     4  11  22  34  47  64  85 112 146 189 235 267
#     4  10  19  31  47  64  85 115 147 178 214 259
#     4  11  20  30  46  66  86 110 140 180 227 265
#     4  11  21  30  44  67  91 116 146 184 227 261
#     4   8  16  30  46  64  84 109 141 175 213 259
#
# _framework density 14.980808
#
# number of rings (size 3 to 8) (size 9 to 14) (size 15 to 20)
#    0.000    1.800    2.000    5.100    0.000    8.000 
#    0.000    0.000    0.000    0.000    0.000    0.000 
#    0.000    0.000    0.000    0.900    0.000   17.400 
#
# Total GULP energy -495979.343815 kJ/mol
# GULP energy per Si atom -12399.483595 kJ/mol
# Density = 1.494671 g / cm^3
# Si number density = 14.980808 Si / 1000 Ang^3
#
#
#
# Elastic Constant Matrix: (Units=GPa)
#
#
# Indices 1 2 3 4 5 6 
#
# 1 114.4307 47.5449 53.4331 0.0000 0.0000 0.0000
# 2 47.5449 50.2894 38.5201 0.0000 0.0000 0.0000
# 3 53.4331 38.5201 100.7519 0.0000 0.0000 0.0000
# 4 0.0000 0.0000 0.0000 13.9473 0.0000 0.0000
# 5 0.0000 0.0000 0.0000 0.0000 15.2992 0.0000
# 6 0.0000 0.0000 0.0000 0.0000 0.0000 18.4685
#
#
#
# Elastic Compliance Matrix: (Units=1/GPa)
#
#
# Indices 1 2 3 4 5 6 
#
# 1 0.015287 -0.011656 -0.003651 0.000000 0.000000 0.000000
# 2 -0.011656 0.037007 -0.007967 0.000000 0.000000 0.000000
# 3 -0.003651 -0.007967 0.014908 0.000000 0.000000 0.000000
# 4 0.000000 0.000000 0.000000 0.071698 0.000000 0.000000
# 5 0.000000 0.000000 0.000000 0.000000 0.065363 0.000000
# 6 0.000000 0.000000 0.000000 0.000000 0.000000 0.054146
#
#
# Mechanical properties :
#
#
# Convention : Reuss Voigt Hill
#
# Bulk Modulus (GPa) = 48.41749 60.49647 54.45698
# Shear Modulus (GPa) = 16.03379 17.94127 16.98753
#
# Velocity S-wave (km/s) = 3.27508 3.46442 3.37108
# Velocity P-wave (km/s) = 6.83311 7.51487 7.18208
#
# Compressibility (1/GPa) = 0.02065369
#
# Stress axis : x y z
#
# Youngs Moduli (GPa) = 65.41695 27.02157 67.07978
#
# Poissons Ratio (x) = 0.31496 0.24489
# Poissons Ratio (y) = 0.76250 0.53444
# Poissons Ratio (z) = 0.23882 0.21529
#
# Static dielectric constant tensor:
#      x y z
#    x 3.184730 0.000000 0.000000 
#    y 0.000000 2.691890 0.000000 
#    z 0.000000 0.000000 3.026660 
# 
# 
# High freq. dielectric constant tensor:
#      x y z
#    x 1.570390 0.000000 0.000000 
#    y 0.000000 1.526240 0.000000 
#    z 0.000000 0.000000 1.591440 
# 
# From -- ./inp_files/12116.got.cif
#   From: 2010.03.12/outbox.cif.g09.slc.cpg/sg65_7_cif.got.tgz:12116.got - 2010.04.10 20:52:16.
