data_PCOD8267437
_publ_section_title
;
Structure prediction by ZEFSAII (Michael W. Deem and Ramdas Pophale) SiO2 
 PCOD8267437
Probable space group: C M M M
;
_chemical_formula_sum "Si O2"
_cell_formula_units_Z 88
_cell_length_a 17.613981
_cell_length_b 28.279563
_cell_length_c 9.238896
_cell_angle_alpha 90.000000
_cell_angle_beta 90.000000
_cell_angle_gamma 90.000000
_cell_volume 4602.039013
_symmetry_space_group_name_H-M "C M M M"
_symmetry_group_IT_number 65
_symmetry_cell_setting 'orthorhombic'
loop_
_space_group_symop_operation_xyz
x,y,z
-x,-y,z
x,-y,-z
-x,y,-z
-x,-y,-z
x,y,-z
-x,y,z
x,-y,z
1/2+x,1/2+y,z
1/2-x,1/2-y,z
1/2+x,1/2-y,-z
1/2-x,1/2+y,-z
1/2-x,1/2-y,-z
1/2+x,1/2+y,-z
1/2-x,1/2+y,z
1/2+x,1/2-y,z
loop_
_atom_site_type_symbol
_atom_site_label
_atom_site_fract_x
_atom_site_fract_y
_atom_site_fract_z
Si Si1 0.584749 0.765249 0.671479
Si Si2 0.659953 0.668916 0.670933
Si Si3 0.588431 0.411801 0.839401
Si Si4 0.409180 0.500000 0.337253
Si Si5 0.414174 0.052441 0.672083
Si Si6 0.328538 0.856086 0.672289
O O1 0.580352 0.768325 0.500000
O O2 0.500000 0.757305 0.734944
O O3 0.641039 0.722690 0.715803
O O4 0.618249 0.814195 0.733806
O O5 0.649806 0.661290 0.500000
O O6 0.600234 0.636747 0.754755
O O7 0.743388 0.654218 0.725430
O O8 0.500000 0.421069 0.855369
O O9 0.624096 0.454430 0.745763
O O10 0.625349 0.410478 0.000000
O O11 0.500000 0.500000 0.342156
O O12 0.376072 0.500000 0.500000
O O13 0.413100 0.054000 0.500000
O O14 0.500000 0.062280 0.726491
O O15 0.358526 0.093431 0.733567
O O16 0.387600 0.000000 0.724845
O O17 0.330861 0.855802 0.500000
#
# Coordination Sequence:
#
# PCOD8267437 Si02
#       6
#    16  16  16   8  16  16
#     4   9  16  26  43  65  89 122 167 214 257 305
#     4  10  19  30  45  70 100 129 160 203 255 303
#     4  10  20  34  51  70  96 132 171 207 245 295
#     4   9  17  31  53  77  97 121 160 211 256 289
#     4   8  13  22  37  57  85 123 162 198 242 300
#     4   9  16  26  40  62  93 127 161 204 259 309
#
# _framework density 19.121960000000001
#
# number of rings (size 3 to 8) (size 9 to 14) (size 15 to 20)
#    0.000    2.818    0.000    3.000    0.000    7.273 
#    1.636    0.000    0.000    2.182    0.000    0.000 
#    0.000    2.182    0.000    2.000    0.000    1.818 
#
# Total GULP energy -545377.442528 kJ/mol
# GULP energy per Si atom -12394.941876 kJ/mol
# Density = 1.907844 g / cm^3
# Si number density = 19.121960 Si / 1000 Ang^3
#
#
#
# Elastic Constant Matrix: (Units=GPa)
#
#
# Indices 1 2 3 4 5 6 
#
# 1 80.9579 54.2690 14.2378 0.0000 0.0000 0.0000
# 2 54.2690 173.1623 34.1180 0.0000 0.0000 0.0000
# 3 14.2378 34.1180 49.2272 0.0000 0.0000 0.0000
# 4 0.0000 0.0000 0.0000 4.9396 0.0000 0.0000
# 5 0.0000 0.0000 0.0000 0.0000 6.8964 0.0000
# 6 0.0000 0.0000 0.0000 0.0000 0.0000 27.2596
#
#
#
# Elastic Compliance Matrix: (Units=1/GPa)
#
#
# Indices 1 2 3 4 5 6 
#
# 1 0.015710 -0.004665 -0.001310 0.000000 0.000000 0.000000
# 2 -0.004665 0.008074 -0.004246 0.000000 0.000000 0.000000
# 3 -0.001310 -0.004246 0.023636 0.000000 0.000000 0.000000
# 4 0.000000 0.000000 0.000000 0.202448 0.000000 0.000000
# 5 0.000000 0.000000 0.000000 0.000000 0.145003 0.000000
# 6 0.000000 0.000000 0.000000 0.000000 0.000000 0.036684
#
#
# Mechanical properties :
#
#
# Convention : Reuss Voigt Hill
#
# Bulk Modulus (GPa) = 37.07050 56.51079 46.79064
# Shear Modulus (GPa) = 10.84622 21.20061 16.02341
#
# Velocity S-wave (km/s) = 2.38421 3.33333 2.89789
# Velocity P-wave (km/s) = 5.19689 6.66572 5.97660
#
# Compressibility (1/GPa) = 0.02697563
#
# Stress axis : x y z
#
# Youngs Moduli (GPa) = 63.65432 123.85922 42.30843
#
# Poissons Ratio (x) = 0.57784 0.05544
# Poissons Ratio (y) = 0.29697 0.17966
# Poissons Ratio (z) = 0.08341 0.52595
#
# Static dielectric constant tensor:
#      x y z
#    x 3.438720 0.000000 0.000000 
#    y 0.000000 3.822350 0.000000 
#    z 0.000000 0.000000 2.967080 
# 
# 
# High freq. dielectric constant tensor:
#      x y z
#    x 1.728720 0.000000 0.000000 
#    y 0.000000 1.762930 0.000000 
#    z 0.000000 0.000000 1.674350 
# 
# From -- ./inp_files/10050.got.cif
#   From: 2010.03.12/outbox.cif.g09.slc.cpg/sg65_6_cif.got.tgz:10050.got - 2010.04.10 20:52:16.
