data_PCOD8267037
_publ_section_title
;
Structure prediction by ZEFSAII (Michael W. Deem and Ramdas Pophale) SiO2 
 PCOD8267037
Probable space group: C M M M
;
_chemical_formula_sum "Si O2"
_cell_formula_units_Z 96
_cell_length_a 17.195284
_cell_length_b 21.925681
_cell_length_c 14.760039
_cell_angle_alpha 90.000000
_cell_angle_beta 90.000000
_cell_angle_gamma 90.000000
_cell_volume 5564.804984
_symmetry_space_group_name_H-M "C M M M"
_symmetry_group_IT_number 65
_symmetry_cell_setting 'orthorhombic'
loop_
_space_group_symop_operation_xyz
x,y,z
-x,-y,z
x,-y,-z
-x,y,-z
-x,-y,-z
x,y,-z
-x,y,z
x,-y,z
1/2+x,1/2+y,z
1/2-x,1/2-y,z
1/2+x,1/2-y,-z
1/2-x,1/2+y,-z
1/2-x,1/2-y,-z
1/2+x,1/2+y,-z
1/2-x,1/2+y,z
1/2+x,1/2-y,z
loop_
_atom_site_type_symbol
_atom_site_label
_atom_site_fract_x
_atom_site_fract_y
_atom_site_fract_z
Si Si1 0.347353 0.703516 0.105588
Si Si2 0.090484 0.428087 0.228863
Si Si3 0.000000 0.929962 0.284999
Si Si4 0.182794 0.662955 0.892798
Si Si5 0.000000 0.870279 0.895440
Si Si6 0.814343 0.427599 0.600149
Si Si7 0.141857 0.927790 0.602308
O O1 0.273569 0.663312 0.138584
O O2 0.351304 0.772459 0.143959
O O3 0.426130 0.669894 0.129309
O O4 0.334986 0.712281 0.000000
O O5 0.104196 0.500000 0.214258
O O6 0.137370 0.393086 0.151410
O O7 0.122713 0.405799 0.326361
O O8 0.000000 0.411179 0.223420
O O9 0.000000 0.925610 0.175566
O O10 0.077536 0.899594 0.329003
O O11 0.000000 0.000000 0.312430
O O12 0.172843 0.654196 0.000000
O O13 0.000000 0.893548 0.000000
O O14 0.838450 0.403314 0.500000
O O15 0.811272 0.500000 0.597322
O O16 0.728128 0.402450 0.625981
O O17 0.118950 0.909147 0.500000
O O18 0.143663 0.000000 0.612296
#
# Coordination Sequence:
#
# PCOD8267037 Si02
#       7
#    16  16   8  16   8  16  16
#     4   8  17  34  53  71  89 120 172 217 239 267
#     4  10  21  32  46  75 107 130 157 193 240 305
#     4  10  19  27  42  69 101 133 156 189 243 292
#     4   9  18  34  54  72  95 127 162 203 246 283
#     4  10  20  32  47  70  99 127 165 205 233 278
#     4   8  15  29  47  65  91 127 162 196 233 277
#     4   8  14  26  44  66  91 122 162 200 233 277
#
# _framework density 17.251277999999999
#
# number of rings (size 3 to 8) (size 9 to 14) (size 15 to 20)
#    0.000    3.167    0.000    2.250    3.500    2.167 
#    0.000    2.500    0.000    3.000    0.000    4.667 
#    0.000    0.000    0.000    0.000    0.000    0.000 
#
# Total GULP energy -594714.339830 kJ/mol
# GULP energy per Si atom -12389.882080 kJ/mol
# Density = 1.721201 g / cm^3
# Si number density = 17.251278 Si / 1000 Ang^3
#
#
#
# Elastic Constant Matrix: (Units=GPa)
#
#
# Indices 1 2 3 4 5 6 
#
# 1 130.3051 39.4552 55.8889 0.0000 0.0000 0.0000
# 2 39.4552 36.4274 29.8498 0.0000 0.0000 0.0000
# 3 55.8889 29.8498 91.3398 0.0000 0.0000 0.0000
# 4 0.0000 0.0000 0.0000 4.7795 0.0000 0.0000
# 5 0.0000 0.0000 0.0000 0.0000 29.6079 0.0000
# 6 0.0000 0.0000 0.0000 0.0000 0.0000 20.1246
#
#
#
# Elastic Compliance Matrix: (Units=1/GPa)
#
#
# Indices 1 2 3 4 5 6 
#
# 1 0.012615 -0.010022 -0.004443 0.000000 0.000000 0.000000
# 2 -0.010022 0.045454 -0.008722 0.000000 0.000000 0.000000
# 3 -0.004443 -0.008722 0.016517 0.000000 0.000000 0.000000
# 4 0.000000 0.000000 0.000000 0.209227 0.000000 0.000000
# 5 0.000000 0.000000 0.000000 0.000000 0.033775 0.000000
# 6 0.000000 0.000000 0.000000 0.000000 0.000000 0.049691
#
#
# Mechanical properties :
#
#
# Convention : Reuss Voigt Hill
#
# Bulk Modulus (GPa) = 35.44723 56.49555 45.97139
# Shear Modulus (GPa) = 11.81872 19.76095 15.78984
#
# Velocity S-wave (km/s) = 2.62027 3.38816 3.02865
# Velocity P-wave (km/s) = 5.45404 6.93728 6.23989
#
# Compressibility (1/GPa) = 0.02821095
#
# Stress axis : x y z
#
# Youngs Moduli (GPa) = 79.27226 22.00014 60.54232
#
# Poissons Ratio (x) = 0.22049 0.26902
# Poissons Ratio (y) = 0.79448 0.52806
# Poissons Ratio (z) = 0.35224 0.19189
#
# Static dielectric constant tensor:
#      x y z
#    x 4.024840 0.000000 0.000000 
#    y 0.000000 2.814780 0.000000 
#    z 0.000000 0.000000 3.191730 
# 
# 
# High freq. dielectric constant tensor:
#      x y z
#    x 1.682740 0.000000 0.000000 
#    y 0.000000 1.612930 0.000000 
#    z 0.000000 0.000000 1.656410 
# 
# From -- ./inp_files/40991.got.cif
#   From: 2010.03.12/outbox.cif.g09.slc.cpg/sg65_21_cif.got.tgz:40991.got - 2010.04.10 20:52:16.
