data_PCOD8267234
_publ_section_title
;
Structure prediction by ZEFSAII (Michael W. Deem and Ramdas Pophale) SiO2 
 PCOD8267234
Probable space group: C M M M
;
_chemical_formula_sum "Si O2"
_cell_formula_units_Z 64
_cell_length_a 8.589963
_cell_length_b 18.572382
_cell_length_c 20.748497
_cell_angle_alpha 90.000000
_cell_angle_beta 90.000000
_cell_angle_gamma 90.000000
_cell_volume 3310.133757
_symmetry_space_group_name_H-M "C M M M"
_symmetry_group_IT_number 65
_symmetry_cell_setting 'orthorhombic'
loop_
_space_group_symop_operation_xyz
x,y,z
-x,-y,z
x,-y,-z
-x,y,-z
-x,-y,-z
x,y,-z
-x,y,z
x,-y,z
1/2+x,1/2+y,z
1/2-x,1/2-y,z
1/2+x,1/2-y,-z
1/2-x,1/2+y,-z
1/2-x,1/2-y,-z
1/2+x,1/2+y,-z
1/2-x,1/2+y,z
1/2+x,1/2-y,z
loop_
_atom_site_type_symbol
_atom_site_label
_atom_site_fract_x
_atom_site_fract_y
_atom_site_fract_z
Si Si1 0.184982 0.419470 0.880915
Si Si2 0.684958 0.080793 0.261557
Si Si3 0.314625 0.171168 0.000000
Si Si4 0.815386 0.329353 0.618606
Si Si5 0.817590 0.915606 0.500000
O O1 0.246591 0.500000 0.894195
O O2 0.240927 0.393958 0.809720
O O3 0.252641 0.367783 0.936180
O O4 0.000000 0.419267 0.883694
O O5 0.500000 0.078847 0.264103
O O6 0.748839 0.136970 0.314360
O O7 0.748036 0.000000 0.276014
O O8 0.250000 0.250000 0.000000
O O9 0.500000 0.171158 0.000000
O O10 0.750000 0.250000 0.608985
O O11 0.758682 0.381015 0.562446
O O12 0.000000 0.325525 0.617479
O O13 0.000000 0.899530 0.500000
O O14 0.780185 0.000000 0.500000
#
# Coordination Sequence:
#
# PCOD8267234 Si02
#       5
#    16  16   8  16   8
#     4   8  14  27  48  72  96 126 170 216 250 288
#     4   8  15  29  50  75 100 128 167 214 257 297
#     4  10  19  29  45  71 101 132 164 204 254 302
#     4  11  22  36  55  79 108 140 173 209 253 305
#     4  11  24  41  60  81 105 133 168 213 260 305
#
# _framework density 19.334565999999999
#
# number of rings (size 3 to 8) (size 9 to 14) (size 15 to 20)
#    0.000    2.625    0.000    4.125    0.000    4.500 
#    0.000    0.000    0.000    3.000    0.000    7.000 
#    0.000    0.000    0.000    0.000    0.000    0.000 
#
# Total GULP energy -396668.793356 kJ/mol
# GULP energy per Si atom -12395.899792 kJ/mol
# Density = 1.929056 g / cm^3
# Si number density = 19.334566 Si / 1000 Ang^3
#
#
#
# Elastic Constant Matrix: (Units=GPa)
#
#
# Indices 1 2 3 4 5 6 
#
# 1 37.9338 30.2801 32.3633 0.0000 0.0000 0.0000
# 2 30.2801 135.2881 96.5738 0.0000 0.0000 0.0000
# 3 32.3633 96.5738 187.2287 0.0000 0.0000 0.0000
# 4 0.0000 0.0000 0.0000 21.4331 0.0000 0.0000
# 5 0.0000 0.0000 0.0000 0.0000 -2.4725 0.0000
# 6 0.0000 0.0000 0.0000 0.0000 0.0000 20.1763
#
#
#
# Elastic Compliance Matrix: (Units=1/GPa)
#
#
# Indices 1 2 3 4 5 6 
#
# 1 0.033135 -0.005267 -0.003011 0.000000 0.000000 0.000000
# 2 -0.005267 0.012537 -0.005556 0.000000 0.000000 0.000000
# 3 -0.003011 -0.005556 0.008727 0.000000 0.000000 0.000000
# 4 0.000000 0.000000 0.000000 0.046657 0.000000 0.000000
# 5 0.000000 0.000000 0.000000 0.000000 -0.404442 0.000000
# 6 0.000000 0.000000 0.000000 0.000000 0.000000 0.049563
#
#
# Mechanical properties :
#
#
# Convention : Reuss Voigt Hill
#
# Bulk Modulus (GPa) = 37.40968 75.43168 56.42068
# Shear Modulus (GPa) = -23.01538 21.24291 -0.88624
#
# Velocity S-wave (km/s) = -3.45392 3.31826 -0.67776
# Velocity P-wave (km/s) = 1.86668 7.33347 5.35090
#
# Compressibility (1/GPa) = 0.02673105
#
# Stress axis : x y z
#
# Youngs Moduli (GPa) = 30.17988 79.76638 114.58265
#
# Poissons Ratio (x) = 0.42013 0.34498
# Poissons Ratio (y) = 0.15896 0.63663
# Poissons Ratio (z) = 0.09086 0.44319
#
# Static dielectric constant tensor:
#      x y z
#    x 3.077240 0.000000 0.000000 
#    y 0.000000 3.721290 0.000000 
#    z 0.000000 0.000000 4.234380 
# 
# 
# High freq. dielectric constant tensor:
#      x y z
#    x 1.704900 0.000000 0.000000 
#    y 0.000000 1.754800 0.000000 
#    z 0.000000 0.000000 1.775040 
# 
# From -- ./inp_files/58904.got.cif
#   From: 2010.03.12/outbox.cif.g09.slc.cpg/sg65_30_cif.got.tgz:58904.got - 2010.04.10 20:52:16.
