data_PCOD8267554
_publ_section_title
;
Structure prediction by ZEFSAII (Michael W. Deem and Ramdas Pophale) SiO2 
 PCOD8267554
Probable space group: C M M M
;
_chemical_formula_sum "Si O2"
_cell_formula_units_Z 120
_cell_length_a 7.880747
_cell_length_b 29.650643
_cell_length_c 27.695718
_cell_angle_alpha 90.000000
_cell_angle_beta 90.000000
_cell_angle_gamma 90.000000
_cell_volume 6471.636708
_symmetry_space_group_name_H-M "C M M M"
_symmetry_group_IT_number 65
_symmetry_cell_setting 'orthorhombic'
loop_
_space_group_symop_operation_xyz
x,y,z
-x,-y,z
x,-y,-z
-x,y,-z
-x,-y,-z
x,y,-z
-x,y,z
x,-y,z
1/2+x,1/2+y,z
1/2-x,1/2-y,z
1/2+x,1/2-y,-z
1/2-x,1/2+y,-z
1/2-x,1/2-y,-z
1/2+x,1/2+y,-z
1/2-x,1/2+y,z
1/2+x,1/2-y,z
loop_
_atom_site_type_symbol
_atom_site_label
_atom_site_fract_x
_atom_site_fract_y
_atom_site_fract_z
Si Si1 0.297071 0.639107 0.052931
Si Si2 0.302134 0.947198 0.622975
Si Si3 0.500000 0.447028 0.553311
Si Si4 0.196706 0.608428 0.715129
Si Si5 0.305649 0.548634 0.907475
Si Si6 0.199271 0.799940 0.245792
Si Si7 0.300201 0.700636 0.862186
Si Si8 0.802295 0.551356 0.802525
O O1 0.500000 0.639878 0.056204
O O2 0.226423 0.588114 0.059724
O O3 0.219664 0.668588 0.096626
O O4 0.237245 0.656510 0.000000
O O5 0.500000 0.937776 0.608790
O O6 0.175211 0.932993 0.579905
O O7 0.236800 0.915293 0.666565
O O8 0.280140 0.000000 0.637034
O O9 0.500000 0.500000 0.547766
O O10 0.500000 0.424448 0.500000
O O11 0.231904 0.662150 0.717218
O O12 0.278227 0.583907 0.761739
O O13 0.000000 0.598102 0.716802
O O14 0.500000 0.543216 0.921766
O O15 0.213203 0.500000 0.916011
O O16 0.294788 0.562982 0.851610
O O17 0.250000 0.750000 0.264267
O O18 0.275013 0.808690 0.191682
O O19 0.000000 0.803498 0.244644
O O20 0.500000 0.694779 0.860265
O O21 0.250000 0.750000 0.879284
O O22 0.770035 0.500000 0.786160
O O23 0.000000 0.560579 0.811311
#
# Coordination Sequence:
#
# PCOD8267554 Si02
#       8
#    16  16   8  16  16  16  16  16
#     4   9  17  29  45  64  85 108 136 177 230 283
#     4   9  18  32  49  73 108 146 182 223 265 306
#     4   9  18  32  50  74 106 146 192 232 263 303
#     4  10  19  30  47  70  98 132 164 201 243 296
#     4   9  17  29  44  63  85 108 143 187 222 268
#     4  10  20  33  49  68  93 125 158 196 239 293
#     4   9  18  32  48  65  85 111 144 181 227 282
#     4   9  17  29  45  65  91 124 157 186 227 283
#
# _framework density 18.542449000000001
#
# number of rings (size 3 to 8) (size 9 to 14) (size 15 to 20)
#    0.000    2.733    0.000    1.600    0.933    4.533 
#    0.000    3.333    0.000    1.200    0.000    1.867 
#    0.000    0.533    0.267    0.000    0.000    0.000 
#
# Total GULP energy -743500.149931 kJ/mol
# GULP energy per Si atom -12391.669166 kJ/mol
# Density = 1.850025 g / cm^3
# Si number density = 18.542449 Si / 1000 Ang^3
#
#
#
# Elastic Constant Matrix: (Units=GPa)
#
#
# Indices 1 2 3 4 5 6 
#
# 1 33.9785 11.9140 19.5919 0.0000 0.0000 0.0000
# 2 11.9140 101.7565 58.3905 0.0000 0.0000 0.0000
# 3 19.5919 58.3905 96.2553 0.0000 0.0000 0.0000
# 4 0.0000 0.0000 0.0000 20.7902 0.0000 0.0000
# 5 0.0000 0.0000 0.0000 0.0000 14.4361 0.0000
# 6 0.0000 0.0000 0.0000 0.0000 0.0000 19.2150
#
#
#
# Elastic Compliance Matrix: (Units=1/GPa)
#
#
# Indices 1 2 3 4 5 6 
#
# 1 0.033344 -0.000015 -0.006778 0.000000 0.000000 0.000000
# 2 -0.000015 0.015075 -0.009142 0.000000 0.000000 0.000000
# 3 -0.006778 -0.009142 0.017314 0.000000 0.000000 0.000000
# 4 0.000000 0.000000 0.000000 0.048100 0.000000 0.000000
# 5 0.000000 0.000000 0.000000 0.000000 0.069271 0.000000
# 6 0.000000 0.000000 0.000000 0.000000 0.000000 0.052043
#
#
# Mechanical properties :
#
#
# Convention : Reuss Voigt Hill
#
# Bulk Modulus (GPa) = 29.52982 45.75368 37.64175
# Shear Modulus (GPa) = 17.96605 20.36117 19.16361
#
# Velocity S-wave (km/s) = 3.11612 3.31733 3.21830
# Velocity P-wave (km/s) = 5.37652 6.27707 5.84417
#
# Compressibility (1/GPa) = 0.03386407
#
# Stress axis : x y z
#
# Youngs Moduli (GPa) = 29.99075 66.33557 57.75605
#
# Poissons Ratio (x) = 0.00097 0.39146
# Poissons Ratio (y) = 0.00044 0.52799
# Poissons Ratio (z) = 0.20327 0.60642
#
# Static dielectric constant tensor:
#      x y z
#    x 3.179220 0.000000 0.000000 
#    y 0.000000 3.061320 0.000000 
#    z 0.000000 0.000000 3.489520 
# 
# 
# High freq. dielectric constant tensor:
#      x y z
#    x 1.703970 0.000000 0.000000 
#    y 0.000000 1.711510 0.000000 
#    z 0.000000 0.000000 1.687920 
# 
# From -- ./inp_files/73873.got.cif
#   From: 2010.03.12/outbox.cif.g09.slc.cpg/sg65_37_cif.got.tgz:73873.got - 2010.04.10 20:52:16.
