data_PCOD8267902
_publ_section_title
;
Structure prediction by ZEFSAII (Michael W. Deem and Ramdas Pophale) SiO2 
 PCOD8267902
Probable space group: C M M M
;
_chemical_formula_sum "Si O2"
_cell_formula_units_Z 104
_cell_length_a 23.903006
_cell_length_b 18.942870
_cell_length_c 13.278836
_cell_angle_alpha 90.000000
_cell_angle_beta 90.000000
_cell_angle_gamma 90.000000
_cell_volume 6012.544539
_symmetry_space_group_name_H-M "C M M M"
_symmetry_group_IT_number 65
_symmetry_cell_setting 'orthorhombic'
loop_
_space_group_symop_operation_xyz
x,y,z
-x,-y,z
x,-y,-z
-x,y,-z
-x,-y,-z
x,y,-z
-x,y,z
x,-y,z
1/2+x,1/2+y,z
1/2-x,1/2-y,z
1/2+x,1/2-y,-z
1/2-x,1/2+y,-z
1/2-x,1/2-y,-z
1/2+x,1/2+y,-z
1/2-x,1/2+y,z
1/2+x,1/2-y,z
loop_
_atom_site_type_symbol
_atom_site_label
_atom_site_fract_x
_atom_site_fract_y
_atom_site_fract_z
Si Si1 0.637987 0.818484 0.885326
Si Si2 0.655453 0.079378 0.388373
Si Si3 0.198271 0.202571 0.760642
Si Si4 0.774222 0.581983 0.196645
Si Si5 0.500000 0.421257 0.619340
Si Si6 0.095117 0.184110 0.619440
Si Si7 0.437933 0.171403 0.297027
O O1 0.668848 0.747749 0.848119
O O2 0.678469 0.886904 0.877409
O O3 0.583064 0.830780 0.818235
O O4 0.619074 0.808526 0.000000
O O5 0.678923 0.094914 0.500000
O O6 0.705741 0.093413 0.311596
O O7 0.602234 0.127382 0.368715
O O8 0.633611 0.000000 0.376984
O O9 0.250000 0.250000 0.718255
O O10 0.218230 0.129007 0.811682
O O11 0.156181 0.183336 0.670571
O O12 0.762387 0.500000 0.170267
O O13 0.500000 0.500000 0.665901
O O14 0.500000 0.423788 0.500000
O O15 0.442757 0.382489 0.653834
O O16 0.104061 0.186101 0.500000
O O17 0.060207 0.250687 0.657712
O O18 0.500000 0.139064 0.299054
#
# Coordination Sequence:
#
# PCOD8267902 Si02
#       7
#    16  16  16  16   8  16  16
#     4   9  19  35  51  68  94 124 154 199 253 297
#     4   9  18  31  46  67  99 136 164 189 228 275
#     4   9  19  32  48  73 100 127 162 199 243 299
#     4   9  18  32  49  71  97 125 161 198 232 284
#     4   9  18  32  48  68  96 132 172 207 240 284
#     4  10  19  31  48  71 101 132 163 202 244 284
#     4  10  19  31  49  71  94 121 163 204 238 285
#
# _framework density 17.297169
#
# number of rings (size 3 to 8) (size 9 to 14) (size 15 to 20)
#    0.000    2.692    0.769    1.385    0.000    6.154 
#    0.000    0.769    0.000    0.000    0.000    4.308 
#    0.000    3.077    0.000    0.000    0.000    0.000 
#
# Total GULP energy -644601.801846 kJ/mol
# GULP energy per Si atom -12396.188497 kJ/mol
# Density = 1.725780 g / cm^3
# Si number density = 17.297169 Si / 1000 Ang^3
#
#
#
# Elastic Constant Matrix: (Units=GPa)
#
#
# Indices 1 2 3 4 5 6 
#
# 1 40.3335 9.7360 -9.5105 0.0000 0.0000 0.0000
# 2 9.7360 91.7740 8.8103 0.0000 0.0000 0.0000
# 3 -9.5105 8.8103 64.6312 0.0000 0.0000 0.0000
# 4 0.0000 0.0000 0.0000 14.9261 0.0000 0.0000
# 5 0.0000 0.0000 0.0000 0.0000 9.7986 0.0000
# 6 0.0000 0.0000 0.0000 0.0000 0.0000 24.8901
#
#
#
# Elastic Compliance Matrix: (Units=1/GPa)
#
#
# Indices 1 2 3 4 5 6 
#
# 1 0.026603 -0.003240 0.004356 0.000000 0.000000 0.000000
# 2 -0.003240 0.011436 -0.002036 0.000000 0.000000 0.000000
# 3 0.004356 -0.002036 0.016391 0.000000 0.000000 0.000000
# 4 0.000000 0.000000 0.000000 0.066997 0.000000 0.000000
# 5 0.000000 0.000000 0.000000 0.000000 0.102055 0.000000
# 6 0.000000 0.000000 0.000000 0.000000 0.000000 0.040177
#
#
# Mechanical properties :
#
#
# Convention : Reuss Voigt Hill
#
# Bulk Modulus (GPa) = 19.01515 23.86780 21.44148
# Shear Modulus (GPa) = 17.66615 22.43648 20.05132
#
# Velocity S-wave (km/s) = 3.19930 3.60546 3.40843
# Velocity P-wave (km/s) = 4.96633 5.58221 5.28325
#
# Compressibility (1/GPa) = 0.05258964
#
# Stress axis : x y z
#
# Youngs Moduli (GPa) = 37.59016 87.44686 61.00934
#
# Poissons Ratio (x) = 0.28336 -0.26578
# Poissons Ratio (y) = 0.12181 0.12419
# Poissons Ratio (z) = -0.16375 0.17801
#
# Static dielectric constant tensor:
#      x y z
#    x 3.130840 0.000000 0.000000 
#    y 0.000000 3.479410 0.000000 
#    z 0.000000 0.000000 3.017210 
# 
# 
# High freq. dielectric constant tensor:
#      x y z
#    x 1.657150 0.000000 0.000000 
#    y 0.000000 1.673380 0.000000 
#    z 0.000000 0.000000 1.647840 
# 
# From -- ./inp_files/32516.got.cif
#   From: 2010.03.12/outbox.cif.g09.slc.cpg/sg65_17_cif.got.tgz:32516.got - 2010.04.10 20:52:16.
