data_PCOD8267547
_publ_section_title
;
Structure prediction by ZEFSAII (Michael W. Deem and Ramdas Pophale) SiO2 
 PCOD8267547
Probable space group: C M M M
;
_chemical_formula_sum "Si O2"
_cell_formula_units_Z 104
_cell_length_a 17.832129
_cell_length_b 25.313052
_cell_length_c 13.532606
_cell_angle_alpha 90.000000
_cell_angle_beta 90.000000
_cell_angle_gamma 90.000000
_cell_volume 6108.423596
_symmetry_space_group_name_H-M "C M M M"
_symmetry_group_IT_number 65
_symmetry_cell_setting 'orthorhombic'
loop_
_space_group_symop_operation_xyz
x,y,z
-x,-y,z
x,-y,-z
-x,y,-z
-x,-y,-z
x,y,-z
-x,y,z
x,-y,z
1/2+x,1/2+y,z
1/2-x,1/2-y,z
1/2+x,1/2-y,-z
1/2-x,1/2+y,-z
1/2-x,1/2-y,-z
1/2+x,1/2+y,-z
1/2-x,1/2+y,z
1/2+x,1/2-y,z
loop_
_atom_site_type_symbol
_atom_site_label
_atom_site_fract_x
_atom_site_fract_y
_atom_site_fract_z
Si Si1 0.418544 0.062669 0.890223
Si Si2 0.182841 0.213872 0.735008
Si Si3 0.413772 0.208635 0.387127
Si Si4 0.777276 0.635883 0.612120
Si Si5 0.272496 0.937699 0.214607
Si Si6 0.355526 0.624298 0.115922
Si Si7 0.500000 0.559622 0.117032
O O1 0.500000 0.081424 0.850324
O O2 0.354348 0.083075 0.817855
O O3 0.415578 0.000000 0.895721
O O4 0.405357 0.085765 0.000000
O O5 0.250000 0.250000 0.779102
O O6 0.114360 0.246733 0.688767
O O7 0.218486 0.180073 0.646330
O O8 0.150035 0.178810 0.823853
O O9 0.406525 0.229415 0.500000
O O10 0.500000 0.194318 0.362052
O O11 0.362508 0.156489 0.374615
O O12 0.759820 0.620846 0.500000
O O13 0.762016 0.583023 0.674598
O O14 0.215280 0.912786 0.136773
O O15 0.262748 0.000000 0.212596
O O16 0.427657 0.591836 0.153617
O O17 0.360127 0.637810 0.000000
O O18 0.500000 0.500000 0.162042
O O19 0.500000 0.555230 0.000000
#
# Coordination Sequence:
#
# PCOD8267547 Si02
#       7
#    16  16  16  16  16  16   8
#     4   8  14  25  41  61  85 114 150 194 237 272
#     4   9  18  32  50  72  97 126 157 198 248 297
#     4   9  17  30  51  74  93 119 157 199 243 292
#     4   9  18  32  47  67  97 126 156 199 248 291
#     4  10  19  30  47  70  94 128 170 203 236 283
#     4  10  20  32  49  73 100 130 165 202 247 296
#     4   9  18  32  48  68  97 131 165 203 243 284
#
# _framework density 17.025669000000001
#
# number of rings (size 3 to 8) (size 9 to 14) (size 15 to 20)
#    0.000    2.846    0.000    1.846    1.077    4.615 
#    0.000    0.000    0.000    0.000    0.000    4.308 
#    0.000    6.462    0.000    0.000    0.000    0.000 
#
# Total GULP energy -644601.249327 kJ/mol
# GULP energy per Si atom -12396.177872 kJ/mol
# Density = 1.698692 g / cm^3
# Si number density = 17.025669 Si / 1000 Ang^3
#
#
#
# Elastic Constant Matrix: (Units=GPa)
#
#
# Indices 1 2 3 4 5 6 
#
# 1 78.7627 11.7353 23.1622 0.0000 0.0000 0.0000
# 2 11.7353 55.8655 24.9482 0.0000 0.0000 0.0000
# 3 23.1622 24.9482 74.5270 0.0000 0.0000 0.0000
# 4 0.0000 0.0000 0.0000 18.6839 0.0000 0.0000
# 5 0.0000 0.0000 0.0000 0.0000 18.5304 0.0000
# 6 0.0000 0.0000 0.0000 0.0000 0.0000 22.2129
#
#
#
# Elastic Compliance Matrix: (Units=1/GPa)
#
#
# Indices 1 2 3 4 5 6 
#
# 1 0.014039 -0.001176 -0.003969 0.000000 0.000000 0.000000
# 2 -0.001176 0.021145 -0.006713 0.000000 0.000000 0.000000
# 3 -0.003969 -0.006713 0.016899 0.000000 0.000000 0.000000
# 4 0.000000 0.000000 0.000000 0.053522 0.000000 0.000000
# 5 0.000000 0.000000 0.000000 0.000000 0.053965 0.000000
# 6 0.000000 0.000000 0.000000 0.000000 0.000000 0.045019
#
#
# Mechanical properties :
#
#
# Convention : Reuss Voigt Hill
#
# Bulk Modulus (GPa) = 35.25397 36.53850 35.89624
# Shear Modulus (GPa) = 21.02952 21.83941 21.43446
#
# Velocity S-wave (km/s) = 3.51830 3.58541 3.55202
# Velocity P-wave (km/s) = 6.10376 6.21673 6.16050
#
# Compressibility (1/GPa) = 0.02836560
#
# Stress axis : x y z
#
# Youngs Moduli (GPa) = 71.23042 47.29245 59.17620
#
# Poissons Ratio (x) = 0.05564 0.23489
# Poissons Ratio (y) = 0.08380 0.39723
# Poissons Ratio (z) = 0.28274 0.31746
#
# Static dielectric constant tensor:
#      x y z
#    x 3.400310 0.000000 0.000000 
#    y 0.000000 2.990830 0.000000 
#    z 0.000000 0.000000 3.041100 
# 
# 
# High freq. dielectric constant tensor:
#      x y z
#    x 1.666770 0.000000 0.000000 
#    y 0.000000 1.637980 0.000000 
#    z 0.000000 0.000000 1.644180 
# 
# From -- ./inp_files/27479.got.cif
#   From: 2010.03.12/outbox.cif.g09.slc.cpg/sg65_14_cif.got.tgz:27479.got - 2010.04.10 20:52:16.
