data_PCOD8267989
_publ_section_title
;
Structure prediction by ZEFSAII (Michael W. Deem and Ramdas Pophale) SiO2 
 PCOD8267989
Probable space group: C M M M
;
_chemical_formula_sum "Si O2"
_cell_formula_units_Z 80
_cell_length_a 8.981736
_cell_length_b 18.504134
_cell_length_c 25.477695
_cell_angle_alpha 90.000000
_cell_angle_beta 90.000000
_cell_angle_gamma 90.000000
_cell_volume 4234.373711
_symmetry_space_group_name_H-M "C M M M"
_symmetry_group_IT_number 65
_symmetry_cell_setting 'orthorhombic'
loop_
_space_group_symop_operation_xyz
x,y,z
-x,-y,z
x,-y,-z
-x,y,-z
-x,-y,-z
x,y,-z
-x,y,z
x,-y,z
1/2+x,1/2+y,z
1/2-x,1/2-y,z
1/2+x,1/2-y,-z
1/2-x,1/2+y,-z
1/2-x,1/2-y,-z
1/2+x,1/2+y,-z
1/2-x,1/2+y,z
1/2+x,1/2-y,z
loop_
_atom_site_type_symbol
_atom_site_label
_atom_site_fract_x
_atom_site_fract_y
_atom_site_fract_z
Si Si1 0.824343 0.324262 0.806205
Si Si2 0.826622 0.416316 0.590880
Si Si3 0.823468 0.171738 0.500000
Si Si4 0.822987 0.672270 0.000000
Si Si5 0.172771 0.676939 0.311440
Si Si6 0.676822 0.080416 0.901189
O O1 0.750000 0.250000 0.824228
O O2 0.773560 0.345212 0.747054
O O3 0.769255 0.386303 0.845812
O O4 0.000000 0.313895 0.809924
O O5 0.782549 0.500000 0.587706
O O6 0.725970 0.372007 0.551040
O O7 0.790317 0.388677 0.649476
O O8 0.000000 0.404756 0.576734
O O9 0.750000 0.250000 0.500000
O O10 0.000000 0.180861 0.500000
O O11 0.750000 0.750000 0.000000
O O12 0.765118 0.629097 0.949077
O O13 0.000000 0.680775 0.000000
O O14 0.250000 0.750000 0.331469
O O15 0.000000 0.694793 0.311005
O O16 0.500000 0.076418 0.903269
O O17 0.744577 0.000000 0.906059
#
# Coordination Sequence:
#
# PCOD8267989 Si02
#       6
#    16  16   8   8  16  16
#     4   9  17  30  49  72  98 129 166 207 248 292
#     4  10  21  37  56  79 108 138 168 207 255 303
#     4  12  25  40  59  81 105 135 173 212 251 300
#     4  10  19  31  49  71  95 126 164 204 246 294
#     4   9  18  32  51  75 101 132 169 207 248 295
#     4   9  17  29  47  71  97 126 163 206 248 292
#
# _framework density 18.892994000000002
#
# number of rings (size 3 to 8) (size 9 to 14) (size 15 to 20)
#    0.000    2.400    0.000    2.700    0.000    6.000 
#    0.000    4.000    0.000    3.000    0.000    5.600 
#    0.000    0.000    0.000    0.000    0.000    0.000 
#
# Total GULP energy -496004.753113 kJ/mol
# GULP energy per Si atom -12400.118828 kJ/mol
# Density = 1.884999 g / cm^3
# Si number density = 18.892994 Si / 1000 Ang^3
#
#
#
# Elastic Constant Matrix: (Units=GPa)
#
#
# Indices 1 2 3 4 5 6 
#
# 1 45.1985 46.1055 38.2207 0.0000 0.0000 0.0000
# 2 46.1055 178.1313 92.2826 0.0000 0.0000 0.0000
# 3 38.2207 92.2826 134.5884 0.0000 0.0000 0.0000
# 4 0.0000 0.0000 0.0000 33.6271 0.0000 0.0000
# 5 0.0000 0.0000 0.0000 0.0000 13.3599 0.0000
# 6 0.0000 0.0000 0.0000 0.0000 0.0000 27.8140
#
#
#
# Elastic Compliance Matrix: (Units=1/GPa)
#
#
# Indices 1 2 3 4 5 6 
#
# 1 0.032366 -0.005607 -0.005346 0.000000 0.000000 0.000000
# 2 -0.005607 0.009678 -0.005043 0.000000 0.000000 0.000000
# 3 -0.005346 -0.005043 0.012407 0.000000 0.000000 0.000000
# 4 0.000000 0.000000 0.000000 0.029738 0.000000 0.000000
# 5 0.000000 0.000000 0.000000 0.000000 0.074851 0.000000
# 6 0.000000 0.000000 0.000000 0.000000 0.000000 0.035953
#
#
# Mechanical properties :
#
#
# Convention : Reuss Voigt Hill
#
# Bulk Modulus (GPa) = 44.53258 79.01510 61.77384
# Shear Modulus (GPa) = 21.32452 27.04749 24.18600
#
# Velocity S-wave (km/s) = 3.36326 3.78777 3.58181
# Velocity P-wave (km/s) = 6.22126 7.81299 7.06212
#
# Compressibility (1/GPa) = 0.02245547
#
# Stress axis : x y z
#
# Youngs Moduli (GPa) = 30.89700 103.32703 80.60280
#
# Poissons Ratio (x) = 0.57939 0.43094
# Poissons Ratio (y) = 0.17325 0.40652
# Poissons Ratio (z) = 0.16519 0.52113
#
# Static dielectric constant tensor:
#      x y z
#    x 3.227910 0.000000 0.000000 
#    y 0.000000 3.613810 0.000000 
#    z 0.000000 0.000000 3.824000 
# 
# 
# High freq. dielectric constant tensor:
#      x y z
#    x 1.701440 0.000000 0.000000 
#    y 0.000000 1.737640 0.000000 
#    z 0.000000 0.000000 1.751760 
# 
# From -- ./inp_files/67293.got.cif
#   From: 2010.03.12/outbox.cif.g09.slc.cpg/sg65_34_cif.got.tgz:67293.got - 2010.04.10 20:52:16.
