data_PCOD8267941
_publ_section_title
;
Structure prediction by ZEFSAII (Michael W. Deem and Ramdas Pophale) SiO2 
 PCOD8267941
Probable space group: C M M M
;
_chemical_formula_sum "Si O2"
_cell_formula_units_Z 68
_cell_length_a 9.822564
_cell_length_b 33.586624
_cell_length_c 11.756035
_cell_angle_alpha 90.000000
_cell_angle_beta 90.000000
_cell_angle_gamma 90.000000
_cell_volume 3878.395462
_symmetry_space_group_name_H-M "C M M M"
_symmetry_group_IT_number 65
_symmetry_cell_setting 'orthorhombic'
loop_
_space_group_symop_operation_xyz
x,y,z
-x,-y,z
x,-y,-z
-x,y,-z
-x,-y,-z
x,y,-z
-x,y,z
x,-y,z
1/2+x,1/2+y,z
1/2-x,1/2-y,z
1/2+x,1/2-y,-z
1/2-x,1/2+y,-z
1/2-x,1/2-y,-z
1/2+x,1/2+y,-z
1/2-x,1/2+y,z
1/2+x,1/2-y,z
loop_
_atom_site_type_symbol
_atom_site_label
_atom_site_fract_x
_atom_site_fract_y
_atom_site_fract_z
Si Si1 0.659158 0.870948 0.776996
Si Si2 0.157643 0.921598 0.366989
Si Si3 0.344931 0.785392 0.130745
Si Si4 0.154253 0.000000 0.248384
Si Si5 0.752264 0.500000 0.000000
Si Si6 0.846550 0.413039 0.000000
O O1 0.500000 0.880821 0.755755
O O2 0.749695 0.884162 0.669584
O O3 0.682203 0.824097 0.793363
O O4 0.720059 0.894876 0.886206
O O5 0.174210 0.928817 0.500000
O O6 0.219912 0.960204 0.301715
O O7 0.000000 0.913437 0.334339
O O8 0.500000 0.771022 0.142651
O O9 0.250000 0.750000 0.176527
O O10 0.310610 0.795988 0.000000
O O11 0.159426 0.000000 0.111901
O O12 0.000000 0.000000 0.290444
O O13 0.845245 0.460837 0.000000
O O14 0.000000 0.397013 0.000000
#
# Coordination Sequence:
#
# PCOD8267941 Si02
#       6
#    16  16  16   8   4   8
#     4  10  19  34  54  76 105 138 171 211 257 307
#     4  10  21  37  54  72  99 138 180 220 260 300
#     4   9  17  30  50  76 108 139 165 198 251 312
#     4  10  20  33  50  73 102 136 173 215 261 306
#     4  12  18  30  52  74 104 140 174 204 252 316
#     4  10  19  31  48  73 106 141 171 204 256 311
#
# _framework density 17.533023
#
# number of rings (size 3 to 8) (size 9 to 14) (size 15 to 20)
#    0.000    2.118    3.529    0.706    0.000    2.824 
#    0.000    1.176    0.000    2.118    0.000    0.000 
#    0.000    0.000    0.000    0.000    0.000    0.000 
#
# Total GULP energy -421577.988907 kJ/mol
# GULP energy per Si atom -12399.352615 kJ/mol
# Density = 1.749312 g / cm^3
# Si number density = 17.533023 Si / 1000 Ang^3
#
#
#
# Elastic Constant Matrix: (Units=GPa)
#
#
# Indices 1 2 3 4 5 6 
#
# 1 67.5309 52.8106 37.1369 0.0000 0.0000 0.0000
# 2 52.8106 113.4152 42.3833 0.0000 0.0000 0.0000
# 3 37.1369 42.3833 87.7620 0.0000 0.0000 0.0000
# 4 0.0000 0.0000 0.0000 18.1378 0.0000 0.0000
# 5 0.0000 0.0000 0.0000 0.0000 25.9380 0.0000
# 6 0.0000 0.0000 0.0000 0.0000 0.0000 29.5868
#
#
#
# Elastic Compliance Matrix: (Units=1/GPa)
#
#
# Indices 1 2 3 4 5 6 
#
# 1 0.025820 -0.009688 -0.006247 0.000000 0.000000 0.000000
# 2 -0.009688 0.014394 -0.002852 0.000000 0.000000 0.000000
# 3 -0.006247 -0.002852 0.015415 0.000000 0.000000 0.000000
# 4 0.000000 0.000000 0.000000 0.055133 0.000000 0.000000
# 5 0.000000 0.000000 0.000000 0.000000 0.038554 0.000000
# 6 0.000000 0.000000 0.000000 0.000000 0.000000 0.033799
#
#
# Mechanical properties :
#
#
# Convention : Reuss Voigt Hill
#
# Bulk Modulus (GPa) = 55.38626 59.26330 57.32478
# Shear Modulus (GPa) = 22.05488 23.82434 22.93961
#
# Velocity S-wave (km/s) = 3.55054 3.69023 3.62106
# Velocity P-wave (km/s) = 6.96181 7.21328 7.08866
#
# Compressibility (1/GPa) = 0.01805502
#
# Stress axis : x y z
#
# Youngs Moduli (GPa) = 38.72993 69.47293 64.87139
#
# Poissons Ratio (x) = 0.67307 0.40525
# Poissons Ratio (y) = 0.37522 0.18500
# Poissons Ratio (z) = 0.24195 0.19812
#
# Static dielectric constant tensor:
#      x y z
#    x 3.058880 0.000000 0.000000 
#    y 0.000000 3.249610 0.000000 
#    z 0.000000 0.000000 3.072960 
# 
# 
# High freq. dielectric constant tensor:
#      x y z
#    x 1.659590 0.000000 0.000000 
#    y 0.000000 1.679710 0.000000 
#    z 0.000000 0.000000 1.660310 
# 
# From -- ./inp_files/22560.got.cif
#   From: 2010.03.12/outbox.cif.g09.slc.cpg/sg65_12_cif.got.tgz:22560.got - 2010.04.10 20:52:16.
