data_PCOD8267447
_publ_section_title
;
Structure prediction by ZEFSAII (Michael W. Deem and Ramdas Pophale) SiO2 
 PCOD8267447
Probable space group: C M M M
;
_chemical_formula_sum "Si O2"
_cell_formula_units_Z 88
_cell_length_a 15.156597
_cell_length_b 16.908990
_cell_length_c 21.526416
_cell_angle_alpha 90.000000
_cell_angle_beta 90.000000
_cell_angle_gamma 90.000000
_cell_volume 5516.849028
_symmetry_space_group_name_H-M "C M M M"
_symmetry_group_IT_number 65
_symmetry_cell_setting 'orthorhombic'
loop_
_space_group_symop_operation_xyz
x,y,z
-x,-y,z
x,-y,-z
-x,y,-z
-x,-y,-z
x,y,-z
-x,y,z
x,-y,z
1/2+x,1/2+y,z
1/2-x,1/2-y,z
1/2+x,1/2-y,-z
1/2-x,1/2+y,-z
1/2-x,1/2-y,-z
1/2+x,1/2+y,-z
1/2-x,1/2+y,z
1/2+x,1/2-y,z
loop_
_atom_site_type_symbol
_atom_site_label
_atom_site_fract_x
_atom_site_fract_y
_atom_site_fract_z
Si Si1 0.320707 0.688910 0.111140
Si Si2 0.895721 0.088887 0.432987
Si Si3 0.399396 0.643144 0.302311
Si Si4 0.902043 0.289449 0.779361
Si Si5 0.397499 0.410252 0.000000
Si Si6 0.752297 0.589021 0.216000
O O1 0.250000 0.750000 0.081152
O O2 0.380905 0.739477 0.158460
O O3 0.272445 0.619118 0.147892
O O4 0.374675 0.643333 0.059081
O O5 0.859294 0.121193 0.500000
O O6 0.866536 0.141632 0.374058
O O7 0.000000 0.087590 0.436650
O O8 0.860114 0.000000 0.422231
O O9 0.500000 0.608995 0.295405
O O10 0.397139 0.733160 0.280314
O O11 0.331880 0.591787 0.261485
O O12 0.834006 0.357942 0.761665
O O13 0.000000 0.325253 0.787395
O O14 0.354460 0.500000 0.000000
O O15 0.500000 0.424159 0.000000
O O16 0.786278 0.500000 0.210992
#
# Coordination Sequence:
#
# PCOD8267447 Si02
#       6
#    16  16  16  16   8  16
#     4   9  18  33  49  64  85 114 146 177 212 254
#     4   8  13  21  35  59  90 118 142 171 211 258
#     4   9  16  27  44  65  90 118 144 172 213 265
#     4   9  18  32  48  64  85 115 149 183 217 255
#     4  11  21  30  44  68  95 117 138 168 208 257
#     4  10  19  30  46  67  89 113 145 184 220 255
#
# _framework density 15.951135000000001
#
# number of rings (size 3 to 8) (size 9 to 14) (size 15 to 20)
#    0.000    2.818    0.000    4.091    0.000    2.182 
#    0.000    0.000    0.000    2.182    0.000    0.000 
#    0.000   13.091    0.000   10.909    0.000    0.182 
#
# Total GULP energy -545098.333985 kJ/mol
# GULP energy per Si atom -12388.598500 kJ/mol
# Density = 1.591483 g / cm^3
# Si number density = 15.951135 Si / 1000 Ang^3
#
#
#
# Elastic Constant Matrix: (Units=GPa)
#
#
# Indices 1 2 3 4 5 6 
#
# 1 73.9367 42.0897 31.6219 0.0000 0.0000 0.0000
# 2 42.0897 95.9055 49.7345 0.0000 0.0000 0.0000
# 3 31.6219 49.7345 104.2665 0.0000 0.0000 0.0000
# 4 0.0000 0.0000 0.0000 31.4761 0.0000 0.0000
# 5 0.0000 0.0000 0.0000 0.0000 13.9618 0.0000
# 6 0.0000 0.0000 0.0000 0.0000 0.0000 19.6163
#
#
#
# Elastic Compliance Matrix: (Units=1/GPa)
#
#
# Indices 1 2 3 4 5 6 
#
# 1 0.018436 -0.006898 -0.002301 0.000000 0.000000 0.000000
# 2 -0.006898 0.016434 -0.005747 0.000000 0.000000 0.000000
# 3 -0.002301 -0.005747 0.013030 0.000000 0.000000 0.000000
# 4 0.000000 0.000000 0.000000 0.031770 0.000000 0.000000
# 5 0.000000 0.000000 0.000000 0.000000 0.071624 0.000000
# 6 0.000000 0.000000 0.000000 0.000000 0.000000 0.050978
#
#
# Mechanical properties :
#
#
# Convention : Reuss Voigt Hill
#
# Bulk Modulus (GPa) = 55.52928 57.88898 56.70913
# Shear Modulus (GPa) = 20.99367 23.05502 22.02434
#
# Velocity S-wave (km/s) = 3.63178 3.80590 3.71986
# Velocity P-wave (km/s) = 7.24390 7.46213 7.35383
#
# Compressibility (1/GPa) = 0.01800852
#
# Stress axis : x y z
#
# Youngs Moduli (GPa) = 54.24232 60.84787 76.74541
#
# Poissons Ratio (x) = 0.41970 0.17660
# Poissons Ratio (y) = 0.37414 0.44108
# Poissons Ratio (z) = 0.12482 0.34971
#
# Static dielectric constant tensor:
#      x y z
#    x 2.951200 0.000000 0.000000 
#    y 0.000000 2.948350 0.000000 
#    z 0.000000 0.000000 3.261590 
# 
# 
# High freq. dielectric constant tensor:
#      x y z
#    x 1.592970 0.000000 0.000000 
#    y 0.000000 1.599660 0.000000 
#    z 0.000000 0.000000 1.613180 
# 
# From -- ./inp_files/62463.got.cif
#   From: 2010.03.12/outbox.cif.g09.slc.cpg/sg65_32_cif.got.tgz:62463.got - 2010.04.10 20:52:16.
