data_PCOD8267592
_publ_section_title
;
Structure prediction by ZEFSAII (Michael W. Deem and Ramdas Pophale) SiO2 
 PCOD8267592
Probable space group: C M M M
;
_chemical_formula_sum "Si O2"
_cell_formula_units_Z 80
_cell_length_a 20.273976
_cell_length_b 27.741032
_cell_length_c 9.109197
_cell_angle_alpha 90.000000
_cell_angle_beta 90.000000
_cell_angle_gamma 90.000000
_cell_volume 5123.203841
_symmetry_space_group_name_H-M "C M M M"
_symmetry_group_IT_number 65
_symmetry_cell_setting 'orthorhombic'
loop_
_space_group_symop_operation_xyz
x,y,z
-x,-y,z
x,-y,-z
-x,y,-z
-x,-y,-z
x,y,-z
-x,y,z
x,-y,z
1/2+x,1/2+y,z
1/2-x,1/2-y,z
1/2+x,1/2-y,-z
1/2-x,1/2+y,-z
1/2-x,1/2-y,-z
1/2+x,1/2+y,-z
1/2-x,1/2+y,z
1/2+x,1/2-y,z
loop_
_atom_site_type_symbol
_atom_site_label
_atom_site_fract_x
_atom_site_fract_y
_atom_site_fract_z
Si Si1 0.689084 0.106237 0.165857
Si Si2 0.076022 0.055811 0.167051
Si Si3 0.075438 0.444877 0.329380
Si Si4 0.737001 0.697074 0.833562
Si Si5 0.315627 0.613312 0.326654
O O1 0.620494 0.091085 0.237254
O O2 0.695475 0.164916 0.167701
O O3 0.752160 0.085284 0.256487
O O4 0.692244 0.086216 0.000000
O O5 0.117659 0.087198 0.280192
O O6 0.000000 0.069320 0.190986
O O7 0.088028 0.000000 0.202306
O O8 0.097314 0.067385 0.000000
O O9 0.086012 0.434120 0.500000
O O10 0.094516 0.500000 0.293481
O O11 0.000000 0.435079 0.284269
O O12 0.750000 0.750000 0.766389
O O13 0.683078 0.668607 0.734505
O O14 0.709781 0.701916 0.000000
O O15 0.308900 0.613392 0.500000
#
# Coordination Sequence:
#
# PCOD8267592 Si02
#       5
#    16  16  16  16  16
#     4   9  18  31  48  71  93 121 159 197 233 271
#     4   9  18  33  51  69  93 128 165 197 232 276
#     4   9  18  32  48  67  95 129 158 187 231 281
#     4   8  16  32  51  70  93 121 155 194 236 280
#     4  10  19  30  47  73  99 124 155 194 238 282
#
# _framework density 15.615228999999999
#
# number of rings (size 3 to 8) (size 9 to 14) (size 15 to 20)
#    1.200    1.800    0.000    3.000    0.000    2.800 
#    0.000    2.000    0.000    1.200    0.000    2.800 
#    0.000    0.000    0.000    0.000    0.000    0.000 
#
# Total GULP energy -495609.035625 kJ/mol
# GULP energy per Si atom -12390.225891 kJ/mol
# Density = 1.557969 g / cm^3
# Si number density = 15.615229 Si / 1000 Ang^3
#
#
#
# Elastic Constant Matrix: (Units=GPa)
#
#
# Indices 1 2 3 4 5 6 
#
# 1 80.0235 47.5177 52.5327 0.0000 0.0000 0.0000
# 2 47.5177 75.8356 46.6399 0.0000 0.0000 0.0000
# 3 52.5327 46.6399 107.0796 0.0000 0.0000 0.0000
# 4 0.0000 0.0000 0.0000 11.5231 0.0000 0.0000
# 5 0.0000 0.0000 0.0000 0.0000 30.6676 0.0000
# 6 0.0000 0.0000 0.0000 0.0000 0.0000 6.4252
#
#
#
# Elastic Compliance Matrix: (Units=1/GPa)
#
#
# Indices 1 2 3 4 5 6 
#
# 1 0.023084 -0.010243 -0.006863 0.000000 0.000000 0.000000
# 2 -0.010243 0.022556 -0.004799 0.000000 0.000000 0.000000
# 3 -0.006863 -0.004799 0.014796 0.000000 0.000000 0.000000
# 4 0.000000 0.000000 0.000000 0.086782 0.000000 0.000000
# 5 0.000000 0.000000 0.000000 0.000000 0.032608 0.000000
# 6 0.000000 0.000000 0.000000 0.000000 0.000000 0.155636
#
#
# Mechanical properties :
#
#
# Convention : Reuss Voigt Hill
#
# Bulk Modulus (GPa) = 60.15068 61.81324 60.98196
# Shear Modulus (GPa) = 12.99317 17.47308 15.23312
#
# Velocity S-wave (km/s) = 2.88771 3.34874 3.12674
# Velocity P-wave (km/s) = 7.05143 7.39075 7.22309
#
# Compressibility (1/GPa) = 0.01662492
#
# Stress axis : x y z
#
# Youngs Moduli (GPa) = 43.31929 44.33319 67.58358
#
# Poissons Ratio (x) = 0.45412 0.46386
# Poissons Ratio (y) = 0.44373 0.32436
# Poissons Ratio (z) = 0.29732 0.21278
#
# Static dielectric constant tensor:
#      x y z
#    x 2.763410 0.000000 0.000000 
#    y 0.000000 2.834200 0.000000 
#    z 0.000000 0.000000 2.902110 
# 
# 
# High freq. dielectric constant tensor:
#      x y z
#    x 1.580650 0.000000 0.000000 
#    y 0.000000 1.578940 0.000000 
#    z 0.000000 0.000000 1.603900 
# 
# From -- ./inp_files/12529.got.cif
#   From: 2010.03.12/outbox.cif.g09.slc.cpg/sg65_7_cif.got.tgz:12529.got - 2010.04.10 20:52:16.
