data_PCOD8267066
_publ_section_title
;
Structure prediction by ZEFSAII (Michael W. Deem and Ramdas Pophale) SiO2 
 PCOD8267066
Probable space group: C M M M
;
_chemical_formula_sum "Si O2"
_cell_formula_units_Z 88
_cell_length_a 31.897461
_cell_length_b 9.112238
_cell_length_c 18.283709
_cell_angle_alpha 90.000000
_cell_angle_beta 90.000000
_cell_angle_gamma 90.000000
_cell_volume 5314.292692
_symmetry_space_group_name_H-M "C M M M"
_symmetry_group_IT_number 65
_symmetry_cell_setting 'orthorhombic'
loop_
_space_group_symop_operation_xyz
x,y,z
-x,-y,z
x,-y,-z
-x,y,-z
-x,-y,-z
x,y,-z
-x,y,z
x,-y,z
1/2+x,1/2+y,z
1/2-x,1/2-y,z
1/2+x,1/2-y,-z
1/2-x,1/2+y,-z
1/2-x,1/2-y,-z
1/2+x,1/2+y,-z
1/2-x,1/2+y,z
1/2+x,1/2-y,z
loop_
_atom_site_type_symbol
_atom_site_label
_atom_site_fract_x
_atom_site_fract_y
_atom_site_fract_z
Si Si1 0.330412 0.831076 0.787085
Si Si2 0.451148 0.830795 0.583295
Si Si3 0.293945 0.330600 0.917170
Si Si4 0.750000 0.250000 0.304091
Si Si5 0.191796 0.160697 0.578046
Si Si6 0.882605 0.175733 0.329239
O O1 0.327042 0.749173 0.864750
O O2 0.285519 0.824469 0.745431
O O3 0.369015 0.750303 0.746991
O O4 0.342338 0.000000 0.799314
O O5 0.439896 0.784502 0.500000
O O6 0.500000 0.805910 0.597635
O O7 0.427519 0.729595 0.642317
O O8 0.438969 0.000000 0.596031
O O9 0.288177 0.500000 0.893262
O O10 0.250000 0.250000 0.909207
O O11 0.310869 0.319227 0.000000
O O12 0.771645 0.139954 0.361781
O O13 0.204825 0.237538 0.500000
O O14 0.151458 0.240234 0.612928
O O15 0.176177 0.000000 0.558566
O O16 0.882166 0.000000 0.319675
#
# Coordination Sequence:
#
# PCOD8267066 Si02
#       6
#    16  16  16   8  16  16
#     4  11  21  32  48  67  94 128 162 200 242 288
#     4   9  18  33  52  73  98 127 160 201 249 300
#     4  10  20  33  50  71  95 124 160 201 243 288
#     4  10  19  28  41  60  84 116 160 202 237 282
#     4   9  17  28  40  55  79 112 152 198 241 277
#     4  10  20  32  47  68  94 123 160 202 244 291
#
# _framework density 16.559118000000002
#
# number of rings (size 3 to 8) (size 9 to 14) (size 15 to 20)
#    0.000    2.182    0.909    3.545    0.000    4.000 
#    0.000    0.909    0.000    8.727    0.000    0.000 
#    0.000    0.727    0.000    7.636    0.000    3.273 
#
# Total GULP energy -545089.837052 kJ/mol
# GULP energy per Si atom -12388.405388 kJ/mol
# Density = 1.652143 g / cm^3
# Si number density = 16.559118 Si / 1000 Ang^3
#
#
#
# Elastic Constant Matrix: (Units=GPa)
#
#
# Indices 1 2 3 4 5 6 
#
# 1 63.1590 34.9313 35.9416 0.0000 0.0000 0.0000
# 2 34.9313 113.1865 51.8856 0.0000 0.0000 0.0000
# 3 35.9416 51.8856 110.6786 0.0000 0.0000 0.0000
# 4 0.0000 0.0000 0.0000 24.2730 0.0000 0.0000
# 5 0.0000 0.0000 0.0000 0.0000 24.4963 0.0000
# 6 0.0000 0.0000 0.0000 0.0000 0.0000 23.8998
#
#
#
# Elastic Compliance Matrix: (Units=1/GPa)
#
#
# Indices 1 2 3 4 5 6 
#
# 1 0.020917 -0.004256 -0.004797 0.000000 0.000000 0.000000
# 2 -0.004256 0.012119 -0.004299 0.000000 0.000000 0.000000
# 3 -0.004797 -0.004299 0.012609 0.000000 0.000000 0.000000
# 4 0.000000 0.000000 0.000000 0.041198 0.000000 0.000000
# 5 0.000000 0.000000 0.000000 0.000000 0.040822 0.000000
# 6 0.000000 0.000000 0.000000 0.000000 0.000000 0.041841
#
#
# Mechanical properties :
#
#
# Convention : Reuss Voigt Hill
#
# Bulk Modulus (GPa) = 52.80042 59.17121 55.98581
# Shear Modulus (GPa) = 24.68825 25.48487 25.08656
#
# Velocity S-wave (km/s) = 3.86543 3.92729 3.89648
# Velocity P-wave (km/s) = 7.20259 7.50838 7.35707
#
# Compressibility (1/GPa) = 0.01893924
#
# Stress axis : x y z
#
# Youngs Moduli (GPa) = 47.80803 82.51245 79.31141
#
# Poissons Ratio (x) = 0.35119 0.38048
# Poissons Ratio (y) = 0.20348 0.34099
# Poissons Ratio (z) = 0.22935 0.35475
#
# Static dielectric constant tensor:
#      x y z
#    x 2.841250 0.000000 0.000000 
#    y 0.000000 3.025030 0.000000 
#    z 0.000000 0.000000 3.362770 
# 
# 
# High freq. dielectric constant tensor:
#      x y z
#    x 1.599880 0.000000 0.000000 
#    y 0.000000 1.637230 0.000000 
#    z 0.000000 0.000000 1.635680 
# 
# From -- ./inp_files/66219.got.cif
#   From: 2010.03.12/outbox.cif.g09.slc.cpg/sg65_34_cif.got.tgz:66219.got - 2010.04.10 20:52:16.
