data_PCOD8267245
_publ_section_title
;
Structure prediction by ZEFSAII (Michael W. Deem and Ramdas Pophale) SiO2 
 PCOD8267245
Probable space group: C M M M
;
_chemical_formula_sum "Si O2"
_cell_formula_units_Z 80
_cell_length_a 9.549338
_cell_length_b 20.128689
_cell_length_c 22.472565
_cell_angle_alpha 90.000000
_cell_angle_beta 90.000000
_cell_angle_gamma 90.000000
_cell_volume 4319.578796
_symmetry_space_group_name_H-M "C M M M"
_symmetry_group_IT_number 65
_symmetry_cell_setting 'orthorhombic'
loop_
_space_group_symop_operation_xyz
x,y,z
-x,-y,z
x,-y,-z
-x,y,-z
-x,-y,-z
x,y,-z
-x,y,z
x,-y,z
1/2+x,1/2+y,z
1/2-x,1/2-y,z
1/2+x,1/2-y,-z
1/2-x,1/2+y,-z
1/2-x,1/2-y,-z
1/2+x,1/2+y,-z
1/2-x,1/2+y,z
1/2+x,1/2-y,z
loop_
_atom_site_type_symbol
_atom_site_label
_atom_site_fract_x
_atom_site_fract_y
_atom_site_fract_z
Si Si1 0.160395 0.811314 0.185464
Si Si2 0.666262 0.427126 0.731349
Si Si3 0.167929 0.179535 0.500000
Si Si4 0.155727 0.500000 0.070413
Si Si5 0.834098 0.925488 0.598038
Si Si6 0.840986 0.878109 0.932992
O O1 0.250000 0.750000 0.207866
O O2 0.222006 0.874958 0.220215
O O3 0.176254 0.818626 0.113974
O O4 0.000000 0.798475 0.203075
O O5 0.500000 0.428708 0.732579
O O6 0.724607 0.500000 0.748947
O O7 0.717565 0.408455 0.664867
O O8 0.250000 0.250000 0.500000
O O9 0.217757 0.134584 0.556070
O O10 0.000000 0.192818 0.500000
O O11 0.239451 0.564663 0.090902
O O12 0.000000 0.500000 0.098416
O O13 0.147232 0.500000 0.000000
O O14 0.000000 0.928046 0.594773
O O15 0.779239 0.000000 0.579531
O O16 0.000000 0.905541 0.931696
O O17 0.802416 0.853744 0.000000
#
# Coordination Sequence:
#
# PCOD8267245 Si02
#       6
#    16  16   8   8  16  16
#     4  10  21  34  50  71  97 128 162 200 245 293
#     4   8  15  29  50  73  94 121 162 206 243 282
#     4  10  19  29  45  73 105 132 160 194 240 286
#     4   9  17  29  47  73  99 121 149 192 245 290
#     4   8  14  27  48  72  95 123 164 208 239 271
#     4   9  18  32  49  69  94 126 163 199 238 289
#
# _framework density 18.520325
#
# number of rings (size 3 to 8) (size 9 to 14) (size 15 to 20)
#    0.000    3.100    0.000    1.800    1.400    4.400 
#    0.000    0.000    0.000    1.200    0.000    2.800 
#    0.000    0.000    0.000    0.000    0.000    0.000 
#
# Total GULP energy -495612.139919 kJ/mol
# GULP energy per Si atom -12390.303498 kJ/mol
# Density = 1.847817 g / cm^3
# Si number density = 18.520325 Si / 1000 Ang^3
#
#
#
# Elastic Constant Matrix: (Units=GPa)
#
#
# Indices 1 2 3 4 5 6 
#
# 1 47.0608 40.3276 19.8318 0.0000 0.0000 0.0000
# 2 40.3276 144.4106 74.4134 0.0000 0.0000 0.0000
# 3 19.8318 74.4134 110.4422 0.0000 0.0000 0.0000
# 4 0.0000 0.0000 0.0000 22.1852 0.0000 0.0000
# 5 0.0000 0.0000 0.0000 0.0000 9.3705 0.0000
# 6 0.0000 0.0000 0.0000 0.0000 0.0000 23.9534
#
#
#
# Elastic Compliance Matrix: (Units=1/GPa)
#
#
# Indices 1 2 3 4 5 6 
#
# 1 0.027943 -0.007993 0.000368 0.000000 0.000000 0.000000
# 2 -0.007993 0.012894 -0.007252 0.000000 0.000000 0.000000
# 3 0.000368 -0.007252 0.013875 0.000000 0.000000 0.000000
# 4 0.000000 0.000000 0.000000 0.045075 0.000000 0.000000
# 5 0.000000 0.000000 0.000000 0.000000 0.106718 0.000000
# 6 0.000000 0.000000 0.000000 0.000000 0.000000 0.041748
#
#
# Mechanical properties :
#
#
# Convention : Reuss Voigt Hill
#
# Bulk Modulus (GPa) = 40.06859 63.45104 51.75981
# Shear Modulus (GPa) = 17.46254 22.25788 19.86021
#
# Velocity S-wave (km/s) = 3.07398 3.47047 3.27822
# Velocity P-wave (km/s) = 5.85500 7.09884 6.50671
#
# Compressibility (1/GPa) = 0.02495721
#
# Stress axis : x y z
#
# Youngs Moduli (GPa) = 35.78659 77.55675 72.07251
#
# Poissons Ratio (x) = 0.61990 -0.02650
# Poissons Ratio (y) = 0.28604 0.52269
# Poissons Ratio (z) = -0.01316 0.56246
#
# Static dielectric constant tensor:
#      x y z
#    x 3.074430 0.000000 0.000000 
#    y 0.000000 3.451110 0.000000 
#    z 0.000000 0.000000 3.612510 
# 
# 
# High freq. dielectric constant tensor:
#      x y z
#    x 1.666260 0.000000 0.000000 
#    y 0.000000 1.711370 0.000000 
#    z 0.000000 0.000000 1.722570 
# 
# From -- ./inp_files/67287.got.cif
#   From: 2010.03.12/outbox.cif.g09.slc.cpg/sg65_34_cif.got.tgz:67287.got - 2010.04.10 20:52:16.
