data_PCOD8267042
_publ_section_title
;
Structure prediction by ZEFSAII (Michael W. Deem and Ramdas Pophale) SiO2 
 PCOD8267042
Probable space group: C M M M
;
_chemical_formula_sum "Si O2"
_cell_formula_units_Z 80
_cell_length_a 30.765155
_cell_length_b 13.531905
_cell_length_c 13.426301
_cell_angle_alpha 90.000000
_cell_angle_beta 90.000000
_cell_angle_gamma 90.000000
_cell_volume 5589.518874
_symmetry_space_group_name_H-M "C M M M"
_symmetry_group_IT_number 65
_symmetry_cell_setting 'orthorhombic'
loop_
_space_group_symop_operation_xyz
x,y,z
-x,-y,z
x,-y,-z
-x,y,-z
-x,-y,-z
x,y,-z
-x,y,z
x,-y,z
1/2+x,1/2+y,z
1/2-x,1/2-y,z
1/2+x,1/2-y,-z
1/2-x,1/2+y,-z
1/2-x,1/2-y,-z
1/2+x,1/2+y,-z
1/2-x,1/2+y,z
1/2+x,1/2-y,z
loop_
_atom_site_type_symbol
_atom_site_label
_atom_site_fract_x
_atom_site_fract_y
_atom_site_fract_z
Si Si1 0.265229 0.614812 0.198771
Si Si2 0.215513 0.616576 0.609598
Si Si3 0.683072 0.785892 0.884722
Si Si4 0.868961 0.382649 0.726556
Si Si5 0.547997 0.882694 0.611493
O O1 0.276981 0.500000 0.188434
O O2 0.253758 0.645708 0.313031
O O3 0.306072 0.678682 0.162473
O O4 0.223461 0.639257 0.130311
O O5 0.224267 0.663234 0.500000
O O6 0.214063 0.500000 0.600845
O O7 0.168718 0.651565 0.650246
O O8 0.640218 0.830387 0.832295
O O9 0.672415 0.773306 0.000000
O O10 0.869178 0.500000 0.742172
O O11 0.914968 0.342086 0.685460
O O12 0.556022 0.841422 0.500000
O O13 0.500000 0.849843 0.649307
O O14 0.551112 0.000000 0.607821
#
# Coordination Sequence:
#
# PCOD8267042 Si02
#       5
#    16  16  16  16  16
#     4   9  17  28  40  54  73  98 129 163 195 224
#     4   8  13  22  36  52  72  98 123 148 181 219
#     4  10  19  28  38  53  72  97 133 168 194 222
#     4   9  16  25  37  54  77 102 126 153 184 220
#     4   8  13  22  38  59  81 104 126 148 179 221
#
# _framework density 14.312502
#
# number of rings (size 3 to 8) (size 9 to 14) (size 15 to 20)
#    0.000    3.200    0.000    4.200    0.000    5.200 
#    0.000    9.000    0.000    0.600    0.000    2.800 
#    0.000    0.800    0.000    4.000    0.000    0.200 
#
# Total GULP energy -495696.855958 kJ/mol
# GULP energy per Si atom -12392.421399 kJ/mol
# Density = 1.427993 g / cm^3
# Si number density = 14.312502 Si / 1000 Ang^3
#
#
#
# Elastic Constant Matrix: (Units=GPa)
#
#
# Indices 1 2 3 4 5 6 
#
# 1 82.2138 24.6800 54.2505 0.0000 0.0000 0.0000
# 2 24.6800 51.2043 29.0586 0.0000 0.0000 0.0000
# 3 54.2505 29.0586 128.4749 0.0000 0.0000 0.0000
# 4 0.0000 0.0000 0.0000 11.9513 0.0000 0.0000
# 5 0.0000 0.0000 0.0000 0.0000 17.7668 0.0000
# 6 0.0000 0.0000 0.0000 0.0000 0.0000 12.5207
#
#
#
# Elastic Compliance Matrix: (Units=1/GPa)
#
#
# Indices 1 2 3 4 5 6 
#
# 1 0.017903 -0.004978 -0.006434 0.000000 0.000000 0.000000
# 2 -0.004978 0.023790 -0.003279 0.000000 0.000000 0.000000
# 3 -0.006434 -0.003279 0.011242 0.000000 0.000000 0.000000
# 4 0.000000 0.000000 0.000000 0.083673 0.000000 0.000000
# 5 0.000000 0.000000 0.000000 0.000000 0.056285 0.000000
# 6 0.000000 0.000000 0.000000 0.000000 0.000000 0.079868
#
#
# Mechanical properties :
#
#
# Convention : Reuss Voigt Hill
#
# Bulk Modulus (GPa) = 42.45632 53.09682 47.77657
# Shear Modulus (GPa) = 16.12939 18.70802 17.41870
#
# Velocity S-wave (km/s) = 3.36064 3.61932 3.49238
# Velocity P-wave (km/s) = 6.69229 7.39221 7.05094
#
# Compressibility (1/GPa) = 0.02355362
#
# Stress axis : x y z
#
# Youngs Moduli (GPa) = 55.85531 42.03509 88.95135
#
# Poissons Ratio (x) = 0.20925 0.57232
# Poissons Ratio (y) = 0.27804 0.29165
# Poissons Ratio (z) = 0.35938 0.13782
#
# Static dielectric constant tensor:
#      x y z
#    x 2.720740 0.000000 0.000000 
#    y 0.000000 2.542690 0.000000 
#    z 0.000000 0.000000 3.012150 
# 
# 
# High freq. dielectric constant tensor:
#      x y z
#    x 1.512210 0.000000 0.000000 
#    y 0.000000 1.513030 0.000000 
#    z 0.000000 0.000000 1.550280 
# 
# From -- ./inp_files/33703.got.cif
#   From: 2010.03.12/outbox.cif.g09.slc.cpg/sg65_17_cif.got.tgz:33703.got - 2010.04.10 20:52:16.
