data_PCOD8267816
_publ_section_title
;
Structure prediction by ZEFSAII (Michael W. Deem and Ramdas Pophale) SiO2 
 PCOD8267816
Probable space group: C M M M
;
_chemical_formula_sum "Si O2"
_cell_formula_units_Z 104
_cell_length_a 8.673018
_cell_length_b 26.781794
_cell_length_c 23.387774
_cell_angle_alpha 90.000000
_cell_angle_beta 90.000000
_cell_angle_gamma 90.000000
_cell_volume 5432.488323
_symmetry_space_group_name_H-M "C M M M"
_symmetry_group_IT_number 65
_symmetry_cell_setting 'orthorhombic'
loop_
_space_group_symop_operation_xyz
x,y,z
-x,-y,z
x,-y,-z
-x,y,-z
-x,-y,-z
x,y,-z
-x,y,z
x,-y,z
1/2+x,1/2+y,z
1/2-x,1/2-y,z
1/2+x,1/2-y,-z
1/2-x,1/2+y,-z
1/2-x,1/2-y,-z
1/2+x,1/2+y,-z
1/2-x,1/2+y,z
1/2+x,1/2-y,z
loop_
_atom_site_type_symbol
_atom_site_label
_atom_site_fract_x
_atom_site_fract_y
_atom_site_fract_z
Si Si1 0.180680 0.802238 0.563616
Si Si2 0.677480 0.202863 0.246893
Si Si3 0.177445 0.944248 0.754848
Si Si4 0.179945 0.198696 0.124889
Si Si5 0.324284 0.365364 0.331119
Si Si6 0.816631 0.500000 0.935720
Si Si7 0.682555 0.903678 0.132721
O O1 0.245751 0.814135 0.500000
O O2 0.250000 0.750000 0.586960
O O3 0.222337 0.850083 0.604055
O O4 0.000000 0.794319 0.561206
O O5 0.500000 0.208758 0.228148
O O6 0.750000 0.250000 0.280678
O O7 0.785815 0.197607 0.191954
O O8 0.697355 0.157851 0.289708
O O9 0.189649 0.923225 0.689012
O O10 0.265186 0.909690 0.801191
O O11 0.000000 0.945158 0.773967
O O12 0.248136 0.000000 0.754759
O O13 0.250000 0.250000 0.097423
O O14 0.253221 0.146705 0.102102
O O15 0.000000 0.198463 0.111786
O O16 0.500000 0.346623 0.319762
O O17 0.755406 0.450900 0.903210
O O18 0.000000 0.500000 0.936206
O O19 0.750581 0.500000 0.000000
O O20 0.500000 0.899849 0.132275
#
# Coordination Sequence:
#
# PCOD8267816 Si02
#       7
#    16  16  16  16  16   8  16
#     4   9  18  32  49  69  95 130 174 220 268 321
#     4  11  20  29  43  67 100 134 169 207 250 307
#     4  10  20  33  50  73 104 141 177 219 275 332
#     4  11  21  34  51  76 111 149 184 221 269 329
#     4  10  19  31  47  68  97 134 171 214 267 322
#     4   9  20  38  61  89 119 151 188 231 278 324
#     4  11  20  34  57  84 113 148 187 230 276 329
#
# _framework density 19.144082000000001
#
# number of rings (size 3 to 8) (size 9 to 14) (size 15 to 20)
#    0.000    1.769    2.308    4.615    0.000    1.846 
#    0.000    0.000    0.000    4.615    0.000    3.231 
#    0.000    0.000    0.000    6.615    0.000    7.077 
#
# Total GULP energy -644182.784393 kJ/mol
# GULP energy per Si atom -12388.130469 kJ/mol
# Density = 1.910051 g / cm^3
# Si number density = 19.144082 Si / 1000 Ang^3
#
#
#
# Elastic Constant Matrix: (Units=GPa)
#
#
# Indices 1 2 3 4 5 6 
#
# 1 70.6025 33.6200 11.8919 0.0000 0.0000 0.0000
# 2 33.6200 146.5332 39.7898 0.0000 0.0000 0.0000
# 3 11.8919 39.7898 78.3915 0.0000 0.0000 0.0000
# 4 0.0000 0.0000 0.0000 23.6381 0.0000 0.0000
# 5 0.0000 0.0000 0.0000 0.0000 13.2920 0.0000
# 6 0.0000 0.0000 0.0000 0.0000 0.0000 26.0957
#
#
#
# Elastic Compliance Matrix: (Units=1/GPa)
#
#
# Indices 1 2 3 4 5 6 
#
# 1 0.015930 -0.003478 -0.000651 0.000000 0.000000 0.000000
# 2 -0.003478 0.008675 -0.003875 0.000000 0.000000 0.000000
# 3 -0.000651 -0.003875 0.014822 0.000000 0.000000 0.000000
# 4 0.000000 0.000000 0.000000 0.042305 0.000000 0.000000
# 5 0.000000 0.000000 0.000000 0.000000 0.075233 0.000000
# 6 0.000000 0.000000 0.000000 0.000000 0.000000 0.038320
#
#
# Mechanical properties :
#
#
# Convention : Reuss Voigt Hill
#
# Bulk Modulus (GPa) = 42.70319 51.79230 47.24774
# Shear Modulus (GPa) = 22.82060 26.62019 24.72039
#
# Velocity S-wave (km/s) = 3.45635 3.73301 3.59734
# Velocity P-wave (km/s) = 6.18733 6.75967 6.47982
#
# Compressibility (1/GPa) = 0.02341746
#
# Stress axis : x y z
#
# Youngs Moduli (GPa) = 62.77587 115.27735 67.46560
#
# Poissons Ratio (x) = 0.40094 0.04393
# Poissons Ratio (y) = 0.21834 0.26146
# Poissons Ratio (z) = 0.04088 0.44676
#
# Static dielectric constant tensor:
#      x y z
#    x 3.334890 0.000000 0.000000 
#    y 0.000000 4.094080 0.000000 
#    z 0.000000 0.000000 3.410640 
# 
# 
# High freq. dielectric constant tensor:
#      x y z
#    x 1.737650 0.000000 0.000000 
#    y 0.000000 1.750250 0.000000 
#    z 0.000000 0.000000 1.706320 
# 
# From -- ./inp_files/68213.got.cif
#   From: 2010.03.12/outbox.cif.g09.slc.cpg/sg65_35_cif.got.tgz:68213.got - 2010.04.10 20:52:16.
