data_PCOD8267810
_publ_section_title
;
Structure prediction by ZEFSAII (Michael W. Deem and Ramdas Pophale) SiO2 
 PCOD8267810
Probable space group: C M M M
;
_chemical_formula_sum "Si O2"
_cell_formula_units_Z 88
_cell_length_a 19.540373
_cell_length_b 31.002608
_cell_length_c 9.197966
_cell_angle_alpha 90.000000
_cell_angle_beta 90.000000
_cell_angle_gamma 90.000000
_cell_volume 5572.151021
_symmetry_space_group_name_H-M "C M M M"
_symmetry_group_IT_number 65
_symmetry_cell_setting 'orthorhombic'
loop_
_space_group_symop_operation_xyz
x,y,z
-x,-y,z
x,-y,-z
-x,y,-z
-x,-y,-z
x,y,-z
-x,y,z
x,-y,z
1/2+x,1/2+y,z
1/2-x,1/2-y,z
1/2+x,1/2-y,-z
1/2-x,1/2+y,-z
1/2-x,1/2-y,-z
1/2+x,1/2+y,-z
1/2-x,1/2+y,z
1/2+x,1/2-y,z
loop_
_atom_site_type_symbol
_atom_site_label
_atom_site_fract_x
_atom_site_fract_y
_atom_site_fract_z
Si Si1 0.075818 0.828996 0.332674
Si Si2 0.420506 0.500000 0.328461
Si Si3 0.424378 0.757541 0.832084
Si Si4 0.314177 0.452733 0.166215
Si Si5 0.213518 0.127475 0.330547
Si Si6 0.215425 0.295503 0.168096
O O1 0.077534 0.815781 0.500000
O O2 0.095688 0.786168 0.247620
O O3 0.132816 0.864887 0.299904
O O4 0.000000 0.846212 0.288390
O O5 0.500000 0.500000 0.292506
O O6 0.405972 0.500000 0.500000
O O7 0.386065 0.457580 0.254768
O O8 0.500000 0.774599 0.784190
O O9 0.366220 0.793051 0.800381
O O10 0.423937 0.745210 0.000000
O O11 0.276728 0.500000 0.171248
O O12 0.267673 0.416574 0.245100
O O13 0.328563 0.438935 0.000000
O O14 0.230142 0.121879 0.500000
O O15 0.257320 0.167014 0.270691
O O16 0.250000 0.250000 0.209419
O O17 0.230621 0.306823 0.000000
#
# Coordination Sequence:
#
# PCOD8267810 Si02
#       6
#    16   8  16  16  16  16
#     4   9  18  30  42  60  88 121 157 196 237 279
#     4   9  17  31  51  71  93 123 158 199 246 289
#     4   9  17  30  47  65  88 123 162 196 233 278
#     4   9  20  35  50  66  89 120 156 200 243 286
#     4  11  21  31  48  70  93 123 160 201 244 291
#     4  10  19  31  47  68  96 126 158 198 241 283
#
# _framework density 15.792825000000001
#
# number of rings (size 3 to 8) (size 9 to 14) (size 15 to 20)
#    0.545    1.909    1.818    1.091    0.000    3.273 
#    0.000    1.818    0.000    0.000    0.000    0.000 
#    0.000    0.727    0.000    8.364    0.000    2.364 
#
# Total GULP energy -545244.247170 kJ/mol
# GULP energy per Si atom -12391.914708 kJ/mol
# Density = 1.575688 g / cm^3
# Si number density = 15.792825 Si / 1000 Ang^3
#
#
#
# Elastic Constant Matrix: (Units=GPa)
#
#
# Indices 1 2 3 4 5 6 
#
# 1 55.3871 33.2385 30.2140 0.0000 0.0000 0.0000
# 2 33.2385 91.9604 53.9701 0.0000 0.0000 0.0000
# 3 30.2140 53.9701 87.8319 0.0000 0.0000 0.0000
# 4 0.0000 0.0000 0.0000 25.6198 0.0000 0.0000
# 5 0.0000 0.0000 0.0000 0.0000 20.3236 0.0000
# 6 0.0000 0.0000 0.0000 0.0000 0.0000 17.1821
#
#
#
# Elastic Compliance Matrix: (Units=1/GPa)
#
#
# Indices 1 2 3 4 5 6 
#
# 1 0.024194 -0.006038 -0.004613 0.000000 0.000000 0.000000
# 2 -0.006038 0.018514 -0.009300 0.000000 0.000000 0.000000
# 3 -0.004613 -0.009300 0.018686 0.000000 0.000000 0.000000
# 4 0.000000 0.000000 0.000000 0.039032 0.000000 0.000000
# 5 0.000000 0.000000 0.000000 0.000000 0.049204 0.000000
# 6 0.000000 0.000000 0.000000 0.000000 0.000000 0.058200
#
#
# Mechanical properties :
#
#
# Convention : Reuss Voigt Hill
#
# Bulk Modulus (GPa) = 46.52242 52.22497 49.37369
# Shear Modulus (GPa) = 19.61579 20.47553 20.04566
#
# Velocity S-wave (km/s) = 3.52812 3.60461 3.56657
# Velocity P-wave (km/s) = 6.79108 7.10386 6.94923
#
# Compressibility (1/GPa) = 0.02149501
#
# Stress axis : x y z
#
# Youngs Moduli (GPa) = 41.33193 54.01230 53.51465
#
# Poissons Ratio (x) = 0.32611 0.24685
# Poissons Ratio (y) = 0.24955 0.49766
# Poissons Ratio (z) = 0.19066 0.50229
#
# Static dielectric constant tensor:
#      x y z
#    x 3.067440 0.000000 0.000000 
#    y 0.000000 2.816220 0.000000 
#    z 0.000000 0.000000 3.071040 
# 
# 
# High freq. dielectric constant tensor:
#      x y z
#    x 1.579030 0.000000 0.000000 
#    y 0.000000 1.583740 0.000000 
#    z 0.000000 0.000000 1.618550 
# 
# From -- ./inp_files/12668.got.cif
#   From: 2010.03.12/outbox.cif.g09.slc.cpg/sg65_7_cif.got.tgz:12668.got - 2010.04.10 20:52:16.
