data_PCOD8267304
_publ_section_title
;
Structure prediction by ZEFSAII (Michael W. Deem and Ramdas Pophale) SiO2 
 PCOD8267304
Probable space group: C M M M
;
_chemical_formula_sum "Si O2"
_cell_formula_units_Z 88
_cell_length_a 8.854304
_cell_length_b 36.585812
_cell_length_c 14.578011
_cell_angle_alpha 90.000000
_cell_angle_beta 90.000000
_cell_angle_gamma 90.000000
_cell_volume 4722.428604
_symmetry_space_group_name_H-M "C M M M"
_symmetry_group_IT_number 65
_symmetry_cell_setting 'orthorhombic'
loop_
_space_group_symop_operation_xyz
x,y,z
-x,-y,z
x,-y,-z
-x,y,-z
-x,-y,-z
x,y,-z
-x,y,z
x,-y,z
1/2+x,1/2+y,z
1/2-x,1/2-y,z
1/2+x,1/2-y,-z
1/2-x,1/2+y,-z
1/2-x,1/2-y,-z
1/2+x,1/2+y,-z
1/2-x,1/2+y,z
1/2+x,1/2-y,z
loop_
_atom_site_type_symbol
_atom_site_label
_atom_site_fract_x
_atom_site_fract_y
_atom_site_fract_z
Si Si1 0.820795 0.821465 0.600028
Si Si2 0.820240 0.142582 0.896828
Si Si3 0.680266 0.500000 0.104403
Si Si4 0.820414 0.903817 0.400033
Si Si5 0.179140 0.787616 0.215370
Si Si6 0.319946 0.428749 0.791913
O O1 0.768006 0.806484 0.500000
O O2 0.759288 0.862616 0.614044
O O3 0.760446 0.795543 0.681189
O O4 0.000000 0.822968 0.605448
O O5 0.762540 0.179681 0.849275
O O6 0.757455 0.107350 0.842667
O O7 0.000000 0.141700 0.896057
O O8 0.756823 0.141410 0.000000
O O9 0.500000 0.500000 0.104798
O O10 0.744416 0.464468 0.157076
O O11 0.740409 0.500000 0.000000
O O12 0.764574 0.918955 0.500000
O O13 0.763253 0.928458 0.314526
O O14 0.000000 0.902999 0.399259
O O15 0.250000 0.750000 0.179560
O O16 0.000000 0.784356 0.211707
O O17 0.500000 0.429096 0.795839
#
# Coordination Sequence:
#
# PCOD8267304 Si02
#       6
#    16  16   8  16  16  16
#     4   8  13  23  39  57  76  99 130 167 203 241
#     4   9  16  26  40  55  72  99 135 169 201 243
#     4   9  16  22  29  45  69  97 129 167 207 240
#     4   8  12  19  33  50  67  91 125 162 196 234
#     4  10  19  30  43  61  83 107 138 175 212 248
#     4   9  14  22  34  49  70  97 129 164 200 241
#
# _framework density 18.63448
#
# number of rings (size 3 to 8) (size 9 to 14) (size 15 to 20)
#    0.000    3.182    1.818    1.636    0.000    2.909 
#    0.000    0.455    0.000    2.727    0.000    0.000 
#    0.000    0.000    0.000    0.818    0.000    5.000 
#
# Total GULP energy -545177.158743 kJ/mol
# GULP energy per Si atom -12390.389971 kJ/mol
# Density = 1.859207 g / cm^3
# Si number density = 18.634480 Si / 1000 Ang^3
#
#
#
# Elastic Constant Matrix: (Units=GPa)
#
#
# Indices 1 2 3 4 5 6 
#
# 1 3.3270 7.8280 7.5698 0.0000 0.0000 0.0000
# 2 7.8280 150.4010 92.1194 0.0000 0.0000 0.0000
# 3 7.5698 92.1194 181.2370 0.0000 0.0000 0.0000
# 4 0.0000 0.0000 0.0000 29.4684 0.0000 0.0000
# 5 0.0000 0.0000 0.0000 0.0000 3.7984 0.0000
# 6 0.0000 0.0000 0.0000 0.0000 0.0000 11.5166
#
#
#
# Elastic Compliance Matrix: (Units=1/GPa)
#
#
# Indices 1 2 3 4 5 6 
#
# 1 0.349915 -0.013447 -0.007780 0.000000 0.000000 0.000000
# 2 -0.013447 0.010171 -0.004608 0.000000 0.000000 0.000000
# 3 -0.007780 -0.004608 0.008185 0.000000 0.000000 0.000000
# 4 0.000000 0.000000 0.000000 0.033935 0.000000 0.000000
# 5 0.000000 0.000000 0.000000 0.000000 0.263271 0.000000
# 6 0.000000 0.000000 0.000000 0.000000 0.000000 0.086831
#
#
# Mechanical properties :
#
#
# Convention : Reuss Voigt Hill
#
# Bulk Modulus (GPa) = 3.15855 61.11105 32.13480
# Shear Modulus (GPa) = 5.49745 24.11985 14.80865
#
# Velocity S-wave (km/s) = 1.71946 3.60163 2.82208
# Velocity P-wave (km/s) = 2.37503 7.08248 5.28215
#
# Compressibility (1/GPa) = 0.31660050
#
# Stress axis : x y z
#
# Youngs Moduli (GPa) = 2.85784 98.31619 122.17650
#
# Poissons Ratio (x) = 1.32204 0.95057
# Poissons Ratio (y) = 0.03843 0.56302
# Poissons Ratio (z) = 0.02223 0.45306
#
# Static dielectric constant tensor:
#      x y z
#    x 2.477600 0.000000 0.000000 
#    y 0.000000 3.448540 0.000000 
#    z 0.000000 0.000000 3.988760 
# 
# 
# High freq. dielectric constant tensor:
#      x y z
#    x 1.622630 0.000000 0.000000 
#    y 0.000000 1.713470 0.000000 
#    z 0.000000 0.000000 1.746690 
# 
# From -- ./inp_files/38815.got.cif
#   From: 2010.03.12/outbox.cif.g09.slc.cpg/sg65_20_cif.got.tgz:38815.got - 2010.04.10 20:52:16.
