data_PCOD8267096
_publ_section_title
;
Structure prediction by ZEFSAII (Michael W. Deem and Ramdas Pophale) SiO2 
 PCOD8267096
Probable space group: C M M M
;
_chemical_formula_sum "Si O2"
_cell_formula_units_Z 88
_cell_length_a 20.960182
_cell_length_b 24.676105
_cell_length_c 8.619970
_cell_angle_alpha 90.000000
_cell_angle_beta 90.000000
_cell_angle_gamma 90.000000
_cell_volume 4458.383402
_symmetry_space_group_name_H-M "C M M M"
_symmetry_group_IT_number 65
_symmetry_cell_setting 'orthorhombic'
loop_
_space_group_symop_operation_xyz
x,y,z
-x,-y,z
x,-y,-z
-x,y,-z
-x,-y,-z
x,y,-z
-x,y,z
x,-y,z
1/2+x,1/2+y,z
1/2-x,1/2-y,z
1/2+x,1/2-y,-z
1/2-x,1/2+y,-z
1/2-x,1/2-y,-z
1/2+x,1/2+y,-z
1/2-x,1/2+y,z
1/2+x,1/2-y,z
loop_
_atom_site_type_symbol
_atom_site_label
_atom_site_fract_x
_atom_site_fract_y
_atom_site_fract_z
Si Si1 0.313295 0.782435 0.315422
Si Si2 0.000000 0.563031 0.816118
Si Si3 0.297729 0.000000 0.818470
Si Si4 0.864333 0.607027 0.815975
Si Si5 0.839145 0.000000 0.684656
Si Si6 0.569841 0.407223 0.315745
Si Si7 0.570369 0.286976 0.315475
O O1 0.311031 0.783711 0.500000
O O2 0.250000 0.750000 0.254701
O O3 0.323893 0.843415 0.256398
O O4 0.375053 0.751379 0.247839
O O5 0.061775 0.598468 0.761868
O O6 0.000000 0.500000 0.752089
O O7 0.000000 0.557928 0.000000
O O8 0.329664 0.946254 0.749824
O O9 0.224789 0.000000 0.777704
O O10 0.309382 0.000000 0.000000
O O11 0.860326 0.613183 0.000000
O O12 0.876885 0.052339 0.745822
O O13 0.828365 0.000000 0.500000
O O14 0.570170 0.407425 0.500000
O O15 0.500000 0.426041 0.257387
O O16 0.584663 0.347225 0.252794
O O17 0.572577 0.286899 0.500000
O O18 0.500000 0.267642 0.259092
#
# Coordination Sequence:
#
# PCOD8267096 Si02
#       7
#    16   8   8  16   8  16  16
#     4  10  22  36  54  80 113 147 181 223 271 324
#     4   9  16  34  63  87 107 139 185 232 277 334
#     4  10  22  38  53  75 108 143 172 206 266 333
#     4  10  21  38  60  82 106 140 183 226 271 327
#     4  10  19  28  51  81 103 129 172 224 262 302
#     4   8  14  26  46  73 102 131 170 217 257 298
#     4   8  15  29  47  68 101 142 173 203 254 312
#
# _framework density 19.738095999999999
#
# number of rings (size 3 to 8) (size 9 to 14) (size 15 to 20)
#    0.000    2.818    0.909    1.364    3.818    2.182 
#    0.000    0.000    0.000    1.636    0.000    2.545 
#    0.000    0.000    0.000    0.000    0.000    0.000 
#
# Total GULP energy -545125.533980 kJ/mol
# GULP energy per Si atom -12389.216681 kJ/mol
# Density = 1.969317 g / cm^3
# Si number density = 19.738096 Si / 1000 Ang^3
#
#
#
# Elastic Constant Matrix: (Units=GPa)
#
#
# Indices 1 2 3 4 5 6 
#
# 1 166.4841 97.8105 9.9924 0.0000 0.0000 0.0000
# 2 97.8105 153.9661 14.0220 0.0000 0.0000 0.0000
# 3 9.9924 14.0220 6.6433 0.0000 0.0000 0.0000
# 4 0.0000 0.0000 0.0000 20.1712 0.0000 0.0000
# 5 0.0000 0.0000 0.0000 0.0000 19.5771 0.0000
# 6 0.0000 0.0000 0.0000 0.0000 0.0000 45.3672
#
#
#
# Elastic Compliance Matrix: (Units=1/GPa)
#
#
# Indices 1 2 3 4 5 6 
#
# 1 0.009604 -0.005924 -0.001941 0.000000 0.000000 0.000000
# 2 -0.005924 0.011695 -0.015774 0.000000 0.000000 0.000000
# 3 -0.001941 -0.015774 0.186742 0.000000 0.000000 0.000000
# 4 0.000000 0.000000 0.000000 0.049576 0.000000 0.000000
# 5 0.000000 0.000000 0.000000 0.000000 0.051080 0.000000
# 6 0.000000 0.000000 0.000000 0.000000 0.000000 0.022042
#
#
# Mechanical properties :
#
#
# Convention : Reuss Voigt Hill
#
# Bulk Modulus (GPa) = 6.22037 63.41591 34.81814
# Shear Modulus (GPa) = 11.58470 30.70767 21.14618
#
# Velocity S-wave (km/s) = 2.42527 3.94859 3.27668
# Velocity P-wave (km/s) = 3.31676 7.27921 5.65631
#
# Compressibility (1/GPa) = 0.16076220
#
# Stress axis : x y z
#
# Youngs Moduli (GPa) = 104.12861 85.50724 5.35499
#
# Poissons Ratio (x) = 0.50655 0.01039
# Poissons Ratio (y) = 0.61687 0.08447
# Poissons Ratio (z) = 0.20211 1.34879
#
# Static dielectric constant tensor:
#      x y z
#    x 3.954100 0.000000 0.000000 
#    y 0.000000 3.932280 0.000000 
#    z 0.000000 0.000000 2.918790 
# 
# 
# High freq. dielectric constant tensor:
#      x y z
#    x 1.785050 0.000000 0.000000 
#    y 0.000000 1.781240 0.000000 
#    z 0.000000 0.000000 1.704300 
# 
# From -- ./inp_files/11913.got.cif
#   From: 2010.03.12/outbox.cif.g09.slc.cpg/sg65_6_cif.got.tgz:11913.got - 2010.04.10 20:52:16.
