data_PCOD8267748
_publ_section_title
;
Structure prediction by ZEFSAII (Michael W. Deem and Ramdas Pophale) SiO2 
 PCOD8267748
Probable space group: C M M M
;
_chemical_formula_sum "Si O2"
_cell_formula_units_Z 96
_cell_length_a 22.405808
_cell_length_b 27.382314
_cell_length_c 9.394931
_cell_angle_alpha 90.000000
_cell_angle_beta 90.000000
_cell_angle_gamma 90.000000
_cell_volume 5764.005031
_symmetry_space_group_name_H-M "C M M M"
_symmetry_group_IT_number 65
_symmetry_cell_setting 'orthorhombic'
loop_
_space_group_symop_operation_xyz
x,y,z
-x,-y,z
x,-y,-z
-x,y,-z
-x,-y,-z
x,y,-z
-x,y,z
x,-y,z
1/2+x,1/2+y,z
1/2-x,1/2-y,z
1/2+x,1/2-y,-z
1/2-x,1/2+y,-z
1/2-x,1/2-y,-z
1/2+x,1/2+y,-z
1/2-x,1/2+y,z
1/2+x,1/2-y,z
loop_
_atom_site_type_symbol
_atom_site_label
_atom_site_fract_x
_atom_site_fract_y
_atom_site_fract_z
Si Si1 0.000000 0.238414 0.170081
Si Si2 0.127225 0.107817 0.167410
Si Si3 0.000000 0.873366 0.167845
Si Si4 0.108895 0.718504 0.662227
Si Si5 0.681677 0.688956 0.340364
Si Si6 0.301983 0.138707 0.336101
Si Si7 0.244415 0.055271 0.831764
O O1 0.000000 0.182440 0.227399
O O2 0.057512 0.266935 0.228904
O O3 0.000000 0.241742 0.000000
O O4 0.058884 0.095751 0.215438
O O5 0.139529 0.160640 0.231659
O O6 0.176613 0.068609 0.219284
O O7 0.131180 0.113167 0.000000
O O8 0.000000 0.867592 0.000000
O O9 0.084161 0.719310 0.500000
O O10 0.166107 0.754250 0.674962
O O11 0.134923 0.664689 0.700365
O O12 0.667761 0.670337 0.500000
O O13 0.750356 0.678245 0.302627
O O14 0.300485 0.122277 0.500000
O O15 0.292997 0.090267 0.241471
O O16 0.257201 0.000000 0.783958
O O17 0.250554 0.061558 0.000000
#
# Coordination Sequence:
#
# PCOD8267748 Si02
#       7
#     8  16   8  16  16  16  16
#     4  11  21  31  45  66  96 132 166 194 222 263
#     4   9  16  28  44  62  89 124 159 197 234 270
#     4   9  16  27  42  61  88 124 164 197 223 260
#     4  10  19  31  46  67  96 126 157 190 228 273
#     4   9  16  27  44  66  92 121 153 190 228 271
#     4   9  18  31  48  70  93 120 153 191 235 283
#     4   9  18  32  49  69  92 118 152 197 246 289
#
# _framework density 16.655085
#
# number of rings (size 3 to 8) (size 9 to 14) (size 15 to 20)
#    0.000    2.667    1.667    0.750    0.000    3.000 
#    0.000    0.833    0.000    7.500    0.000    0.583 
#    0.000   10.000    0.000    0.000    0.000    0.000 
#
# Total GULP energy -594771.274822 kJ/mol
# GULP energy per Si atom -12391.068225 kJ/mol
# Density = 1.661718 g / cm^3
# Si number density = 16.655085 Si / 1000 Ang^3
#
#
#
# Elastic Constant Matrix: (Units=GPa)
#
#
# Indices 1 2 3 4 5 6 
#
# 1 49.9080 31.8812 22.4062 0.0000 0.0000 0.0000
# 2 31.8812 90.1980 30.7816 0.0000 0.0000 0.0000
# 3 22.4062 30.7816 37.1811 0.0000 0.0000 0.0000
# 4 0.0000 0.0000 0.0000 22.3717 0.0000 0.0000
# 5 0.0000 0.0000 0.0000 0.0000 23.5589 0.0000
# 6 0.0000 0.0000 0.0000 0.0000 0.0000 15.1827
#
#
#
# Elastic Compliance Matrix: (Units=1/GPa)
#
#
# Indices 1 2 3 4 5 6 
#
# 1 0.029710 -0.006120 -0.012837 0.000000 0.000000 0.000000
# 2 -0.006120 0.016713 -0.010148 0.000000 0.000000 0.000000
# 3 -0.012837 -0.010148 0.043033 0.000000 0.000000 0.000000
# 4 0.000000 0.000000 0.000000 0.044699 0.000000 0.000000
# 5 0.000000 0.000000 0.000000 0.000000 0.042447 0.000000
# 6 0.000000 0.000000 0.000000 0.000000 0.000000 0.065864
#
#
# Mechanical properties :
#
#
# Convention : Reuss Voigt Hill
#
# Bulk Modulus (GPa) = 32.00546 38.60280 35.30413
# Shear Modulus (GPa) = 16.07239 18.37052 17.22146
#
# Velocity S-wave (km/s) = 3.10984 3.32474 3.21908
# Velocity P-wave (km/s) = 5.67037 6.16171 5.92114
#
# Compressibility (1/GPa) = 0.03124467
#
# Stress axis : x y z
#
# Youngs Moduli (GPa) = 33.65911 59.83247 23.23804
#
# Poissons Ratio (x) = 0.36619 0.29830
# Poissons Ratio (y) = 0.20600 0.23583
# Poissons Ratio (z) = 0.43208 0.60721
#
# Static dielectric constant tensor:
#      x y z
#    x 3.310930 0.000000 0.000000 
#    y 0.000000 2.957040 0.000000 
#    z 0.000000 0.000000 3.042260 
# 
# 
# High freq. dielectric constant tensor:
#      x y z
#    x 1.631140 0.000000 0.000000 
#    y 0.000000 1.613820 0.000000 
#    z 0.000000 0.000000 1.631460 
# 
# From -- ./inp_files/14635.got.cif
#   From: 2010.03.12/outbox.cif.g09.slc.cpg/sg65_8_cif.got.tgz:14635.got - 2010.04.10 20:52:16.
