data_PCOD8267932
_publ_section_title
;
Structure prediction by ZEFSAII (Michael W. Deem and Ramdas Pophale) SiO2 
 PCOD8267932
Probable space group: C M M M
;
_chemical_formula_sum "Si O2"
_cell_formula_units_Z 104
_cell_length_a 26.835436
_cell_length_b 24.288334
_cell_length_c 8.371202
_cell_angle_alpha 90.000000
_cell_angle_beta 90.000000
_cell_angle_gamma 90.000000
_cell_volume 5456.249282
_symmetry_space_group_name_H-M "C M M M"
_symmetry_group_IT_number 65
_symmetry_cell_setting 'orthorhombic'
loop_
_space_group_symop_operation_xyz
x,y,z
-x,-y,z
x,-y,-z
-x,y,-z
-x,-y,-z
x,y,-z
-x,y,z
x,-y,z
1/2+x,1/2+y,z
1/2-x,1/2-y,z
1/2+x,1/2-y,-z
1/2-x,1/2+y,-z
1/2-x,1/2-y,-z
1/2+x,1/2+y,-z
1/2-x,1/2+y,z
1/2+x,1/2-y,z
loop_
_atom_site_type_symbol
_atom_site_label
_atom_site_fract_x
_atom_site_fract_y
_atom_site_fract_z
Si Si1 0.000000 0.434840 0.326171
Si Si2 0.370527 0.437354 0.311374
Si Si3 0.858695 0.765781 0.685516
Si Si4 0.555920 0.342548 0.690023
Si Si5 0.707686 0.641423 0.184971
Si Si6 0.605982 0.938824 0.690935
Si Si7 0.182982 0.348651 0.309357
O O1 0.051916 0.419101 0.237578
O O2 0.000000 0.500000 0.350111
O O3 0.000000 0.405755 0.500000
O O4 0.362563 0.433678 0.500000
O O5 0.380602 0.500000 0.256068
O O6 0.417595 0.399789 0.257862
O O7 0.319933 0.415583 0.229176
O O8 0.866788 0.756320 0.500000
O O9 0.910625 0.791148 0.755766
O O10 0.814697 0.809058 0.711769
O O11 0.841871 0.707478 0.759621
O O12 0.553276 0.340040 0.500000
O O13 0.500000 0.339751 0.762913
O O14 0.765357 0.637867 0.225916
O O15 0.700007 0.654695 0.000000
O O16 0.601853 0.938698 0.500000
O O17 0.647749 0.897484 0.750666
O O18 0.619738 0.000000 0.752369
O O19 0.189948 0.346565 0.500000
#
# Coordination Sequence:
#
# PCOD8267932 Si02
#       7
#     8  16  16  16  16  16  16
#     4   7  10  20  38  60  91 125 149 175 218 273
#     4   9  18  33  53  76 102 134 168 200 242 298
#     4   9  18  33  50  70  97 129 164 204 249 298
#     4   8  14  27  48  74 103 130 158 199 249 296
#     4  11  22  34  50  70  95 129 166 208 251 292
#     4   8  14  25  42  66  96 127 155 187 233 286
#     4  10  19  31  48  72  98 127 165 207 248 295
#
# _framework density 19.060713
#
# number of rings (size 3 to 8) (size 9 to 14) (size 15 to 20)
#    0.000    3.000    0.000    3.692    0.000    3.692 
#    1.385    3.077    0.000    7.385    0.000    4.846 
#    0.000    1.846    0.000    0.000    0.000    0.000 
#
# Total GULP energy -644331.571989 kJ/mol
# GULP energy per Si atom -12390.991769 kJ/mol
# Density = 1.901733 g / cm^3
# Si number density = 19.060713 Si / 1000 Ang^3
#
#
#
# Elastic Constant Matrix: (Units=GPa)
#
#
# Indices 1 2 3 4 5 6 
#
# 1 184.0556 81.0081 6.2546 0.0000 0.0000 0.0000
# 2 81.0081 102.1004 4.8708 0.0000 0.0000 0.0000
# 3 6.2546 4.8708 12.1532 0.0000 0.0000 0.0000
# 4 0.0000 0.0000 0.0000 4.3853 0.0000 0.0000
# 5 0.0000 0.0000 0.0000 0.0000 -1.6113 0.0000
# 6 0.0000 0.0000 0.0000 0.0000 0.0000 15.8575
#
#
#
# Elastic Compliance Matrix: (Units=1/GPa)
#
#
# Indices 1 2 3 4 5 6 
#
# 1 0.008382 -0.006570 -0.001681 0.000000 0.000000 0.000000
# 2 -0.006570 0.015135 -0.002685 0.000000 0.000000 0.000000
# 3 -0.001681 -0.002685 0.084224 0.000000 0.000000 0.000000
# 4 0.000000 0.000000 0.000000 0.228034 0.000000 0.000000
# 5 0.000000 0.000000 0.000000 0.000000 -0.620621 0.000000
# 6 0.000000 0.000000 0.000000 0.000000 0.000000 0.063062
#
#
# Mechanical properties :
#
#
# Convention : Reuss Voigt Hill
#
# Bulk Modulus (GPa) = 11.64546 53.61956 32.63251
# Shear Modulus (GPa) = -29.19034 17.47135 -5.85950
#
# Velocity S-wave (km/s) = -3.91761 3.03085 -1.75522
# Velocity P-wave (km/s) = 3.78690 6.35925 3.61244
#
# Compressibility (1/GPa) = 0.08587035
#
# Stress axis : x y z
#
# Youngs Moduli (GPa) = 119.30335 66.07078 11.87313
#
# Poissons Ratio (x) = 0.43410 0.01995
# Poissons Ratio (y) = 0.78385 0.03187
# Poissons Ratio (z) = 0.20049 0.17737
#
# Static dielectric constant tensor:
#      x y z
#    x 3.861470 0.000000 0.000000 
#    y 0.000000 3.634670 0.000000 
#    z 0.000000 0.000000 2.938660 
# 
# 
# High freq. dielectric constant tensor:
#      x y z
#    x 1.752430 0.000000 0.000000 
#    y 0.000000 1.734370 0.000000 
#    z 0.000000 0.000000 1.687350 
# 
# From -- ./inp_files/16762.got.cif
#   From: 2010.03.12/outbox.cif.g09.slc.cpg/sg65_9_cif.got.tgz:16762.got - 2010.04.10 20:52:16.
