data_PCOD8267498
_publ_section_title
;
Structure prediction by ZEFSAII (Michael W. Deem and Ramdas Pophale) SiO2 
 PCOD8267498
Probable space group: C M M M
;
_chemical_formula_sum "Si O2"
_cell_formula_units_Z 88
_cell_length_a 9.007620
_cell_length_b 26.961194
_cell_length_c 21.317656
_cell_angle_alpha 90.000000
_cell_angle_beta 90.000000
_cell_angle_gamma 90.000000
_cell_volume 5177.124722
_symmetry_space_group_name_H-M "C M M M"
_symmetry_group_IT_number 65
_symmetry_cell_setting 'orthorhombic'
loop_
_space_group_symop_operation_xyz
x,y,z
-x,-y,z
x,-y,-z
-x,y,-z
-x,-y,-z
x,y,-z
-x,y,z
x,-y,z
1/2+x,1/2+y,z
1/2-x,1/2-y,z
1/2+x,1/2-y,-z
1/2-x,1/2+y,-z
1/2-x,1/2-y,-z
1/2+x,1/2+y,-z
1/2-x,1/2+y,z
1/2+x,1/2-y,z
loop_
_atom_site_type_symbol
_atom_site_label
_atom_site_fract_x
_atom_site_fract_y
_atom_site_fract_z
Si Si1 0.826968 0.398804 0.743781
Si Si2 0.826963 0.848641 0.929018
Si Si3 0.333017 0.941167 0.500000
Si Si4 0.325237 0.557435 0.625610
Si Si5 0.326708 0.799568 0.815668
Si Si6 0.830578 0.055189 0.143695
O O1 0.737023 0.408443 0.680710
O O2 0.790936 0.343130 0.766542
O O3 0.775517 0.437146 0.796911
O O4 0.000000 0.406984 0.730902
O O5 0.736417 0.812039 0.884402
O O6 0.793762 0.905870 0.911152
O O7 0.000000 0.836344 0.921601
O O8 0.772663 0.840307 0.000000
O O9 0.500000 0.919634 0.500000
O O10 0.247324 0.922437 0.561570
O O11 0.334945 0.000000 0.500000
O O12 0.500000 0.564463 0.620267
O O13 0.283320 0.500000 0.638219
O O14 0.500000 0.790398 0.822734
O O15 0.250000 0.750000 0.789494
O O16 0.000000 0.061884 0.167028
O O17 0.803938 0.000000 0.116678
#
# Coordination Sequence:
#
# PCOD8267498 Si02
#       6
#    16  16   8  16  16  16
#     4  10  20  32  47  69  94 121 156 195 235 280
#     4   9  18  32  49  69  93 121 153 189 231 281
#     4   9  17  29  45  67  98 135 170 201 231 263
#     4  10  19  30  46  70 101 135 167 196 227 266
#     4  10  21  36  53  71  91 116 149 193 242 289
#     4   9  17  29  45  66  93 124 157 192 229 271
#
# _framework density 16.997852000000002
#
# number of rings (size 3 to 8) (size 9 to 14) (size 15 to 20)
#    0.000    2.455    0.000    2.455    0.000    8.000 
#    0.000    1.818    0.000    0.000    0.000    5.727 
#    0.000    0.000    0.000    0.000    0.000    0.000 
#
# Total GULP energy -545673.436161 kJ/mol
# GULP energy per Si atom -12401.669004 kJ/mol
# Density = 1.695916 g / cm^3
# Si number density = 16.997852 Si / 1000 Ang^3
#
#
#
# Elastic Constant Matrix: (Units=GPa)
#
#
# Indices 1 2 3 4 5 6 
#
# 1 89.2985 38.1162 55.9535 0.0000 0.0000 0.0000
# 2 38.1162 78.0516 31.5823 0.0000 0.0000 0.0000
# 3 55.9535 31.5823 118.1863 0.0000 0.0000 0.0000
# 4 0.0000 0.0000 0.0000 15.4488 0.0000 0.0000
# 5 0.0000 0.0000 0.0000 0.0000 30.6465 0.0000
# 6 0.0000 0.0000 0.0000 0.0000 0.0000 24.3286
#
#
#
# Elastic Compliance Matrix: (Units=1/GPa)
#
#
# Indices 1 2 3 4 5 6 
#
# 1 0.018149 -0.006039 -0.006978 0.000000 0.000000 0.000000
# 2 -0.006039 0.016375 -0.001517 0.000000 0.000000 0.000000
# 3 -0.006978 -0.001517 0.012170 0.000000 0.000000 0.000000
# 4 0.000000 0.000000 0.000000 0.064730 0.000000 0.000000
# 5 0.000000 0.000000 0.000000 0.000000 0.032630 0.000000
# 6 0.000000 0.000000 0.000000 0.000000 0.000000 0.041104
#
#
# Mechanical properties :
#
#
# Convention : Reuss Voigt Hill
#
# Bulk Modulus (GPa) = 56.73586 59.64894 58.19240
# Shear Modulus (GPa) = 22.71680 24.74376 23.73028
#
# Velocity S-wave (km/s) = 3.65972 3.81950 3.74046
# Velocity P-wave (km/s) = 7.16301 7.39051 7.27765
#
# Compressibility (1/GPa) = 0.01762554
#
# Stress axis : x y z
#
# Youngs Moduli (GPa) = 55.10006 61.06902 82.16691
#
# Poissons Ratio (x) = 0.36881 0.57340
# Poissons Ratio (y) = 0.33276 0.12462
# Poissons Ratio (z) = 0.38451 0.09262
#
# Static dielectric constant tensor:
#      x y z
#    x 3.274740 0.000000 0.000000 
#    y 0.000000 3.070780 0.000000 
#    z 0.000000 0.000000 3.144410 
# 
# 
# High freq. dielectric constant tensor:
#      x y z
#    x 1.666270 0.000000 0.000000 
#    y 0.000000 1.634800 0.000000 
#    z 0.000000 0.000000 1.646410 
# 
# From -- ./inp_files/60149.got.cif
#   From: 2010.03.12/outbox.cif.g09.slc.cpg/sg65_31_cif.got.tgz:60149.got - 2010.04.10 20:52:16.
