data_PCOD8267064
_publ_section_title
;
Structure prediction by ZEFSAII (Michael W. Deem and Ramdas Pophale) SiO2 
 PCOD8267064
Probable space group: C M M M
;
_chemical_formula_sum "Si O2"
_cell_formula_units_Z 104
_cell_length_a 30.773034
_cell_length_b 9.053910
_cell_length_c 22.486756
_cell_angle_alpha 90.000000
_cell_angle_beta 90.000000
_cell_angle_gamma 90.000000
_cell_volume 6265.176312
_symmetry_space_group_name_H-M "C M M M"
_symmetry_group_IT_number 65
_symmetry_cell_setting 'orthorhombic'
loop_
_space_group_symop_operation_xyz
x,y,z
-x,-y,z
x,-y,-z
-x,y,-z
-x,-y,-z
x,y,-z
-x,y,z
x,-y,z
1/2+x,1/2+y,z
1/2-x,1/2-y,z
1/2+x,1/2-y,-z
1/2-x,1/2+y,-z
1/2-x,1/2-y,-z
1/2+x,1/2+y,-z
1/2-x,1/2+y,z
1/2+x,1/2-y,z
loop_
_atom_site_type_symbol
_atom_site_label
_atom_site_fract_x
_atom_site_fract_y
_atom_site_fract_z
Si Si1 0.050190 0.175625 0.871213
Si Si2 0.448718 0.660897 0.000000
Si Si3 0.879791 0.326575 0.209265
Si Si4 0.207488 0.832877 0.206540
Si Si5 0.377895 0.173018 0.347092
Si Si6 0.951810 0.324521 0.433585
Si Si7 0.708121 0.665941 0.651883
O O1 0.078759 0.260121 0.823426
O O2 0.000000 0.212799 0.857609
O O3 0.058032 0.000000 0.867785
O O4 0.063870 0.238463 0.937282
O O5 0.426461 0.500000 0.000000
O O6 0.500000 0.638629 0.000000
O O7 0.876315 0.500000 0.197341
O O8 0.835745 0.251583 0.184895
O O9 0.886861 0.290465 0.278480
O O10 0.250000 0.750000 0.180712
O O11 0.209504 0.832445 0.277246
O O12 0.206645 0.000000 0.181849
O O13 0.417880 0.237652 0.385436
O O14 0.334855 0.252624 0.370987
O O15 0.371080 0.000000 0.357097
O O16 0.938505 0.272544 0.500000
O O17 0.952281 0.500000 0.430767
O O18 0.000000 0.264355 0.417891
O O19 0.708383 0.500000 0.627109
O O20 0.750000 0.750000 0.625915
#
# Coordination Sequence:
#
# PCOD8267064 Si02
#       7
#    16   8  16  16  16  16  16
#     4   9  17  30  47  65  87 117 152 187 221 258
#     4   7  12  26  47  65  80 107 150 191 221 253
#     4  10  19  28  40  64  96 123 146 175 218 269
#     4   9  16  27  43  62  86 116 149 183 218 257
#     4   9  17  28  43  64  90 117 144 178 220 262
#     4   8  14  26  45  66  84 107 146 190 223 254
#     4   9  16  26  42  63  87 114 143 175 213 259
#
# _framework density 16.599692999999998
#
# number of rings (size 3 to 8) (size 9 to 14) (size 15 to 20)
#    0.000    3.154    0.000    2.769    0.000    5.231 
#    0.000    1.923    0.000    2.769    0.000    1.615 
#    0.000    0.000    0.000    0.000    0.000    0.000 
#
# Total GULP energy -644444.312301 kJ/mol
# GULP energy per Si atom -12393.159852 kJ/mol
# Density = 1.656191 g / cm^3
# Si number density = 16.599693 Si / 1000 Ang^3
#
#
#
# Elastic Constant Matrix: (Units=GPa)
#
#
# Indices 1 2 3 4 5 6 
#
# 1 145.9166 61.5700 63.6224 0.0000 0.0000 0.0000
# 2 61.5700 78.2753 35.8452 0.0000 0.0000 0.0000
# 3 63.6224 35.8452 62.3633 0.0000 0.0000 0.0000
# 4 0.0000 0.0000 0.0000 9.6476 0.0000 0.0000
# 5 0.0000 0.0000 0.0000 0.0000 2.4225 0.0000
# 6 0.0000 0.0000 0.0000 0.0000 0.0000 29.9562
#
#
#
# Elastic Compliance Matrix: (Units=1/GPa)
#
#
# Indices 1 2 3 4 5 6 
#
# 1 0.014251 -0.006178 -0.010988 0.000000 0.000000 0.000000
# 2 -0.006178 0.020017 -0.005203 0.000000 0.000000 0.000000
# 3 -0.010988 -0.005203 0.030235 0.000000 0.000000 0.000000
# 4 0.000000 0.000000 0.000000 0.103652 0.000000 0.000000
# 5 0.000000 0.000000 0.000000 0.000000 0.412789 0.000000
# 6 0.000000 0.000000 0.000000 0.000000 0.000000 0.033382
#
#
# Mechanical properties :
#
#
# Convention : Reuss Voigt Hill
#
# Bulk Modulus (GPa) = 50.59107 67.62561 59.10834
# Shear Modulus (GPa) = 7.51142 16.77312 12.14227
#
# Velocity S-wave (km/s) = 2.12952 3.18220 2.70751
# Velocity P-wave (km/s) = 6.04895 7.37085 6.74237
#
# Compressibility (1/GPa) = 0.01976633
#
# Stress axis : x y z
#
# Youngs Moduli (GPa) = 70.17163 49.95640 33.07398
#
# Poissons Ratio (x) = 0.30862 0.36341
# Poissons Ratio (y) = 0.43350 0.17209
# Poissons Ratio (z) = 0.77102 0.25993
#
# Static dielectric constant tensor:
#      x y z
#    x 3.278690 0.000000 0.000000 
#    y 0.000000 2.992060 0.000000 
#    z 0.000000 0.000000 2.988710 
# 
# 
# High freq. dielectric constant tensor:
#      x y z
#    x 1.642880 0.000000 0.000000 
#    y 0.000000 1.623880 0.000000 
#    z 0.000000 0.000000 1.601830 
# 
# From -- ./inp_files/71829.got.cif
#   From: 2010.03.12/outbox.cif.g09.slc.cpg/sg65_36_cif.got.tgz:71829.got - 2010.04.10 20:52:16.
