data_PCOD8267351
_publ_section_title
;
Structure prediction by ZEFSAII (Michael W. Deem and Ramdas Pophale) SiO2 
 PCOD8267351
Probable space group: C M M M
;
_chemical_formula_sum "Si O2"
_cell_formula_units_Z 96
_cell_length_a 21.101305
_cell_length_b 22.431034
_cell_length_c 13.436120
_cell_angle_alpha 90.000000
_cell_angle_beta 90.000000
_cell_angle_gamma 90.000000
_cell_volume 6359.639271
_symmetry_space_group_name_H-M "C M M M"
_symmetry_group_IT_number 65
_symmetry_cell_setting 'orthorhombic'
loop_
_space_group_symop_operation_xyz
x,y,z
-x,-y,z
x,-y,-z
-x,y,-z
-x,-y,-z
x,y,-z
-x,y,z
x,-y,z
1/2+x,1/2+y,z
1/2-x,1/2-y,z
1/2+x,1/2-y,-z
1/2-x,1/2+y,-z
1/2-x,1/2-y,-z
1/2+x,1/2+y,-z
1/2-x,1/2+y,z
1/2+x,1/2-y,z
loop_
_atom_site_type_symbol
_atom_site_label
_atom_site_fract_x
_atom_site_fract_y
_atom_site_fract_z
Si Si1 0.500000 0.668865 0.609079
Si Si2 0.626420 0.808100 0.285104
Si Si3 0.926671 0.500000 0.220779
Si Si4 0.822339 0.500000 0.612670
Si Si5 0.633309 0.318254 0.380994
Si Si6 0.000000 0.688425 0.390344
Si Si7 0.236207 0.623706 0.386455
Si Si8 0.074031 0.375908 0.113844
O O1 0.500000 0.641339 0.500000
O O2 0.567650 0.648961 0.655788
O O3 0.500000 0.740502 0.609250
O O4 0.638940 0.739556 0.311294
O O5 0.564002 0.835462 0.338845
O O6 0.690045 0.840260 0.316518
O O7 0.613941 0.823483 0.169213
O O8 0.883981 0.500000 0.319008
O O9 0.910542 0.558560 0.156689
O O10 0.000000 0.500000 0.253906
O O11 0.848249 0.500000 0.500000
O O12 0.775394 0.554645 0.632691
O O13 0.629150 0.301113 0.500000
O O14 0.691185 0.361894 0.358393
O O15 0.000000 0.661205 0.500000
O O16 0.222733 0.642822 0.500000
O O17 0.000000 0.361055 0.123817
O O18 0.096171 0.374995 0.000000
#
# Coordination Sequence:
#
# PCOD8267351 Si02
#       8
#     8  16   8   8  16   8  16  16
#     4   7  12  24  40  60  86 111 147 183 206 244
#     4  11  17  27  44  66  92 119 154 191 229 269
#     4  10  19  35  50  65  86 123 169 198 224 258
#     4  10  20  32  45  67  96 123 151 188 235 277
#     4   9  17  28  45  69  95 123 151 180 221 283
#     4   9  16  24  37  62  93 123 146 180 220 261
#     4  10  19  30  44  64  94 127 155 182 222 283
#     4  10  20  33  48  66  89 122 166 206 232 261
#
# _framework density 15.095195
#
# number of rings (size 3 to 8) (size 9 to 14) (size 15 to 20)
#    0.000    2.333    2.500    3.250    0.000    2.500 
#    0.000    0.000    0.000    2.500    0.000    3.500 
#    0.000    0.000    0.000    0.000    0.000    4.417 
#
# Total GULP energy -594713.059005 kJ/mol
# GULP energy per Si atom -12389.855396 kJ/mol
# Density = 1.506084 g / cm^3
# Si number density = 15.095195 Si / 1000 Ang^3
#
#
#
# Elastic Constant Matrix: (Units=GPa)
#
#
# Indices 1 2 3 4 5 6 
#
# 1 126.8505 37.1481 48.2337 0.0000 0.0000 0.0000
# 2 37.1481 48.6735 34.1174 0.0000 0.0000 0.0000
# 3 48.2337 34.1174 82.8764 0.0000 0.0000 0.0000
# 4 0.0000 0.0000 0.0000 8.6445 0.0000 0.0000
# 5 0.0000 0.0000 0.0000 0.0000 16.8495 0.0000
# 6 0.0000 0.0000 0.0000 0.0000 0.0000 26.9734
#
#
#
# Elastic Compliance Matrix: (Units=1/GPa)
#
#
# Indices 1 2 3 4 5 6 
#
# 1 0.011093 -0.005540 -0.004176 0.000000 0.000000 0.000000
# 2 -0.005540 0.031644 -0.009803 0.000000 0.000000 0.000000
# 3 -0.004176 -0.009803 0.018532 0.000000 0.000000 0.000000
# 4 0.000000 0.000000 0.000000 0.115680 0.000000 0.000000
# 5 0.000000 0.000000 0.000000 0.000000 0.059349 0.000000
# 6 0.000000 0.000000 0.000000 0.000000 0.000000 0.037074
#
#
# Mechanical properties :
#
#
# Convention : Reuss Voigt Hill
#
# Bulk Modulus (GPa) = 44.97812 55.26654 50.12233
# Shear Modulus (GPa) = 15.63383 19.75357 17.69370
#
# Velocity S-wave (km/s) = 3.22169 3.62138 3.42737
# Velocity P-wave (km/s) = 6.61060 7.36053 6.99562
#
# Compressibility (1/GPa) = 0.02223303
#
# Stress axis : x y z
#
# Youngs Moduli (GPa) = 90.14391 31.60148 53.96079
#
# Poissons Ratio (x) = 0.17506 0.22533
# Poissons Ratio (y) = 0.49936 0.52897
# Poissons Ratio (z) = 0.37643 0.30978
#
# Static dielectric constant tensor:
#      x y z
#    x 3.147610 0.000000 0.000000 
#    y 0.000000 2.801180 0.000000 
#    z 0.000000 0.000000 2.780740 
# 
# 
# High freq. dielectric constant tensor:
#      x y z
#    x 1.585840 0.000000 0.000000 
#    y 0.000000 1.552430 0.000000 
#    z 0.000000 0.000000 1.546940 
# 
# From -- ./inp_files/29307.got.cif
#   From: 2010.03.12/outbox.cif.g09.slc.cpg/sg65_15_cif.got.tgz:29307.got - 2010.04.10 20:52:16.
