data_PCOD8267974
_publ_section_title
;
Structure prediction by ZEFSAII (Michael W. Deem and Ramdas Pophale) SiO2 
 PCOD8267974
Probable space group: C M M M
;
_chemical_formula_sum "Si O2"
_cell_formula_units_Z 96
_cell_length_a 13.444688
_cell_length_b 17.339398
_cell_length_c 24.084691
_cell_angle_alpha 90.000000
_cell_angle_beta 90.000000
_cell_angle_gamma 90.000000
_cell_volume 5614.690512
_symmetry_space_group_name_H-M "C M M M"
_symmetry_group_IT_number 65
_symmetry_cell_setting 'orthorhombic'
loop_
_space_group_symop_operation_xyz
x,y,z
-x,-y,z
x,-y,-z
-x,y,-z
-x,-y,-z
x,y,-z
-x,y,z
x,-y,z
1/2+x,1/2+y,z
1/2-x,1/2-y,z
1/2+x,1/2-y,-z
1/2-x,1/2+y,-z
1/2-x,1/2-y,-z
1/2+x,1/2+y,-z
1/2-x,1/2+y,z
1/2+x,1/2-y,z
loop_
_atom_site_type_symbol
_atom_site_label
_atom_site_fract_x
_atom_site_fract_y
_atom_site_fract_z
Si Si1 0.882400 0.915972 0.500000
Si Si2 0.735097 0.913540 0.106169
Si Si3 0.888429 0.908211 0.380770
Si Si4 0.226858 0.163382 0.281907
Si Si5 0.113408 0.591566 0.000000
Si Si6 0.613772 0.861951 0.799589
Si Si7 0.385268 0.313462 0.172491
O O1 0.854082 0.874125 0.441502
O O2 0.000000 0.926816 0.500000
O O3 0.830801 0.000000 0.500000
O O4 0.675889 0.879643 0.053225
O O5 0.655078 0.922072 0.155768
O O6 0.824163 0.855825 0.123487
O O7 0.777014 0.000000 0.094315
O O8 0.809797 0.882055 0.335269
O O9 0.000000 0.878580 0.365838
O O10 0.888999 0.000000 0.384145
O O11 0.250000 0.250000 0.300372
O O12 0.329605 0.127316 0.258864
O O13 0.145326 0.155046 0.233027
O O14 0.105403 0.500000 0.000000
O O15 0.000000 0.625824 0.000000
O O16 0.500000 0.877363 0.786779
O O17 0.636110 0.777933 0.826831
O O18 0.500000 0.332118 0.161815
#
# Coordination Sequence:
#
# PCOD8267974 Si02
#       7
#     8  16  16  16   8  16  16
#     4   7  12  24  41  62  89 119 147 179 224 271
#     4  10  19  31  49  71  91 113 148 189 224 262
#     4   9  16  27  45  68  92 117 148 187 228 269
#     4   9  17  28  43  66  92 119 148 179 219 270
#     4   9  18  32  48  67  93 123 151 182 224 268
#     4   9  18  33  49  64  88 122 152 180 219 265
#     4   9  18  33  49  65  91 123 148 175 221 277
#
# _framework density 17.098004
#
# number of rings (size 3 to 8) (size 9 to 14) (size 15 to 20)
#    0.000    3.000    0.000    3.500    0.000    4.667 
#    0.000    2.500    0.000    3.500    0.000    0.583 
#    0.000    2.000    0.000    0.000    0.000    0.000 
#
# Total GULP energy -594735.817552 kJ/mol
# GULP energy per Si atom -12390.329532 kJ/mol
# Density = 1.705909 g / cm^3
# Si number density = 17.098004 Si / 1000 Ang^3
#
#
#
# Elastic Constant Matrix: (Units=GPa)
#
#
# Indices 1 2 3 4 5 6 
#
# 1 108.8247 21.1021 54.4784 0.0000 0.0000 0.0000
# 2 21.1021 28.1311 19.6857 0.0000 0.0000 0.0000
# 3 54.4784 19.6857 115.9995 0.0000 0.0000 0.0000
# 4 0.0000 0.0000 0.0000 13.3417 0.0000 0.0000
# 5 0.0000 0.0000 0.0000 0.0000 25.2895 0.0000
# 6 0.0000 0.0000 0.0000 0.0000 0.0000 23.0662
#
#
#
# Elastic Compliance Matrix: (Units=1/GPa)
#
#
# Indices 1 2 3 4 5 6 
#
# 1 0.012892 -0.006166 -0.005008 0.000000 0.000000 0.000000
# 2 -0.006166 0.043287 -0.004450 0.000000 0.000000 0.000000
# 3 -0.005008 -0.004450 0.011728 0.000000 0.000000 0.000000
# 4 0.000000 0.000000 0.000000 0.074953 0.000000 0.000000
# 5 0.000000 0.000000 0.000000 0.000000 0.039542 0.000000
# 6 0.000000 0.000000 0.000000 0.000000 0.000000 0.043353
#
#
# Mechanical properties :
#
#
# Convention : Reuss Voigt Hill
#
# Bulk Modulus (GPa) = 27.27885 49.27638 38.27761
# Shear Modulus (GPa) = 18.57189 22.85210 20.71200
#
# Velocity S-wave (km/s) = 3.29933 3.65983 3.48425
# Velocity P-wave (km/s) = 5.52297 6.83679 6.21470
#
# Compressibility (1/GPa) = 0.03665844
#
# Stress axis : x y z
#
# Youngs Moduli (GPa) = 77.56835 23.10141 85.26593
#
# Poissons Ratio (x) = 0.14244 0.42703
# Poissons Ratio (y) = 0.47828 0.37946
# Poissons Ratio (z) = 0.38848 0.10281
#
# Static dielectric constant tensor:
#      x y z
#    x 3.177800 0.000000 0.000000 
#    y 0.000000 2.918170 0.000000 
#    z 0.000000 0.000000 3.312900 
# 
# 
# High freq. dielectric constant tensor:
#      x y z
#    x 1.650370 0.000000 0.000000 
#    y 0.000000 1.631050 0.000000 
#    z 0.000000 0.000000 1.656410 
# 
# From -- ./inp_files/69890.got.cif
#   From: 2010.03.12/outbox.cif.g09.slc.cpg/sg65_35_cif.got.tgz:69890.got - 2010.04.10 20:52:16.
