data_PCOD8267400
_publ_section_title
;
Structure prediction by ZEFSAII (Michael W. Deem and Ramdas Pophale) SiO2 
 PCOD8267400
Probable space group: C M M M
;
_chemical_formula_sum "Si O2"
_cell_formula_units_Z 104
_cell_length_a 27.197190
_cell_length_b 8.863391
_cell_length_c 26.669301
_cell_angle_alpha 90.000000
_cell_angle_beta 90.000000
_cell_angle_gamma 90.000000
_cell_volume 6428.883806
_symmetry_space_group_name_H-M "C M M M"
_symmetry_group_IT_number 65
_symmetry_cell_setting 'orthorhombic'
loop_
_space_group_symop_operation_xyz
x,y,z
-x,-y,z
x,-y,-z
-x,y,-z
-x,-y,-z
x,y,-z
-x,y,z
x,-y,z
1/2+x,1/2+y,z
1/2-x,1/2-y,z
1/2+x,1/2-y,-z
1/2-x,1/2+y,-z
1/2-x,1/2-y,-z
1/2+x,1/2+y,-z
1/2-x,1/2+y,z
1/2+x,1/2-y,z
loop_
_atom_site_type_symbol
_atom_site_label
_atom_site_fract_x
_atom_site_fract_y
_atom_site_fract_z
Si Si1 0.056482 0.320449 0.161215
Si Si2 0.303713 0.321658 0.500000
Si Si3 0.558366 0.830816 0.053012
Si Si4 0.443593 0.676327 0.644466
Si Si5 0.891174 0.176754 0.746022
Si Si6 0.302183 0.175368 0.696350
Si Si7 0.644353 0.175360 0.406795
O O1 0.062822 0.500000 0.164545
O O2 0.075284 0.258904 0.106223
O O3 0.089070 0.239393 0.202134
O O4 0.000000 0.274711 0.170343
O O5 0.297309 0.500000 0.500000
O O6 0.250000 0.250000 0.500000
O O7 0.334162 0.272125 0.548234
O O8 0.500000 0.836989 0.055276
O O9 0.579224 0.000000 0.050852
O O10 0.574792 0.748749 0.000000
O O11 0.500000 0.722958 0.636116
O O12 0.434941 0.500000 0.634356
O O13 0.428844 0.718325 0.701329
O O14 0.410947 0.770345 0.605230
O O15 0.838762 0.252199 0.736408
O O16 0.883550 0.000000 0.750469
O O17 0.250000 0.250000 0.703760
O O18 0.320878 0.207430 0.640381
O O19 0.298198 0.000000 0.707687
O O20 0.643194 0.000000 0.421565
#
# Coordination Sequence:
#
# PCOD8267400 Si02
#       7
#    16   8  16  16  16  16  16
#     4   9  16  25  39  61  89 120 155 195 233 268
#     4  12  24  38  57  78 101 126 152 187 229 273
#     4   7  10  18  33  53  78 111 151 191 229 268
#     4   9  18  33  51  70  95 128 162 193 227 268
#     4  10  19  30  45  66  93 124 156 189 226 272
#     4  10  20  34  52  72  94 120 149 184 227 273
#     4  10  21  36  54  77 101 124 153 188 226 270
#
# _framework density 16.176991999999998
#
# number of rings (size 3 to 8) (size 9 to 14) (size 15 to 20)
#    0.000    2.615    0.000    4.385    0.000    4.923 
#    0.000    0.385    0.000    2.769    0.000    2.154 
#    0.000    0.615    0.000    1.692    0.000    2.462 
#
# Total GULP energy -644466.538700 kJ/mol
# GULP energy per Si atom -12393.587283 kJ/mol
# Density = 1.614017 g / cm^3
# Si number density = 16.176992 Si / 1000 Ang^3
#
#
#
# Elastic Constant Matrix: (Units=GPa)
#
#
# Indices 1 2 3 4 5 6 
#
# 1 112.5759 51.5398 64.2359 0.0000 0.0000 0.0000
# 2 51.5398 75.3807 60.0375 0.0000 0.0000 0.0000
# 3 64.2359 60.0375 133.2623 0.0000 0.0000 0.0000
# 4 0.0000 0.0000 0.0000 17.8822 0.0000 0.0000
# 5 0.0000 0.0000 0.0000 0.0000 15.9050 0.0000
# 6 0.0000 0.0000 0.0000 0.0000 0.0000 27.3745
#
#
#
# Elastic Compliance Matrix: (Units=1/GPa)
#
#
# Indices 1 2 3 4 5 6 
#
# 1 0.014076 -0.006582 -0.003820 0.000000 0.000000 0.000000
# 2 -0.006582 0.023768 -0.007535 0.000000 0.000000 0.000000
# 3 -0.003820 -0.007535 0.012740 0.000000 0.000000 0.000000
# 4 0.000000 0.000000 0.000000 0.055922 0.000000 0.000000
# 5 0.000000 0.000000 0.000000 0.000000 0.062873 0.000000
# 6 0.000000 0.000000 0.000000 0.000000 0.000000 0.036530
#
#
# Mechanical properties :
#
#
# Convention : Reuss Voigt Hill
#
# Bulk Modulus (GPa) = 67.98097 74.76060 71.37078
# Shear Modulus (GPa) = 20.26876 21.92604 21.09740
#
# Velocity S-wave (km/s) = 3.54353 3.68555 3.61523
# Velocity P-wave (km/s) = 7.67180 8.02655 7.85118
#
# Compressibility (1/GPa) = 0.01471000
#
# Stress axis : x y z
#
# Youngs Moduli (GPa) = 71.04470 42.07408 78.49331
#
# Poissons Ratio (x) = 0.27692 0.29981
# Poissons Ratio (y) = 0.46760 0.59147
# Poissons Ratio (z) = 0.27136 0.31704
#
# Static dielectric constant tensor:
#      x y z
#    x 2.904030 0.000000 0.000000 
#    y 0.000000 2.998640 0.000000 
#    z 0.000000 0.000000 3.404500 
# 
# 
# High freq. dielectric constant tensor:
#      x y z
#    x 1.596610 0.000000 0.000000 
#    y 0.000000 1.615500 0.000000 
#    z 0.000000 0.000000 1.626560 
# 
# From -- ./inp_files/71817.got.cif
#   From: 2010.03.12/outbox.cif.g09.slc.cpg/sg65_36_cif.got.tgz:71817.got - 2010.04.10 20:52:16.
