data_PCOD8267855
_publ_section_title
;
Structure prediction by ZEFSAII (Michael W. Deem and Ramdas Pophale) SiO2 
 PCOD8267855
Probable space group: C M M M
;
_chemical_formula_sum "Si O2"
_cell_formula_units_Z 96
_cell_length_a 18.501206
_cell_length_b 9.713052
_cell_length_c 31.077328
_cell_angle_alpha 90.000000
_cell_angle_beta 90.000000
_cell_angle_gamma 90.000000
_cell_volume 5584.694541
_symmetry_space_group_name_H-M "C M M M"
_symmetry_group_IT_number 65
_symmetry_cell_setting 'orthorhombic'
loop_
_space_group_symop_operation_xyz
x,y,z
-x,-y,z
x,-y,-z
-x,y,-z
-x,-y,-z
x,y,-z
-x,y,z
x,-y,z
1/2+x,1/2+y,z
1/2-x,1/2-y,z
1/2+x,1/2-y,-z
1/2-x,1/2+y,-z
1/2-x,1/2-y,-z
1/2+x,1/2+y,-z
1/2-x,1/2+y,z
1/2+x,1/2-y,z
loop_
_atom_site_type_symbol
_atom_site_label
_atom_site_fract_x
_atom_site_fract_y
_atom_site_fract_z
Si Si1 0.822655 0.164034 0.295297
Si Si2 0.419971 0.662418 0.625015
Si Si3 0.580225 0.663456 0.216364
Si Si4 0.086052 0.846981 0.121791
Si Si5 0.085960 0.654137 0.952400
Si Si6 0.319120 0.659300 0.451070
O O1 0.750000 0.250000 0.298498
O O2 0.871877 0.212134 0.335114
O O3 0.863273 0.212810 0.252072
O O4 0.807164 0.000000 0.295889
O O5 0.500000 0.729377 0.627586
O O6 0.427628 0.500000 0.627207
O O7 0.383618 0.707315 0.580046
O O8 0.500000 0.723355 0.226563
O O9 0.574619 0.500000 0.216240
O O10 0.607182 0.712235 0.169035
O O11 0.119794 0.751386 0.084438
O O12 0.000000 0.852007 0.118567
O O13 0.117898 0.000000 0.115154
O O14 0.115063 0.500000 0.944715
O O15 0.000000 0.654971 0.949193
O O16 0.109554 0.706213 0.000000
O O17 0.344852 0.684014 0.500000
O O18 0.298507 0.500000 0.443139
O O19 0.250000 0.750000 0.439637
#
# Coordination Sequence:
#
# PCOD8267855 Si02
#       6
#    16  16  16  16  16  16
#     4  10  19  31  48  67  88 114 144 180 220 264
#     4   9  17  29  47  70  91 115 152 191 223 259
#     4   8  14  26  44  63  82 108 143 179 214 254
#     4   8  13  21  34  52  72  96 131 172 207 240
#     4   8  13  20  29  44  71 106 137 162 195 244
#     4   9  17  29  46  68  94 123 153 187 226 266
#
# _framework density 17.189838999999999
#
# number of rings (size 3 to 8) (size 9 to 14) (size 15 to 20)
#    0.000    3.333    0.000    2.500    0.000    2.667 
#    0.000    4.167    0.000    4.500    0.000    2.333 
#    0.000    0.667    0.000    1.500    0.000    4.000 
#
# Total GULP energy -594864.667806 kJ/mol
# GULP energy per Si atom -12393.013913 kJ/mol
# Density = 1.715071 g / cm^3
# Si number density = 17.189839 Si / 1000 Ang^3
#
#
#
# Elastic Constant Matrix: (Units=GPa)
#
#
# Indices 1 2 3 4 5 6 
#
# 1 97.6268 35.7074 75.8220 0.0000 0.0000 0.0000
# 2 35.7074 45.9045 50.1084 0.0000 0.0000 0.0000
# 3 75.8220 50.1084 165.8708 0.0000 0.0000 0.0000
# 4 0.0000 0.0000 0.0000 16.0533 0.0000 0.0000
# 5 0.0000 0.0000 0.0000 0.0000 4.3094 0.0000
# 6 0.0000 0.0000 0.0000 0.0000 0.0000 17.4518
#
#
#
# Elastic Compliance Matrix: (Units=1/GPa)
#
#
# Indices 1 2 3 4 5 6 
#
# 1 0.017349 -0.007219 -0.005750 0.000000 0.000000 0.000000
# 2 -0.007219 0.035506 -0.007426 0.000000 0.000000 0.000000
# 3 -0.005750 -0.007426 0.010900 0.000000 0.000000 0.000000
# 4 0.000000 0.000000 0.000000 0.062293 0.000000 0.000000
# 5 0.000000 0.000000 0.000000 0.000000 0.232052 0.000000
# 6 0.000000 0.000000 0.000000 0.000000 0.000000 0.057301
#
#
# Mechanical properties :
#
#
# Convention : Reuss Voigt Hill
#
# Bulk Modulus (GPa) = 43.54300 70.29752 56.92026
# Shear Modulus (GPa) = 10.77946 17.41385 14.09665
#
# Velocity S-wave (km/s) = 2.50688 3.18627 2.86677
# Velocity P-wave (km/s) = 5.81076 7.38377 6.64398
#
# Compressibility (1/GPa) = 0.02296581
#
# Stress axis : x y z
#
# Youngs Moduli (GPa) = 57.64054 28.16423 91.73898
#
# Poissons Ratio (x) = 0.20331 0.52747
# Poissons Ratio (y) = 0.41610 0.68128
# Poissons Ratio (z) = 0.33141 0.20916
#
# Static dielectric constant tensor:
#      x y z
#    x 2.975970 0.000000 0.000000 
#    y 0.000000 3.004540 0.000000 
#    z 0.000000 0.000000 3.659270 
# 
# 
# High freq. dielectric constant tensor:
#      x y z
#    x 1.624010 0.000000 0.000000 
#    y 0.000000 1.624870 0.000000 
#    z 0.000000 0.000000 1.685520 
# 
# From -- ./inp_files/75160.got.cif
#   From: 2010.03.12/outbox.cif.g09.slc.cpg/sg65_38_cif.got.tgz:75160.got - 2010.04.10 20:52:16.
