data_PCOD8267120
_publ_section_title
;
Structure prediction by ZEFSAII (Michael W. Deem and Ramdas Pophale) SiO2 
 PCOD8267120
Probable space group: C M M M
;
_chemical_formula_sum "Si O2"
_cell_formula_units_Z 72
_cell_length_a 35.602301
_cell_length_b 8.994486
_cell_length_c 15.369580
_cell_angle_alpha 90.000000
_cell_angle_beta 90.000000
_cell_angle_gamma 90.000000
_cell_volume 4921.714502
_symmetry_space_group_name_H-M "C M M M"
_symmetry_group_IT_number 65
_symmetry_cell_setting 'orthorhombic'
loop_
_space_group_symop_operation_xyz
x,y,z
-x,-y,z
x,-y,-z
-x,y,-z
-x,-y,-z
x,y,-z
-x,y,z
x,-y,z
1/2+x,1/2+y,z
1/2-x,1/2-y,z
1/2+x,1/2-y,-z
1/2-x,1/2+y,-z
1/2-x,1/2-y,-z
1/2+x,1/2+y,-z
1/2-x,1/2+y,z
1/2+x,1/2-y,z
loop_
_atom_site_type_symbol
_atom_site_label
_atom_site_fract_x
_atom_site_fract_y
_atom_site_fract_z
Si Si1 0.290392 0.824295 0.762247
Si Si2 0.647970 0.826661 0.099012
Si Si3 0.209688 0.174303 0.405534
Si Si4 0.500000 0.832521 0.896164
Si Si5 0.926590 0.167237 0.103578
O O1 0.250000 0.750000 0.778125
O O2 0.316040 0.782562 0.844274
O O3 0.310746 0.755691 0.675572
O O4 0.285706 0.000000 0.751218
O O5 0.611495 0.743777 0.136975
O O6 0.638974 0.000000 0.104697
O O7 0.656679 0.777947 0.000000
O O8 0.189437 0.198344 0.500000
O O9 0.250000 0.250000 0.410352
O O10 0.213943 0.000000 0.385481
O O11 0.537050 0.751951 0.858972
O O12 0.500000 0.000000 0.861113
O O13 0.500000 0.828325 0.000000
O O14 0.927673 0.000000 0.139157
O O15 0.927554 0.171970 0.000000
#
# Coordination Sequence:
#
# PCOD8267120 Si02
#       5
#    16  16  16   8  16
#     4  10  19  29  42  58  76 101 133 168 202 236
#     4   9  18  31  42  53  74 105 138 168 199 234
#     4   9  16  26  41  59  77  96 119 152 196 243
#     4   9  15  23  37  55  75  99 124 153 192 237
#     4   9  16  25  38  56  75  96 126 163 198 231
#
# _framework density 14.629047999999999
#
# number of rings (size 3 to 8) (size 9 to 14) (size 15 to 20)
#    0.000    2.778    0.000    3.667    0.000    7.556 
#    0.000    0.000    0.000    0.000    0.000    0.000 
#    0.000    0.000    0.000    1.000    0.000   18.778 
#
# Total GULP energy -446125.684555 kJ/mol
# GULP energy per Si atom -12392.380127 kJ/mol
# Density = 1.459575 g / cm^3
# Si number density = 14.629048 Si / 1000 Ang^3
#
#
#
# Elastic Constant Matrix: (Units=GPa)
#
#
# Indices 1 2 3 4 5 6 
#
# 1 92.5998 55.0974 45.3786 0.0000 0.0000 0.0000
# 2 55.0974 100.7579 40.9920 0.0000 0.0000 0.0000
# 3 45.3786 40.9920 73.0753 0.0000 0.0000 0.0000
# 4 0.0000 0.0000 0.0000 18.0061 0.0000 0.0000
# 5 0.0000 0.0000 0.0000 0.0000 0.9078 0.0000
# 6 0.0000 0.0000 0.0000 0.0000 0.0000 24.3886
#
#
#
# Elastic Compliance Matrix: (Units=1/GPa)
#
#
# Indices 1 2 3 4 5 6 
#
# 1 0.018825 -0.007176 -0.007665 0.000000 0.000000 0.000000
# 2 -0.007176 0.015595 -0.004292 0.000000 0.000000 0.000000
# 3 -0.007665 -0.004292 0.020852 0.000000 0.000000 0.000000
# 4 0.000000 0.000000 0.000000 0.055537 0.000000 0.000000
# 5 0.000000 0.000000 0.000000 0.000000 1.101546 0.000000
# 6 0.000000 0.000000 0.000000 0.000000 0.000000 0.041003
#
#
# Mechanical properties :
#
#
# Convention : Reuss Voigt Hill
#
# Bulk Modulus (GPa) = 58.80045 61.04098 59.92072
# Shear Modulus (GPa) = 3.85419 16.99150 10.42285
#
# Velocity S-wave (km/s) = 1.62491 3.41176 2.67212
# Velocity P-wave (km/s) = 6.61831 7.57209 7.11121
#
# Compressibility (1/GPa) = 0.01700667
#
# Stress axis : x y z
#
# Youngs Moduli (GPa) = 53.12135 64.12389 47.95763
#
# Poissons Ratio (x) = 0.46013 0.36758
# Poissons Ratio (y) = 0.38118 0.20583
# Poissons Ratio (z) = 0.40716 0.27522
#
# Static dielectric constant tensor:
#      x y z
#    x 2.709270 0.000000 0.000000 
#    y 0.000000 3.028860 0.000000 
#    z 0.000000 0.000000 3.094490 
# 
# 
# High freq. dielectric constant tensor:
#      x y z
#    x 1.532100 0.000000 0.000000 
#    y 0.000000 1.578910 0.000000 
#    z 0.000000 0.000000 1.522570 
# 
# From -- ./inp_files/57135.got.cif
#   From: 2010.03.12/outbox.cif.g09.slc.cpg/sg65_29_cif.got.tgz:57135.got - 2010.04.10 20:52:16.
