data_PCOD8267789
_publ_section_title
;
Structure prediction by ZEFSAII (Michael W. Deem and Ramdas Pophale) SiO2 
 PCOD8267789
Probable space group: C M M M
;
_chemical_formula_sum "Si O2"
_cell_formula_units_Z 80
_cell_length_a 9.629414
_cell_length_b 18.898846
_cell_length_c 26.133669
_cell_angle_alpha 90.000000
_cell_angle_beta 90.000000
_cell_angle_gamma 90.000000
_cell_volume 4755.930847
_symmetry_space_group_name_H-M "C M M M"
_symmetry_group_IT_number 65
_symmetry_cell_setting 'orthorhombic'
loop_
_space_group_symop_operation_xyz
x,y,z
-x,-y,z
x,-y,-z
-x,y,-z
-x,-y,-z
x,y,-z
-x,y,z
x,-y,z
1/2+x,1/2+y,z
1/2-x,1/2-y,z
1/2+x,1/2-y,-z
1/2-x,1/2+y,-z
1/2-x,1/2-y,-z
1/2+x,1/2+y,-z
1/2-x,1/2+y,z
1/2+x,1/2-y,z
loop_
_atom_site_type_symbol
_atom_site_label
_atom_site_fract_x
_atom_site_fract_y
_atom_site_fract_z
Si Si1 0.334266 0.677915 0.000000
Si Si2 0.843275 0.682573 0.500000
Si Si3 0.338582 0.918215 0.296816
Si Si4 0.164738 0.078714 0.908188
Si Si5 0.661331 0.820922 0.610727
Si Si6 0.654538 0.415852 0.795721
O O1 0.250000 0.750000 0.000000
O O2 0.284129 0.633835 0.049414
O O3 0.500000 0.691735 0.000000
O O4 0.750000 0.750000 0.500000
O O5 0.815548 0.642387 0.554140
O O6 0.000000 0.710448 0.500000
O O7 0.500000 0.907033 0.285423
O O8 0.289012 0.877320 0.347424
O O9 0.256437 0.886591 0.248123
O O10 0.302376 0.000000 0.305977
O O11 0.210880 0.106796 0.851931
O O12 0.000000 0.072755 0.909332
O O13 0.226332 0.000000 0.919277
O O14 0.500000 0.801379 0.618792
O O15 0.750000 0.750000 0.616880
O O16 0.500000 0.385167 0.785883
O O17 0.649742 0.500000 0.794377
#
# Coordination Sequence:
#
# PCOD8267789 Si02
#       6
#     8   8  16  16  16  16
#     4  10  19  31  47  67  93 120 142 172 218 264
#     4   8  14  26  43  61  81 107 141 178 214 250
#     4   9  17  29  44  64  91 118 141 170 214 263
#     4   8  14  27  49  71  85 106 148 190 213 240
#     4   9  17  29  45  64  85 111 144 180 215 253
#     4   8  14  26  45  67  87 109 143 183 215 246
#
# _framework density 16.821102
#
# number of rings (size 3 to 8) (size 9 to 14) (size 15 to 20)
#    0.000    3.400    0.000    1.500    0.000    2.000 
#    0.000    2.500    0.000   10.200    0.000    0.000 
#    0.000   11.200    0.000    0.000    0.000    0.000 
#
# Total GULP energy -495544.918456 kJ/mol
# GULP energy per Si atom -12388.622961 kJ/mol
# Density = 1.678282 g / cm^3
# Si number density = 16.821102 Si / 1000 Ang^3
#
#
#
# Elastic Constant Matrix: (Units=GPa)
#
#
# Indices 1 2 3 4 5 6 
#
# 1 41.4764 29.6121 54.0403 0.0000 0.0000 0.0000
# 2 29.6121 67.3132 70.4158 0.0000 0.0000 0.0000
# 3 54.0403 70.4158 197.8391 0.0000 0.0000 0.0000
# 4 0.0000 0.0000 0.0000 17.4926 0.0000 0.0000
# 5 0.0000 0.0000 0.0000 0.0000 25.4242 0.0000
# 6 0.0000 0.0000 0.0000 0.0000 0.0000 19.7327
#
#
#
# Elastic Compliance Matrix: (Units=1/GPa)
#
#
# Indices 1 2 3 4 5 6 
#
# 1 0.041380 -0.010164 -0.007685 0.000000 0.000000 0.000000
# 2 -0.010164 0.026165 -0.006536 0.000000 0.000000 0.000000
# 3 -0.007685 -0.006536 0.009480 0.000000 0.000000 0.000000
# 4 0.000000 0.000000 0.000000 0.057167 0.000000 0.000000
# 5 0.000000 0.000000 0.000000 0.000000 0.039333 0.000000
# 6 0.000000 0.000000 0.000000 0.000000 0.000000 0.050677
#
#
# Mechanical properties :
#
#
# Convention : Reuss Voigt Hill
#
# Bulk Modulus (GPa) = 35.39363 68.30723 51.85043
# Shear Modulus (GPa) = 17.70584 22.70058 20.20321
#
# Velocity S-wave (km/s) = 3.24789 3.67758 3.46940
# Velocity P-wave (km/s) = 5.92891 7.66349 6.85131
#
# Compressibility (1/GPa) = 0.02825367
#
# Stress axis : x y z
#
# Youngs Moduli (GPa) = 24.16608 38.21905 105.48085
#
# Poissons Ratio (x) = 0.38846 0.81067
# Poissons Ratio (y) = 0.24563 0.68947
# Poissons Ratio (z) = 0.18573 0.24982
#
# Static dielectric constant tensor:
#      x y z
#    x 3.002950 0.000000 0.000000 
#    y 0.000000 2.997960 0.000000 
#    z 0.000000 0.000000 3.920460 
# 
# 
# High freq. dielectric constant tensor:
#      x y z
#    x 1.626360 0.000000 0.000000 
#    y 0.000000 1.604280 0.000000 
#    z 0.000000 0.000000 1.673560 
# 
# From -- ./inp_files/67375.got.cif
#   From: 2010.03.12/outbox.cif.g09.slc.cpg/sg65_34_cif.got.tgz:67375.got - 2010.04.10 20:52:16.
