data_PCOD8267197
_publ_section_title
;
Structure prediction by ZEFSAII (Michael W. Deem and Ramdas Pophale) SiO2 
 PCOD8267197
Probable space group: C M M M
;
_chemical_formula_sum "Si O2"
_cell_formula_units_Z 72
_cell_length_a 26.712546
_cell_length_b 9.439476
_cell_length_c 18.046010
_cell_angle_alpha 90.000000
_cell_angle_beta 90.000000
_cell_angle_gamma 90.000000
_cell_volume 4550.345397
_symmetry_space_group_name_H-M "C M M M"
_symmetry_group_IT_number 65
_symmetry_cell_setting 'orthorhombic'
loop_
_space_group_symop_operation_xyz
x,y,z
-x,-y,z
x,-y,-z
-x,y,-z
-x,-y,-z
x,y,-z
-x,y,z
x,-y,z
1/2+x,1/2+y,z
1/2-x,1/2-y,z
1/2+x,1/2-y,-z
1/2-x,1/2+y,-z
1/2-x,1/2-y,-z
1/2+x,1/2+y,-z
1/2-x,1/2+y,z
1/2+x,1/2-y,z
loop_
_atom_site_type_symbol
_atom_site_label
_atom_site_fract_x
_atom_site_fract_y
_atom_site_fract_z
Si Si1 0.798467 0.662389 0.723103
Si Si2 0.138617 0.335781 0.416971
Si Si3 0.598980 0.843209 0.211833
Si Si4 0.057408 0.837048 0.336180
Si Si5 0.440495 0.000000 0.915921
O O1 0.782755 0.500000 0.728953
O O2 0.750000 0.750000 0.745234
O O3 0.816709 0.700968 0.639868
O O4 0.842728 0.701491 0.781293
O O5 0.156452 0.297361 0.500000
O O6 0.123609 0.500000 0.410644
O O7 0.090000 0.243413 0.397444
O O8 0.564465 0.731805 0.254798
O O9 0.593734 0.000000 0.250270
O O10 0.581009 0.859165 0.126064
O O11 0.000000 0.823701 0.360307
O O12 0.074383 0.000000 0.331825
O O13 0.500000 0.000000 0.911728
O O14 0.421126 0.000000 0.000000
#
# Coordination Sequence:
#
# PCOD8267197 Si02
#       5
#    16  16  16  16   8
#     4   9  17  30  47  68  90 120 162 199 240 282
#     4   9  19  34  47  62  89 122 162 209 248 286
#     4   8  17  31  48  71  97 123 155 200 230 274
#     4  10  19  29  44  67  95 126 159 196 242 294
#     4   9  16  28  54  84 101 121 155 195 237 276
#
# _framework density 15.822975
#
# number of rings (size 3 to 8) (size 9 to 14) (size 15 to 20)
#    0.667    2.333    0.000    2.667    0.000    6.222 
#    0.000    2.222    0.000    1.333    0.000    3.111 
#    0.000    0.000    0.000    0.000    0.000    0.000 
#
# Total GULP energy -446110.039570 kJ/mol
# GULP energy per Si atom -12391.945544 kJ/mol
# Density = 1.578696 g / cm^3
# Si number density = 15.822975 Si / 1000 Ang^3
#
#
#
# Elastic Constant Matrix: (Units=GPa)
#
#
# Indices 1 2 3 4 5 6 
#
# 1 85.8165 33.4554 29.6183 0.0000 0.0000 0.0000
# 2 33.4554 58.2796 10.7806 0.0000 0.0000 0.0000
# 3 29.6183 10.7806 101.4837 0.0000 0.0000 0.0000
# 4 0.0000 0.0000 0.0000 5.3158 0.0000 0.0000
# 5 0.0000 0.0000 0.0000 0.0000 15.6251 0.0000
# 6 0.0000 0.0000 0.0000 0.0000 0.0000 31.6737
#
#
#
# Elastic Compliance Matrix: (Units=1/GPa)
#
#
# Indices 1 2 3 4 5 6 
#
# 1 0.016368 -0.008683 -0.003855 0.000000 0.000000 0.000000
# 2 -0.008683 0.022109 0.000186 0.000000 0.000000 0.000000
# 3 -0.003855 0.000186 0.010959 0.000000 0.000000 0.000000
# 4 0.000000 0.000000 0.000000 0.188120 0.000000 0.000000
# 5 0.000000 0.000000 0.000000 0.000000 0.064000 0.000000
# 6 0.000000 0.000000 0.000000 0.000000 0.000000 0.031572
#
#
# Mechanical properties :
#
#
# Convention : Reuss Voigt Hill
#
# Bulk Modulus (GPa) = 40.43398 43.69871 42.06635
# Shear Modulus (GPa) = 13.65835 21.97127 17.81481
#
# Velocity S-wave (km/s) = 2.94121 3.73039 3.35906
# Velocity P-wave (km/s) = 6.09457 6.79939 6.45660
#
# Compressibility (1/GPa) = 0.02473167
#
# Stress axis : x y z
#
# Youngs Moduli (GPa) = 61.09373 45.23068 91.24835
#
# Poissons Ratio (x) = 0.39275 0.35174
# Poissons Ratio (y) = 0.53049 -0.01693
# Poissons Ratio (z) = 0.23550 -0.00839
#
# Static dielectric constant tensor:
#      x y z
#    x 2.872800 0.000000 0.000000 
#    y 0.000000 2.922120 0.000000 
#    z 0.000000 0.000000 2.938290 
# 
# 
# High freq. dielectric constant tensor:
#      x y z
#    x 1.605870 0.000000 0.000000 
#    y 0.000000 1.597070 0.000000 
#    z 0.000000 0.000000 1.580980 
# 
# From -- ./inp_files/65635.got.cif
#   From: 2010.03.12/outbox.cif.g09.slc.cpg/sg65_33_cif.got.tgz:65635.got - 2010.04.10 20:52:16.
