data_PCOD8267898
_publ_section_title
;
Structure prediction by ZEFSAII (Michael W. Deem and Ramdas Pophale) SiO2 
 PCOD8267898
Probable space group: C M M M
;
_chemical_formula_sum "Si O2"
_cell_formula_units_Z 104
_cell_length_a 8.154492
_cell_length_b 27.561803
_cell_length_c 27.634085
_cell_angle_alpha 90.000000
_cell_angle_beta 90.000000
_cell_angle_gamma 90.000000
_cell_volume 6210.829746
_symmetry_space_group_name_H-M "C M M M"
_symmetry_group_IT_number 65
_symmetry_cell_setting 'orthorhombic'
loop_
_space_group_symop_operation_xyz
x,y,z
-x,-y,z
x,-y,-z
-x,y,-z
-x,-y,-z
x,y,-z
-x,y,z
x,-y,z
1/2+x,1/2+y,z
1/2-x,1/2-y,z
1/2+x,1/2-y,-z
1/2-x,1/2+y,-z
1/2-x,1/2-y,-z
1/2+x,1/2+y,-z
1/2-x,1/2+y,z
1/2+x,1/2-y,z
loop_
_atom_site_type_symbol
_atom_site_label
_atom_site_fract_x
_atom_site_fract_y
_atom_site_fract_z
Si Si1 0.806289 0.804033 0.761396
Si Si2 0.809932 0.945448 0.799313
Si Si3 0.186397 0.394521 0.292632
Si Si4 0.500000 0.057465 0.554063
Si Si5 0.185387 0.056576 0.615433
Si Si6 0.190058 0.145296 0.857898
Si Si7 0.689723 0.198633 0.946919
O O1 0.750000 0.750000 0.749662
O O2 0.730752 0.839302 0.720951
O O3 0.742817 0.820303 0.814571
O O4 0.000000 0.809086 0.758931
O O5 0.705101 0.929771 0.753244
O O6 0.770697 0.910612 0.844753
O O7 0.000000 0.939982 0.784697
O O8 0.764377 0.000000 0.814747
O O9 0.303098 0.412962 0.335311
O O10 0.000000 0.397137 0.310808
O O11 0.500000 0.079526 0.500000
O O12 0.330285 0.074883 0.579582
O O13 0.500000 0.000000 0.551824
O O14 0.000000 0.064734 0.593997
O O15 0.212133 0.000000 0.627544
O O16 0.274439 0.156329 0.908800
O O17 0.000000 0.155031 0.865078
O O18 0.500000 0.202205 0.954681
O O19 0.750000 0.250000 0.925652
O O20 0.771179 0.188145 0.000000
#
# Coordination Sequence:
#
# PCOD8267898 Si02
#       7
#    16  16  16   8  16  16  16
#     4  10  20  33  47  67  95 127 158 192 236 286
#     4   9  18  32  48  67  92 122 157 195 234 276
#     4  11  20  30  46  69  97 130 165 201 236 283
#     4   9  18  32  48  70 100 132 170 210 247 297
#     4  10  19  31  48  70  99 135 169 207 251 290
#     4   9  18  31  48  68  90 118 151 186 231 281
#     4  10  20  32  47  67  89 113 144 185 230 279
#
# _framework density 16.744945000000001
#
# number of rings (size 3 to 8) (size 9 to 14) (size 15 to 20)
#    0.000    2.231    0.769    4.154    0.000    7.692 
#    0.000    1.538    0.000    0.462    0.000    3.231 
#    0.000    0.615    0.308    0.000    0.000    0.000 
#
# Total GULP energy -644651.120813 kJ/mol
# GULP energy per Si atom -12397.136939 kJ/mol
# Density = 1.670683 g / cm^3
# Si number density = 16.744945 Si / 1000 Ang^3
#
#
#
# Elastic Constant Matrix: (Units=GPa)
#
#
# Indices 1 2 3 4 5 6 
#
# 1 83.8558 25.4056 35.6477 0.0000 0.0000 0.0000
# 2 25.4056 104.5198 42.7910 0.0000 0.0000 0.0000
# 3 35.6477 42.7910 95.9557 0.0000 0.0000 0.0000
# 4 0.0000 0.0000 0.0000 21.1704 0.0000 0.0000
# 5 0.0000 0.0000 0.0000 0.0000 23.3374 0.0000
# 6 0.0000 0.0000 0.0000 0.0000 0.0000 22.1489
#
#
#
# Elastic Compliance Matrix: (Units=1/GPa)
#
#
# Indices 1 2 3 4 5 6 
#
# 1 0.014377 -0.001600 -0.004628 0.000000 0.000000 0.000000
# 2 -0.001600 0.011883 -0.004705 0.000000 0.000000 0.000000
# 3 -0.004628 -0.004705 0.014239 0.000000 0.000000 0.000000
# 4 0.000000 0.000000 0.000000 0.047236 0.000000 0.000000
# 5 0.000000 0.000000 0.000000 0.000000 0.042850 0.000000
# 6 0.000000 0.000000 0.000000 0.000000 0.000000 0.045149
#
#
# Mechanical properties :
#
#
# Convention : Reuss Voigt Hill
#
# Bulk Modulus (GPa) = 53.66556 54.66886 54.16721
# Shear Modulus (GPa) = 24.53280 25.36380 24.94830
#
# Velocity S-wave (km/s) = 3.83180 3.89615 3.86411
# Velocity P-wave (km/s) = 7.18994 7.27729 7.23375
#
# Compressibility (1/GPa) = 0.01863392
#
# Stress axis : x y z
#
# Youngs Moduli (GPa) = 69.55442 84.15699 70.23163
#
# Poissons Ratio (x) = 0.13466 0.32500
# Poissons Ratio (y) = 0.11129 0.33041
# Poissons Ratio (z) = 0.32187 0.39592
#
# Static dielectric constant tensor:
#      x y z
#    x 3.208330 0.000000 0.000000 
#    y 0.000000 2.712600 0.000000 
#    z 0.000000 0.000000 3.132560 
# 
# 
# High freq. dielectric constant tensor:
#      x y z
#    x 1.656810 0.000000 0.000000 
#    y 0.000000 1.623320 0.000000 
#    z 0.000000 0.000000 1.623670 
# 
# From -- ./inp_files/68536.got.cif
#   From: 2010.03.12/outbox.cif.g09.slc.cpg/sg65_35_cif.got.tgz:68536.got - 2010.04.10 20:52:16.
