data_PCOD8267849
_publ_section_title
;
Structure prediction by ZEFSAII (Michael W. Deem and Ramdas Pophale) SiO2 
 PCOD8267849
Probable space group: C M M M
;
_chemical_formula_sum "Si O2"
_cell_formula_units_Z 96
_cell_length_a 25.490250
_cell_length_b 22.912561
_cell_length_c 8.835210
_cell_angle_alpha 90.000000
_cell_angle_beta 90.000000
_cell_angle_gamma 90.000000
_cell_volume 5160.177082
_symmetry_space_group_name_H-M "C M M M"
_symmetry_group_IT_number 65
_symmetry_cell_setting 'orthorhombic'
loop_
_space_group_symop_operation_xyz
x,y,z
-x,-y,z
x,-y,-z
-x,y,-z
-x,-y,-z
x,y,-z
-x,y,z
x,-y,z
1/2+x,1/2+y,z
1/2-x,1/2-y,z
1/2+x,1/2-y,-z
1/2-x,1/2+y,-z
1/2-x,1/2-y,-z
1/2+x,1/2+y,-z
1/2-x,1/2+y,z
1/2+x,1/2-y,z
loop_
_atom_site_type_symbol
_atom_site_label
_atom_site_fract_x
_atom_site_fract_y
_atom_site_fract_z
Si Si1 0.560383 0.807496 0.824396
Si Si2 0.440702 0.317442 0.678082
Si Si3 0.846508 0.863060 0.824864
Si Si4 0.352557 0.128671 0.669031
Si Si5 0.307888 0.743955 0.668226
Si Si6 0.244755 0.431932 0.175731
O O1 0.500000 0.824155 0.797229
O O2 0.574172 0.747087 0.738879
O O3 0.593522 0.863755 0.763847
O O4 0.573069 0.797650 0.000000
O O5 0.432868 0.314279 0.500000
O O6 0.500000 0.333730 0.724507
O O7 0.403340 0.369813 0.742918
O O8 0.835690 0.795219 0.793515
O O9 0.797864 0.901249 0.758521
O O10 0.853954 0.877297 0.000000
O O11 0.364330 0.104610 0.500000
O O12 0.331243 0.192987 0.661396
O O13 0.308948 0.087348 0.744242
O O14 0.310099 0.714796 0.500000
O O15 0.250000 0.750000 0.729687
O O16 0.252488 0.500000 0.203340
O O17 0.239068 0.415755 0.000000
#
# Coordination Sequence:
#
# PCOD8267849 Si02
#       6
#    16  16  16  16  16  16
#     4  10  20  33  51  78 112 147 180 213 255 313
#     4  10  20  33  50  75 110 147 177 211 261 317
#     4  11  21  32  53  79 105 139 178 219 264 318
#     4  11  21  33  54  81 110 143 177 217 265 318
#     4  10  19  31  47  73 109 142 170 207 261 320
#     4  10  23  41  57  76 105 141 181 226 273 318
#
# _framework density 18.604013999999999
#
# number of rings (size 3 to 8) (size 9 to 14) (size 15 to 20)
#    0.000    1.667    3.333    2.000    0.000    4.000 
#    0.000    0.000    0.000    1.000    0.000    7.000 
#    0.000    0.000    0.000    0.000    0.000    0.000 
#
# Total GULP energy -594749.409962 kJ/mol
# GULP energy per Si atom -12390.612708 kJ/mol
# Density = 1.856167 g / cm^3
# Si number density = 18.604014 Si / 1000 Ang^3
#
#
#
# Elastic Constant Matrix: (Units=GPa)
#
#
# Indices 1 2 3 4 5 6 
#
# 1 115.4097 25.8123 25.3314 0.0000 0.0000 0.0000
# 2 25.8123 43.8936 24.0409 0.0000 0.0000 0.0000
# 3 25.3314 24.0409 67.5884 0.0000 0.0000 0.0000
# 4 0.0000 0.0000 0.0000 10.0576 0.0000 0.0000
# 5 0.0000 0.0000 0.0000 0.0000 32.4904 0.0000
# 6 0.0000 0.0000 0.0000 0.0000 0.0000 13.0227
#
#
#
# Elastic Compliance Matrix: (Units=1/GPa)
#
#
# Indices 1 2 3 4 5 6 
#
# 1 0.010212 -0.004855 -0.002100 0.000000 0.000000 0.000000
# 2 -0.004855 0.030603 -0.009066 0.000000 0.000000 0.000000
# 3 -0.002100 -0.009066 0.018807 0.000000 0.000000 0.000000
# 4 0.000000 0.000000 0.000000 0.099427 0.000000 0.000000
# 5 0.000000 0.000000 0.000000 0.000000 0.030778 0.000000
# 6 0.000000 0.000000 0.000000 0.000000 0.000000 0.076789
#
#
# Mechanical properties :
#
#
# Convention : Reuss Voigt Hill
#
# Bulk Modulus (GPa) = 36.25834 41.91788 39.08811
# Shear Modulus (GPa) = 16.24159 21.22792 18.73476
#
# Velocity S-wave (km/s) = 2.95789 3.38159 3.17681
# Velocity P-wave (km/s) = 5.58546 6.15040 5.87472
#
# Compressibility (1/GPa) = 0.02757986
#
# Stress axis : x y z
#
# Youngs Moduli (GPa) = 97.92791 32.67688 53.17079
#
# Poissons Ratio (x) = 0.15864 0.11168
# Poissons Ratio (y) = 0.47541 0.48203
# Poissons Ratio (z) = 0.20569 0.29624
#
# Static dielectric constant tensor:
#      x y z
#    x 3.963460 0.000000 0.000000 
#    y 0.000000 2.992770 0.000000 
#    z 0.000000 0.000000 3.667390 
# 
# 
# High freq. dielectric constant tensor:
#      x y z
#    x 1.748400 0.000000 0.000000 
#    y 0.000000 1.666120 0.000000 
#    z 0.000000 0.000000 1.726120 
# 
# From -- ./inp_files/16301.got.cif
#   From: 2010.03.12/outbox.cif.g09.slc.cpg/sg65_9_cif.got.tgz:16301.got - 2010.04.10 20:52:16.
