data_PCOD8267321
_publ_section_title
;
Structure prediction by ZEFSAII (Michael W. Deem and Ramdas Pophale) SiO2 
 PCOD8267321
Probable space group: C M M M
;
_chemical_formula_sum "Si O2"
_cell_formula_units_Z 104
_cell_length_a 9.184529
_cell_length_b 27.030242
_cell_length_c 27.166599
_cell_angle_alpha 90.000000
_cell_angle_beta 90.000000
_cell_angle_gamma 90.000000
_cell_volume 6744.380996
_symmetry_space_group_name_H-M "C M M M"
_symmetry_group_IT_number 65
_symmetry_cell_setting 'orthorhombic'
loop_
_space_group_symop_operation_xyz
x,y,z
-x,-y,z
x,-y,-z
-x,y,-z
-x,-y,-z
x,y,-z
-x,y,z
x,-y,z
1/2+x,1/2+y,z
1/2-x,1/2-y,z
1/2+x,1/2-y,-z
1/2-x,1/2+y,-z
1/2-x,1/2-y,-z
1/2+x,1/2+y,-z
1/2-x,1/2+y,z
1/2+x,1/2-y,z
loop_
_atom_site_type_symbol
_atom_site_label
_atom_site_fract_x
_atom_site_fract_y
_atom_site_fract_z
Si Si1 0.170562 0.600469 0.101536
Si Si2 0.171958 0.700573 0.153474
Si Si3 0.170096 0.848169 0.757937
Si Si4 0.167394 0.945267 0.810788
Si Si5 0.326904 0.943735 0.000000
Si Si6 0.830545 0.198544 0.447997
Si Si7 0.329825 0.698280 0.342090
O O1 0.209308 0.657324 0.114368
O O2 0.241335 0.563285 0.140163
O O3 0.230474 0.586292 0.047584
O O4 0.000000 0.591414 0.104943
O O5 0.250000 0.750000 0.133711
O O6 0.236073 0.687146 0.206903
O O7 0.000000 0.709237 0.158429
O O8 0.207867 0.905463 0.768795
O O9 0.216914 0.838730 0.701504
O O10 0.000000 0.836595 0.767051
O O11 0.000000 0.939788 0.826014
O O12 0.201673 0.000000 0.789900
O O13 0.500000 0.944998 0.000000
O O14 0.266100 0.000000 0.000000
O O15 0.791571 0.169635 0.500000
O O16 0.750000 0.250000 0.448801
O O17 0.790324 0.172589 0.395517
O O18 0.000000 0.210497 0.447673
O O19 0.500000 0.709706 0.338708
O O20 0.250000 0.750000 0.334978
#
# Coordination Sequence:
#
# PCOD8267321 Si02
#       7
#    16  16  16  16   8  16  16
#     4   9  18  31  47  66  84 104 132 162 191 229
#     4  10  19  30  44  61  82 108 136 163 192 227
#     4   9  17  28  41  58  80 104 132 164 195 231
#     4   9  17  29  44  61  82 106 129 157 196 237
#     4   9  16  28  48  69  85 101 125 161 200 233
#     4   8  13  21  32  46  66  93 124 155 187 223
#     4   9  16  24  35  52  74 100 128 158 190 224
#
# _framework density 15.420244
#
# number of rings (size 3 to 8) (size 9 to 14) (size 15 to 20)
#    0.000    3.000    0.000    1.385    0.000    3.385 
#    0.000    0.769    0.000    1.385    0.000    0.000 
#    0.000    0.615    0.000    8.615    0.000    0.000 
#
# Total GULP energy -644199.360828 kJ/mol
# GULP energy per Si atom -12388.449247 kJ/mol
# Density = 1.538515 g / cm^3
# Si number density = 15.420244 Si / 1000 Ang^3
#
#
#
# Elastic Constant Matrix: (Units=GPa)
#
#
# Indices 1 2 3 4 5 6 
#
# 1 29.4926 25.2755 27.1263 0.0000 0.0000 0.0000
# 2 25.2755 91.8800 62.5802 0.0000 0.0000 0.0000
# 3 27.1263 62.5802 163.3774 0.0000 0.0000 0.0000
# 4 0.0000 0.0000 0.0000 11.5069 0.0000 0.0000
# 5 0.0000 0.0000 0.0000 0.0000 16.0240 0.0000
# 6 0.0000 0.0000 0.0000 0.0000 0.0000 16.8683
#
#
#
# Elastic Compliance Matrix: (Units=1/GPa)
#
#
# Indices 1 2 3 4 5 6 
#
# 1 0.046028 -0.010089 -0.003778 0.000000 0.000000 0.000000
# 2 -0.010089 0.016937 -0.004812 0.000000 0.000000 0.000000
# 3 -0.003778 -0.004812 0.008591 0.000000 0.000000 0.000000
# 4 0.000000 0.000000 0.000000 0.086904 0.000000 0.000000
# 5 0.000000 0.000000 0.000000 0.000000 0.062406 0.000000
# 6 0.000000 0.000000 0.000000 0.000000 0.000000 0.059283
#
#
# Mechanical properties :
#
#
# Convention : Reuss Voigt Hill
#
# Bulk Modulus (GPa) = 29.24152 57.19046 43.21599
# Shear Modulus (GPa) = 15.20187 20.19770 17.69979
#
# Velocity S-wave (km/s) = 3.14321 3.62307 3.39164
# Velocity P-wave (km/s) = 5.67250 7.39395 6.58968
#
# Compressibility (1/GPa) = 0.03419795
#
# Stress axis : x y z
#
# Youngs Moduli (GPa) = 21.72608 59.04265 116.39550
#
# Poissons Ratio (x) = 0.59567 0.43971
# Poissons Ratio (y) = 0.21919 0.56015
# Poissons Ratio (z) = 0.08208 0.28414
#
# Static dielectric constant tensor:
#      x y z
#    x 2.828870 0.000000 0.000000 
#    y 0.000000 2.854760 0.000000 
#    z 0.000000 0.000000 3.491410 
# 
# 
# High freq. dielectric constant tensor:
#      x y z
#    x 1.588060 0.000000 0.000000 
#    y 0.000000 1.560240 0.000000 
#    z 0.000000 0.000000 1.596030 
# 
# From -- ./inp_files/73761.got.cif
#   From: 2010.03.12/outbox.cif.g09.slc.cpg/sg65_37_cif.got.tgz:73761.got - 2010.04.10 20:52:16.
