data_PCOD8267229
_publ_section_title
;
Structure prediction by ZEFSAII (Michael W. Deem and Ramdas Pophale) SiO2 
 PCOD8267229
Probable space group: C M M M
;
_chemical_formula_sum "Si O2"
_cell_formula_units_Z 96
_cell_length_a 20.652188
_cell_length_b 28.101111
_cell_length_c 8.997978
_cell_angle_alpha 90.000000
_cell_angle_beta 90.000000
_cell_angle_gamma 90.000000
_cell_volume 5221.971380
_symmetry_space_group_name_H-M "C M M M"
_symmetry_group_IT_number 65
_symmetry_cell_setting 'orthorhombic'
loop_
_space_group_symop_operation_xyz
x,y,z
-x,-y,z
x,-y,-z
-x,y,-z
-x,-y,-z
x,y,-z
-x,y,z
x,-y,z
1/2+x,1/2+y,z
1/2-x,1/2-y,z
1/2+x,1/2-y,-z
1/2-x,1/2+y,-z
1/2-x,1/2-y,-z
1/2+x,1/2+y,-z
1/2-x,1/2+y,z
1/2+x,1/2-y,z
loop_
_atom_site_type_symbol
_atom_site_label
_atom_site_fract_x
_atom_site_fract_y
_atom_site_fract_z
Si Si1 0.925653 0.445752 0.326769
Si Si2 0.314890 0.111811 0.176475
Si Si3 0.191402 0.946431 0.177294
Si Si4 0.071773 0.113384 0.176805
Si Si5 0.428558 0.720113 0.176740
Si Si6 0.310272 0.780537 0.177230
O O1 0.911807 0.438775 0.500000
O O2 0.910198 0.500000 0.279627
O O3 0.881452 0.409998 0.234762
O O4 0.000000 0.433595 0.289406
O O5 0.254102 0.081605 0.236882
O O6 0.306703 0.165559 0.236407
O O7 0.317351 0.111023 0.000000
O O8 0.126370 0.921822 0.241528
O O9 0.194289 0.000000 0.239152
O O10 0.190455 0.945953 0.000000
O O11 0.086405 0.166763 0.234153
O O12 0.000000 0.097040 0.230175
O O13 0.074329 0.112819 0.000000
O O14 0.500000 0.736241 0.230855
O O15 0.375679 0.756525 0.241189
O O16 0.425778 0.719978 0.000000
O O17 0.250000 0.750000 0.238578
O O18 0.309921 0.780083 0.000000
#
# Coordination Sequence:
#
# PCOD8267229 Si02
#       6
#    16  16  16  16  16  16
#     4   9  19  36  54  69  89 121 157 190 230 286
#     4  10  19  29  45  70  96 120 149 190 235 273
#     4   9  16  24  34  52  81 112 140 175 219 261
#     4   8  13  21  33  49  73 110 150 179 207 252
#     4   8  13  21  32  46  68 100 137 174 207 242
#     4   9  16  25  38  58  87 121 151 179 217 267
#
# _framework density 18.383861
#
# number of rings (size 3 to 8) (size 9 to 14) (size 15 to 20)
#    0.000    3.167    0.000    3.000    0.000    6.333 
#    0.000    4.167    0.000    0.500    0.000    0.000 
#    0.000    0.667    0.000    3.500    0.000    4.000 
#
# Total GULP energy -594974.877026 kJ/mol
# GULP energy per Si atom -12395.309938 kJ/mol
# Density = 1.834202 g / cm^3
# Si number density = 18.383861 Si / 1000 Ang^3
#
#
#
# Elastic Constant Matrix: (Units=GPa)
#
#
# Indices 1 2 3 4 5 6 
#
# 1 168.4492 110.2285 13.3572 0.0000 0.0000 0.0000
# 2 110.2285 169.7483 13.6997 0.0000 0.0000 0.0000
# 3 13.3572 13.6997 6.8230 0.0000 0.0000 0.0000
# 4 0.0000 0.0000 0.0000 7.6498 0.0000 0.0000
# 5 0.0000 0.0000 0.0000 0.0000 6.9622 0.0000
# 6 0.0000 0.0000 0.0000 0.0000 0.0000 44.3994
#
#
#
# Elastic Compliance Matrix: (Units=1/GPa)
#
#
# Indices 1 2 3 4 5 6 
#
# 1 0.010708 -0.006279 -0.008355 0.000000 0.000000 0.000000
# 2 -0.006279 0.010712 -0.009217 0.000000 0.000000 0.000000
# 3 -0.008355 -0.009217 0.181426 0.000000 0.000000 0.000000
# 4 0.000000 0.000000 0.000000 0.130722 0.000000 0.000000
# 5 0.000000 0.000000 0.000000 0.000000 0.143633 0.000000
# 6 0.000000 0.000000 0.000000 0.000000 0.000000 0.022523
#
#
# Mechanical properties :
#
#
# Convention : Reuss Voigt Hill
#
# Bulk Modulus (GPa) = 6.44561 68.84346 37.64453
# Shear Modulus (GPa) = 8.34531 25.65130 16.99830
#
# Velocity S-wave (km/s) = 2.13292 3.73945 3.04407
# Velocity P-wave (km/s) = 3.09508 7.49491 5.73381
#
# Compressibility (1/GPa) = 0.15514444
#
# Stress axis : x y z
#
# Youngs Moduli (GPa) = 93.38991 93.35108 5.51190
#
# Poissons Ratio (x) = 0.58615 0.04605
# Poissons Ratio (y) = 0.58639 0.05080
# Poissons Ratio (z) = 0.78027 0.86039
#
# Static dielectric constant tensor:
#      x y z
#    x 3.710520 0.000000 0.000000 
#    y 0.000000 3.600110 0.000000 
#    z 0.000000 0.000000 2.557120 
# 
# 
# High freq. dielectric constant tensor:
#      x y z
#    x 1.731690 0.000000 0.000000 
#    y 0.000000 1.719790 0.000000 
#    z 0.000000 0.000000 1.626590 
# 
# From -- ./inp_files/27355.got.cif
#   From: 2010.03.12/outbox.cif.g09.slc.cpg/sg65_14_cif.got.tgz:27355.got - 2010.04.10 20:52:16.
