data_PCOD8267796
_publ_section_title
;
Structure prediction by ZEFSAII (Michael W. Deem and Ramdas Pophale) SiO2 
 PCOD8267796
Probable space group: C M M M
;
_chemical_formula_sum "Si O2"
_cell_formula_units_Z 88
_cell_length_a 8.912124
_cell_length_b 27.134814
_cell_length_c 21.198158
_cell_angle_alpha 90.000000
_cell_angle_beta 90.000000
_cell_angle_gamma 90.000000
_cell_volume 5126.325686
_symmetry_space_group_name_H-M "C M M M"
_symmetry_group_IT_number 65
_symmetry_cell_setting 'orthorhombic'
loop_
_space_group_symop_operation_xyz
x,y,z
-x,-y,z
x,-y,-z
-x,y,-z
-x,-y,-z
x,y,-z
-x,y,z
x,-y,z
1/2+x,1/2+y,z
1/2-x,1/2-y,z
1/2+x,1/2-y,-z
1/2-x,1/2+y,-z
1/2-x,1/2-y,-z
1/2+x,1/2+y,-z
1/2-x,1/2+y,z
1/2+x,1/2-y,z
loop_
_atom_site_type_symbol
_atom_site_label
_atom_site_fract_x
_atom_site_fract_y
_atom_site_fract_z
Si Si1 0.672094 0.554648 0.243153
Si Si2 0.176490 0.150207 0.684691
Si Si3 0.321040 0.056281 0.000000
Si Si4 0.674910 0.801950 0.427877
Si Si5 0.323364 0.101436 0.128962
Si Si6 0.678252 0.800660 0.802292
O O1 0.500000 0.561336 0.223458
O O2 0.705003 0.500000 0.269857
O O3 0.714635 0.593900 0.296987
O O4 0.767153 0.562625 0.180317
O O5 0.247163 0.157278 0.615778
O O6 0.253938 0.187358 0.733797
O O7 0.000000 0.161080 0.683550
O O8 0.258178 0.085712 0.060902
O O9 0.500000 0.056016 0.000000
O O10 0.261021 0.000000 0.000000
O O11 0.703272 0.817745 0.500000
O O12 0.500000 0.797980 0.412269
O O13 0.750000 0.750000 0.412611
O O14 0.500000 0.097515 0.127898
O O15 0.273904 0.156908 0.147821
O O16 0.500000 0.795716 0.796499
O O17 0.750000 0.750000 0.827438
#
# Coordination Sequence:
#
# PCOD8267796 Si02
#       6
#    16  16   8  16  16  16
#     4   9  18  32  49  70  96 123 152 190 234 276
#     4  10  19  31  49  71  95 123 155 191 230 272
#     4   9  16  28  48  71  93 117 149 191 236 279
#     4  10  20  33  49  70  97 126 155 188 227 272
#     4   9  18  31  48  70  93 120 155 193 231 275
#     4  10  19  31  47  67  93 123 156 192 231 275
#
# _framework density 17.166291000000001
#
# number of rings (size 3 to 8) (size 9 to 14) (size 15 to 20)
#    0.000    2.455    0.000    2.727    0.000    3.636 
#    0.000    0.909    0.000    2.182    0.000    3.818 
#    0.000    0.000    0.000    0.000    0.000    0.000 
#
# Total GULP energy -545606.091093 kJ/mol
# GULP energy per Si atom -12400.138434 kJ/mol
# Density = 1.712722 g / cm^3
# Si number density = 17.166291 Si / 1000 Ang^3
#
#
#
# Elastic Constant Matrix: (Units=GPa)
#
#
# Indices 1 2 3 4 5 6 
#
# 1 56.7634 39.0515 41.2291 0.0000 0.0000 0.0000
# 2 39.0515 125.3819 67.6256 0.0000 0.0000 0.0000
# 3 41.2291 67.6256 125.3555 0.0000 0.0000 0.0000
# 4 0.0000 0.0000 0.0000 22.8077 0.0000 0.0000
# 5 0.0000 0.0000 0.0000 0.0000 18.7963 0.0000
# 6 0.0000 0.0000 0.0000 0.0000 0.0000 22.5030
#
#
#
# Elastic Compliance Matrix: (Units=1/GPa)
#
#
# Indices 1 2 3 4 5 6 
#
# 1 0.024985 -0.004724 -0.005669 0.000000 0.000000 0.000000
# 2 -0.004724 0.012142 -0.004996 0.000000 0.000000 0.000000
# 3 -0.005669 -0.004996 0.012537 0.000000 0.000000 0.000000
# 4 0.000000 0.000000 0.000000 0.043845 0.000000 0.000000
# 5 0.000000 0.000000 0.000000 0.000000 0.053202 0.000000
# 6 0.000000 0.000000 0.000000 0.000000 0.000000 0.044439
#
#
# Mechanical properties :
#
#
# Convention : Reuss Voigt Hill
#
# Bulk Modulus (GPa) = 52.95266 67.03482 59.99374
# Shear Modulus (GPa) = 21.90844 23.46104 22.68474
#
# Velocity S-wave (km/s) = 3.57634 3.70089 3.63915
# Velocity P-wave (km/s) = 6.92585 7.57609 7.25826
#
# Compressibility (1/GPa) = 0.01888479
#
# Stress axis : x y z
#
# Youngs Moduli (GPa) = 40.02478 82.35956 79.76281
#
# Poissons Ratio (x) = 0.38908 0.45216
# Poissons Ratio (y) = 0.18909 0.39853
# Poissons Ratio (z) = 0.22689 0.41150
#
# Static dielectric constant tensor:
#      x y z
#    x 3.185660 0.000000 0.000000 
#    y 0.000000 3.316400 0.000000 
#    z 0.000000 0.000000 3.266000 
# 
# 
# High freq. dielectric constant tensor:
#      x y z
#    x 1.663410 0.000000 0.000000 
#    y 0.000000 1.661150 0.000000 
#    z 0.000000 0.000000 1.650370 
# 
# From -- ./inp_files/50345.got.cif
#   From: 2010.03.12/outbox.cif.g09.slc.cpg/sg65_26_cif.got.tgz:50345.got - 2010.04.10 20:52:16.
