data_PCOD8267899
_publ_section_title
;
Structure prediction by ZEFSAII (Michael W. Deem and Ramdas Pophale) SiO2 
 PCOD8267899
Probable space group: C M M M
;
_chemical_formula_sum "Si O2"
_cell_formula_units_Z 88
_cell_length_a 9.126019
_cell_length_b 18.506662
_cell_length_c 28.240820
_cell_angle_alpha 90.000000
_cell_angle_beta 90.000000
_cell_angle_gamma 90.000000
_cell_volume 4769.652780
_symmetry_space_group_name_H-M "C M M M"
_symmetry_group_IT_number 65
_symmetry_cell_setting 'orthorhombic'
loop_
_space_group_symop_operation_xyz
x,y,z
-x,-y,z
x,-y,-z
-x,y,-z
-x,-y,-z
x,y,-z
-x,y,z
x,-y,z
1/2+x,1/2+y,z
1/2-x,1/2-y,z
1/2+x,1/2-y,-z
1/2-x,1/2+y,-z
1/2-x,1/2-y,-z
1/2+x,1/2+y,-z
1/2-x,1/2+y,z
1/2+x,1/2-y,z
loop_
_atom_site_type_symbol
_atom_site_label
_atom_site_fract_x
_atom_site_fract_y
_atom_site_fract_z
Si Si1 0.673628 0.918961 0.500000
Si Si2 0.174294 0.580542 0.677303
Si Si3 0.834816 0.914276 0.871485
Si Si4 0.663216 0.085973 0.781257
Si Si5 0.825757 0.326567 0.410487
Si Si6 0.670973 0.823337 0.054713
O O1 0.500000 0.924123 0.500000
O O2 0.727701 0.876664 0.546385
O O3 0.740304 0.000000 0.500000
O O4 0.237732 0.500000 0.667379
O O5 0.223691 0.609073 0.729336
O O6 0.231428 0.635812 0.637681
O O7 0.000000 0.575892 0.676024
O O8 0.769770 0.883761 0.822062
O O9 0.737154 0.888563 0.915256
O O10 0.000000 0.885116 0.876688
O O11 0.830625 0.000000 0.871791
O O12 0.500000 0.117388 0.789996
O O13 0.656330 0.000000 0.782798
O O14 0.750000 0.250000 0.415882
O O15 0.000000 0.316256 0.410646
O O16 0.500000 0.815456 0.065287
O O17 0.750000 0.750000 0.070396
O O18 0.701986 0.841002 0.000000
#
# Coordination Sequence:
#
# PCOD8267899 Si02
#       6
#     8  16  16  16  16  16
#     4   9  17  30  51  75  94 121 166 210 240 277
#     4   8  14  27  49  72  91 120 166 210 241 278
#     4  10  20  33  51  77 107 136 167 206 251 297
#     4   8  14  27  48  71  94 123 162 207 250 289
#     4  10  19  31  48  71 100 129 158 197 246 296
#     4  10  21  37  56  76 100 132 169 208 251 301
#
# _framework density 18.449981000000001
#
# number of rings (size 3 to 8) (size 9 to 14) (size 15 to 20)
#    0.000    2.818    0.000    3.000    0.000    4.727 
#    0.000    3.636    0.000    6.000    0.000    0.000 
#    0.000    0.000    0.000    0.000    0.000    0.000 
#
# Total GULP energy -545493.996943 kJ/mol
# GULP energy per Si atom -12397.590840 kJ/mol
# Density = 1.840799 g / cm^3
# Si number density = 18.449981 Si / 1000 Ang^3
#
#
#
# Elastic Constant Matrix: (Units=GPa)
#
#
# Indices 1 2 3 4 5 6 
#
# 1 72.2852 32.7848 53.8373 0.0000 0.0000 0.0000
# 2 32.7848 83.9291 57.6240 0.0000 0.0000 0.0000
# 3 53.8373 57.6240 144.0589 0.0000 0.0000 0.0000
# 4 0.0000 0.0000 0.0000 12.6793 0.0000 0.0000
# 5 0.0000 0.0000 0.0000 0.0000 16.3973 0.0000
# 6 0.0000 0.0000 0.0000 0.0000 0.0000 26.0737
#
#
#
# Elastic Compliance Matrix: (Units=1/GPa)
#
#
# Indices 1 2 3 4 5 6 
#
# 1 0.019965 -0.003689 -0.005986 0.000000 0.000000 0.000000
# 2 -0.003689 0.017108 -0.005464 0.000000 0.000000 0.000000
# 3 -0.005986 -0.005464 0.011364 0.000000 0.000000 0.000000
# 4 0.000000 0.000000 0.000000 0.078869 0.000000 0.000000
# 5 0.000000 0.000000 0.000000 0.000000 0.060986 0.000000
# 6 0.000000 0.000000 0.000000 0.000000 0.000000 0.038353
#
#
# Mechanical properties :
#
#
# Convention : Reuss Voigt Hill
#
# Bulk Modulus (GPa) = 55.07007 65.41837 60.24422
# Shear Modulus (GPa) = 19.01311 21.43186 20.22249
#
# Velocity S-wave (km/s) = 3.21366 3.41195 3.31429
# Velocity P-wave (km/s) = 6.60933 7.14535 6.88256
#
# Compressibility (1/GPa) = 0.01815869
#
# Stress axis : x y z
#
# Youngs Moduli (GPa) = 50.08649 58.45329 87.99480
#
# Poissons Ratio (x) = 0.21566 0.52671
# Poissons Ratio (y) = 0.18479 0.48083
# Poissons Ratio (z) = 0.29980 0.31941
#
# Static dielectric constant tensor:
#      x y z
#    x 3.240870 0.000000 0.000000 
#    y 0.000000 3.185360 0.000000 
#    z 0.000000 0.000000 3.773970 
# 
# 
# High freq. dielectric constant tensor:
#      x y z
#    x 1.687630 0.000000 0.000000 
#    y 0.000000 1.692680 0.000000 
#    z 0.000000 0.000000 1.733220 
# 
# From -- ./inp_files/76442.got.cif
#   From: 2010.03.12/outbox.cif.g09.slc.cpg/sg65_39_cif.got.tgz:76442.got - 2010.04.10 20:52:16.
