data_PCOD8267857
_publ_section_title
;
Structure prediction by ZEFSAII (Michael W. Deem and Ramdas Pophale) SiO2 
 PCOD8267857
Probable space group: C M M M
;
_chemical_formula_sum "Si O2"
_cell_formula_units_Z 88
_cell_length_a 8.777500
_cell_length_b 31.498012
_cell_length_c 17.168055
_cell_angle_alpha 90.000000
_cell_angle_beta 90.000000
_cell_angle_gamma 90.000000
_cell_volume 4746.517410
_symmetry_space_group_name_H-M "C M M M"
_symmetry_group_IT_number 65
_symmetry_cell_setting 'orthorhombic'
loop_
_space_group_symop_operation_xyz
x,y,z
-x,-y,z
x,-y,-z
-x,y,-z
-x,-y,-z
x,y,-z
-x,y,z
x,-y,z
1/2+x,1/2+y,z
1/2-x,1/2-y,z
1/2+x,1/2-y,-z
1/2-x,1/2+y,-z
1/2-x,1/2-y,-z
1/2+x,1/2+y,-z
1/2-x,1/2+y,z
1/2+x,1/2-y,z
loop_
_atom_site_type_symbol
_atom_site_label
_atom_site_fract_x
_atom_site_fract_y
_atom_site_fract_z
Si Si1 0.166965 0.048754 0.500000
Si Si2 0.818710 0.547462 0.911765
Si Si3 0.823422 0.813397 0.586844
Si Si4 0.319979 0.207718 0.745039
Si Si5 0.175752 0.383430 0.793764
Si Si6 0.824235 0.600444 0.619853
O O1 0.266284 0.058751 0.576661
O O2 0.000000 0.071394 0.500000
O O3 0.136688 0.000000 0.500000
O O4 0.760992 0.500000 0.887224
O O5 0.747378 0.585214 0.857879
O O6 0.000000 0.547905 0.904560
O O7 0.767360 0.557043 0.000000
O O8 0.790308 0.794617 0.500000
O O9 0.722972 0.790908 0.653392
O O10 0.779975 0.862572 0.585429
O O11 0.000000 0.807880 0.608869
O O12 0.500000 0.208899 0.751856
O O13 0.250000 0.250000 0.785355
O O14 0.255591 0.164806 0.787542
O O15 0.199063 0.406497 0.711529
O O16 0.000000 0.378128 0.815347
O O17 0.000000 0.610659 0.601209
#
# Coordination Sequence:
#
# PCOD8267857 Si02
#       6
#     8  16  16  16  16  16
#     4  11  23  35  45  61  90 127 168 215 261 305
#     4   8  13  23  43  72 104 133 158 190 240 302
#     4  10  19  31  49  69  92 123 159 202 254 305
#     4  10  20  33  48  67  95 130 170 213 253 296
#     4   8  16  29  45  69  98 129 162 200 247 298
#     4  10  19  31  48  67  91 125 167 210 251 297
#
# _framework density 18.539909000000002
#
# number of rings (size 3 to 8) (size 9 to 14) (size 15 to 20)
#    0.000    2.636    0.909    3.545    0.000    2.909 
#    0.000    1.818    0.000    0.545    0.000    0.000 
#    0.000   25.455    0.000   74.000    0.000   67.636 
#
# Total GULP energy -545123.959182 kJ/mol
# GULP energy per Si atom -12389.180891 kJ/mol
# Density = 1.849771 g / cm^3
# Si number density = 18.539909 Si / 1000 Ang^3
#
#
#
# Elastic Constant Matrix: (Units=GPa)
#
#
# Indices 1 2 3 4 5 6 
#
# 1 45.7572 25.8509 20.3967 0.0000 0.0000 0.0000
# 2 25.8509 137.4538 71.7876 0.0000 0.0000 0.0000
# 3 20.3967 71.7876 91.2064 0.0000 0.0000 0.0000
# 4 0.0000 0.0000 0.0000 10.6727 0.0000 0.0000
# 5 0.0000 0.0000 0.0000 0.0000 6.2529 0.0000
# 6 0.0000 0.0000 0.0000 0.0000 0.0000 22.0670
#
#
#
# Elastic Compliance Matrix: (Units=1/GPa)
#
#
# Indices 1 2 3 4 5 6 
#
# 1 0.024994 -0.003025 -0.003209 0.000000 0.000000 0.000000
# 2 -0.003025 0.012719 -0.009335 0.000000 0.000000 0.000000
# 3 -0.003209 -0.009335 0.019029 0.000000 0.000000 0.000000
# 4 0.000000 0.000000 0.000000 0.093697 0.000000 0.000000
# 5 0.000000 0.000000 0.000000 0.000000 0.159925 0.000000
# 6 0.000000 0.000000 0.000000 0.000000 0.000000 0.045317
#
#
# Mechanical properties :
#
#
# Convention : Reuss Voigt Hill
#
# Bulk Modulus (GPa) = 39.05401 56.72088 47.88745
# Shear Modulus (GPa) = 12.64696 18.22399 15.43548
#
# Velocity S-wave (km/s) = 2.61463 3.13862 2.88853
# Velocity P-wave (km/s) = 5.49778 6.61777 6.08361
#
# Compressibility (1/GPa) = 0.02560556
#
# Stress axis : x y z
#
# Youngs Moduli (GPa) = 40.01020 78.62060 52.55132
#
# Poissons Ratio (x) = 0.23781 0.16862
# Poissons Ratio (y) = 0.12102 0.49056
# Poissons Ratio (z) = 0.12838 0.73391
#
# Static dielectric constant tensor:
#      x y z
#    x 3.140490 0.000000 0.000000 
#    y 0.000000 3.734280 0.000000 
#    z 0.000000 0.000000 3.586910 
# 
# 
# High freq. dielectric constant tensor:
#      x y z
#    x 1.690250 0.000000 0.000000 
#    y 0.000000 1.724980 0.000000 
#    z 0.000000 0.000000 1.692040 
# 
# From -- ./inp_files/50316.got.cif
#   From: 2010.03.12/outbox.cif.g09.slc.cpg/sg65_26_cif.got.tgz:50316.got - 2010.04.10 20:52:16.
