data_PCOD8267065
_publ_section_title
;
Structure prediction by ZEFSAII (Michael W. Deem and Ramdas Pophale) SiO2 
 PCOD8267065
Probable space group: C M M M
;
_chemical_formula_sum "Si O2"
_cell_formula_units_Z 88
_cell_length_a 20.762470
_cell_length_b 31.823563
_cell_length_c 9.232203
_cell_angle_alpha 90.000000
_cell_angle_beta 90.000000
_cell_angle_gamma 90.000000
_cell_volume 6100.046777
_symmetry_space_group_name_H-M "C M M M"
_symmetry_group_IT_number 65
_symmetry_cell_setting 'orthorhombic'
loop_
_space_group_symop_operation_xyz
x,y,z
-x,-y,z
x,-y,-z
-x,y,-z
-x,-y,-z
x,y,-z
-x,y,z
x,-y,z
1/2+x,1/2+y,z
1/2-x,1/2-y,z
1/2+x,1/2-y,-z
1/2-x,1/2+y,-z
1/2-x,1/2-y,-z
1/2+x,1/2+y,-z
1/2-x,1/2+y,z
1/2+x,1/2-y,z
loop_
_atom_site_type_symbol
_atom_site_label
_atom_site_fract_x
_atom_site_fract_y
_atom_site_fract_z
Si Si1 0.000000 0.549433 0.162087
Si Si2 0.313499 0.120228 0.829279
Si Si3 0.764859 0.817326 0.336286
Si Si4 0.072358 0.682213 0.168340
Si Si5 0.146250 0.254294 0.337746
Si Si6 0.627342 0.048955 0.330506
O O1 0.937917 0.563585 0.251431
O O2 0.000000 0.500000 0.143603
O O3 0.000000 0.570300 0.000000
O O4 0.249705 0.144473 0.773627
O O5 0.377918 0.145914 0.784979
O O6 0.316044 0.075818 0.744610
O O7 0.307967 0.112444 0.000000
O O8 0.773928 0.834571 0.500000
O O9 0.828923 0.791825 0.285336
O O10 0.705804 0.785654 0.332336
O O11 0.089148 0.727167 0.240115
O O12 0.000000 0.668314 0.213136
O O13 0.077993 0.690590 0.000000
O O14 0.119403 0.250479 0.500000
O O15 0.621492 0.059345 0.500000
O O16 0.642264 0.000000 0.305185
#
# Coordination Sequence:
#
# PCOD8267065 Si02
#       6
#     8  16  16  16  16  16
#     4   9  17  29  43  55  67  87 117 153 191 231
#     4  10  19  28  41  58  75  98 128 161 196 233
#     4   8  14  26  41  56  75  94 118 154 192 226
#     4   9  18  29  38  53  78 103 125 155 194 230
#     4   8  14  25  41  57  72  95 123 152 186 225
#     4  10  20  32  43  55  72  95 125 159 197 238
#
# _framework density 14.426119
#
# number of rings (size 3 to 8) (size 9 to 14) (size 15 to 20)
#    0.000    3.000    0.000    2.455    1.273    4.000 
#    0.000    3.636    0.000    0.000    0.000    0.000 
#    0.000    0.000    0.000    0.000    0.000    0.909 
#
# Total GULP energy -545297.910047 kJ/mol
# GULP energy per Si atom -12393.134319 kJ/mol
# Density = 1.439328 g / cm^3
# Si number density = 14.426119 Si / 1000 Ang^3
#
#
#
# Elastic Constant Matrix: (Units=GPa)
#
#
# Indices 1 2 3 4 5 6 
#
# 1 16.2796 17.8831 14.8193 0.0000 0.0000 0.0000
# 2 17.8831 65.8946 42.7690 0.0000 0.0000 0.0000
# 3 14.8193 42.7690 77.5543 0.0000 0.0000 0.0000
# 4 0.0000 0.0000 0.0000 23.8493 0.0000 0.0000
# 5 0.0000 0.0000 0.0000 0.0000 19.1256 0.0000
# 6 0.0000 0.0000 0.0000 0.0000 0.0000 22.8657
#
#
#
# Elastic Compliance Matrix: (Units=1/GPa)
#
#
# Indices 1 2 3 4 5 6 
#
# 1 0.089134 -0.020458 -0.005750 0.000000 0.000000 0.000000
# 2 -0.020458 0.028331 -0.011715 0.000000 0.000000 0.000000
# 3 -0.005750 -0.011715 0.020453 0.000000 0.000000 0.000000
# 4 0.000000 0.000000 0.000000 0.041930 0.000000 0.000000
# 5 0.000000 0.000000 0.000000 0.000000 0.052286 0.000000
# 6 0.000000 0.000000 0.000000 0.000000 0.000000 0.043734
#
#
# Mechanical properties :
#
#
# Convention : Reuss Voigt Hill
#
# Bulk Modulus (GPa) = 16.11009 34.51903 25.31456
# Shear Modulus (GPa) = 13.42629 18.78527 16.10578
#
# Velocity S-wave (km/s) = 3.05404 3.61248 3.34493
# Velocity P-wave (km/s) = 4.86084 6.43273 5.70122
#
# Compressibility (1/GPa) = 0.06207289
#
# Stress axis : x y z
#
# Youngs Moduli (GPa) = 11.21912 35.29669 48.89201
#
# Poissons Ratio (x) = 0.72210 0.28113
# Poissons Ratio (y) = 0.22952 0.57276
# Poissons Ratio (z) = 0.06451 0.41349
#
# Static dielectric constant tensor:
#      x y z
#    x 2.691310 0.000000 0.000000 
#    y 0.000000 2.859480 0.000000 
#    z 0.000000 0.000000 2.920230 
# 
# 
# High freq. dielectric constant tensor:
#      x y z
#    x 1.498100 0.000000 0.000000 
#    y 0.000000 1.534800 0.000000 
#    z 0.000000 0.000000 1.561570 
# 
# From -- ./inp_files/14930.got.cif
#   From: 2010.03.12/outbox.cif.g09.slc.cpg/sg65_8_cif.got.tgz:14930.got - 2010.04.10 20:52:16.
