data_PCOD8267881
_publ_section_title
;
Structure prediction by ZEFSAII (Michael W. Deem and Ramdas Pophale) SiO2 
 PCOD8267881
Probable space group: C M M M
;
_chemical_formula_sum "Si O2"
_cell_formula_units_Z 72
_cell_length_a 27.074624
_cell_length_b 9.237205
_cell_length_c 16.061202
_cell_angle_alpha 90.000000
_cell_angle_beta 90.000000
_cell_angle_gamma 90.000000
_cell_volume 4016.807879
_symmetry_space_group_name_H-M "C M M M"
_symmetry_group_IT_number 65
_symmetry_cell_setting 'orthorhombic'
loop_
_space_group_symop_operation_xyz
x,y,z
-x,-y,z
x,-y,-z
-x,y,-z
-x,-y,-z
x,y,-z
-x,y,z
x,-y,z
1/2+x,1/2+y,z
1/2-x,1/2-y,z
1/2+x,1/2-y,-z
1/2-x,1/2+y,-z
1/2-x,1/2-y,-z
1/2+x,1/2+y,-z
1/2-x,1/2+y,z
1/2+x,1/2-y,z
loop_
_atom_site_type_symbol
_atom_site_label
_atom_site_fract_x
_atom_site_fract_y
_atom_site_fract_z
Si Si1 0.801963 0.670897 0.500000
Si Si2 0.886976 0.834322 0.092872
Si Si3 0.055590 0.169567 0.254780
Si Si4 0.141934 0.332131 0.334728
Si Si5 0.699233 0.830857 0.168589
O O1 0.791946 0.500000 0.500000
O O2 0.750000 0.750000 0.500000
O O3 0.833143 0.720363 0.419924
O O4 0.928787 0.792501 0.159976
O O5 0.839938 0.730855 0.102926
O O6 0.869846 0.000000 0.106694
O O7 0.908830 0.812341 0.000000
O O8 0.091026 0.246740 0.321151
O O9 0.000000 0.226799 0.267789
O O10 0.058954 0.000000 0.271661
O O11 0.128095 0.500000 0.337772
O O12 0.180613 0.297904 0.261697
O O13 0.750000 0.750000 0.153537
O O14 0.706621 0.000000 0.152311
#
# Coordination Sequence:
#
# PCOD8267881 Si02
#       5
#     8  16  16  16  16
#     4  10  20  34  53  78 105 131 162 199 239 284
#     4   9  18  32  49  70  96 125 159 200 244 289
#     4   9  18  33  53  75  98 126 161 201 244 288
#     4   9  19  34  51  73 100 129 162 199 239 287
#     4  10  19  31  48  69  95 128 163 198 239 288
#
# _framework density 17.924681
#
# number of rings (size 3 to 8) (size 9 to 14) (size 15 to 20)
#    0.000    2.667    0.000    1.333    0.000    3.556 
#    0.000    2.778    0.000    3.333    0.000    6.222 
#    0.000    0.000    0.000    0.000    0.000    0.000 
#
# Total GULP energy -446447.359566 kJ/mol
# GULP energy per Si atom -12401.315544 kJ/mol
# Density = 1.788388 g / cm^3
# Si number density = 17.924681 Si / 1000 Ang^3
#
#
#
# Elastic Constant Matrix: (Units=GPa)
#
#
# Indices 1 2 3 4 5 6 
#
# 1 146.4510 54.6276 52.2180 0.0000 0.0000 0.0000
# 2 54.6276 59.2872 29.3424 0.0000 0.0000 0.0000
# 3 52.2180 29.3424 109.1520 0.0000 0.0000 0.0000
# 4 0.0000 0.0000 0.0000 24.5646 0.0000 0.0000
# 5 0.0000 0.0000 0.0000 0.0000 17.1935 0.0000
# 6 0.0000 0.0000 0.0000 0.0000 0.0000 32.2449
#
#
#
# Elastic Compliance Matrix: (Units=1/GPa)
#
#
# Indices 1 2 3 4 5 6 
#
# 1 0.011184 -0.008832 -0.002976 0.000000 0.000000 0.000000
# 2 -0.008832 0.026430 -0.002880 0.000000 0.000000 0.000000
# 3 -0.002976 -0.002880 0.011359 0.000000 0.000000 0.000000
# 4 0.000000 0.000000 0.000000 0.040709 0.000000 0.000000
# 5 0.000000 0.000000 0.000000 0.000000 0.058161 0.000000
# 6 0.000000 0.000000 0.000000 0.000000 0.000000 0.031013
#
#
# Mechanical properties :
#
#
# Convention : Reuss Voigt Hill
#
# Bulk Modulus (GPa) = 51.02635 65.25178 58.13907
# Shear Modulus (GPa) = 23.28134 26.71409 24.99772
#
# Velocity S-wave (km/s) = 3.60786 3.86470 3.73848
# Velocity P-wave (km/s) = 6.77380 7.50978 7.15127
#
# Compressibility (1/GPa) = 0.01959772
#
# Stress axis : x y z
#
# Youngs Moduli (GPa) = 89.41572 37.83575 88.03254
#
# Poissons Ratio (x) = 0.33416 0.26199
# Poissons Ratio (y) = 0.78970 0.25352
# Poissons Ratio (z) = 0.26611 0.10896
#
# Static dielectric constant tensor:
#      x y z
#    x 3.265190 0.000000 0.000000 
#    y 0.000000 3.295750 0.000000 
#    z 0.000000 0.000000 3.373550 
# 
# 
# High freq. dielectric constant tensor:
#      x y z
#    x 1.688090 0.000000 0.000000 
#    y 0.000000 1.691740 0.000000 
#    z 0.000000 0.000000 1.690840 
# 
# From -- ./inp_files/36528.got.cif
#   From: 2010.03.12/outbox.cif.g09.slc.cpg/sg65_19_cif.got.tgz:36528.got - 2010.04.10 20:52:16.
