data_PCOD8267784
_publ_section_title
;
Structure prediction by ZEFSAII (Michael W. Deem and Ramdas Pophale) SiO2 
 PCOD8267784
Probable space group: C M M M
;
_chemical_formula_sum "Si O2"
_cell_formula_units_Z 96
_cell_length_a 9.252145
_cell_length_b 27.020778
_cell_length_c 23.689928
_cell_angle_alpha 90.000000
_cell_angle_beta 90.000000
_cell_angle_gamma 90.000000
_cell_volume 5922.485697
_symmetry_space_group_name_H-M "C M M M"
_symmetry_group_IT_number 65
_symmetry_cell_setting 'orthorhombic'
loop_
_space_group_symop_operation_xyz
x,y,z
-x,-y,z
x,-y,-z
-x,y,-z
-x,-y,-z
x,y,-z
-x,y,z
x,-y,z
1/2+x,1/2+y,z
1/2-x,1/2-y,z
1/2+x,1/2-y,-z
1/2-x,1/2+y,-z
1/2-x,1/2-y,-z
1/2+x,1/2+y,-z
1/2-x,1/2+y,z
1/2+x,1/2-y,z
loop_
_atom_site_type_symbol
_atom_site_label
_atom_site_fract_x
_atom_site_fract_y
_atom_site_fract_z
Si Si1 0.667917 0.387735 0.277708
Si Si2 0.332140 0.142014 0.112093
Si Si3 0.667918 0.442972 0.391432
Si Si4 0.330237 0.801150 0.225306
Si Si5 0.670502 0.198176 0.000000
Si Si6 0.168379 0.944055 0.164725
Si Si7 0.336576 0.058892 0.500000
O O1 0.500000 0.372183 0.276598
O O2 0.712469 0.412477 0.336397
O O3 0.766786 0.339501 0.270698
O O4 0.701814 0.426912 0.228389
O O5 0.500000 0.128948 0.110466
O O6 0.295378 0.179675 0.162524
O O7 0.280036 0.167346 0.054529
O O8 0.248823 0.090463 0.119613
O O9 0.500000 0.437005 0.405821
O O10 0.707101 0.500000 0.379877
O O11 0.756977 0.421050 0.444136
O O12 0.500000 0.794387 0.235595
O O13 0.250000 0.750000 0.234662
O O14 0.750000 0.250000 0.000000
O O15 0.500000 0.208256 0.000000
O O16 0.000000 0.940626 0.151328
O O17 0.225301 0.000000 0.157905
O O18 0.500000 0.078624 0.500000
O O19 0.328870 0.000000 0.500000
#
# Coordination Sequence:
#
# PCOD8267784 Si02
#       7
#    16  16  16  16   8  16   8
#     4   9  17  29  46  68  92 118 150 187 226 266
#     4   9  19  33  48  68  92 118 149 184 224 272
#     4   9  16  27  44  65  90 121 155 187 219 260
#     4  10  19  31  47  67  91 117 146 182 226 273
#     4  10  20  34  51  70  91 115 148 189 231 274
#     4   9  17  30  48  69  93 121 152 186 223 264
#     4   9  17  27  39  59  90 125 156 187 223 259
#
# _framework density 16.209409999999998
#
# number of rings (size 3 to 8) (size 9 to 14) (size 15 to 20)
#    0.000    2.750    0.000    1.750    0.000    5.333 
#    0.000    0.417    0.000    5.500    0.000    0.583 
#    0.000    0.000    0.000    0.000    0.000    0.000 
#
# Total GULP energy -595281.466793 kJ/mol
# GULP energy per Si atom -12401.697225 kJ/mol
# Density = 1.617252 g / cm^3
# Si number density = 16.209410 Si / 1000 Ang^3
#
#
#
# Elastic Constant Matrix: (Units=GPa)
#
#
# Indices 1 2 3 4 5 6 
#
# 1 70.6124 62.5160 55.3160 0.0000 0.0000 0.0000
# 2 62.5160 130.8695 67.0202 0.0000 0.0000 0.0000
# 3 55.3160 67.0202 130.2001 0.0000 0.0000 0.0000
# 4 0.0000 0.0000 0.0000 19.5081 0.0000 0.0000
# 5 0.0000 0.0000 0.0000 0.0000 24.5456 0.0000
# 6 0.0000 0.0000 0.0000 0.0000 0.0000 29.5234
#
#
#
# Elastic Compliance Matrix: (Units=1/GPa)
#
#
# Indices 1 2 3 4 5 6 
#
# 1 0.028501 -0.010068 -0.006926 0.000000 0.000000 0.000000
# 2 -0.010068 0.013933 -0.002895 0.000000 0.000000 0.000000
# 3 -0.006926 -0.002895 0.012113 0.000000 0.000000 0.000000
# 4 0.000000 0.000000 0.000000 0.051261 0.000000 0.000000
# 5 0.000000 0.000000 0.000000 0.000000 0.040740 0.000000
# 6 0.000000 0.000000 0.000000 0.000000 0.000000 0.033871
#
#
# Mechanical properties :
#
#
# Convention : Reuss Voigt Hill
#
# Bulk Modulus (GPa) = 67.70651 77.93182 72.81916
# Shear Modulus (GPa) = 22.21023 24.50405 23.35714
#
# Velocity S-wave (km/s) = 3.70565 3.89230 3.80012
# Velocity P-wave (km/s) = 7.75691 8.26937 8.01724
#
# Compressibility (1/GPa) = 0.01476963
#
# Stress axis : x y z
#
# Youngs Moduli (GPa) = 35.08605 71.77226 82.55441
#
# Poissons Ratio (x) = 0.72259 0.57181
# Poissons Ratio (y) = 0.35324 0.23896
# Poissons Ratio (z) = 0.24302 0.20775
#
# Static dielectric constant tensor:
#      x y z
#    x 3.066090 0.000000 0.000000 
#    y 0.000000 2.960330 0.000000 
#    z 0.000000 0.000000 3.112220 
# 
# 
# High freq. dielectric constant tensor:
#      x y z
#    x 1.625110 0.000000 0.000000 
#    y 0.000000 1.607600 0.000000 
#    z 0.000000 0.000000 1.617300 
# 
# From -- ./inp_files/67900.got.cif
#   From: 2010.03.12/outbox.cif.g09.slc.cpg/sg65_34_cif.got.tgz:67900.got - 2010.04.10 20:52:16.
