data_PCOD8267528
_publ_section_title
;
Structure prediction by ZEFSAII (Michael W. Deem and Ramdas Pophale) SiO2 
 PCOD8267528
Probable space group: C M M M
;
_chemical_formula_sum "Si O2"
_cell_formula_units_Z 104
_cell_length_a 9.606374
_cell_length_b 25.987027
_cell_length_c 23.328529
_cell_angle_alpha 90.000000
_cell_angle_beta 90.000000
_cell_angle_gamma 90.000000
_cell_volume 5823.759653
_symmetry_space_group_name_H-M "C M M M"
_symmetry_group_IT_number 65
_symmetry_cell_setting 'orthorhombic'
loop_
_space_group_symop_operation_xyz
x,y,z
-x,-y,z
x,-y,-z
-x,y,-z
-x,-y,-z
x,y,-z
-x,y,z
x,-y,z
1/2+x,1/2+y,z
1/2-x,1/2-y,z
1/2+x,1/2-y,-z
1/2-x,1/2+y,-z
1/2-x,1/2-y,-z
1/2+x,1/2+y,-z
1/2-x,1/2+y,z
1/2+x,1/2-y,z
loop_
_atom_site_type_symbol
_atom_site_label
_atom_site_fract_x
_atom_site_fract_y
_atom_site_fract_z
Si Si1 0.339545 0.597056 0.432517
Si Si2 0.837914 0.200270 0.236052
Si Si3 0.349064 0.710036 0.936859
Si Si4 0.840325 0.500000 0.568139
Si Si5 0.160939 0.200715 0.630946
Si Si6 0.155423 0.439431 0.936472
Si Si7 0.153787 0.882034 0.145663
O O1 0.322192 0.604248 0.500000
O O2 0.500000 0.584245 0.416586
O O3 0.241487 0.550740 0.409699
O O4 0.290524 0.650200 0.403437
O O5 0.750000 0.250000 0.216736
O O6 0.812816 0.188637 0.302565
O O7 0.789470 0.149084 0.201424
O O8 0.000000 0.211467 0.221905
O O9 0.500000 0.736090 0.939825
O O10 0.250000 0.750000 0.903328
O O11 0.358023 0.656531 0.906442
O O12 0.287266 0.699481 0.000000
O O13 0.839068 0.500000 0.500000
O O14 0.000000 0.500000 0.591115
O O15 0.250000 0.250000 0.610516
O O16 0.000000 0.213456 0.618444
O O17 0.149686 0.500000 0.935780
O O18 0.243667 0.424767 0.879621
O O19 0.000000 0.416624 0.928815
O O20 0.213391 0.422057 0.000000
O O21 0.000000 0.905539 0.159025
#
# Coordination Sequence:
#
# PCOD8267528 Si02
#       7
#    16  16  16   8  16  16  16
#     4   9  17  30  49  72  99 133 171 207 248 303
#     4   9  18  32  49  70  96 126 161 197 234 280
#     4   9  17  27  38  57  86 113 136 167 208 254
#     4   9  17  29  47  73 101 127 159 203 250 293
#     4   9  18  32  49  70  99 133 168 207 250 296
#     4   9  19  35  52  70  92 118 150 189 234 285
#     4  10  19  30  47  69  91 116 150 190 228 271
#
# _framework density 17.857880999999999
#
# number of rings (size 3 to 8) (size 9 to 14) (size 15 to 20)
#    0.000    2.846    0.000    1.615    0.000    4.308 
#    0.000    2.308    1.692    0.000    0.000    0.000 
#    0.000    0.000    0.000    0.000    0.000    0.000 
#
# Total GULP energy -644281.263812 kJ/mol
# GULP energy per Si atom -12390.024304 kJ/mol
# Density = 1.781724 g / cm^3
# Si number density = 17.857881 Si / 1000 Ang^3
#
#
#
# Elastic Constant Matrix: (Units=GPa)
#
#
# Indices 1 2 3 4 5 6 
#
# 1 80.4654 56.2522 27.8850 0.0000 0.0000 0.0000
# 2 56.2522 101.5023 38.8255 0.0000 0.0000 0.0000
# 3 27.8850 38.8255 52.6626 0.0000 0.0000 0.0000
# 4 0.0000 0.0000 0.0000 32.1991 0.0000 0.0000
# 5 0.0000 0.0000 0.0000 0.0000 18.8489 0.0000
# 6 0.0000 0.0000 0.0000 0.0000 0.0000 33.2246
#
#
#
# Elastic Compliance Matrix: (Units=1/GPa)
#
#
# Indices 1 2 3 4 5 6 
#
# 1 0.020739 -0.010157 -0.003493 0.000000 0.000000 0.000000
# 2 -0.010157 0.018696 -0.008405 0.000000 0.000000 0.000000
# 3 -0.003493 -0.008405 0.027035 0.000000 0.000000 0.000000
# 4 0.000000 0.000000 0.000000 0.031057 0.000000 0.000000
# 5 0.000000 0.000000 0.000000 0.000000 0.053053 0.000000
# 6 0.000000 0.000000 0.000000 0.000000 0.000000 0.030098
#
#
# Mechanical properties :
#
#
# Convention : Reuss Voigt Hill
#
# Bulk Modulus (GPa) = 44.72449 53.39508 49.05979
# Shear Modulus (GPa) = 21.52911 24.29902 22.91407
#
# Velocity S-wave (km/s) = 3.47591 3.69275 3.58597
# Velocity P-wave (km/s) = 6.41937 6.93879 6.68413
#
# Compressibility (1/GPa) = 0.02235911
#
# Stress axis : x y z
#
# Youngs Moduli (GPa) = 48.21813 53.48621 36.98878
#
# Poissons Ratio (x) = 0.54329 0.12920
# Poissons Ratio (y) = 0.48978 0.31091
# Poissons Ratio (z) = 0.16842 0.44958
#
# Static dielectric constant tensor:
#      x y z
#    x -26.980490 0.000000 0.000000 
#    y 0.000000 3.178900 0.000000 
#    z 0.000000 0.000000 3.249030 
# 
# 
# High freq. dielectric constant tensor:
#      x y z
#    x 1.689650 0.000000 0.000000 
#    y 0.000000 1.677780 0.000000 
#    z 0.000000 0.000000 1.674880 
# 
# From -- ./inp_files/68146.got.cif
#   From: 2010.03.12/outbox.cif.g09.slc.cpg/sg65_35_cif.got.tgz:68146.got - 2010.04.10 20:52:16.
