data_PCOD8267086
_publ_section_title
;
Structure prediction by ZEFSAII (Michael W. Deem and Ramdas Pophale) SiO2 
 PCOD8267086
Probable space group: C M M M
;
_chemical_formula_sum "Si O2"
_cell_formula_units_Z 72
_cell_length_a 21.928647
_cell_length_b 14.492832
_cell_length_c 13.548072
_cell_angle_alpha 90.000000
_cell_angle_beta 90.000000
_cell_angle_gamma 90.000000
_cell_volume 4305.688335
_symmetry_space_group_name_H-M "C M M M"
_symmetry_group_IT_number 65
_symmetry_cell_setting 'orthorhombic'
loop_
_space_group_symop_operation_xyz
x,y,z
-x,-y,z
x,-y,-z
-x,y,-z
-x,-y,-z
x,y,-z
-x,y,z
x,-y,z
1/2+x,1/2+y,z
1/2-x,1/2-y,z
1/2+x,1/2-y,-z
1/2-x,1/2+y,-z
1/2-x,1/2-y,-z
1/2+x,1/2+y,-z
1/2-x,1/2+y,z
1/2+x,1/2-y,z
loop_
_atom_site_type_symbol
_atom_site_label
_atom_site_fract_x
_atom_site_fract_y
_atom_site_fract_z
Si Si1 0.115011 0.711280 0.613886
Si Si2 0.231273 0.395881 0.386908
Si Si3 0.360381 0.605094 0.298077
Si Si4 0.067902 0.108813 0.108472
Si Si5 0.000000 0.395558 0.618126
O O1 0.114201 0.687182 0.500000
O O2 0.179549 0.672907 0.654944
O O3 0.107620 0.821104 0.629803
O O4 0.058909 0.656572 0.663020
O O5 0.251281 0.370683 0.500000
O O6 0.205462 0.500000 0.384824
O O7 0.287998 0.386759 0.312605
O O8 0.382226 0.500000 0.322563
O O9 0.380325 0.636279 0.187915
O O10 0.000000 0.144689 0.139365
O O11 0.065313 0.000000 0.101213
O O12 0.085476 0.149087 0.000000
O O13 0.000000 0.500000 0.656857
O O14 0.000000 0.391496 0.500000
#
# Coordination Sequence:
#
# PCOD8267086 Si02
#       5
#    16  16  16  16   8
#     4  10  19  30  45  65  92 125 158 190 223 263
#     4   9  17  30  47  65  88 124 164 194 221 258
#     4  10  19  28  44  69  96 120 146 183 225 275
#     4   8  15  29  47  64  85 117 153 185 221 268
#     4   9  18  32  47  63  84 115 159 203 229 246
#
# _framework density 16.722065000000001
#
# number of rings (size 3 to 8) (size 9 to 14) (size 15 to 20)
#    0.000    2.778    0.000    2.667    1.556    5.778 
#    0.000    0.000    0.000    4.667    0.000    0.000 
#    0.000    3.556    0.000    0.000    0.000    0.444 
#
# Total GULP energy -446034.363289 kJ/mol
# GULP energy per Si atom -12389.843425 kJ/mol
# Density = 1.668400 g / cm^3
# Si number density = 16.722065 Si / 1000 Ang^3
#
#
#
# Elastic Constant Matrix: (Units=GPa)
#
#
# Indices 1 2 3 4 5 6 
#
# 1 112.6892 44.7605 51.0365 0.0000 0.0000 0.0000
# 2 44.7605 101.6476 12.7952 0.0000 0.0000 0.0000
# 3 51.0365 12.7952 52.0789 0.0000 0.0000 0.0000
# 4 0.0000 0.0000 0.0000 8.9186 0.0000 0.0000
# 5 0.0000 0.0000 0.0000 0.0000 13.7400 0.0000
# 6 0.0000 0.0000 0.0000 0.0000 0.0000 22.6021
#
#
#
# Elastic Compliance Matrix: (Units=1/GPa)
#
#
# Indices 1 2 3 4 5 6 
#
# 1 0.019181 -0.006274 -0.017256 0.000000 0.000000 0.000000
# 2 -0.006274 0.012204 0.003150 0.000000 0.000000 0.000000
# 3 -0.017256 0.003150 0.035338 0.000000 0.000000 0.000000
# 4 0.000000 0.000000 0.000000 0.112126 0.000000 0.000000
# 5 0.000000 0.000000 0.000000 0.000000 0.072780 0.000000
# 6 0.000000 0.000000 0.000000 0.000000 0.000000 0.044244
#
#
# Mechanical properties :
#
#
# Convention : Reuss Voigt Hill
#
# Bulk Modulus (GPa) = 38.51502 53.73334 46.12418
# Shear Modulus (GPa) = 14.48071 19.57371 17.02721
#
# Velocity S-wave (km/s) = 2.94592 3.42502 3.19446
# Velocity P-wave (km/s) = 5.88674 6.91693 6.42252
#
# Compressibility (1/GPa) = 0.02596390
#
# Stress axis : x y z
#
# Youngs Moduli (GPa) = 52.13444 81.93867 28.29820
#
# Poissons Ratio (x) = 0.51411 0.48831
# Poissons Ratio (y) = 0.32711 -0.08915
# Poissons Ratio (z) = 0.89962 -0.25813
#
# Static dielectric constant tensor:
#      x y z
#    x 3.324840 0.000000 0.000000 
#    y 0.000000 3.156500 0.000000 
#    z 0.000000 0.000000 3.061380 
# 
# 
# High freq. dielectric constant tensor:
#      x y z
#    x 1.646000 0.000000 0.000000 
#    y 0.000000 1.639620 0.000000 
#    z 0.000000 0.000000 1.592930 
# 
# From -- ./inp_files/40000.got.cif
#   From: 2010.03.12/outbox.cif.g09.slc.cpg/sg65_20_cif.got.tgz:40000.got - 2010.04.10 20:52:16.
