data_PCOD8267416
_publ_section_title
;
Structure prediction by ZEFSAII (Michael W. Deem and Ramdas Pophale) SiO2 
 PCOD8267416
Probable space group: C M M M
;
_chemical_formula_sum "Si O2"
_cell_formula_units_Z 56
_cell_length_a 19.015523
_cell_length_b 9.250653
_cell_length_c 19.567574
_cell_angle_alpha 90.000000
_cell_angle_beta 90.000000
_cell_angle_gamma 90.000000
_cell_volume 3442.053768
_symmetry_space_group_name_H-M "C M M M"
_symmetry_group_IT_number 65
_symmetry_cell_setting 'orthorhombic'
loop_
_space_group_symop_operation_xyz
x,y,z
-x,-y,z
x,-y,-z
-x,y,-z
-x,-y,-z
x,y,-z
-x,y,z
x,-y,z
1/2+x,1/2+y,z
1/2-x,1/2-y,z
1/2+x,1/2-y,-z
1/2-x,1/2+y,-z
1/2-x,1/2-y,-z
1/2+x,1/2+y,-z
1/2-x,1/2+y,z
1/2+x,1/2-y,z
loop_
_atom_site_type_symbol
_atom_site_label
_atom_site_fract_x
_atom_site_fract_y
_atom_site_fract_z
Si Si1 0.676112 0.172240 0.803025
Si Si2 0.500000 0.670104 0.578563
Si Si3 0.577138 0.838527 0.317956
Si Si4 0.421564 0.828478 0.076005
O O1 0.750000 0.250000 0.801750
O O2 0.634160 0.221137 0.735209
O O3 0.633559 0.231572 0.868715
O O4 0.685620 0.000000 0.805490
O O5 0.500000 0.500000 0.587779
O O6 0.500000 0.717156 0.500000
O O7 0.429702 0.735660 0.615022
O O8 0.500000 0.842465 0.281231
O O9 0.598030 0.000000 0.342118
O O10 0.500000 0.768098 0.091171
O O11 0.423711 0.000000 0.080558
O O12 0.397454 0.779454 0.000000
#
# Coordination Sequence:
#
# PCOD8267416 Si02
#       4
#    16   8  16  16
#     4  10  19  30  45  67  96 126 158 195 233 274
#     4   9  17  29  49  77 100 115 140 186 235 275
#     4   8  16  30  48  68  91 122 156 190 222 266
#     4   8  14  26  46  68  88 117 160 203 236 270
#
# _framework density 16.269355000000001
#
# number of rings (size 3 to 8) (size 9 to 14) (size 15 to 20)
#    0.857    2.429    0.000    1.714    0.000    6.286 
#    0.000    0.000    0.000    0.857    0.000    2.000 
#    0.000    0.000    0.000    0.000    0.000    0.000 
#
# Total GULP energy -346867.619804 kJ/mol
# GULP energy per Si atom -12388.129279 kJ/mol
# Density = 1.623233 g / cm^3
# Si number density = 16.269355 Si / 1000 Ang^3
#
#
#
# Elastic Constant Matrix: (Units=GPa)
#
#
# Indices 1 2 3 4 5 6 
#
# 1 108.5286 33.3710 79.9881 0.0000 0.0000 0.0000
# 2 33.3710 39.1174 51.0820 0.0000 0.0000 0.0000
# 3 79.9881 51.0820 156.2004 0.0000 0.0000 0.0000
# 4 0.0000 0.0000 0.0000 16.8302 0.0000 0.0000
# 5 0.0000 0.0000 0.0000 0.0000 9.7658 0.0000
# 6 0.0000 0.0000 0.0000 0.0000 0.0000 26.1408
#
#
#
# Elastic Compliance Matrix: (Units=1/GPa)
#
#
# Indices 1 2 3 4 5 6 
#
# 1 0.015326 -0.004932 -0.006235 0.000000 0.000000 0.000000
# 2 -0.004932 0.046206 -0.012585 0.000000 0.000000 0.000000
# 3 -0.006235 -0.012585 0.013711 0.000000 0.000000 0.000000
# 4 0.000000 0.000000 0.000000 0.059417 0.000000 0.000000
# 5 0.000000 0.000000 0.000000 0.000000 0.102399 0.000000
# 6 0.000000 0.000000 0.000000 0.000000 0.000000 0.038254
#
#
# Mechanical properties :
#
#
# Convention : Reuss Voigt Hill
#
# Bulk Modulus (GPa) = 36.05182 70.30319 53.17750
# Shear Modulus (GPa) = 15.05731 19.84104 17.44918
#
# Velocity S-wave (km/s) = 3.04551 3.49597 3.27848
# Velocity P-wave (km/s) = 5.87999 7.72021 6.86206
#
# Compressibility (1/GPa) = 0.02773785
#
# Stress axis : x y z
#
# Youngs Moduli (GPa) = 65.24671 21.64217 72.93545
#
# Poissons Ratio (x) = 0.10675 0.45479
# Poissons Ratio (y) = 0.32182 0.91789
# Poissons Ratio (z) = 0.40684 0.27237
#
# Static dielectric constant tensor:
#      x y z
#    x 2.959510 0.000000 0.000000 
#    y 0.000000 2.718660 0.000000 
#    z 0.000000 0.000000 3.144410 
# 
# 
# High freq. dielectric constant tensor:
#      x y z
#    x 1.607390 0.000000 0.000000 
#    y 0.000000 1.594260 0.000000 
#    z 0.000000 0.000000 1.624630 
# 
# From -- ./inp_files/64222.got.cif
#   From: 2010.03.12/outbox.cif.g09.slc.cpg/sg65_33_cif.got.tgz:64222.got - 2010.04.10 20:52:16.
