data_PCOD8267393
_publ_section_title
;
Structure prediction by ZEFSAII (Michael W. Deem and Ramdas Pophale) SiO2 
 PCOD8267393
Probable space group: C M M M
;
_chemical_formula_sum "Si O2"
_cell_formula_units_Z 120
_cell_length_a 26.532546
_cell_length_b 9.293131
_cell_length_c 28.341832
_cell_angle_alpha 90.000000
_cell_angle_beta 90.000000
_cell_angle_gamma 90.000000
_cell_volume 6988.257583
_symmetry_space_group_name_H-M "C M M M"
_symmetry_group_IT_number 65
_symmetry_cell_setting 'orthorhombic'
loop_
_space_group_symop_operation_xyz
x,y,z
-x,-y,z
x,-y,-z
-x,y,-z
-x,-y,-z
x,y,-z
-x,y,z
x,-y,z
1/2+x,1/2+y,z
1/2-x,1/2-y,z
1/2+x,1/2-y,-z
1/2-x,1/2+y,-z
1/2-x,1/2-y,-z
1/2+x,1/2+y,-z
1/2-x,1/2+y,z
1/2+x,1/2-y,z
loop_
_atom_site_type_symbol
_atom_site_label
_atom_site_fract_x
_atom_site_fract_y
_atom_site_fract_z
Si Si1 0.349441 0.833133 0.690328
Si Si2 0.801283 0.330564 0.890286
Si Si3 0.798706 0.334474 0.783672
Si Si4 0.000000 0.835491 0.943918
Si Si5 0.901185 0.333246 0.944648
Si Si6 0.055586 0.665061 0.366115
Si Si7 0.102645 0.166647 0.553176
Si Si8 0.202040 0.832624 0.610281
O O1 0.343377 0.802463 0.746259
O O2 0.406077 0.789266 0.675363
O O3 0.310945 0.735545 0.661014
O O4 0.338109 0.000000 0.678846
O O5 0.791998 0.500000 0.897090
O O6 0.750000 0.250000 0.906580
O O7 0.814952 0.288536 0.836325
O O8 0.849368 0.278563 0.920615
O O9 0.783342 0.500000 0.783510
O O10 0.750000 0.250000 0.766246
O O11 0.949352 0.756146 0.925267
O O12 0.000000 0.000000 0.925776
O O13 0.000000 0.828201 0.000000
O O14 0.911160 0.500000 0.932446
O O15 0.894209 0.308935 0.000000
O O16 0.063452 0.500000 0.379936
O O17 0.062728 0.752585 0.414217
O O18 0.000000 0.695575 0.346058
O O19 0.099278 0.226588 0.500000
O O20 0.158480 0.194507 0.572454
O O21 0.088662 0.000000 0.554772
O O22 0.250000 0.750000 0.589204
O O23 0.213766 0.000000 0.617560
#
# Coordination Sequence:
#
# PCOD8267393 Si02
#       8
#    16  16  16   8  16  16  16  16
#     4   9  17  30  48  67  89 116 147 183 223 266
#     4   9  18  31  46  67  97 128 162 197 236 285
#     4   9  17  29  46  67  92 120 151 186 223 267
#     4   9  17  29  47  71  93 117 157 205 245 281
#     4   9  17  30  48  68  94 129 164 200 243 289
#     4   9  18  32  49  68  89 113 143 181 224 265
#     4   9  19  34  48  64  88 117 148 179 212 256
#     4  10  19  30  45  66  91 116 145 179 217 260
#
# _framework density 17.171662999999999
#
# number of rings (size 3 to 8) (size 9 to 14) (size 15 to 20)
#    0.000    2.867    0.000    1.000    0.000    4.800 
#    0.000    1.333    1.467    0.000    0.000    0.000 
#    0.000    0.000    0.000    0.000    0.000    0.000 
#
# Total GULP energy -743851.317479 kJ/mol
# GULP energy per Si atom -12397.521958 kJ/mol
# Density = 1.713258 g / cm^3
# Si number density = 17.171663 Si / 1000 Ang^3
#
#
#
# Elastic Constant Matrix: (Units=GPa)
#
#
# Indices 1 2 3 4 5 6 
#
# 1 127.6202 49.1876 52.5900 0.0000 0.0000 0.0000
# 2 49.1876 58.4089 29.3265 0.0000 0.0000 0.0000
# 3 52.5900 29.3265 74.0924 0.0000 0.0000 0.0000
# 4 0.0000 0.0000 0.0000 19.8862 0.0000 0.0000
# 5 0.0000 0.0000 0.0000 0.0000 17.7692 0.0000
# 6 0.0000 0.0000 0.0000 0.0000 0.0000 28.1681
#
#
#
# Elastic Compliance Matrix: (Units=1/GPa)
#
#
# Indices 1 2 3 4 5 6 
#
# 1 0.013681 -0.008294 -0.006428 0.000000 0.000000 0.000000
# 2 -0.008294 0.026395 -0.004560 0.000000 0.000000 0.000000
# 3 -0.006428 -0.004560 0.019864 0.000000 0.000000 0.000000
# 4 0.000000 0.000000 0.000000 0.050286 0.000000 0.000000
# 5 0.000000 0.000000 0.000000 0.000000 0.056277 0.000000
# 6 0.000000 0.000000 0.000000 0.000000 0.000000 0.035501
#
#
# Mechanical properties :
#
#
# Convention : Reuss Voigt Hill
#
# Bulk Modulus (GPa) = 46.78200 58.03661 52.40931
# Shear Modulus (GPa) = 20.18615 21.76588 20.97601
#
# Velocity S-wave (km/s) = 3.43235 3.56412 3.49886
# Velocity P-wave (km/s) = 6.55827 7.12801 6.84907
#
# Compressibility (1/GPa) = 0.02137574
#
# Stress axis : x y z
#
# Youngs Moduli (GPa) = 73.09266 37.88612 50.34169
#
# Poissons Ratio (x) = 0.31422 0.32360
# Poissons Ratio (y) = 0.60622 0.22958
# Poissons Ratio (z) = 0.46984 0.17278
#
# Static dielectric constant tensor:
#      x y z
#    x 3.303930 0.000000 0.000000 
#    y 0.000000 3.246680 0.000000 
#    z 0.000000 0.000000 3.157360 
# 
# 
# High freq. dielectric constant tensor:
#      x y z
#    x 1.661370 0.000000 0.000000 
#    y 0.000000 1.661580 0.000000 
#    z 0.000000 0.000000 1.644410 
# 
# From -- ./inp_files/76111.got.cif
#   From: 2010.03.12/outbox.cif.g09.slc.cpg/sg65_39_cif.got.tgz:76111.got - 2010.04.10 20:52:16.
