data_PCOD8267889
_publ_section_title
;
Structure prediction by ZEFSAII (Michael W. Deem and Ramdas Pophale) SiO2 
 PCOD8267889
Probable space group: C M M M
;
_chemical_formula_sum "Si O2"
_cell_formula_units_Z 96
_cell_length_a 8.696037
_cell_length_b 20.163194
_cell_length_c 30.105571
_cell_angle_alpha 90.000000
_cell_angle_beta 90.000000
_cell_angle_gamma 90.000000
_cell_volume 5278.707238
_symmetry_space_group_name_H-M "C M M M"
_symmetry_group_IT_number 65
_symmetry_cell_setting 'orthorhombic'
loop_
_space_group_symop_operation_xyz
x,y,z
-x,-y,z
x,-y,-z
-x,y,-z
-x,-y,-z
x,y,-z
-x,y,z
x,-y,z
1/2+x,1/2+y,z
1/2-x,1/2-y,z
1/2+x,1/2-y,-z
1/2-x,1/2+y,-z
1/2-x,1/2-y,-z
1/2+x,1/2+y,-z
1/2-x,1/2+y,z
1/2+x,1/2-y,z
loop_
_atom_site_type_symbol
_atom_site_label
_atom_site_fract_x
_atom_site_fract_y
_atom_site_fract_z
Si Si1 0.183649 0.179032 0.379128
Si Si2 0.317370 0.426086 0.450528
Si Si3 0.182667 0.573291 0.213199
Si Si4 0.683571 0.179092 0.284412
Si Si5 0.180250 0.817925 0.949914
Si Si6 0.822352 0.576989 0.886371
O O1 0.250000 0.250000 0.393308
O O2 0.246440 0.126369 0.415029
O O3 0.249720 0.156773 0.331727
O O4 0.000000 0.182442 0.376865
O O5 0.259045 0.406850 0.500000
O O6 0.500000 0.425147 0.449757
O O7 0.258480 0.500000 0.438108
O O8 0.245717 0.500000 0.225847
O O9 0.245108 0.626476 0.248389
O O10 0.236632 0.592524 0.163580
O O11 0.000000 0.571525 0.213899
O O12 0.500000 0.182578 0.286882
O O13 0.750000 0.250000 0.270163
O O14 0.250000 0.750000 0.930128
O O15 0.224535 0.880423 0.920385
O O16 0.000000 0.809889 0.949558
O O17 0.242237 0.829731 0.000000
O O18 0.796500 0.500000 0.897610
O O19 0.000000 0.596459 0.891406
#
# Coordination Sequence:
#
# PCOD8267889 Si02
#       6
#    16  16  16  16  16  16
#     4  10  19  31  48  70  96 124 156 195 236 280
#     4   8  15  29  48  69  93 122 156 193 234 280
#     4   8  16  32  52  73  97 127 162 198 238 285
#     4  10  19  32  50  70  96 128 160 196 237 283
#     4  10  21  36  53  74 102 134 168 207 249 294
#     4   9  18  34  55  77 102 132 166 203 244 294
#
# _framework density 18.18627
#
# number of rings (size 3 to 8) (size 9 to 14) (size 15 to 20)
#    0.000    2.833    0.000    4.000    0.000    3.333 
#    0.000    5.000    0.000    6.500    0.000    4.667 
#    0.000    0.000    0.000    0.000    0.000    0.000 
#
# Total GULP energy -595080.989637 kJ/mol
# GULP energy per Si atom -12397.520617 kJ/mol
# Density = 1.814488 g / cm^3
# Si number density = 18.186270 Si / 1000 Ang^3
#
#
#
# Elastic Constant Matrix: (Units=GPa)
#
#
# Indices 1 2 3 4 5 6 
#
# 1 52.1471 31.9897 30.2465 0.0000 0.0000 0.0000
# 2 31.9897 127.8731 101.6674 0.0000 0.0000 0.0000
# 3 30.2465 101.6674 130.5079 0.0000 0.0000 0.0000
# 4 0.0000 0.0000 0.0000 42.3029 0.0000 0.0000
# 5 0.0000 0.0000 0.0000 0.0000 20.7849 0.0000
# 6 0.0000 0.0000 0.0000 0.0000 0.0000 24.6106
#
#
#
# Elastic Compliance Matrix: (Units=1/GPa)
#
#
# Indices 1 2 3 4 5 6 
#
# 1 0.022895 -0.003964 -0.002218 0.000000 0.000000 0.000000
# 2 -0.003964 0.021232 -0.015621 0.000000 0.000000 0.000000
# 3 -0.002218 -0.015621 0.020345 0.000000 0.000000 0.000000
# 4 0.000000 0.000000 0.000000 0.023639 0.000000 0.000000
# 5 0.000000 0.000000 0.000000 0.000000 0.048112 0.000000
# 6 0.000000 0.000000 0.000000 0.000000 0.000000 0.040633
#
#
# Mechanical properties :
#
#
# Convention : Reuss Voigt Hill
#
# Bulk Modulus (GPa) = 47.92574 70.92615 59.42594
# Shear Modulus (GPa) = 21.98601 27.31464 24.65033
#
# Velocity S-wave (km/s) = 3.48075 3.87969 3.68562
# Velocity P-wave (km/s) = 6.52411 7.69115 7.13154
#
# Compressibility (1/GPa) = 0.02086561
#
# Stress axis : x y z
#
# Youngs Moduli (GPa) = 43.67804 47.09942 49.15102
#
# Poissons Ratio (x) = 0.18670 0.10902
# Poissons Ratio (y) = 0.17314 0.76779
# Poissons Ratio (z) = 0.09688 0.73574
#
# Static dielectric constant tensor:
#      x y z
#    x 3.060660 0.000000 0.000000 
#    y 0.000000 3.541730 0.000000 
#    z 0.000000 0.000000 3.571890 
# 
# 
# High freq. dielectric constant tensor:
#      x y z
#    x 1.680540 0.000000 0.000000 
#    y 0.000000 1.710110 0.000000 
#    z 0.000000 0.000000 1.708600 
# 
# From -- ./inp_files/73465.got.cif
#   From: 2010.03.12/outbox.cif.g09.slc.cpg/sg65_37_cif.got.tgz:73465.got - 2010.04.10 20:52:16.
