data_PCOD8267513
_publ_section_title
;
Structure prediction by ZEFSAII (Michael W. Deem and Ramdas Pophale) SiO2 
 PCOD8267513
Probable space group: C M M M
;
_chemical_formula_sum "Si O2"
_cell_formula_units_Z 88
_cell_length_a 8.869430
_cell_length_b 27.446017
_cell_length_c 21.288805
_cell_angle_alpha 90.000000
_cell_angle_beta 90.000000
_cell_angle_gamma 90.000000
_cell_volume 5182.345011
_symmetry_space_group_name_H-M "C M M M"
_symmetry_group_IT_number 65
_symmetry_cell_setting 'orthorhombic'
loop_
_space_group_symop_operation_xyz
x,y,z
-x,-y,z
x,-y,-z
-x,y,-z
-x,-y,-z
x,y,-z
-x,y,z
x,-y,z
1/2+x,1/2+y,z
1/2-x,1/2-y,z
1/2+x,1/2-y,-z
1/2-x,1/2+y,-z
1/2-x,1/2-y,-z
1/2+x,1/2+y,-z
1/2-x,1/2+y,z
1/2+x,1/2-y,z
loop_
_atom_site_type_symbol
_atom_site_label
_atom_site_fract_x
_atom_site_fract_y
_atom_site_fract_z
Si Si1 0.821260 0.698058 0.308896
Si Si2 0.322366 0.389787 0.756520
Si Si3 0.822959 0.945591 0.631876
Si Si4 0.176114 0.358577 0.430281
Si Si5 0.330270 0.442285 0.000000
Si Si6 0.323138 0.943078 0.872314
O O1 0.750000 0.750000 0.295509
O O2 0.759530 0.661465 0.256100
O O3 0.767495 0.680038 0.378203
O O4 0.000000 0.701484 0.303996
O O5 0.500000 0.380803 0.761043
O O6 0.279691 0.427134 0.701185
O O7 0.262634 0.412064 0.820547
O O8 0.751879 0.911034 0.579294
O O9 0.000000 0.945075 0.621836
O O10 0.757703 0.000000 0.623795
O O11 0.217876 0.339103 0.500000
O O12 0.000000 0.366868 0.422644
O O13 0.239742 0.424357 0.938945
O O14 0.337189 0.500000 0.000000
O O15 0.500000 0.420640 0.000000
O O16 0.500000 0.932610 0.869182
O O17 0.287406 0.000000 0.861967
#
# Coordination Sequence:
#
# PCOD8267513 Si02
#       6
#    16  16  16  16   8  16
#     4  10  20  35  53  72  94 119 151 195 246 296
#     4  10  19  32  50  71  95 125 162 201 241 287
#     4   9  18  31  46  66  93 124 158 196 235 277
#     4   9  19  34  49  67  92 121 154 192 235 287
#     4   9  17  29  45  67  98 137 176 207 235 273
#     4  10  19  30  46  71 104 138 169 202 240 280
#
# _framework density 16.980730000000001
#
# number of rings (size 3 to 8) (size 9 to 14) (size 15 to 20)
#    0.000    2.455    0.000    2.455    0.000    5.818 
#    0.000    1.818    0.000    0.000    0.000    0.636 
#    0.000    0.000    0.000    0.000    0.000    0.000 
#
# Total GULP energy -545635.608670 kJ/mol
# GULP energy per Si atom -12400.809288 kJ/mol
# Density = 1.694208 g / cm^3
# Si number density = 16.980730 Si / 1000 Ang^3
#
#
#
# Elastic Constant Matrix: (Units=GPa)
#
#
# Indices 1 2 3 4 5 6 
#
# 1 62.8335 32.6001 30.8567 0.0000 0.0000 0.0000
# 2 32.6001 89.7731 29.7255 0.0000 0.0000 0.0000
# 3 30.8567 29.7255 95.8679 0.0000 0.0000 0.0000
# 4 0.0000 0.0000 0.0000 4.5726 0.0000 0.0000
# 5 0.0000 0.0000 0.0000 0.0000 30.1170 0.0000
# 6 0.0000 0.0000 0.0000 0.0000 0.0000 28.0185
#
#
#
# Elastic Compliance Matrix: (Units=1/GPa)
#
#
# Indices 1 2 3 4 5 6 
#
# 1 0.021591 -0.006173 -0.005035 0.000000 0.000000 0.000000
# 2 -0.006173 0.014179 -0.002409 0.000000 0.000000 0.000000
# 3 -0.005035 -0.002409 0.012799 0.000000 0.000000 0.000000
# 4 0.000000 0.000000 0.000000 0.218693 0.000000 0.000000
# 5 0.000000 0.000000 0.000000 0.000000 0.033204 0.000000
# 6 0.000000 0.000000 0.000000 0.000000 0.000000 0.035691
#
#
# Mechanical properties :
#
#
# Convention : Reuss Voigt Hill
#
# Bulk Modulus (GPa) = 46.87675 48.31546 47.59610
# Shear Modulus (GPa) = 13.49521 22.89443 18.19482
#
# Velocity S-wave (km/s) = 2.82217 3.67585 3.27693
# Velocity P-wave (km/s) = 6.18751 6.82134 6.51214
#
# Compressibility (1/GPa) = 0.02133254
#
# Stress axis : x y z
#
# Youngs Moduli (GPa) = 46.31636 70.52824 78.13244
#
# Poissons Ratio (x) = 0.43538 0.39341
# Poissons Ratio (y) = 0.28592 0.18825
# Poissons Ratio (z) = 0.23321 0.16993
#
# Static dielectric constant tensor:
#      x y z
#    x 3.243500 0.000000 0.000000 
#    y 0.000000 3.080900 0.000000 
#    z 0.000000 0.000000 3.250640 
# 
# 
# High freq. dielectric constant tensor:
#      x y z
#    x 1.665560 0.000000 0.000000 
#    y 0.000000 1.631380 0.000000 
#    z 0.000000 0.000000 1.651680 
# 
# From -- ./inp_files/59782.got.cif
#   From: 2010.03.12/outbox.cif.g09.slc.cpg/sg65_30_cif.got.tgz:59782.got - 2010.04.10 20:52:16.
