data_PCOD8267490
_publ_section_title
;
Structure prediction by ZEFSAII (Michael W. Deem and Ramdas Pophale) SiO2 
 PCOD8267490
Probable space group: C M M M
;
_chemical_formula_sum "Si O2"
_cell_formula_units_Z 104
_cell_length_a 18.788869
_cell_length_b 9.025512
_cell_length_c 33.451117
_cell_angle_alpha 90.000000
_cell_angle_beta 90.000000
_cell_angle_gamma 90.000000
_cell_volume 5672.612410
_symmetry_space_group_name_H-M "C M M M"
_symmetry_group_IT_number 65
_symmetry_cell_setting 'orthorhombic'
loop_
_space_group_symop_operation_xyz
x,y,z
-x,-y,z
x,-y,-z
-x,y,-z
-x,-y,-z
x,y,-z
-x,y,z
x,-y,z
1/2+x,1/2+y,z
1/2-x,1/2-y,z
1/2+x,1/2-y,-z
1/2-x,1/2+y,-z
1/2-x,1/2-y,-z
1/2+x,1/2+y,-z
1/2-x,1/2+y,z
1/2+x,1/2-y,z
loop_
_atom_site_type_symbol
_atom_site_label
_atom_site_fract_x
_atom_site_fract_y
_atom_site_fract_z
Si Si1 0.674154 0.676656 0.883192
Si Si2 0.416963 0.671816 0.721163
Si Si3 0.579514 0.675867 0.955760
Si Si4 0.584604 0.333094 0.500000
Si Si5 0.418512 0.826191 0.420931
Si Si6 0.578409 0.324897 0.811223
Si Si7 0.326318 0.824907 0.654795
O O1 0.681141 0.500000 0.883268
O O2 0.750000 0.750000 0.883443
O O3 0.632708 0.737111 0.922197
O O4 0.633619 0.736341 0.843781
O O5 0.500000 0.703509 0.712968
O O6 0.399479 0.500000 0.712890
O O7 0.396730 0.716531 0.766527
O O8 0.368839 0.774464 0.693720
O O9 0.500000 0.736763 0.947351
O O10 0.577668 0.500000 0.953630
O O11 0.605060 0.727411 0.000000
O O12 0.613548 0.500000 0.500000
O O13 0.500000 0.325966 0.500000
O O14 0.613096 0.252507 0.460292
O O15 0.500000 0.777871 0.412458
O O16 0.371141 0.774299 0.383772
O O17 0.413620 0.000000 0.428328
O O18 0.500000 0.257268 0.819690
O O19 0.572751 0.500000 0.815115
O O20 0.250000 0.750000 0.653001
O O21 0.316461 0.000000 0.656403
#
# Coordination Sequence:
#
# PCOD8267490 Si02
#       7
#    16  16  16   8  16  16  16
#     4  10  19  30  46  69  98 129 159 195 241 292
#     4   9  18  34  56  79 101 127 163 208 255 302
#     4   8  14  26  46  70  91 116 159 209 246 280
#     4   9  17  29  50  81 108 129 161 207 252 293
#     4   9  18  34  55  76 100 132 168 206 249 298
#     4   8  15  30  52  74  94 122 163 204 240 284
#     4  11  23  37  53  75 105 139 174 210 252 302
#
# _framework density 18.333704999999998
#
# number of rings (size 3 to 8) (size 9 to 14) (size 15 to 20)
#    0.000    2.846    0.000    3.000    0.000    5.846 
#    0.000    4.231    0.000    2.769    0.000    1.077 
#    0.000    0.000    0.000    0.000    0.000    0.000 
#
# Total GULP energy -644674.162862 kJ/mol
# GULP energy per Si atom -12397.580055 kJ/mol
# Density = 1.829198 g / cm^3
# Si number density = 18.333705 Si / 1000 Ang^3
#
#
#
# Elastic Constant Matrix: (Units=GPa)
#
#
# Indices 1 2 3 4 5 6 
#
# 1 122.7433 37.8466 98.7872 0.0000 0.0000 0.0000
# 2 37.8466 39.3563 45.7905 0.0000 0.0000 0.0000
# 3 98.7872 45.7905 180.2936 0.0000 0.0000 0.0000
# 4 0.0000 0.0000 0.0000 18.3071 0.0000 0.0000
# 5 0.0000 0.0000 0.0000 0.0000 10.5630 0.0000
# 6 0.0000 0.0000 0.0000 0.0000 0.0000 22.9598
#
#
#
# Elastic Compliance Matrix: (Units=1/GPa)
#
#
# Indices 1 2 3 4 5 6 
#
# 1 0.015937 -0.007333 -0.006870 0.000000 0.000000 0.000000
# 2 -0.007333 0.039440 -0.005999 0.000000 0.000000 0.000000
# 3 -0.006870 -0.005999 0.010834 0.000000 0.000000 0.000000
# 4 0.000000 0.000000 0.000000 0.054624 0.000000 0.000000
# 5 0.000000 0.000000 0.000000 0.000000 0.094670 0.000000
# 6 0.000000 0.000000 0.000000 0.000000 0.000000 0.043554
#
#
# Mechanical properties :
#
#
# Convention : Reuss Voigt Hill
#
# Bulk Modulus (GPa) = 38.74753 78.58243 58.66498
# Shear Modulus (GPa) = 16.23023 21.03055 18.63039
#
# Velocity S-wave (km/s) = 2.97857 3.39056 3.19122
# Velocity P-wave (km/s) = 5.74540 7.63434 6.75621
#
# Compressibility (1/GPa) = 0.02580809
#
# Stress axis : x y z
#
# Youngs Moduli (GPa) = 62.74605 25.35477 92.29829
#
# Poissons Ratio (x) = 0.18592 0.63409
# Poissons Ratio (y) = 0.46010 0.55371
# Poissons Ratio (z) = 0.43107 0.15211
#
# Static dielectric constant tensor:
#      x y z
#    x 3.362940 0.000000 0.000000 
#    y 0.000000 3.017080 0.000000 
#    z 0.000000 0.000000 3.736710 
# 
# 
# High freq. dielectric constant tensor:
#      x y z
#    x 1.700710 0.000000 0.000000 
#    y 0.000000 1.674660 0.000000 
#    z 0.000000 0.000000 1.729070 
# 
# From -- ./inp_files/78270.got.cif
#   From: 2010.03.12/outbox.cif.g09.slc.cpg/sg65_40_cif.got.tgz:78270.got - 2010.04.10 20:52:16.
