data_PCOD8267621
_publ_section_title
;
Structure prediction by ZEFSAII (Michael W. Deem and Ramdas Pophale) SiO2 
 PCOD8267621
Probable space group: C M M M
;
_chemical_formula_sum "Si O2"
_cell_formula_units_Z 88
_cell_length_a 18.355314
_cell_length_b 8.877457
_cell_length_c 28.557523
_cell_angle_alpha 90.000000
_cell_angle_beta 90.000000
_cell_angle_gamma 90.000000
_cell_volume 4653.405844
_symmetry_space_group_name_H-M "C M M M"
_symmetry_group_IT_number 65
_symmetry_cell_setting 'orthorhombic'
loop_
_space_group_symop_operation_xyz
x,y,z
-x,-y,z
x,-y,-z
-x,y,-z
-x,-y,-z
x,y,-z
-x,y,z
x,-y,z
1/2+x,1/2+y,z
1/2-x,1/2-y,z
1/2+x,1/2-y,-z
1/2-x,1/2+y,-z
1/2-x,1/2-y,-z
1/2+x,1/2+y,-z
1/2-x,1/2+y,z
1/2+x,1/2-y,z
loop_
_atom_site_type_symbol
_atom_site_label
_atom_site_fract_x
_atom_site_fract_y
_atom_site_fract_z
Si Si1 0.171802 0.323079 0.049399
Si Si2 0.672270 0.824198 0.150259
Si Si3 0.415851 0.676068 0.334758
Si Si4 0.413733 0.675131 0.500000
Si Si5 0.414517 0.667258 0.771598
Si Si6 0.829168 0.678853 0.415547
O O1 0.182905 0.500000 0.049542
O O2 0.250000 0.250000 0.048274
O O3 0.135954 0.275819 0.099473
O O4 0.130334 0.276837 0.000000
O O5 0.750000 0.750000 0.158322
O O6 0.618822 0.782575 0.191914
O O7 0.685282 0.000000 0.151825
O O8 0.500000 0.716679 0.345196
O O9 0.402512 0.500000 0.345454
O O10 0.395337 0.715105 0.281310
O O11 0.362589 0.777971 0.365474
O O12 0.391282 0.500000 0.500000
O O13 0.500000 0.694813 0.500000
O O14 0.382562 0.755519 0.545542
O O15 0.500000 0.668637 0.778504
O O16 0.383776 0.500000 0.781462
O O17 0.823248 0.500000 0.420370
O O18 0.750000 0.750000 0.421985
#
# Coordination Sequence:
#
# PCOD8267621 Si02
#       6
#    16  16  16   8  16  16
#     4   8  14  25  41  63  92 125 162 205 254 307
#     4  10  19  30  48  74 102 132 168 213 262 313
#     4   9  19  38  61  82 106 139 179 220 266 320
#     4  11  24  43  66  89 117 153 188 223 266 317
#     4   9  19  36  56  76 102 138 176 216 263 315
#     4  12  25  40  60  87 119 150 183 225 270 314
#
# _framework density 18.910879999999999
#
# number of rings (size 3 to 8) (size 9 to 14) (size 15 to 20)
#    0.000    2.273    0.000    4.364    0.000    5.818 
#    0.000    1.818    0.000    0.545    0.000    3.818 
#    0.000    0.000    0.000    0.000    0.000    0.000 
#
# Total GULP energy -545183.105424 kJ/mol
# GULP energy per Si atom -12390.525123 kJ/mol
# Density = 1.886784 g / cm^3
# Si number density = 18.910880 Si / 1000 Ang^3
#
#
#
# Elastic Constant Matrix: (Units=GPa)
#
#
# Indices 1 2 3 4 5 6 
#
# 1 57.3998 38.9088 53.0962 0.0000 0.0000 0.0000
# 2 38.9088 91.6093 57.0399 0.0000 0.0000 0.0000
# 3 53.0962 57.0399 151.5173 0.0000 0.0000 0.0000
# 4 0.0000 0.0000 0.0000 27.2500 0.0000 0.0000
# 5 0.0000 0.0000 0.0000 0.0000 -54.3547 0.0000
# 6 0.0000 0.0000 0.0000 0.0000 0.0000 28.3957
#
#
#
# Elastic Compliance Matrix: (Units=1/GPa)
#
#
# Indices 1 2 3 4 5 6 
#
# 1 0.029683 -0.008007 -0.007387 0.000000 0.000000 0.000000
# 2 -0.008007 0.016418 -0.003375 0.000000 0.000000 0.000000
# 3 -0.007387 -0.003375 0.010459 0.000000 0.000000 0.000000
# 4 0.000000 0.000000 0.000000 0.036697 0.000000 0.000000
# 5 0.000000 0.000000 0.000000 0.000000 -0.018398 0.000000
# 6 0.000000 0.000000 0.000000 0.000000 0.000000 0.035217
#
#
# Mechanical properties :
#
#
# Convention : Reuss Voigt Hill
#
# Bulk Modulus (GPa) = 52.57277 66.51293 59.54285
# Shear Modulus (GPa) = 32.47684 10.35696 21.41690
#
# Velocity S-wave (km/s) = 4.14860 2.34278 3.36894
# Velocity P-wave (km/s) = 7.12801 6.52428 6.83282
#
# Compressibility (1/GPa) = 0.01902125
#
# Stress axis : x y z
#
# Youngs Moduli (GPa) = 33.68926 60.90832 95.61065
#
# Poissons Ratio (x) = 0.48772 0.70631
# Poissons Ratio (y) = 0.26977 0.32266
# Poissons Ratio (z) = 0.24887 0.20555
#
# Static dielectric constant tensor:
#      x y z
#    x 3.151090 0.000000 0.000000 
#    y 0.000000 3.312940 0.000000 
#    z 0.000000 0.000000 4.135360 
# 
# 
# High freq. dielectric constant tensor:
#      x y z
#    x 1.702070 0.000000 0.000000 
#    y 0.000000 1.735810 0.000000 
#    z 0.000000 0.000000 1.764840 
# 
# From -- ./inp_files/77858.got.cif
#   From: 2010.03.12/outbox.cif.g09.slc.cpg/sg65_39_cif.got.tgz:77858.got - 2010.04.10 20:52:16.
