data_PCOD8267464
_publ_section_title
;
Structure prediction by ZEFSAII (Michael W. Deem and Ramdas Pophale) SiO2 
 PCOD8267464
Probable space group: C M M M
;
_chemical_formula_sum "Si O2"
_cell_formula_units_Z 88
_cell_length_a 8.865303
_cell_length_b 18.201612
_cell_length_c 28.634843
_cell_angle_alpha 90.000000
_cell_angle_beta 90.000000
_cell_angle_gamma 90.000000
_cell_volume 4620.598601
_symmetry_space_group_name_H-M "C M M M"
_symmetry_group_IT_number 65
_symmetry_cell_setting 'orthorhombic'
loop_
_space_group_symop_operation_xyz
x,y,z
-x,-y,z
x,-y,-z
-x,y,-z
-x,-y,-z
x,y,-z
-x,y,z
x,-y,z
1/2+x,1/2+y,z
1/2-x,1/2-y,z
1/2+x,1/2-y,-z
1/2-x,1/2+y,-z
1/2-x,1/2-y,-z
1/2+x,1/2+y,-z
1/2-x,1/2+y,z
1/2+x,1/2-y,z
loop_
_atom_site_type_symbol
_atom_site_label
_atom_site_fract_x
_atom_site_fract_y
_atom_site_fract_z
Si Si1 0.679259 0.829823 0.500000
Si Si2 0.320845 0.082333 0.770779
Si Si3 0.179234 0.417381 0.590401
Si Si4 0.320817 0.082284 0.051605
Si Si5 0.320740 0.829705 0.319132
Si Si6 0.679190 0.171299 0.139352
O O1 0.500000 0.822336 0.500000
O O2 0.750000 0.750000 0.500000
O O3 0.738052 0.873742 0.545212
O O4 0.500000 0.078869 0.769285
O O5 0.260640 0.129045 0.726993
O O6 0.265371 0.119742 0.818518
O O7 0.253956 0.000000 0.768328
O O8 0.245548 0.500000 0.589831
O O9 0.237051 0.375912 0.636502
O O10 0.000000 0.420933 0.590077
O O11 0.500000 0.080346 0.054478
O O12 0.257354 0.136956 0.091026
O O13 0.259009 0.000000 0.060767
O O14 0.269021 0.109395 0.000000
O O15 0.500000 0.822275 0.318920
O O16 0.250000 0.750000 0.321292
O O17 0.500000 0.178516 0.138659
O O18 0.750000 0.250000 0.147018
#
# Coordination Sequence:
#
# PCOD8267464 Si02
#       6
#     8  16  16  16  16  16
#     4  10  19  31  49  71  95 122 152 190 232 272
#     4   9  17  30  49  70  89 115 155 194 222 256
#     4   9  17  30  49  71  92 119 158 195 223 259
#     4   8  14  26  45  67  88 113 150 191 223 255
#     4  10  19  31  49  71  95 121 149 186 229 271
#     4  10  19  30  46  68  93 119 147 183 226 269
#
# _framework density 19.045152000000002
#
# number of rings (size 3 to 8) (size 9 to 14) (size 15 to 20)
#    0.000    2.727    0.000    3.000    0.000    5.818 
#    0.000    0.000    0.000    7.636    0.000    1.273 
#    0.000    0.000    0.000    0.000    0.000    0.000 
#
# Total GULP energy -545531.016488 kJ/mol
# GULP energy per Si atom -12398.432193 kJ/mol
# Density = 1.900180 g / cm^3
# Si number density = 19.045152 Si / 1000 Ang^3
#
#
#
# Elastic Constant Matrix: (Units=GPa)
#
#
# Indices 1 2 3 4 5 6 
#
# 1 10.5058 20.0229 18.3875 0.0000 0.0000 0.0000
# 2 20.0229 193.7579 106.5335 0.0000 0.0000 0.0000
# 3 18.3875 106.5335 193.7733 0.0000 0.0000 0.0000
# 4 0.0000 0.0000 0.0000 39.0281 0.0000 0.0000
# 5 0.0000 0.0000 0.0000 0.0000 6.5896 0.0000
# 6 0.0000 0.0000 0.0000 0.0000 0.0000 26.8490
#
#
#
# Elastic Compliance Matrix: (Units=1/GPa)
#
#
# Indices 1 2 3 4 5 6 
#
# 1 0.124471 -0.009128 -0.006793 0.000000 0.000000 0.000000
# 2 -0.009128 0.008067 -0.003569 0.000000 0.000000 0.000000
# 3 -0.006793 -0.003569 0.007767 0.000000 0.000000 0.000000
# 4 0.000000 0.000000 0.000000 0.025623 0.000000 0.000000
# 5 0.000000 0.000000 0.000000 0.000000 0.151755 0.000000
# 6 0.000000 0.000000 0.000000 0.000000 0.000000 0.037245
#
#
# Mechanical properties :
#
#
# Convention : Reuss Voigt Hill
#
# Bulk Modulus (GPa) = 9.86916 76.43609 43.15262
# Shear Modulus (GPa) = 11.69093 31.36621 21.52857
#
# Velocity S-wave (km/s) = 2.48029 4.06265 3.36578
# Velocity P-wave (km/s) = 3.66002 7.88848 6.14914
#
# Compressibility (1/GPa) = 0.10132573
#
# Stress axis : x y z
#
# Youngs Moduli (GPa) = 8.03401 123.96949 128.74536
#
# Poissons Ratio (x) = 1.13157 0.87456
# Poissons Ratio (y) = 0.07333 0.45945
# Poissons Ratio (z) = 0.05457 0.44241
#
# Static dielectric constant tensor:
#      x y z
#    x 2.826660 0.000000 0.000000 
#    y 0.000000 3.619760 0.000000 
#    z 0.000000 0.000000 3.947940 
# 
# 
# High freq. dielectric constant tensor:
#      x y z
#    x 1.670210 0.000000 0.000000 
#    y 0.000000 1.754110 0.000000 
#    z 0.000000 0.000000 1.763690 
# 
# From -- ./inp_files/74229.got.cif
#   From: 2010.03.12/outbox.cif.g09.slc.cpg/sg65_38_cif.got.tgz:74229.got - 2010.04.10 20:52:16.
