data_PCOD8267479
_publ_section_title
;
Structure prediction by ZEFSAII (Michael W. Deem and Ramdas Pophale) SiO2 
 PCOD8267479
Probable space group: C M M M
;
_chemical_formula_sum "Si O2"
_cell_formula_units_Z 104
_cell_length_a 23.638693
_cell_length_b 8.683006
_cell_length_c 28.245431
_cell_angle_alpha 90.000000
_cell_angle_beta 90.000000
_cell_angle_gamma 90.000000
_cell_volume 5797.513487
_symmetry_space_group_name_H-M "C M M M"
_symmetry_group_IT_number 65
_symmetry_cell_setting 'orthorhombic'
loop_
_space_group_symop_operation_xyz
x,y,z
-x,-y,z
x,-y,-z
-x,y,-z
-x,-y,-z
x,y,-z
-x,y,z
x,-y,z
1/2+x,1/2+y,z
1/2-x,1/2-y,z
1/2+x,1/2-y,-z
1/2-x,1/2+y,-z
1/2-x,1/2-y,-z
1/2+x,1/2+y,-z
1/2-x,1/2+y,z
1/2+x,1/2-y,z
loop_
_atom_site_type_symbol
_atom_site_label
_atom_site_fract_x
_atom_site_fract_y
_atom_site_fract_z
Si Si1 0.000000 0.320734 0.674781
Si Si2 0.811473 0.682229 0.639575
Si Si3 0.567563 0.826646 0.000000
Si Si4 0.000000 0.821281 0.576761
Si Si5 0.388491 0.318457 0.717478
Si Si6 0.567027 0.328174 0.905142
Si Si7 0.611884 0.176961 0.551789
Si Si8 0.065468 0.680601 0.807746
O O1 0.000000 0.300727 0.619188
O O2 0.945754 0.236424 0.694092
O O3 0.000000 0.500000 0.689488
O O4 0.808351 0.500000 0.642325
O O5 0.750000 0.750000 0.632047
O O6 0.836622 0.743856 0.688991
O O7 0.848129 0.736903 0.594181
O O8 0.592144 0.743691 0.046716
O O9 0.500000 0.822869 0.000000
O O10 0.590223 0.000000 0.000000
O O11 0.056461 0.783952 0.547697
O O12 0.000000 0.000000 0.592555
O O13 0.381919 0.500000 0.714880
O O14 0.391289 0.264604 0.772039
O O15 0.500000 0.331815 0.909255
O O16 0.591288 0.500000 0.898757
O O17 0.585144 0.225650 0.860387
O O18 0.642102 0.190703 0.500000
O O19 0.594650 0.000000 0.561721
O O20 0.071707 0.500000 0.800964
O O21 0.000000 0.731547 0.798353
#
# Coordination Sequence:
#
# PCOD8267479 Si02
#       8
#     8  16   8   8  16  16  16  16
#     4  12  22  35  55  80 108 140 171 208 259 316
#     4  11  24  42  62  81 106 138 177 217 259 310
#     4   9  15  23  35  51  77 119 170 215 258 305
#     4  12  23  35  56  87 116 142 173 213 255 302
#     4  12  23  36  56  81 107 135 172 216 263 315
#     4   9  16  25  37  56  85 122 168 216 259 302
#     4  10  22  40  61  83 111 146 176 208 257 311
#     4  10  19  30  46  69 100 134 169 210 262 315
#
# _framework density 17.938725000000002
#
# number of rings (size 3 to 8) (size 9 to 14) (size 15 to 20)
#    0.000    1.462    2.308    4.615    0.000    5.538 
#    0.000    0.000    0.000    0.000    0.000    0.000 
#    0.000    0.000    0.000    0.692    0.000    9.769 
#
# Total GULP energy -644737.566300 kJ/mol
# GULP energy per Si atom -12398.799352 kJ/mol
# Density = 1.789790 g / cm^3
# Si number density = 17.938725 Si / 1000 Ang^3
#
#
#
# Elastic Constant Matrix: (Units=GPa)
#
#
# Indices 1 2 3 4 5 6 
#
# 1 76.2666 33.6757 38.8236 0.0000 0.0000 0.0000
# 2 33.6757 101.5158 42.3711 0.0000 0.0000 0.0000
# 3 38.8236 42.3711 139.9228 0.0000 0.0000 0.0000
# 4 0.0000 0.0000 0.0000 28.7248 0.0000 0.0000
# 5 0.0000 0.0000 0.0000 0.0000 5.7651 0.0000
# 6 0.0000 0.0000 0.0000 0.0000 0.0000 22.6155
#
#
#
# Elastic Compliance Matrix: (Units=1/GPa)
#
#
# Indices 1 2 3 4 5 6 
#
# 1 0.016645 -0.004114 -0.003373 0.000000 0.000000 0.000000
# 2 -0.004114 0.012293 -0.002581 0.000000 0.000000 0.000000
# 3 -0.003373 -0.002581 0.008864 0.000000 0.000000 0.000000
# 4 0.000000 0.000000 0.000000 0.034813 0.000000 0.000000
# 5 0.000000 0.000000 0.000000 0.000000 0.173459 0.000000
# 6 0.000000 0.000000 0.000000 0.000000 0.000000 0.044217
#
#
# Mechanical properties :
#
#
# Convention : Reuss Voigt Hill
#
# Bulk Modulus (GPa) = 56.60323 60.82735 58.71529
# Shear Modulus (GPa) = 15.80698 24.94339 20.37519
#
# Velocity S-wave (km/s) = 2.97166 3.73296 3.37385
# Velocity P-wave (km/s) = 6.58760 7.24996 6.92671
#
# Compressibility (1/GPa) = 0.01766684
#
# Stress axis : x y z
#
# Youngs Moduli (GPa) = 60.07688 81.34927 112.81395
#
# Poissons Ratio (x) = 0.33467 0.38049
# Poissons Ratio (y) = 0.24716 0.29117
# Poissons Ratio (z) = 0.20262 0.20996
#
# Static dielectric constant tensor:
#      x y z
#    x 2.885490 0.000000 0.000000 
#    y 0.000000 3.418870 0.000000 
#    z 0.000000 0.000000 3.646880 
# 
# 
# High freq. dielectric constant tensor:
#      x y z
#    x 1.628700 0.000000 0.000000 
#    y 0.000000 1.709180 0.000000 
#    z 0.000000 0.000000 1.712120 
# 
# From -- ./inp_files/75847.got.cif
#   From: 2010.03.12/outbox.cif.g09.slc.cpg/sg65_38_cif.got.tgz:75847.got - 2010.04.10 20:52:16.
