data_PCOD8267144
_publ_section_title
;
Structure prediction by ZEFSAII (Michael W. Deem and Ramdas Pophale) SiO2 
 PCOD8267144
Probable space group: C M M M
;
_chemical_formula_sum "Si O2"
_cell_formula_units_Z 104
_cell_length_a 9.082582
_cell_length_b 27.557725
_cell_length_c 26.153173
_cell_angle_alpha 90.000000
_cell_angle_beta 90.000000
_cell_angle_gamma 90.000000
_cell_volume 6546.016205
_symmetry_space_group_name_H-M "C M M M"
_symmetry_group_IT_number 65
_symmetry_cell_setting 'orthorhombic'
loop_
_space_group_symop_operation_xyz
x,y,z
-x,-y,z
x,-y,-z
-x,y,-z
-x,-y,-z
x,y,-z
-x,y,z
x,-y,z
1/2+x,1/2+y,z
1/2-x,1/2-y,z
1/2+x,1/2-y,-z
1/2-x,1/2+y,-z
1/2-x,1/2-y,-z
1/2+x,1/2+y,-z
1/2-x,1/2+y,z
1/2+x,1/2-y,z
loop_
_atom_site_type_symbol
_atom_site_label
_atom_site_fract_x
_atom_site_fract_y
_atom_site_fract_z
Si Si1 0.674696 0.446674 0.297212
Si Si2 0.826529 0.443855 0.898075
Si Si3 0.172575 0.104413 0.804649
Si Si4 0.173907 0.145792 0.355432
Si Si5 0.329127 0.700514 0.746287
Si Si6 0.834451 0.057490 0.000000
Si Si7 0.671272 0.799806 0.441286
O O1 0.500000 0.447248 0.295949
O O2 0.739619 0.500000 0.309678
O O3 0.728178 0.429876 0.241419
O O4 0.724766 0.408674 0.340512
O O5 0.784725 0.500000 0.887013
O O6 0.767311 0.409465 0.853557
O O7 0.000000 0.437422 0.903629
O O8 0.751774 0.424559 0.949939
O O9 0.205202 0.160109 0.789251
O O10 0.000000 0.096539 0.816069
O O11 0.221229 0.181772 0.309585
O O12 0.261225 0.157887 0.406836
O O13 0.000000 0.148720 0.365547
O O14 0.500000 0.711799 0.744494
O O15 0.250000 0.750000 0.761523
O O16 0.000000 0.078963 0.000000
O O17 0.838952 0.000000 0.000000
O O18 0.700880 0.813869 0.500000
O O19 0.500000 0.793464 0.429615
O O20 0.750000 0.750000 0.426432
#
# Coordination Sequence:
#
# PCOD8267144 Si02
#       7
#    16  16  16  16  16   8  16
#     4   8  14  26  45  67  90 117 149 183 215 250
#     4  10  19  29  42  64  94 121 146 182 224 260
#     4   9  17  29  45  65  88 117 152 182 212 257
#     4   9  17  29  46  68  91 115 145 180 218 259
#     4   9  18  30  44  65  91 117 146 180 217 259
#     4   9  17  29  45  63  84 117 156 185 215 259
#     4  10  20  32  46  65  88 113 142 177 219 266
#
# _framework density 15.887525999999999
#
# number of rings (size 3 to 8) (size 9 to 14) (size 15 to 20)
#    0.000    2.846    0.000    3.923    0.000    5.846 
#    0.000    2.308    0.000    1.846    0.000    3.769 
#    0.000    0.000    0.000    0.000    0.000    0.000 
#
# Total GULP energy -644692.146641 kJ/mol
# GULP energy per Si atom -12397.925897 kJ/mol
# Density = 1.585137 g / cm^3
# Si number density = 15.887526 Si / 1000 Ang^3
#
#
#
# Elastic Constant Matrix: (Units=GPa)
#
#
# Indices 1 2 3 4 5 6 
#
# 1 67.4199 41.5924 51.1158 0.0000 0.0000 0.0000
# 2 41.5924 110.8515 58.5650 0.0000 0.0000 0.0000
# 3 51.1158 58.5650 112.8831 0.0000 0.0000 0.0000
# 4 0.0000 0.0000 0.0000 23.0492 0.0000 0.0000
# 5 0.0000 0.0000 0.0000 0.0000 27.1831 0.0000
# 6 0.0000 0.0000 0.0000 0.0000 0.0000 22.6143
#
#
#
# Elastic Compliance Matrix: (Units=1/GPa)
#
#
# Indices 1 2 3 4 5 6 
#
# 1 0.024125 -0.004519 -0.008580 0.000000 0.000000 0.000000
# 2 -0.004519 0.013274 -0.004840 0.000000 0.000000 0.000000
# 3 -0.008580 -0.004840 0.015255 0.000000 0.000000 0.000000
# 4 0.000000 0.000000 0.000000 0.043385 0.000000 0.000000
# 5 0.000000 0.000000 0.000000 0.000000 0.036788 0.000000
# 6 0.000000 0.000000 0.000000 0.000000 0.000000 0.044220
#
#
# Mechanical properties :
#
#
# Convention : Reuss Voigt Hill
#
# Bulk Modulus (GPa) = 59.60991 65.96675 62.78833
# Shear Modulus (GPa) = 22.88143 23.89473 23.38808
#
# Velocity S-wave (km/s) = 3.79913 3.88234 3.84096
# Velocity P-wave (km/s) = 7.53962 7.85544 7.69915
#
# Compressibility (1/GPa) = 0.01677573
#
# Stress axis : x y z
#
# Youngs Moduli (GPa) = 41.45016 75.33577 65.55198
#
# Poissons Ratio (x) = 0.34045 0.56243
# Poissons Ratio (y) = 0.18732 0.31729
# Poissons Ratio (z) = 0.35564 0.36465
#
# Static dielectric constant tensor:
#      x y z
#    x 2.882310 0.000000 0.000000 
#    y 0.000000 3.098830 0.000000 
#    z 0.000000 0.000000 2.966750 
# 
# 
# High freq. dielectric constant tensor:
#      x y z
#    x 1.602120 0.000000 0.000000 
#    y 0.000000 1.592330 0.000000 
#    z 0.000000 0.000000 1.604110 
# 
# From -- ./inp_files/68151.got.cif
#   From: 2010.03.12/outbox.cif.g09.slc.cpg/sg65_35_cif.got.tgz:68151.got - 2010.04.10 20:52:16.
