data_PCOD8267080
_publ_section_title
;
Structure prediction by ZEFSAII (Michael W. Deem and Ramdas Pophale) SiO2 
 PCOD8267080
Probable space group: C M M M
;
_chemical_formula_sum "Si O2"
_cell_formula_units_Z 88
_cell_length_a 27.397939
_cell_length_b 15.329648
_cell_length_c 13.231839
_cell_angle_alpha 90.000000
_cell_angle_beta 90.000000
_cell_angle_gamma 90.000000
_cell_volume 5557.382447
_symmetry_space_group_name_H-M "C M M M"
_symmetry_group_IT_number 65
_symmetry_cell_setting 'orthorhombic'
loop_
_space_group_symop_operation_xyz
x,y,z
-x,-y,z
x,-y,-z
-x,y,-z
-x,-y,-z
x,y,-z
-x,y,z
x,-y,z
1/2+x,1/2+y,z
1/2-x,1/2-y,z
1/2+x,1/2-y,-z
1/2-x,1/2+y,-z
1/2-x,1/2-y,-z
1/2+x,1/2+y,-z
1/2-x,1/2+y,z
1/2+x,1/2-y,z
loop_
_atom_site_type_symbol
_atom_site_label
_atom_site_fract_x
_atom_site_fract_y
_atom_site_fract_z
Si Si1 0.442548 0.668775 0.759799
Si Si2 0.809841 0.099458 0.803782
Si Si3 0.942374 0.000000 0.887068
Si Si4 0.294803 0.901273 0.116509
Si Si5 0.368979 0.754933 0.115053
Si Si6 0.870912 0.899387 0.387476
O O1 0.500000 0.682566 0.749320
O O2 0.425874 0.585337 0.826348
O O3 0.418003 0.751209 0.816448
O O4 0.418307 0.655228 0.650033
O O5 0.752197 0.115695 0.813742
O O6 0.837808 0.166322 0.876015
O O7 0.824998 0.116365 0.686998
O O8 0.823068 0.000000 0.837056
O O9 0.000000 0.000000 0.895334
O O10 0.919658 0.000000 0.000000
O O11 0.337383 0.837016 0.153390
O O12 0.313800 0.000000 0.129365
O O13 0.280557 0.882002 0.000000
O O14 0.385432 0.768171 0.000000
O O15 0.856752 0.867013 0.500000
O O16 0.886331 0.000000 0.389760
#
# Coordination Sequence:
#
# PCOD8267080 Si02
#       6
#    16  16   8  16  16  16
#     4  10  19  30  42  61  88 117 151 185 220 261
#     4   9  17  28  43  65  92 117 144 179 220 265
#     4   9  16  26  39  57  85 117 142 168 207 257
#     4   9  17  30  47  66  88 116 151 188 223 262
#     4  10  19  28  43  65  90 120 151 182 218 264
#     4   9  17  29  44  63  89 120 154 186 216 259
#
# _framework density 15.834792999999999
#
# number of rings (size 3 to 8) (size 9 to 14) (size 15 to 20)
#    0.000    2.636    0.909    1.636    1.273    4.000 
#    0.000    0.909    0.000    9.273    0.000    2.545 
#    0.000    0.000    0.000    6.545    0.000    0.000 
#
# Total GULP energy -545475.596443 kJ/mol
# GULP energy per Si atom -12397.172646 kJ/mol
# Density = 1.579875 g / cm^3
# Si number density = 15.834793 Si / 1000 Ang^3
#
#
#
# Elastic Constant Matrix: (Units=GPa)
#
#
# Indices 1 2 3 4 5 6 
#
# 1 98.9050 47.5158 43.1774 0.0000 0.0000 0.0000
# 2 47.5158 57.8141 24.5108 0.0000 0.0000 0.0000
# 3 43.1774 24.5108 86.1986 0.0000 0.0000 0.0000
# 4 0.0000 0.0000 0.0000 7.5771 0.0000 0.0000
# 5 0.0000 0.0000 0.0000 0.0000 19.2598 0.0000
# 6 0.0000 0.0000 0.0000 0.0000 0.0000 25.2928
#
#
#
# Elastic Compliance Matrix: (Units=1/GPa)
#
#
# Indices 1 2 3 4 5 6 
#
# 1 0.018920 -0.013112 -0.005748 0.000000 0.000000 0.000000
# 2 -0.013112 0.028756 -0.001609 0.000000 0.000000 0.000000
# 3 -0.005748 -0.001609 0.014938 0.000000 0.000000 0.000000
# 4 0.000000 0.000000 0.000000 0.131976 0.000000 0.000000
# 5 0.000000 0.000000 0.000000 0.000000 0.051922 0.000000
# 6 0.000000 0.000000 0.000000 0.000000 0.000000 0.039537
#
#
# Mechanical properties :
#
#
# Convention : Reuss Voigt Hill
#
# Bulk Modulus (GPa) = 46.13774 52.59173 49.36473
# Shear Modulus (GPa) = 14.96058 18.94019 16.95039
#
# Velocity S-wave (km/s) = 3.07708 3.46224 3.27533
# Velocity P-wave (km/s) = 6.46721 7.01909 6.74879
#
# Compressibility (1/GPa) = 0.02167423
#
# Stress axis : x y z
#
# Youngs Moduli (GPa) = 52.85501 34.77587 66.94357
#
# Poissons Ratio (x) = 0.45600 0.38482
# Poissons Ratio (y) = 0.69306 0.10768
# Poissons Ratio (z) = 0.30383 0.05594
#
# Static dielectric constant tensor:
#      x y z
#    x 2.930350 0.000000 0.000000 
#    y 0.000000 2.921750 0.000000 
#    z 0.000000 0.000000 3.005990 
# 
# 
# High freq. dielectric constant tensor:
#      x y z
#    x 1.601210 0.000000 0.000000 
#    y 0.000000 1.579940 0.000000 
#    z 0.000000 0.000000 1.592960 
# 
# From -- ./inp_files/33813.got.cif
#   From: 2010.03.12/outbox.cif.g09.slc.cpg/sg65_17_cif.got.tgz:33813.got - 2010.04.10 20:52:16.
