data_PCOD8267612
_publ_section_title
;
Structure prediction by ZEFSAII (Michael W. Deem and Ramdas Pophale) SiO2 
 PCOD8267612
Probable space group: C M M M
;
_chemical_formula_sum "Si O2"
_cell_formula_units_Z 80
_cell_length_a 19.376775
_cell_length_b 8.885326
_cell_length_c 25.618612
_cell_angle_alpha 90.000000
_cell_angle_beta 90.000000
_cell_angle_gamma 90.000000
_cell_volume 4410.729854
_symmetry_space_group_name_H-M "C M M M"
_symmetry_group_IT_number 65
_symmetry_cell_setting 'orthorhombic'
loop_
_space_group_symop_operation_xyz
x,y,z
-x,-y,z
x,-y,-z
-x,y,-z
-x,-y,-z
x,y,-z
-x,y,z
x,-y,z
1/2+x,1/2+y,z
1/2-x,1/2-y,z
1/2+x,1/2-y,-z
1/2-x,1/2+y,-z
1/2-x,1/2-y,-z
1/2+x,1/2+y,-z
1/2-x,1/2+y,z
1/2+x,1/2-y,z
loop_
_atom_site_type_symbol
_atom_site_label
_atom_site_fract_x
_atom_site_fract_y
_atom_site_fract_z
Si Si1 0.320591 0.823357 0.059825
Si Si2 0.579131 0.175505 0.245964
Si Si3 0.419045 0.673088 0.860436
Si Si4 0.174839 0.321815 0.341454
Si Si5 0.824505 0.823767 0.556580
O O1 0.250000 0.750000 0.080477
O O2 0.384088 0.764189 0.093214
O O3 0.313936 0.000000 0.066727
O O4 0.334334 0.776914 0.000000
O O5 0.500000 0.215851 0.259323
O O6 0.605587 0.265089 0.195464
O O7 0.625923 0.227371 0.294153
O O8 0.587793 0.000000 0.234004
O O9 0.500000 0.698102 0.867096
O O10 0.397534 0.500000 0.864406
O O11 0.181829 0.500000 0.345775
O O12 0.250000 0.250000 0.332786
O O13 0.138257 0.257301 0.394451
O O14 0.861958 0.798011 0.500000
O O15 0.750000 0.750000 0.553265
O O16 0.817354 0.000000 0.568458
#
# Coordination Sequence:
#
# PCOD8267612 Si02
#       5
#    16  16  16  16  16
#     4  10  21  37  57  80 107 139 172 208 253 302
#     4   9  19  36  54  71  96 132 171 208 248 295
#     4  10  21  36  55  79 105 135 172 212 253 299
#     4  10  19  30  48  73  98 125 159 202 248 293
#     4   9  16  26  42  65  94 126 158 195 240 289
#
# _framework density 18.137587
#
# number of rings (size 3 to 8) (size 9 to 14) (size 15 to 20)
#    0.000    2.400    0.000    3.600    0.000    6.400 
#    0.000    4.000    0.000    0.600    0.000    4.200 
#    0.000    0.000    0.000    0.000    0.000    0.000 
#
# Total GULP energy -495890.886329 kJ/mol
# GULP energy per Si atom -12397.272158 kJ/mol
# Density = 1.809631 g / cm^3
# Si number density = 18.137587 Si / 1000 Ang^3
#
#
#
# Elastic Constant Matrix: (Units=GPa)
#
#
# Indices 1 2 3 4 5 6 
#
# 1 52.3859 32.9406 57.9919 0.0000 0.0000 0.0000
# 2 32.9406 90.4549 61.8888 0.0000 0.0000 0.0000
# 3 57.9919 61.8888 145.9398 0.0000 0.0000 0.0000
# 4 0.0000 0.0000 0.0000 34.7147 0.0000 0.0000
# 5 0.0000 0.0000 0.0000 0.0000 11.4508 0.0000
# 6 0.0000 0.0000 0.0000 0.0000 0.0000 25.6091
#
#
#
# Elastic Compliance Matrix: (Units=1/GPa)
#
#
# Indices 1 2 3 4 5 6 
#
# 1 0.035390 -0.004601 -0.012112 0.000000 0.000000 0.000000
# 2 -0.004601 0.016172 -0.005030 0.000000 0.000000 0.000000
# 3 -0.012112 -0.005030 0.013798 0.000000 0.000000 0.000000
# 4 0.000000 0.000000 0.000000 0.028806 0.000000 0.000000
# 5 0.000000 0.000000 0.000000 0.000000 0.087330 0.000000
# 6 0.000000 0.000000 0.000000 0.000000 0.000000 0.039049
#
#
# Mechanical properties :
#
#
# Convention : Reuss Voigt Hill
#
# Bulk Modulus (GPa) = 45.71431 66.04701 55.88066
# Shear Modulus (GPa) = 18.42825 23.41887 20.92356
#
# Velocity S-wave (km/s) = 3.19097 3.59720 3.40016
# Velocity P-wave (km/s) = 6.23180 7.33121 6.80375
#
# Compressibility (1/GPa) = 0.02187499
#
# Stress axis : x y z
#
# Youngs Moduli (GPa) = 28.25642 61.83463 72.47449
#
# Poissons Ratio (x) = 0.28451 0.87779
# Poissons Ratio (y) = 0.13001 0.36453
# Poissons Ratio (z) = 0.34223 0.31102
#
# Static dielectric constant tensor:
#      x y z
#    x 3.072570 0.000000 0.000000 
#    y 0.000000 3.457230 0.000000 
#    z 0.000000 0.000000 3.874110 
# 
# 
# High freq. dielectric constant tensor:
#      x y z
#    x 1.666770 0.000000 0.000000 
#    y 0.000000 1.716960 0.000000 
#    z 0.000000 0.000000 1.720720 
# 
# From -- ./inp_files/72809.got.cif
#   From: 2010.03.12/outbox.cif.g09.slc.cpg/sg65_37_cif.got.tgz:72809.got - 2010.04.10 20:52:16.
