data_PCOD8267146
_publ_section_title
;
Structure prediction by ZEFSAII (Michael W. Deem and Ramdas Pophale) SiO2 
 PCOD8267146
Probable space group: C M M M
;
_chemical_formula_sum "Si O2"
_cell_formula_units_Z 96
_cell_length_a 26.104121
_cell_length_b 9.020226
_cell_length_c 22.780382
_cell_angle_alpha 90.000000
_cell_angle_beta 90.000000
_cell_angle_gamma 90.000000
_cell_volume 5363.984264
_symmetry_space_group_name_H-M "C M M M"
_symmetry_group_IT_number 65
_symmetry_cell_setting 'orthorhombic'
loop_
_space_group_symop_operation_xyz
x,y,z
-x,-y,z
x,-y,-z
-x,y,-z
-x,-y,-z
x,y,-z
-x,y,z
x,-y,z
1/2+x,1/2+y,z
1/2-x,1/2-y,z
1/2+x,1/2-y,-z
1/2-x,1/2+y,-z
1/2-x,1/2-y,-z
1/2+x,1/2+y,-z
1/2-x,1/2+y,z
1/2+x,1/2-y,z
loop_
_atom_site_type_symbol
_atom_site_label
_atom_site_fract_x
_atom_site_fract_y
_atom_site_fract_z
Si Si1 0.058510 0.827313 0.759190
Si Si2 0.705101 0.162013 0.243972
Si Si3 0.642536 0.674758 0.333939
Si Si4 0.196385 0.672374 0.567925
Si Si5 0.619952 0.836132 0.148562
Si Si6 0.302537 0.329918 0.069177
O O1 0.091675 0.775815 0.702429
O O2 0.072253 0.747664 0.821054
O O3 0.000000 0.790624 0.743772
O O4 0.068223 0.000000 0.770474
O O5 0.750000 0.250000 0.209991
O O6 0.691667 0.268110 0.298242
O O7 0.659284 0.142347 0.200332
O O8 0.722557 0.000000 0.266505
O O9 0.643959 0.500000 0.343250
O O10 0.648230 0.755044 0.396928
O O11 0.183288 0.697105 0.500000
O O12 0.200941 0.500000 0.583937
O O13 0.250000 0.750000 0.584441
O O14 0.646615 0.743837 0.096620
O O15 0.603318 0.000000 0.125308
O O16 0.298753 0.500000 0.090072
O O17 0.250000 0.250000 0.088838
O O18 0.309891 0.317352 0.000000
#
# Coordination Sequence:
#
# PCOD8267146 Si02
#       6
#    16  16  16  16  16  16
#     4   9  19  36  56  76  98 126 161 204 255 305
#     4  10  19  29  42  64  95 127 158 192 234 285
#     4  10  19  31  49  71  95 124 159 199 242 289
#     4  10  20  33  49  70  99 134 168 200 236 282
#     4  10  20  32  49  73  99 129 164 203 247 295
#     4  10  20  33  50  73 103 139 174 206 242 287
#
# _framework density 17.897144000000001
#
# number of rings (size 3 to 8) (size 9 to 14) (size 15 to 20)
#    0.000    2.167    0.000    3.500    0.000    6.333 
#    0.000    0.000    0.000    1.000    0.000    7.000 
#    0.000    0.000    0.000    0.000    0.000    0.000 
#
# Total GULP energy -594926.809700 kJ/mol
# GULP energy per Si atom -12394.308535 kJ/mol
# Density = 1.785641 g / cm^3
# Si number density = 17.897144 Si / 1000 Ang^3
#
#
#
# Elastic Constant Matrix: (Units=GPa)
#
#
# Indices 1 2 3 4 5 6 
#
# 1 82.3372 50.2144 31.6373 0.0000 0.0000 0.0000
# 2 50.2144 121.0472 45.0374 0.0000 0.0000 0.0000
# 3 31.6373 45.0374 69.2770 0.0000 0.0000 0.0000
# 4 0.0000 0.0000 0.0000 33.5450 0.0000 0.0000
# 5 0.0000 0.0000 0.0000 0.0000 23.3421 0.0000
# 6 0.0000 0.0000 0.0000 0.0000 0.0000 23.3053
#
#
#
# Elastic Compliance Matrix: (Units=1/GPa)
#
#
# Indices 1 2 3 4 5 6 
#
# 1 0.017149 -0.005540 -0.004230 0.000000 0.000000 0.000000
# 2 -0.005540 0.012687 -0.005718 0.000000 0.000000 0.000000
# 3 -0.004230 -0.005718 0.020084 0.000000 0.000000 0.000000
# 4 0.000000 0.000000 0.000000 0.029811 0.000000 0.000000
# 5 0.000000 0.000000 0.000000 0.000000 0.042841 0.000000
# 6 0.000000 0.000000 0.000000 0.000000 0.000000 0.042909
#
#
# Mechanical properties :
#
#
# Convention : Reuss Voigt Hill
#
# Bulk Modulus (GPa) = 52.78720 58.49329 55.64024
# Shear Modulus (GPa) = 24.65839 25.75664 25.20752
#
# Velocity S-wave (km/s) = 3.71588 3.79773 3.75702
# Velocity P-wave (km/s) = 6.92597 7.21001 7.06942
#
# Compressibility (1/GPa) = 0.01894399
#
# Stress axis : x y z
#
# Youngs Moduli (GPa) = 58.31135 78.82146 49.79177
#
# Poissons Ratio (x) = 0.43669 0.21062
# Poissons Ratio (y) = 0.32306 0.28469
# Poissons Ratio (z) = 0.24665 0.45068
#
# Static dielectric constant tensor:
#      x y z
#    x 3.126000 0.000000 0.000000 
#    y 0.000000 3.754480 0.000000 
#    z 0.000000 0.000000 3.311510 
# 
# 
# High freq. dielectric constant tensor:
#      x y z
#    x 1.659710 0.000000 0.000000 
#    y 0.000000 1.711820 0.000000 
#    z 0.000000 0.000000 1.685040 
# 
# From -- ./inp_files/68001.got.cif
#   From: 2010.03.12/outbox.cif.g09.slc.cpg/sg65_35_cif.got.tgz:68001.got - 2010.04.10 20:52:16.
