data_PCOD8267564
_publ_section_title
;
Structure prediction by ZEFSAII (Michael W. Deem and Ramdas Pophale) SiO2 
 PCOD8267564
Probable space group: C M M M
;
_chemical_formula_sum "Si O2"
_cell_formula_units_Z 112
_cell_length_a 17.060907
_cell_length_b 14.835879
_cell_length_c 23.534522
_cell_angle_alpha 90.000000
_cell_angle_beta 90.000000
_cell_angle_gamma 90.000000
_cell_volume 5956.906455
_symmetry_space_group_name_H-M "C M M M"
_symmetry_group_IT_number 65
_symmetry_cell_setting 'orthorhombic'
loop_
_space_group_symop_operation_xyz
x,y,z
-x,-y,z
x,-y,-z
-x,y,-z
-x,-y,-z
x,y,-z
-x,y,z
x,-y,z
1/2+x,1/2+y,z
1/2-x,1/2-y,z
1/2+x,1/2-y,-z
1/2-x,1/2+y,-z
1/2-x,1/2-y,-z
1/2+x,1/2+y,-z
1/2-x,1/2+y,z
1/2+x,1/2-y,z
loop_
_atom_site_type_symbol
_atom_site_label
_atom_site_fract_x
_atom_site_fract_y
_atom_site_fract_z
Si Si1 0.092627 0.725709 0.662498
Si Si2 0.593358 0.101347 0.563737
Si Si3 0.205733 0.340112 0.138498
Si Si4 0.593006 0.398511 0.274156
Si Si5 0.867435 0.098705 0.147029
Si Si6 0.086831 0.251120 0.064129
Si Si7 0.911390 0.603082 0.234479
O O1 0.128066 0.679843 0.605246
O O2 0.122842 0.827463 0.677373
O O3 0.119035 0.661791 0.713511
O O4 0.000000 0.728128 0.656310
O O5 0.622174 0.123983 0.500000
O O6 0.500000 0.102380 0.566619
O O7 0.621909 0.000000 0.581047
O O8 0.250000 0.250000 0.160484
O O9 0.276233 0.409594 0.127545
O O10 0.154982 0.321176 0.081631
O O11 0.145360 0.380190 0.182618
O O12 0.500000 0.393223 0.268756
O O13 0.620085 0.500000 0.291190
O O14 0.627717 0.369834 0.212897
O O15 0.913723 0.166440 0.106672
O O16 0.906031 0.000000 0.141009
O O17 0.000000 0.295467 0.067821
O O18 0.104152 0.218661 0.000000
O O19 0.907910 0.500000 0.253972
O O20 0.000000 0.630295 0.216727
#
# Coordination Sequence:
#
# PCOD8267564 Si02
#       7
#    16  16  16  16  16  16  16
#     4   9  15  24  40  62  89 122 159 195 236 288
#     4   8  13  21  34  55  86 123 160 198 242 291
#     4  10  20  33  50  69  94 125 155 189 234 288
#     4   9  17  29  46  68  94 124 158 198 244 294
#     4  10  20  33  50  72  97 122 150 192 245 294
#     4  10  21  36  53  71  91 120 159 197 233 280
#     4  10  19  30  47  71  97 124 156 196 240 288
#
# _framework density 18.801705999999999
#
# number of rings (size 3 to 8) (size 9 to 14) (size 15 to 20)
#    0.000    2.571    0.000    3.857    0.000    6.571 
#    0.000    0.714    0.000    1.714    0.000    8.000 
#    0.000    5.143    0.000    7.143    0.000    8.143 
#
# Total GULP energy -693819.552763 kJ/mol
# GULP energy per Si atom -12389.634871 kJ/mol
# Density = 1.875891 g / cm^3
# Si number density = 18.801706 Si / 1000 Ang^3
#
#
#
# Elastic Constant Matrix: (Units=GPa)
#
#
# Indices 1 2 3 4 5 6 
#
# 1 53.6730 10.5106 19.3433 0.0000 0.0000 0.0000
# 2 10.5106 102.9140 64.1233 0.0000 0.0000 0.0000
# 3 19.3433 64.1233 113.5567 0.0000 0.0000 0.0000
# 4 0.0000 0.0000 0.0000 26.8179 0.0000 0.0000
# 5 0.0000 0.0000 0.0000 0.0000 1.4741 0.0000
# 6 0.0000 0.0000 0.0000 0.0000 0.0000 14.6931
#
#
#
# Elastic Compliance Matrix: (Units=1/GPa)
#
#
# Indices 1 2 3 4 5 6 
#
# 1 0.019851 0.000123 -0.003451 0.000000 0.000000 0.000000
# 2 0.000123 0.014992 -0.008487 0.000000 0.000000 0.000000
# 3 -0.003451 -0.008487 0.014186 0.000000 0.000000 0.000000
# 4 0.000000 0.000000 0.000000 0.037289 0.000000 0.000000
# 5 0.000000 0.000000 0.000000 0.000000 0.678373 0.000000
# 6 0.000000 0.000000 0.000000 0.000000 0.000000 0.068059
#
#
# Mechanical properties :
#
#
# Convention : Reuss Voigt Hill
#
# Bulk Modulus (GPa) = 39.37021 50.89976 45.13499
# Shear Modulus (GPa) = 5.78138 20.34146 13.06142
#
# Velocity S-wave (km/s) = 1.75545 3.29278 2.63856
# Velocity P-wave (km/s) = 5.00939 6.44882 5.77413
#
# Compressibility (1/GPa) = 0.02539992
#
# Stress axis : x y z
#
# Youngs Moduli (GPa) = 50.37557 66.70145 70.49089
#
# Poissons Ratio (x) = -0.00818 0.24324
# Poissons Ratio (y) = -0.00618 0.59823
# Poissons Ratio (z) = 0.17383 0.56607
#
# Static dielectric constant tensor:
#      x y z
#    x 3.317510 0.000000 0.000000 
#    y 0.000000 3.686350 0.000000 
#    z 0.000000 0.000000 3.482860 
# 
# 
# High freq. dielectric constant tensor:
#      x y z
#    x 1.703700 0.000000 0.000000 
#    y 0.000000 1.729600 0.000000 
#    z 0.000000 0.000000 1.709990 
# 
# From -- ./inp_files/74888.got.cif
#   From: 2010.03.12/outbox.cif.g09.slc.cpg/sg65_38_cif.got.tgz:74888.got - 2010.04.10 20:52:16.
