data_PCOD8267426
_publ_section_title
;
Structure prediction by ZEFSAII (Michael W. Deem and Ramdas Pophale) SiO2 
 PCOD8267426
Probable space group: C M M M
;
_chemical_formula_sum "Si O2"
_cell_formula_units_Z 104
_cell_length_a 8.668592
_cell_length_b 27.585498
_cell_length_c 26.591129
_cell_angle_alpha 90.000000
_cell_angle_beta 90.000000
_cell_angle_gamma 90.000000
_cell_volume 6358.668266
_symmetry_space_group_name_H-M "C M M M"
_symmetry_group_IT_number 65
_symmetry_cell_setting 'orthorhombic'
loop_
_space_group_symop_operation_xyz
x,y,z
-x,-y,z
x,-y,-z
-x,y,-z
-x,-y,-z
x,y,-z
-x,y,z
x,-y,z
1/2+x,1/2+y,z
1/2-x,1/2-y,z
1/2+x,1/2-y,-z
1/2-x,1/2+y,-z
1/2-x,1/2-y,-z
1/2+x,1/2+y,-z
1/2-x,1/2+y,z
1/2+x,1/2-y,z
loop_
_atom_site_type_symbol
_atom_site_label
_atom_site_fract_x
_atom_site_fract_y
_atom_site_fract_z
Si Si1 0.320216 0.444089 0.000000
Si Si2 0.182166 0.552897 0.701947
Si Si3 0.681074 0.301533 0.442641
Si Si4 0.818412 0.610312 0.201760
Si Si5 0.682527 0.698249 0.742988
Si Si6 0.817066 0.056577 0.891078
Si Si7 0.817221 0.353054 0.647900
O O1 0.258165 0.424031 0.946339
O O2 0.280547 0.500000 0.000000
O O3 0.500000 0.435185 0.000000
O O4 0.257214 0.500000 0.691143
O O5 0.234184 0.570710 0.757021
O O6 0.236441 0.591999 0.660515
O O7 0.000000 0.548303 0.700412
O O8 0.723996 0.314445 0.500000
O O9 0.500000 0.299663 0.434002
O O10 0.750000 0.250000 0.426955
O O11 0.755948 0.342390 0.407745
O O12 0.733647 0.660674 0.213830
O O13 0.771338 0.590474 0.147722
O O14 0.000000 0.619881 0.204289
O O15 0.500000 0.700835 0.740182
O O16 0.750000 0.750000 0.758513
O O17 0.746333 0.683718 0.688249
O O18 0.000000 0.063134 0.885106
O O19 0.773227 0.000000 0.883308
O O20 0.000000 0.347538 0.650358
#
# Coordination Sequence:
#
# PCOD8267426 Si02
#       7
#     8  16  16  16  16  16  16
#     4   7  12  24  41  61  88 123 160 195 231 273
#     4   8  15  28  45  65  90 120 152 185 221 261
#     4  10  20  33  49  69  93 120 151 188 230 275
#     4  10  19  30  45  68  95 123 155 191 234 278
#     4  11  21  34  50  68  93 122 153 188 227 274
#     4   9  16  27  44  66  93 126 162 197 233 273
#     4  10  19  31  49  72  96 122 152 186 226 272
#
# _framework density 16.355625
#
# number of rings (size 3 to 8) (size 9 to 14) (size 15 to 20)
#    0.000    2.538    0.000    5.538    0.000    1.846 
#    0.000    0.385    0.000   11.077    0.000    3.769 
#    0.000    0.000    0.000    0.000    0.000    0.000 
#
# Total GULP energy -644511.475359 kJ/mol
# GULP energy per Si atom -12394.451449 kJ/mol
# Density = 1.631840 g / cm^3
# Si number density = 16.355625 Si / 1000 Ang^3
#
#
#
# Elastic Constant Matrix: (Units=GPa)
#
#
# Indices 1 2 3 4 5 6 
#
# 1 71.8208 34.7162 36.7972 0.0000 0.0000 0.0000
# 2 34.7162 116.7965 65.8004 0.0000 0.0000 0.0000
# 3 36.7972 65.8004 127.3456 0.0000 0.0000 0.0000
# 4 0.0000 0.0000 0.0000 16.7808 0.0000 0.0000
# 5 0.0000 0.0000 0.0000 0.0000 24.8240 0.0000
# 6 0.0000 0.0000 0.0000 0.0000 0.0000 19.2319
#
#
#
# Elastic Compliance Matrix: (Units=1/GPa)
#
#
# Indices 1 2 3 4 5 6 
#
# 1 0.017179 -0.003258 -0.003281 0.000000 0.000000 0.000000
# 2 -0.003258 0.012696 -0.005618 0.000000 0.000000 0.000000
# 3 -0.003281 -0.005618 0.011704 0.000000 0.000000 0.000000
# 4 0.000000 0.000000 0.000000 0.059592 0.000000 0.000000
# 5 0.000000 0.000000 0.000000 0.000000 0.040284 0.000000
# 6 0.000000 0.000000 0.000000 0.000000 0.000000 0.051997
#
#
# Mechanical properties :
#
#
# Convention : Reuss Voigt Hill
#
# Bulk Modulus (GPa) = 57.92310 65.62118 61.77214
# Shear Modulus (GPa) = 22.36937 24.07728 23.22332
#
# Velocity S-wave (km/s) = 3.70224 3.84097 3.77224
# Velocity P-wave (km/s) = 7.33260 7.73817 7.53812
#
# Compressibility (1/GPa) = 0.01726427
#
# Stress axis : x y z
#
# Youngs Moduli (GPa) = 58.20996 78.76716 85.44312
#
# Poissons Ratio (x) = 0.25663 0.28030
# Poissons Ratio (y) = 0.18965 0.48006
# Poissons Ratio (z) = 0.19096 0.44255
#
# Static dielectric constant tensor:
#      x y z
#    x 2.974000 0.000000 0.000000 
#    y 0.000000 3.170330 0.000000 
#    z 0.000000 0.000000 3.244020 
# 
# 
# High freq. dielectric constant tensor:
#      x y z
#    x 1.624210 0.000000 0.000000 
#    y 0.000000 1.611360 0.000000 
#    z 0.000000 0.000000 1.626940 
# 
# From -- ./inp_files/73790.got.cif
#   From: 2010.03.12/outbox.cif.g09.slc.cpg/sg65_37_cif.got.tgz:73790.got - 2010.04.10 20:52:16.
