data_PCOD8267438
_publ_section_title
;
Structure prediction by ZEFSAII (Michael W. Deem and Ramdas Pophale) SiO2 
 PCOD8267438
Probable space group: C M M M
;
_chemical_formula_sum "Si O2"
_cell_formula_units_Z 80
_cell_length_a 10.185671
_cell_length_b 27.385458
_cell_length_c 17.563305
_cell_angle_alpha 90.000000
_cell_angle_beta 90.000000
_cell_angle_gamma 90.000000
_cell_volume 4899.095394
_symmetry_space_group_name_H-M "C M M M"
_symmetry_group_IT_number 65
_symmetry_cell_setting 'orthorhombic'
loop_
_space_group_symop_operation_xyz
x,y,z
-x,-y,z
x,-y,-z
-x,y,-z
-x,-y,-z
x,y,-z
-x,y,z
x,-y,z
1/2+x,1/2+y,z
1/2-x,1/2-y,z
1/2+x,1/2-y,-z
1/2-x,1/2+y,-z
1/2-x,1/2-y,-z
1/2+x,1/2+y,-z
1/2-x,1/2+y,z
1/2+x,1/2-y,z
loop_
_atom_site_type_symbol
_atom_site_label
_atom_site_fract_x
_atom_site_fract_y
_atom_site_fract_z
Si Si1 0.641364 0.053344 0.911404
Si Si2 0.000000 0.942499 0.583092
Si Si3 0.754091 0.058145 0.680345
Si Si4 0.847721 0.890328 0.171186
Si Si5 0.147932 0.208143 0.913220
Si Si6 0.500000 0.942448 0.586029
O O1 0.500000 0.075477 0.881738
O O2 0.770606 0.084785 0.897481
O O3 0.659253 0.000000 0.872865
O O4 0.630333 0.046815 0.000000
O O5 0.872647 0.925280 0.627368
O O6 0.000000 0.917680 0.500000
O O7 0.000000 0.000000 0.573877
O O8 0.767450 0.091996 0.754704
O O9 0.625345 0.074220 0.634499
O O10 0.756566 0.000000 0.699922
O O11 0.837633 0.833106 0.151881
O O12 0.000000 0.907317 0.175299
O O13 0.250000 0.250000 0.891085
O O14 0.000000 0.229320 0.909481
O O15 0.175308 0.188957 0.000000
O O16 0.500000 0.919734 0.500000
O O17 0.500000 0.000000 0.576693
#
# Coordination Sequence:
#
# PCOD8267438 Si02
#       6
#    16   8  16  16  16   8
#     4   9  19  33  46  63  91 130 171 202 229 271
#     4   9  16  28  46  66  94 133 168 194 228 277
#     4  10  19  30  45  70 102 134 165 200 238 278
#     4  11  21  32  48  72 101 127 157 199 250 297
#     4   9  19  36  55  73  94 122 159 203 249 297
#     4   9  18  32  48  66  94 135 176 206 234 273
#
# _framework density 16.329545
#
# number of rings (size 3 to 8) (size 9 to 14) (size 15 to 20)
#    0.000    2.400    1.000    2.400    1.400    5.600 
#    0.000    3.000    0.000    0.000    0.000    0.000 
#    0.000    4.800    0.000    0.000    0.000    0.000 
#
# Total GULP energy -495529.187171 kJ/mol
# GULP energy per Si atom -12388.229679 kJ/mol
# Density = 1.629238 g / cm^3
# Si number density = 16.329545 Si / 1000 Ang^3
#
#
#
# Elastic Constant Matrix: (Units=GPa)
#
#
# Indices 1 2 3 4 5 6 
#
# 1 140.9706 46.7322 50.3771 0.0000 0.0000 0.0000
# 2 46.7322 55.7180 35.3814 0.0000 0.0000 0.0000
# 3 50.3771 35.3814 83.4449 0.0000 0.0000 0.0000
# 4 0.0000 0.0000 0.0000 3.3737 0.0000 0.0000
# 5 0.0000 0.0000 0.0000 0.0000 15.6199 0.0000
# 6 0.0000 0.0000 0.0000 0.0000 0.0000 30.7493
#
#
#
# Elastic Compliance Matrix: (Units=1/GPa)
#
#
# Indices 1 2 3 4 5 6 
#
# 1 0.010554 -0.006577 -0.003583 0.000000 0.000000 0.000000
# 2 -0.006577 0.028659 -0.008181 0.000000 0.000000 0.000000
# 3 -0.003583 -0.008181 0.017616 0.000000 0.000000 0.000000
# 4 0.000000 0.000000 0.000000 0.296408 0.000000 0.000000
# 5 0.000000 0.000000 0.000000 0.000000 0.064021 0.000000
# 6 0.000000 0.000000 0.000000 0.000000 0.000000 0.032521
#
#
# Mechanical properties :
#
#
# Convention : Reuss Voigt Hill
#
# Bulk Modulus (GPa) = 49.63525 60.56832 55.10178
# Shear Modulus (GPa) = 10.13835 19.79145 14.96490
#
# Velocity S-wave (km/s) = 2.49441 3.48516 3.03055
# Velocity P-wave (km/s) = 6.22560 7.30526 6.78693
#
# Compressibility (1/GPa) = 0.02014697
#
# Stress axis : x y z
#
# Youngs Moduli (GPa) = 94.74681 34.89340 56.76662
#
# Poissons Ratio (x) = 0.22949 0.20341
# Poissons Ratio (y) = 0.62314 0.46440
# Poissons Ratio (z) = 0.33950 0.28546
#
# Static dielectric constant tensor:
#      x y z
#    x 3.378760 0.000000 0.000000 
#    y 0.000000 2.680430 0.000000 
#    z 0.000000 0.000000 3.154480 
# 
# 
# High freq. dielectric constant tensor:
#      x y z
#    x 1.652710 0.000000 0.000000 
#    y 0.000000 1.570320 0.000000 
#    z 0.000000 0.000000 1.625700 
# 
# From -- ./inp_files/50196.got.cif
#   From: 2010.03.12/outbox.cif.g09.slc.cpg/sg65_26_cif.got.tgz:50196.got - 2010.04.10 20:52:16.
