data_PCOD8267694
_publ_section_title
;
Structure prediction by ZEFSAII (Michael W. Deem and Ramdas Pophale) SiO2 
 PCOD8267694
Probable space group: C M M M
;
_chemical_formula_sum "Si O2"
_cell_formula_units_Z 88
_cell_length_a 19.230435
_cell_length_b 7.780915
_cell_length_c 31.699028
_cell_angle_alpha 90.000000
_cell_angle_beta 90.000000
_cell_angle_gamma 90.000000
_cell_volume 4743.137610
_symmetry_space_group_name_H-M "C M M M"
_symmetry_group_IT_number 65
_symmetry_cell_setting 'orthorhombic'
loop_
_space_group_symop_operation_xyz
x,y,z
-x,-y,z
x,-y,-z
-x,y,-z
-x,-y,-z
x,y,-z
-x,y,z
x,-y,z
1/2+x,1/2+y,z
1/2-x,1/2-y,z
1/2+x,1/2-y,-z
1/2-x,1/2+y,-z
1/2-x,1/2-y,-z
1/2+x,1/2+y,-z
1/2-x,1/2+y,z
1/2+x,1/2-y,z
loop_
_atom_site_type_symbol
_atom_site_label
_atom_site_fract_x
_atom_site_fract_y
_atom_site_fract_z
Si Si1 0.082697 0.808733 0.169348
Si Si2 0.830176 0.202469 0.000000
Si Si3 0.422492 0.296260 0.924347
Si Si4 0.917340 0.500000 0.679117
Si Si5 0.080032 0.808354 0.378346
Si Si6 0.583152 0.000000 0.226181
Si Si7 0.173128 0.298687 0.452094
O O1 0.104723 0.746966 0.122413
O O2 0.111792 0.670929 0.202905
O O3 0.000000 0.816704 0.171098
O O4 0.112467 0.000000 0.179679
O O5 0.750000 0.250000 0.000000
O O6 0.868496 0.279664 0.041390
O O7 0.838289 0.000000 0.000000
O O8 0.500000 0.220149 0.932530
O O9 0.426884 0.500000 0.927810
O O10 0.889983 0.670256 0.655027
O O11 0.886852 0.500000 0.726368
O O12 0.000000 0.500000 0.681565
O O13 0.119038 0.799312 0.422751
O O14 0.000000 0.766578 0.387838
O O15 0.089060 0.000000 0.359284
O O16 0.500000 0.000000 0.225670
O O17 0.161672 0.234876 0.500000
O O18 0.160444 0.500000 0.448011
O O19 0.250000 0.250000 0.436744
#
# Coordination Sequence:
#
# PCOD8267694 Si02
#       7
#    16   8  16   8  16   8  16
#     4   8  14  25  42  67  95 121 156 200 245 293
#     4  10  19  31  45  65  97 126 160 196 234 290
#     4   8  14  27  48  68  89 123 163 200 237 281
#     4   9  18  32  47  70 104 136 168 204 250 308
#     4  10  20  34  52  74 105 142 177 211 253 305
#     4   9  16  26  44  70 100 128 154 199 255 302
#     4  10  20  34  53  77 106 136 173 218 258 301
#
# _framework density 18.553118000000001
#
# number of rings (size 3 to 8) (size 9 to 14) (size 15 to 20)
#    0.000    2.909    0.909    1.909    0.000    3.273 
#    1.636    5.455    0.000    0.545    0.000    1.273 
#    0.000    0.000    0.000    0.000    0.000    0.000 
#
# Total GULP energy -545410.828600 kJ/mol
# GULP energy per Si atom -12395.700650 kJ/mol
# Density = 1.851089 g / cm^3
# Si number density = 18.553118 Si / 1000 Ang^3
#
#
#
# Elastic Constant Matrix: (Units=GPa)
#
#
# Indices 1 2 3 4 5 6 
#
# 1 56.6912 24.0739 49.6751 0.0000 0.0000 0.0000
# 2 24.0739 100.1380 63.5579 0.0000 0.0000 0.0000
# 3 49.6751 63.5579 151.8627 0.0000 0.0000 0.0000
# 4 0.0000 0.0000 0.0000 21.7084 0.0000 0.0000
# 5 0.0000 0.0000 0.0000 0.0000 6.7855 0.0000
# 6 0.0000 0.0000 0.0000 0.0000 0.0000 17.3913
#
#
#
# Elastic Compliance Matrix: (Units=1/GPa)
#
#
# Indices 1 2 3 4 5 6 
#
# 1 0.024817 -0.001108 -0.007654 0.000000 0.000000 0.000000
# 2 -0.001108 0.013648 -0.005349 0.000000 0.000000 0.000000
# 3 -0.007654 -0.005349 0.011327 0.000000 0.000000 0.000000
# 4 0.000000 0.000000 0.000000 0.046065 0.000000 0.000000
# 5 0.000000 0.000000 0.000000 0.000000 0.147373 0.000000
# 6 0.000000 0.000000 0.000000 0.000000 0.000000 0.057500
#
#
# Mechanical properties :
#
#
# Convention : Reuss Voigt Hill
#
# Bulk Modulus (GPa) = 46.36295 64.81174 55.58735
# Shear Modulus (GPa) = 14.87463 20.60269 17.73866
#
# Velocity S-wave (km/s) = 2.83456 3.33599 3.09544
# Velocity P-wave (km/s) = 5.97968 7.06026 6.54232
#
# Compressibility (1/GPa) = 0.02156895
#
# Stress axis : x y z
#
# Youngs Moduli (GPa) = 40.29555 73.27097 88.28155
#
# Poissons Ratio (x) = 0.08120 0.67569
# Poissons Ratio (y) = 0.04465 0.47226
# Poissons Ratio (z) = 0.30842 0.39196
#
# Static dielectric constant tensor:
#      x y z
#    x 3.894590 0.000000 0.000000 
#    y 0.000000 3.525730 0.000000 
#    z 0.000000 0.000000 3.631170 
# 
# 
# High freq. dielectric constant tensor:
#      x y z
#    x 1.665810 0.000000 0.000000 
#    y 0.000000 1.722300 0.000000 
#    z 0.000000 0.000000 1.718750 
# 
# From -- ./inp_files/77993.got.cif
#   From: 2010.03.12/outbox.cif.g09.slc.cpg/sg65_39_cif.got.tgz:77993.got - 2010.04.10 20:52:16.
