data_PCOD8267838
_publ_section_title
;
Structure prediction by ZEFSAII (Michael W. Deem and Ramdas Pophale) SiO2 
 PCOD8267838
Probable space group: C M M M
;
_chemical_formula_sum "Si O2"
_cell_formula_units_Z 104
_cell_length_a 32.798611
_cell_length_b 22.693355
_cell_length_c 7.810863
_cell_angle_alpha 90.000000
_cell_angle_beta 90.000000
_cell_angle_gamma 90.000000
_cell_volume 5813.707524
_symmetry_space_group_name_H-M "C M M M"
_symmetry_group_IT_number 65
_symmetry_cell_setting 'orthorhombic'
loop_
_space_group_symop_operation_xyz
x,y,z
-x,-y,z
x,-y,-z
-x,y,-z
-x,-y,-z
x,y,-z
-x,y,z
x,-y,z
1/2+x,1/2+y,z
1/2-x,1/2-y,z
1/2+x,1/2-y,-z
1/2-x,1/2+y,-z
1/2-x,1/2-y,-z
1/2+x,1/2+y,-z
1/2-x,1/2+y,z
1/2+x,1/2-y,z
loop_
_atom_site_type_symbol
_atom_site_label
_atom_site_fract_x
_atom_site_fract_y
_atom_site_fract_z
Si Si1 0.954848 0.718378 0.296870
Si Si2 0.402170 0.888570 0.302391
Si Si3 0.883728 0.932345 0.808968
Si Si4 0.262830 0.070087 0.500000
Si Si5 0.953117 0.149564 0.299611
Si Si6 0.181888 0.568142 0.190874
Si Si7 0.328175 0.430063 0.500000
Si Si8 0.047706 0.500000 0.799932
O O1 0.957161 0.713542 0.500000
O O2 0.923398 0.670031 0.224871
O O3 0.940739 0.784028 0.244373
O O4 0.000000 0.705768 0.221462
O O5 0.390604 0.880560 0.500000
O O6 0.360582 0.897362 0.199162
O O7 0.433059 0.942530 0.284623
O O8 0.925432 0.895902 0.803137
O O9 0.851340 0.907736 0.670684
O O10 0.894491 0.000000 0.766622
O O11 0.864936 0.926523 0.000000
O O12 0.285957 0.092728 0.670498
O O13 0.217318 0.097104 0.500000
O O14 0.260520 0.000000 0.500000
O O15 0.945912 0.140027 0.500000
O O16 0.000000 0.137473 0.251264
O O17 0.172185 0.500000 0.230620
O O18 0.200328 0.576145 0.000000
O O19 0.325263 0.500000 0.500000
O O20 0.000000 0.500000 0.759484
O O21 0.057442 0.500000 0.000000
#
# Coordination Sequence:
#
# PCOD8267838 Si02
#       8
#    16  16  16   8  16  16   8   8
#     4   8  16  30  48  71  97 129 174 222 258 294
#     4  11  19  30  49  69  95 130 173 218 263 311
#     4  10  20  33  52  80 112 141 168 202 246 296
#     4   9  18  32  52  74  98 132 167 200 253 316
#     4   9  17  32  53  75 103 139 176 212 249 289
#     4  10  19  31  47  71 101 130 165 211 260 308
#     4   9  18  34  53  77 107 135 167 203 245 306
#     4  11  23  33  41  61  95 135 177 218 265 315
#
# _framework density 17.888756999999998
#
# number of rings (size 3 to 8) (size 9 to 14) (size 15 to 20)
#    0.000    2.385    2.308    2.077    0.000    2.462 
#    0.000    6.154    0.000    1.846    0.000    2.154 
#    0.000    2.462    0.000    0.000    0.000    0.000 
#
# Total GULP energy -644731.772965 kJ/mol
# GULP energy per Si atom -12398.687942 kJ/mol
# Density = 1.784804 g / cm^3
# Si number density = 17.888757 Si / 1000 Ang^3
#
#
#
# Elastic Constant Matrix: (Units=GPa)
#
#
# Indices 1 2 3 4 5 6 
#
# 1 120.1948 49.1038 50.2756 0.0000 0.0000 0.0000
# 2 49.1038 71.9403 25.8768 0.0000 0.0000 0.0000
# 3 50.2756 25.8768 97.3300 0.0000 0.0000 0.0000
# 4 0.0000 0.0000 0.0000 10.0410 0.0000 0.0000
# 5 0.0000 0.0000 0.0000 0.0000 15.3179 0.0000
# 6 0.0000 0.0000 0.0000 0.0000 0.0000 13.9647
#
#
#
# Elastic Compliance Matrix: (Units=1/GPa)
#
#
# Indices 1 2 3 4 5 6 
#
# 1 0.013406 -0.007364 -0.004967 0.000000 0.000000 0.000000
# 2 -0.007364 0.019415 -0.001358 0.000000 0.000000 0.000000
# 3 -0.004967 -0.001358 0.013201 0.000000 0.000000 0.000000
# 4 0.000000 0.000000 0.000000 0.099592 0.000000 0.000000
# 5 0.000000 0.000000 0.000000 0.000000 0.065283 0.000000
# 6 0.000000 0.000000 0.000000 0.000000 0.000000 0.071609
#
#
# Mechanical properties :
#
#
# Convention : Reuss Voigt Hill
#
# Bulk Modulus (GPa) = 53.63538 59.99748 56.81643
# Shear Modulus (GPa) = 15.81787 18.81198 17.31493
#
# Velocity S-wave (km/s) = 2.97684 3.24637 3.11452
# Velocity P-wave (km/s) = 6.47018 6.90391 6.69056
#
# Compressibility (1/GPa) = 0.01864441
#
# Stress axis : x y z
#
# Youngs Moduli (GPa) = 74.59496 51.50632 75.75140
#
# Poissons Ratio (x) = 0.37927 0.37625
# Poissons Ratio (y) = 0.54929 0.10288
# Poissons Ratio (z) = 0.37051 0.06995
#
# Static dielectric constant tensor:
#      x y z
#    x 3.318420 0.000000 0.000000 
#    y 0.000000 3.194210 0.000000 
#    z 0.000000 0.000000 3.306090 
# 
# 
# High freq. dielectric constant tensor:
#      x y z
#    x 1.678670 0.000000 0.000000 
#    y 0.000000 1.659330 0.000000 
#    z 0.000000 0.000000 1.696300 
# 
# From -- ./inp_files/18725.got.cif
#   From: 2010.03.12/outbox.cif.g09.slc.cpg/sg65_10_cif.got.tgz:18725.got - 2010.04.10 20:52:16.
