data_PCOD8267643
_publ_section_title
;
Structure prediction by ZEFSAII (Michael W. Deem and Ramdas Pophale) SiO2 
 PCOD8267643
Probable space group: C M M M
;
_chemical_formula_sum "Si O2"
_cell_formula_units_Z 96
_cell_length_a 33.411578
_cell_length_b 13.818253
_cell_length_c 10.968093
_cell_angle_alpha 90.000000
_cell_angle_beta 90.000000
_cell_angle_gamma 90.000000
_cell_volume 5063.854886
_symmetry_space_group_name_H-M "C M M M"
_symmetry_group_IT_number 65
_symmetry_cell_setting 'orthorhombic'
loop_
_space_group_symop_operation_xyz
x,y,z
-x,-y,z
x,-y,-z
-x,y,-z
-x,-y,-z
x,y,-z
-x,y,z
x,-y,z
1/2+x,1/2+y,z
1/2-x,1/2-y,z
1/2+x,1/2-y,-z
1/2-x,1/2+y,-z
1/2-x,1/2-y,-z
1/2+x,1/2+y,-z
1/2-x,1/2+y,z
1/2+x,1/2-y,z
loop_
_atom_site_type_symbol
_atom_site_label
_atom_site_fract_x
_atom_site_fract_y
_atom_site_fract_z
Si Si1 0.754422 0.362133 0.000000
Si Si2 0.849175 0.612050 0.000000
Si Si3 0.545723 0.887341 0.360852
Si Si4 0.231864 0.892925 0.261169
Si Si5 0.688473 0.892194 0.639220
Si Si6 0.351781 0.387054 0.356677
Si Si7 0.118102 0.708127 0.755584
O O1 0.750000 0.250000 0.000000
O O2 0.801080 0.391883 0.000000
O O3 0.730012 0.401779 0.884639
O O4 0.866010 0.672638 0.114038
O O5 0.864573 0.500000 0.000000
O O6 0.553684 0.854482 0.500000
O O7 0.500000 0.866001 0.324484
O O8 0.573193 0.828477 0.267025
O O9 0.555600 0.000000 0.347177
O O10 0.273635 0.838624 0.295023
O O11 0.192387 0.846254 0.320802
O O12 0.234705 0.000000 0.319516
O O13 0.699947 0.899345 0.500000
O O14 0.647570 0.834310 0.653137
O O15 0.681910 0.000000 0.695886
O O16 0.359898 0.370346 0.500000
O O17 0.357045 0.500000 0.321870
O O18 0.381625 0.324256 0.270149
#
# Coordination Sequence:
#
# PCOD8267643 Si02
#       7
#     8   8  16  16  16  16  16
#     4  12  22  34  48  71 102 151 197 234 273 324
#     4  12  24  38  56  82 119 151 187 240 283 324
#     4   9  18  34  58  88 119 146 175 221 284 353
#     4  10  20  34  49  68 101 142 184 229 280 328
#     4  10  19  30  49  76 103 134 175 224 278 337
#     4  10  22  39  57  79 109 146 192 249 297 329
#     4  12  22  36  56  81 109 150 191 225 281 342
#
# _framework density 18.957889000000002
#
# number of rings (size 3 to 8) (size 9 to 14) (size 15 to 20)
#    0.000    1.500    1.667    5.750    0.000    3.333 
#    0.000    3.333    0.000    2.000    0.000    2.333 
#    0.000    1.333    0.000    0.000    0.000    0.000 
#
# Total GULP energy -594974.130012 kJ/mol
# GULP energy per Si atom -12395.294375 kJ/mol
# Density = 1.891474 g / cm^3
# Si number density = 18.957889 Si / 1000 Ang^3
#
#
#
# Elastic Constant Matrix: (Units=GPa)
#
#
# Indices 1 2 3 4 5 6 
#
# 1 84.7551 33.4862 25.6836 0.0000 0.0000 0.0000
# 2 33.4862 89.5263 32.3498 0.0000 0.0000 0.0000
# 3 25.6836 32.3498 93.4153 0.0000 0.0000 0.0000
# 4 0.0000 0.0000 0.0000 25.8471 0.0000 0.0000
# 5 0.0000 0.0000 0.0000 0.0000 16.7842 0.0000
# 6 0.0000 0.0000 0.0000 0.0000 0.0000 27.1023
#
#
#
# Elastic Compliance Matrix: (Units=1/GPa)
#
#
# Indices 1 2 3 4 5 6 
#
# 1 0.014291 -0.004487 -0.002375 0.000000 0.000000 0.000000
# 2 -0.004487 0.014176 -0.003676 0.000000 0.000000 0.000000
# 3 -0.002375 -0.003676 0.012631 0.000000 0.000000 0.000000
# 4 0.000000 0.000000 0.000000 0.038689 0.000000 0.000000
# 5 0.000000 0.000000 0.000000 0.000000 0.059580 0.000000
# 6 0.000000 0.000000 0.000000 0.000000 0.000000 0.036897
#
#
# Mechanical properties :
#
#
# Convention : Reuss Voigt Hill
#
# Bulk Modulus (GPa) = 49.94420 50.08177 50.01298
# Shear Modulus (GPa) = 24.50797 25.69185 25.09991
#
# Velocity S-wave (km/s) = 3.59940 3.68531 3.64260
# Velocity P-wave (km/s) = 6.60880 6.67708 6.64303
#
# Compressibility (1/GPa) = 0.02002234
#
# Stress axis : x y z
#
# Youngs Moduli (GPa) = 69.97233 70.53957 79.17142
#
# Poissons Ratio (x) = 0.31652 0.18806
# Poissons Ratio (y) = 0.31398 0.29100
# Poissons Ratio (z) = 0.16621 0.25928
#
# Static dielectric constant tensor:
#      x y z
#    x 3.265030 0.000000 0.000000 
#    y 0.000000 3.624380 0.000000 
#    z 0.000000 0.000000 3.345290 
# 
# 
# High freq. dielectric constant tensor:
#      x y z
#    x 1.700990 0.000000 0.000000 
#    y 0.000000 1.739110 0.000000 
#    z 0.000000 0.000000 1.733860 
# 
# From -- ./inp_files/33906.got.cif
#   From: 2010.03.12/outbox.cif.g09.slc.cpg/sg65_17_cif.got.tgz:33906.got - 2010.04.10 20:52:16.
