data_PCOD8267174
_publ_section_title
;
Structure prediction by ZEFSAII (Michael W. Deem and Ramdas Pophale) SiO2 
 PCOD8267174
Probable space group: C M M M
;
_chemical_formula_sum "Si O2"
_cell_formula_units_Z 88
_cell_length_a 25.574791
_cell_length_b 9.249781
_cell_length_c 20.405356
_cell_angle_alpha 90.000000
_cell_angle_beta 90.000000
_cell_angle_gamma 90.000000
_cell_volume 4827.115826
_symmetry_space_group_name_H-M "C M M M"
_symmetry_group_IT_number 65
_symmetry_cell_setting 'orthorhombic'
loop_
_space_group_symop_operation_xyz
x,y,z
-x,-y,z
x,-y,-z
-x,y,-z
-x,-y,-z
x,y,-z
-x,y,z
x,-y,z
1/2+x,1/2+y,z
1/2-x,1/2-y,z
1/2+x,1/2-y,-z
1/2-x,1/2+y,-z
1/2-x,1/2-y,-z
1/2+x,1/2+y,-z
1/2-x,1/2+y,z
1/2+x,1/2-y,z
loop_
_atom_site_type_symbol
_atom_site_label
_atom_site_fract_x
_atom_site_fract_y
_atom_site_fract_z
Si Si1 0.194347 0.331794 0.500000
Si Si2 0.882146 0.839254 0.163065
Si Si3 0.196906 0.666461 0.922785
Si Si4 0.707947 0.344922 0.736661
Si Si5 0.349493 0.832255 0.637477
Si Si6 0.940744 0.667908 0.733606
O O1 0.209168 0.500000 0.500000
O O2 0.250000 0.250000 0.500000
O O3 0.156130 0.292877 0.439043
O O4 0.854409 0.744834 0.106679
O O5 0.842586 0.865749 0.221188
O O6 0.929381 0.753635 0.198236
O O7 0.899359 0.000000 0.136709
O O8 0.200899 0.500000 0.897711
O O9 0.250000 0.750000 0.903109
O O10 0.188719 0.670144 0.000000
O O11 0.731735 0.500000 0.717554
O O12 0.750000 0.250000 0.777595
O O13 0.696952 0.256016 0.670976
O O14 0.404949 0.786680 0.670931
O O15 0.339858 0.000000 0.650104
O O16 0.932279 0.500000 0.750355
O O17 0.000000 0.701662 0.712521
#
# Coordination Sequence:
#
# PCOD8267174 Si02
#       6
#     8  16  16  16  16  16
#     4  10  20  32  47  69  99 133 166 200 239 290
#     4  10  20  32  49  73  99 129 165 206 251 297
#     4  10  20  33  50  74 106 142 175 205 240 288
#     4  10  19  29  43  66  94 124 159 198 241 288
#     4   9  18  32  48  68  95 126 161 200 243 293
#     4   9  18  34  55  75  96 125 162 207 259 308
#
# _framework density 18.230346999999998
#
# number of rings (size 3 to 8) (size 9 to 14) (size 15 to 20)
#    0.000    2.364    0.000    2.727    0.000    7.273 
#    0.000    0.455    0.000    3.273    0.000    3.818 
#    0.000    6.545    0.000    0.000    0.000    0.000 
#
# Total GULP energy -545134.386516 kJ/mol
# GULP energy per Si atom -12389.417875 kJ/mol
# Density = 1.818885 g / cm^3
# Si number density = 18.230347 Si / 1000 Ang^3
#
#
#
# Elastic Constant Matrix: (Units=GPa)
#
#
# Indices 1 2 3 4 5 6 
#
# 1 89.7602 40.0052 27.7859 0.0000 0.0000 0.0000
# 2 40.0052 114.2143 36.7362 0.0000 0.0000 0.0000
# 3 27.7859 36.7362 73.8970 0.0000 0.0000 0.0000
# 4 0.0000 0.0000 0.0000 41.6497 0.0000 0.0000
# 5 0.0000 0.0000 0.0000 0.0000 5.4970 0.0000
# 6 0.0000 0.0000 0.0000 0.0000 0.0000 24.0428
#
#
#
# Elastic Compliance Matrix: (Units=1/GPa)
#
#
# Indices 1 2 3 4 5 6 
#
# 1 0.013858 -0.003783 -0.003330 0.000000 0.000000 0.000000
# 2 -0.003783 0.011454 -0.004272 0.000000 0.000000 0.000000
# 3 -0.003330 -0.004272 0.016908 0.000000 0.000000 0.000000
# 4 0.000000 0.000000 0.000000 0.024010 0.000000 0.000000
# 5 0.000000 0.000000 0.000000 0.000000 0.181918 0.000000
# 6 0.000000 0.000000 0.000000 0.000000 0.000000 0.041593
#
#
# Mechanical properties :
#
#
# Convention : Reuss Voigt Hill
#
# Bulk Modulus (GPa) = 51.41211 54.10291 52.75751
# Shear Modulus (GPa) = 15.67429 25.79417 20.73423
#
# Velocity S-wave (km/s) = 2.93540 3.76560 3.37612
# Velocity P-wave (km/s) = 6.30487 6.97482 6.64829
#
# Compressibility (1/GPa) = 0.01945067
#
# Stress axis : x y z
#
# Youngs Moduli (GPa) = 72.16278 87.30208 59.14289
#
# Poissons Ratio (x) = 0.33024 0.19695
# Poissons Ratio (y) = 0.27297 0.25266
# Poissons Ratio (z) = 0.24031 0.37295
#
# Static dielectric constant tensor:
#      x y z
#    x 3.284560 0.000000 0.000000 
#    y 0.000000 4.037580 0.000000 
#    z 0.000000 0.000000 3.334520 
# 
# 
# High freq. dielectric constant tensor:
#      x y z
#    x 1.682240 0.000000 0.000000 
#    y 0.000000 1.720140 0.000000 
#    z 0.000000 0.000000 1.695170 
# 
# From -- ./inp_files/65174.got.cif
#   From: 2010.03.12/outbox.cif.g09.slc.cpg/sg65_33_cif.got.tgz:65174.got - 2010.04.10 20:52:16.
