data_PCOD8267542
_publ_section_title
;
Structure prediction by ZEFSAII (Michael W. Deem and Ramdas Pophale) SiO2 
 PCOD8267542
Probable space group: C M M M
;
_chemical_formula_sum "Si O2"
_cell_formula_units_Z 80
_cell_length_a 26.716786
_cell_length_b 18.362249
_cell_length_c 9.393451
_cell_angle_alpha 90.000000
_cell_angle_beta 90.000000
_cell_angle_gamma 90.000000
_cell_volume 4608.241794
_symmetry_space_group_name_H-M "C M M M"
_symmetry_group_IT_number 65
_symmetry_cell_setting 'orthorhombic'
loop_
_space_group_symop_operation_xyz
x,y,z
-x,-y,z
x,-y,-z
-x,y,-z
-x,-y,-z
x,y,-z
-x,y,z
x,-y,z
1/2+x,1/2+y,z
1/2-x,1/2-y,z
1/2+x,1/2-y,-z
1/2-x,1/2+y,-z
1/2-x,1/2-y,-z
1/2+x,1/2+y,-z
1/2-x,1/2+y,z
1/2+x,1/2-y,z
loop_
_atom_site_type_symbol
_atom_site_label
_atom_site_fract_x
_atom_site_fract_y
_atom_site_fract_z
Si Si1 0.299449 0.790671 0.664662
Si Si2 0.598425 0.289556 0.665077
Si Si3 0.942123 0.916545 0.163333
Si Si4 0.944461 0.337134 0.837049
Si Si5 0.345413 0.917460 0.833372
O O1 0.294207 0.812426 0.500000
O O2 0.250000 0.750000 0.720591
O O3 0.344959 0.735698 0.690849
O O4 0.307011 0.865217 0.751383
O O5 0.584608 0.293691 0.500000
O O6 0.592596 0.368704 0.734453
O O7 0.560445 0.233799 0.739378
O O8 0.000000 0.903098 0.200939
O O9 0.927541 0.000000 0.190981
O O10 0.931752 0.895375 0.000000
O O11 0.902980 0.397172 0.795840
O O12 0.000000 0.370669 0.813895
O O13 0.937086 0.312050 0.000000
O O14 0.336322 0.000000 0.782516
O O15 0.335044 0.908867 0.000000
#
# Coordination Sequence:
#
# PCOD8267542 Si02
#       5
#    16  16  16  16  16
#     4   9  19  36  54  70  91 123 161 196 234 283
#     4  10  19  30  47  70  93 118 154 200 240 274
#     4   9  18  32  48  66  92 127 160 187 224 280
#     4   9  17  29  46  68  96 131 162 185 219 272
#     4   9  18  32  50  74 101 125 154 194 234 272
#
# _framework density 17.360201
#
# number of rings (size 3 to 8) (size 9 to 14) (size 15 to 20)
#    0.000    2.800    0.000    1.800    0.000    5.600 
#    0.000    4.000    0.000    6.000    0.000    5.600 
#    0.000    0.000    0.000    0.000    0.000    0.000 
#
# Total GULP energy -496027.232241 kJ/mol
# GULP energy per Si atom -12400.680806 kJ/mol
# Density = 1.732069 g / cm^3
# Si number density = 17.360201 Si / 1000 Ang^3
#
#
#
# Elastic Constant Matrix: (Units=GPa)
#
#
# Indices 1 2 3 4 5 6 
#
# 1 92.0649 57.6197 40.0088 0.0000 0.0000 0.0000
# 2 57.6197 134.9821 64.9732 0.0000 0.0000 0.0000
# 3 40.0088 64.9732 76.6524 0.0000 0.0000 0.0000
# 4 0.0000 0.0000 0.0000 21.9856 0.0000 0.0000
# 5 0.0000 0.0000 0.0000 0.0000 25.1424 0.0000
# 6 0.0000 0.0000 0.0000 0.0000 0.0000 19.3315
#
#
#
# Elastic Compliance Matrix: (Units=1/GPa)
#
#
# Indices 1 2 3 4 5 6 
#
# 1 0.015589 -0.004625 -0.004216 0.000000 0.000000 0.000000
# 2 -0.004625 0.013886 -0.009357 0.000000 0.000000 0.000000
# 3 -0.004216 -0.009357 0.023178 0.000000 0.000000 0.000000
# 4 0.000000 0.000000 0.000000 0.045484 0.000000 0.000000
# 5 0.000000 0.000000 0.000000 0.000000 0.039773 0.000000
# 6 0.000000 0.000000 0.000000 0.000000 0.000000 0.051729
#
#
# Mechanical properties :
#
#
# Convention : Reuss Voigt Hill
#
# Bulk Modulus (GPa) = 61.51174 69.87810 65.69492
# Shear Modulus (GPa) = 21.60256 22.69843 22.15050
#
# Velocity S-wave (km/s) = 3.53139 3.61986 3.57590
# Velocity P-wave (km/s) = 7.22061 7.60332 7.41443
#
# Compressibility (1/GPa) = 0.01625706
#
# Stress axis : x y z
#
# Youngs Moduli (GPa) = 64.14908 72.01320 43.14503
#
# Poissons Ratio (x) = 0.33305 0.18192
# Poissons Ratio (y) = 0.29668 0.40369
# Poissons Ratio (z) = 0.27048 0.67380
#
# Static dielectric constant tensor:
#      x y z
#    x 3.156290 0.000000 0.000000 
#    y 0.000000 3.183530 0.000000 
#    z 0.000000 0.000000 3.218560 
# 
# 
# High freq. dielectric constant tensor:
#      x y z
#    x 1.657970 0.000000 0.000000 
#    y 0.000000 1.665450 0.000000 
#    z 0.000000 0.000000 1.669410 
# 
# From -- ./inp_files/9609.got.cif
#   From: 2010.03.12/outbox.cif.g09.slc.cpg/sg65_5_cif.got.tgz:9609.got - 2010.04.10 20:52:16.
