data_PCOD8267477
_publ_section_title
;
Structure prediction by ZEFSAII (Michael W. Deem and Ramdas Pophale) SiO2 
 PCOD8267477
Probable space group: C M M M
;
_chemical_formula_sum "Si O2"
_cell_formula_units_Z 96
_cell_length_a 18.883535
_cell_length_b 23.240503
_cell_length_c 13.512229
_cell_angle_alpha 90.000000
_cell_angle_beta 90.000000
_cell_angle_gamma 90.000000
_cell_volume 5930.015353
_symmetry_space_group_name_H-M "C M M M"
_symmetry_group_IT_number 65
_symmetry_cell_setting 'orthorhombic'
loop_
_space_group_symop_operation_xyz
x,y,z
-x,-y,z
x,-y,-z
-x,y,-z
-x,-y,-z
x,y,-z
-x,y,z
x,-y,z
1/2+x,1/2+y,z
1/2-x,1/2-y,z
1/2+x,1/2-y,-z
1/2-x,1/2+y,-z
1/2-x,1/2-y,-z
1/2+x,1/2+y,-z
1/2-x,1/2+y,z
1/2+x,1/2-y,z
loop_
_atom_site_type_symbol
_atom_site_label
_atom_site_fract_x
_atom_site_fract_y
_atom_site_fract_z
Si Si1 0.919042 0.935891 0.735488
Si Si2 0.082580 0.173381 0.613602
Si Si3 0.815785 0.115494 0.116756
Si Si4 0.670849 0.266577 0.775392
Si Si5 0.331931 0.936123 0.116694
Si Si6 0.580943 0.829346 0.116511
O O1 0.899313 0.891453 0.648429
O O2 0.874808 0.924615 0.834392
O O3 0.000000 0.928267 0.767601
O O4 0.903860 0.000000 0.695025
O O5 0.105025 0.179204 0.500000
O O6 0.128307 0.218396 0.676065
O O7 0.000000 0.187470 0.629176
O O8 0.827561 0.181285 0.147318
O O9 0.740155 0.092941 0.155884
O O10 0.823526 0.110272 0.000000
O O11 0.750000 0.250000 0.744104
O O12 0.632028 0.213957 0.827576
O O13 0.397230 0.894648 0.145743
O O14 0.342889 0.000000 0.163500
O O15 0.326504 0.942330 0.000000
O O16 0.500000 0.819367 0.148809
O O17 0.591274 0.819443 0.000000
#
# Coordination Sequence:
#
# PCOD8267477 Si02
#       6
#    16  16  16  16  16  16
#     4   9  18  31  47  70  98 129 166 202 236 279
#     4   9  19  35  52  71  96 124 156 199 250 298
#     4  10  19  30  46  68  99 135 166 195 234 280
#     4  11  20  32  51  72  96 126 160 201 242 291
#     4   9  17  29  45  65  90 125 165 200 236 276
#     4  10  20  32  47  70  99 130 164 200 237 283
#
# _framework density 16.188828999999998
#
# number of rings (size 3 to 8) (size 9 to 14) (size 15 to 20)
#    0.000    2.333    1.667    1.500    0.000    3.667 
#    0.000    4.167    0.000    0.000    0.000    0.000 
#    0.000    0.667    0.000    3.500    0.000    0.167 
#
# Total GULP energy -595156.963252 kJ/mol
# GULP energy per Si atom -12399.103401 kJ/mol
# Density = 1.615198 g / cm^3
# Si number density = 16.188829 Si / 1000 Ang^3
#
#
#
# Elastic Constant Matrix: (Units=GPa)
#
#
# Indices 1 2 3 4 5 6 
#
# 1 99.4666 50.1978 45.7329 0.0000 0.0000 0.0000
# 2 50.1978 109.6930 35.4140 0.0000 0.0000 0.0000
# 3 45.7329 35.4140 75.4529 0.0000 0.0000 0.0000
# 4 0.0000 0.0000 0.0000 9.5168 0.0000 0.0000
# 5 0.0000 0.0000 0.0000 0.0000 18.5908 0.0000
# 6 0.0000 0.0000 0.0000 0.0000 0.0000 28.1732
#
#
#
# Elastic Compliance Matrix: (Units=1/GPa)
#
#
# Indices 1 2 3 4 5 6 
#
# 1 0.015904 -0.004910 -0.007335 0.000000 0.000000 0.000000
# 2 -0.004910 0.012260 -0.002778 0.000000 0.000000 0.000000
# 3 -0.007335 -0.002778 0.019003 0.000000 0.000000 0.000000
# 4 0.000000 0.000000 0.000000 0.105077 0.000000 0.000000
# 5 0.000000 0.000000 0.000000 0.000000 0.053790 0.000000
# 6 0.000000 0.000000 0.000000 0.000000 0.000000 0.035495
#
#
# Mechanical properties :
#
#
# Convention : Reuss Voigt Hill
#
# Bulk Modulus (GPa) = 58.40912 60.81132 59.61022
# Shear Modulus (GPa) = 18.03211 21.47403 19.75307
#
# Velocity S-wave (km/s) = 3.34108 3.64603 3.49688
# Velocity P-wave (km/s) = 7.14436 7.44110 7.29424
#
# Compressibility (1/GPa) = 0.01712061
#
# Stress axis : x y z
#
# Youngs Moduli (GPa) = 62.87689 81.56463 52.62240
#
# Poissons Ratio (x) = 0.40047 0.38600
# Poissons Ratio (y) = 0.30872 0.14621
# Poissons Ratio (z) = 0.46121 0.22662
#
# Static dielectric constant tensor:
#      x y z
#    x 3.178400 0.000000 0.000000 
#    y 0.000000 3.282300 0.000000 
#    z 0.000000 0.000000 2.758350 
# 
# 
# High freq. dielectric constant tensor:
#      x y z
#    x 1.629180 0.000000 0.000000 
#    y 0.000000 1.634420 0.000000 
#    z 0.000000 0.000000 1.584350 
# 
# From -- ./inp_files/27102.got.cif
#   From: 2010.03.12/outbox.cif.g09.slc.cpg/sg65_14_cif.got.tgz:27102.got - 2010.04.10 20:52:16.
