data_PCOD8267716
_publ_section_title
;
Structure prediction by ZEFSAII (Michael W. Deem and Ramdas Pophale) SiO2 
 PCOD8267716
Probable space group: C M M M
;
_chemical_formula_sum "Si O2"
_cell_formula_units_Z 96
_cell_length_a 27.365217
_cell_length_b 8.965993
_cell_length_c 24.306851
_cell_angle_alpha 90.000000
_cell_angle_beta 90.000000
_cell_angle_gamma 90.000000
_cell_volume 5963.840097
_symmetry_space_group_name_H-M "C M M M"
_symmetry_group_IT_number 65
_symmetry_cell_setting 'orthorhombic'
loop_
_space_group_symop_operation_xyz
x,y,z
-x,-y,z
x,-y,-z
-x,y,-z
-x,-y,-z
x,y,-z
-x,y,z
x,-y,z
1/2+x,1/2+y,z
1/2-x,1/2-y,z
1/2+x,1/2-y,-z
1/2-x,1/2+y,-z
1/2-x,1/2-y,-z
1/2+x,1/2+y,-z
1/2-x,1/2+y,z
1/2+x,1/2-y,z
loop_
_atom_site_type_symbol
_atom_site_label
_atom_site_fract_x
_atom_site_fract_y
_atom_site_fract_z
Si Si1 0.646430 0.324873 0.060049
Si Si2 0.891287 0.323672 0.222888
Si Si3 0.941969 0.831316 0.440127
Si Si4 0.555122 0.175474 0.667545
Si Si5 0.301216 0.322210 0.831559
Si Si6 0.555209 0.327578 0.127797
O O1 0.652729 0.500000 0.054821
O O2 0.683671 0.266868 0.106922
O O3 0.590943 0.285161 0.077470
O O4 0.657274 0.251193 0.000000
O O5 0.882511 0.500000 0.218673
O O6 0.910158 0.273728 0.282736
O O7 0.840978 0.236874 0.211695
O O8 0.932872 0.275718 0.179754
O O9 0.923106 0.772180 0.500000
O O10 0.921328 0.734929 0.389429
O O11 0.000000 0.822254 0.439841
O O12 0.924092 0.000000 0.431739
O O13 0.500000 0.238432 0.676803
O O14 0.553007 0.000000 0.663762
O O15 0.298409 0.500000 0.827772
O O16 0.250000 0.250000 0.815680
O O17 0.500000 0.297972 0.108279
O O18 0.563539 0.500000 0.144989
#
# Coordination Sequence:
#
# PCOD8267716 Si02
#       6
#    16  16  16  16  16  16
#     4   8  15  28  45  66  90 113 140 175 213 258
#     4  10  19  31  46  64  88 116 147 184 222 261
#     4   8  14  24  37  55  82 117 154 187 217 248
#     4   9  17  27  40  61  88 119 153 184 215 251
#     4  10  20  34  51  69  87 109 138 174 221 272
#     4   9  17  28  43  64  89 118 150 181 215 256
#
# _framework density 16.097010999999998
#
# number of rings (size 3 to 8) (size 9 to 14) (size 15 to 20)
#    0.000    3.000    0.000    3.000    0.000    3.333 
#    0.000    5.000    0.000   12.000    0.000    4.667 
#    0.000    0.667    0.000    2.167    0.000    3.167 
#
# Total GULP energy -594885.963692 kJ/mol
# GULP energy per Si atom -12393.457577 kJ/mol
# Density = 1.606037 g / cm^3
# Si number density = 16.097011 Si / 1000 Ang^3
#
#
#
# Elastic Constant Matrix: (Units=GPa)
#
#
# Indices 1 2 3 4 5 6 
#
# 1 82.3625 26.4738 40.0341 0.0000 0.0000 0.0000
# 2 26.4738 41.0017 34.4083 0.0000 0.0000 0.0000
# 3 40.0341 34.4083 135.1444 0.0000 0.0000 0.0000
# 4 0.0000 0.0000 0.0000 20.9136 0.0000 0.0000
# 5 0.0000 0.0000 0.0000 0.0000 13.4859 0.0000
# 6 0.0000 0.0000 0.0000 0.0000 0.0000 19.8482
#
#
#
# Elastic Compliance Matrix: (Units=1/GPa)
#
#
# Indices 1 2 3 4 5 6 
#
# 1 0.016056 -0.008108 -0.002692 0.000000 0.000000 0.000000
# 2 -0.008108 0.035110 -0.006537 0.000000 0.000000 0.000000
# 3 -0.002692 -0.006537 0.009861 0.000000 0.000000 0.000000
# 4 0.000000 0.000000 0.000000 0.047816 0.000000 0.000000
# 5 0.000000 0.000000 0.000000 0.000000 0.074152 0.000000
# 6 0.000000 0.000000 0.000000 0.000000 0.000000 0.050382
#
#
# Mechanical properties :
#
#
# Convention : Reuss Voigt Hill
#
# Bulk Modulus (GPa) = 37.94602 51.14899 44.54751
# Shear Modulus (GPa) = 18.06117 21.35570 19.70843
#
# Velocity S-wave (km/s) = 3.35329 3.64632 3.50287
# Velocity P-wave (km/s) = 6.21428 7.04074 6.64038
#
# Compressibility (1/GPa) = 0.02635322
#
# Stress axis : x y z
#
# Youngs Moduli (GPa) = 62.28161 28.48156 101.40542
#
# Poissons Ratio (x) = 0.23093 0.27299
# Poissons Ratio (y) = 0.50497 0.66293
# Poissons Ratio (z) = 0.16766 0.18620
#
# Static dielectric constant tensor:
#      x y z
#    x 2.850880 0.000000 0.000000 
#    y 0.000000 2.929440 0.000000 
#    z 0.000000 0.000000 3.430370 
# 
# 
# High freq. dielectric constant tensor:
#      x y z
#    x 1.586120 0.000000 0.000000 
#    y 0.000000 1.607490 0.000000 
#    z 0.000000 0.000000 1.618440 
# 
# From -- ./inp_files/68028.got.cif
#   From: 2010.03.12/outbox.cif.g09.slc.cpg/sg65_35_cif.got.tgz:68028.got - 2010.04.10 20:52:16.
