data_PCOD8267633
_publ_section_title
;
Structure prediction by ZEFSAII (Michael W. Deem and Ramdas Pophale) SiO2 
 PCOD8267633
Probable space group: C M M M
;
_chemical_formula_sum "Si O2"
_cell_formula_units_Z 96
_cell_length_a 10.106249
_cell_length_b 24.887561
_cell_length_c 23.461557
_cell_angle_alpha 90.000000
_cell_angle_beta 90.000000
_cell_angle_gamma 90.000000
_cell_volume 5901.048200
_symmetry_space_group_name_H-M "C M M M"
_symmetry_group_IT_number 65
_symmetry_cell_setting 'orthorhombic'
loop_
_space_group_symop_operation_xyz
x,y,z
-x,-y,z
x,-y,-z
-x,y,-z
-x,-y,-z
x,y,-z
-x,y,z
x,-y,z
1/2+x,1/2+y,z
1/2-x,1/2-y,z
1/2+x,1/2-y,-z
1/2-x,1/2+y,-z
1/2-x,1/2-y,-z
1/2+x,1/2+y,-z
1/2-x,1/2+y,z
1/2+x,1/2-y,z
loop_
_atom_site_type_symbol
_atom_site_label
_atom_site_fract_x
_atom_site_fract_y
_atom_site_fract_z
Si Si1 0.500000 0.376696 0.063818
Si Si2 0.500000 0.062263 0.172165
Si Si3 0.156769 0.302658 0.315360
Si Si4 0.254265 0.874167 0.214435
Si Si5 0.500000 0.563946 0.180535
Si Si6 0.851958 0.702384 0.560340
Si Si7 0.500000 0.125300 0.063016
Si Si8 0.748349 0.313056 0.101511
O O1 0.500000 0.422671 0.112628
O O2 0.624924 0.338347 0.069539
O O3 0.500000 0.402800 0.000000
O O4 0.627601 0.086090 0.201454
O O5 0.500000 0.074488 0.104875
O O6 0.500000 0.000000 0.182448
O O7 0.250000 0.250000 0.309710
O O8 0.219514 0.347840 0.275408
O O9 0.169063 0.328302 0.379484
O O10 0.000000 0.290553 0.300637
O O11 0.123784 0.910413 0.213222
O O12 0.244983 0.826214 0.168646
O O13 0.500000 0.500000 0.187336
O O14 0.835142 0.668703 0.500000
O O15 0.750000 0.750000 0.558180
O O16 0.000000 0.726905 0.561826
O O17 0.624123 0.163172 0.071870
O O18 0.500000 0.100598 0.000000
O O19 0.750000 0.250000 0.093230
#
# Coordination Sequence:
#
# PCOD8267633 Si02
#       8
#     8   8  16  16   8  16   8  16
#     4  10  21  35  52  73  93 119 157 195 235 292
#     4  10  20  36  55  68  89 120 152 202 255 294
#     4  10  19  30  48  75 107 141 169 197 235 280
#     4  10  20  35  50  72  98 123 164 203 239 295
#     4  10  22  38  55  72  93 122 156 208 265 300
#     4   8  14  25  41  64  98 138 173 199 225 264
#     4  10  21  33  48  71  93 115 151 191 227 286
#     4  10  20  33  48  68  97 128 153 184 229 279
#
# _framework density 16.268295999999999
#
# number of rings (size 3 to 8) (size 9 to 14) (size 15 to 20)
#    0.000    2.333    0.833    2.000    1.167    2.333 
#    3.000    0.000    0.000    6.000    0.000    0.000 
#    0.000    4.000    0.000    0.000    0.000    0.000 
#
# Total GULP energy -594655.908873 kJ/mol
# GULP energy per Si atom -12388.664768 kJ/mol
# Density = 1.623127 g / cm^3
# Si number density = 16.268296 Si / 1000 Ang^3
#
#
#
# Elastic Constant Matrix: (Units=GPa)
#
#
# Indices 1 2 3 4 5 6 
#
# 1 127.1830 36.0194 47.8706 0.0000 0.0000 0.0000
# 2 36.0194 74.1408 47.5930 0.0000 0.0000 0.0000
# 3 47.8706 47.5930 155.6438 0.0000 0.0000 0.0000
# 4 0.0000 0.0000 0.0000 11.4977 0.0000 0.0000
# 5 0.0000 0.0000 0.0000 0.0000 23.4315 0.0000
# 6 0.0000 0.0000 0.0000 0.0000 0.0000 92.9151
#
#
#
# Elastic Compliance Matrix: (Units=1/GPa)
#
#
# Indices 1 2 3 4 5 6 
#
# 1 0.009543 -0.003424 -0.001888 0.000000 0.000000 0.000000
# 2 -0.003424 0.018011 -0.004454 0.000000 0.000000 0.000000
# 3 -0.001888 -0.004454 0.008368 0.000000 0.000000 0.000000
# 4 0.000000 0.000000 0.000000 0.086974 0.000000 0.000000
# 5 0.000000 0.000000 0.000000 0.000000 0.042678 0.000000
# 6 0.000000 0.000000 0.000000 0.000000 0.000000 0.010763
#
#
# Mechanical properties :
#
#
# Convention : Reuss Voigt Hill
#
# Bulk Modulus (GPa) = 61.01849 68.88148 64.94999
# Shear Modulus (GPa) = 24.83470 40.60117 32.71793
#
# Velocity S-wave (km/s) = 3.91137 5.00114 4.48945
# Velocity P-wave (km/s) = 7.61495 8.70525 8.17829
#
# Compressibility (1/GPa) = 0.01638847
#
# Stress axis : x y z
#
# Youngs Moduli (GPa) = 104.78750 55.52255 119.50833
#
# Poissons Ratio (x) = 0.19013 0.22564
# Poissons Ratio (y) = 0.35882 0.53231
# Poissons Ratio (z) = 0.19784 0.24731
#
# Static dielectric constant tensor:
#      x y z
#    x 3.396930 0.000000 0.000000 
#    y 0.000000 2.676140 0.000000 
#    z 0.000000 0.000000 3.544320 
# 
# 
# High freq. dielectric constant tensor:
#      x y z
#    x 1.653740 0.000000 0.000000 
#    y 0.000000 1.579640 0.000000 
#    z 0.000000 0.000000 1.634740 
# 
# From -- ./inp_files/67933.got.cif
#   From: 2010.03.12/outbox.cif.g09.slc.cpg/sg65_34_cif.got.tgz:67933.got - 2010.04.10 20:52:16.
