data_PCOD8267777
_publ_section_title
;
Structure prediction by ZEFSAII (Michael W. Deem and Ramdas Pophale) SiO2 
 PCOD8267777
Probable space group: C M M M
;
_chemical_formula_sum "Si O2"
_cell_formula_units_Z 96
_cell_length_a 26.838444
_cell_length_b 9.292878
_cell_length_c 23.881063
_cell_angle_alpha 90.000000
_cell_angle_beta 90.000000
_cell_angle_gamma 90.000000
_cell_volume 5956.089612
_symmetry_space_group_name_H-M "C M M M"
_symmetry_group_IT_number 65
_symmetry_cell_setting 'orthorhombic'
loop_
_space_group_symop_operation_xyz
x,y,z
-x,-y,z
x,-y,-z
-x,y,-z
-x,-y,-z
x,y,-z
-x,y,z
x,-y,z
1/2+x,1/2+y,z
1/2-x,1/2-y,z
1/2+x,1/2-y,-z
1/2-x,1/2+y,-z
1/2-x,1/2-y,-z
1/2+x,1/2+y,-z
1/2-x,1/2+y,z
1/2+x,1/2-y,z
loop_
_atom_site_type_symbol
_atom_site_label
_atom_site_fract_x
_atom_site_fract_y
_atom_site_fract_z
Si Si1 0.555128 0.834073 0.823902
Si Si2 0.698530 0.832806 0.000000
Si Si3 0.654100 0.167690 0.117496
Si Si4 0.559268 0.837465 0.500000
Si Si5 0.900034 0.833543 0.275176
Si Si6 0.298255 0.668633 0.782829
Si Si7 0.442064 0.666916 0.607496
O O1 0.500000 0.796963 0.847486
O O2 0.596052 0.794466 0.871018
O O3 0.563894 0.748877 0.766851
O O4 0.559472 0.000000 0.807588
O O5 0.750000 0.750000 0.000000
O O6 0.665685 0.790345 0.946230
O O7 0.711807 0.000000 0.000000
O O8 0.688830 0.264135 0.156896
O O9 0.665365 0.000000 0.129610
O O10 0.500000 0.831912 0.500000
O O11 0.579139 0.757326 0.444690
O O12 0.579522 0.000000 0.500000
O O13 0.842406 0.802428 0.261212
O O14 0.910899 0.783029 0.338310
O O15 0.913365 0.000000 0.268113
O O16 0.287459 0.500000 0.790612
O O17 0.250000 0.750000 0.758517
O O18 0.500000 0.699330 0.618857
O O19 0.433561 0.500000 0.593645
#
# Coordination Sequence:
#
# PCOD8267777 Si02
#       7
#    16   8  16   8  16  16  16
#     4   9  17  29  45  65  90 118 145 176 216 260
#     4  10  20  32  47  65  85 111 144 184 225 264
#     4   9  18  32  47  65  89 115 145 179 217 262
#     4   9  17  27  39  59  88 119 148 177 210 249
#     4   9  18  30  45  66  89 115 149 183 215 257
#     4  10  19  31  47  67  90 115 143 178 222 266
#     4   9  16  27  43  62  86 116 147 177 209 248
#
# _framework density 16.117957000000001
#
# number of rings (size 3 to 8) (size 9 to 14) (size 15 to 20)
#    0.000    2.750    0.000    1.750    0.000    5.333 
#    0.000    2.083    0.000    2.500    0.000    0.583 
#    0.000    6.000    0.000    0.000    0.000    0.000 
#
# Total GULP energy -595188.350862 kJ/mol
# GULP energy per Si atom -12399.757310 kJ/mol
# Density = 1.608127 g / cm^3
# Si number density = 16.117957 Si / 1000 Ang^3
#
#
#
# Elastic Constant Matrix: (Units=GPa)
#
#
# Indices 1 2 3 4 5 6 
#
# 1 96.3863 42.4412 58.3351 0.0000 0.0000 0.0000
# 2 42.4412 65.8480 54.5946 0.0000 0.0000 0.0000
# 3 58.3351 54.5946 141.6330 0.0000 0.0000 0.0000
# 4 0.0000 0.0000 0.0000 24.8797 0.0000 0.0000
# 5 0.0000 0.0000 0.0000 0.0000 19.2044 0.0000
# 6 0.0000 0.0000 0.0000 0.0000 0.0000 21.4553
#
#
#
# Elastic Compliance Matrix: (Units=1/GPa)
#
#
# Indices 1 2 3 4 5 6 
#
# 1 0.015755 -0.007017 -0.003784 0.000000 0.000000 0.000000
# 2 -0.007017 0.025445 -0.006918 0.000000 0.000000 0.000000
# 3 -0.003784 -0.006918 0.011286 0.000000 0.000000 0.000000
# 4 0.000000 0.000000 0.000000 0.040193 0.000000 0.000000
# 5 0.000000 0.000000 0.000000 0.000000 0.052071 0.000000
# 6 0.000000 0.000000 0.000000 0.000000 0.000000 0.046609
#
#
# Mechanical properties :
#
#
# Convention : Reuss Voigt Hill
#
# Bulk Modulus (GPa) = 58.66105 68.28991 63.47548
# Shear Modulus (GPa) = 21.50720 23.00762 22.25741
#
# Velocity S-wave (km/s) = 3.65686 3.78226 3.72009
# Velocity P-wave (km/s) = 7.36912 7.84441 7.61048
#
# Compressibility (1/GPa) = 0.01704709
#
# Stress axis : x y z
#
# Youngs Moduli (GPa) = 63.47176 39.30054 88.60700
#
# Poissons Ratio (x) = 0.27578 0.33531
# Poissons Ratio (y) = 0.44539 0.61298
# Poissons Ratio (z) = 0.24019 0.27188
#
# Static dielectric constant tensor:
#      x y z
#    x 3.114390 0.000000 0.000000 
#    y 0.000000 3.113560 0.000000 
#    z 0.000000 0.000000 3.057540 
# 
# 
# High freq. dielectric constant tensor:
#      x y z
#    x 1.605730 0.000000 0.000000 
#    y 0.000000 1.623820 0.000000 
#    z 0.000000 0.000000 1.609050 
# 
# From -- ./inp_files/71751.got.cif
#   From: 2010.03.12/outbox.cif.g09.slc.cpg/sg65_36_cif.got.tgz:71751.got - 2010.04.10 20:52:16.
