data_PCOD8267421
_publ_section_title
;
Structure prediction by ZEFSAII (Michael W. Deem and Ramdas Pophale) SiO2 
 PCOD8267421
Probable space group: C M M M
;
_chemical_formula_sum "Si O2"
_cell_formula_units_Z 96
_cell_length_a 8.945434
_cell_length_b 25.563472
_cell_length_c 24.494258
_cell_angle_alpha 90.000000
_cell_angle_beta 90.000000
_cell_angle_gamma 90.000000
_cell_volume 5601.257554
_symmetry_space_group_name_H-M "C M M M"
_symmetry_group_IT_number 65
_symmetry_cell_setting 'orthorhombic'
loop_
_space_group_symop_operation_xyz
x,y,z
-x,-y,z
x,-y,-z
-x,y,-z
-x,-y,-z
x,y,-z
-x,y,z
x,-y,z
1/2+x,1/2+y,z
1/2-x,1/2-y,z
1/2+x,1/2-y,-z
1/2-x,1/2+y,-z
1/2-x,1/2-y,-z
1/2+x,1/2+y,-z
1/2-x,1/2+y,z
1/2+x,1/2-y,z
loop_
_atom_site_type_symbol
_atom_site_label
_atom_site_fract_x
_atom_site_fract_y
_atom_site_fract_z
Si Si1 0.823054 0.806892 0.676186
Si Si2 0.331258 0.500000 0.873441
Si Si3 0.824987 0.196000 0.062689
Si Si4 0.171187 0.604703 0.744164
Si Si5 0.668667 0.500000 0.743587
Si Si6 0.173905 0.194679 0.442399
Si Si7 0.328939 0.104138 0.873633
O O1 0.750000 0.750000 0.683537
O O2 0.756274 0.845400 0.720790
O O3 0.783498 0.831710 0.615766
O O4 0.000000 0.801819 0.685436
O O5 0.500000 0.500000 0.896487
O O6 0.332024 0.500000 0.808492
O O7 0.244941 0.449247 0.895470
O O8 0.750000 0.250000 0.080624
O O9 0.760445 0.151543 0.100841
O O10 0.000000 0.201038 0.072840
O O11 0.787226 0.182695 0.000000
O O12 0.246804 0.551532 0.721921
O O13 0.183878 0.608147 0.808910
O O14 0.000000 0.604981 0.724767
O O15 0.500000 0.500000 0.720452
O O16 0.215376 0.164070 0.500000
O O17 0.250000 0.250000 0.444439
O O18 0.000000 0.205945 0.441286
O O19 0.500000 0.105503 0.893100
#
# Coordination Sequence:
#
# PCOD8267421 Si02
#       7
#    16   8  16  16   8  16  16
#     4  10  19  30  45  67  97 130 161 196 239 285
#     4   9  17  31  52  76 101 126 154 194 239 282
#     4  10  21  37  56  76  98 126 161 200 239 281
#     4  10  20  33  49  71  99 129 160 195 236 282
#     4   9  17  31  51  72  93 122 161 199 235 279
#     4   8  14  25  41  61  86 118 156 195 234 278
#     4  10  20  34  53  75  99 128 160 195 237 284
#
# _framework density 17.139008
#
# number of rings (size 3 to 8) (size 9 to 14) (size 15 to 20)
#    0.000    2.500    0.000    2.500    0.000    6.333 
#    0.000    0.417    0.000    2.500    0.000    0.583 
#    0.000    4.667    0.000    0.000    0.000    0.000 
#
# Total GULP energy -594835.785612 kJ/mol
# GULP energy per Si atom -12392.412200 kJ/mol
# Density = 1.710000 g / cm^3
# Si number density = 17.139008 Si / 1000 Ang^3
#
#
#
# Elastic Constant Matrix: (Units=GPa)
#
#
# Indices 1 2 3 4 5 6 
#
# 1 106.0603 58.3228 29.1561 0.0000 0.0000 0.0000
# 2 58.3228 117.4538 33.3316 0.0000 0.0000 0.0000
# 3 29.1561 33.3316 31.2338 0.0000 0.0000 0.0000
# 4 0.0000 0.0000 0.0000 -7.3554 0.0000 0.0000
# 5 0.0000 0.0000 0.0000 0.0000 19.1420 0.0000
# 6 0.0000 0.0000 0.0000 0.0000 0.0000 34.4352
#
#
#
# Elastic Compliance Matrix: (Units=1/GPa)
#
#
# Indices 1 2 3 4 5 6 
#
# 1 0.014326 -0.004760 -0.008293 0.000000 0.000000 0.000000
# 2 -0.004760 0.013794 -0.010277 0.000000 0.000000 0.000000
# 3 -0.008293 -0.010277 0.050725 0.000000 0.000000 0.000000
# 4 0.000000 0.000000 0.000000 -0.135954 0.000000 0.000000
# 5 0.000000 0.000000 0.000000 0.000000 0.052241 0.000000
# 6 0.000000 0.000000 0.000000 0.000000 0.000000 0.029040
#
#
# Mechanical properties :
#
#
# Convention : Reuss Voigt Hill
#
# Bulk Modulus (GPa) = 31.07062 55.15210 43.11136
# Shear Modulus (GPa) = 61.30289 18.17351 39.73820
#
# Velocity S-wave (km/s) = 5.98713 3.25985 4.82039
# Velocity P-wave (km/s) = 8.12171 6.81307 7.49601
#
# Compressibility (1/GPa) = 0.03218475
#
# Stress axis : x y z
#
# Youngs Moduli (GPa) = 69.80278 72.49408 19.71400
#
# Poissons Ratio (x) = 0.34509 0.16349
# Poissons Ratio (y) = 0.33228 0.20260
# Poissons Ratio (z) = 0.57888 0.74503
#
# Static dielectric constant tensor:
#      x y z
#    x 3.398320 0.000000 0.000000 
#    y 0.000000 3.044350 0.000000 
#    z 0.000000 0.000000 3.400870 
# 
# 
# High freq. dielectric constant tensor:
#      x y z
#    x 1.681990 0.000000 0.000000 
#    y 0.000000 1.642520 0.000000 
#    z 0.000000 0.000000 1.647480 
# 
# From -- ./inp_files/67912.got.cif
#   From: 2010.03.12/outbox.cif.g09.slc.cpg/sg65_34_cif.got.tgz:67912.got - 2010.04.10 20:52:16.
