data_PCOD8267454
_publ_section_title
;
Structure prediction by ZEFSAII (Michael W. Deem and Ramdas Pophale) SiO2 
 PCOD8267454
Probable space group: C M M M
;
_chemical_formula_sum "Si O2"
_cell_formula_units_Z 112
_cell_length_a 29.210600
_cell_length_b 14.915077
_cell_length_c 13.697911
_cell_angle_alpha 90.000000
_cell_angle_beta 90.000000
_cell_angle_gamma 90.000000
_cell_volume 5967.883238
_symmetry_space_group_name_H-M "C M M M"
_symmetry_group_IT_number 65
_symmetry_cell_setting 'orthorhombic'
loop_
_space_group_symop_operation_xyz
x,y,z
-x,-y,z
x,-y,-z
-x,y,-z
-x,-y,-z
x,y,-z
-x,y,z
x,-y,z
1/2+x,1/2+y,z
1/2-x,1/2-y,z
1/2+x,1/2-y,-z
1/2-x,1/2+y,-z
1/2-x,1/2-y,-z
1/2+x,1/2+y,-z
1/2-x,1/2+y,z
1/2+x,1/2-y,z
loop_
_atom_site_type_symbol
_atom_site_label
_atom_site_fract_x
_atom_site_fract_y
_atom_site_fract_z
Si Si1 0.371091 0.401277 0.887371
Si Si2 0.638876 0.142897 0.609746
Si Si3 0.051878 0.395656 0.722979
Si Si4 0.820688 0.599782 0.807848
Si Si5 0.403010 0.788385 0.885517
Si Si6 0.703413 0.304222 0.394145
Si Si7 0.721478 0.601985 0.794896
O O1 0.382813 0.500000 0.838726
O O2 0.400434 0.316074 0.848940
O O3 0.317072 0.379280 0.875513
O O4 0.381631 0.409772 0.000000
O O5 0.644877 0.101767 0.500000
O O6 0.585095 0.141872 0.638278
O O7 0.666530 0.089037 0.692762
O O8 0.658102 0.243412 0.611026
O O9 0.062933 0.500000 0.744426
O O10 0.058585 0.339945 0.823298
O O11 0.000000 0.383028 0.686746
O O12 0.823207 0.500000 0.854262
O O13 0.854282 0.665208 0.865640
O O14 0.770671 0.648252 0.817643
O O15 0.415117 0.794631 0.000000
O O16 0.705103 0.352189 0.500000
O O17 0.750000 0.250000 0.378179
O O18 0.699161 0.376003 0.309320
O O19 0.736465 0.500000 0.790645
#
# Coordination Sequence:
#
# PCOD8267454 Si02
#       7
#    16  16  16  16  16  16  16
#     4   9  19  34  51  74 101 131 171 213 255 307
#     4  10  19  32  51  71  97 138 177 210 254 300
#     4  10  22  38  55  79 107 133 170 217 258 308
#     4  10  20  30  43  70 103 135 177 220 251 297
#     4  10  20  34  54  74  96 133 170 207 261 315
#     4  10  19  31  47  70 100 135 175 217 256 303
#     4  10  19  30  46  67  98 139 175 215 261 301
#
# _framework density 18.767123999999999
#
# number of rings (size 3 to 8) (size 9 to 14) (size 15 to 20)
#    0.000    2.143    1.429    3.429    0.000    3.714 
#    0.000    5.714    0.000    0.429    0.000    2.000 
#    0.000    0.000    0.000   16.857    0.000    0.571 
#
# Total GULP energy -693742.891054 kJ/mol
# GULP energy per Si atom -12388.265912 kJ/mol
# Density = 1.872441 g / cm^3
# Si number density = 18.767124 Si / 1000 Ang^3
#
#
#
# Elastic Constant Matrix: (Units=GPa)
#
#
# Indices 1 2 3 4 5 6 
#
# 1 82.4347 25.1367 6.0262 0.0000 0.0000 0.0000
# 2 25.1367 44.1630 15.3396 0.0000 0.0000 0.0000
# 3 6.0262 15.3396 45.9452 0.0000 0.0000 0.0000
# 4 0.0000 0.0000 0.0000 20.8451 0.0000 0.0000
# 5 0.0000 0.0000 0.0000 0.0000 16.7805 0.0000
# 6 0.0000 0.0000 0.0000 0.0000 0.0000 23.3968
#
#
#
# Elastic Compliance Matrix: (Units=1/GPa)
#
#
# Indices 1 2 3 4 5 6 
#
# 1 0.014717 -0.008717 0.000980 0.000000 0.000000 0.000000
# 2 -0.008717 0.030777 -0.009132 0.000000 0.000000 0.000000
# 3 0.000980 -0.009132 0.024685 0.000000 0.000000 0.000000
# 4 0.000000 0.000000 0.000000 0.047973 0.000000 0.000000
# 5 0.000000 0.000000 0.000000 0.000000 0.059593 0.000000
# 6 0.000000 0.000000 0.000000 0.000000 0.000000 0.042741
#
#
# Mechanical properties :
#
#
# Convention : Reuss Voigt Hill
#
# Bulk Modulus (GPa) = 27.44143 29.50532 28.47337
# Shear Modulus (GPa) = 18.77071 20.60715 19.68893
#
# Velocity S-wave (km/s) = 3.16601 3.31727 3.24252
# Velocity P-wave (km/s) = 5.29326 5.51619 5.40588
#
# Compressibility (1/GPa) = 0.03644125
#
# Stress axis : x y z
#
# Youngs Moduli (GPa) = 67.94722 32.49175 40.50968
#
# Poissons Ratio (x) = 0.28324 -0.03970
# Poissons Ratio (y) = 0.59231 0.36994
# Poissons Ratio (z) = -0.06659 0.29672
#
# Static dielectric constant tensor:
#      x y z
#    x 3.292380 0.000000 0.000000 
#    y 0.000000 3.660600 0.000000 
#    z 0.000000 0.000000 3.453930 
# 
# 
# High freq. dielectric constant tensor:
#      x y z
#    x 1.705300 0.000000 0.000000 
#    y 0.000000 1.724220 0.000000 
#    z 0.000000 0.000000 1.718870 
# 
# From -- ./inp_files/47050.got.cif
#   From: 2010.03.12/outbox.cif.g09.slc.cpg/sg65_24_cif.got.tgz:47050.got - 2010.04.10 20:52:16.
