data_PCOD8267990
_publ_section_title
;
Structure prediction by ZEFSAII (Michael W. Deem and Ramdas Pophale) SiO2 
 PCOD8267990
Probable space group: C M M M
;
_chemical_formula_sum "Si O2"
_cell_formula_units_Z 80
_cell_length_a 15.084604
_cell_length_b 28.950765
_cell_length_c 9.532546
_cell_angle_alpha 90.000000
_cell_angle_beta 90.000000
_cell_angle_gamma 90.000000
_cell_volume 4162.966033
_symmetry_space_group_name_H-M "C M M M"
_symmetry_group_IT_number 65
_symmetry_cell_setting 'orthorhombic'
loop_
_space_group_symop_operation_xyz
x,y,z
-x,-y,z
x,-y,-z
-x,y,-z
-x,-y,-z
x,y,-z
-x,y,z
x,-y,z
1/2+x,1/2+y,z
1/2-x,1/2-y,z
1/2+x,1/2-y,-z
1/2-x,1/2+y,-z
1/2-x,1/2-y,-z
1/2+x,1/2+y,-z
1/2-x,1/2+y,z
1/2+x,1/2-y,z
loop_
_atom_site_type_symbol
_atom_site_label
_atom_site_fract_x
_atom_site_fract_y
_atom_site_fract_z
Si Si1 0.899717 0.628873 0.833770
Si Si2 0.348297 0.769403 0.841447
Si Si3 0.400440 0.309427 0.653131
Si Si4 0.601951 0.392702 0.837716
Si Si5 0.768816 0.448997 0.165437
O O1 0.855218 0.677640 0.790990
O O2 0.839517 0.587480 0.770055
O O3 0.000000 0.625384 0.773755
O O4 0.901639 0.624729 0.000000
O O5 0.250000 0.750000 0.832502
O O6 0.404068 0.739337 0.732729
O O7 0.386034 0.764405 0.000000
O O8 0.352222 0.305894 0.500000
O O9 0.500000 0.324950 0.625985
O O10 0.359073 0.349272 0.750852
O O11 0.500000 0.406391 0.802577
O O12 0.666986 0.435041 0.800726
O O13 0.610856 0.378290 0.000000
O O14 0.785548 0.500000 0.230134
O O15 0.782638 0.450705 0.000000
#
# Coordination Sequence:
#
# PCOD8267990 Si02
#       5
#    16  16  16  16  16
#     4   9  17  28  43  66  96 129 163 198 240 291
#     4  10  19  31  49  71  97 131 168 204 243 291
#     4  10  20  32  47  70 100 131 162 197 239 290
#     4   9  17  30  49  72  99 131 163 196 240 294
#     4   9  17  29  46  69  95 122 158 205 249 289
#
# _framework density 19.217067
#
# number of rings (size 3 to 8) (size 9 to 14) (size 15 to 20)
#    0.000    2.600    0.000    2.400    0.000    6.400 
#    0.000    4.000    0.000    0.600    0.000    2.800 
#    0.000    0.000    0.000    8.600    0.000    8.800 
#
# Total GULP energy -495670.223767 kJ/mol
# GULP energy per Si atom -12391.755594 kJ/mol
# Density = 1.917333 g / cm^3
# Si number density = 19.217067 Si / 1000 Ang^3
#
#
#
# Elastic Constant Matrix: (Units=GPa)
#
#
# Indices 1 2 3 4 5 6 
#
# 1 109.1653 70.4437 17.4740 0.0000 0.0000 0.0000
# 2 70.4437 179.7049 38.2067 0.0000 0.0000 0.0000
# 3 17.4740 38.2067 57.9044 0.0000 0.0000 0.0000
# 4 0.0000 0.0000 0.0000 1.6735 0.0000 0.0000
# 5 0.0000 0.0000 0.0000 0.0000 8.4264 0.0000
# 6 0.0000 0.0000 0.0000 0.0000 0.0000 29.9173
#
#
#
# Elastic Compliance Matrix: (Units=1/GPa)
#
#
# Indices 1 2 3 4 5 6 
#
# 1 0.012281 -0.004683 -0.000616 0.000000 0.000000 0.000000
# 2 -0.004683 0.008259 -0.004036 0.000000 0.000000 0.000000
# 3 -0.000616 -0.004036 0.020119 0.000000 0.000000 0.000000
# 4 0.000000 0.000000 0.000000 0.597553 0.000000 0.000000
# 5 0.000000 0.000000 0.000000 0.000000 0.118674 0.000000
# 6 0.000000 0.000000 0.000000 0.000000 0.000000 0.033425
#
#
# Mechanical properties :
#
#
# Convention : Reuss Voigt Hill
#
# Bulk Modulus (GPa) = 45.47919 66.55817 56.01868
# Shear Modulus (GPa) = 6.12512 22.71346 14.41929
#
# Velocity S-wave (km/s) = 1.78725 3.44167 2.74220
# Velocity P-wave (km/s) = 5.28927 7.10658 6.26418
#
# Compressibility (1/GPa) = 0.02198808
#
# Stress axis : x y z
#
# Youngs Moduli (GPa) = 81.42630 121.08693 49.70493
#
# Poissons Ratio (x) = 0.56707 0.03062
# Poissons Ratio (y) = 0.38133 0.20061
# Poissons Ratio (z) = 0.05016 0.48870
#
# Static dielectric constant tensor:
#      x y z
#    x 3.597680 0.000000 0.000000 
#    y 0.000000 3.679390 0.000000 
#    z 0.000000 0.000000 3.345010 
# 
# 
# High freq. dielectric constant tensor:
#      x y z
#    x 1.747550 0.000000 0.000000 
#    y 0.000000 1.745860 0.000000 
#    z 0.000000 0.000000 1.692480 
# 
# From -- ./inp_files/9633.got.cif
#   From: 2010.03.12/outbox.cif.g09.slc.cpg/sg65_5_cif.got.tgz:9633.got - 2010.04.10 20:52:16.
