data_PCOD8267717
_publ_section_title
;
Structure prediction by ZEFSAII (Michael W. Deem and Ramdas Pophale) SiO2 
 PCOD8267717
Probable space group: C M M M
;
_chemical_formula_sum "Si O2"
_cell_formula_units_Z 96
_cell_length_a 27.140798
_cell_length_b 9.227391
_cell_length_c 24.056200
_cell_angle_alpha 90.000000
_cell_angle_beta 90.000000
_cell_angle_gamma 90.000000
_cell_volume 6024.604783
_symmetry_space_group_name_H-M "C M M M"
_symmetry_group_IT_number 65
_symmetry_cell_setting 'orthorhombic'
loop_
_space_group_symop_operation_xyz
x,y,z
-x,-y,z
x,-y,-z
-x,y,-z
-x,-y,-z
x,y,-z
-x,y,z
x,-y,z
1/2+x,1/2+y,z
1/2-x,1/2-y,z
1/2+x,1/2-y,-z
1/2-x,1/2+y,-z
1/2-x,1/2-y,-z
1/2+x,1/2+y,-z
1/2-x,1/2+y,z
1/2+x,1/2-y,z
loop_
_atom_site_type_symbol
_atom_site_label
_atom_site_fract_x
_atom_site_fract_y
_atom_site_fract_z
Si Si1 0.299929 0.834179 0.500000
Si Si2 0.055473 0.171965 0.000000
Si Si3 0.140149 0.331162 0.725799
Si Si4 0.801581 0.329036 0.163600
Si Si5 0.388024 0.668971 0.890627
Si Si6 0.444524 0.332116 0.221118
Si Si7 0.301622 0.169600 0.380102
O O1 0.250000 0.750000 0.500000
O O2 0.327238 0.799665 0.558882
O O3 0.284326 0.000000 0.500000
O O4 0.085234 0.225339 0.946084
O O5 0.000000 0.237389 0.000000
O O6 0.051568 0.000000 0.000000
O O7 0.128568 0.500000 0.723850
O O8 0.178519 0.293901 0.774765
O O9 0.088564 0.251333 0.734345
O O10 0.162092 0.273087 0.667687
O O11 0.795489 0.500000 0.153614
O O12 0.750000 0.250000 0.155735
O O13 0.839019 0.263845 0.118149
O O14 0.373167 0.500000 0.894490
O O15 0.426228 0.697258 0.841125
O O16 0.500000 0.273328 0.225845
O O17 0.441557 0.500000 0.236041
O O18 0.250000 0.250000 0.374767
O O19 0.291362 0.000000 0.370975
#
# Coordination Sequence:
#
# PCOD8267717 Si02
#       7
#     8   8  16  16  16  16  16
#     4   8  14  24  38  56  81 112 141 171 206 245
#     4   9  16  28  50  75  92 109 138 175 212 253
#     4   9  18  29  42  63  88 113 142 175 211 252
#     4  10  19  31  46  64  88 117 147 177 210 248
#     4   9  17  30  48  69  91 113 139 171 209 253
#     4   9  17  29  45  65  88 112 138 171 211 253
#     4   9  16  26  40  60  86 114 143 173 207 247
#
# _framework density 15.934654999999999
#
# number of rings (size 3 to 8) (size 9 to 14) (size 15 to 20)
#    0.000    2.917    0.000    1.500    0.000    3.667 
#    0.000    0.833    0.000    2.000    0.000    0.583 
#    0.000    4.667    0.000    0.000    0.000    0.000 
#
# Total GULP energy -594958.429668 kJ/mol
# GULP energy per Si atom -12394.967285 kJ/mol
# Density = 1.589839 g / cm^3
# Si number density = 15.934655 Si / 1000 Ang^3
#
#
#
# Elastic Constant Matrix: (Units=GPa)
#
#
# Indices 1 2 3 4 5 6 
#
# 1 135.3754 49.6601 72.1197 0.0000 0.0000 0.0000
# 2 49.6601 45.7222 36.8915 0.0000 0.0000 0.0000
# 3 72.1197 36.8915 135.9742 0.0000 0.0000 0.0000
# 4 0.0000 0.0000 0.0000 17.7974 0.0000 0.0000
# 5 0.0000 0.0000 0.0000 0.0000 20.9962 0.0000
# 6 0.0000 0.0000 0.0000 0.0000 0.0000 26.1094
#
#
#
# Elastic Compliance Matrix: (Units=1/GPa)
#
#
# Indices 1 2 3 4 5 6 
#
# 1 0.013934 -0.011741 -0.004205 0.000000 0.000000 0.000000
# 2 -0.011741 0.037895 -0.004054 0.000000 0.000000 0.000000
# 3 -0.004205 -0.004054 0.010684 0.000000 0.000000 0.000000
# 4 0.000000 0.000000 0.000000 0.056188 0.000000 0.000000
# 5 0.000000 0.000000 0.000000 0.000000 0.047628 0.000000
# 6 0.000000 0.000000 0.000000 0.000000 0.000000 0.038300
#
#
# Mechanical properties :
#
#
# Convention : Reuss Voigt Hill
#
# Bulk Modulus (GPa) = 44.41870 70.49047 57.45459
# Shear Modulus (GPa) = 19.83072 23.54063 21.68567
#
# Velocity S-wave (km/s) = 3.53158 3.84777 3.69306
# Velocity P-wave (km/s) = 6.67573 8.00460 7.37018
#
# Compressibility (1/GPa) = 0.02251304
#
# Stress axis : x y z
#
# Youngs Moduli (GPa) = 71.76601 26.38888 93.59398
#
# Poissons Ratio (x) = 0.30984 0.39356
# Poissons Ratio (y) = 0.84264 0.37940
# Poissons Ratio (z) = 0.30177 0.10697
#
# Static dielectric constant tensor:
#      x y z
#    x 2.912880 0.000000 0.000000 
#    y 0.000000 2.895610 0.000000 
#    z 0.000000 0.000000 3.372530 
# 
# 
# High freq. dielectric constant tensor:
#      x y z
#    x 1.593240 0.000000 0.000000 
#    y 0.000000 1.605470 0.000000 
#    z 0.000000 0.000000 1.612910 
# 
# From -- ./inp_files/65369.got.cif
#   From: 2010.03.12/outbox.cif.g09.slc.cpg/sg65_33_cif.got.tgz:65369.got - 2010.04.10 20:52:16.
