data_PCOD8267743
_publ_section_title
;
Structure prediction by ZEFSAII (Michael W. Deem and Ramdas Pophale) SiO2 
 PCOD8267743
Probable space group: C M M M
;
_chemical_formula_sum "Si O2"
_cell_formula_units_Z 96
_cell_length_a 8.700427
_cell_length_b 27.509980
_cell_length_c 24.479434
_cell_angle_alpha 90.000000
_cell_angle_beta 90.000000
_cell_angle_gamma 90.000000
_cell_volume 5859.117590
_symmetry_space_group_name_H-M "C M M M"
_symmetry_group_IT_number 65
_symmetry_cell_setting 'orthorhombic'
loop_
_space_group_symop_operation_xyz
x,y,z
-x,-y,z
x,-y,-z
-x,y,-z
-x,-y,-z
x,y,-z
-x,y,z
x,-y,z
1/2+x,1/2+y,z
1/2-x,1/2-y,z
1/2+x,1/2-y,-z
1/2-x,1/2+y,-z
1/2-x,1/2-y,-z
1/2+x,1/2+y,-z
1/2-x,1/2+y,z
1/2+x,1/2-y,z
loop_
_atom_site_type_symbol
_atom_site_label
_atom_site_fract_x
_atom_site_fract_y
_atom_site_fract_z
Si Si1 0.180969 0.552985 0.882276
Si Si2 0.680774 0.109603 0.776448
Si Si3 0.181905 0.648635 0.938206
Si Si4 0.681491 0.301375 0.836517
Si Si5 0.328297 0.442366 0.557739
Si Si6 0.316472 0.555688 0.675795
O O1 0.256513 0.500000 0.894399
O O2 0.225982 0.569009 0.821100
O O3 0.239434 0.593641 0.925043
O O4 0.000000 0.548177 0.887759
O O5 0.500000 0.118928 0.775271
O O6 0.762112 0.159829 0.792072
O O7 0.738469 0.091770 0.718169
O O8 0.263048 0.686161 0.897816
O O9 0.000000 0.652393 0.928558
O O10 0.228267 0.661706 0.000000
O O11 0.500000 0.298837 0.836121
O O12 0.750000 0.250000 0.818680
O O13 0.244392 0.426197 0.500000
O O14 0.500000 0.420980 0.555723
O O15 0.337391 0.500000 0.559698
O O16 0.253284 0.426583 0.615703
O O17 0.500000 0.560137 0.678442
O O18 0.266377 0.500000 0.687656
#
# Coordination Sequence:
#
# PCOD8267743 Si02
#       6
#    16  16  16  16  16  16
#     4   8  14  25  42  64  89 118 150 181 212 248
#     4  10  19  31  46  66  92 120 152 187 226 275
#     4   9  18  32  49  71  97 121 148 181 216 261
#     4  11  22  37  55  71  88 111 141 181 231 280
#     4   7  10  18  33  54  83 121 162 198 228 259
#     4   9  16  25  40  65  95 126 161 198 232 264
#
# _framework density 16.384720999999999
#
# number of rings (size 3 to 8) (size 9 to 14) (size 15 to 20)
#    0.000    3.000    0.000    5.000    0.000    2.000 
#    0.000    1.667    0.000    5.000    0.000    7.000 
#    0.000    0.667    0.000    1.833    0.000    2.667 
#
# Total GULP energy -594636.809024 kJ/mol
# GULP energy per Si atom -12388.266855 kJ/mol
# Density = 1.634743 g / cm^3
# Si number density = 16.384721 Si / 1000 Ang^3
#
#
#
# Elastic Constant Matrix: (Units=GPa)
#
#
# Indices 1 2 3 4 5 6 
#
# 1 57.0466 29.2065 37.8612 0.0000 0.0000 0.0000
# 2 29.2065 83.1011 38.4270 0.0000 0.0000 0.0000
# 3 37.8612 38.4270 133.4589 0.0000 0.0000 0.0000
# 4 0.0000 0.0000 0.0000 28.8373 0.0000 0.0000
# 5 0.0000 0.0000 0.0000 0.0000 16.9458 0.0000
# 6 0.0000 0.0000 0.0000 0.0000 0.0000 17.0333
#
#
#
# Elastic Compliance Matrix: (Units=1/GPa)
#
#
# Indices 1 2 3 4 5 6 
#
# 1 0.024007 -0.006100 -0.005054 0.000000 0.000000 0.000000
# 2 -0.006100 0.015432 -0.002713 0.000000 0.000000 0.000000
# 3 -0.005054 -0.002713 0.009708 0.000000 0.000000 0.000000
# 4 0.000000 0.000000 0.000000 0.034677 0.000000 0.000000
# 5 0.000000 0.000000 0.000000 0.000000 0.059012 0.000000
# 6 0.000000 0.000000 0.000000 0.000000 0.000000 0.058709
#
#
# Mechanical properties :
#
#
# Convention : Reuss Voigt Hill
#
# Bulk Modulus (GPa) = 46.70180 53.84402 50.27291
# Shear Modulus (GPa) = 21.14911 23.77073 22.45992
#
# Velocity S-wave (km/s) = 3.59664 3.81305 3.70643
# Velocity P-wave (km/s) = 6.76853 7.23322 7.00473
#
# Compressibility (1/GPa) = 0.02141245
#
# Stress axis : x y z
#
# Youngs Moduli (GPa) = 41.65421 64.80051 103.00958
#
# Poissons Ratio (x) = 0.39531 0.52062
# Poissons Ratio (y) = 0.25411 0.27944
# Poissons Ratio (z) = 0.21053 0.17579
#
# Static dielectric constant tensor:
#      x y z
#    x 2.806370 0.000000 0.000000 
#    y 0.000000 2.985170 0.000000 
#    z 0.000000 0.000000 3.490260 
# 
# 
# High freq. dielectric constant tensor:
#      x y z
#    x 1.602680 0.000000 0.000000 
#    y 0.000000 1.600720 0.000000 
#    z 0.000000 0.000000 1.636460 
# 
# From -- ./inp_files/68036.got.cif
#   From: 2010.03.12/outbox.cif.g09.slc.cpg/sg65_35_cif.got.tgz:68036.got - 2010.04.10 20:52:16.
