data_PCOD8267375
_publ_section_title
;
Structure prediction by ZEFSAII (Michael W. Deem and Ramdas Pophale) SiO2 
 PCOD8267375
Probable space group: C M M M
;
_chemical_formula_sum "Si O2"
_cell_formula_units_Z 88
_cell_length_a 32.711749
_cell_length_b 9.686309
_cell_length_c 19.056860
_cell_angle_alpha 90.000000
_cell_angle_beta 90.000000
_cell_angle_gamma 90.000000
_cell_volume 6038.282504
_symmetry_space_group_name_H-M "C M M M"
_symmetry_group_IT_number 65
_symmetry_cell_setting 'orthorhombic'
loop_
_space_group_symop_operation_xyz
x,y,z
-x,-y,z
x,-y,-z
-x,y,-z
-x,-y,-z
x,y,-z
-x,y,z
x,-y,z
1/2+x,1/2+y,z
1/2-x,1/2-y,z
1/2+x,1/2-y,-z
1/2-x,1/2+y,-z
1/2-x,1/2-y,-z
1/2+x,1/2+y,-z
1/2-x,1/2+y,z
1/2+x,1/2-y,z
loop_
_atom_site_type_symbol
_atom_site_label
_atom_site_fract_x
_atom_site_fract_y
_atom_site_fract_z
Si Si1 0.846022 0.714755 0.582733
Si Si2 0.451558 0.154012 0.922209
Si Si3 0.220681 0.500000 0.417870
Si Si4 0.048269 0.837996 0.205603
Si Si5 0.689147 0.500000 0.417341
Si Si6 0.074699 0.657426 0.330509
Si Si7 0.000000 0.663376 0.422875
O O1 0.856160 0.696069 0.500000
O O2 0.804810 0.634651 0.603837
O O3 0.882841 0.657105 0.628452
O O4 0.837870 0.870715 0.605676
O O5 0.500000 0.153072 0.924310
O O6 0.436822 0.270447 0.867608
O O7 0.436202 0.000000 0.900301
O O8 0.434683 0.191420 0.000000
O O9 0.227828 0.500000 0.500000
O O10 0.265594 0.500000 0.381711
O O11 0.074634 0.760322 0.264730
O O12 0.000000 0.813143 0.218389
O O13 0.058910 0.000000 0.204918
O O14 0.695585 0.500000 0.500000
O O15 0.065298 0.500000 0.305909
O O16 0.040117 0.714569 0.382729
O O17 0.000000 0.500000 0.429488
O O18 0.000000 0.731598 0.500000
#
# Coordination Sequence:
#
# PCOD8267375 Si02
#       7
#    16  16   8  16   8  16   8
#     4  10  19  30  45  65  85 107 140 184 225 269
#     4   8  14  26  45  66  85 106 138 178 214 253
#     4   9  16  30  48  65  83 103 134 174 219 275
#     4  10  20  31  43  60  85 115 147 182 220 260
#     4   9  18  30  46  65  85 107 128 166 229 285
#     4  11  20  31  45  60  81 112 150 188 223 257
#     4   9  18  30  45  59  72 101 148 197 231 254
#
# _framework density 14.573681000000001
#
# number of rings (size 3 to 8) (size 9 to 14) (size 15 to 20)
#    0.000    2.455    1.818    2.182    1.273    4.000 
#    0.000    1.818    0.000    0.545    0.000    0.000 
#    0.000    0.000    0.000    0.000    0.000    5.455 
#
# Total GULP energy -545383.329915 kJ/mol
# GULP energy per Si atom -12395.075680 kJ/mol
# Density = 1.454051 g / cm^3
# Si number density = 14.573681 Si / 1000 Ang^3
#
#
#
# Elastic Constant Matrix: (Units=GPa)
#
#
# Indices 1 2 3 4 5 6 
#
# 1 45.6640 12.7065 19.9013 0.0000 0.0000 0.0000
# 2 12.7065 99.4398 42.6173 0.0000 0.0000 0.0000
# 3 19.9013 42.6173 83.4647 0.0000 0.0000 0.0000
# 4 0.0000 0.0000 0.0000 19.6405 0.0000 0.0000
# 5 0.0000 0.0000 0.0000 0.0000 0.8394 0.0000
# 6 0.0000 0.0000 0.0000 0.0000 0.0000 8.0657
#
#
#
# Elastic Compliance Matrix: (Units=1/GPa)
#
#
# Indices 1 2 3 4 5 6 
#
# 1 0.024489 -0.000802 -0.005429 0.000000 0.000000 0.000000
# 2 -0.000802 0.012900 -0.006395 0.000000 0.000000 0.000000
# 3 -0.005429 -0.006395 0.016541 0.000000 0.000000 0.000000
# 4 0.000000 0.000000 0.000000 0.050915 0.000000 0.000000
# 5 0.000000 0.000000 0.000000 0.000000 1.191316 0.000000
# 6 0.000000 0.000000 0.000000 0.000000 0.000000 0.123982
#
#
# Mechanical properties :
#
#
# Convention : Reuss Voigt Hill
#
# Bulk Modulus (GPa) = 34.87305 42.11319 38.49312
# Shear Modulus (GPa) = 3.43653 15.93201 9.68427
#
# Velocity S-wave (km/s) = 1.53726 3.30995 2.58059
# Velocity P-wave (km/s) = 5.20880 6.60054 5.94554
#
# Compressibility (1/GPa) = 0.02867544
#
# Stress axis : x y z
#
# Youngs Moduli (GPa) = 40.83536 77.52103 60.45515
#
# Poissons Ratio (x) = 0.06219 0.32824
# Poissons Ratio (y) = 0.03276 0.38663
# Poissons Ratio (z) = 0.22171 0.49577
#
# Static dielectric constant tensor:
#      x y z
#    x 2.616210 0.000000 0.000000 
#    y 0.000000 3.240250 0.000000 
#    z 0.000000 0.000000 2.794360 
# 
# 
# High freq. dielectric constant tensor:
#      x y z
#    x 1.523190 0.000000 0.000000 
#    y 0.000000 1.566280 0.000000 
#    z 0.000000 0.000000 1.528940 
# 
# From -- ./inp_files/66287.got.cif
#   From: 2010.03.12/outbox.cif.g09.slc.cpg/sg65_34_cif.got.tgz:66287.got - 2010.04.10 20:52:16.
