data_PCOD8267040
_publ_section_title
;
Structure prediction by ZEFSAII (Michael W. Deem and Ramdas Pophale) SiO2 
 PCOD8267040
Probable space group: C M M M
;
_chemical_formula_sum "Si O2"
_cell_formula_units_Z 80
_cell_length_a 18.461250
_cell_length_b 36.383420
_cell_length_c 9.039196
_cell_angle_alpha 90.000000
_cell_angle_beta 90.000000
_cell_angle_gamma 90.000000
_cell_volume 6071.478015
_symmetry_space_group_name_H-M "C M M M"
_symmetry_group_IT_number 65
_symmetry_cell_setting 'orthorhombic'
loop_
_space_group_symop_operation_xyz
x,y,z
-x,-y,z
x,-y,-z
-x,y,-z
-x,-y,-z
x,y,-z
-x,y,z
x,-y,z
1/2+x,1/2+y,z
1/2-x,1/2-y,z
1/2+x,1/2-y,-z
1/2-x,1/2+y,-z
1/2-x,1/2-y,-z
1/2+x,1/2+y,-z
1/2-x,1/2+y,z
1/2+x,1/2-y,z
loop_
_atom_site_type_symbol
_atom_site_label
_atom_site_fract_x
_atom_site_fract_y
_atom_site_fract_z
Si Si1 0.585450 0.888111 0.829530
Si Si2 0.918062 0.251888 0.173433
Si Si3 0.414057 0.040391 0.334157
Si Si4 0.844873 0.319992 0.674716
Si Si5 0.284316 0.709926 0.163338
O O1 0.500000 0.883506 0.803324
O O2 0.613244 0.928327 0.778401
O O3 0.626963 0.858799 0.730861
O O4 0.606019 0.882543 0.000000
O O5 0.895916 0.288244 0.261281
O O6 0.867507 0.216765 0.216215
O O7 0.000000 0.241196 0.214229
O O8 0.908988 0.261085 0.000000
O O9 0.385928 0.049090 0.500000
O O10 0.500000 0.039852 0.334617
O O11 0.385523 0.000000 0.283256
O O12 0.848742 0.318637 0.500000
O O13 0.760917 0.315293 0.724251
O O14 0.250000 0.750000 0.156242
O O15 0.282115 0.691683 0.000000
#
# Coordination Sequence:
#
# PCOD8267040 Si02
#       5
#    16  16  16  16  16
#     4  10  19  28  38  52  70  93 122 154 184 214
#     4   9  17  29  43  56  70  90 117 148 182 219
#     4   8  14  25  39  53  70  91 114 143 179 215
#     4  11  20  27  37  53  73  95 119 149 184 218
#     4   8  15  28  42  53  68  91 116 143 177 217
#
# _framework density 13.176364
#
# number of rings (size 3 to 8) (size 9 to 14) (size 15 to 20)
#    0.000    2.800    0.000    4.800    0.000    8.000 
#    0.000    2.000    0.000    0.000    0.000    0.000 
#    0.000    0.000    0.000    0.000    0.000    1.000 
#
# Total GULP energy -495735.889612 kJ/mol
# GULP energy per Si atom -12393.397240 kJ/mol
# Density = 1.314637 g / cm^3
# Si number density = 13.176364 Si / 1000 Ang^3
#
#
#
# Elastic Constant Matrix: (Units=GPa)
#
#
# Indices 1 2 3 4 5 6 
#
# 1 78.5727 34.0414 34.9909 0.0000 0.0000 0.0000
# 2 34.0414 63.2260 39.0393 0.0000 0.0000 0.0000
# 3 34.9909 39.0393 76.4594 0.0000 0.0000 0.0000
# 4 0.0000 0.0000 0.0000 22.4537 0.0000 0.0000
# 5 0.0000 0.0000 0.0000 0.0000 11.7890 0.0000
# 6 0.0000 0.0000 0.0000 0.0000 0.0000 12.1065
#
#
#
# Elastic Compliance Matrix: (Units=1/GPa)
#
#
# Indices 1 2 3 4 5 6 
#
# 1 0.017694 -0.006611 -0.004722 0.000000 0.000000 0.000000
# 2 -0.006611 0.025568 -0.010030 0.000000 0.000000 0.000000
# 3 -0.004722 -0.010030 0.020361 0.000000 0.000000 0.000000
# 4 0.000000 0.000000 0.000000 0.044536 0.000000 0.000000
# 5 0.000000 0.000000 0.000000 0.000000 0.084825 0.000000
# 6 0.000000 0.000000 0.000000 0.000000 0.000000 0.082600
#
#
# Mechanical properties :
#
#
# Convention : Reuss Voigt Hill
#
# Bulk Modulus (GPa) = 47.85084 48.26682 48.05883
# Shear Modulus (GPa) = 15.37154 16.61559 15.99357
#
# Velocity S-wave (km/s) = 3.41926 3.55493 3.48775
# Velocity P-wave (km/s) = 7.20992 7.31853 7.26443
#
# Compressibility (1/GPa) = 0.02089828
#
# Stress axis : x y z
#
# Youngs Moduli (GPa) = 56.51591 39.11064 49.11408
#
# Poissons Ratio (x) = 0.25856 0.23192
# Poissons Ratio (y) = 0.37363 0.49259
# Poissons Ratio (z) = 0.26687 0.39226
#
# Static dielectric constant tensor:
#      x y z
#    x 2.831220 0.000000 0.000000 
#    y 0.000000 2.651730 0.000000 
#    z 0.000000 0.000000 2.701310 
# 
# 
# High freq. dielectric constant tensor:
#      x y z
#    x 1.468330 0.000000 0.000000 
#    y 0.000000 1.477790 0.000000 
#    z 0.000000 0.000000 1.507640 
# 
# From -- ./inp_files/12510.got.cif
#   From: 2010.03.12/outbox.cif.g09.slc.cpg/sg65_7_cif.got.tgz:12510.got - 2010.04.10 20:52:16.
