data_PCOD8267417
_publ_section_title
;
Structure prediction by ZEFSAII (Michael W. Deem and Ramdas Pophale) SiO2 
 PCOD8267417
Probable space group: C M M M
;
_chemical_formula_sum "Si O2"
_cell_formula_units_Z 88
_cell_length_a 8.925108
_cell_length_b 28.632755
_cell_length_c 20.858694
_cell_angle_alpha 90.000000
_cell_angle_beta 90.000000
_cell_angle_gamma 90.000000
_cell_volume 5330.448236
_symmetry_space_group_name_H-M "C M M M"
_symmetry_group_IT_number 65
_symmetry_cell_setting 'orthorhombic'
loop_
_space_group_symop_operation_xyz
x,y,z
-x,-y,z
x,-y,-z
-x,y,-z
-x,-y,-z
x,y,-z
-x,y,z
x,-y,z
1/2+x,1/2+y,z
1/2-x,1/2-y,z
1/2+x,1/2-y,-z
1/2-x,1/2+y,-z
1/2-x,1/2-y,-z
1/2+x,1/2+y,-z
1/2-x,1/2+y,z
1/2+x,1/2-y,z
loop_
_atom_site_type_symbol
_atom_site_label
_atom_site_fract_x
_atom_site_fract_y
_atom_site_fract_z
Si Si1 0.323686 0.053357 0.629725
Si Si2 0.323866 0.636135 0.313873
Si Si3 0.333198 0.555227 0.500000
Si Si4 0.175189 0.798756 0.571932
Si Si5 0.175499 0.300267 0.930467
Si Si6 0.177538 0.800825 0.194411
O O1 0.500000 0.058183 0.624193
O O2 0.260080 0.086129 0.686474
O O3 0.252980 0.071757 0.563249
O O4 0.276717 0.000000 0.644621
O O5 0.500000 0.626815 0.314258
O O6 0.268519 0.663327 0.377218
O O7 0.274536 0.665430 0.252003
O O8 0.344149 0.500000 0.500000
O O9 0.500000 0.577799 0.500000
O O10 0.218005 0.815575 0.500000
O O11 0.250000 0.750000 0.589093
O O12 0.000000 0.790627 0.579224
O O13 0.250000 0.250000 0.934748
O O14 0.257763 0.325451 0.870662
O O15 0.000000 0.295271 0.915463
O O16 0.199910 0.325634 0.000000
O O17 0.250000 0.750000 0.205484
O O18 0.000000 0.795137 0.189775
#
# Coordination Sequence:
#
# PCOD8267417 Si02
#       6
#    16  16   8  16  16  16
#     4  10  21  35  50  70  93 115 147 193 239 284
#     4  10  21  33  47  68  91 121 158 191 230 281
#     4   9  17  31  51  69  86 111 140 177 231 287
#     4   9  18  32  47  63  85 114 151 192 227 265
#     4   9  16  26  42  64  90 122 158 191 226 270
#     4  10  19  30  45  67  96 127 161 196 228 270
#
# _framework density 16.508931
#
# number of rings (size 3 to 8) (size 9 to 14) (size 15 to 20)
#    0.000    2.455    0.000    3.545    1.273    5.455 
#    0.000    0.000    0.000    0.000    0.000    0.000 
#    0.000    0.727    0.000    8.000    0.000    5.818 
#
# Total GULP energy -545379.672304 kJ/mol
# GULP energy per Si atom -12394.992552 kJ/mol
# Density = 1.647136 g / cm^3
# Si number density = 16.508931 Si / 1000 Ang^3
#
#
#
# Elastic Constant Matrix: (Units=GPa)
#
#
# Indices 1 2 3 4 5 6 
#
# 1 72.4329 37.3144 49.5336 0.0000 0.0000 0.0000
# 2 37.3144 71.1132 62.6168 0.0000 0.0000 0.0000
# 3 49.5336 62.6168 128.6200 0.0000 0.0000 0.0000
# 4 0.0000 0.0000 0.0000 10.2330 0.0000 0.0000
# 5 0.0000 0.0000 0.0000 0.0000 26.1280 0.0000
# 6 0.0000 0.0000 0.0000 0.0000 0.0000 23.6949
#
#
#
# Elastic Compliance Matrix: (Units=1/GPa)
#
#
# Indices 1 2 3 4 5 6 
#
# 1 0.020380 -0.006621 -0.004625 0.000000 0.000000 0.000000
# 2 -0.006621 0.026764 -0.010480 0.000000 0.000000 0.000000
# 3 -0.004625 -0.010480 0.014658 0.000000 0.000000 0.000000
# 4 0.000000 0.000000 0.000000 0.097723 0.000000 0.000000
# 5 0.000000 0.000000 0.000000 0.000000 0.038273 0.000000
# 6 0.000000 0.000000 0.000000 0.000000 0.000000 0.042203
#
#
# Mechanical properties :
#
#
# Convention : Reuss Voigt Hill
#
# Bulk Modulus (GPa) = 54.49687 63.45507 58.97597
# Shear Modulus (GPa) = 17.26701 20.19127 18.72914
#
# Velocity S-wave (km/s) = 3.23758 3.50101 3.37187
# Velocity P-wave (km/s) = 6.85989 7.40696 7.13867
#
# Compressibility (1/GPa) = 0.01834968
#
# Stress axis : x y z
#
# Youngs Moduli (GPa) = 49.06842 37.36367 68.22199
#
# Poissons Ratio (x) = 0.24738 0.31554
# Poissons Ratio (y) = 0.32488 0.71495
# Poissons Ratio (z) = 0.22695 0.39156
#
# Static dielectric constant tensor:
#      x y z
#    x 3.169110 0.000000 0.000000 
#    y 0.000000 2.965430 0.000000 
#    z 0.000000 0.000000 3.656080 
# 
# 
# High freq. dielectric constant tensor:
#      x y z
#    x 1.646190 0.000000 0.000000 
#    y 0.000000 1.598250 0.000000 
#    z 0.000000 0.000000 1.631820 
# 
# From -- ./inp_files/60701.got.cif
#   From: 2010.03.12/outbox.cif.g09.slc.cpg/sg65_31_cif.got.tgz:60701.got - 2010.04.10 20:52:16.
