data_PCOD8267264
_publ_section_title
;
Structure prediction by ZEFSAII (Michael W. Deem and Ramdas Pophale) SiO2 
 PCOD8267264
Probable space group: C M M M
;
_chemical_formula_sum "Si O2"
_cell_formula_units_Z 72
_cell_length_a 18.098455
_cell_length_b 22.257733
_cell_length_c 9.936873
_cell_angle_alpha 90.000000
_cell_angle_beta 90.000000
_cell_angle_gamma 90.000000
_cell_volume 4002.876305
_symmetry_space_group_name_H-M "C M M M"
_symmetry_group_IT_number 65
_symmetry_cell_setting 'orthorhombic'
loop_
_space_group_symop_operation_xyz
x,y,z
-x,-y,z
x,-y,-z
-x,y,-z
-x,-y,-z
x,y,-z
-x,y,z
x,-y,z
1/2+x,1/2+y,z
1/2-x,1/2-y,z
1/2+x,1/2-y,-z
1/2-x,1/2+y,-z
1/2-x,1/2-y,-z
1/2+x,1/2+y,-z
1/2-x,1/2+y,z
1/2+x,1/2-y,z
loop_
_atom_site_type_symbol
_atom_site_label
_atom_site_fract_x
_atom_site_fract_y
_atom_site_fract_z
Si Si1 0.322605 0.855157 0.659108
Si Si2 0.417575 0.070858 0.851577
Si Si3 0.655270 0.376744 0.659523
Si Si4 0.915300 0.000000 0.660484
Si Si5 0.582219 0.742942 0.340174
O O1 0.331906 0.864093 0.500000
O O2 0.364749 0.908090 0.733344
O O3 0.238029 0.860640 0.704945
O O4 0.357594 0.791892 0.707949
O O5 0.500000 0.095304 0.823424
O O6 0.417518 0.000000 0.848540
O O7 0.391347 0.093171 0.000000
O O8 0.650645 0.379499 0.500000
O O9 0.626610 0.440680 0.717508
O O10 0.604144 0.322839 0.715535
O O11 0.913475 0.000000 0.500000
O O12 0.000000 0.000000 0.711488
O O13 0.582622 0.741216 0.500000
O O14 0.500000 0.759125 0.286792
#
# Coordination Sequence:
#
# PCOD8267264 Si02
#       5
#    16  16  16   8  16
#     4  10  19  29  47  74 102 124 153 200 252 291
#     4   9  19  35  51  67  93 131 169 199 232 284
#     4   9  17  27  41  64  97 130 160 199 244 286
#     4   9  16  26  40  60  90 131 170 198 233 285
#     4   9  16  27  43  64  93 131 168 197 234 290
#
# _framework density 17.987065999999999
#
# number of rings (size 3 to 8) (size 9 to 14) (size 15 to 20)
#    0.000    2.778    0.000    2.667    1.556    7.111 
#    0.000    1.111    0.000    2.667    0.000    0.000 
#    0.000    3.556    0.000    0.000    0.000    0.222 
#
# Total GULP energy -446185.797499 kJ/mol
# GULP energy per Si atom -12394.049931 kJ/mol
# Density = 1.794613 g / cm^3
# Si number density = 17.987066 Si / 1000 Ang^3
#
#
#
# Elastic Constant Matrix: (Units=GPa)
#
#
# Indices 1 2 3 4 5 6 
#
# 1 149.9746 78.0922 20.1351 0.0000 0.0000 0.0000
# 2 78.0922 113.6944 15.1576 0.0000 0.0000 0.0000
# 3 20.1351 15.1576 20.7479 0.0000 0.0000 0.0000
# 4 0.0000 0.0000 0.0000 9.0491 0.0000 0.0000
# 5 0.0000 0.0000 0.0000 0.0000 8.4437 0.0000
# 6 0.0000 0.0000 0.0000 0.0000 0.0000 35.3266
#
#
#
# Elastic Compliance Matrix: (Units=1/GPa)
#
#
# Indices 1 2 3 4 5 6 
#
# 1 0.010954 -0.006766 -0.005688 0.000000 0.000000 0.000000
# 2 -0.006766 0.013923 -0.003606 0.000000 0.000000 0.000000
# 3 -0.005688 -0.003606 0.056352 0.000000 0.000000 0.000000
# 4 0.000000 0.000000 0.000000 0.110509 0.000000 0.000000
# 5 0.000000 0.000000 0.000000 0.000000 0.118431 0.000000
# 6 0.000000 0.000000 0.000000 0.000000 0.000000 0.028307
#
#
# Mechanical properties :
#
#
# Convention : Reuss Voigt Hill
#
# Bulk Modulus (GPa) = 20.36231 56.79851 38.58041
# Shear Modulus (GPa) = 12.92100 21.96600 17.44350
#
# Velocity S-wave (km/s) = 2.68311 3.49837 3.11751
# Velocity P-wave (km/s) = 4.57645 6.92561 5.86975
#
# Compressibility (1/GPa) = 0.04911034
#
# Stress axis : x y z
#
# Youngs Moduli (GPa) = 91.28704 71.82135 17.74560
#
# Poissons Ratio (x) = 0.48593 0.10094
# Poissons Ratio (y) = 0.61764 0.06399
# Poissons Ratio (z) = 0.51925 0.25898
#
# Static dielectric constant tensor:
#      x y z
#    x 3.562380 0.000000 0.000000 
#    y 0.000000 3.497360 0.000000 
#    z 0.000000 0.000000 2.793520 
# 
# 
# High freq. dielectric constant tensor:
#      x y z
#    x 1.709130 0.000000 0.000000 
#    y 0.000000 1.707240 0.000000 
#    z 0.000000 0.000000 1.622280 
# 
# From -- ./inp_files/9235.got.cif
#   From: 2010.03.12/outbox.cif.g09.slc.cpg/sg65_5_cif.got.tgz:9235.got - 2010.04.10 20:52:16.
