data_PCOD8267296
_publ_section_title
;
Structure prediction by ZEFSAII (Michael W. Deem and Ramdas Pophale) SiO2 
 PCOD8267296
Probable space group: C M M M
;
_chemical_formula_sum "Si O2"
_cell_formula_units_Z 72
_cell_length_a 31.335771
_cell_length_b 18.459290
_cell_length_c 8.898044
_cell_angle_alpha 90.000000
_cell_angle_beta 90.000000
_cell_angle_gamma 90.000000
_cell_volume 5146.949729
_symmetry_space_group_name_H-M "C M M M"
_symmetry_group_IT_number 65
_symmetry_cell_setting 'orthorhombic'
loop_
_space_group_symop_operation_xyz
x,y,z
-x,-y,z
x,-y,-z
-x,y,-z
-x,-y,-z
x,y,-z
-x,y,z
x,-y,z
1/2+x,1/2+y,z
1/2-x,1/2-y,z
1/2+x,1/2-y,-z
1/2-x,1/2+y,-z
1/2-x,1/2-y,-z
1/2+x,1/2+y,-z
1/2-x,1/2+y,z
1/2+x,1/2-y,z
loop_
_atom_site_type_symbol
_atom_site_label
_atom_site_fract_x
_atom_site_fract_y
_atom_site_fract_z
Si Si1 0.246323 0.082178 0.176025
Si Si2 0.166585 0.156175 0.323385
Si Si3 0.796246 0.285295 0.165774
Si Si4 0.086160 0.083840 0.176983
Si Si5 0.500000 0.414010 0.330831
O O1 0.204906 0.105200 0.269054
O O2 0.287671 0.131595 0.218619
O O3 0.258297 0.000000 0.216249
O O4 0.235169 0.091840 0.000000
O O5 0.161745 0.148944 0.500000
O O6 0.174440 0.240638 0.281035
O O7 0.123466 0.131350 0.245856
O O8 0.750000 0.250000 0.157688
O O9 0.817578 0.283241 0.000000
O O10 0.041915 0.113758 0.244603
O O11 0.093672 0.000000 0.220094
O O12 0.084893 0.094687 0.000000
O O13 0.500000 0.500000 0.331143
O O14 0.500000 0.383038 0.500000
#
# Coordination Sequence:
#
# PCOD8267296 Si02
#       5
#    16  16  16  16   8
#     4   9  17  29  43  57  74  99 131 164 197 234
#     4  11  20  27  38  57  79 102 130 164 198 229
#     4   8  15  28  42  54  72  99 128 158 194 234
#     4  10  19  30  43  57  75 102 134 163 192 229
#     4   9  17  29  43  59  79  99 122 157 198 233
#
# _framework density 13.988868
#
# number of rings (size 3 to 8) (size 9 to 14) (size 15 to 20)
#    0.000    2.556    0.000    5.000    0.000    9.778 
#    0.000    0.000    0.000    0.000    0.000    0.000 
#    0.000    0.000    0.000    1.000    0.000   20.667 
#
# Total GULP energy -446257.800423 kJ/mol
# GULP energy per Si atom -12396.050012 kJ/mol
# Density = 1.395703 g / cm^3
# Si number density = 13.988868 Si / 1000 Ang^3
#
#
#
# Elastic Constant Matrix: (Units=GPa)
#
#
# Indices 1 2 3 4 5 6 
#
# 1 78.3463 40.9926 37.8380 0.0000 0.0000 0.0000
# 2 40.9926 88.7690 26.5186 0.0000 0.0000 0.0000
# 3 37.8380 26.5186 68.5643 0.0000 0.0000 0.0000
# 4 0.0000 0.0000 0.0000 13.8902 0.0000 0.0000
# 5 0.0000 0.0000 0.0000 0.0000 -27.6652 0.0000
# 6 0.0000 0.0000 0.0000 0.0000 0.0000 16.8707
#
#
#
# Elastic Compliance Matrix: (Units=1/GPa)
#
#
# Indices 1 2 3 4 5 6 
#
# 1 0.020569 -0.006905 -0.008681 0.000000 0.000000 0.000000
# 2 -0.006905 0.015055 -0.002012 0.000000 0.000000 0.000000
# 3 -0.008681 -0.002012 0.020153 0.000000 0.000000 0.000000
# 4 0.000000 0.000000 0.000000 0.071993 0.000000 0.000000
# 5 0.000000 0.000000 0.000000 0.000000 -0.036146 0.000000
# 6 0.000000 0.000000 0.000000 0.000000 0.000000 0.059275
#
#
# Mechanical properties :
#
#
# Convention : Reuss Voigt Hill
#
# Bulk Modulus (GPa) = 48.58654 49.59755 49.09204
# Shear Modulus (GPa) = 25.91265 9.30782 17.61024
#
# Velocity S-wave (km/s) = 4.30859 2.58228 3.55191
# Velocity P-wave (km/s) = 7.71749 6.66505 7.21050
#
# Compressibility (1/GPa) = 0.02058183
#
# Stress axis : x y z
#
# Youngs Moduli (GPa) = 48.61619 66.42260 49.61918
#
# Poissons Ratio (x) = 0.45868 0.43072
# Poissons Ratio (y) = 0.33572 0.09983
# Poissons Ratio (z) = 0.42202 0.13364
#
# Static dielectric constant tensor:
#      x y z
#    x 2.644530 0.000000 0.000000 
#    y 0.000000 3.059710 0.000000 
#    z 0.000000 0.000000 2.826320 
# 
# 
# High freq. dielectric constant tensor:
#      x y z
#    x 1.504630 0.000000 0.000000 
#    y 0.000000 1.512490 0.000000 
#    z 0.000000 0.000000 1.542770 
# 
# From -- ./inp_files/9516.got.cif
#   From: 2010.03.12/outbox.cif.g09.slc.cpg/sg65_5_cif.got.tgz:9516.got - 2010.04.10 20:52:16.
