data_PCOD8267356
_publ_section_title
;
Structure prediction by ZEFSAII (Michael W. Deem and Ramdas Pophale) SiO2 
 PCOD8267356
Probable space group: C M M M
;
_chemical_formula_sum "Si O2"
_cell_formula_units_Z 120
_cell_length_a 28.063685
_cell_length_b 8.889720
_cell_length_c 28.683179
_cell_angle_alpha 90.000000
_cell_angle_beta 90.000000
_cell_angle_gamma 90.000000
_cell_volume 7155.830788
_symmetry_space_group_name_H-M "C M M M"
_symmetry_group_IT_number 65
_symmetry_cell_setting 'orthorhombic'
loop_
_space_group_symop_operation_xyz
x,y,z
-x,-y,z
x,-y,-z
-x,y,-z
-x,-y,-z
x,y,-z
-x,y,z
x,-y,z
1/2+x,1/2+y,z
1/2-x,1/2-y,z
1/2+x,1/2-y,-z
1/2-x,1/2+y,-z
1/2-x,1/2-y,-z
1/2+x,1/2+y,-z
1/2-x,1/2+y,z
1/2+x,1/2-y,z
loop_
_atom_site_type_symbol
_atom_site_label
_atom_site_fract_x
_atom_site_fract_y
_atom_site_fract_z
Si Si1 0.801926 0.677829 0.650511
Si Si2 0.800659 0.675333 0.450847
Si Si3 0.054132 0.673823 0.226516
Si Si4 0.699333 0.324133 0.822674
Si Si5 0.642170 0.677506 0.267231
Si Si6 0.445978 0.825474 0.119108
Si Si7 0.356504 0.324015 0.915540
Si Si8 0.801853 0.321688 0.000000
O O1 0.796921 0.500000 0.658039
O O2 0.750000 0.750000 0.658181
O O3 0.824061 0.719356 0.598977
O O4 0.839515 0.743896 0.686359
O O5 0.828435 0.718379 0.500000
O O6 0.791310 0.500000 0.449989
O O7 0.750000 0.750000 0.452726
O O8 0.068189 0.500000 0.232612
O O9 0.087619 0.775530 0.258813
O O10 0.059947 0.722805 0.172842
O O11 0.000000 0.701407 0.242873
O O12 0.707400 0.500000 0.819386
O O13 0.750000 0.250000 0.828912
O O14 0.673854 0.264130 0.776087
O O15 0.667049 0.280714 0.866491
O O16 0.645322 0.500000 0.273246
O O17 0.500000 0.795170 0.102649
O O18 0.411712 0.724873 0.086897
O O19 0.432847 0.000000 0.112808
O O20 0.352718 0.500000 0.927192
O O21 0.330169 0.229605 0.954695
O O22 0.750000 0.250000 0.000000
O O23 0.796496 0.500000 0.000000
#
# Coordination Sequence:
#
# PCOD8267356 Si02
#       8
#    16  16  16  16  16  16  16   8
#     4  10  19  30  44  65  95 133 171 209 253 297
#     4   8  14  25  41  60  84 118 163 210 252 294
#     4   9  18  33  53  76 101 131 167 204 246 295
#     4  10  22  35  49  71  98 130 167 203 239 285
#     4  11  21  33  47  70 101 134 169 203 246 295
#     4   9  18  34  57  84 110 136 166 202 248 299
#     4  11  22  39  59  82 107 135 171 208 250 297
#     4  12  26  44  63  84 107 136 170 209 255 297
#
# _framework density 16.769542000000001
#
# number of rings (size 3 to 8) (size 9 to 14) (size 15 to 20)
#    0.000    2.133    1.333    3.400    0.000    5.333 
#    0.000    1.667    0.000    2.000    0.000    0.000 
#    0.000    0.533    0.000    6.133    0.000    1.733 
#
# Total GULP energy -743702.525540 kJ/mol
# GULP energy per Si atom -12395.042092 kJ/mol
# Density = 1.673137 g / cm^3
# Si number density = 16.769542 Si / 1000 Ang^3
#
#
#
# Elastic Constant Matrix: (Units=GPa)
#
#
# Indices 1 2 3 4 5 6 
#
# 1 96.7443 40.7021 46.5000 0.0000 0.0000 0.0000
# 2 40.7021 67.9272 50.3211 0.0000 0.0000 0.0000
# 3 46.5000 50.3211 115.3714 0.0000 0.0000 0.0000
# 4 0.0000 0.0000 0.0000 22.1996 0.0000 0.0000
# 5 0.0000 0.0000 0.0000 0.0000 16.1175 0.0000
# 6 0.0000 0.0000 0.0000 0.0000 0.0000 30.6659
#
#
#
# Elastic Compliance Matrix: (Units=1/GPa)
#
#
# Indices 1 2 3 4 5 6 
#
# 1 0.014507 -0.006443 -0.003037 0.000000 0.000000 0.000000
# 2 -0.006443 0.024611 -0.008138 0.000000 0.000000 0.000000
# 3 -0.003037 -0.008138 0.013441 0.000000 0.000000 0.000000
# 4 0.000000 0.000000 0.000000 0.045046 0.000000 0.000000
# 5 0.000000 0.000000 0.000000 0.000000 0.062044 0.000000
# 6 0.000000 0.000000 0.000000 0.000000 0.000000 0.032610
#
#
# Mechanical properties :
#
#
# Convention : Reuss Voigt Hill
#
# Bulk Modulus (GPa) = 57.72331 61.67658 59.69994
# Shear Modulus (GPa) = 21.43467 23.29790 22.36629
#
# Velocity S-wave (km/s) = 3.57906 3.73137 3.65601
# Velocity P-wave (km/s) = 7.18163 7.44466 7.31433
#
# Compressibility (1/GPa) = 0.01732403
#
# Stress axis : x y z
#
# Youngs Moduli (GPa) = 68.93347 40.63293 74.39955
#
# Poissons Ratio (x) = 0.26179 0.22593
# Poissons Ratio (y) = 0.44413 0.60543
# Poissons Ratio (z) = 0.20933 0.33065
#
# Static dielectric constant tensor:
#      x y z
#    x 2.996600 0.000000 0.000000 
#    y 0.000000 3.158960 0.000000 
#    z 0.000000 0.000000 3.523580 
# 
# 
# High freq. dielectric constant tensor:
#      x y z
#    x 1.624750 0.000000 0.000000 
#    y 0.000000 1.653370 0.000000 
#    z 0.000000 0.000000 1.645600 
# 
# From -- ./inp_files/73985.got.cif
#   From: 2010.03.12/outbox.cif.g09.slc.cpg/sg65_37_cif.got.tgz:73985.got - 2010.04.10 20:52:16.
