data_PCOD8267636
_publ_section_title
;
Structure prediction by ZEFSAII (Michael W. Deem and Ramdas Pophale) SiO2 
 PCOD8267636
Probable space group: C M M M
;
_chemical_formula_sum "Si O2"
_cell_formula_units_Z 96
_cell_length_a 14.692823
_cell_length_b 24.867077
_cell_length_c 13.749260
_cell_angle_alpha 90.000000
_cell_angle_beta 90.000000
_cell_angle_gamma 90.000000
_cell_volume 5023.533590
_symmetry_space_group_name_H-M "C M M M"
_symmetry_group_IT_number 65
_symmetry_cell_setting 'orthorhombic'
loop_
_space_group_symop_operation_xyz
x,y,z
-x,-y,z
x,-y,-z
-x,y,-z
-x,-y,-z
x,y,-z
-x,y,z
x,-y,z
1/2+x,1/2+y,z
1/2-x,1/2-y,z
1/2+x,1/2-y,-z
1/2-x,1/2+y,-z
1/2-x,1/2-y,-z
1/2+x,1/2+y,-z
1/2-x,1/2+y,z
1/2+x,1/2-y,z
loop_
_atom_site_type_symbol
_atom_site_label
_atom_site_fract_x
_atom_site_fract_y
_atom_site_fract_z
Si Si1 0.266651 0.876796 0.385275
Si Si2 0.399098 0.782890 0.614603
Si Si3 0.397811 0.143710 0.107089
Si Si4 0.644468 0.739484 0.891372
Si Si5 0.394329 0.938693 0.264603
Si Si6 0.604015 0.327623 0.712490
O O1 0.246269 0.877928 0.500000
O O2 0.326380 0.826092 0.349164
O O3 0.327918 0.928762 0.357134
O O4 0.171458 0.874711 0.325043
O O5 0.399831 0.781654 0.500000
O O6 0.500000 0.797949 0.654262
O O7 0.369302 0.724374 0.649775
O O8 0.500000 0.123854 0.093152
O O9 0.398149 0.204690 0.149507
O O10 0.353793 0.100461 0.180277
O O11 0.348815 0.143016 0.000000
O O12 0.750000 0.750000 0.891626
O O13 0.617375 0.688441 0.825557
O O14 0.607807 0.727294 0.000000
O O15 0.500000 0.925945 0.291736
O O16 0.384470 0.000000 0.229981
O O17 0.500000 0.346425 0.695160
#
# Coordination Sequence:
#
# PCOD8267636 Si02
#       6
#    16  16  16  16  16  16
#     4  11  22  35  51  71  99 134 173 219 268 315
#     4   9  17  29  47  72  99 128 163 203 252 308
#     4   9  17  30  49  74 106 141 171 200 241 299
#     4  10  19  30  48  76 109 143 176 209 249 300
#     4  10  21  36  55  79 103 129 167 217 275 335
#     4  11  21  32  49  72 102 140 178 213 247 293
#
# _framework density 19.110054000000002
#
# number of rings (size 3 to 8) (size 9 to 14) (size 15 to 20)
#    0.000    2.000    0.000    5.000    0.000    7.667 
#    0.000    2.500    0.000    0.500    0.000    1.167 
#    0.000    0.000    0.000    9.333    0.000    0.167 
#
# Total GULP energy -594998.960003 kJ/mol
# GULP energy per Si atom -12395.811667 kJ/mol
# Density = 1.906656 g / cm^3
# Si number density = 19.110054 Si / 1000 Ang^3
#
#
#
# Elastic Constant Matrix: (Units=GPa)
#
#
# Indices 1 2 3 4 5 6 
#
# 1 85.0824 26.6123 41.3861 0.0000 0.0000 0.0000
# 2 26.6123 56.2337 40.2420 0.0000 0.0000 0.0000
# 3 41.3861 40.2420 75.4874 0.0000 0.0000 0.0000
# 4 0.0000 0.0000 0.0000 18.8503 0.0000 0.0000
# 5 0.0000 0.0000 0.0000 0.0000 16.7943 0.0000
# 6 0.0000 0.0000 0.0000 0.0000 0.0000 23.6168
#
#
#
# Elastic Compliance Matrix: (Units=1/GPa)
#
#
# Indices 1 2 3 4 5 6 
#
# 1 0.016182 -0.002117 -0.007743 0.000000 0.000000 0.000000
# 2 -0.002117 0.029028 -0.014314 0.000000 0.000000 0.000000
# 3 -0.007743 -0.014314 0.025124 0.000000 0.000000 0.000000
# 4 0.000000 0.000000 0.000000 0.053050 0.000000 0.000000
# 5 0.000000 0.000000 0.000000 0.000000 0.059544 0.000000
# 6 0.000000 0.000000 0.000000 0.000000 0.000000 0.042343
#
#
# Mechanical properties :
#
#
# Convention : Reuss Voigt Hill
#
# Bulk Modulus (GPa) = 45.48588 48.14270 46.81429
# Shear Modulus (GPa) = 17.79694 19.08983 18.44339
#
# Velocity S-wave (km/s) = 3.05501 3.16403 3.11000
# Velocity P-wave (km/s) = 6.02477 6.21250 6.11936
#
# Compressibility (1/GPa) = 0.02198484
#
# Stress axis : x y z
#
# Youngs Moduli (GPa) = 61.79724 34.44913 39.80330
#
# Poissons Ratio (x) = 0.07292 0.30821
# Poissons Ratio (y) = 0.13080 0.56976
# Poissons Ratio (z) = 0.47852 0.49312
#
# Static dielectric constant tensor:
#      x y z
#    x 3.710280 0.000000 0.000000 
#    y 0.000000 3.136660 0.000000 
#    z 0.000000 0.000000 3.820470 
# 
# 
# High freq. dielectric constant tensor:
#      x y z
#    x 1.736240 0.000000 0.000000 
#    y 0.000000 1.687250 0.000000 
#    z 0.000000 0.000000 1.756400 
# 
# From -- ./inp_files/40368.got.cif
#   From: 2010.03.12/outbox.cif.g09.slc.cpg/sg65_21_cif.got.tgz:40368.got - 2010.04.10 20:52:16.
