data_PCOD8267236
_publ_section_title
;
Structure prediction by ZEFSAII (Michael W. Deem and Ramdas Pophale) SiO2 
 PCOD8267236
Probable space group: C M M M
;
_chemical_formula_sum "Si O2"
_cell_formula_units_Z 88
_cell_length_a 34.264816
_cell_length_b 14.955892
_cell_length_c 8.976223
_cell_angle_alpha 90.000000
_cell_angle_beta 90.000000
_cell_angle_gamma 90.000000
_cell_volume 4599.963205
_symmetry_space_group_name_H-M "C M M M"
_symmetry_group_IT_number 65
_symmetry_cell_setting 'orthorhombic'
loop_
_space_group_symop_operation_xyz
x,y,z
-x,-y,z
x,-y,-z
-x,y,-z
-x,-y,-z
x,y,-z
-x,y,z
x,-y,z
1/2+x,1/2+y,z
1/2-x,1/2-y,z
1/2+x,1/2-y,-z
1/2-x,1/2+y,-z
1/2-x,1/2-y,-z
1/2+x,1/2+y,-z
1/2-x,1/2+y,z
1/2+x,1/2-y,z
loop_
_atom_site_type_symbol
_atom_site_label
_atom_site_fract_x
_atom_site_fract_y
_atom_site_fract_z
Si Si1 0.153101 0.223601 0.176949
Si Si2 0.000000 0.898354 0.322965
Si Si3 0.426139 0.716462 0.677118
Si Si4 0.221874 0.899846 0.823956
Si Si5 0.956160 0.596830 0.676781
Si Si6 0.691360 0.098560 0.177068
O O1 0.114180 0.183856 0.251092
O O2 0.189458 0.166927 0.241029
O O3 0.160576 0.326306 0.229032
O O4 0.149111 0.215218 0.000000
O O5 0.961370 0.846682 0.265764
O O6 0.000000 0.898580 0.500000
O O7 0.000000 0.000000 0.260931
O O8 0.423085 0.712097 0.500000
O O9 0.432211 0.818221 0.736838
O O10 0.265216 0.877474 0.762012
O O11 0.210045 0.000000 0.777230
O O12 0.222527 0.889112 0.000000
O O13 0.957570 0.602038 0.500000
O O14 0.938239 0.500000 0.727196
O O15 0.000000 0.604359 0.739367
O O16 0.678408 0.000000 0.235902
O O17 0.693659 0.096908 0.000000
#
# Coordination Sequence:
#
# PCOD8267236 Si02
#       6
#    16   8  16  16  16  16
#     4  10  19  29  45  71  98 121 147 188 235 273
#     4   9  18  34  54  70  86 117 161 199 226 262
#     4  10  19  32  49  69  92 119 153 191 229 273
#     4   8  14  26  45  67  90 119 158 196 223 257
#     4   8  13  24  45  68  85 106 143 188 224 257
#     4   8  14  26  45  68  93 123 157 188 219 263
#
# _framework density 19.130589000000001
#
# number of rings (size 3 to 8) (size 9 to 14) (size 15 to 20)
#    0.000    3.182    0.909    2.182    0.000    3.636 
#    0.000    0.455    0.000    2.727    0.000    3.818 
#    0.000    0.000    0.000    0.000    0.000    0.000 
#
# Total GULP energy -545158.485382 kJ/mol
# GULP energy per Si atom -12389.965577 kJ/mol
# Density = 1.908705 g / cm^3
# Si number density = 19.130589 Si / 1000 Ang^3
#
#
#
# Elastic Constant Matrix: (Units=GPa)
#
#
# Indices 1 2 3 4 5 6 
#
# 1 117.0945 55.9405 16.0261 0.0000 0.0000 0.0000
# 2 55.9405 116.9155 14.1805 0.0000 0.0000 0.0000
# 3 16.0261 14.1805 10.6646 0.0000 0.0000 0.0000
# 4 0.0000 0.0000 0.0000 8.6614 0.0000 0.0000
# 5 0.0000 0.0000 0.0000 0.0000 455.7491 0.0000
# 6 0.0000 0.0000 0.0000 0.0000 0.0000 21.3328
#
#
#
# Elastic Compliance Matrix: (Units=1/GPa)
#
#
# Indices 1 2 3 4 5 6 
#
# 1 0.012379 -0.004372 -0.012789 0.000000 0.000000 0.000000
# 2 -0.004372 0.011742 -0.009043 0.000000 0.000000 0.000000
# 3 -0.012789 -0.009043 0.125012 0.000000 0.000000 0.000000
# 4 0.000000 0.000000 0.000000 0.115455 0.000000 0.000000
# 5 0.000000 0.000000 0.000000 0.000000 0.002194 0.000000
# 6 0.000000 0.000000 0.000000 0.000000 0.000000 0.046876
#
#
# Mechanical properties :
#
#
# Convention : Reuss Voigt Hill
#
# Bulk Modulus (GPa) = 10.33872 46.32986 28.33429
# Shear Modulus (GPa) = 12.55309 107.71715 60.13512
#
# Velocity S-wave (km/s) = 2.56438 7.51189 5.61269
# Velocity P-wave (km/s) = 3.76617 9.97538 7.53964
#
# Compressibility (1/GPa) = 0.09672378
#
# Stress axis : x y z
#
# Youngs Moduli (GPa) = 80.78118 85.16590 7.99926
#
# Poissons Ratio (x) = 0.37233 0.10231
# Poissons Ratio (y) = 0.35316 0.07234
# Poissons Ratio (z) = 1.03315 0.77016
#
# Static dielectric constant tensor:
#      x y z
#    x 3.578410 0.000000 0.000000 
#    y 0.000000 3.978240 0.000000 
#    z 0.000000 0.000000 2.691510 
# 
# 
# High freq. dielectric constant tensor:
#      x y z
#    x 1.743450 0.000000 0.000000 
#    y 0.000000 1.758040 0.000000 
#    z 0.000000 0.000000 1.661200 
# 
# From -- ./inp_files/32206.got.cif
#   From: 2010.03.12/outbox.cif.g09.slc.cpg/sg65_17_cif.got.tgz:32206.got - 2010.04.10 20:52:16.
