data_PCOD8267303
_publ_section_title
;
Structure prediction by ZEFSAII (Michael W. Deem and Ramdas Pophale) SiO2 
 PCOD8267303
Probable space group: C M M M
;
_chemical_formula_sum "Si O2"
_cell_formula_units_Z 96
_cell_length_a 27.537320
_cell_length_b 11.631104
_cell_length_c 20.780573
_cell_angle_alpha 90.000000
_cell_angle_beta 90.000000
_cell_angle_gamma 90.000000
_cell_volume 6655.797939
_symmetry_space_group_name_H-M "C M M M"
_symmetry_group_IT_number 65
_symmetry_cell_setting 'orthorhombic'
loop_
_space_group_symop_operation_xyz
x,y,z
-x,-y,z
x,-y,-z
-x,y,-z
-x,-y,-z
x,y,-z
-x,y,z
x,-y,z
1/2+x,1/2+y,z
1/2-x,1/2-y,z
1/2+x,1/2-y,-z
1/2-x,1/2+y,-z
1/2-x,1/2-y,-z
1/2+x,1/2+y,-z
1/2-x,1/2+y,z
1/2+x,1/2-y,z
loop_
_atom_site_type_symbol
_atom_site_label
_atom_site_fract_x
_atom_site_fract_y
_atom_site_fract_z
Si Si1 0.194919 0.764977 0.074878
Si Si2 0.890205 0.364960 0.875794
Si Si3 0.554441 0.862776 0.000000
Si Si4 0.443714 0.257241 0.237018
Si Si5 0.553055 0.136181 0.500000
Si Si6 0.055987 0.000000 0.821178
Si Si7 0.057818 0.629092 0.362318
Si Si8 0.359625 0.500000 0.925775
O O1 0.250000 0.750000 0.098147
O O2 0.165362 0.673047 0.117015
O O3 0.174388 0.891422 0.089566
O O4 0.190360 0.732947 0.000000
O O5 0.893986 0.500000 0.874536
O O6 0.919406 0.312773 0.936828
O O7 0.912793 0.318145 0.811249
O O8 0.500000 0.815160 0.000000
O O9 0.555836 0.000000 0.000000
O O10 0.500000 0.225394 0.227157
O O11 0.433894 0.391297 0.224706
O O12 0.426048 0.221211 0.308416
O O13 0.500000 0.195313 0.500000
O O14 0.579764 0.169562 0.432316
O O15 0.546900 0.000000 0.500000
O O16 0.091959 0.000000 0.882194
O O17 0.000000 0.000000 0.846171
O O18 0.076139 0.500000 0.344160
O O19 0.000000 0.626286 0.369017
O O20 0.376830 0.500000 0.000000
#
# Coordination Sequence:
#
# PCOD8267303 Si02
#       8
#    16  16   8  16   8   8  16   8
#     4  10  21  35  51  66  82 105 138 184 231 273
#     4  11  20  30  45  64  84 107 139 177 221 267
#     4   9  18  30  41  57  83 111 133 166 213 260
#     4  10  19  30  43  60  86 118 150 181 215 260
#     4   7  10  18  34  57  83 109 140 178 214 251
#     4  10  20  33  46  61  86 122 157 185 218 262
#     4   8  13  22  38  60  84 111 144 180 218 254
#     4  10  20  37  52  66  83 109 152 192 229 273
#
# _framework density 14.423515
#
# number of rings (size 3 to 8) (size 9 to 14) (size 15 to 20)
#    0.000    2.500    2.500    2.000    1.167    1.833 
#    0.000    0.000    0.000    0.500    0.000    3.500 
#    0.000    0.000    0.000    0.750    0.000    4.417 
#
# Total GULP energy -594895.732866 kJ/mol
# GULP energy per Si atom -12393.661101 kJ/mol
# Density = 1.439069 g / cm^3
# Si number density = 14.423515 Si / 1000 Ang^3
#
#
#
# Elastic Constant Matrix: (Units=GPa)
#
#
# Indices 1 2 3 4 5 6 
#
# 1 72.0730 31.6561 46.2497 0.0000 0.0000 0.0000
# 2 31.6561 72.4872 47.7749 0.0000 0.0000 0.0000
# 3 46.2497 47.7749 122.9193 0.0000 0.0000 0.0000
# 4 0.0000 0.0000 0.0000 16.5972 0.0000 0.0000
# 5 0.0000 0.0000 0.0000 0.0000 3.6830 0.0000
# 6 0.0000 0.0000 0.0000 0.0000 0.0000 16.3764
#
#
#
# Elastic Compliance Matrix: (Units=1/GPa)
#
#
# Indices 1 2 3 4 5 6 
#
# 1 0.019531 -0.004955 -0.005423 0.000000 0.000000 0.000000
# 2 -0.004955 0.019804 -0.005833 0.000000 0.000000 0.000000
# 3 -0.005423 -0.005833 0.012443 0.000000 0.000000 0.000000
# 4 0.000000 0.000000 0.000000 0.060251 0.000000 0.000000
# 5 0.000000 0.000000 0.000000 0.000000 0.271520 0.000000
# 6 0.000000 0.000000 0.000000 0.000000 0.000000 0.061063
#
#
# Mechanical properties :
#
#
# Convention : Reuss Voigt Hill
#
# Bulk Modulus (GPa) = 51.66337 57.64900 54.65619
# Shear Modulus (GPa) = 10.34157 16.78456 13.56306
#
# Velocity S-wave (km/s) = 2.68058 3.41500 3.06983
# Velocity P-wave (km/s) = 6.74368 7.45689 7.10923
#
# Compressibility (1/GPa) = 0.01935607
#
# Stress axis : x y z
#
# Youngs Moduli (GPa) = 51.20006 50.49534 80.36810
#
# Poissons Ratio (x) = 0.25023 0.43582
# Poissons Ratio (y) = 0.25372 0.46875
# Poissons Ratio (z) = 0.27765 0.29452
#
# Static dielectric constant tensor:
#      x y z
#    x 2.615650 0.000000 0.000000 
#    y 0.000000 2.794250 0.000000 
#    z 0.000000 0.000000 3.050440 
# 
# 
# High freq. dielectric constant tensor:
#      x y z
#    x 1.514490 0.000000 0.000000 
#    y 0.000000 1.547360 0.000000 
#    z 0.000000 0.000000 1.541800 
# 
# From -- ./inp_files/66029.got.cif
#   From: 2010.03.12/outbox.cif.g09.slc.cpg/sg65_34_cif.got.tgz:66029.got - 2010.04.10 20:52:16.
