data_PCOD8267509
_publ_section_title
;
Structure prediction by ZEFSAII (Michael W. Deem and Ramdas Pophale) SiO2 
 PCOD8267509
Probable space group: C M M M
;
_chemical_formula_sum "Si O2"
_cell_formula_units_Z 88
_cell_length_a 9.019414
_cell_length_b 26.980318
_cell_length_c 21.405960
_cell_angle_alpha 90.000000
_cell_angle_beta 90.000000
_cell_angle_gamma 90.000000
_cell_volume 5209.068825
_symmetry_space_group_name_H-M "C M M M"
_symmetry_group_IT_number 65
_symmetry_cell_setting 'orthorhombic'
loop_
_space_group_symop_operation_xyz
x,y,z
-x,-y,z
x,-y,-z
-x,y,-z
-x,-y,-z
x,y,-z
-x,y,z
x,-y,z
1/2+x,1/2+y,z
1/2-x,1/2-y,z
1/2+x,1/2-y,-z
1/2-x,1/2+y,-z
1/2-x,1/2-y,-z
1/2+x,1/2+y,-z
1/2-x,1/2+y,z
1/2+x,1/2-y,z
loop_
_atom_site_type_symbol
_atom_site_label
_atom_site_fract_x
_atom_site_fract_y
_atom_site_fract_z
Si Si1 0.170421 0.299861 0.687063
Si Si2 0.672722 0.139286 0.570497
Si Si3 0.673418 0.899578 0.756010
Si Si4 0.674321 0.442293 0.125169
Si Si5 0.170480 0.943353 0.639522
Si Si6 0.166944 0.441221 0.000000
O O1 0.250000 0.250000 0.708172
O O2 0.225882 0.318191 0.618626
O O3 0.202257 0.342437 0.737820
O O4 0.000000 0.286383 0.683426
O O5 0.702757 0.157501 0.500000
O O6 0.500000 0.127207 0.582310
O O7 0.764215 0.089322 0.583210
O O8 0.500000 0.911149 0.763343
O O9 0.756396 0.909589 0.820288
O O10 0.738495 0.935181 0.702927
O O11 0.500000 0.433148 0.121784
O O12 0.711081 0.500000 0.136973
O O13 0.746223 0.422626 0.061070
O O14 0.000000 0.928910 0.651864
O O15 0.186108 0.000000 0.618541
O O16 0.163556 0.500000 0.000000
O O17 0.000000 0.419608 0.000000
#
# Coordination Sequence:
#
# PCOD8267509 Si02
#       6
#    16  16  16  16  16   8
#     4   9  19  34  51  71  93 117 149 193 241 287
#     4   9  19  35  51  68  92 121 154 190 230 283
#     4  10  20  33  49  70  95 124 160 197 234 282
#     4  10  19  30  46  71 103 135 166 200 235 270
#     4  10  20  32  46  67  95 124 156 195 235 275
#     4   9  17  29  45  67  98 137 174 201 229 269
#
# _framework density 16.893615
#
# number of rings (size 3 to 8) (size 9 to 14) (size 15 to 20)
#    0.000    2.455    0.000    3.545    0.000   10.545 
#    0.000    1.818    0.000    0.000    0.000    0.636 
#    0.000    0.000    0.000    0.000    0.000    0.000 
#
# Total GULP energy -545643.647799 kJ/mol
# GULP energy per Si atom -12400.991995 kJ/mol
# Density = 1.685516 g / cm^3
# Si number density = 16.893615 Si / 1000 Ang^3
#
#
#
# Elastic Constant Matrix: (Units=GPa)
#
#
# Indices 1 2 3 4 5 6 
#
# 1 93.4102 42.1267 46.5062 0.0000 0.0000 0.0000
# 2 42.1267 73.8480 30.2288 0.0000 0.0000 0.0000
# 3 46.5062 30.2288 114.8892 0.0000 0.0000 0.0000
# 4 0.0000 0.0000 0.0000 14.7415 0.0000 0.0000
# 5 0.0000 0.0000 0.0000 0.0000 27.0224 0.0000
# 6 0.0000 0.0000 0.0000 0.0000 0.0000 28.1062
#
#
#
# Elastic Compliance Matrix: (Units=1/GPa)
#
#
# Indices 1 2 3 4 5 6 
#
# 1 0.016386 -0.007433 -0.004677 0.000000 0.000000 0.000000
# 2 -0.007433 0.018547 -0.001871 0.000000 0.000000 0.000000
# 3 -0.004677 -0.001871 0.011090 0.000000 0.000000 0.000000
# 4 0.000000 0.000000 0.000000 0.067836 0.000000 0.000000
# 5 0.000000 0.000000 0.000000 0.000000 0.037006 0.000000
# 6 0.000000 0.000000 0.000000 0.000000 0.000000 0.035579
#
#
# Mechanical properties :
#
#
# Convention : Reuss Voigt Hill
#
# Bulk Modulus (GPa) = 55.36990 57.76344 56.56667
# Shear Modulus (GPa) = 22.68309 24.85972 23.77140
#
# Velocity S-wave (km/s) = 3.66826 3.84023 3.75523
# Velocity P-wave (km/s) = 7.12659 7.34370 7.23596
#
# Compressibility (1/GPa) = 0.01806036
#
# Stress axis : x y z
#
# Youngs Moduli (GPa) = 61.02624 53.91570 90.17343
#
# Poissons Ratio (x) = 0.40076 0.42177
# Poissons Ratio (y) = 0.45361 0.16874
# Poissons Ratio (z) = 0.28544 0.10089
#
# Static dielectric constant tensor:
#      x y z
#    x 3.302520 0.000000 0.000000 
#    y 0.000000 2.919070 0.000000 
#    z 0.000000 0.000000 3.193140 
# 
# 
# High freq. dielectric constant tensor:
#      x y z
#    x 1.665250 0.000000 0.000000 
#    y 0.000000 1.621680 0.000000 
#    z 0.000000 0.000000 1.648390 
# 
# From -- ./inp_files/59842.got.cif
#   From: 2010.03.12/outbox.cif.g09.slc.cpg/sg65_30_cif.got.tgz:59842.got - 2010.04.10 20:52:16.
