data_PCOD8267826
_publ_section_title
;
Structure prediction by ZEFSAII (Michael W. Deem and Ramdas Pophale) SiO2 
 PCOD8267826
Probable space group: C M M M
;
_chemical_formula_sum "Si O2"
_cell_formula_units_Z 104
_cell_length_a 8.944576
_cell_length_b 19.014239
_cell_length_c 33.934498
_cell_angle_alpha 90.000000
_cell_angle_beta 90.000000
_cell_angle_gamma 90.000000
_cell_volume 5771.386191
_symmetry_space_group_name_H-M "C M M M"
_symmetry_group_IT_number 65
_symmetry_cell_setting 'orthorhombic'
loop_
_space_group_symop_operation_xyz
x,y,z
-x,-y,z
x,-y,-z
-x,y,-z
-x,-y,-z
x,y,-z
-x,y,z
x,-y,z
1/2+x,1/2+y,z
1/2-x,1/2-y,z
1/2+x,1/2-y,-z
1/2-x,1/2+y,-z
1/2-x,1/2-y,-z
1/2+x,1/2+y,-z
1/2-x,1/2+y,z
1/2+x,1/2-y,z
loop_
_atom_site_type_symbol
_atom_site_label
_atom_site_fract_x
_atom_site_fract_y
_atom_site_fract_z
Si Si1 0.323120 0.326362 0.831086
Si Si2 0.831174 0.083647 0.314246
Si Si3 0.824335 0.825672 0.000000
Si Si4 0.174283 0.824418 0.916773
Si Si5 0.828724 0.416732 0.392748
Si Si6 0.827152 0.417029 0.764766
Si Si7 0.325250 0.322202 0.545619
O O1 0.500000 0.319234 0.824578
O O2 0.250000 0.250000 0.825311
O O3 0.283425 0.359459 0.874691
O O4 0.257040 0.381139 0.800616
O O5 0.747704 0.112481 0.352959
O O6 0.743849 0.111135 0.275878
O O7 0.000000 0.113044 0.313580
O O8 0.830643 0.000000 0.314759
O O9 0.750000 0.750000 0.000000
O O10 0.780835 0.865225 0.958190
O O11 0.000000 0.813413 0.000000
O O12 0.250000 0.750000 0.918169
O O13 0.000000 0.810232 0.916468
O O14 0.814699 0.500000 0.395336
O O15 0.744366 0.386346 0.430442
O O16 0.000000 0.392115 0.392763
O O17 0.804677 0.500000 0.769081
O O18 0.000000 0.395677 0.765091
O O19 0.290330 0.336825 0.500000
O O20 0.500000 0.317178 0.554127
O O21 0.250000 0.250000 0.559744
#
# Coordination Sequence:
#
# PCOD8267826 Si02
#       7
#    16  16   8  16  16  16  16
#     4  10  19  31  47  69  98 129 160 196 242 291
#     4   9  17  31  52  76 101 129 162 201 245 292
#     4   8  12  20  34  54  81 112 147 185 227 275
#     4   8  14  23  37  58  85 117 150 187 231 280
#     4  10  20  34  54  80 108 136 167 205 248 293
#     4  10  20  34  52  73  97 127 164 203 243 290
#     4  10  21  37  56  77 104 139 176 212 251 296
#
# _framework density 18.019933999999999
#
# number of rings (size 3 to 8) (size 9 to 14) (size 15 to 20)
#    0.000    2.615    0.000    2.308    0.000    5.538 
#    0.000    2.308    0.000    0.000    0.000    0.538 
#    0.000    4.308    0.000    0.000    0.000    0.308 
#
# Total GULP energy -644234.641447 kJ/mol
# GULP energy per Si atom -12389.127720 kJ/mol
# Density = 1.797892 g / cm^3
# Si number density = 18.019934 Si / 1000 Ang^3
#
#
#
# Elastic Constant Matrix: (Units=GPa)
#
#
# Indices 1 2 3 4 5 6 
#
# 1 110.9315 28.0221 72.4792 0.0000 0.0000 0.0000
# 2 28.0221 24.5984 37.4905 0.0000 0.0000 0.0000
# 3 72.4792 37.4905 161.0085 0.0000 0.0000 0.0000
# 4 0.0000 0.0000 0.0000 9.1756 0.0000 0.0000
# 5 0.0000 0.0000 0.0000 0.0000 25.7027 0.0000
# 6 0.0000 0.0000 0.0000 0.0000 0.0000 24.6299
#
#
#
# Elastic Compliance Matrix: (Units=1/GPa)
#
#
# Indices 1 2 3 4 5 6 
#
# 1 0.014189 -0.009966 -0.004067 0.000000 0.000000 0.000000
# 2 -0.009966 0.070016 -0.011817 0.000000 0.000000 0.000000
# 3 -0.004067 -0.011817 0.010793 0.000000 0.000000 0.000000
# 4 0.000000 0.000000 0.000000 0.108984 0.000000 0.000000
# 5 0.000000 0.000000 0.000000 0.000000 0.038906 0.000000
# 6 0.000000 0.000000 0.000000 0.000000 0.000000 0.040601
#
#
# Mechanical properties :
#
#
# Convention : Reuss Voigt Hill
#
# Bulk Modulus (GPa) = 23.09508 63.61356 43.35432
# Shear Modulus (GPa) = 14.30116 22.47142 18.38629
#
# Velocity S-wave (km/s) = 2.82020 3.53516 3.19773
# Velocity P-wave (km/s) = 4.84241 7.21399 6.14372
#
# Compressibility (1/GPa) = 0.04329926
#
# Stress axis : x y z
#
# Youngs Moduli (GPa) = 70.47653 14.28245 92.65151
#
# Poissons Ratio (x) = 0.14233 0.37680
# Poissons Ratio (y) = 0.70235 1.09486
# Poissons Ratio (z) = 0.28662 0.16878
#
# Static dielectric constant tensor:
#      x y z
#    x 3.509500 0.000000 0.000000 
#    y 0.000000 2.794660 0.000000 
#    z 0.000000 0.000000 4.008040 
# 
# 
# High freq. dielectric constant tensor:
#      x y z
#    x 1.714060 0.000000 0.000000 
#    y 0.000000 1.636140 0.000000 
#    z 0.000000 0.000000 1.727830 
# 
# From -- ./inp_files/76888.got.cif
#   From: 2010.03.12/outbox.cif.g09.slc.cpg/sg65_39_cif.got.tgz:76888.got - 2010.04.10 20:52:16.
