data_PCOD8267812
_publ_section_title
;
Structure prediction by ZEFSAII (Michael W. Deem and Ramdas Pophale) SiO2 
 PCOD8267812
Probable space group: C M M M
;
_chemical_formula_sum "Si O2"
_cell_formula_units_Z 120
_cell_length_a 29.072120
_cell_length_b 8.144021
_cell_length_c 29.816841
_cell_angle_alpha 90.000000
_cell_angle_beta 90.000000
_cell_angle_gamma 90.000000
_cell_volume 7059.553224
_symmetry_space_group_name_H-M "C M M M"
_symmetry_group_IT_number 65
_symmetry_cell_setting 'orthorhombic'
loop_
_space_group_symop_operation_xyz
x,y,z
-x,-y,z
x,-y,-z
-x,y,-z
-x,-y,-z
x,y,-z
-x,y,z
x,-y,z
1/2+x,1/2+y,z
1/2-x,1/2-y,z
1/2+x,1/2-y,-z
1/2-x,1/2+y,-z
1/2-x,1/2-y,-z
1/2+x,1/2+y,-z
1/2-x,1/2+y,z
1/2+x,1/2-y,z
loop_
_atom_site_type_symbol
_atom_site_label
_atom_site_fract_x
_atom_site_fract_y
_atom_site_fract_z
Si Si1 0.448406 0.693865 0.132305
Si Si2 0.054822 0.500000 0.448935
Si Si3 0.201296 0.693799 0.192382
Si Si4 0.948261 0.311409 0.302054
Si Si5 0.891423 0.305654 0.950245
Si Si6 0.054616 0.182459 0.396067
Si Si7 0.894156 0.190480 0.781303
Si Si8 0.298181 0.193488 0.909306
O O1 0.500000 0.763625 0.138608
O O2 0.448675 0.500000 0.133596
O O3 0.430221 0.749997 0.084161
O O4 0.416237 0.761485 0.172511
O O5 0.071882 0.500000 0.500000
O O6 0.074667 0.332251 0.426182
O O7 0.000000 0.500000 0.445562
O O8 0.195447 0.500000 0.195423
O O9 0.250000 0.750000 0.213600
O O10 0.160373 0.779740 0.219533
O O11 0.198755 0.760464 0.141443
O O12 0.947653 0.500000 0.317178
O O13 0.930235 0.206994 0.344400
O O14 0.915401 0.287155 0.260026
O O15 0.000000 0.257178 0.288588
O O16 0.888918 0.500000 0.950050
O O17 0.841380 0.233097 0.936561
O O18 0.903853 0.240062 0.000000
O O19 0.000000 0.189549 0.399236
O O20 0.071927 0.000000 0.411805
O O21 0.905733 0.000000 0.775684
O O22 0.250000 0.250000 0.931533
O O23 0.300213 0.000000 0.909467
#
# Coordination Sequence:
#
# PCOD8267812 Si02
#       8
#    16   8  16  16  16  16  16  16
#     4  10  22  38  53  70  94 120 150 192 235 276
#     4   9  16  26  40  60  88 124 172 224 265 307
#     4  10  19  33  52  73  97 123 151 186 229 277
#     4  10  19  31  47  68  96 130 167 209 256 302
#     4  10  21  37  54  72  94 119 148 183 226 279
#     4   9  16  27  42  60  88 126 167 216 266 306
#     4  11  21  33  51  74  97 122 157 197 239 290
#     4   9  18  32  51  73  96 118 143 176 221 271
#
# _framework density 16.998242999999999
#
# number of rings (size 3 to 8) (size 9 to 14) (size 15 to 20)
#    0.000    2.200    2.000    1.600    0.000    4.267 
#    0.000    2.667    0.000    0.000    0.000    0.000 
#    0.000    0.000    0.000    0.000    0.000    0.667 
#
# Total GULP energy -743889.880376 kJ/mol
# GULP energy per Si atom -12398.164673 kJ/mol
# Density = 1.695955 g / cm^3
# Si number density = 16.998243 Si / 1000 Ang^3
#
#
#
# Elastic Constant Matrix: (Units=GPa)
#
#
# Indices 1 2 3 4 5 6 
#
# 1 88.0949 14.4331 35.3135 0.0000 0.0000 0.0000
# 2 14.4331 64.1669 34.1088 0.0000 0.0000 0.0000
# 3 35.3135 34.1088 96.0417 0.0000 0.0000 0.0000
# 4 0.0000 0.0000 0.0000 21.5186 0.0000 0.0000
# 5 0.0000 0.0000 0.0000 0.0000 -39.1578 0.0000
# 6 0.0000 0.0000 0.0000 0.0000 0.0000 21.1689
#
#
#
# Elastic Compliance Matrix: (Units=1/GPa)
#
#
# Indices 1 2 3 4 5 6 
#
# 1 0.013326 -0.000484 -0.004728 0.000000 0.000000 0.000000
# 2 -0.000484 0.019229 -0.006651 0.000000 0.000000 0.000000
# 3 -0.004728 -0.006651 0.014513 0.000000 0.000000 0.000000
# 4 0.000000 0.000000 0.000000 0.046471 0.000000 0.000000
# 5 0.000000 0.000000 0.000000 0.000000 -0.025538 0.000000
# 6 0.000000 0.000000 0.000000 0.000000 0.000000 0.047239
#
#
# Mechanical properties :
#
#
# Convention : Reuss Voigt Hill
#
# Bulk Modulus (GPa) = 42.84280 46.22380 44.53330
# Shear Modulus (GPa) = 34.07241 11.66915 22.87078
#
# Velocity S-wave (km/s) = 4.48198 2.62294 3.67206
# Velocity P-wave (km/s) = 7.21410 6.03535 6.65089
#
# Compressibility (1/GPa) = 0.02334115
#
# Stress axis : x y z
#
# Youngs Moduli (GPa) = 75.04176 52.00572 68.90591
#
# Poissons Ratio (x) = 0.02518 0.32577
# Poissons Ratio (y) = 0.03634 0.45829
# Poissons Ratio (z) = 0.35478 0.34589
#
# Static dielectric constant tensor:
#      x y z
#    x 3.102640 0.000000 0.000000 
#    y 0.000000 3.226230 0.000000 
#    z 0.000000 0.000000 9.597930 
# 
# 
# High freq. dielectric constant tensor:
#      x y z
#    x 1.624280 0.000000 0.000000 
#    y 0.000000 1.662470 0.000000 
#    z 0.000000 0.000000 1.631460 
# 
# From -- ./inp_files/76154.got.cif
#   From: 2010.03.12/outbox.cif.g09.slc.cpg/sg65_39_cif.got.tgz:76154.got - 2010.04.10 20:52:16.
