data_PCOD8267343
_publ_section_title
;
Structure prediction by ZEFSAII (Michael W. Deem and Ramdas Pophale) SiO2 
 PCOD8267343
Probable space group: C M M M
;
_chemical_formula_sum "Si O2"
_cell_formula_units_Z 88
_cell_length_a 27.496974
_cell_length_b 8.905900
_cell_length_c 21.837733
_cell_angle_alpha 90.000000
_cell_angle_beta 90.000000
_cell_angle_gamma 90.000000
_cell_volume 5347.739813
_symmetry_space_group_name_H-M "C M M M"
_symmetry_group_IT_number 65
_symmetry_cell_setting 'orthorhombic'
loop_
_space_group_symop_operation_xyz
x,y,z
-x,-y,z
x,-y,-z
-x,y,-z
-x,-y,-z
x,y,-z
-x,y,z
x,-y,z
1/2+x,1/2+y,z
1/2-x,1/2-y,z
1/2+x,1/2-y,-z
1/2-x,1/2+y,-z
1/2-x,1/2-y,-z
1/2+x,1/2+y,-z
1/2-x,1/2+y,z
1/2+x,1/2-y,z
loop_
_atom_site_type_symbol
_atom_site_label
_atom_site_fract_x
_atom_site_fract_y
_atom_site_fract_z
Si Si1 0.199998 0.175802 0.359927
Si Si2 0.106078 0.175291 0.433164
Si Si3 0.197640 0.676178 0.132024
Si Si4 0.356898 0.177715 0.748387
Si Si5 0.444548 0.677671 0.687107
Si Si6 0.198618 0.325056 0.000000
O O1 0.250000 0.250000 0.381493
O O2 0.161555 0.207018 0.413845
O O3 0.182006 0.251301 0.297541
O O4 0.207076 0.000000 0.347746
O O5 0.096325 0.250711 0.500000
O O6 0.069803 0.238381 0.380846
O O7 0.096542 0.000000 0.439195
O O8 0.206810 0.500000 0.136864
O O9 0.250000 0.750000 0.142785
O O10 0.159242 0.726741 0.183488
O O11 0.173701 0.720237 0.065141
O O12 0.410862 0.242804 0.737456
O O13 0.357788 0.000000 0.739297
O O14 0.500000 0.720665 0.701019
O O15 0.435251 0.500000 0.690684
O O16 0.250000 0.250000 0.000000
O O17 0.207675 0.500000 0.000000
#
# Coordination Sequence:
#
# PCOD8267343 Si02
#       6
#    16  16  16  16  16   8
#     4  10  19  30  44  63  88 118 149 180 214 252
#     4   8  15  28  45  65  87 110 139 175 214 260
#     4   9  17  27  42  64  90 120 149 176 208 246
#     4  10  19  30  45  66  89 115 147 180 216 257
#     4   9  18  32  49  68  88 110 138 176 223 268
#     4   8  14  26  40  58  87 118 147 177 206 241
#
# _framework density 16.455549999999999
#
# number of rings (size 3 to 8) (size 9 to 14) (size 15 to 20)
#    0.000    2.909    0.000    2.727    0.000    4.000 
#    0.000    1.818    0.000   13.091    0.000    5.727 
#    0.000    5.091    0.000    0.000    0.000    0.000 
#
# Total GULP energy -545185.272345 kJ/mol
# GULP energy per Si atom -12390.574371 kJ/mol
# Density = 1.641810 g / cm^3
# Si number density = 16.455550 Si / 1000 Ang^3
#
#
#
# Elastic Constant Matrix: (Units=GPa)
#
#
# Indices 1 2 3 4 5 6 
#
# 1 96.7036 31.1042 53.4338 0.0000 0.0000 0.0000
# 2 31.1042 42.4599 31.5320 0.0000 0.0000 0.0000
# 3 53.4338 31.5320 148.0002 0.0000 0.0000 0.0000
# 4 0.0000 0.0000 0.0000 17.1164 0.0000 0.0000
# 5 0.0000 0.0000 0.0000 0.0000 16.8079 0.0000
# 6 0.0000 0.0000 0.0000 0.0000 0.0000 24.4743
#
#
#
# Elastic Compliance Matrix: (Units=1/GPa)
#
#
# Indices 1 2 3 4 5 6 
#
# 1 0.015030 -0.008293 -0.003660 0.000000 0.000000 0.000000
# 2 -0.008293 0.032554 -0.003942 0.000000 0.000000 0.000000
# 3 -0.003660 -0.003942 0.008918 0.000000 0.000000 0.000000
# 4 0.000000 0.000000 0.000000 0.058423 0.000000 0.000000
# 5 0.000000 0.000000 0.000000 0.000000 0.059496 0.000000
# 6 0.000000 0.000000 0.000000 0.000000 0.000000 0.040859
#
#
# Mechanical properties :
#
#
# Convention : Reuss Voigt Hill
#
# Bulk Modulus (GPa) = 40.46353 57.70039 49.08196
# Shear Modulus (GPa) = 19.58429 23.08597 21.33513
#
# Velocity S-wave (km/s) = 3.45357 3.74963 3.60464
# Velocity P-wave (km/s) = 6.36756 7.34077 6.87142
#
# Compressibility (1/GPa) = 0.02471361
#
# Stress axis : x y z
#
# Youngs Moduli (GPa) = 66.53188 30.71846 112.13461
#
# Poissons Ratio (x) = 0.25474 0.41039
# Poissons Ratio (y) = 0.55173 0.44200
# Poissons Ratio (z) = 0.24349 0.12108
#
# Static dielectric constant tensor:
#      x y z
#    x 2.945420 0.000000 0.000000 
#    y 0.000000 3.068530 0.000000 
#    z 0.000000 0.000000 3.654620 
# 
# 
# High freq. dielectric constant tensor:
#      x y z
#    x 1.607780 0.000000 0.000000 
#    y 0.000000 1.622280 0.000000 
#    z 0.000000 0.000000 1.638530 
# 
# From -- ./inp_files/60640.got.cif
#   From: 2010.03.12/outbox.cif.g09.slc.cpg/sg65_31_cif.got.tgz:60640.got - 2010.04.10 20:52:16.
