data_PCOD8267970
_publ_section_title
;
Structure prediction by ZEFSAII (Michael W. Deem and Ramdas Pophale) SiO2 
 PCOD8267970
Probable space group: C M M M
;
_chemical_formula_sum "Si O2"
_cell_formula_units_Z 88
_cell_length_a 19.552297
_cell_length_b 14.781504
_cell_length_c 16.872242
_cell_angle_alpha 90.000000
_cell_angle_beta 90.000000
_cell_angle_gamma 90.000000
_cell_volume 4876.286417
_symmetry_space_group_name_H-M "C M M M"
_symmetry_group_IT_number 65
_symmetry_cell_setting 'orthorhombic'
loop_
_space_group_symop_operation_xyz
x,y,z
-x,-y,z
x,-y,-z
-x,y,-z
-x,-y,-z
x,y,-z
-x,y,z
x,-y,z
1/2+x,1/2+y,z
1/2-x,1/2-y,z
1/2+x,1/2-y,-z
1/2-x,1/2+y,-z
1/2-x,1/2-y,-z
1/2+x,1/2+y,-z
1/2-x,1/2+y,z
1/2+x,1/2-y,z
loop_
_atom_site_type_symbol
_atom_site_label
_atom_site_fract_x
_atom_site_fract_y
_atom_site_fract_z
Si Si1 0.284561 0.000000 0.261453
Si Si2 0.228204 0.000000 0.910930
Si Si3 0.816102 0.193927 0.871430
Si Si4 0.077123 0.895564 0.407239
Si Si5 0.576202 0.834276 0.087922
Si Si6 0.202249 0.171954 0.309089
Si Si7 0.920145 0.500000 0.801741
O O1 0.249700 0.915879 0.303839
O O2 0.278923 0.000000 0.164651
O O3 0.367528 0.000000 0.273502
O O4 0.183108 0.908959 0.903204
O O5 0.262212 0.000000 0.000000
O O6 0.750000 0.250000 0.900276
O O7 0.880812 0.243082 0.907753
O O8 0.823635 0.199450 0.777228
O O9 0.089370 0.882192 0.500000
O O10 0.134629 0.838876 0.361888
O O11 0.000000 0.862895 0.384589
O O12 0.085204 0.000000 0.383252
O O13 0.500000 0.803504 0.107954
O O14 0.599435 0.911285 0.148403
O O15 0.581785 0.876103 0.000000
O O16 0.250000 0.250000 0.346557
O O17 0.000000 0.500000 0.775142
#
# Coordination Sequence:
#
# PCOD8267970 Si02
#       7
#     8   8  16  16  16  16   8
#     4  10  20  34  48  72 104 132 168 220 262 298
#     4  10  20  32  49  70  94 129 171 212 259 311
#     4  10  21  34  49  71  98 129 166 209 254 301
#     4   9  18  34  57  84 111 136 165 207 255 299
#     4  10  20  33  48  68  95 127 169 220 264 302
#     4  10  19  33  53  78 107 138 171 207 253 307
#     4  10  19  31  49  70  93 128 173 218 266 310
#
# _framework density 18.046520000000001
#
# number of rings (size 3 to 8) (size 9 to 14) (size 15 to 20)
#    0.000    2.182    0.909    4.636    0.000    5.818 
#    0.000    1.364    0.000    1.636    0.000    0.000 
#    0.000    2.182    0.000    0.000    0.000    0.000 
#
# Total GULP energy -545334.045551 kJ/mol
# GULP energy per Si atom -12393.955581 kJ/mol
# Density = 1.800545 g / cm^3
# Si number density = 18.046520 Si / 1000 Ang^3
#
#
#
# Elastic Constant Matrix: (Units=GPa)
#
#
# Indices 1 2 3 4 5 6 
#
# 1 135.0011 67.4842 41.9446 0.0000 0.0000 0.0000
# 2 67.4842 119.0025 22.6619 0.0000 0.0000 0.0000
# 3 41.9446 22.6619 47.8294 0.0000 0.0000 0.0000
# 4 0.0000 0.0000 0.0000 79.7749 0.0000 0.0000
# 5 0.0000 0.0000 0.0000 0.0000 21.6564 0.0000
# 6 0.0000 0.0000 0.0000 0.0000 0.0000 34.1666
#
#
#
# Elastic Compliance Matrix: (Units=1/GPa)
#
#
# Indices 1 2 3 4 5 6 
#
# 1 0.012940 -0.005690 -0.008652 0.000000 0.000000 0.000000
# 2 -0.005690 0.011739 -0.000572 0.000000 0.000000 0.000000
# 3 -0.008652 -0.000572 0.028766 0.000000 0.000000 0.000000
# 4 0.000000 0.000000 0.000000 0.012535 0.000000 0.000000
# 5 0.000000 0.000000 0.000000 0.000000 0.046176 0.000000
# 6 0.000000 0.000000 0.000000 0.000000 0.000000 0.029268
#
#
# Mechanical properties :
#
#
# Convention : Reuss Voigt Hill
#
# Bulk Modulus (GPa) = 42.34239 62.89051 52.61645
# Shear Modulus (GPa) = 27.91363 38.43574 33.17469
#
# Velocity S-wave (km/s) = 3.93715 4.62000 4.29218
# Velocity P-wave (km/s) = 6.64696 7.96140 7.33369
#
# Compressibility (1/GPa) = 0.02361699
#
# Stress axis : x y z
#
# Youngs Moduli (GPa) = 77.28005 85.18601 34.76361
#
# Poissons Ratio (x) = 0.48475 0.30076
# Poissons Ratio (y) = 0.43976 0.01987
# Poissons Ratio (z) = 0.66860 0.04870
#
# Static dielectric constant tensor:
#      x y z
#    x 3.362640 0.000000 0.000000 
#    y 0.000000 3.440370 0.000000 
#    z 0.000000 0.000000 3.076610 
# 
# 
# High freq. dielectric constant tensor:
#      x y z
#    x 1.702400 0.000000 0.000000 
#    y 0.000000 1.701770 0.000000 
#    z 0.000000 0.000000 1.668050 
# 
# From -- ./inp_files/54354.got.cif
#   From: 2010.03.12/outbox.cif.g09.slc.cpg/sg65_28_cif.got.tgz:54354.got - 2010.04.10 20:52:16.
