data_PCOD8267005
_publ_section_title
;
Structure prediction by ZEFSAII (Michael W. Deem and Ramdas Pophale) SiO2 
 PCOD8267005
Probable space group: C M M M
;
_chemical_formula_sum "Si O2"
_cell_formula_units_Z 112
_cell_length_a 17.198885
_cell_length_b 25.060179
_cell_length_c 13.618893
_cell_angle_alpha 90.000000
_cell_angle_beta 90.000000
_cell_angle_gamma 90.000000
_cell_volume 5869.840077
_symmetry_space_group_name_H-M "C M M M"
_symmetry_group_IT_number 65
_symmetry_cell_setting 'orthorhombic'
loop_
_space_group_symop_operation_xyz
x,y,z
-x,-y,z
x,-y,-z
-x,y,-z
-x,-y,-z
x,y,-z
-x,y,z
x,-y,z
1/2+x,1/2+y,z
1/2-x,1/2-y,z
1/2+x,1/2-y,-z
1/2-x,1/2+y,-z
1/2-x,1/2-y,-z
1/2+x,1/2+y,-z
1/2-x,1/2+y,z
1/2+x,1/2-y,z
loop_
_atom_site_type_symbol
_atom_site_label
_atom_site_fract_x
_atom_site_fract_y
_atom_site_fract_z
Si Si1 0.912007 0.261545 0.204488
Si Si2 0.707120 0.618454 0.609909
Si Si3 0.412997 0.062236 0.110331
Si Si4 0.164796 0.234611 0.607906
Si Si5 0.137539 0.850745 0.885457
Si Si6 0.197108 0.640631 0.205320
Si Si7 0.087347 0.939269 0.739174
O O1 0.902923 0.255288 0.321804
O O2 0.891850 0.206854 0.149740
O O3 0.854097 0.308504 0.174099
O O4 0.000000 0.278255 0.179923
O O5 0.735455 0.601330 0.500000
O O6 0.654870 0.671226 0.601933
O O7 0.780422 0.633688 0.679629
O O8 0.651744 0.573232 0.655996
O O9 0.500000 0.075019 0.147625
O O10 0.351179 0.087971 0.182534
O O11 0.396773 0.000000 0.111989
O O12 0.402288 0.084371 0.000000
O O13 0.155585 0.260954 0.500000
O O14 0.250000 0.250000 0.651606
O O15 0.228193 0.855774 0.863391
O O16 0.093614 0.898661 0.830324
O O17 0.120376 0.856861 0.000000
O O18 0.000000 0.934053 0.695391
O O19 0.102119 0.000000 0.775489
#
# Coordination Sequence:
#
# PCOD8267005 Si02
#       7
#    16  16  16  16  16  16  16
#     4  12  23  36  55  84 117 149 186 231 285 344
#     4  10  21  36  59  84 112 149 188 232 284 334
#     4   9  19  37  60  86 115 146 185 236 290 339
#     4  10  18  35  59  81 109 146 185 227 276 330
#     4  11  24  40  58  80 112 151 192 237 289 345
#     4  11  21  37  59  86 114 149 191 234 280 338
#     4  10  22  40  60  83 113 148 191 241 288 340
#
# _framework density 19.080589
#
# number of rings (size 3 to 8) (size 9 to 14) (size 15 to 20)
#    0.000    1.571    4.286    2.143    0.000    6.286 
#    0.000    2.857    0.000    1.286    0.000    1.000 
#    0.000    0.000    0.000    0.000    0.000    0.000 
#
# Total GULP energy -694196.885274 kJ/mol
# GULP energy per Si atom -12396.372951 kJ/mol
# Density = 1.903716 g / cm^3
# Si number density = 19.080589 Si / 1000 Ang^3
#
#
#
# Elastic Constant Matrix: (Units=GPa)
#
#
# Indices 1 2 3 4 5 6 
#
# 1 92.2363 49.3802 24.0346 0.0000 0.0000 0.0000
# 2 49.3802 93.9396 31.1298 0.0000 0.0000 0.0000
# 3 24.0346 31.1298 103.2799 0.0000 0.0000 0.0000
# 4 0.0000 0.0000 0.0000 19.4000 0.0000 0.0000
# 5 0.0000 0.0000 0.0000 0.0000 17.4205 0.0000
# 6 0.0000 0.0000 0.0000 0.0000 0.0000 37.0592
#
#
#
# Elastic Compliance Matrix: (Units=1/GPa)
#
#
# Indices 1 2 3 4 5 6 
#
# 1 0.015233 -0.007591 -0.001257 0.000000 0.000000 0.000000
# 2 -0.007591 0.015609 -0.002938 0.000000 0.000000 0.000000
# 3 -0.001257 -0.002938 0.010861 0.000000 0.000000 0.000000
# 4 0.000000 0.000000 0.000000 0.051546 0.000000 0.000000
# 5 0.000000 0.000000 0.000000 0.000000 0.057404 0.000000
# 6 0.000000 0.000000 0.000000 0.000000 0.000000 0.026984
#
#
# Mechanical properties :
#
#
# Convention : Reuss Voigt Hill
#
# Bulk Modulus (GPa) = 55.15563 55.39390 55.27477
# Shear Modulus (GPa) = 24.12516 27.10335 25.61426
#
# Velocity S-wave (km/s) = 3.55967 3.77300 3.66789
# Velocity P-wave (km/s) = 6.77233 6.93363 6.85346
#
# Compressibility (1/GPa) = 0.01813051
#
# Stress axis : x y z
#
# Youngs Moduli (GPa) = 65.64619 64.06539 92.07623
#
# Poissons Ratio (x) = 0.48632 0.11574
# Poissons Ratio (y) = 0.49831 0.27054
# Poissons Ratio (z) = 0.08252 0.18824
#
# Static dielectric constant tensor:
#      x y z
#    x 3.503550 0.000000 0.000000 
#    y 0.000000 3.525630 0.000000 
#    z 0.000000 0.000000 3.688530 
# 
# 
# High freq. dielectric constant tensor:
#      x y z
#    x 1.735780 0.000000 0.000000 
#    y 0.000000 1.744150 0.000000 
#    z 0.000000 0.000000 1.733470 
# 
# From -- ./inp_files/40771.got.cif
#   From: 2010.03.12/outbox.cif.g09.slc.cpg/sg65_21_cif.got.tgz:40771.got - 2010.04.10 20:52:16.
