data_PCOD8267874
_publ_section_title
;
Structure prediction by ZEFSAII (Michael W. Deem and Ramdas Pophale) SiO2 
 PCOD8267874
Probable space group: C M M M
;
_chemical_formula_sum "Si O2"
_cell_formula_units_Z 96
_cell_length_a 25.329584
_cell_length_b 9.072852
_cell_length_c 25.040160
_cell_angle_alpha 90.000000
_cell_angle_beta 90.000000
_cell_angle_gamma 90.000000
_cell_volume 5754.518404
_symmetry_space_group_name_H-M "C M M M"
_symmetry_group_IT_number 65
_symmetry_cell_setting 'orthorhombic'
loop_
_space_group_symop_operation_xyz
x,y,z
-x,-y,z
x,-y,-z
-x,y,-z
-x,-y,-z
x,y,-z
-x,y,z
x,-y,z
1/2+x,1/2+y,z
1/2-x,1/2-y,z
1/2+x,1/2-y,-z
1/2-x,1/2+y,-z
1/2-x,1/2-y,-z
1/2+x,1/2+y,-z
1/2-x,1/2+y,z
1/2+x,1/2-y,z
loop_
_atom_site_type_symbol
_atom_site_label
_atom_site_fract_x
_atom_site_fract_y
_atom_site_fract_z
Si Si1 0.195921 0.668612 0.755901
Si Si2 0.000000 0.165608 0.563448
Si Si3 0.104212 0.326833 0.561448
Si Si4 0.693007 0.174097 0.128279
Si Si5 0.000000 0.333053 0.936480
Si Si6 0.306072 0.827220 0.359770
Si Si7 0.104393 0.168595 0.936596
O O1 0.211691 0.500000 0.755493
O O2 0.250000 0.750000 0.756596
O O3 0.166934 0.703860 0.812338
O O4 0.167816 0.707466 0.699216
O O5 0.052026 0.248411 0.584234
O O6 0.000000 0.168431 0.500000
O O7 0.000000 0.000000 0.585972
O O8 0.115286 0.284955 0.500000
O O9 0.095583 0.500000 0.568654
O O10 0.153444 0.267787 0.595890
O O11 0.750000 0.250000 0.123200
O O12 0.654996 0.246232 0.085170
O O13 0.698644 0.000000 0.116709
O O14 0.948410 0.248127 0.915113
O O15 0.000000 0.500000 0.914069
O O16 0.000000 0.334275 0.000000
O O17 0.250000 0.750000 0.367901
O O18 0.296644 0.000000 0.367604
O O19 0.104140 0.000000 0.916540
O O20 0.107155 0.175933 0.000000
#
# Coordination Sequence:
#
# PCOD8267874 Si02
#       7
#    16   8  16  16   8  16  16
#     4   8  15  28  45  64  86 115 152 189 222 260
#     4   9  17  29  45  64  85 112 149 190 226 261
#     4   9  17  29  45  65  90 120 150 180 219 268
#     4  10  19  31  48  69  93 121 154 191 230 271
#     4   9  17  31  51  72  93 120 155 190 222 261
#     4   9  17  29  45  66  92 120 150 183 221 265
#     4  10  20  33  49  70  96 124 152 184 225 272
#
# _framework density 16.682542000000002
#
# number of rings (size 3 to 8) (size 9 to 14) (size 15 to 20)
#    0.000    2.833    0.000    1.500    0.000    5.000 
#    0.000    0.000    0.000    1.000    0.000    3.500 
#    0.000    0.000    0.000    0.000    0.000    0.000 
#
# Total GULP energy -594706.431567 kJ/mol
# GULP energy per Si atom -12389.717324 kJ/mol
# Density = 1.664457 g / cm^3
# Si number density = 16.682542 Si / 1000 Ang^3
#
#
#
# Elastic Constant Matrix: (Units=GPa)
#
#
# Indices 1 2 3 4 5 6 
#
# 1 111.1567 51.2656 41.6330 0.0000 0.0000 0.0000
# 2 51.2656 85.8611 33.1661 0.0000 0.0000 0.0000
# 3 41.6330 33.1661 50.6514 0.0000 0.0000 0.0000
# 4 0.0000 0.0000 0.0000 18.4118 0.0000 0.0000
# 5 0.0000 0.0000 0.0000 0.0000 3.3082 0.0000
# 6 0.0000 0.0000 0.0000 0.0000 0.0000 29.6702
#
#
#
# Elastic Compliance Matrix: (Units=1/GPa)
#
#
# Indices 1 2 3 4 5 6 
#
# 1 0.014716 -0.005507 -0.008490 0.000000 0.000000 0.000000
# 2 -0.005507 0.017651 -0.007031 0.000000 0.000000 0.000000
# 3 -0.008490 -0.007031 0.031325 0.000000 0.000000 0.000000
# 4 0.000000 0.000000 0.000000 0.054313 0.000000 0.000000
# 5 0.000000 0.000000 0.000000 0.000000 0.302278 0.000000
# 6 0.000000 0.000000 0.000000 0.000000 0.000000 0.033704
#
#
# Mechanical properties :
#
#
# Convention : Reuss Voigt Hill
#
# Bulk Modulus (GPa) = 46.21980 55.53317 50.87648
# Shear Modulus (GPa) = 9.93533 18.38501 14.16017
#
# Velocity S-wave (km/s) = 2.44304 3.32332 2.91658
# Velocity P-wave (km/s) = 5.97692 6.93443 6.47340
#
# Compressibility (1/GPa) = 0.02163575
#
# Stress axis : x y z
#
# Youngs Moduli (GPa) = 67.95318 56.65463 31.92359
#
# Poissons Ratio (x) = 0.31201 0.27102
# Poissons Ratio (y) = 0.37423 0.22445
# Poissons Ratio (z) = 0.57691 0.39834
#
# Static dielectric constant tensor:
#      x y z
#    x 3.009820 0.000000 0.000000 
#    y 0.000000 3.172520 0.000000 
#    z 0.000000 0.000000 3.589860 
# 
# 
# High freq. dielectric constant tensor:
#      x y z
#    x 1.622080 0.000000 0.000000 
#    y 0.000000 1.653450 0.000000 
#    z 0.000000 0.000000 1.630840 
# 
# From -- ./inp_files/71739.got.cif
#   From: 2010.03.12/outbox.cif.g09.slc.cpg/sg65_36_cif.got.tgz:71739.got - 2010.04.10 20:52:16.
