data_PCOD8267292
_publ_section_title
;
Structure prediction by ZEFSAII (Michael W. Deem and Ramdas Pophale) SiO2 
 PCOD8267292
Probable space group: C M M M
;
_chemical_formula_sum "Si O2"
_cell_formula_units_Z 104
_cell_length_a 25.502863
_cell_length_b 8.923025
_cell_length_c 27.684792
_cell_angle_alpha 90.000000
_cell_angle_beta 90.000000
_cell_angle_gamma 90.000000
_cell_volume 6300.025577
_symmetry_space_group_name_H-M "C M M M"
_symmetry_group_IT_number 65
_symmetry_cell_setting 'orthorhombic'
loop_
_space_group_symop_operation_xyz
x,y,z
-x,-y,z
x,-y,-z
-x,y,-z
-x,-y,-z
x,y,-z
-x,y,z
x,-y,z
1/2+x,1/2+y,z
1/2-x,1/2-y,z
1/2+x,1/2-y,-z
1/2-x,1/2+y,-z
1/2-x,1/2-y,-z
1/2+x,1/2+y,-z
1/2-x,1/2+y,z
1/2+x,1/2-y,z
loop_
_atom_site_type_symbol
_atom_site_label
_atom_site_fract_x
_atom_site_fract_y
_atom_site_fract_z
Si Si1 0.105341 0.323155 0.117242
Si Si2 0.693225 0.822757 0.697869
Si Si3 0.195667 0.826053 0.943879
Si Si4 0.694517 0.673562 0.500000
Si Si5 0.500000 0.667906 0.768454
Si Si6 0.895678 0.674730 0.771812
Si Si7 0.306981 0.322930 0.603273
Si Si8 0.500000 0.330290 0.116727
O O1 0.104007 0.500000 0.110120
O O2 0.151387 0.253644 0.086539
O O3 0.114332 0.277393 0.172964
O O4 0.051129 0.255036 0.097184
O O5 0.750000 0.750000 0.707302
O O6 0.655612 0.777434 0.741964
O O7 0.665516 0.757087 0.649011
O O8 0.699819 0.000000 0.693056
O O9 0.250000 0.750000 0.929281
O O10 0.198490 0.000000 0.930260
O O11 0.183114 0.801470 0.000000
O O12 0.707877 0.500000 0.500000
O O13 0.750000 0.750000 0.500000
O O14 0.664578 0.711569 0.550942
O O15 0.500000 0.500000 0.748405
O O16 0.552798 0.746933 0.749447
O O17 0.500000 0.674590 0.825883
O O18 0.906736 0.500000 0.767805
O O19 0.303396 0.500000 0.613053
O O20 0.250000 0.250000 0.600835
O O21 0.500000 0.500000 0.097080
#
# Coordination Sequence:
#
# PCOD8267292 Si02
#       8
#    16  16  16   8   8  16  16   8
#     4  10  19  33  53  75  97 123 155 190 229 274
#     4  10  19  30  42  60  89 124 155 184 222 266
#     4  10  21  37  55  74  97 125 156 192 232 272
#     4   8  14  22  34  52  74 103 142 183 222 262
#     4   9  17  29  49  72  90 114 152 193 228 263
#     4   9  19  33  48  67  94 125 153 184 226 272
#     4   9  15  24  37  54  78 110 146 184 223 264
#     4   9  17  31  50  74 101 125 150 185 230 275
#
# _framework density 16.507868999999999
#
# number of rings (size 3 to 8) (size 9 to 14) (size 15 to 20)
#    0.000    2.615    0.000    3.231    0.000    5.846 
#    0.000    1.923    0.000    2.308    0.000    0.000 
#    0.000    0.615    0.000    6.923    0.000    3.538 
#
# Total GULP energy -644389.610345 kJ/mol
# GULP energy per Si atom -12392.107891 kJ/mol
# Density = 1.647030 g / cm^3
# Si number density = 16.507869 Si / 1000 Ang^3
#
#
#
# Elastic Constant Matrix: (Units=GPa)
#
#
# Indices 1 2 3 4 5 6 
#
# 1 114.1258 59.7855 64.3620 0.0000 0.0000 0.0000
# 2 59.7855 95.6717 48.0942 0.0000 0.0000 0.0000
# 3 64.3620 48.0942 78.2181 0.0000 0.0000 0.0000
# 4 0.0000 0.0000 0.0000 24.1931 0.0000 0.0000
# 5 0.0000 0.0000 0.0000 0.0000 -3.9834 0.0000
# 6 0.0000 0.0000 0.0000 0.0000 0.0000 29.0772
#
#
#
# Elastic Compliance Matrix: (Units=1/GPa)
#
#
# Indices 1 2 3 4 5 6 
#
# 1 0.018187 -0.005561 -0.011546 0.000000 0.000000 0.000000
# 2 -0.005561 0.016829 -0.005772 0.000000 0.000000 0.000000
# 3 -0.011546 -0.005772 0.025834 0.000000 0.000000 0.000000
# 4 0.000000 0.000000 0.000000 0.041334 0.000000 0.000000
# 5 0.000000 0.000000 0.000000 0.000000 -0.251043 0.000000
# 6 0.000000 0.000000 0.000000 0.000000 0.000000 0.034391
#
#
# Mechanical properties :
#
#
# Convention : Reuss Voigt Hill
#
# Bulk Modulus (GPa) = 66.25663 70.27767 68.26715
# Shear Modulus (GPa) = -78.51680 17.57565 -30.47057
#
# Velocity S-wave (km/s) = -6.90409 3.26649 -4.30096
# Velocity P-wave (km/s) = 4.83030 7.54263 4.09630
#
# Compressibility (1/GPa) = 0.01509283
#
# Stress axis : x y z
#
# Youngs Moduli (GPa) = 54.98555 59.42148 38.70845
#
# Poissons Ratio (x) = 0.33043 0.44692
# Poissons Ratio (y) = 0.30577 0.22342
# Poissons Ratio (z) = 0.63485 0.34298
#
# Static dielectric constant tensor:
#      x y z
#    x 2.955590 0.000000 0.000000 
#    y 0.000000 2.795220 0.000000 
#    z 0.000000 0.000000 3.563980 
# 
# 
# High freq. dielectric constant tensor:
#      x y z
#    x 1.603190 0.000000 0.000000 
#    y 0.000000 1.652960 0.000000 
#    z 0.000000 0.000000 1.630000 
# 
# From -- ./inp_files/76084.got.cif
#   From: 2010.03.12/outbox.cif.g09.slc.cpg/sg65_39_cif.got.tgz:76084.got - 2010.04.10 20:52:16.
