data_PCOD8267456
_publ_section_title
;
Structure prediction by ZEFSAII (Michael W. Deem and Ramdas Pophale) SiO2 
 PCOD8267456
Probable space group: C M M M
;
_chemical_formula_sum "Si O2"
_cell_formula_units_Z 96
_cell_length_a 22.590712
_cell_length_b 27.769222
_cell_length_c 9.120336
_cell_angle_alpha 90.000000
_cell_angle_beta 90.000000
_cell_angle_gamma 90.000000
_cell_volume 5721.428431
_symmetry_space_group_name_H-M "C M M M"
_symmetry_group_IT_number 65
_symmetry_cell_setting 'orthorhombic'
loop_
_space_group_symop_operation_xyz
x,y,z
-x,-y,z
x,-y,-z
-x,y,-z
-x,-y,-z
x,y,-z
-x,y,z
x,-y,z
1/2+x,1/2+y,z
1/2-x,1/2-y,z
1/2+x,1/2-y,-z
1/2-x,1/2+y,-z
1/2-x,1/2-y,-z
1/2+x,1/2+y,-z
1/2-x,1/2+y,z
1/2+x,1/2-y,z
loop_
_atom_site_type_symbol
_atom_site_label
_atom_site_fract_x
_atom_site_fract_y
_atom_site_fract_z
Si Si1 0.000000 0.761785 0.324803
Si Si2 0.233029 0.945584 0.172561
Si Si3 0.619143 0.215172 0.670799
Si Si4 0.321039 0.689230 0.665830
Si Si5 0.383731 0.609278 0.827879
Si Si6 0.500000 0.373532 0.673835
Si Si7 0.298444 0.135433 0.668445
O O1 0.057221 0.733506 0.259714
O O2 0.000000 0.817544 0.273668
O O3 0.000000 0.761538 0.500000
O O4 0.167346 0.928562 0.219637
O O5 0.284563 0.912859 0.242254
O O6 0.241964 0.000000 0.227946
O O7 0.240197 0.941259 0.000000
O O8 0.608546 0.207754 0.500000
O O9 0.670736 0.254393 0.698114
O O10 0.643183 0.163458 0.731342
O O11 0.343416 0.677126 0.500000
O O12 0.362030 0.662066 0.782285
O O13 0.253422 0.674570 0.685259
O O14 0.443591 0.598177 0.739575
O O15 0.396666 0.607177 0.000000
O O16 0.500000 0.378373 0.500000
O O17 0.306846 0.120196 0.500000
#
# Coordination Sequence:
#
# PCOD8267456 Si02
#       7
#     8  16  16  16  16   8  16
#     4   9  16  25  43  66  91 128 164 185 205 257
#     4   9  19  36  53  67  88 119 152 189 241 297
#     4   9  15  25  41  66  96 125 157 185 218 267
#     4   9  15  26  43  64  92 125 155 183 221 275
#     4  10  19  30  46  68  91 118 156 200 234 266
#     4  11  19  31  48  66  91 129 167 190 221 269
#     4   9  17  27  45  71  94 116 148 194 235 269
#
# _framework density 16.779026999999999
#
# number of rings (size 3 to 8) (size 9 to 14) (size 15 to 20)
#    0.000    2.667    1.667    1.250    0.000    3.000 
#    0.000    1.250    0.000    6.500    0.000    0.583 
#    0.000    4.667    0.000    0.000    0.000    0.000 
#
# Total GULP energy -594827.792922 kJ/mol
# GULP energy per Si atom -12392.245686 kJ/mol
# Density = 1.674084 g / cm^3
# Si number density = 16.779027 Si / 1000 Ang^3
#
#
#
# Elastic Constant Matrix: (Units=GPa)
#
#
# Indices 1 2 3 4 5 6 
#
# 1 53.8040 43.7796 14.1099 0.0000 0.0000 0.0000
# 2 43.7796 105.6937 22.7825 0.0000 0.0000 0.0000
# 3 14.1099 22.7825 33.2619 0.0000 0.0000 0.0000
# 4 0.0000 0.0000 0.0000 19.4706 0.0000 0.0000
# 5 0.0000 0.0000 0.0000 0.0000 18.2755 0.0000
# 6 0.0000 0.0000 0.0000 0.0000 0.0000 17.0464
#
#
#
# Elastic Compliance Matrix: (Units=1/GPa)
#
#
# Indices 1 2 3 4 5 6 
#
# 1 0.028654 -0.010851 -0.004723 0.000000 0.000000 0.000000
# 2 -0.010851 0.015209 -0.005814 0.000000 0.000000 0.000000
# 3 -0.004723 -0.005814 0.036050 0.000000 0.000000 0.000000
# 4 0.000000 0.000000 0.000000 0.051359 0.000000 0.000000
# 5 0.000000 0.000000 0.000000 0.000000 0.054718 0.000000
# 6 0.000000 0.000000 0.000000 0.000000 0.000000 0.058664
#
#
# Mechanical properties :
#
#
# Convention : Reuss Voigt Hill
#
# Bulk Modulus (GPa) = 26.92726 39.34483 33.13605
# Shear Modulus (GPa) = 16.67727 18.43100 17.55413
#
# Velocity S-wave (km/s) = 3.15609 3.31789 3.23800
# Velocity P-wave (km/s) = 5.41888 6.17880 5.81127
#
# Compressibility (1/GPa) = 0.03713708
#
# Stress axis : x y z
#
# Youngs Moduli (GPa) = 34.89964 65.75023 27.73889
#
# Poissons Ratio (x) = 0.71343 0.13101
# Poissons Ratio (y) = 0.37868 0.16129
# Poissons Ratio (z) = 0.16483 0.38230
#
# Static dielectric constant tensor:
#      x y z
#    x 3.353080 0.000000 0.000000 
#    y 0.000000 3.069170 0.000000 
#    z 0.000000 0.000000 2.924440 
# 
# 
# High freq. dielectric constant tensor:
#      x y z
#    x 1.636900 0.000000 0.000000 
#    y 0.000000 1.624400 0.000000 
#    z 0.000000 0.000000 1.619170 
# 
# From -- ./inp_files/14644.got.cif
#   From: 2010.03.12/outbox.cif.g09.slc.cpg/sg65_8_cif.got.tgz:14644.got - 2010.04.10 20:52:16.
