data_PCOD8267879
_publ_section_title
;
Structure prediction by ZEFSAII (Michael W. Deem and Ramdas Pophale) SiO2 
 PCOD8267879
Probable space group: C M M M
;
_chemical_formula_sum "Si O2"
_cell_formula_units_Z 80
_cell_length_a 19.843681
_cell_length_b 25.904551
_cell_length_c 8.666330
_cell_angle_alpha 90.000000
_cell_angle_beta 90.000000
_cell_angle_gamma 90.000000
_cell_volume 4454.854542
_symmetry_space_group_name_H-M "C M M M"
_symmetry_group_IT_number 65
_symmetry_cell_setting 'orthorhombic'
loop_
_space_group_symop_operation_xyz
x,y,z
-x,-y,z
x,-y,-z
-x,y,-z
-x,-y,-z
x,y,-z
-x,y,z
x,-y,z
1/2+x,1/2+y,z
1/2-x,1/2-y,z
1/2+x,1/2-y,-z
1/2-x,1/2+y,-z
1/2-x,1/2-y,-z
1/2+x,1/2+y,-z
1/2-x,1/2+y,z
1/2+x,1/2-y,z
loop_
_atom_site_type_symbol
_atom_site_label
_atom_site_fract_x
_atom_site_fract_y
_atom_site_fract_z
Si Si1 0.579821 0.500000 0.168326
Si Si2 0.076351 0.394448 0.317824
Si Si3 0.675537 0.804425 0.316841
Si Si4 0.579988 0.000000 0.173940
Si Si5 0.424723 0.389572 0.815430
Si Si6 0.180374 0.805135 0.816583
O O1 0.500000 0.500000 0.147340
O O2 0.599394 0.445850 0.252442
O O3 0.614632 0.500000 0.000000
O O4 0.077105 0.398085 0.500000
O O5 0.122630 0.347437 0.259795
O O6 0.107245 0.448098 0.254725
O O7 0.000000 0.385265 0.256968
O O8 0.674561 0.797471 0.500000
O O9 0.749653 0.820867 0.262450
O O10 0.654926 0.750852 0.236987
O O11 0.500000 0.000000 0.186018
O O12 0.606363 0.000000 0.000000
O O13 0.500000 0.375999 0.756473
O O14 0.374414 0.345864 0.755845
O O15 0.424605 0.392761 0.000000
O O16 0.189165 0.805637 0.000000
#
# Coordination Sequence:
#
# PCOD8267879 Si02
#       6
#     8  16  16   8  16  16
#     4   7  10  20  39  62  90 120 146 175 216 266
#     4   9  18  33  52  71  92 123 162 198 232 278
#     4  10  20  34  50  66  90 125 161 194 233 282
#     4   9  17  29  48  75 102 124 148 187 240 287
#     4   8  14  25  43  68  95 122 152 186 225 270
#     4  10  19  31  48  69  95 124 155 194 239 283
#
# _framework density 17.957937000000001
#
# number of rings (size 3 to 8) (size 9 to 14) (size 15 to 20)
#    0.000    3.000    0.000    3.900    0.000    3.600 
#    0.000    1.000    0.000    3.000    0.000    2.100 
#    0.000    9.600    0.000    0.000    0.000    0.000 
#
# Total GULP energy -495705.096137 kJ/mol
# GULP energy per Si atom -12392.627403 kJ/mol
# Density = 1.791706 g / cm^3
# Si number density = 17.957937 Si / 1000 Ang^3
#
#
#
# Elastic Constant Matrix: (Units=GPa)
#
#
# Indices 1 2 3 4 5 6 
#
# 1 83.8218 88.0679 8.5769 0.0000 0.0000 0.0000
# 2 88.0679 166.4035 13.8939 0.0000 0.0000 0.0000
# 3 8.5769 13.8939 21.9894 0.0000 0.0000 0.0000
# 4 0.0000 0.0000 0.0000 19.9632 0.0000 0.0000
# 5 0.0000 0.0000 0.0000 0.0000 16.8522 0.0000
# 6 0.0000 0.0000 0.0000 0.0000 0.0000 14.9385
#
#
#
# Elastic Compliance Matrix: (Units=1/GPa)
#
#
# Indices 1 2 3 4 5 6 
#
# 1 0.026925 -0.014118 -0.001582 0.000000 0.000000 0.000000
# 2 -0.014118 0.013747 -0.003179 0.000000 0.000000 0.000000
# 3 -0.001582 -0.003179 0.048102 0.000000 0.000000 0.000000
# 4 0.000000 0.000000 0.000000 0.050092 0.000000 0.000000
# 5 0.000000 0.000000 0.000000 0.000000 0.059339 0.000000
# 6 0.000000 0.000000 0.000000 0.000000 0.000000 0.066941
#
#
# Mechanical properties :
#
#
# Convention : Reuss Voigt Hill
#
# Bulk Modulus (GPa) = 19.60156 54.81022 37.20589
# Shear Modulus (GPa) = 15.62946 21.12919 18.37932
#
# Velocity S-wave (km/s) = 2.95335 3.43387 3.20263
# Velocity P-wave (km/s) = 4.75065 6.80512 5.86849
#
# Compressibility (1/GPa) = 0.05101634
#
# Stress axis : x y z
#
# Youngs Moduli (GPa) = 37.14058 72.74519 20.78911
#
# Poissons Ratio (x) = 1.02699 0.03288
# Poissons Ratio (y) = 0.52434 0.06609
# Poissons Ratio (z) = 0.05875 0.23127
#
# Static dielectric constant tensor:
#      x y z
#    x 3.252510 0.000000 0.000000 
#    y 0.000000 3.751350 0.000000 
#    z 0.000000 0.000000 3.038870 
# 
# 
# High freq. dielectric constant tensor:
#      x y z
#    x 1.669820 0.000000 0.000000 
#    y 0.000000 1.713500 0.000000 
#    z 0.000000 0.000000 1.669340 
# 
# From -- ./inp_files/12111.got.cif
#   From: 2010.03.12/outbox.cif.g09.slc.cpg/sg65_7_cif.got.tgz:12111.got - 2010.04.10 20:52:16.
