data_PCOD8267614
_publ_section_title
;
Structure prediction by ZEFSAII (Michael W. Deem and Ramdas Pophale) SiO2 
 PCOD8267614
Probable space group: C M M M
;
_chemical_formula_sum "Si O2"
_cell_formula_units_Z 88
_cell_length_a 18.515719
_cell_length_b 8.783349
_cell_length_c 28.562338
_cell_angle_alpha 90.000000
_cell_angle_beta 90.000000
_cell_angle_gamma 90.000000
_cell_volume 4645.093656
_symmetry_space_group_name_H-M "C M M M"
_symmetry_group_IT_number 65
_symmetry_cell_setting 'orthorhombic'
loop_
_space_group_symop_operation_xyz
x,y,z
-x,-y,z
x,-y,-z
-x,y,-z
-x,-y,-z
x,y,-z
-x,y,z
x,-y,z
1/2+x,1/2+y,z
1/2-x,1/2-y,z
1/2+x,1/2-y,-z
1/2-x,1/2+y,-z
1/2-x,1/2-y,-z
1/2+x,1/2+y,-z
1/2-x,1/2+y,z
1/2+x,1/2-y,z
loop_
_atom_site_type_symbol
_atom_site_label
_atom_site_fract_x
_atom_site_fract_y
_atom_site_fract_z
Si Si1 0.171293 0.320031 0.911188
Si Si2 0.328621 0.321889 0.550719
Si Si3 0.081350 0.319002 0.000000
Si Si4 0.416505 0.322461 0.171246
Si Si5 0.171025 0.319890 0.357582
Si Si6 0.416435 0.174744 0.267629
O O1 0.178794 0.500000 0.912537
O O2 0.250000 0.250000 0.915352
O O3 0.123036 0.258796 0.954236
O O4 0.133349 0.271981 0.863412
O O5 0.367463 0.293041 0.500000
O O6 0.321723 0.500000 0.560797
O O7 0.250000 0.250000 0.548139
O O8 0.368509 0.242906 0.594982
O O9 0.078416 0.500000 0.000000
O O10 0.000000 0.251936 0.000000
O O11 0.500000 0.278503 0.162294
O O12 0.402588 0.500000 0.163619
O O13 0.393486 0.277535 0.223666
O O14 0.175124 0.500000 0.360447
O O15 0.250000 0.250000 0.352819
O O16 0.126109 0.265214 0.312764
O O17 0.500000 0.194712 0.279416
O O18 0.397491 0.000000 0.255869
#
# Coordination Sequence:
#
# PCOD8267614 Si02
#       6
#    16  16   8  16  16  16
#     4  11  22  37  58  83 114 147 179 220 267 313
#     4   9  16  26  42  65  94 127 162 201 246 298
#     4   9  19  36  59  85 110 143 186 223 260 312
#     4  10  21  37  57  81 107 137 177 220 262 314
#     4  10  19  30  48  73  99 127 161 206 255 303
#     4   9  19  36  55  74  99 135 176 213 254 306
#
# _framework density 18.944721000000001
#
# number of rings (size 3 to 8) (size 9 to 14) (size 15 to 20)
#    0.000    2.273    0.000    4.091    0.000    5.091 
#    0.000    3.182    0.000    3.818    0.000    3.818 
#    0.000    0.000    0.000    0.000    0.000    0.000 
#
# Total GULP energy -545486.209521 kJ/mol
# GULP energy per Si atom -12397.413853 kJ/mol
# Density = 1.890160 g / cm^3
# Si number density = 18.944721 Si / 1000 Ang^3
#
#
#
# Elastic Constant Matrix: (Units=GPa)
#
#
# Indices 1 2 3 4 5 6 
#
# 1 89.8952 35.5308 75.9858 0.0000 0.0000 0.0000
# 2 35.5308 76.7680 49.5677 0.0000 0.0000 0.0000
# 3 75.9858 49.5677 168.3552 0.0000 0.0000 0.0000
# 4 0.0000 0.0000 0.0000 26.3504 0.0000 0.0000
# 5 0.0000 0.0000 0.0000 0.0000 19.4250 0.0000
# 6 0.0000 0.0000 0.0000 0.0000 0.0000 21.9814
#
#
#
# Elastic Compliance Matrix: (Units=1/GPa)
#
#
# Indices 1 2 3 4 5 6 
#
# 1 0.018934 -0.004007 -0.007366 0.000000 0.000000 0.000000
# 2 -0.004007 0.016932 -0.003176 0.000000 0.000000 0.000000
# 3 -0.007366 -0.003176 0.010200 0.000000 0.000000 0.000000
# 4 0.000000 0.000000 0.000000 0.037950 0.000000 0.000000
# 5 0.000000 0.000000 0.000000 0.000000 0.051480 0.000000
# 6 0.000000 0.000000 0.000000 0.000000 0.000000 0.045493
#
#
# Mechanical properties :
#
#
# Convention : Reuss Voigt Hill
#
# Bulk Modulus (GPa) = 58.94053 73.02078 65.98066
# Shear Modulus (GPa) = 23.17564 25.14697 24.16131
#
# Velocity S-wave (km/s) = 3.50141 3.64728 3.57509
# Velocity P-wave (km/s) = 6.89390 7.50764 7.20731
#
# Compressibility (1/GPa) = 0.01696625
#
# Stress axis : x y z
#
# Youngs Moduli (GPa) = 52.81459 59.05986 98.04284
#
# Poissons Ratio (x) = 0.23667 0.72218
# Poissons Ratio (y) = 0.21164 0.31143
# Poissons Ratio (z) = 0.38903 0.18760
#
# Static dielectric constant tensor:
#      x y z
#    x 3.294520 0.000000 0.000000 
#    y 0.000000 3.443890 0.000000 
#    z 0.000000 0.000000 4.076640 
# 
# 
# High freq. dielectric constant tensor:
#      x y z
#    x 1.705420 0.000000 0.000000 
#    y 0.000000 1.737050 0.000000 
#    z 0.000000 0.000000 1.760720 
# 
# From -- ./inp_files/77953.got.cif
#   From: 2010.03.12/outbox.cif.g09.slc.cpg/sg65_39_cif.got.tgz:77953.got - 2010.04.10 20:52:16.
