data_PCOD8267060
_publ_section_title
;
Structure prediction by ZEFSAII (Michael W. Deem and Ramdas Pophale) SiO2 
 PCOD8267060
Probable space group: C M M M
;
_chemical_formula_sum "Si O2"
_cell_formula_units_Z 104
_cell_length_a 27.128404
_cell_length_b 9.030792
_cell_length_c 26.248744
_cell_angle_alpha 90.000000
_cell_angle_beta 90.000000
_cell_angle_gamma 90.000000
_cell_volume 6430.705354
_symmetry_space_group_name_H-M "C M M M"
_symmetry_group_IT_number 65
_symmetry_cell_setting 'orthorhombic'
loop_
_space_group_symop_operation_xyz
x,y,z
-x,-y,z
x,-y,-z
-x,y,-z
-x,-y,-z
x,y,-z
-x,y,z
x,-y,z
1/2+x,1/2+y,z
1/2-x,1/2-y,z
1/2+x,1/2-y,-z
1/2-x,1/2+y,-z
1/2-x,1/2-y,-z
1/2+x,1/2+y,-z
1/2-x,1/2+y,z
1/2+x,1/2-y,z
loop_
_atom_site_type_symbol
_atom_site_label
_atom_site_fract_x
_atom_site_fract_y
_atom_site_fract_z
Si Si1 0.197984 0.825202 0.295952
Si Si2 0.356865 0.326785 0.398474
Si Si3 0.555462 0.826394 0.649449
Si Si4 0.890844 0.325895 0.247449
Si Si5 0.058341 0.169626 0.845099
Si Si6 0.941485 0.333869 0.056025
Si Si7 0.802597 0.824780 0.500000
O O1 0.250000 0.750000 0.286473
O O2 0.179397 0.782657 0.352431
O O3 0.160510 0.759920 0.254357
O O4 0.202559 0.000000 0.288536
O O5 0.366840 0.500000 0.399634
O O6 0.409727 0.249347 0.392390
O O7 0.332393 0.270598 0.450545
O O8 0.500000 0.766529 0.642252
O O9 0.572825 0.784700 0.706214
O O10 0.558113 0.000000 0.640351
O O11 0.880373 0.500000 0.244815
O O12 0.916089 0.273295 0.195998
O O13 0.077591 0.221621 0.900671
O O14 0.000000 0.190535 0.840188
O O15 0.073951 0.000000 0.836841
O O16 0.922380 0.500000 0.067865
O O17 0.000000 0.334020 0.055685
O O18 0.922298 0.282689 0.000000
O O19 0.750000 0.750000 0.500000
O O20 0.794966 0.000000 0.500000
#
# Coordination Sequence:
#
# PCOD8267060 Si02
#       7
#    16  16  16  16  16  16   8
#     4  10  19  32  49  69  92 117 146 180 223 272
#     4   9  19  33  49  70  94 119 148 182 219 266
#     4   9  18  32  49  68  90 118 153 189 223 263
#     4  10  19  31  47  66  89 118 152 189 227 268
#     4  10  19  28  40  62  92 123 154 190 230 270
#     4   8  14  25  40  57  80 115 157 194 227 266
#     4  10  20  34  51  72  95 117 146 183 225 270
#
# _framework density 16.172409999999999
#
# number of rings (size 3 to 8) (size 9 to 14) (size 15 to 20)
#    0.000    2.615    0.000    2.769    0.000    4.000 
#    0.000    1.923    0.000    2.308    0.000    0.000 
#    0.000    0.615    0.000    2.308    0.000    3.538 
#
# Total GULP energy -644799.480771 kJ/mol
# GULP energy per Si atom -12399.990015 kJ/mol
# Density = 1.613560 g / cm^3
# Si number density = 16.172410 Si / 1000 Ang^3
#
#
#
# Elastic Constant Matrix: (Units=GPa)
#
#
# Indices 1 2 3 4 5 6 
#
# 1 104.7915 41.0185 43.6440 0.0000 0.0000 0.0000
# 2 41.0185 61.0178 36.1267 0.0000 0.0000 0.0000
# 3 43.6440 36.1267 102.9500 0.0000 0.0000 0.0000
# 4 0.0000 0.0000 0.0000 26.5454 0.0000 0.0000
# 5 0.0000 0.0000 0.0000 0.0000 14.0200 0.0000
# 6 0.0000 0.0000 0.0000 0.0000 0.0000 28.6722
#
#
#
# Elastic Compliance Matrix: (Units=1/GPa)
#
#
# Indices 1 2 3 4 5 6 
#
# 1 0.013770 -0.007322 -0.003268 0.000000 0.000000 0.000000
# 2 -0.007322 0.024580 -0.005521 0.000000 0.000000 0.000000
# 3 -0.003268 -0.005521 0.013037 0.000000 0.000000 0.000000
# 4 0.000000 0.000000 0.000000 0.037671 0.000000 0.000000
# 5 0.000000 0.000000 0.000000 0.000000 0.071327 0.000000
# 6 0.000000 0.000000 0.000000 0.000000 0.000000 0.034877
#
#
# Mechanical properties :
#
#
# Convention : Reuss Voigt Hill
#
# Bulk Modulus (GPa) = 52.18295 56.70420 54.44357
# Shear Modulus (GPa) = 21.37926 23.71218 22.54572
#
# Velocity S-wave (km/s) = 3.63982 3.83327 3.73780
# Velocity P-wave (km/s) = 7.07114 7.39800 7.23642
#
# Compressibility (1/GPa) = 0.01916335
#
# Stress axis : x y z
#
# Youngs Moduli (GPa) = 72.62260 40.68417 76.70753
#
# Poissons Ratio (x) = 0.29787 0.25070
# Poissons Ratio (y) = 0.53171 0.42354
# Poissons Ratio (z) = 0.23735 0.22464
#
# Static dielectric constant tensor:
#      x y z
#    x 2.917320 0.000000 0.000000 
#    y 0.000000 3.099710 0.000000 
#    z 0.000000 0.000000 3.218090 
# 
# 
# High freq. dielectric constant tensor:
#      x y z
#    x 1.595270 0.000000 0.000000 
#    y 0.000000 1.628560 0.000000 
#    z 0.000000 0.000000 1.617510 
# 
# From -- ./inp_files/71802.got.cif
#   From: 2010.03.12/outbox.cif.g09.slc.cpg/sg65_36_cif.got.tgz:71802.got - 2010.04.10 20:52:16.
