data_PCOD8267546
_publ_section_title
;
Structure prediction by ZEFSAII (Michael W. Deem and Ramdas Pophale) SiO2 
 PCOD8267546
Probable space group: C M M M
;
_chemical_formula_sum "Si O2"
_cell_formula_units_Z 104
_cell_length_a 18.608097
_cell_length_b 9.067565
_cell_length_c 33.111807
_cell_angle_alpha 90.000000
_cell_angle_beta 90.000000
_cell_angle_gamma 90.000000
_cell_volume 5586.959469
_symmetry_space_group_name_H-M "C M M M"
_symmetry_group_IT_number 65
_symmetry_cell_setting 'orthorhombic'
loop_
_space_group_symop_operation_xyz
x,y,z
-x,-y,z
x,-y,-z
-x,y,-z
-x,-y,-z
x,y,-z
-x,y,z
x,-y,z
1/2+x,1/2+y,z
1/2-x,1/2-y,z
1/2+x,1/2-y,-z
1/2-x,1/2+y,-z
1/2-x,1/2-y,-z
1/2+x,1/2+y,-z
1/2-x,1/2+y,z
1/2+x,1/2-y,z
loop_
_atom_site_type_symbol
_atom_site_label
_atom_site_fract_x
_atom_site_fract_y
_atom_site_fract_z
Si Si1 0.675872 0.173481 0.358104
Si Si2 0.173586 0.675566 0.881154
Si Si3 0.579744 0.174970 0.194149
Si Si4 0.322562 0.827712 0.265926
Si Si5 0.080320 0.324909 0.044773
Si Si6 0.416787 0.327919 0.422178
Si Si7 0.826648 0.173312 0.500000
O O1 0.750000 0.250000 0.371817
O O2 0.657295 0.213198 0.311828
O O3 0.610081 0.235048 0.384013
O O4 0.684350 0.000000 0.365046
O O5 0.182338 0.500000 0.881315
O O6 0.250000 0.750000 0.877659
O O7 0.126551 0.731332 0.843412
O O8 0.135452 0.735385 0.921870
O O9 0.500000 0.243625 0.191266
O O10 0.614326 0.227679 0.236457
O O11 0.575029 0.000000 0.192778
O O12 0.250000 0.750000 0.251949
O O13 0.309149 0.000000 0.261036
O O14 0.078260 0.500000 0.046949
O O15 0.000000 0.264681 0.053790
O O16 0.105267 0.273223 0.000000
O O17 0.500000 0.291400 0.430066
O O18 0.405484 0.500000 0.413126
O O19 0.371856 0.276945 0.461089
O O20 0.750000 0.250000 0.500000
O O21 0.813734 0.000000 0.500000
#
# Coordination Sequence:
#
# PCOD8267546 Si02
#       7
#    16  16  16  16  16  16   8
#     4  10  20  34  53  77 104 135 170 206 246 295
#     4  10  19  30  47  70  94 122 156 195 238 284
#     4   9  17  30  49  71  93 121 161 203 239 280
#     4   9  18  32  51  73  98 128 160 199 244 288
#     4   8  14  26  45  68  92 119 155 197 235 274
#     4  10  21  37  56  78 106 138 170 207 251 296
#     4  10  21  37  57  79 103 134 171 208 248 296
#
# _framework density 18.614775999999999
#
# number of rings (size 3 to 8) (size 9 to 14) (size 15 to 20)
#    0.000    2.615    0.000    2.538    0.000    6.462 
#    0.000    1.538    0.000    4.615    0.000    1.077 
#    0.000    0.000    0.000    0.000    0.000    0.000 
#
# Total GULP energy -644791.436862 kJ/mol
# GULP energy per Si atom -12399.835324 kJ/mol
# Density = 1.857241 g / cm^3
# Si number density = 18.614776 Si / 1000 Ang^3
#
#
#
# Elastic Constant Matrix: (Units=GPa)
#
#
# Indices 1 2 3 4 5 6 
#
# 1 172.1259 38.4085 97.8105 0.0000 0.0000 0.0000
# 2 38.4085 31.4515 33.4121 0.0000 0.0000 0.0000
# 3 97.8105 33.4121 141.8309 0.0000 0.0000 0.0000
# 4 0.0000 0.0000 0.0000 16.4313 0.0000 0.0000
# 5 0.0000 0.0000 0.0000 0.0000 39.6385 0.0000
# 6 0.0000 0.0000 0.0000 0.0000 0.0000 28.9533
#
#
#
# Elastic Compliance Matrix: (Units=1/GPa)
#
#
# Indices 1 2 3 4 5 6 
#
# 1 0.010564 -0.006884 -0.005664 0.000000 0.000000 0.000000
# 2 -0.006884 0.046894 -0.006300 0.000000 0.000000 0.000000
# 3 -0.005664 -0.006300 0.012440 0.000000 0.000000 0.000000
# 4 0.000000 0.000000 0.000000 0.060860 0.000000 0.000000
# 5 0.000000 0.000000 0.000000 0.000000 0.025228 0.000000
# 6 0.000000 0.000000 0.000000 0.000000 0.000000 0.034538
#
#
# Mechanical properties :
#
#
# Convention : Reuss Voigt Hill
#
# Bulk Modulus (GPa) = 31.05207 76.07451 53.56329
# Shear Modulus (GPa) = 20.92447 28.72310 24.82378
#
# Velocity S-wave (km/s) = 3.35637 3.93240 3.65575
# Velocity P-wave (km/s) = 5.63364 7.84697 6.83055
#
# Compressibility (1/GPa) = 0.03220397
#
# Stress axis : x y z
#
# Youngs Moduli (GPa) = 94.65915 21.32452 80.38282
#
# Poissons Ratio (x) = 0.14681 0.45526
# Poissons Ratio (y) = 0.65167 0.50638
# Poissons Ratio (z) = 0.53611 0.13434
#
# Static dielectric constant tensor:
#      x y z
#    x 3.529730 0.000000 0.000000 
#    y 0.000000 3.050480 0.000000 
#    z 0.000000 0.000000 3.723460 
# 
# 
# High freq. dielectric constant tensor:
#      x y z
#    x 1.726810 0.000000 0.000000 
#    y 0.000000 1.682650 0.000000 
#    z 0.000000 0.000000 1.739070 
# 
# From -- ./inp_files/78211.got.cif
#   From: 2010.03.12/outbox.cif.g09.slc.cpg/sg65_40_cif.got.tgz:78211.got - 2010.04.10 20:52:16.
