data_PCOD8267559
_publ_section_title
;
Structure prediction by ZEFSAII (Michael W. Deem and Ramdas Pophale) SiO2 
 PCOD8267559
Probable space group: C M M M
;
_chemical_formula_sum "Si O2"
_cell_formula_units_Z 80
_cell_length_a 17.881273
_cell_length_b 27.659333
_cell_length_c 9.421546
_cell_angle_alpha 90.000000
_cell_angle_beta 90.000000
_cell_angle_gamma 90.000000
_cell_volume 4659.746702
_symmetry_space_group_name_H-M "C M M M"
_symmetry_group_IT_number 65
_symmetry_cell_setting 'orthorhombic'
loop_
_space_group_symop_operation_xyz
x,y,z
-x,-y,z
x,-y,-z
-x,y,-z
-x,-y,-z
x,y,-z
-x,y,z
x,-y,z
1/2+x,1/2+y,z
1/2-x,1/2-y,z
1/2+x,1/2-y,-z
1/2-x,1/2+y,-z
1/2-x,1/2-y,-z
1/2+x,1/2+y,-z
1/2-x,1/2+y,z
1/2+x,1/2-y,z
loop_
_atom_site_type_symbol
_atom_site_label
_atom_site_fract_x
_atom_site_fract_y
_atom_site_fract_z
Si Si1 0.581615 0.942651 0.341238
Si Si2 0.720180 0.054060 0.162818
Si Si3 0.085778 0.791889 0.666867
Si Si4 0.811275 0.709018 0.344691
Si Si5 0.205367 0.149530 0.164838
O O1 0.596293 0.923438 0.500000
O O2 0.500000 0.923703 0.288416
O O3 0.648083 0.923876 0.242483
O O4 0.581110 0.000000 0.339328
O O5 0.789126 0.091239 0.184197
O O6 0.743018 0.000000 0.217058
O O7 0.696483 0.051532 0.000000
O O8 0.096985 0.802189 0.500000
O O9 0.113138 0.737177 0.703564
O O10 0.132538 0.832038 0.752706
O O11 0.000000 0.796683 0.713466
O O12 0.822669 0.683979 0.500000
O O13 0.750000 0.750000 0.361875
O O14 0.782898 0.671313 0.227274
O O15 0.199246 0.164201 0.000000
#
# Coordination Sequence:
#
# PCOD8267559 Si02
#       5
#    16  16  16  16  16
#     4   8  14  25  41  61  83 107 142 190 235 269
#     4   9  18  31  45  63  91 128 165 196 228 271
#     4   9  18  33  52  72  94 121 152 185 226 281
#     4   8  15  29  48  68  91 119 147 177 221 277
#     4  10  19  30  47  71  96 122 155 194 232 269
#
# _framework density 17.168316000000001
#
# number of rings (size 3 to 8) (size 9 to 14) (size 15 to 20)
#    0.000    3.200    0.000    2.400    0.000    6.000 
#    0.000    3.000    0.000    4.200    0.000    4.200 
#    0.000    0.000    0.000    0.000    0.000    0.000 
#
# Total GULP energy -495567.803828 kJ/mol
# GULP energy per Si atom -12389.195096 kJ/mol
# Density = 1.712924 g / cm^3
# Si number density = 17.168316 Si / 1000 Ang^3
#
#
#
# Elastic Constant Matrix: (Units=GPa)
#
#
# Indices 1 2 3 4 5 6 
#
# 1 111.7783 49.3612 50.2603 0.0000 0.0000 0.0000
# 2 49.3612 69.3085 37.9847 0.0000 0.0000 0.0000
# 3 50.2603 37.9847 75.1173 0.0000 0.0000 0.0000
# 4 0.0000 0.0000 0.0000 15.0884 0.0000 0.0000
# 5 0.0000 0.0000 0.0000 0.0000 24.9315 0.0000
# 6 0.0000 0.0000 0.0000 0.0000 0.0000 19.6345
#
#
#
# Elastic Compliance Matrix: (Units=1/GPa)
#
#
# Indices 1 2 3 4 5 6 
#
# 1 0.014991 -0.007165 -0.006407 0.000000 0.000000 0.000000
# 2 -0.007165 0.023384 -0.007031 0.000000 0.000000 0.000000
# 3 -0.006407 -0.007031 0.021155 0.000000 0.000000 0.000000
# 4 0.000000 0.000000 0.000000 0.066276 0.000000 0.000000
# 5 0.000000 0.000000 0.000000 0.000000 0.040110 0.000000
# 6 0.000000 0.000000 0.000000 0.000000 0.000000 0.050931
#
#
# Mechanical properties :
#
#
# Convention : Reuss Voigt Hill
#
# Bulk Modulus (GPa) = 54.57269 59.04626 56.80948
# Shear Modulus (GPa) = 18.92777 19.83742 19.38259
#
# Velocity S-wave (km/s) = 3.32397 3.40290 3.36367
# Velocity P-wave (km/s) = 6.82551 7.06448 6.94602
#
# Compressibility (1/GPa) = 0.01832418
#
# Stress axis : x y z
#
# Youngs Moduli (GPa) = 66.70448 42.76338 47.27054
#
# Poissons Ratio (x) = 0.30641 0.30288
# Poissons Ratio (y) = 0.47796 0.33234
# Poissons Ratio (z) = 0.42740 0.30065
#
# Static dielectric constant tensor:
#      x y z
#    x 3.339430 0.000000 0.000000 
#    y 0.000000 3.208890 0.000000 
#    z 0.000000 0.000000 3.273550 
# 
# 
# High freq. dielectric constant tensor:
#      x y z
#    x 1.642580 0.000000 0.000000 
#    y 0.000000 1.644070 0.000000 
#    z 0.000000 0.000000 1.661400 
# 
# From -- ./inp_files/9862.got.cif
#   From: 2010.03.12/outbox.cif.g09.slc.cpg/sg65_5_cif.got.tgz:9862.got - 2010.04.10 20:52:16.
