data_PCOD8267206
_publ_section_title
;
Structure prediction by ZEFSAII (Michael W. Deem and Ramdas Pophale) SiO2 
 PCOD8267206
Probable space group: C M M M
;
_chemical_formula_sum "Si O2"
_cell_formula_units_Z 104
_cell_length_a 8.479039
_cell_length_b 23.600764
_cell_length_c 28.026267
_cell_angle_alpha 90.000000
_cell_angle_beta 90.000000
_cell_angle_gamma 90.000000
_cell_volume 5608.386691
_symmetry_space_group_name_H-M "C M M M"
_symmetry_group_IT_number 65
_symmetry_cell_setting 'orthorhombic'
loop_
_space_group_symop_operation_xyz
x,y,z
-x,-y,z
x,-y,-z
-x,y,-z
-x,-y,-z
x,y,-z
-x,y,z
x,-y,z
1/2+x,1/2+y,z
1/2-x,1/2-y,z
1/2+x,1/2-y,-z
1/2-x,1/2+y,-z
1/2-x,1/2-y,-z
1/2+x,1/2+y,-z
1/2-x,1/2+y,z
1/2+x,1/2-y,z
loop_
_atom_site_type_symbol
_atom_site_label
_atom_site_fract_x
_atom_site_fract_y
_atom_site_fract_z
Si Si1 0.183255 0.894702 0.741545
Si Si2 0.180011 0.500000 0.207137
Si Si3 0.680651 0.500000 0.892892
Si Si4 0.313740 0.187640 0.815079
Si Si5 0.677903 0.567189 0.448140
Si Si6 0.682345 0.065801 0.350901
Si Si7 0.811207 0.876815 0.093557
Si Si8 0.186367 0.187516 0.000000
O O1 0.235200 0.836170 0.766612
O O2 0.217387 0.894384 0.684917
O O3 0.000000 0.905890 0.751563
O O4 0.290948 0.944738 0.761729
O O5 0.300707 0.500000 0.163740
O O6 0.000000 0.500000 0.188818
O O7 0.500000 0.500000 0.906980
O O8 0.751674 0.441463 0.913687
O O9 0.500000 0.189233 0.808894
O O10 0.250000 0.250000 0.825403
O O11 0.268857 0.148075 0.859457
O O12 0.738895 0.589943 0.500000
O O13 0.500000 0.588506 0.439382
O O14 0.682274 0.500000 0.449474
O O15 0.786027 0.588695 0.404547
O O16 0.500000 0.072758 0.338804
O O17 0.735593 0.000000 0.345798
O O18 0.750671 0.843304 0.047322
O O19 0.000000 0.874163 0.099915
O O20 0.250000 0.250000 0.000000
O O21 0.000000 0.187660 0.000000
#
# Coordination Sequence:
#
# PCOD8267206 Si02
#       8
#    16   8   8  16  16  16  16   8
#     4  12  23  36  55  78 107 144 182 222 271 324
#     4  12  22  34  53  81 112 142 179 220 267 318
#     4  10  20  35  58  84 114 146 180 218 269 326
#     4  12  25  41  60  82 109 141 180 224 270 324
#     4   8  14  25  40  59  89 132 179 222 266 319
#     4  10  19  29  44  69 102 137 178 225 271 319
#     4  10  21  38  60  86 114 145 182 223 271 325
#     4  10  22  39  59  83 111 146 189 233 274 321
#
# _framework density 18.543658000000001
#
# number of rings (size 3 to 8) (size 9 to 14) (size 15 to 20)
#    0.000    1.538    2.308    4.846    0.000    3.077 
#    0.000    3.077    0.000    0.000    0.000    2.154 
#    0.000    0.615    0.000    2.308    0.000    3.538 
#
# Total GULP energy -644697.095116 kJ/mol
# GULP energy per Si atom -12398.021060 kJ/mol
# Density = 1.850145 g / cm^3
# Si number density = 18.543658 Si / 1000 Ang^3
#
#
#
# Elastic Constant Matrix: (Units=GPa)
#
#
# Indices 1 2 3 4 5 6 
#
# 1 73.4322 23.4823 28.5358 0.0000 0.0000 0.0000
# 2 23.4823 107.2189 45.6380 0.0000 0.0000 0.0000
# 3 28.5358 45.6380 130.4198 0.0000 0.0000 0.0000
# 4 0.0000 0.0000 0.0000 9.0002 0.0000 0.0000
# 5 0.0000 0.0000 0.0000 0.0000 24.3018 0.0000
# 6 0.0000 0.0000 0.0000 0.0000 0.0000 20.4992
#
#
#
# Elastic Compliance Matrix: (Units=1/GPa)
#
#
# Indices 1 2 3 4 5 6 
#
# 1 0.015339 -0.002269 -0.002562 0.000000 0.000000 0.000000
# 2 -0.002269 0.011295 -0.003456 0.000000 0.000000 0.000000
# 3 -0.002562 -0.003456 0.009438 0.000000 0.000000 0.000000
# 4 0.000000 0.000000 0.000000 0.111109 0.000000 0.000000
# 5 0.000000 0.000000 0.000000 0.000000 0.041149 0.000000
# 6 0.000000 0.000000 0.000000 0.000000 0.000000 0.048782
#
#
# Mechanical properties :
#
#
# Convention : Reuss Voigt Hill
#
# Bulk Modulus (GPa) = 51.28918 56.26478 53.77698
# Shear Modulus (GPa) = 19.21711 24.98791 22.10251
#
# Velocity S-wave (km/s) = 3.22268 3.67484 3.45616
# Velocity P-wave (km/s) = 6.44719 6.95799 6.70745
#
# Compressibility (1/GPa) = 0.01949729
#
# Stress axis : x y z
#
# Youngs Moduli (GPa) = 65.19231 88.53754 105.96008
#
# Poissons Ratio (x) = 0.20088 0.27150
# Poissons Ratio (y) = 0.14791 0.36619
# Poissons Ratio (z) = 0.16704 0.30598
#
# Static dielectric constant tensor:
#      x y z
#    x 3.372210 0.000000 0.000000 
#    y 0.000000 3.333580 0.000000 
#    z 0.000000 0.000000 3.794270 
# 
# 
# High freq. dielectric constant tensor:
#      x y z
#    x 1.718200 0.000000 0.000000 
#    y 0.000000 1.681490 0.000000 
#    z 0.000000 0.000000 1.728140 
# 
# From -- ./inp_files/73667.got.cif
#   From: 2010.03.12/outbox.cif.g09.slc.cpg/sg65_37_cif.got.tgz:73667.got - 2010.04.10 20:52:16.
