data_PCOD8267462
_publ_section_title
;
Structure prediction by ZEFSAII (Michael W. Deem and Ramdas Pophale) SiO2 
 PCOD8267462
Probable space group: C M M M
;
_chemical_formula_sum "Si O2"
_cell_formula_units_Z 96
_cell_length_a 9.039016
_cell_length_b 18.415316
_cell_length_c 31.048344
_cell_angle_alpha 90.000000
_cell_angle_beta 90.000000
_cell_angle_gamma 90.000000
_cell_volume 5168.193580
_symmetry_space_group_name_H-M "C M M M"
_symmetry_group_IT_number 65
_symmetry_cell_setting 'orthorhombic'
loop_
_space_group_symop_operation_xyz
x,y,z
-x,-y,z
x,-y,-z
-x,y,-z
-x,-y,-z
x,y,-z
-x,y,z
x,-y,z
1/2+x,1/2+y,z
1/2-x,1/2-y,z
1/2+x,1/2-y,-z
1/2-x,1/2+y,-z
1/2-x,1/2-y,-z
1/2+x,1/2+y,-z
1/2-x,1/2+y,z
1/2+x,1/2-y,z
loop_
_atom_site_type_symbol
_atom_site_label
_atom_site_fract_x
_atom_site_fract_y
_atom_site_fract_z
Si Si1 0.173685 0.675197 0.451581
Si Si2 0.175674 0.581209 0.952259
Si Si3 0.675418 0.918563 0.790534
Si Si4 0.675644 0.919179 0.627057
Si Si5 0.675848 0.172870 0.127545
Si Si6 0.824100 0.327847 0.708525
O O1 0.217352 0.650816 0.500000
O O2 0.250000 0.750000 0.438685
O O3 0.228989 0.613835 0.418503
O O4 0.000000 0.687931 0.447356
O O5 0.236237 0.500000 0.942833
O O6 0.236255 0.637108 0.916711
O O7 0.000000 0.579016 0.949769
O O8 0.227160 0.606623 0.000000
O O9 0.500000 0.923239 0.789604
O O10 0.729110 0.878466 0.833640
O O11 0.732198 0.874177 0.749257
O O12 0.742233 0.000000 0.789586
O O13 0.500000 0.923508 0.628847
O O14 0.732971 0.869261 0.665976
O O15 0.743032 0.000000 0.631419
O O16 0.500000 0.182388 0.127269
O O17 0.750000 0.250000 0.133795
O O18 0.750000 0.250000 0.710392
O O19 0.000000 0.318297 0.708699
#
# Coordination Sequence:
#
# PCOD8267462 Si02
#       6
#    16  16  16  16  16  16
#     4   9  17  29  46  67  90 117 148 183 223 265
#     4   8  14  26  45  67  88 113 150 191 223 254
#     4   9  17  30  49  70  89 114 152 190 219 254
#     4   9  17  29  46  68  91 116 150 188 221 256
#     4  10  19  30  46  68  93 119 147 182 223 265
#     4  10  19  31  49  70  92 118 147 182 223 265
#
# _framework density 18.575154999999999
#
# number of rings (size 3 to 8) (size 9 to 14) (size 15 to 20)
#    0.000    2.833    0.000    2.500    0.000    4.667 
#    0.000    1.667    0.000    6.500    0.000    3.500 
#    0.000    0.000    0.000    0.000    0.000    0.000 
#
# Total GULP energy -595082.201407 kJ/mol
# GULP energy per Si atom -12397.545863 kJ/mol
# Density = 1.853288 g / cm^3
# Si number density = 18.575155 Si / 1000 Ang^3
#
#
#
# Elastic Constant Matrix: (Units=GPa)
#
#
# Indices 1 2 3 4 5 6 
#
# 1 12.9228 23.7698 19.2639 0.0000 0.0000 0.0000
# 2 23.7698 187.0877 108.0337 0.0000 0.0000 0.0000
# 3 19.2639 108.0337 170.5826 0.0000 0.0000 0.0000
# 4 0.0000 0.0000 0.0000 38.8904 0.0000 0.0000
# 5 0.0000 0.0000 0.0000 0.0000 9.0006 0.0000
# 6 0.0000 0.0000 0.0000 0.0000 0.0000 25.1980
#
#
#
# Elastic Compliance Matrix: (Units=1/GPa)
#
#
# Indices 1 2 3 4 5 6 
#
# 1 0.103957 -0.010135 -0.005321 0.000000 0.000000 0.000000
# 2 -0.010135 0.009415 -0.004818 0.000000 0.000000 0.000000
# 3 -0.005321 -0.004818 0.009515 0.000000 0.000000 0.000000
# 4 0.000000 0.000000 0.000000 0.025713 0.000000 0.000000
# 5 0.000000 0.000000 0.000000 0.000000 0.111104 0.000000
# 6 0.000000 0.000000 0.000000 0.000000 0.000000 0.039686
#
#
# Mechanical properties :
#
#
# Convention : Reuss Voigt Hill
#
# Bulk Modulus (GPa) = 12.14506 74.74755 43.44631
# Shear Modulus (GPa) = 13.60972 29.25285 21.43129
#
# Velocity S-wave (km/s) = 2.70975 3.97273 3.40039
# Velocity P-wave (km/s) = 4.04263 7.83399 6.23355
#
# Compressibility (1/GPa) = 0.08233798
#
# Stress axis : x y z
#
# Youngs Moduli (GPa) = 9.61933 106.21280 105.10155
#
# Poissons Ratio (x) = 1.07651 0.55924
# Poissons Ratio (y) = 0.09750 0.50640
# Poissons Ratio (z) = 0.05118 0.51175
#
# Static dielectric constant tensor:
#      x y z
#    x 2.832040 0.000000 0.000000 
#    y 0.000000 3.587800 0.000000 
#    z 0.000000 0.000000 3.822300 
# 
# 
# High freq. dielectric constant tensor:
#      x y z
#    x 1.656140 0.000000 0.000000 
#    y 0.000000 1.729080 0.000000 
#    z 0.000000 0.000000 1.742420 
# 
# From -- ./inp_files/73137.got.cif
#   From: 2010.03.12/outbox.cif.g09.slc.cpg/sg65_37_cif.got.tgz:73137.got - 2010.04.10 20:52:16.
