data_PCOD8267317
_publ_section_title
;
Structure prediction by ZEFSAII (Michael W. Deem and Ramdas Pophale) SiO2 
 PCOD8267317
Probable space group: C M M M
;
_chemical_formula_sum "Si O2"
_cell_formula_units_Z 88
_cell_length_a 8.874214
_cell_length_b 36.014139
_cell_length_c 19.377388
_cell_angle_alpha 90.000000
_cell_angle_beta 90.000000
_cell_angle_gamma 90.000000
_cell_volume 6192.958493
_symmetry_space_group_name_H-M "C M M M"
_symmetry_group_IT_number 65
_symmetry_cell_setting 'orthorhombic'
loop_
_space_group_symop_operation_xyz
x,y,z
-x,-y,z
x,-y,-z
-x,y,-z
-x,-y,-z
x,y,-z
-x,y,z
x,-y,z
1/2+x,1/2+y,z
1/2-x,1/2-y,z
1/2+x,1/2-y,-z
1/2-x,1/2+y,-z
1/2-x,1/2-y,-z
1/2+x,1/2+y,-z
1/2-x,1/2+y,z
1/2+x,1/2-y,z
loop_
_atom_site_type_symbol
_atom_site_label
_atom_site_fract_x
_atom_site_fract_y
_atom_site_fract_z
Si Si1 0.169312 0.955921 0.424427
Si Si2 0.169523 0.786623 0.081909
Si Si3 0.173510 0.543753 0.711874
Si Si4 0.324128 0.862319 0.080685
Si Si5 0.829130 0.500000 0.081596
Si Si6 0.677888 0.568975 0.153272
O O1 0.224858 0.941578 0.500000
O O2 0.278617 0.941566 0.363917
O O3 0.000000 0.941542 0.410214
O O4 0.170395 0.000000 0.424814
O O5 0.250000 0.750000 0.112531
O O6 0.266451 0.822117 0.104859
O O7 0.000000 0.789550 0.111715
O O8 0.163689 0.783896 0.000000
O O9 0.204672 0.500000 0.720314
O O10 0.272047 0.565560 0.767557
O O11 0.000000 0.553458 0.723375
O O12 0.500000 0.865817 0.097476
O O13 0.232018 0.892012 0.124059
O O14 0.292098 0.868895 0.000000
O O15 0.748045 0.536522 0.107820
O O16 0.000000 0.500000 0.110015
O O17 0.826136 0.500000 0.000000
O O18 0.500000 0.566237 0.148228
#
# Coordination Sequence:
#
# PCOD8267317 Si02
#       6
#    16  16  16  16   8  16
#     4   8  14  25  41  60  81 102 126 160 201 243
#     4   9  16  27  44  65  86 106 130 161 200 248
#     4  10  19  30  44  59  79 105 135 171 208 248
#     4  10  20  33  47  62  82 107 135 172 215 255
#     4  11  23  37  49  59  74  99 134 177 221 259
#     4  12  23  33  46  61  79 105 138 176 215 255
#
# _framework density 14.209687000000001
#
# number of rings (size 3 to 8) (size 9 to 14) (size 15 to 20)
#    0.000    2.091    0.909    4.636    0.000    7.273 
#    0.000    1.818    0.000    0.000    0.000    0.000 
#    0.000    0.000    0.000    0.000    0.000    0.909 
#
# Total GULP energy -545576.955901 kJ/mol
# GULP energy per Si atom -12399.476270 kJ/mol
# Density = 1.417734 g / cm^3
# Si number density = 14.209687 Si / 1000 Ang^3
#
#
#
# Elastic Constant Matrix: (Units=GPa)
#
#
# Indices 1 2 3 4 5 6 
#
# 1 116.6134 42.0293 47.4621 0.0000 0.0000 0.0000
# 2 42.0293 76.9545 34.7186 0.0000 0.0000 0.0000
# 3 47.4621 34.7186 73.8634 0.0000 0.0000 0.0000
# 4 0.0000 0.0000 0.0000 1.1837 0.0000 0.0000
# 5 0.0000 0.0000 0.0000 0.0000 22.7233 0.0000
# 6 0.0000 0.0000 0.0000 0.0000 0.0000 22.7873
#
#
#
# Elastic Compliance Matrix: (Units=1/GPa)
#
#
# Indices 1 2 3 4 5 6 
#
# 1 0.012547 -0.004081 -0.006144 0.000000 0.000000 0.000000
# 2 -0.004081 0.017819 -0.005754 0.000000 0.000000 0.000000
# 3 -0.006144 -0.005754 0.020191 0.000000 0.000000 0.000000
# 4 0.000000 0.000000 0.000000 0.844776 0.000000 0.000000
# 5 0.000000 0.000000 0.000000 0.000000 0.044008 0.000000
# 6 0.000000 0.000000 0.000000 0.000000 0.000000 0.043884
#
#
# Mechanical properties :
#
#
# Convention : Reuss Voigt Hill
#
# Bulk Modulus (GPa) = 53.76282 57.31680 55.53981
# Shear Modulus (GPa) = 4.89533 18.88696 11.89115
#
# Velocity S-wave (km/s) = 1.85810 3.64972 2.89595
# Velocity P-wave (km/s) = 6.52080 7.62788 7.09597
#
# Compressibility (1/GPa) = 0.01860021
#
# Stress axis : x y z
#
# Youngs Moduli (GPa) = 79.70232 56.11955 49.52730
#
# Poissons Ratio (x) = 0.22900 0.30430
# Poissons Ratio (y) = 0.32523 0.28496
# Poissons Ratio (z) = 0.48970 0.32289
#
# Static dielectric constant tensor:
#      x y z
#    x 2.978320 0.000000 0.000000 
#    y 0.000000 2.696340 0.000000 
#    z 0.000000 0.000000 2.827180 
# 
# 
# High freq. dielectric constant tensor:
#      x y z
#    x 1.562170 0.000000 0.000000 
#    y 0.000000 1.507820 0.000000 
#    z 0.000000 0.000000 1.519870 
# 
# From -- ./inp_files/60673.got.cif
#   From: 2010.03.12/outbox.cif.g09.slc.cpg/sg65_31_cif.got.tgz:60673.got - 2010.04.10 20:52:16.
