data_PCOD8267599
_publ_section_title
;
Structure prediction by ZEFSAII (Michael W. Deem and Ramdas Pophale) SiO2 
 PCOD8267599
Probable space group: C M M M
;
_chemical_formula_sum "Si O2"
_cell_formula_units_Z 88
_cell_length_a 18.206598
_cell_length_b 30.650180
_cell_length_c 7.857459
_cell_angle_alpha 90.000000
_cell_angle_beta 90.000000
_cell_angle_gamma 90.000000
_cell_volume 4384.741108
_symmetry_space_group_name_H-M "C M M M"
_symmetry_group_IT_number 65
_symmetry_cell_setting 'orthorhombic'
loop_
_space_group_symop_operation_xyz
x,y,z
-x,-y,z
x,-y,-z
-x,y,-z
-x,-y,-z
x,y,-z
-x,y,z
x,-y,z
1/2+x,1/2+y,z
1/2-x,1/2-y,z
1/2+x,1/2-y,-z
1/2-x,1/2+y,-z
1/2-x,1/2-y,-z
1/2+x,1/2+y,-z
1/2-x,1/2+y,z
1/2+x,1/2-y,z
loop_
_atom_site_type_symbol
_atom_site_label
_atom_site_fract_x
_atom_site_fract_y
_atom_site_fract_z
Si Si1 0.086875 0.085618 0.000000
Si Si2 0.665647 0.084473 0.698195
Si Si3 0.916849 0.500000 0.297266
Si Si4 0.082017 0.667703 0.805680
Si Si5 0.176356 0.949417 0.692625
Si Si6 0.412817 0.259727 0.686653
Si Si7 0.412410 0.315166 0.000000
O O1 0.114079 0.062045 0.828701
O O2 0.115230 0.135248 0.000000
O O3 0.000000 0.082273 0.000000
O O4 0.648427 0.088628 0.500000
O O5 0.622742 0.042996 0.775930
O O6 0.637820 0.127913 0.788410
O O7 0.751879 0.079100 0.734151
O O8 0.911227 0.500000 0.500000
O O9 0.000000 0.500000 0.231737
O O10 0.113912 0.709740 0.706736
O O11 0.000000 0.654714 0.739279
O O12 0.076935 0.682268 0.000000
O O13 0.148091 0.939510 0.500000
O O14 0.198307 0.000000 0.707902
O O15 0.387772 0.276684 0.500000
O O16 0.500000 0.259870 0.703746
O O17 0.379939 0.291493 0.831524
O O18 0.500000 0.313578 0.000000
#
# Coordination Sequence:
#
# PCOD8267599 Si02
#       7
#     8  16   8  16  16  16   8
#     4  11  25  42  66  96 119 141 177 234 306 368
#     4  10  19  33  53  78 111 157 206 244 284 336
#     4   9  16  28  49  77 111 152 200 253 292 318
#     4  10  19  30  47  79 121 160 204 253 288 320
#     4  10  22  42  65  88 118 157 197 233 282 354
#     4   9  16  29  52  79 112 156 195 232 285 340
#     4   9  18  35  55  83 117 140 174 232 291 359
#
# _framework density 20.069600999999999
#
# number of rings (size 3 to 8) (size 9 to 14) (size 15 to 20)
#    0.000    2.273    1.818    1.364    1.273    3.636 
#    0.000    3.182    0.000    3.818    0.000    3.818 
#    0.000    0.000    0.000    0.000    0.000    0.000 
#
# Total GULP energy -545557.603439 kJ/mol
# GULP energy per Si atom -12399.036442 kJ/mol
# Density = 2.002392 g / cm^3
# Si number density = 20.069601 Si / 1000 Ang^3
#
#
#
# Elastic Constant Matrix: (Units=GPa)
#
#
# Indices 1 2 3 4 5 6 
#
# 1 62.9451 23.1683 34.0797 0.0000 0.0000 0.0000
# 2 23.1683 89.0419 46.2033 0.0000 0.0000 0.0000
# 3 34.0797 46.2033 120.0854 0.0000 0.0000 0.0000
# 4 0.0000 0.0000 0.0000 25.3686 0.0000 0.0000
# 5 0.0000 0.0000 0.0000 0.0000 17.4031 0.0000
# 6 0.0000 0.0000 0.0000 0.0000 0.0000 10.9902
#
#
#
# Elastic Compliance Matrix: (Units=1/GPa)
#
#
# Indices 1 2 3 4 5 6 
#
# 1 0.019285 -0.002721 -0.004426 0.000000 0.000000 0.000000
# 2 -0.002721 0.014416 -0.004774 0.000000 0.000000 0.000000
# 3 -0.004426 -0.004774 0.011420 0.000000 0.000000 0.000000
# 4 0.000000 0.000000 0.000000 0.039419 0.000000 0.000000
# 5 0.000000 0.000000 0.000000 0.000000 0.057461 0.000000
# 6 0.000000 0.000000 0.000000 0.000000 0.000000 0.090991
#
#
# Mechanical properties :
#
#
# Convention : Reuss Voigt Hill
#
# Bulk Modulus (GPa) = 46.99639 53.21946 50.10793
# Shear Modulus (GPa) = 18.94461 21.99379 20.46920
#
# Velocity S-wave (km/s) = 3.07570 3.31399 3.19707
# Velocity P-wave (km/s) = 6.00673 6.42016 6.21688
#
# Compressibility (1/GPa) = 0.02127823
#
# Stress axis : x y z
#
# Youngs Moduli (GPa) = 51.85444 69.36684 87.56245
#
# Poissons Ratio (x) = 0.18876 0.38754
# Poissons Ratio (y) = 0.14111 0.41806
# Poissons Ratio (z) = 0.22950 0.33118
#
# Static dielectric constant tensor:
#      x y z
#    x 3.183420 0.000000 0.000000 
#    y 0.000000 3.664970 0.000000 
#    z 0.000000 0.000000 3.665890 
# 
# 
# High freq. dielectric constant tensor:
#      x y z
#    x 1.741270 0.000000 0.000000 
#    y 0.000000 1.786460 0.000000 
#    z 0.000000 0.000000 1.786920 
# 
# From -- ./inp_files/10211.got.cif
#   From: 2010.03.12/outbox.cif.g09.slc.cpg/sg65_6_cif.got.tgz:10211.got - 2010.04.10 20:52:16.
