data_PCOD8267739
_publ_section_title
;
Structure prediction by ZEFSAII (Michael W. Deem and Ramdas Pophale) SiO2 
 PCOD8267739
Probable space group: C M M M
;
_chemical_formula_sum "Si O2"
_cell_formula_units_Z 72
_cell_length_a 9.639403
_cell_length_b 27.484369
_cell_length_c 17.184607
_cell_angle_alpha 90.000000
_cell_angle_beta 90.000000
_cell_angle_gamma 90.000000
_cell_volume 4552.767922
_symmetry_space_group_name_H-M "C M M M"
_symmetry_group_IT_number 65
_symmetry_cell_setting 'orthorhombic'
loop_
_space_group_symop_operation_xyz
x,y,z
-x,-y,z
x,-y,-z
-x,y,-z
-x,-y,-z
x,y,-z
-x,y,z
x,-y,z
1/2+x,1/2+y,z
1/2-x,1/2-y,z
1/2+x,1/2-y,-z
1/2-x,1/2+y,-z
1/2-x,1/2-y,-z
1/2+x,1/2+y,-z
1/2-x,1/2+y,z
1/2+x,1/2-y,z
loop_
_atom_site_type_symbol
_atom_site_label
_atom_site_fract_x
_atom_site_fract_y
_atom_site_fract_z
Si Si1 0.656353 0.555553 0.712943
Si Si2 0.500000 0.820839 0.408112
Si Si3 0.717475 0.634881 0.591573
Si Si4 0.158559 0.442167 0.144457
Si Si5 0.840413 0.057988 0.000000
Si Si6 0.500000 0.286850 0.408354
O O1 0.500000 0.559446 0.747198
O O2 0.690376 0.500000 0.690221
O O3 0.666393 0.586835 0.634740
O O4 0.766482 0.574988 0.776281
O O5 0.500000 0.813446 0.500000
O O6 0.371818 0.853241 0.381515
O O7 0.500000 0.766834 0.369390
O O8 0.700394 0.624761 0.500000
O O9 0.633501 0.682653 0.617901
O O10 0.154289 0.500000 0.140519
O O11 0.253871 0.422320 0.074128
O O12 0.000000 0.421778 0.140161
O O13 0.000000 0.077881 0.000000
O O14 0.845433 0.000000 0.000000
O O15 0.500000 0.279995 0.500000
#
# Coordination Sequence:
#
# PCOD8267739 Si02
#       6
#    16   8  16  16   8   8
#     4  10  20  32  44  60  87 124 161 192 222 259
#     4   9  18  30  47  67  87 108 138 187 244 291
#     4  10  19  31  46  66  88 116 154 191 230 274
#     4   9  17  28  43  62  85 115 150 186 224 263
#     4   9  15  25  43  65  87 111 144 183 222 267
#     4   9  16  30  49  67  85 108 142 187 238 287
#
# _framework density 15.814555
#
# number of rings (size 3 to 8) (size 9 to 14) (size 15 to 20)
#    0.000    2.556    1.111    1.667    1.556    7.111 
#    0.000    1.111    0.000    2.000    0.000    0.000 
#    0.000    0.000    0.000    6.000    0.000    0.778 
#
# Total GULP energy -446193.669133 kJ/mol
# GULP energy per Si atom -12394.268587 kJ/mol
# Density = 1.577856 g / cm^3
# Si number density = 15.814555 Si / 1000 Ang^3
#
#
#
# Elastic Constant Matrix: (Units=GPa)
#
#
# Indices 1 2 3 4 5 6 
#
# 1 131.8190 20.9292 36.5870 0.0000 0.0000 0.0000
# 2 20.9292 48.7612 26.6434 0.0000 0.0000 0.0000
# 3 36.5870 26.6434 67.5242 0.0000 0.0000 0.0000
# 4 0.0000 0.0000 0.0000 2.1474 0.0000 0.0000
# 5 0.0000 0.0000 0.0000 0.0000 22.9980 0.0000
# 6 0.0000 0.0000 0.0000 0.0000 0.0000 22.0529
#
#
#
# Elastic Compliance Matrix: (Units=1/GPa)
#
#
# Indices 1 2 3 4 5 6 
#
# 1 0.009018 -0.001531 -0.004282 0.000000 0.000000 0.000000
# 2 -0.001531 0.026405 -0.009589 0.000000 0.000000 0.000000
# 3 -0.004282 -0.009589 0.020913 0.000000 0.000000 0.000000
# 4 0.000000 0.000000 0.000000 0.465674 0.000000 0.000000
# 5 0.000000 0.000000 0.000000 0.000000 0.043482 0.000000
# 6 0.000000 0.000000 0.000000 0.000000 0.000000 0.045346
#
#
# Mechanical properties :
#
#
# Convention : Reuss Voigt Hill
#
# Bulk Modulus (GPa) = 39.16714 46.26928 42.71821
# Shear Modulus (GPa) = 7.69050 20.36932 14.02991
#
# Velocity S-wave (km/s) = 2.20760 3.59278 2.98174
# Velocity P-wave (km/s) = 5.59627 6.82141 6.23899
#
# Compressibility (1/GPa) = 0.02553161
#
# Stress axis : x y z
#
# Youngs Moduli (GPa) = 110.89272 37.87192 47.81628
#
# Poissons Ratio (x) = 0.05797 0.20475
# Poissons Ratio (y) = 0.16976 0.45852
# Poissons Ratio (z) = 0.47485 0.36316
#
# Static dielectric constant tensor:
#      x y z
#    x 3.389220 0.000000 0.000000 
#    y 0.000000 2.688340 0.000000 
#    z 0.000000 0.000000 2.783570 
# 
# 
# High freq. dielectric constant tensor:
#      x y z
#    x 1.633860 0.000000 0.000000 
#    y 0.000000 1.561890 0.000000 
#    z 0.000000 0.000000 1.577160 
# 
# From -- ./inp_files/36681.got.cif
#   From: 2010.03.12/outbox.cif.g09.slc.cpg/sg65_19_cif.got.tgz:36681.got - 2010.04.10 20:52:16.
