data_PCOD8267212
_publ_section_title
;
Structure prediction by ZEFSAII (Michael W. Deem and Ramdas Pophale) SiO2 
 PCOD8267212
Probable space group: C M M M
;
_chemical_formula_sum "Si O2"
_cell_formula_units_Z 80
_cell_length_a 23.977320
_cell_length_b 23.286994
_cell_length_c 9.117945
_cell_angle_alpha 90.000000
_cell_angle_beta 90.000000
_cell_angle_gamma 90.000000
_cell_volume 5091.093098
_symmetry_space_group_name_H-M "C M M M"
_symmetry_group_IT_number 65
_symmetry_cell_setting 'orthorhombic'
loop_
_space_group_symop_operation_xyz
x,y,z
-x,-y,z
x,-y,-z
-x,y,-z
-x,-y,-z
x,y,-z
-x,y,z
x,-y,z
1/2+x,1/2+y,z
1/2-x,1/2-y,z
1/2+x,1/2-y,-z
1/2-x,1/2+y,-z
1/2-x,1/2-y,-z
1/2+x,1/2+y,-z
1/2-x,1/2+y,z
1/2+x,1/2-y,z
loop_
_atom_site_type_symbol
_atom_site_label
_atom_site_fract_x
_atom_site_fract_y
_atom_site_fract_z
Si Si1 0.937553 0.762577 0.330796
Si Si2 0.662928 0.565466 0.668784
Si Si3 0.837190 0.274254 0.169352
Si Si4 0.770374 0.159056 0.169864
Si Si5 0.937113 0.882706 0.829988
O O1 0.924752 0.775162 0.500000
O O2 0.892784 0.717205 0.267004
O O3 0.930399 0.820839 0.241595
O O4 0.000000 0.737535 0.310216
O O5 0.653180 0.581715 0.500000
O O6 0.682512 0.500000 0.687073
O O7 0.711821 0.605040 0.733283
O O8 0.604702 0.573091 0.753972
O O9 0.811672 0.211721 0.201371
O O10 0.792467 0.322916 0.213548
O O11 0.853412 0.280486 0.000000
O O12 0.773145 0.141699 0.000000
O O13 0.000000 0.906147 0.809805
O O14 0.921057 0.876730 0.000000
#
# Coordination Sequence:
#
# PCOD8267212 Si02
#       5
#    16  16  16  16  16
#     4  10  19  29  44  69  98 124 151 185 227 274
#     4  11  23  35  47  66  92 120 154 196 236 274
#     4   9  17  30  49  71  93 117 150 191 229 272
#     4   9  18  32  49  69  91 117 153 192 230 273
#     4  10  20  33  48  64  85 118 160 200 234 269
#
# _framework density 15.713717000000001
#
# number of rings (size 3 to 8) (size 9 to 14) (size 15 to 20)
#    0.000    2.200    2.000    3.000    0.000    5.200 
#    0.000    4.000    0.000    0.000    0.000    0.000 
#    0.000    0.800    0.000    8.800    0.000    6.400 
#
# Total GULP energy -495985.438521 kJ/mol
# GULP energy per Si atom -12399.635963 kJ/mol
# Density = 1.567795 g / cm^3
# Si number density = 15.713717 Si / 1000 Ang^3
#
#
#
# Elastic Constant Matrix: (Units=GPa)
#
#
# Indices 1 2 3 4 5 6 
#
# 1 110.5099 50.9257 67.5234 0.0000 0.0000 0.0000
# 2 50.9257 62.4121 49.0863 0.0000 0.0000 0.0000
# 3 67.5234 49.0863 114.2383 0.0000 0.0000 0.0000
# 4 0.0000 0.0000 0.0000 21.6606 0.0000 0.0000
# 5 0.0000 0.0000 0.0000 0.0000 28.5964 0.0000
# 6 0.0000 0.0000 0.0000 0.0000 0.0000 22.1977
#
#
#
# Elastic Compliance Matrix: (Units=1/GPa)
#
#
# Indices 1 2 3 4 5 6 
#
# 1 0.016955 -0.008991 -0.006158 0.000000 0.000000 0.000000
# 2 -0.008991 0.028969 -0.007133 0.000000 0.000000 0.000000
# 3 -0.006158 -0.007133 0.015459 0.000000 0.000000 0.000000
# 4 0.000000 0.000000 0.000000 0.046167 0.000000 0.000000
# 5 0.000000 0.000000 0.000000 0.000000 0.034969 0.000000
# 6 0.000000 0.000000 0.000000 0.000000 0.000000 0.045050
#
#
# Mechanical properties :
#
#
# Convention : Reuss Voigt Hill
#
# Bulk Modulus (GPa) = 59.46165 69.13677 64.29921
# Shear Modulus (GPa) = 21.03137 22.46595 21.74866
#
# Velocity S-wave (km/s) = 3.66240 3.78524 3.72433
# Velocity P-wave (km/s) = 7.47040 7.94967 7.71376
#
# Compressibility (1/GPa) = 0.01681756
#
# Stress axis : x y z
#
# Youngs Moduli (GPa) = 58.97878 34.51960 64.68866
#
# Poissons Ratio (x) = 0.31037 0.39838
# Poissons Ratio (y) = 0.53029 0.46143
# Poissons Ratio (z) = 0.36322 0.24623
#
# Static dielectric constant tensor:
#      x y z
#    x 3.208440 0.000000 0.000000 
#    y 0.000000 2.621870 0.000000 
#    z 0.000000 0.000000 3.089670 
# 
# 
# High freq. dielectric constant tensor:
#      x y z
#    x 1.606560 0.000000 0.000000 
#    y 0.000000 1.554000 0.000000 
#    z 0.000000 0.000000 1.616360 
# 
# From -- ./inp_files/9606.got.cif
#   From: 2010.03.12/outbox.cif.g09.slc.cpg/sg65_5_cif.got.tgz:9606.got - 2010.04.10 20:52:16.
