data_PCOD8267695
_publ_section_title
;
Structure prediction by ZEFSAII (Michael W. Deem and Ramdas Pophale) SiO2 
 PCOD8267695
Probable space group: C M M M
;
_chemical_formula_sum "Si O2"
_cell_formula_units_Z 120
_cell_length_a 19.323972
_cell_length_b 26.227263
_cell_length_c 14.926777
_cell_angle_alpha 90.000000
_cell_angle_beta 90.000000
_cell_angle_gamma 90.000000
_cell_volume 7565.112931
_symmetry_space_group_name_H-M "C M M M"
_symmetry_group_IT_number 65
_symmetry_cell_setting 'orthorhombic'
loop_
_space_group_symop_operation_xyz
x,y,z
-x,-y,z
x,-y,-z
-x,y,-z
-x,-y,-z
x,y,-z
-x,y,z
x,-y,z
1/2+x,1/2+y,z
1/2-x,1/2-y,z
1/2+x,1/2-y,-z
1/2-x,1/2+y,-z
1/2-x,1/2-y,-z
1/2+x,1/2+y,-z
1/2-x,1/2+y,z
1/2+x,1/2-y,z
loop_
_atom_site_type_symbol
_atom_site_label
_atom_site_fract_x
_atom_site_fract_y
_atom_site_fract_z
Si Si1 0.923147 0.500000 0.606297
Si Si2 0.671784 0.186191 0.098959
Si Si3 0.082068 0.320367 0.737116
Si Si4 0.848663 0.397976 0.394036
Si Si5 0.078135 0.796736 0.254953
Si Si6 0.706419 0.556560 0.394019
Si Si7 0.422481 0.380478 0.603493
Si Si8 0.673108 0.692567 0.099161
O O1 0.923384 0.500000 0.500000
O O2 0.885392 0.550614 0.640364
O O3 0.000000 0.500000 0.646387
O O4 0.617854 0.162004 0.169670
O O5 0.669284 0.246788 0.098322
O O6 0.750731 0.170963 0.122651
O O7 0.651761 0.165549 0.000000
O O8 0.117081 0.350096 0.655144
O O9 0.100325 0.261011 0.722900
O O10 0.000000 0.331067 0.740601
O O11 0.858485 0.389283 0.500000
O O12 0.768086 0.404736 0.366807
O O13 0.087834 0.827181 0.346575
O O14 0.121613 0.825317 0.177304
O O15 0.000000 0.797327 0.219605
O O16 0.706783 0.550787 0.500000
O O17 0.716851 0.500000 0.352010
O O18 0.632933 0.578550 0.360432
O O19 0.409131 0.368127 0.500000
O O20 0.500000 0.402456 0.619335
O O21 0.650926 0.672579 0.000000
#
# Coordination Sequence:
#
# PCOD8267695 Si02
#       8
#     8  16  16  16  16  16  16  16
#     4   9  16  28  46  62  82 114 148 188 235 270
#     4   8  15  28  44  62  85 114 149 189 228 263
#     4  10  20  30  43  66  92 123 159 186 216 262
#     4  10  19  31  45  66  92 118 150 189 230 267
#     4   9  18  30  43  64  95 126 154 183 214 256
#     4   9  17  31  49  67  87 112 148 194 236 268
#     4   9  18  31  46  65  92 126 156 180 214 262
#     4   8  14  26  44  63  84 114 150 187 228 265
#
# _framework density 15.862287999999999
#
# number of rings (size 3 to 8) (size 9 to 14) (size 15 to 20)
#    0.000    3.000    0.667    1.200    1.867    2.133 
#    0.000    5.333    0.000    2.400    0.000    0.467 
#    0.000    3.200    0.000    2.933    0.000    0.267 
#
# Total GULP energy -743579.026528 kJ/mol
# GULP energy per Si atom -12392.983775 kJ/mol
# Density = 1.582618 g / cm^3
# Si number density = 15.862288 Si / 1000 Ang^3
#
#
#
# Elastic Constant Matrix: (Units=GPa)
#
#
# Indices 1 2 3 4 5 6 
#
# 1 119.5512 43.5413 51.4378 0.0000 0.0000 0.0000
# 2 43.5413 52.1069 31.8275 0.0000 0.0000 0.0000
# 3 51.4378 31.8275 70.2290 0.0000 0.0000 0.0000
# 4 0.0000 0.0000 0.0000 3.2007 0.0000 0.0000
# 5 0.0000 0.0000 0.0000 0.0000 27.0983 0.0000
# 6 0.0000 0.0000 0.0000 0.0000 0.0000 22.4976
#
#
#
# Elastic Compliance Matrix: (Units=1/GPa)
#
#
# Indices 1 2 3 4 5 6 
#
# 1 0.014081 -0.007559 -0.006888 0.000000 0.000000 0.000000
# 2 -0.007559 0.030596 -0.008329 0.000000 0.000000 0.000000
# 3 -0.006888 -0.008329 0.023058 0.000000 0.000000 0.000000
# 4 0.000000 0.000000 0.000000 0.312427 0.000000 0.000000
# 5 0.000000 0.000000 0.000000 0.000000 0.036903 0.000000
# 6 0.000000 0.000000 0.000000 0.000000 0.000000 0.044449
#
#
# Mechanical properties :
#
#
# Convention : Reuss Voigt Hill
#
# Bulk Modulus (GPa) = 45.07927 55.05560 50.06743
# Shear Modulus (GPa) = 9.71891 18.23137 13.97514
#
# Velocity S-wave (km/s) = 2.47797 3.39389 2.97143
# Velocity P-wave (km/s) = 6.05541 7.08109 6.58824
#
# Compressibility (1/GPa) = 0.02218315
#
# Stress axis : x y z
#
# Youngs Moduli (GPa) = 71.01633 32.68448 43.36800
#
# Poissons Ratio (x) = 0.24708 0.29870
# Poissons Ratio (y) = 0.53685 0.36121
# Poissons Ratio (z) = 0.48913 0.27223
#
# Static dielectric constant tensor:
#      x y z
#    x 3.341690 0.000000 0.000000 
#    y 0.000000 2.774370 0.000000 
#    z 0.000000 0.000000 3.022640 
# 
# 
# High freq. dielectric constant tensor:
#      x y z
#    x 1.625520 0.000000 0.000000 
#    y 0.000000 1.571200 0.000000 
#    z 0.000000 0.000000 1.586800 
# 
# From -- ./inp_files/44813.got.cif
#   From: 2010.03.12/outbox.cif.g09.slc.cpg/sg65_23_cif.got.tgz:44813.got - 2010.04.10 20:52:16.
