data_PCOD8267491
_publ_section_title
;
Structure prediction by ZEFSAII (Michael W. Deem and Ramdas Pophale) SiO2 
 PCOD8267491
Probable space group: C M M M
;
_chemical_formula_sum "Si O2"
_cell_formula_units_Z 96
_cell_length_a 9.653465
_cell_length_b 36.803551
_cell_length_c 16.336158
_cell_angle_alpha 90.000000
_cell_angle_beta 90.000000
_cell_angle_gamma 90.000000
_cell_volume 5803.939480
_symmetry_space_group_name_H-M "C M M M"
_symmetry_group_IT_number 65
_symmetry_cell_setting 'orthorhombic'
loop_
_space_group_symop_operation_xyz
x,y,z
-x,-y,z
x,-y,-z
-x,y,-z
-x,-y,-z
x,y,-z
-x,y,z
x,-y,z
1/2+x,1/2+y,z
1/2-x,1/2-y,z
1/2+x,1/2-y,-z
1/2-x,1/2+y,-z
1/2-x,1/2-y,-z
1/2+x,1/2+y,-z
1/2-x,1/2+y,z
1/2+x,1/2-y,z
loop_
_atom_site_type_symbol
_atom_site_label
_atom_site_fract_x
_atom_site_fract_y
_atom_site_fract_z
Si Si1 0.842608 0.146727 0.278633
Si Si2 0.164403 0.180679 0.000000
Si Si3 0.158883 0.540694 0.302668
Si Si4 0.837443 0.215122 0.169408
Si Si5 0.658976 0.424042 0.826100
Si Si6 0.335617 0.400376 0.000000
Si Si7 0.662064 0.890665 0.593595
O O1 0.805003 0.184838 0.237394
O O2 0.820750 0.116043 0.210367
O O3 0.743153 0.140084 0.355947
O O4 0.000000 0.146434 0.310800
O O5 0.215452 0.201811 0.080604
O O6 0.229102 0.140152 0.000000
O O7 0.000000 0.177710 0.000000
O O8 0.185195 0.500000 0.336320
O O9 0.249608 0.546684 0.221670
O O10 0.200823 0.569134 0.373374
O O11 0.000000 0.546279 0.277057
O O12 0.750000 0.250000 0.195704
O O13 0.000000 0.224515 0.167119
O O14 0.500000 0.436631 0.820251
O O15 0.711638 0.422580 0.919808
O O16 0.500000 0.396003 0.000000
O O17 0.710391 0.888752 0.500000
O O18 0.500000 0.882755 0.602828
#
# Coordination Sequence:
#
# PCOD8267491 Si02
#       7
#    16   8  16  16  16   8  16
#     4   9  17  30  48  69  93 123 156 189 229 275
#     4   9  15  27  46  67  95 127 159 194 230 271
#     4   9  18  32  48  67  95 126 150 179 227 283
#     4  10  19  30  46  69  98 130 160 191 229 273
#     4   9  16  28  48  69  88 118 161 200 229 262
#     4   9  14  25  47  69  88 118 161 202 231 261
#     4   9  18  32  51  74  95 116 147 188 231 276
#
# _framework density 16.540489000000001
#
# number of rings (size 3 to 8) (size 9 to 14) (size 15 to 20)
#    0.000    2.833    1.667    0.250    0.000    1.667 
#    0.000    2.500    0.000    4.000    0.000    4.667 
#    0.000    0.000    0.000    0.000    0.000    0.000 
#
# Total GULP energy -595164.149146 kJ/mol
# GULP energy per Si atom -12399.253107 kJ/mol
# Density = 1.650284 g / cm^3
# Si number density = 16.540489 Si / 1000 Ang^3
#
#
#
# Elastic Constant Matrix: (Units=GPa)
#
#
# Indices 1 2 3 4 5 6 
#
# 1 50.7687 39.3006 51.7105 0.0000 0.0000 0.0000
# 2 39.3006 85.2538 50.2825 0.0000 0.0000 0.0000
# 3 51.7105 50.2825 136.4621 0.0000 0.0000 0.0000
# 4 0.0000 0.0000 0.0000 17.2559 0.0000 0.0000
# 5 0.0000 0.0000 0.0000 0.0000 24.4581 0.0000
# 6 0.0000 0.0000 0.0000 0.0000 0.0000 25.9230
#
#
#
# Elastic Compliance Matrix: (Units=1/GPa)
#
#
# Indices 1 2 3 4 5 6 
#
# 1 0.039952 -0.012123 -0.010672 0.000000 0.000000 0.000000
# 2 -0.012123 0.018665 -0.002284 0.000000 0.000000 0.000000
# 3 -0.010672 -0.002284 0.012214 0.000000 0.000000 0.000000
# 4 0.000000 0.000000 0.000000 0.057951 0.000000 0.000000
# 5 0.000000 0.000000 0.000000 0.000000 0.040886 0.000000
# 6 0.000000 0.000000 0.000000 0.000000 0.000000 0.038576
#
#
# Mechanical properties :
#
#
# Convention : Reuss Voigt Hill
#
# Bulk Modulus (GPa) = 48.37244 61.67465 55.02355
# Shear Modulus (GPa) = 18.84714 22.27346 20.56030
#
# Velocity S-wave (km/s) = 3.37924 3.67359 3.52949
# Velocity P-wave (km/s) = 6.67339 7.44054 7.06738
#
# Compressibility (1/GPa) = 0.02067293
#
# Stress axis : x y z
#
# Youngs Moduli (GPa) = 25.03018 53.57621 81.87507
#
# Poissons Ratio (x) = 0.64948 0.87380
# Poissons Ratio (y) = 0.30343 0.18699
# Poissons Ratio (z) = 0.26713 0.12236
#
# Static dielectric constant tensor:
#      x y z
#    x 2.960230 0.000000 0.000000 
#    y 0.000000 3.004850 0.000000 
#    z 0.000000 0.000000 3.142230 
# 
# 
# High freq. dielectric constant tensor:
#      x y z
#    x 1.618270 0.000000 0.000000 
#    y 0.000000 1.626060 0.000000 
#    z 0.000000 0.000000 1.630630 
# 
# From -- ./inp_files/38920.got.cif
#   From: 2010.03.12/outbox.cif.g09.slc.cpg/sg65_20_cif.got.tgz:38920.got - 2010.04.10 20:52:16.
