data_PCOD8267209
_publ_section_title
;
Structure prediction by ZEFSAII (Michael W. Deem and Ramdas Pophale) SiO2 
 PCOD8267209
Probable space group: C M M M
;
_chemical_formula_sum "Si O2"
_cell_formula_units_Z 96
_cell_length_a 26.970348
_cell_length_b 9.063644
_cell_length_c 23.946719
_cell_angle_alpha 90.000000
_cell_angle_beta 90.000000
_cell_angle_gamma 90.000000
_cell_volume 5853.766667
_symmetry_space_group_name_H-M "C M M M"
_symmetry_group_IT_number 65
_symmetry_cell_setting 'orthorhombic'
loop_
_space_group_symop_operation_xyz
x,y,z
-x,-y,z
x,-y,-z
-x,y,-z
-x,-y,-z
x,y,-z
-x,y,z
x,-y,z
1/2+x,1/2+y,z
1/2-x,1/2-y,z
1/2+x,1/2-y,-z
1/2-x,1/2+y,-z
1/2-x,1/2-y,-z
1/2+x,1/2+y,-z
1/2-x,1/2+y,z
1/2+x,1/2-y,z
loop_
_atom_site_type_symbol
_atom_site_label
_atom_site_fract_x
_atom_site_fract_y
_atom_site_fract_z
Si Si1 0.943702 0.325795 0.000000
Si Si2 0.556584 0.330221 0.779009
Si Si3 0.697609 0.172328 0.379878
Si Si4 0.101250 0.168437 0.896043
Si Si5 0.146302 0.326157 0.731863
Si Si6 0.699881 0.327273 0.832115
Si Si7 0.198362 0.671126 0.500000
O O1 0.914004 0.273883 0.945924
O O2 0.944581 0.500000 0.000000
O O3 0.000000 0.262924 0.000000
O O4 0.500000 0.296918 0.763826
O O5 0.571141 0.500000 0.767473
O O6 0.565762 0.294928 0.843943
O O7 0.589927 0.225938 0.740471
O O8 0.750000 0.250000 0.371597
O O9 0.660265 0.220402 0.331101
O O10 0.672068 0.212535 0.440651
O O11 0.708542 0.000000 0.375576
O O12 0.158193 0.199514 0.879144
O O13 0.094382 0.000000 0.915469
O O14 0.150401 0.500000 0.742481
O O15 0.183338 0.243687 0.773720
O O16 0.708969 0.500000 0.822156
O O17 0.750000 0.250000 0.853435
O O18 0.209998 0.500000 0.500000
O O19 0.250000 0.750000 0.500000
#
# Coordination Sequence:
#
# PCOD8267209 Si02
#       7
#     8  16  16  16  16  16   8
#     4  11  23  35  50  75 100 119 146 187 230 269
#     4   9  18  33  51  70  92 119 151 188 231 275
#     4   9  17  27  41  62  89 121 154 187 223 265
#     4   9  19  35  53  71  92 120 153 184 219 270
#     4  10  19  29  44  69  96 122 153 188 229 275
#     4  10  20  34  51  71  95 125 158 190 226 268
#     4   8  14  26  40  56  83 118 153 187 222 261
#
# _framework density 16.399697
#
# number of rings (size 3 to 8) (size 9 to 14) (size 15 to 20)
#    0.000    2.583    0.000    3.250    0.000    7.667 
#    0.000    0.417    0.000    0.000    0.000    0.583 
#    0.000    4.667    0.000    0.000    0.000    0.000 
#
# Total GULP energy -594976.643599 kJ/mol
# GULP energy per Si atom -12395.346742 kJ/mol
# Density = 1.636237 g / cm^3
# Si number density = 16.399697 Si / 1000 Ang^3
#
#
#
# Elastic Constant Matrix: (Units=GPa)
#
#
# Indices 1 2 3 4 5 6 
#
# 1 89.8687 42.4185 55.3325 0.0000 0.0000 0.0000
# 2 42.4185 69.2411 52.1591 0.0000 0.0000 0.0000
# 3 55.3325 52.1591 128.0221 0.0000 0.0000 0.0000
# 4 0.0000 0.0000 0.0000 21.6109 0.0000 0.0000
# 5 0.0000 0.0000 0.0000 0.0000 16.6732 0.0000
# 6 0.0000 0.0000 0.0000 0.0000 0.0000 27.4015
#
#
#
# Elastic Compliance Matrix: (Units=1/GPa)
#
#
# Indices 1 2 3 4 5 6 
#
# 1 0.017324 -0.007175 -0.004565 0.000000 0.000000 0.000000
# 2 -0.007175 0.023809 -0.006599 0.000000 0.000000 0.000000
# 3 -0.004565 -0.006599 0.012473 0.000000 0.000000 0.000000
# 4 0.000000 0.000000 0.000000 0.046273 0.000000 0.000000
# 5 0.000000 0.000000 0.000000 0.000000 0.059976 0.000000
# 6 0.000000 0.000000 0.000000 0.000000 0.000000 0.036494
#
#
# Mechanical properties :
#
#
# Convention : Reuss Voigt Hill
#
# Bulk Modulus (GPa) = 59.07131 65.21690 62.14411
# Shear Modulus (GPa) = 20.94945 22.28525 21.61735
#
# Velocity S-wave (km/s) = 3.57799 3.69030 3.63458
# Velocity P-wave (km/s) = 7.29159 7.61651 7.45582
#
# Compressibility (1/GPa) = 0.01692869
#
# Stress axis : x y z
#
# Youngs Moduli (GPa) = 57.72249 42.00108 80.17500
#
# Poissons Ratio (x) = 0.30135 0.36597
# Poissons Ratio (y) = 0.41414 0.52910
# Poissons Ratio (z) = 0.26348 0.27718
#
# Static dielectric constant tensor:
#      x y z
#    x 3.048500 0.000000 0.000000 
#    y 0.000000 3.058780 0.000000 
#    z 0.000000 0.000000 3.329750 
# 
# 
# High freq. dielectric constant tensor:
#      x y z
#    x 1.612640 0.000000 0.000000 
#    y 0.000000 1.638490 0.000000 
#    z 0.000000 0.000000 1.628240 
# 
# From -- ./inp_files/71754.got.cif
#   From: 2010.03.12/outbox.cif.g09.slc.cpg/sg65_36_cif.got.tgz:71754.got - 2010.04.10 20:52:16.
