data_PCOD8267272
_publ_section_title
;
Structure prediction by ZEFSAII (Michael W. Deem and Ramdas Pophale) SiO2 
 PCOD8267272
Probable space group: C M M M
;
_chemical_formula_sum "Si O2"
_cell_formula_units_Z 72
_cell_length_a 8.916757
_cell_length_b 29.798350
_cell_length_c 15.271530
_cell_angle_alpha 90.000000
_cell_angle_beta 90.000000
_cell_angle_gamma 90.000000
_cell_volume 4057.716472
_symmetry_space_group_name_H-M "C M M M"
_symmetry_group_IT_number 65
_symmetry_cell_setting 'orthorhombic'
loop_
_space_group_symop_operation_xyz
x,y,z
-x,-y,z
x,-y,-z
-x,y,-z
-x,-y,-z
x,y,-z
-x,y,z
x,-y,z
1/2+x,1/2+y,z
1/2-x,1/2-y,z
1/2+x,1/2-y,-z
1/2-x,1/2+y,-z
1/2-x,1/2-y,-z
1/2+x,1/2+y,-z
1/2-x,1/2+y,z
1/2+x,1/2-y,z
loop_
_atom_site_type_symbol
_atom_site_label
_atom_site_fract_x
_atom_site_fract_y
_atom_site_fract_z
Si Si1 0.676553 0.203775 0.098241
Si Si2 0.823980 0.202986 0.600646
Si Si3 0.176711 0.357072 0.744712
Si Si4 0.321655 0.049261 0.312917
Si Si5 0.161217 0.552411 0.500000
O O1 0.500000 0.210451 0.101689
O O2 0.750000 0.250000 0.129485
O O3 0.730374 0.165026 0.164350
O O4 0.729521 0.190868 0.000000
O O5 0.785786 0.190661 0.500000
O O6 0.750000 0.250000 0.627590
O O7 0.759486 0.164220 0.661951
O O8 0.000000 0.207556 0.615880
O O9 0.220399 0.410113 0.752495
O O10 0.000000 0.350584 0.730613
O O11 0.500000 0.045805 0.323748
O O12 0.252371 0.063176 0.408744
O O13 0.260891 0.000000 0.281055
O O14 0.130505 0.500000 0.500000
O O15 0.000000 0.577930 0.500000
#
# Coordination Sequence:
#
# PCOD8267272 Si02
#       5
#    16  16  16  16   8
#     4   9  18  32  48  68  94 120 149 189 238 287
#     4  10  21  35  48  65  94 128 157 188 229 279
#     4  10  19  29  48  73  93 121 158 197 236 274
#     4   8  14  24  39  63  93 121 153 193 231 268
#     4   7  10  18  32  52  80 111 142 181 222 253
#
# _framework density 17.743970000000001
#
# number of rings (size 3 to 8) (size 9 to 14) (size 15 to 20)
#    0.000    3.000    0.000    2.667    1.556    4.000 
#    0.000    0.000    0.000    1.333    0.000    6.222 
#    0.000    0.000    0.000    7.556    0.000    8.000 
#
# Total GULP energy -445983.099682 kJ/mol
# GULP energy per Si atom -12388.419436 kJ/mol
# Density = 1.770358 g / cm^3
# Si number density = 17.743970 Si / 1000 Ang^3
#
#
#
# Elastic Constant Matrix: (Units=GPa)
#
#
# Indices 1 2 3 4 5 6 
#
# 1 28.8257 24.7253 21.9173 0.0000 0.0000 0.0000
# 2 24.7253 155.9182 83.0300 0.0000 0.0000 0.0000
# 3 21.9173 83.0300 99.0653 0.0000 0.0000 0.0000
# 4 0.0000 0.0000 0.0000 26.2167 0.0000 0.0000
# 5 0.0000 0.0000 0.0000 0.0000 17.3310 0.0000
# 6 0.0000 0.0000 0.0000 0.0000 0.0000 15.9021
#
#
#
# Elastic Compliance Matrix: (Units=1/GPa)
#
#
# Indices 1 2 3 4 5 6 
#
# 1 0.042537 -0.003132 -0.006786 0.000000 0.000000 0.000000
# 2 -0.003132 0.011814 -0.009209 0.000000 0.000000 0.000000
# 3 -0.006786 -0.009209 0.019314 0.000000 0.000000 0.000000
# 4 0.000000 0.000000 0.000000 0.038144 0.000000 0.000000
# 5 0.000000 0.000000 0.000000 0.000000 0.057700 0.000000
# 6 0.000000 0.000000 0.000000 0.000000 0.000000 0.062885
#
#
# Mechanical properties :
#
#
# Convention : Reuss Voigt Hill
#
# Bulk Modulus (GPa) = 28.23918 60.35049 44.29484
# Shear Modulus (GPa) = 17.70209 22.16572 19.93390
#
# Velocity S-wave (km/s) = 3.16197 3.53823 3.35538
# Velocity P-wave (km/s) = 5.41111 7.12585 6.32684
#
# Compressibility (1/GPa) = 0.03541179
#
# Stress axis : x y z
#
# Youngs Moduli (GPa) = 23.50875 84.64310 51.77532
#
# Poissons Ratio (x) = 0.26508 0.35136
# Poissons Ratio (y) = 0.07362 0.47681
# Poissons Ratio (z) = 0.15954 0.77949
#
# Static dielectric constant tensor:
#      x y z
#    x 2.921810 0.000000 0.000000 
#    y 0.000000 3.466220 0.000000 
#    z 0.000000 0.000000 3.498050 
# 
# 
# High freq. dielectric constant tensor:
#      x y z
#    x 1.645750 0.000000 0.000000 
#    y 0.000000 1.685980 0.000000 
#    z 0.000000 0.000000 1.672200 
# 
# From -- ./inp_files/37005.got.cif
#   From: 2010.03.12/outbox.cif.g09.slc.cpg/sg65_19_cif.got.tgz:37005.got - 2010.04.10 20:52:16.
