data_PCOD8267704
_publ_section_title
;
Structure prediction by ZEFSAII (Michael W. Deem and Ramdas Pophale) SiO2 
 PCOD8267704
Probable space group: C M M M
;
_chemical_formula_sum "Si O2"
_cell_formula_units_Z 104
_cell_length_a 8.914009
_cell_length_b 25.398947
_cell_length_c 29.930031
_cell_angle_alpha 90.000000
_cell_angle_beta 90.000000
_cell_angle_gamma 90.000000
_cell_volume 6776.351832
_symmetry_space_group_name_H-M "C M M M"
_symmetry_group_IT_number 65
_symmetry_cell_setting 'orthorhombic'
loop_
_space_group_symop_operation_xyz
x,y,z
-x,-y,z
x,-y,-z
-x,y,-z
-x,-y,-z
x,y,-z
-x,y,z
x,-y,z
1/2+x,1/2+y,z
1/2-x,1/2-y,z
1/2+x,1/2-y,-z
1/2-x,1/2+y,-z
1/2-x,1/2-y,-z
1/2+x,1/2+y,-z
1/2-x,1/2+y,z
1/2+x,1/2-y,z
loop_
_atom_site_type_symbol
_atom_site_label
_atom_site_fract_x
_atom_site_fract_y
_atom_site_fract_z
Si Si1 0.826584 0.562073 0.812864
Si Si2 0.329104 0.000000 0.052868
Si Si3 0.331176 0.437411 0.548915
Si Si4 0.678204 0.402250 0.099459
Si Si5 0.667991 0.437429 0.276786
Si Si6 0.325486 0.805531 0.948288
Si Si7 0.167993 0.437142 0.364329
O O1 0.801829 0.500000 0.819443
O O2 0.728641 0.592217 0.849420
O O3 0.769652 0.581270 0.764550
O O4 0.000000 0.577476 0.817801
O O5 0.246131 0.051475 0.069808
O O6 0.500000 0.000000 0.071182
O O7 0.327148 0.000000 0.000000
O O8 0.269504 0.419472 0.500000
O O9 0.500000 0.416565 0.555321
O O10 0.330189 0.500000 0.551409
O O11 0.231133 0.414063 0.588969
O O12 0.500000 0.404092 0.096146
O O13 0.738858 0.347369 0.081488
O O14 0.500000 0.415231 0.271036
O O15 0.666231 0.500000 0.278776
O O16 0.736066 0.414946 0.322846
O O17 0.500000 0.803712 0.934950
O O18 0.250000 0.750000 0.937929
O O19 0.306003 0.821033 0.000000
O O20 0.172708 0.500000 0.364796
O O21 0.000000 0.416210 0.358615
#
# Coordination Sequence:
#
# PCOD8267704 Si02
#       7
#    16   8  16  16  16  16  16
#     4  10  19  31  46  62  85 113 141 172 211 255
#     4  11  23  37  51  69  95 125 153 181 216 257
#     4   8  13  20  28  37  51  73 102 139 186 236
#     4  12  23  34  51  73  97 122 150 181 217 262
#     4   9  16  25  37  51  69  93 124 159 196 240
#     4  10  21  38  58  77  97 121 150 183 218 256
#     4   9  15  21  29  42  59  80 110 146 188 236
#
# _framework density 15.347492000000001
#
# number of rings (size 3 to 8) (size 9 to 14) (size 15 to 20)
#    0.000    2.231    0.769    4.385    0.000    8.000 
#    0.000    1.538    0.000    0.000    0.000    0.000 
#    0.000    0.000    0.000    0.000    0.000    0.000 
#
# Total GULP energy -644730.846123 kJ/mol
# GULP energy per Si atom -12398.670118 kJ/mol
# Density = 1.531256 g / cm^3
# Si number density = 15.347492 Si / 1000 Ang^3
#
#
#
# Elastic Constant Matrix: (Units=GPa)
#
#
# Indices 1 2 3 4 5 6 
#
# 1 136.6666 32.0689 64.2666 0.0000 0.0000 0.0000
# 2 32.0689 39.3920 32.4351 0.0000 0.0000 0.0000
# 3 64.2666 32.4351 120.2199 0.0000 0.0000 0.0000
# 4 0.0000 0.0000 0.0000 5.8669 0.0000 0.0000
# 5 0.0000 0.0000 0.0000 0.0000 31.8366 0.0000
# 6 0.0000 0.0000 0.0000 0.0000 0.0000 15.7349
#
#
#
# Elastic Compliance Matrix: (Units=1/GPa)
#
#
# Indices 1 2 3 4 5 6 
#
# 1 0.010501 -0.005048 -0.004252 0.000000 0.000000 0.000000
# 2 -0.005048 0.035063 -0.006761 0.000000 0.000000 0.000000
# 3 -0.004252 -0.006761 0.012415 0.000000 0.000000 0.000000
# 4 0.000000 0.000000 0.000000 0.170449 0.000000 0.000000
# 5 0.000000 0.000000 0.000000 0.000000 0.031410 0.000000
# 6 0.000000 0.000000 0.000000 0.000000 0.000000 0.063553
#
#
# Mechanical properties :
#
#
# Convention : Reuss Voigt Hill
#
# Bulk Modulus (GPa) = 38.67452 61.53552 50.10502
# Shear Modulus (GPa) = 13.73129 21.85487 17.79308
#
# Velocity S-wave (km/s) = 2.99439 3.77769 3.40861
# Velocity P-wave (km/s) = 6.09992 7.69479 6.94330
#
# Compressibility (1/GPa) = 0.02585682
#
# Stress axis : x y z
#
# Youngs Moduli (GPa) = 95.23027 28.52039 80.54743
#
# Poissons Ratio (x) = 0.14397 0.34245
# Poissons Ratio (y) = 0.48072 0.54460
# Poissons Ratio (z) = 0.40488 0.19283
#
# Static dielectric constant tensor:
#      x y z
#    x 3.169890 0.000000 0.000000 
#    y 0.000000 2.365930 0.000000 
#    z 0.000000 0.000000 3.210580 
# 
# 
# High freq. dielectric constant tensor:
#      x y z
#    x 1.608460 0.000000 0.000000 
#    y 0.000000 1.505870 0.000000 
#    z 0.000000 0.000000 1.603940 
# 
# From -- ./inp_files/73554.got.cif
#   From: 2010.03.12/outbox.cif.g09.slc.cpg/sg65_37_cif.got.tgz:73554.got - 2010.04.10 20:52:16.
