data_PCOD8267754
_publ_section_title
;
Structure prediction by ZEFSAII (Michael W. Deem and Ramdas Pophale) SiO2 
 PCOD8267754
Probable space group: C M M M
;
_chemical_formula_sum "Si O2"
_cell_formula_units_Z 88
_cell_length_a 17.640566
_cell_length_b 29.866353
_cell_length_c 9.546304
_cell_angle_alpha 90.000000
_cell_angle_beta 90.000000
_cell_angle_gamma 90.000000
_cell_volume 5029.559723
_symmetry_space_group_name_H-M "C M M M"
_symmetry_group_IT_number 65
_symmetry_cell_setting 'orthorhombic'
loop_
_space_group_symop_operation_xyz
x,y,z
-x,-y,z
x,-y,-z
-x,y,-z
-x,-y,-z
x,y,-z
-x,y,z
x,-y,z
1/2+x,1/2+y,z
1/2-x,1/2-y,z
1/2+x,1/2-y,-z
1/2-x,1/2+y,-z
1/2-x,1/2-y,-z
1/2+x,1/2+y,-z
1/2-x,1/2+y,z
1/2+x,1/2-y,z
loop_
_atom_site_type_symbol
_atom_site_label
_atom_site_fract_x
_atom_site_fract_y
_atom_site_fract_z
Si Si1 0.912662 0.244107 0.654448
Si Si2 0.142984 0.552071 0.161527
Si Si3 0.196417 0.707648 0.158190
Si Si4 0.000000 0.446756 0.340035
Si Si5 0.586152 0.642494 0.664786
Si Si6 0.776970 0.117778 0.836089
O O1 0.875780 0.247071 0.500000
O O2 0.877428 0.282266 0.751395
O O3 0.901388 0.193870 0.713691
O O4 0.000000 0.255890 0.645182
O O5 0.158154 0.500000 0.189269
O O6 0.074912 0.570497 0.258938
O O7 0.220607 0.577244 0.200486
O O8 0.120293 0.561017 0.000000
O O9 0.250000 0.750000 0.172441
O O10 0.237982 0.663670 0.215290
O O11 0.169570 0.699392 0.000000
O O12 0.000000 0.500000 0.337133
O O13 0.000000 0.428737 0.500000
O O14 0.601340 0.637493 0.500000
O O15 0.500000 0.627549 0.699925
O O16 0.644758 0.611382 0.750461
O O17 0.797061 0.119412 0.000000
#
# Coordination Sequence:
#
# PCOD8267754 Si02
#       6
#    16  16  16   8  16  16
#     4   9  18  32  48  66  91 126 166 200 230 276
#     4   9  18  34  55  75  98 130 165 201 242 288
#     4  10  19  31  46  68  98 127 155 194 241 285
#     4   9  17  31  53  79 103 127 161 203 243 287
#     4   9  18  32  50  72  97 127 164 202 239 284
#     4  10  20  33  50  74  99 125 162 202 242 290
#
# _framework density 17.496561
#
# number of rings (size 3 to 8) (size 9 to 14) (size 15 to 20)
#    0.000    2.636    1.818    1.364    0.000    3.636 
#    1.636    1.818    0.000    0.545    0.000    3.818 
#    0.000    0.000    0.000    0.000    0.000    0.000 
#
# Total GULP energy -545531.147659 kJ/mol
# GULP energy per Si atom -12398.435174 kJ/mol
# Density = 1.745674 g / cm^3
# Si number density = 17.496561 Si / 1000 Ang^3
#
#
#
# Elastic Constant Matrix: (Units=GPa)
#
#
# Indices 1 2 3 4 5 6 
#
# 1 130.1816 44.9359 71.7410 0.0000 0.0000 0.0000
# 2 44.9359 54.7988 29.9833 0.0000 0.0000 0.0000
# 3 71.7410 29.9833 80.1144 0.0000 0.0000 0.0000
# 4 0.0000 0.0000 0.0000 16.5482 0.0000 0.0000
# 5 0.0000 0.0000 0.0000 0.0000 38.1745 0.0000
# 6 0.0000 0.0000 0.0000 0.0000 0.0000 28.7027
#
#
#
# Elastic Compliance Matrix: (Units=1/GPa)
#
#
# Indices 1 2 3 4 5 6 
#
# 1 0.017114 -0.007103 -0.012667 0.000000 0.000000 0.000000
# 2 -0.007103 0.025896 -0.003331 0.000000 0.000000 0.000000
# 3 -0.012667 -0.003331 0.025072 0.000000 0.000000 0.000000
# 4 0.000000 0.000000 0.000000 0.060429 0.000000 0.000000
# 5 0.000000 0.000000 0.000000 0.000000 0.026196 0.000000
# 6 0.000000 0.000000 0.000000 0.000000 0.000000 0.034840
#
#
# Mechanical properties :
#
#
# Convention : Reuss Voigt Hill
#
# Bulk Modulus (GPa) = 45.70466 62.04615 53.87540
# Shear Modulus (GPa) = 20.57266 24.58072 22.57669
#
# Velocity S-wave (km/s) = 3.43273 3.75225 3.59604
# Velocity P-wave (km/s) = 6.47227 7.36963 6.93548
#
# Compressibility (1/GPa) = 0.02187961
#
# Stress axis : x y z
#
# Youngs Moduli (GPa) = 58.43227 38.61645 39.88558
#
# Poissons Ratio (x) = 0.27429 0.50522
# Poissons Ratio (y) = 0.41504 0.13286
# Poissons Ratio (z) = 0.74015 0.12863
#
# Static dielectric constant tensor:
#      x y z
#    x 3.220760 0.000000 0.000000 
#    y 0.000000 3.015090 0.000000 
#    z 0.000000 0.000000 3.279950 
# 
# 
# High freq. dielectric constant tensor:
#      x y z
#    x 1.677050 0.000000 0.000000 
#    y 0.000000 1.643000 0.000000 
#    z 0.000000 0.000000 1.674650 
# 
# From -- ./inp_files/9998.got.cif
#   From: 2010.03.12/outbox.cif.g09.slc.cpg/sg65_5_cif.got.tgz:9998.got - 2010.04.10 20:52:16.
