data_PCOD8267285
_publ_section_title
;
Structure prediction by ZEFSAII (Michael W. Deem and Ramdas Pophale) SiO2 
 PCOD8267285
Probable space group: C M M M
;
_chemical_formula_sum "Si O2"
_cell_formula_units_Z 72
_cell_length_a 13.086816
_cell_length_b 22.353885
_cell_length_c 15.508232
_cell_angle_alpha 90.000000
_cell_angle_beta 90.000000
_cell_angle_gamma 90.000000
_cell_volume 4536.796487
_symmetry_space_group_name_H-M "C M M M"
_symmetry_group_IT_number 65
_symmetry_cell_setting 'orthorhombic'
loop_
_space_group_symop_operation_xyz
x,y,z
-x,-y,z
x,-y,-z
-x,y,-z
-x,-y,-z
x,y,-z
-x,y,z
x,-y,z
1/2+x,1/2+y,z
1/2-x,1/2-y,z
1/2+x,1/2-y,-z
1/2-x,1/2+y,-z
1/2-x,1/2-y,-z
1/2+x,1/2+y,-z
1/2-x,1/2+y,z
1/2+x,1/2-y,z
loop_
_atom_site_type_symbol
_atom_site_label
_atom_site_fract_x
_atom_site_fract_y
_atom_site_fract_z
Si Si1 0.121138 0.933348 0.404986
Si Si2 0.881334 0.144583 0.752331
Si Si3 0.710104 0.569679 0.100120
Si Si4 0.887219 0.655472 0.899898
Si Si5 0.250000 0.250000 0.808687
O O1 0.153594 0.909177 0.500000
O O2 0.163794 0.891439 0.329436
O O3 0.000000 0.936025 0.397984
O O4 0.165755 0.000000 0.391666
O O5 0.868898 0.105862 0.839935
O O6 0.816464 0.205284 0.750760
O O7 0.000000 0.160525 0.741686
O O8 0.707467 0.500000 0.124172
O O9 0.823665 0.594918 0.118977
O O10 0.679368 0.580012 0.000000
O O11 0.829137 0.713681 0.866646
O O12 0.000000 0.649365 0.857076
O O13 0.900479 0.665636 0.000000
#
# Coordination Sequence:
#
# PCOD8267285 Si02
#       5
#    16  16  16  16   8
#     4   8  14  26  45  67  87 107 135 171 210 254
#     4  10  19  30  45  63  86 117 145 173 214 256
#     4   9  18  30  43  64  91 113 139 176 214 258
#     4   9  17  29  44  59  79 113 152 185 216 248
#     4  10  19  30  41  60  86 112 146 186 212 246
#
# _framework density 15.870229
#
# number of rings (size 3 to 8) (size 9 to 14) (size 15 to 20)
#    0.000    2.889    0.000    2.333    0.000    3.111 
#    0.000    3.889    0.000    0.000    0.000    0.000 
#    0.000    8.000    0.000   71.333    0.000    6.000 
#
# Total GULP energy -446201.798090 kJ/mol
# GULP energy per Si atom -12394.494391 kJ/mol
# Density = 1.583411 g / cm^3
# Si number density = 15.870229 Si / 1000 Ang^3
#
#
#
# Elastic Constant Matrix: (Units=GPa)
#
#
# Indices 1 2 3 4 5 6 
#
# 1 67.3473 31.3855 25.9518 0.0000 0.0000 0.0000
# 2 31.3855 107.8472 46.0752 0.0000 0.0000 0.0000
# 3 25.9518 46.0752 74.8328 0.0000 0.0000 0.0000
# 4 0.0000 0.0000 0.0000 23.1920 0.0000 0.0000
# 5 0.0000 0.0000 0.0000 0.0000 11.1237 0.0000
# 6 0.0000 0.0000 0.0000 0.0000 0.0000 18.3764
#
#
#
# Elastic Compliance Matrix: (Units=1/GPa)
#
#
# Indices 1 2 3 4 5 6 
#
# 1 0.018063 -0.003502 -0.004108 0.000000 0.000000 0.000000
# 2 -0.003502 0.013261 -0.006950 0.000000 0.000000 0.000000
# 3 -0.004108 -0.006950 0.019067 0.000000 0.000000 0.000000
# 4 0.000000 0.000000 0.000000 0.043118 0.000000 0.000000
# 5 0.000000 0.000000 0.000000 0.000000 0.089898 0.000000
# 6 0.000000 0.000000 0.000000 0.000000 0.000000 0.054418
#
#
# Mechanical properties :
#
#
# Convention : Reuss Voigt Hill
#
# Bulk Modulus (GPa) = 47.01296 50.76135 48.88716
# Shear Modulus (GPa) = 18.24572 20.31274 19.27923
#
# Velocity S-wave (km/s) = 3.39438 3.58149 3.48919
# Velocity P-wave (km/s) = 6.71193 7.01124 6.86322
#
# Compressibility (1/GPa) = 0.02127073
#
# Stress axis : x y z
#
# Youngs Moduli (GPa) = 55.36072 75.41011 52.44564
#
# Poissons Ratio (x) = 0.26405 0.21547
# Poissons Ratio (y) = 0.19385 0.36452
# Poissons Ratio (z) = 0.22744 0.52414
#
# Static dielectric constant tensor:
#      x y z
#    x 2.965450 0.000000 0.000000 
#    y 0.000000 3.109920 0.000000 
#    z 0.000000 0.000000 3.074940 
# 
# 
# High freq. dielectric constant tensor:
#      x y z
#    x 1.588250 0.000000 0.000000 
#    y 0.000000 1.613130 0.000000 
#    z 0.000000 0.000000 1.596090 
# 
# From -- ./inp_files/40038.got.cif
#   From: 2010.03.12/outbox.cif.g09.slc.cpg/sg65_21_cif.got.tgz:40038.got - 2010.04.10 20:52:16.
