data_PCOD8267936
_publ_section_title
;
Structure prediction by ZEFSAII (Michael W. Deem and Ramdas Pophale) SiO2 
 PCOD8267936
Probable space group: C M M M
;
_chemical_formula_sum "Si O2"
_cell_formula_units_Z 104
_cell_length_a 27.655944
_cell_length_b 9.681659
_cell_length_c 22.988655
_cell_angle_alpha 90.000000
_cell_angle_beta 90.000000
_cell_angle_gamma 90.000000
_cell_volume 6155.336955
_symmetry_space_group_name_H-M "C M M M"
_symmetry_group_IT_number 65
_symmetry_cell_setting 'orthorhombic'
loop_
_space_group_symop_operation_xyz
x,y,z
-x,-y,z
x,-y,-z
-x,y,-z
-x,-y,-z
x,y,-z
-x,y,z
x,-y,z
1/2+x,1/2+y,z
1/2-x,1/2-y,z
1/2+x,1/2-y,-z
1/2-x,1/2+y,-z
1/2-x,1/2-y,-z
1/2+x,1/2+y,-z
1/2-x,1/2+y,z
1/2+x,1/2-y,z
loop_
_atom_site_type_symbol
_atom_site_label
_atom_site_fract_x
_atom_site_fract_y
_atom_site_fract_z
Si Si1 0.444838 0.841418 0.783588
Si Si2 0.798128 0.838860 0.500000
Si Si3 0.944921 0.340241 0.649617
Si Si4 0.861144 0.159887 0.611280
Si Si5 0.136535 0.159610 0.830534
Si Si6 0.204774 0.841216 0.933798
Si Si7 0.297538 0.339751 0.277329
O O1 0.500000 0.819149 0.803192
O O2 0.438321 0.796500 0.716719
O O3 0.411866 0.748234 0.824844
O O4 0.429514 0.000000 0.791534
O O5 0.750000 0.750000 0.500000
O O6 0.828996 0.798777 0.443689
O O7 0.783963 0.000000 0.500000
O O8 0.931309 0.500000 0.641220
O O9 0.910255 0.248217 0.609527
O O10 0.000000 0.313407 0.629951
O O11 0.831820 0.197347 0.669029
O O12 0.875946 0.000000 0.609489
O O13 0.159066 0.192966 0.893436
O O14 0.175260 0.201576 0.781648
O O15 0.122096 0.000000 0.823986
O O16 0.250000 0.750000 0.913767
O O17 0.220513 0.000000 0.926279
O O18 0.189660 0.807425 0.000000
O O19 0.282608 0.500000 0.277870
O O20 0.250000 0.250000 0.282881
#
# Coordination Sequence:
#
# PCOD8267936 Si02
#       7
#    16   8  16  16  16  16  16
#     4   9  18  32  50  74 102 129 160 200 247 298
#     4  10  22  38  55  74  99 133 172 207 241 290
#     4   9  18  33  53  77 102 128 161 201 247 299
#     4  10  20  35  52  73 100 130 165 204 244 291
#     4  10  19  31  48  73 101 127 162 203 245 293
#     4   9  18  32  49  70  99 134 169 204 241 286
#     4  10  20  31  45  69  98 125 157 199 243 287
#
# _framework density 16.895907000000001
#
# number of rings (size 3 to 8) (size 9 to 14) (size 15 to 20)
#    0.000    2.462    1.538    1.846    0.000    3.077 
#    0.000    1.923    0.000    2.769    0.000    3.231 
#    0.000    0.000    0.000    0.000    0.000    0.000 
#
# Total GULP energy -644945.091792 kJ/mol
# GULP energy per Si atom -12402.790227 kJ/mol
# Density = 1.685745 g / cm^3
# Si number density = 16.895907 Si / 1000 Ang^3
#
#
#
# Elastic Constant Matrix: (Units=GPa)
#
#
# Indices 1 2 3 4 5 6 
#
# 1 119.8258 72.9835 49.2073 0.0000 0.0000 0.0000
# 2 72.9835 73.4094 39.9854 0.0000 0.0000 0.0000
# 3 49.2073 39.9854 83.4926 0.0000 0.0000 0.0000
# 4 0.0000 0.0000 0.0000 15.7850 0.0000 0.0000
# 5 0.0000 0.0000 0.0000 0.0000 24.7093 0.0000
# 6 0.0000 0.0000 0.0000 0.0000 0.0000 41.7769
#
#
#
# Elastic Compliance Matrix: (Units=1/GPa)
#
#
# Indices 1 2 3 4 5 6 
#
# 1 0.021826 -0.019878 -0.003344 0.000000 0.000000 0.000000
# 2 -0.019878 0.036534 -0.005781 0.000000 0.000000 0.000000
# 3 -0.003344 -0.005781 0.016716 0.000000 0.000000 0.000000
# 4 0.000000 0.000000 0.000000 0.063351 0.000000 0.000000
# 5 0.000000 0.000000 0.000000 0.000000 0.040471 0.000000
# 6 0.000000 0.000000 0.000000 0.000000 0.000000 0.023937
#
#
# Mechanical properties :
#
#
# Convention : Reuss Voigt Hill
#
# Bulk Modulus (GPa) = 58.57991 66.78669 62.68330
# Shear Modulus (GPa) = 18.75965 24.09101 21.42533
#
# Velocity S-wave (km/s) = 3.33574 3.78014 3.56487
# Velocity P-wave (km/s) = 7.04149 7.65942 7.35695
#
# Compressibility (1/GPa) = 0.01707070
#
# Stress axis : x y z
#
# Youngs Moduli (GPa) = 45.81753 27.37199 59.82195
#
# Poissons Ratio (x) = 0.54410 0.20002
# Poissons Ratio (y) = 0.91076 0.34583
# Poissons Ratio (z) = 0.15319 0.15824
#
# Static dielectric constant tensor:
#      x y z
#    x 3.037850 0.000000 0.000000 
#    y 0.000000 3.137620 0.000000 
#    z 0.000000 0.000000 3.169390 
# 
# 
# High freq. dielectric constant tensor:
#      x y z
#    x 1.647880 0.000000 0.000000 
#    y 0.000000 1.652510 0.000000 
#    z 0.000000 0.000000 1.641560 
# 
# From -- ./inp_files/71847.got.cif
#   From: 2010.03.12/outbox.cif.g09.slc.cpg/sg65_36_cif.got.tgz:71847.got - 2010.04.10 20:52:16.
