data_PCOD8267061
_publ_section_title
;
Structure prediction by ZEFSAII (Michael W. Deem and Ramdas Pophale) SiO2 
 PCOD8267061
Probable space group: C M M M
;
_chemical_formula_sum "Si O2"
_cell_formula_units_Z 104
_cell_length_a 26.999482
_cell_length_b 8.928402
_cell_length_c 26.158802
_cell_angle_alpha 90.000000
_cell_angle_beta 90.000000
_cell_angle_gamma 90.000000
_cell_volume 6305.899120
_symmetry_space_group_name_H-M "C M M M"
_symmetry_group_IT_number 65
_symmetry_cell_setting 'orthorhombic'
loop_
_space_group_symop_operation_xyz
x,y,z
-x,-y,z
x,-y,-z
-x,y,-z
-x,-y,-z
x,y,-z
-x,y,z
x,-y,z
1/2+x,1/2+y,z
1/2-x,1/2-y,z
1/2+x,1/2-y,-z
1/2-x,1/2+y,-z
1/2-x,1/2-y,-z
1/2+x,1/2+y,-z
1/2-x,1/2+y,z
1/2+x,1/2-y,z
loop_
_atom_site_type_symbol
_atom_site_label
_atom_site_fract_x
_atom_site_fract_y
_atom_site_fract_z
Si Si1 0.058625 0.329358 0.156051
Si Si2 0.196283 0.177519 0.500000
Si Si3 0.558827 0.668345 0.056104
Si Si4 0.443229 0.326034 0.644924
Si Si5 0.892167 0.174202 0.749660
Si Si6 0.302172 0.174525 0.701225
Si Si7 0.645659 0.174680 0.404584
O O1 0.074662 0.500000 0.165001
O O2 0.078680 0.277884 0.100422
O O3 0.083047 0.225405 0.198241
O O4 0.000000 0.309073 0.159641
O O5 0.250000 0.250000 0.500000
O O6 0.166250 0.227948 0.549400
O O7 0.202323 0.000000 0.500000
O O8 0.500000 0.669359 0.056253
O O9 0.577979 0.500000 0.066822
O O10 0.577735 0.722725 0.000000
O O11 0.500000 0.281543 0.635610
O O12 0.433478 0.500000 0.632797
O O13 0.429811 0.289376 0.703523
O O14 0.410396 0.225960 0.606893
O O15 0.840860 0.260720 0.741863
O O16 0.880034 0.000000 0.752789
O O17 0.250000 0.250000 0.711103
O O18 0.319975 0.210120 0.643915
O O19 0.296993 0.000000 0.710954
O O20 0.645969 0.000000 0.419021
#
# Coordination Sequence:
#
# PCOD8267061 Si02
#       7
#    16   8  16  16  16  16  16
#     4  10  19  28  40  62  93 126 159 197 238 278
#     4  12  24  38  57  78 101 126 154 193 237 281
#     4   8  14  25  40  57  80 115 158 198 235 278
#     4   9  18  33  52  73  98 129 163 197 234 276
#     4  10  19  31  48  69  94 125 160 196 233 277
#     4  10  20  34  52  73  97 124 153 188 232 281
#     4  10  21  36  54  77 102 127 157 192 231 278
#
# _framework density 16.492493
#
# number of rings (size 3 to 8) (size 9 to 14) (size 15 to 20)
#    0.000    2.308    0.000    3.923    0.000    5.846 
#    0.000    1.923    0.000    2.308    0.000    0.000 
#    0.000    0.615    0.000    2.308    0.000    3.538 
#
# Total GULP energy -644850.142025 kJ/mol
# GULP energy per Si atom -12400.964270 kJ/mol
# Density = 1.645496 g / cm^3
# Si number density = 16.492493 Si / 1000 Ang^3
#
#
#
# Elastic Constant Matrix: (Units=GPa)
#
#
# Indices 1 2 3 4 5 6 
#
# 1 82.0511 40.3604 35.3687 0.0000 0.0000 0.0000
# 2 40.3604 86.7974 46.9627 0.0000 0.0000 0.0000
# 3 35.3687 46.9627 97.5780 0.0000 0.0000 0.0000
# 4 0.0000 0.0000 0.0000 29.1558 0.0000 0.0000
# 5 0.0000 0.0000 0.0000 0.0000 8.1731 0.0000
# 6 0.0000 0.0000 0.0000 0.0000 0.0000 28.9557
#
#
#
# Elastic Compliance Matrix: (Units=1/GPa)
#
#
# Indices 1 2 3 4 5 6 
#
# 1 0.016462 -0.005985 -0.003087 0.000000 0.000000 0.000000
# 2 -0.005985 0.017753 -0.006375 0.000000 0.000000 0.000000
# 3 -0.003087 -0.006375 0.014435 0.000000 0.000000 0.000000
# 4 0.000000 0.000000 0.000000 0.034299 0.000000 0.000000
# 5 0.000000 0.000000 0.000000 0.000000 0.122352 0.000000
# 6 0.000000 0.000000 0.000000 0.000000 0.000000 0.034536
#
#
# Mechanical properties :
#
#
# Convention : Reuss Voigt Hill
#
# Bulk Modulus (GPa) = 56.31371 56.86779 56.59075
# Shear Modulus (GPa) = 18.07349 22.83923 20.45636
#
# Velocity S-wave (km/s) = 3.31397 3.72536 3.52567
# Velocity P-wave (km/s) = 6.99016 7.28425 7.13872
#
# Compressibility (1/GPa) = 0.01775767
#
# Stress axis : x y z
#
# Youngs Moduli (GPa) = 60.74658 56.32770 69.27507
#
# Poissons Ratio (x) = 0.33710 0.21382
# Poissons Ratio (y) = 0.36355 0.44164
# Poissons Ratio (z) = 0.18750 0.35909
#
# Static dielectric constant tensor:
#      x y z
#    x 2.973190 0.000000 0.000000 
#    y 0.000000 3.237520 0.000000 
#    z 0.000000 0.000000 2.605380 
# 
# 
# High freq. dielectric constant tensor:
#      x y z
#    x 1.607440 0.000000 0.000000 
#    y 0.000000 1.648240 0.000000 
#    z 0.000000 0.000000 1.630900 
# 
# From -- ./inp_files/71777.got.cif
#   From: 2010.03.12/outbox.cif.g09.slc.cpg/sg65_36_cif.got.tgz:71777.got - 2010.04.10 20:52:16.
