data_PCOD8267967
_publ_section_title
;
Structure prediction by ZEFSAII (Michael W. Deem and Ramdas Pophale) SiO2 
 PCOD8267967
Probable space group: C M M M
;
_chemical_formula_sum "Si O2"
_cell_formula_units_Z 80
_cell_length_a 14.862957
_cell_length_b 32.564182
_cell_length_c 9.622437
_cell_angle_alpha 90.000000
_cell_angle_beta 90.000000
_cell_angle_gamma 90.000000
_cell_volume 4657.259862
_symmetry_space_group_name_H-M "C M M M"
_symmetry_group_IT_number 65
_symmetry_cell_setting 'orthorhombic'
loop_
_space_group_symop_operation_xyz
x,y,z
-x,-y,z
x,-y,-z
-x,y,-z
-x,-y,-z
x,y,-z
-x,y,z
x,-y,z
1/2+x,1/2+y,z
1/2-x,1/2-y,z
1/2+x,1/2-y,-z
1/2-x,1/2+y,-z
1/2-x,1/2-y,-z
1/2+x,1/2+y,-z
1/2-x,1/2+y,z
1/2+x,1/2-y,z
loop_
_atom_site_type_symbol
_atom_site_label
_atom_site_fract_x
_atom_site_fract_y
_atom_site_fract_z
Si Si1 0.347387 0.735585 0.158594
Si Si2 0.601092 0.045516 0.664976
Si Si3 0.217899 0.620264 0.662579
Si Si4 0.901275 0.324061 0.156616
Si Si5 0.600107 0.658682 0.659929
O O1 0.250000 0.750000 0.211344
O O2 0.411000 0.775079 0.173274
O O3 0.386066 0.699208 0.250553
O O4 0.342487 0.719567 0.000000
O O5 0.604082 0.044592 0.500000
O O6 0.500000 0.057944 0.713888
O O7 0.675292 0.077838 0.721989
O O8 0.625115 0.000000 0.722443
O O9 0.197197 0.623966 0.500000
O O10 0.170719 0.658467 0.736488
O O11 0.324999 0.623588 0.694116
O O12 0.000000 0.342916 0.186287
O O13 0.869423 0.334834 0.000000
O O14 0.609810 0.672007 0.500000
O O15 0.500000 0.640602 0.689554
#
# Coordination Sequence:
#
# PCOD8267967 Si02
#       5
#    16  16  16  16  16
#     4  10  19  33  51  67  88 122 163 201 234 275
#     4   8  14  26  46  72  97 118 145 184 229 279
#     4  10  19  31  49  70  93 121 156 194 230 275
#     4  10  20  32  46  67  95 123 151 190 238 280
#     4  10  21  34  47  66  94 127 161 199 240 276
#
# _framework density 17.177482000000001
#
# number of rings (size 3 to 8) (size 9 to 14) (size 15 to 20)
#    0.000    2.400    2.000    1.800    0.000    3.600 
#    0.000    0.000    0.000    1.200    0.000    7.000 
#    0.000    0.000    0.000    3.600    0.000    4.200 
#
# Total GULP energy -495733.755907 kJ/mol
# GULP energy per Si atom -12393.343898 kJ/mol
# Density = 1.713839 g / cm^3
# Si number density = 17.177482 Si / 1000 Ang^3
#
#
#
# Elastic Constant Matrix: (Units=GPa)
#
#
# Indices 1 2 3 4 5 6 
#
# 1 142.3188 63.6716 36.6807 0.0000 0.0000 0.0000
# 2 63.6716 91.9263 26.3247 0.0000 0.0000 0.0000
# 3 36.6807 26.3247 35.9159 0.0000 0.0000 0.0000
# 4 0.0000 0.0000 0.0000 1.1486 0.0000 0.0000
# 5 0.0000 0.0000 0.0000 0.0000 17.4830 0.0000
# 6 0.0000 0.0000 0.0000 0.0000 0.0000 26.1941
#
#
#
# Elastic Compliance Matrix: (Units=1/GPa)
#
#
# Indices 1 2 3 4 5 6 
#
# 1 0.011598 -0.005874 -0.007539 0.000000 0.000000 0.000000
# 2 -0.005874 0.016743 -0.006273 0.000000 0.000000 0.000000
# 3 -0.007539 -0.006273 0.040140 0.000000 0.000000 0.000000
# 4 0.000000 0.000000 0.000000 0.870635 0.000000 0.000000
# 5 0.000000 0.000000 0.000000 0.000000 0.057198 0.000000
# 6 0.000000 0.000000 0.000000 0.000000 0.000000 0.038177
#
#
# Mechanical properties :
#
#
# Convention : Reuss Voigt Hill
#
# Bulk Modulus (GPa) = 34.35373 58.16833 46.26103
# Shear Modulus (GPa) = 4.61439 18.53073 11.57256
#
# Velocity S-wave (km/s) = 1.64077 3.28804 2.59840
# Velocity P-wave (km/s) = 4.86130 6.95353 5.99933
#
# Compressibility (1/GPa) = 0.02910892
#
# Stress axis : x y z
#
# Youngs Moduli (GPa) = 86.22547 59.72600 24.91254
#
# Poissons Ratio (x) = 0.35082 0.18782
# Poissons Ratio (y) = 0.50648 0.15628
# Poissons Ratio (z) = 0.65007 0.37466
#
# Static dielectric constant tensor:
#      x y z
#    x 3.539690 0.000000 0.000000 
#    y 0.000000 3.222810 0.000000 
#    z 0.000000 0.000000 2.985080 
# 
# 
# High freq. dielectric constant tensor:
#      x y z
#    x 1.672850 0.000000 0.000000 
#    y 0.000000 1.636710 0.000000 
#    z 0.000000 0.000000 1.639480 
# 
# From -- ./inp_files/24974.got.cif
#   From: 2010.03.12/outbox.cif.g09.slc.cpg/sg65_13_cif.got.tgz:24974.got - 2010.04.10 20:52:16.
