data_PCOD8267230
_publ_section_title
;
Structure prediction by ZEFSAII (Michael W. Deem and Ramdas Pophale) SiO2 
 PCOD8267230
Probable space group: C M M M
;
_chemical_formula_sum "Si O2"
_cell_formula_units_Z 96
_cell_length_a 9.411048
_cell_length_b 16.054604
_cell_length_c 33.681331
_cell_angle_alpha 90.000000
_cell_angle_beta 90.000000
_cell_angle_gamma 90.000000
_cell_volume 5088.934155
_symmetry_space_group_name_H-M "C M M M"
_symmetry_group_IT_number 65
_symmetry_cell_setting 'orthorhombic'
loop_
_space_group_symop_operation_xyz
x,y,z
-x,-y,z
x,-y,-z
-x,y,-z
-x,-y,-z
x,y,-z
-x,y,z
x,-y,z
1/2+x,1/2+y,z
1/2-x,1/2-y,z
1/2+x,1/2-y,-z
1/2-x,1/2+y,-z
1/2-x,1/2-y,-z
1/2+x,1/2+y,-z
1/2-x,1/2+y,z
1/2+x,1/2-y,z
loop_
_atom_site_type_symbol
_atom_site_label
_atom_site_fract_x
_atom_site_fract_y
_atom_site_fract_z
Si Si1 0.833681 0.330324 0.781968
Si Si2 0.333629 0.170562 0.623260
Si Si3 0.165012 0.831054 0.046335
Si Si4 0.665267 0.000000 0.171315
Si Si5 0.832869 0.410480 0.704004
Si Si6 0.168486 0.406889 0.543024
Si Si7 0.831581 0.000000 0.909889
O O1 0.750000 0.250000 0.799372
O O2 0.796506 0.415929 0.804690
O O3 0.779786 0.342919 0.736184
O O4 0.000000 0.310002 0.785160
O O5 0.500000 0.189547 0.620093
O O6 0.250000 0.250000 0.637340
O O7 0.298227 0.105891 0.657933
O O8 0.269503 0.142687 0.580567
O O9 0.250000 0.750000 0.062549
O O10 0.000000 0.814488 0.055068
O O11 0.217500 0.916213 0.067180
O O12 0.195179 0.843531 0.000000
O O13 0.759398 0.000000 0.132454
O O14 0.500000 0.000000 0.159827
O O15 0.763712 0.500000 0.713866
O O16 0.000000 0.416232 0.710312
O O17 0.211493 0.366940 0.500000
O O18 0.230043 0.500000 0.544912
O O19 0.000000 0.410397 0.547041
O O20 0.000000 0.000000 0.904880
#
# Coordination Sequence:
#
# PCOD8267230 Si02
#       7
#    16  16  16   8  16  16   8
#     4  10  20  36  57  78 102 134 172 216 266 316
#     4  10  19  29  45  70  96 122 154 193 240 292
#     4   9  18  34  56  82 112 146 184 226 272 319
#     4  10  22  39  55  75 106 144 181 218 264 320
#     4   9  16  30  53  75  95 123 164 208 248 298
#     4   8  14  26  44  65  88 116 155 198 233 273
#     4  10  21  36  56  80 110 146 184 225 269 317
#
# _framework density 18.864460000000001
#
# number of rings (size 3 to 8) (size 9 to 14) (size 15 to 20)
#    0.000    2.667    0.833    1.750    0.000    5.333 
#    0.000    3.333    0.000    5.500    0.000    1.167 
#    0.000    0.000    0.000    0.000    0.000    0.000 
#
# Total GULP energy -594742.148394 kJ/mol
# GULP energy per Si atom -12390.461425 kJ/mol
# Density = 1.882152 g / cm^3
# Si number density = 18.864460 Si / 1000 Ang^3
#
#
#
# Elastic Constant Matrix: (Units=GPa)
#
#
# Indices 1 2 3 4 5 6 
#
# 1 29.9567 46.3260 35.1946 0.0000 0.0000 0.0000
# 2 46.3260 150.2701 54.5006 0.0000 0.0000 0.0000
# 3 35.1946 54.5006 101.2079 0.0000 0.0000 0.0000
# 4 0.0000 0.0000 0.0000 43.8886 0.0000 0.0000
# 5 0.0000 0.0000 0.0000 0.0000 19.4684 0.0000
# 6 0.0000 0.0000 0.0000 0.0000 0.0000 27.0702
#
#
#
# Elastic Compliance Matrix: (Units=1/GPa)
#
#
# Indices 1 2 3 4 5 6 
#
# 1 0.086796 -0.019649 -0.019602 0.000000 0.000000 0.000000
# 2 -0.019649 0.012718 -0.000016 0.000000 0.000000 0.000000
# 3 -0.019602 -0.000016 0.016706 0.000000 0.000000 0.000000
# 4 0.000000 0.000000 0.000000 0.022785 0.000000 0.000000
# 5 0.000000 0.000000 0.000000 0.000000 0.051365 0.000000
# 6 0.000000 0.000000 0.000000 0.000000 0.000000 0.036941
#
#
# Mechanical properties :
#
#
# Convention : Reuss Voigt Hill
#
# Bulk Modulus (GPa) = 26.53462 61.49745 44.01603
# Shear Modulus (GPa) = 15.70317 27.77967 21.74142
#
# Velocity S-wave (km/s) = 2.88830 3.84160 3.39854
# Velocity P-wave (km/s) = 5.02190 7.23516 6.22764
#
# Compressibility (1/GPa) = 0.03768662
#
# Stress axis : x y z
#
# Youngs Moduli (GPa) = 11.52120 78.62998 59.85953
#
# Poissons Ratio (x) = 1.54497 1.17338
# Poissons Ratio (y) = 0.22638 0.00095
# Poissons Ratio (z) = 0.22584 0.00125
#
# Static dielectric constant tensor:
#      x y z
#    x 3.014870 0.000000 0.000000 
#    y 0.000000 3.496150 0.000000 
#    z 0.000000 0.000000 3.607780 
# 
# 
# High freq. dielectric constant tensor:
#      x y z
#    x 1.684480 0.000000 0.000000 
#    y 0.000000 1.739860 0.000000 
#    z 0.000000 0.000000 1.742580 
# 
# From -- ./inp_files/77343.got.cif
#   From: 2010.03.12/outbox.cif.g09.slc.cpg/sg65_39_cif.got.tgz:77343.got - 2010.04.10 20:52:16.
