data_PCOD8267505
_publ_section_title
;
Structure prediction by ZEFSAII (Michael W. Deem and Ramdas Pophale) SiO2 
 PCOD8267505
Probable space group: C M M M
;
_chemical_formula_sum "Si O2"
_cell_formula_units_Z 112
_cell_length_a 18.694048
_cell_length_b 18.585551
_cell_length_c 18.906186
_cell_angle_alpha 90.000000
_cell_angle_beta 90.000000
_cell_angle_gamma 90.000000
_cell_volume 6568.749808
_symmetry_space_group_name_H-M "C M M M"
_symmetry_group_IT_number 65
_symmetry_cell_setting 'orthorhombic'
loop_
_space_group_symop_operation_xyz
x,y,z
-x,-y,z
x,-y,-z
-x,y,-z
-x,-y,-z
x,y,-z
-x,y,z
x,-y,z
1/2+x,1/2+y,z
1/2-x,1/2-y,z
1/2+x,1/2-y,-z
1/2-x,1/2+y,-z
1/2-x,1/2-y,-z
1/2+x,1/2+y,-z
1/2-x,1/2+y,z
1/2+x,1/2-y,z
loop_
_atom_site_type_symbol
_atom_site_label
_atom_site_fract_x
_atom_site_fract_y
_atom_site_fract_z
Si Si1 0.082271 0.164331 0.794302
Si Si2 0.150921 0.084062 0.080831
Si Si3 0.784214 0.414764 0.422131
Si Si4 0.697410 0.416845 0.710139
Si Si5 0.579574 0.082324 0.660930
Si Si6 0.793186 0.418262 0.155547
Si Si7 0.080614 0.669664 0.196092
O O1 0.097017 0.128533 0.870359
O O2 0.128400 0.128511 0.732180
O O3 0.102821 0.247632 0.797874
O O4 0.000000 0.153251 0.773997
O O5 0.232919 0.104213 0.098719
O O6 0.138503 0.000000 0.096845
O O7 0.134408 0.103716 0.000000
O O8 0.768965 0.381500 0.500000
O O9 0.779740 0.500000 0.425773
O O10 0.725344 0.387489 0.365581
O O11 0.863966 0.392070 0.398024
O O12 0.674277 0.500000 0.706630
O O13 0.761687 0.406913 0.765841
O O14 0.500000 0.088429 0.628035
O O15 0.586509 0.133123 0.728022
O O16 0.595606 0.000000 0.685073
O O17 0.817425 0.500000 0.143463
O O18 0.862784 0.368525 0.143761
O O19 0.000000 0.661636 0.165498
#
# Coordination Sequence:
#
# PCOD8267505 Si02
#       7
#    16  16  16  16  16  16  16
#     4  10  21  34  49  72  99 126 161 205 249 290
#     4   9  19  35  55  78 100 124 156 196 246 299
#     4   9  16  27  45  71 101 127 157 204 253 293
#     4   9  17  30  48  70  94 123 160 199 244 294
#     4   9  16  27  45  69  98 132 167 202 243 288
#     4   9  16  30  51  73  98 127 161 197 234 281
#     4  10  19  30  46  71 100 130 166 201 236 277
#
# _framework density 17.050428
#
# number of rings (size 3 to 8) (size 9 to 14) (size 15 to 20)
#    0.000    2.714    1.429    1.714    0.000    4.857 
#    0.000    3.571    0.000    3.429    0.000    6.000 
#    0.000    0.000    0.000    0.000    0.000    0.000 
#
# Total GULP energy -694258.011556 kJ/mol
# GULP energy per Si atom -12397.464492 kJ/mol
# Density = 1.701162 g / cm^3
# Si number density = 17.050428 Si / 1000 Ang^3
#
#
#
# Elastic Constant Matrix: (Units=GPa)
#
#
# Indices 1 2 3 4 5 6 
#
# 1 99.2417 49.3898 28.1568 0.0000 0.0000 0.0000
# 2 49.3898 75.3301 26.6798 0.0000 0.0000 0.0000
# 3 28.1568 26.6798 86.5968 0.0000 0.0000 0.0000
# 4 0.0000 0.0000 0.0000 8.1334 0.0000 0.0000
# 5 0.0000 0.0000 0.0000 0.0000 19.5397 0.0000
# 6 0.0000 0.0000 0.0000 0.0000 0.0000 24.6493
#
#
#
# Elastic Compliance Matrix: (Units=1/GPa)
#
#
# Indices 1 2 3 4 5 6 
#
# 1 0.015294 -0.009279 -0.002114 0.000000 0.000000 0.000000
# 2 -0.009279 0.020530 -0.003308 0.000000 0.000000 0.000000
# 3 -0.002114 -0.003308 0.013254 0.000000 0.000000 0.000000
# 4 0.000000 0.000000 0.000000 0.122949 0.000000 0.000000
# 5 0.000000 0.000000 0.000000 0.000000 0.051178 0.000000
# 6 0.000000 0.000000 0.000000 0.000000 0.000000 0.040569
#
#
# Mechanical properties :
#
#
# Convention : Reuss Voigt Hill
#
# Bulk Modulus (GPa) = 50.82211 52.18014 51.50113
# Shear Modulus (GPa) = 16.68138 20.92730 18.80434
#
# Velocity S-wave (km/s) = 3.13126 3.50719 3.32455
# Velocity P-wave (km/s) = 6.55322 6.86079 6.70877
#
# Compressibility (1/GPa) = 0.01967647
#
# Stress axis : x y z
#
# Youngs Moduli (GPa) = 65.38533 48.70899 75.44653
#
# Poissons Ratio (x) = 0.45195 0.15950
# Poissons Ratio (y) = 0.60669 0.24959
# Poissons Ratio (z) = 0.13823 0.16114
#
# Static dielectric constant tensor:
#      x y z
#    x 3.278280 0.000000 0.000000 
#    y 0.000000 3.061750 0.000000 
#    z 0.000000 0.000000 3.174280 
# 
# 
# High freq. dielectric constant tensor:
#      x y z
#    x 1.661340 0.000000 0.000000 
#    y 0.000000 1.640310 0.000000 
#    z 0.000000 0.000000 1.634160 
# 
# From -- ./inp_files/63960.got.cif
#   From: 2010.03.12/outbox.cif.g09.slc.cpg/sg65_32_cif.got.tgz:63960.got - 2010.04.10 20:52:16.
