data_PCOD8267639
_publ_section_title
;
Structure prediction by ZEFSAII (Michael W. Deem and Ramdas Pophale) SiO2 
 PCOD8267639
Probable space group: C M M M
;
_chemical_formula_sum "Si O2"
_cell_formula_units_Z 72
_cell_length_a 19.221160
_cell_length_b 21.375847
_cell_length_c 10.477588
_cell_angle_alpha 90.000000
_cell_angle_beta 90.000000
_cell_angle_gamma 90.000000
_cell_volume 4304.911654
_symmetry_space_group_name_H-M "C M M M"
_symmetry_group_IT_number 65
_symmetry_cell_setting 'orthorhombic'
loop_
_space_group_symop_operation_xyz
x,y,z
-x,-y,z
x,-y,-z
-x,y,-z
-x,-y,-z
x,y,-z
-x,y,z
x,-y,z
1/2+x,1/2+y,z
1/2-x,1/2-y,z
1/2+x,1/2-y,-z
1/2-x,1/2+y,-z
1/2-x,1/2-y,-z
1/2+x,1/2+y,-z
1/2-x,1/2+y,z
1/2+x,1/2-y,z
loop_
_atom_site_type_symbol
_atom_site_label
_atom_site_fract_x
_atom_site_fract_y
_atom_site_fract_z
Si Si1 0.077807 0.428723 0.262658
Si Si2 0.327479 0.276334 0.500000
Si Si3 0.782358 0.427693 0.859413
Si Si4 0.818105 0.893283 0.642438
Si Si5 0.919885 0.655614 0.500000
Si Si6 0.077513 0.000000 0.349882
O O1 0.080126 0.500000 0.312788
O O2 0.134311 0.418237 0.151718
O O3 0.100535 0.384416 0.377589
O O4 0.000000 0.412801 0.211642
O O5 0.250000 0.250000 0.500000
O O6 0.341059 0.320583 0.625039
O O7 0.380660 0.220582 0.500000
O O8 0.762272 0.500000 0.846457
O O9 0.743242 0.392052 0.745970
O O10 0.760531 0.402628 0.000000
O O11 0.792406 0.916979 0.500000
O O12 0.880901 0.937385 0.692603
O O13 0.000000 0.672954 0.500000
O O14 0.068305 0.000000 0.500000
O O15 0.000000 0.000000 0.286896
#
# Coordination Sequence:
#
# PCOD8267639 Si02
#       6
#    16   8  16  16   8   8
#     4   9  18  31  48  72 101 135 169 204 251 296
#     4  10  20  30  47  72  99 135 166 201 249 300
#     4  10  19  30  49  75 104 133 164 209 251 293
#     4   9  19  32  51  73 100 134 164 204 260 303
#     4  10  19  32  49  74 103 128 165 215 251 296
#     4   9  16  30  51  77 100 119 162 212 256 306
#
# _framework density 16.725080999999999
#
# number of rings (size 3 to 8) (size 9 to 14) (size 15 to 20)
#    0.667    1.889    1.111    1.667    1.556    2.667 
#    0.000    2.222    0.000    7.333    0.000    0.000 
#    0.000    0.000    0.000    0.000    0.000    0.000 
#
# Total GULP energy -445999.473532 kJ/mol
# GULP energy per Si atom -12388.874265 kJ/mol
# Density = 1.668701 g / cm^3
# Si number density = 16.725081 Si / 1000 Ang^3
#
#
#
# Elastic Constant Matrix: (Units=GPa)
#
#
# Indices 1 2 3 4 5 6 
#
# 1 82.4419 36.8620 38.4344 0.0000 0.0000 0.0000
# 2 36.8620 94.6281 24.8800 0.0000 0.0000 0.0000
# 3 38.4344 24.8800 85.2183 0.0000 0.0000 0.0000
# 4 0.0000 0.0000 0.0000 -7.8160 0.0000 0.0000
# 5 0.0000 0.0000 0.0000 0.0000 13.8493 0.0000
# 6 0.0000 0.0000 0.0000 0.0000 0.0000 26.9879
#
#
#
# Elastic Compliance Matrix: (Units=1/GPa)
#
#
# Indices 1 2 3 4 5 6 
#
# 1 0.017367 -0.005097 -0.006344 0.000000 0.000000 0.000000
# 2 -0.005097 0.012942 -0.001480 0.000000 0.000000 0.000000
# 3 -0.006344 -0.001480 0.015028 0.000000 0.000000 0.000000
# 4 0.000000 0.000000 0.000000 -0.127943 0.000000 0.000000
# 5 0.000000 0.000000 0.000000 0.000000 0.072206 0.000000
# 6 0.000000 0.000000 0.000000 0.000000 0.000000 0.037054
#
#
# Mechanical properties :
#
#
# Convention : Reuss Voigt Hill
#
# Bulk Modulus (GPa) = 51.29659 51.40456 51.35057
# Shear Modulus (GPa) = 84.75467 17.41171 51.08319
#
# Velocity S-wave (km/s) = 7.12637 3.23004 5.53256
# Velocity P-wave (km/s) = 9.92223 6.68675 8.46059
#
# Compressibility (1/GPa) = 0.01949447
#
# Stress axis : x y z
#
# Youngs Moduli (GPa) = 57.58212 77.26631 66.54250
#
# Poissons Ratio (x) = 0.39382 0.42217
# Poissons Ratio (y) = 0.29349 0.09847
# Poissons Ratio (z) = 0.36532 0.11434
#
# Static dielectric constant tensor:
#      x y z
#    x 3.294450 0.000000 0.000000 
#    y 0.000000 3.054170 0.000000 
#    z 0.000000 0.000000 2.888810 
# 
# 
# High freq. dielectric constant tensor:
#      x y z
#    x 1.645980 0.000000 0.000000 
#    y 0.000000 1.627590 0.000000 
#    z 0.000000 0.000000 1.611650 
# 
# From -- ./inp_files/26963.got.cif
#   From: 2010.03.12/outbox.cif.g09.slc.cpg/sg65_14_cif.got.tgz:26963.got - 2010.04.10 20:52:16.
