data_PCOD8267785
_publ_section_title
;
Structure prediction by ZEFSAII (Michael W. Deem and Ramdas Pophale) SiO2 
 PCOD8267785
Probable space group: C M M M
;
_chemical_formula_sum "Si O2"
_cell_formula_units_Z 80
_cell_length_a 25.083980
_cell_length_b 20.692334
_cell_length_c 9.394443
_cell_angle_alpha 90.000000
_cell_angle_beta 90.000000
_cell_angle_gamma 90.000000
_cell_volume 4876.148928
_symmetry_space_group_name_H-M "C M M M"
_symmetry_group_IT_number 65
_symmetry_cell_setting 'orthorhombic'
loop_
_space_group_symop_operation_xyz
x,y,z
-x,-y,z
x,-y,-z
-x,y,-z
-x,-y,-z
x,y,-z
-x,y,z
x,-y,z
1/2+x,1/2+y,z
1/2-x,1/2-y,z
1/2+x,1/2-y,-z
1/2-x,1/2+y,-z
1/2-x,1/2-y,-z
1/2+x,1/2+y,-z
1/2-x,1/2+y,z
1/2+x,1/2-y,z
loop_
_atom_site_type_symbol
_atom_site_label
_atom_site_fract_x
_atom_site_fract_y
_atom_site_fract_z
Si Si1 0.884609 0.730033 0.669338
Si Si2 0.614764 0.621249 0.330910
Si Si3 0.500000 0.619301 0.655902
Si Si4 0.714635 0.188561 0.166802
Si Si5 0.789005 0.927613 0.162363
Si Si6 0.500000 0.227586 0.344200
O O1 0.881415 0.719737 0.500000
O O2 0.873719 0.804495 0.709008
O O3 0.840613 0.687164 0.747678
O O4 0.943530 0.708054 0.729247
O O5 0.616731 0.611426 0.500000
O O6 0.556051 0.599625 0.269519
O O7 0.658290 0.576685 0.257328
O O8 0.500000 0.587289 0.500000
O O9 0.500000 0.695900 0.637690
O O10 0.750000 0.250000 0.212581
O O11 0.744662 0.123203 0.213351
O O12 0.701715 0.190417 0.000000
O O13 0.765639 0.000000 0.177881
O O14 0.805097 0.912139 0.000000
O O15 0.500000 0.195484 0.500000
#
# Coordination Sequence:
#
# PCOD8267785 Si02
#       6
#    16  16   8  16  16   8
#     4   9  16  27  47  72  95 119 147 182 224 268
#     4   9  16  28  47  68  90 117 152 189 222 260
#     4   7  12  24  42  64  89 117 147 183 223 258
#     4  10  19  31  47  67  91 118 151 190 227 264
#     4  10  21  35  47  61  88 124 154 184 228 273
#     4   7  12  24  41  66  97 120 140 174 223 270
#
# _framework density 16.406389999999998
#
# number of rings (size 3 to 8) (size 9 to 14) (size 15 to 20)
#    0.000    3.000    2.000    2.400    0.000    1.600 
#    0.000    1.500    0.000    6.600    0.000    0.700 
#    0.000    5.600    0.000    0.000    0.000    0.000 
#
# Total GULP energy -495548.178046 kJ/mol
# GULP energy per Si atom -12388.704451 kJ/mol
# Density = 1.636905 g / cm^3
# Si number density = 16.406390 Si / 1000 Ang^3
#
#
#
# Elastic Constant Matrix: (Units=GPa)
#
#
# Indices 1 2 3 4 5 6 
#
# 1 145.9792 52.4961 39.4972 0.0000 0.0000 0.0000
# 2 52.4961 73.8107 20.9683 0.0000 0.0000 0.0000
# 3 39.4972 20.9683 29.7322 0.0000 0.0000 0.0000
# 4 0.0000 0.0000 0.0000 15.1219 0.0000 0.0000
# 5 0.0000 0.0000 0.0000 0.0000 1.8054 0.0000
# 6 0.0000 0.0000 0.0000 0.0000 0.0000 16.9013
#
#
#
# Elastic Compliance Matrix: (Units=1/GPa)
#
#
# Indices 1 2 3 4 5 6 
#
# 1 0.012016 -0.005016 -0.012425 0.000000 0.000000 0.000000
# 2 -0.005016 0.019037 -0.006761 0.000000 0.000000 0.000000
# 3 -0.012425 -0.006761 0.054907 0.000000 0.000000 0.000000
# 4 0.000000 0.000000 0.000000 0.066129 0.000000 0.000000
# 5 0.000000 0.000000 0.000000 0.000000 0.553895 0.000000
# 6 0.000000 0.000000 0.000000 0.000000 0.000000 0.059167
#
#
# Mechanical properties :
#
#
# Convention : Reuss Voigt Hill
#
# Bulk Modulus (GPa) = 26.62763 52.82724 39.72743
# Shear Modulus (GPa) = 6.05272 15.86975 10.96124
#
# Velocity S-wave (km/s) = 1.92282 3.11350 2.58758
# Velocity P-wave (km/s) = 4.60380 6.72267 5.76148
#
# Compressibility (1/GPa) = 0.03755498
#
# Stress axis : x y z
#
# Youngs Moduli (GPa) = 83.22256 52.52978 18.21255
#
# Poissons Ratio (x) = 0.26351 0.22628
# Poissons Ratio (y) = 0.41748 0.12314
# Poissons Ratio (z) = 1.03401 0.35518
#
# Static dielectric constant tensor:
#      x y z
#    x 3.391390 0.000000 0.000000 
#    y 0.000000 2.795650 0.000000 
#    z 0.000000 0.000000 2.797980 
# 
# 
# High freq. dielectric constant tensor:
#      x y z
#    x 1.644610 0.000000 0.000000 
#    y 0.000000 1.590940 0.000000 
#    z 0.000000 0.000000 1.603310 
# 
# From -- ./inp_files/12103.got.cif
#   From: 2010.03.12/outbox.cif.g09.slc.cpg/sg65_7_cif.got.tgz:12103.got - 2010.04.10 20:52:16.
