data_PCOD8267378
_publ_section_title
;
Structure prediction by ZEFSAII (Michael W. Deem and Ramdas Pophale) SiO2 
 PCOD8267378
Probable space group: C M M M
;
_chemical_formula_sum "Si O2"
_cell_formula_units_Z 88
_cell_length_a 9.208516
_cell_length_b 27.094430
_cell_length_c 21.429019
_cell_angle_alpha 90.000000
_cell_angle_beta 90.000000
_cell_angle_gamma 90.000000
_cell_volume 5346.529358
_symmetry_space_group_name_H-M "C M M M"
_symmetry_group_IT_number 65
_symmetry_cell_setting 'orthorhombic'
loop_
_space_group_symop_operation_xyz
x,y,z
-x,-y,z
x,-y,-z
-x,y,-z
-x,-y,-z
x,y,-z
-x,y,z
x,-y,z
1/2+x,1/2+y,z
1/2-x,1/2-y,z
1/2+x,1/2-y,-z
1/2-x,1/2+y,-z
1/2-x,1/2-y,-z
1/2+x,1/2+y,-z
1/2-x,1/2+y,z
1/2+x,1/2-y,z
loop_
_atom_site_type_symbol
_atom_site_label
_atom_site_fract_x
_atom_site_fract_y
_atom_site_fract_z
Si Si1 0.668815 0.651131 0.193815
Si Si2 0.328380 0.799467 0.304946
Si Si3 0.672586 0.056195 0.500000
Si Si4 0.666838 0.445417 0.738866
Si Si5 0.331209 0.700140 0.069013
Si Si6 0.170144 0.600894 0.371467
O O1 0.500000 0.663181 0.207276
O O2 0.765644 0.686352 0.237199
O O3 0.706201 0.593992 0.207442
O O4 0.708918 0.659703 0.121322
O O5 0.500000 0.790700 0.298995
O O6 0.250000 0.750000 0.329211
O O7 0.290986 0.842391 0.354955
O O8 0.500000 0.054595 0.500000
O O9 0.729364 0.086503 0.439866
O O10 0.733506 0.000000 0.500000
O O11 0.500000 0.440148 0.719143
O O12 0.701407 0.500000 0.765150
O O13 0.758954 0.436408 0.677138
O O14 0.500000 0.712745 0.070541
O O15 0.250000 0.750000 0.086268
O O16 0.285521 0.680539 0.000000
O O17 0.000000 0.592041 0.366865
#
# Coordination Sequence:
#
# PCOD8267378 Si02
#       6
#    16  16   8  16  16  16
#     4   9  17  29  45  64  87 115 145 177 213 254
#     4  10  19  30  45  65  89 115 144 178 214 253
#     4   9  16  28  48  69  87 109 139 177 218 255
#     4   9  17  29  45  65  89 115 142 175 216 257
#     4   9  17  28  42  61  85 112 141 174 212 253
#     4   9  18  31  47  67  88 112 144 179 213 253
#
# _framework density 16.459275999999999
#
# number of rings (size 3 to 8) (size 9 to 14) (size 15 to 20)
#    0.000    2.818    0.000    1.636    0.000    4.000 
#    0.000    0.909    0.000    2.182    0.000    3.818 
#    0.000    0.000    0.000   13.636    0.000   14.182 
#
# Total GULP energy -545461.200546 kJ/mol
# GULP energy per Si atom -12396.845467 kJ/mol
# Density = 1.642181 g / cm^3
# Si number density = 16.459276 Si / 1000 Ang^3
#
#
#
# Elastic Constant Matrix: (Units=GPa)
#
#
# Indices 1 2 3 4 5 6 
#
# 1 38.7452 36.5060 32.9408 0.0000 0.0000 0.0000
# 2 36.5060 124.4051 75.1555 0.0000 0.0000 0.0000
# 3 32.9408 75.1555 141.2478 0.0000 0.0000 0.0000
# 4 0.0000 0.0000 0.0000 21.0320 0.0000 0.0000
# 5 0.0000 0.0000 0.0000 0.0000 19.6517 0.0000
# 6 0.0000 0.0000 0.0000 0.0000 0.0000 21.3573
#
#
#
# Elastic Compliance Matrix: (Units=1/GPa)
#
#
# Indices 1 2 3 4 5 6 
#
# 1 0.037319 -0.008390 -0.004239 0.000000 0.000000 0.000000
# 2 -0.008390 0.013732 -0.005350 0.000000 0.000000 0.000000
# 3 -0.004239 -0.005350 0.010915 0.000000 0.000000 0.000000
# 4 0.000000 0.000000 0.000000 0.047547 0.000000 0.000000
# 5 0.000000 0.000000 0.000000 0.000000 0.050886 0.000000
# 6 0.000000 0.000000 0.000000 0.000000 0.000000 0.046822
#
#
# Mechanical properties :
#
#
# Convention : Reuss Voigt Hill
#
# Bulk Modulus (GPa) = 38.44992 65.95587 52.20290
# Shear Modulus (GPa) = 19.85314 23.06124 21.45719
#
# Velocity S-wave (km/s) = 3.47680 3.74720 3.61453
# Velocity P-wave (km/s) = 6.28720 7.67341 7.01463
#
# Compressibility (1/GPa) = 0.02600786
#
# Stress axis : x y z
#
# Youngs Moduli (GPa) = 26.79606 72.82049 91.61688
#
# Poissons Ratio (x) = 0.61098 0.38836
# Poissons Ratio (y) = 0.22482 0.49016
# Poissons Ratio (z) = 0.11359 0.38959
#
# Static dielectric constant tensor:
#      x y z
#    x 3.055910 0.000000 0.000000 
#    y 0.000000 3.240730 0.000000 
#    z 0.000000 0.000000 3.243430 
# 
# 
# High freq. dielectric constant tensor:
#      x y z
#    x 1.626970 0.000000 0.000000 
#    y 0.000000 1.630950 0.000000 
#    z 0.000000 0.000000 1.623030 
# 
# From -- ./inp_files/60721.got.cif
#   From: 2010.03.12/outbox.cif.g09.slc.cpg/sg65_31_cif.got.tgz:60721.got - 2010.04.10 20:52:16.
