data_PCOD8267122
_publ_section_title
;
Structure prediction by ZEFSAII (Michael W. Deem and Ramdas Pophale) SiO2 
 PCOD8267122
Probable space group: C M M M
;
_chemical_formula_sum "Si O2"
_cell_formula_units_Z 96
_cell_length_a 16.392640
_cell_length_b 29.934258
_cell_length_c 12.918928
_cell_angle_alpha 90.000000
_cell_angle_beta 90.000000
_cell_angle_gamma 90.000000
_cell_volume 6339.337543
_symmetry_space_group_name_H-M "C M M M"
_symmetry_group_IT_number 65
_symmetry_cell_setting 'orthorhombic'
loop_
_space_group_symop_operation_xyz
x,y,z
-x,-y,z
x,-y,-z
-x,y,-z
-x,-y,-z
x,y,-z
-x,y,z
x,-y,z
1/2+x,1/2+y,z
1/2-x,1/2-y,z
1/2+x,1/2-y,-z
1/2-x,1/2+y,-z
1/2-x,1/2-y,-z
1/2+x,1/2+y,-z
1/2-x,1/2+y,z
1/2+x,1/2-y,z
loop_
_atom_site_type_symbol
_atom_site_label
_atom_site_fract_x
_atom_site_fract_y
_atom_site_fract_z
Si Si1 0.360225 0.914838 0.245784
Si Si2 0.906114 0.669138 0.884873
Si Si3 0.409162 0.307288 0.378810
Si Si4 0.000000 0.550818 0.378639
Si Si5 0.831486 0.723915 0.287492
Si Si6 0.901711 0.500000 0.122356
Si Si7 0.749860 0.858521 0.620669
O O1 0.395822 0.877823 0.170601
O O2 0.420809 0.923371 0.340418
O O3 0.354433 0.958389 0.173789
O O4 0.275971 0.899297 0.302469
O O5 0.860546 0.707966 0.824134
O O6 0.000000 0.681981 0.889692
O O7 0.868821 0.666021 0.000000
O O8 0.399123 0.301988 0.500000
O O9 0.500000 0.324559 0.348235
O O10 0.397924 0.257512 0.334345
O O11 0.340213 0.342660 0.341877
O O12 0.000000 0.500000 0.336379
O O13 0.000000 0.551893 0.500000
O O14 0.750000 0.750000 0.266017
O O15 0.814620 0.682212 0.364740
O O16 0.000000 0.500000 0.144179
O O17 0.885627 0.500000 0.000000
O O18 0.749489 0.873311 0.500000
#
# Coordination Sequence:
#
# PCOD8267122 Si02
#       7
#    16  16  16   8  16   8  16
#     4  11  18  32  44  63  89 116 149 177 215 257
#     4  10  19  29  42  58  81 113 149 185 217 252
#     4   9  16  28  46  66  87 116 151 184 220 266
#     4  11  20  30  44  64  90 118 144 174 208 262
#     4   9  17  28  43  61  86 115 146 185 224 262
#     4  11  20  32  50  68  89 120 153 183 214 255
#     4   9  18  29  43  64  92 120 146 181 223 263
#
# _framework density 15.143537999999999
#
# number of rings (size 3 to 8) (size 9 to 14) (size 15 to 20)
#    0.000    2.167    2.500    2.000    0.000    3.667 
#    0.000    0.000    0.000    0.000    0.000    0.583 
#    0.000    3.333    0.000    0.000    0.000    0.000 
#
# Total GULP energy -594917.700919 kJ/mol
# GULP energy per Si atom -12394.118769 kJ/mol
# Density = 1.510907 g / cm^3
# Si number density = 15.143538 Si / 1000 Ang^3
#
#
#
# Elastic Constant Matrix: (Units=GPa)
#
#
# Indices 1 2 3 4 5 6 
#
# 1 67.4575 37.1578 37.9153 0.0000 0.0000 0.0000
# 2 37.1578 79.5593 38.8185 0.0000 0.0000 0.0000
# 3 37.9153 38.8185 83.6644 0.0000 0.0000 0.0000
# 4 0.0000 0.0000 0.0000 40.0403 0.0000 0.0000
# 5 0.0000 0.0000 0.0000 0.0000 20.7203 0.0000
# 6 0.0000 0.0000 0.0000 0.0000 0.0000 22.8245
#
#
#
# Elastic Compliance Matrix: (Units=1/GPa)
#
#
# Indices 1 2 3 4 5 6 
#
# 1 0.022699 -0.007216 -0.006939 0.000000 0.000000 0.000000
# 2 -0.007216 0.018541 -0.005333 0.000000 0.000000 0.000000
# 3 -0.006939 -0.005333 0.017571 0.000000 0.000000 0.000000
# 4 0.000000 0.000000 0.000000 0.024975 0.000000 0.000000
# 5 0.000000 0.000000 0.000000 0.000000 0.048262 0.000000
# 6 0.000000 0.000000 0.000000 0.000000 0.000000 0.043813
#
#
# Mechanical properties :
#
#
# Convention : Reuss Voigt Hill
#
# Bulk Modulus (GPa) = 50.41105 50.94049 50.67577
# Shear Modulus (GPa) = 22.57872 24.50300 23.54086
#
# Velocity S-wave (km/s) = 3.86551 4.02686 3.94701
# Velocity P-wave (km/s) = 7.29959 7.43857 7.36941
#
# Compressibility (1/GPa) = 0.01983692
#
# Stress axis : x y z
#
# Youngs Moduli (GPa) = 44.05499 53.93372 56.91112
#
# Poissons Ratio (x) = 0.38918 0.39489
# Poissons Ratio (y) = 0.31790 0.30349
# Poissons Ratio (z) = 0.30569 0.28761
#
# Static dielectric constant tensor:
#      x y z
#    x 2.812780 0.000000 0.000000 
#    y 0.000000 2.977450 0.000000 
#    z 0.000000 0.000000 2.979370 
# 
# 
# High freq. dielectric constant tensor:
#      x y z
#    x 1.559500 0.000000 0.000000 
#    y 0.000000 1.570030 0.000000 
#    z 0.000000 0.000000 1.586190 
# 
# From -- ./inp_files/40997.got.cif
#   From: 2010.03.12/outbox.cif.g09.slc.cpg/sg65_21_cif.got.tgz:40997.got - 2010.04.10 20:52:16.
