data_PCOD8267227
_publ_section_title
;
Structure prediction by ZEFSAII (Michael W. Deem and Ramdas Pophale) SiO2 
 PCOD8267227
Probable space group: C M M M
;
_chemical_formula_sum "Si O2"
_cell_formula_units_Z 64
_cell_length_a 8.814586
_cell_length_b 23.490375
_cell_length_c 18.239429
_cell_angle_alpha 90.000000
_cell_angle_beta 90.000000
_cell_angle_gamma 90.000000
_cell_volume 3776.618424
_symmetry_space_group_name_H-M "C M M M"
_symmetry_group_IT_number 65
_symmetry_cell_setting 'orthorhombic'
loop_
_space_group_symop_operation_xyz
x,y,z
-x,-y,z
x,-y,-z
-x,y,-z
-x,-y,-z
x,y,-z
-x,y,z
x,-y,z
1/2+x,1/2+y,z
1/2-x,1/2-y,z
1/2+x,1/2-y,-z
1/2-x,1/2+y,-z
1/2-x,1/2-y,-z
1/2+x,1/2+y,-z
1/2-x,1/2+y,z
1/2+x,1/2-y,z
loop_
_atom_site_type_symbol
_atom_site_label
_atom_site_fract_x
_atom_site_fract_y
_atom_site_fract_z
Si Si1 0.321187 0.500000 0.417846
Si Si2 0.822256 0.311822 0.079374
Si Si3 0.821822 0.811974 0.776705
Si Si4 0.821605 0.688612 0.500000
Si Si5 0.178028 0.121737 0.631619
O O1 0.500000 0.500000 0.426226
O O2 0.249549 0.500000 0.500000
O O3 0.269838 0.555846 0.372917
O O4 0.750000 0.250000 0.075895
O O5 0.743572 0.342228 0.149115
O O6 0.000000 0.306596 0.094431
O O7 0.792236 0.342385 0.000000
O O8 0.750000 0.750000 0.762320
O O9 0.778997 0.854395 0.711199
O O10 0.000000 0.803859 0.784543
O O11 0.750000 0.750000 0.500000
O O12 0.770983 0.656096 0.572161
O O13 0.000000 0.695154 0.500000
O O14 0.000000 0.128822 0.614794
#
# Coordination Sequence:
#
# PCOD8267227 Si02
#       5
#     8  16  16   8  16
#     4   9  16  32  58  74  89 122 161 203 244 288
#     4   9  16  26  42  64  92 126 159 189 227 278
#     4  10  19  29  45  69  98 127 157 193 234 283
#     4  12  24  35  50  71  97 128 160 196 239 288
#     4  10  20  35  53  73  95 125 163 199 242 289
#
# _framework density 16.946376999999998
#
# number of rings (size 3 to 8) (size 9 to 14) (size 15 to 20)
#    0.000    2.125    1.250    4.875    0.000    5.500 
#    0.000    1.250    0.000    0.000    0.000    0.875 
#    0.000    7.000    0.000    0.000    0.000    0.000 
#
# Total GULP energy -396578.577544 kJ/mol
# GULP energy per Si atom -12393.080548 kJ/mol
# Density = 1.690781 g / cm^3
# Si number density = 16.946377 Si / 1000 Ang^3
#
#
#
# Elastic Constant Matrix: (Units=GPa)
#
#
# Indices 1 2 3 4 5 6 
#
# 1 89.9596 39.1269 67.1072 0.0000 0.0000 0.0000
# 2 39.1269 108.2500 72.5839 0.0000 0.0000 0.0000
# 3 67.1072 72.5839 181.9959 0.0000 0.0000 0.0000
# 4 0.0000 0.0000 0.0000 -131.5995 0.0000 0.0000
# 5 0.0000 0.0000 0.0000 0.0000 33.0433 0.0000
# 6 0.0000 0.0000 0.0000 0.0000 0.0000 14.6539
#
#
#
# Elastic Compliance Matrix: (Units=1/GPa)
#
#
# Indices 1 2 3 4 5 6 
#
# 1 0.015801 -0.002463 -0.004844 0.000000 0.000000 0.000000
# 2 -0.002463 0.012994 -0.004274 0.000000 0.000000 0.000000
# 3 -0.004844 -0.004274 0.008985 0.000000 0.000000 0.000000
# 4 0.000000 0.000000 0.000000 -0.007599 0.000000 0.000000
# 5 0.000000 0.000000 0.000000 0.000000 0.030263 0.000000
# 6 0.000000 0.000000 0.000000 0.000000 0.000000 0.068241
#
#
# Mechanical properties :
#
#
# Convention : Reuss Voigt Hill
#
# Bulk Modulus (GPa) = 68.40947 81.98238 75.19593
# Shear Modulus (GPa) = 31.90388 -3.35462 14.27463
#
# Velocity S-wave (km/s) = 4.34364 -1.40849 2.90546
# Velocity P-wave (km/s) = 8.10013 6.77033 7.46490
#
# Compressibility (1/GPa) = 0.01461786
#
# Stress axis : x y z
#
# Youngs Moduli (GPa) = 63.28782 76.95823 111.29353
#
# Poissons Ratio (x) = 0.18957 0.53908
# Poissons Ratio (y) = 0.15590 0.47567
# Poissons Ratio (z) = 0.30655 0.32892
#
# Static dielectric constant tensor:
#      x y z
#    x 3.178030 0.000000 0.000000 
#    y 0.000000 2.923610 0.000000 
#    z 0.000000 0.000000 3.867110 
# 
# 
# High freq. dielectric constant tensor:
#      x y z
#    x 1.654380 0.000000 0.000000 
#    y 0.000000 1.609450 0.000000 
#    z 0.000000 0.000000 1.672860 
# 
# From -- ./inp_files/55335.got.cif
#   From: 2010.03.12/outbox.cif.g09.slc.cpg/sg65_28_cif.got.tgz:55335.got - 2010.04.10 20:52:16.
