data_PCOD8267947
_publ_section_title
;
Structure prediction by ZEFSAII (Michael W. Deem and Ramdas Pophale) SiO2 
 PCOD8267947
Probable space group: C M M M
;
_chemical_formula_sum "Si O2"
_cell_formula_units_Z 104
_cell_length_a 30.607115
_cell_length_b 19.902072
_cell_length_c 9.545473
_cell_angle_alpha 90.000000
_cell_angle_beta 90.000000
_cell_angle_gamma 90.000000
_cell_volume 5814.577212
_symmetry_space_group_name_H-M "C M M M"
_symmetry_group_IT_number 65
_symmetry_cell_setting 'orthorhombic'
loop_
_space_group_symop_operation_xyz
x,y,z
-x,-y,z
x,-y,-z
-x,y,-z
-x,-y,-z
x,y,-z
-x,y,z
x,-y,z
1/2+x,1/2+y,z
1/2-x,1/2-y,z
1/2+x,1/2-y,-z
1/2-x,1/2+y,-z
1/2-x,1/2-y,-z
1/2+x,1/2+y,-z
1/2-x,1/2+y,z
1/2+x,1/2-y,z
loop_
_atom_site_type_symbol
_atom_site_label
_atom_site_fract_x
_atom_site_fract_y
_atom_site_fract_z
Si Si1 0.551235 0.379950 0.843958
Si Si2 0.207445 0.793611 0.664630
Si Si3 0.363544 0.813791 0.657929
Si Si4 0.548920 0.744699 0.343034
Si Si5 0.552301 0.500000 0.657950
Si Si6 0.275842 0.424022 0.835442
Si Si7 0.675155 0.075606 0.842466
O O1 0.500000 0.392559 0.856801
O O2 0.561321 0.309272 0.773548
O O3 0.571257 0.436443 0.742625
O O4 0.572241 0.382917 0.000000
O O5 0.209549 0.810159 0.500000
O O6 0.250000 0.750000 0.710651
O O7 0.164579 0.750787 0.706588
O O8 0.201841 0.864424 0.746416
O O9 0.349697 0.830356 0.500000
O O10 0.415445 0.802733 0.671802
O O11 0.354802 0.879076 0.747035
O O12 0.551346 0.712731 0.500000
O O13 0.500000 0.773500 0.316731
O O14 0.500000 0.500000 0.651756
O O15 0.571190 0.500000 0.500000
O O16 0.292964 0.500000 0.797583
O O17 0.225141 0.420365 0.795308
O O18 0.283453 0.410693 0.000000
O O19 0.657702 0.000000 0.828727
O O20 0.670496 0.102001 0.000000
#
# Coordination Sequence:
#
# PCOD8267947 Si02
#       7
#    16  16  16  16   8  16  16
#     4   9  16  26  42  65  90 114 146 193 245 293
#     4  10  19  31  48  75 108 135 162 201 249 300
#     4  10  20  33  51  76 103 131 167 207 248 298
#     4   9  18  33  51  69  92 124 164 209 253 297
#     4   9  15  23  39  63  89 117 149 187 239 299
#     4   9  18  32  50  73 102 137 174 206 239 288
#     4   9  18  32  50  75 105 134 166 203 243 291
#
# _framework density 17.886081000000001
#
# number of rings (size 3 to 8) (size 9 to 14) (size 15 to 20)
#    0.000    2.692    1.538    1.615    0.000    4.923 
#    0.000    1.538    1.692    0.462    0.000    3.231 
#    0.000    0.000    0.000    0.000    0.000    0.000 
#
# Total GULP energy -644521.208768 kJ/mol
# GULP energy per Si atom -12394.638630 kJ/mol
# Density = 1.784537 g / cm^3
# Si number density = 17.886081 Si / 1000 Ang^3
#
#
#
# Elastic Constant Matrix: (Units=GPa)
#
#
# Indices 1 2 3 4 5 6 
#
# 1 61.4895 29.2836 22.4925 0.0000 0.0000 0.0000
# 2 29.2836 90.1431 49.1321 0.0000 0.0000 0.0000
# 3 22.4925 49.1321 94.2996 0.0000 0.0000 0.0000
# 4 0.0000 0.0000 0.0000 36.7954 0.0000 0.0000
# 5 0.0000 0.0000 0.0000 0.0000 15.5240 0.0000
# 6 0.0000 0.0000 0.0000 0.0000 0.0000 16.3323
#
#
#
# Elastic Compliance Matrix: (Units=1/GPa)
#
#
# Indices 1 2 3 4 5 6 
#
# 1 0.019476 -0.005300 -0.001884 0.000000 0.000000 0.000000
# 2 -0.005300 0.016936 -0.007560 0.000000 0.000000 0.000000
# 3 -0.001884 -0.007560 0.014993 0.000000 0.000000 0.000000
# 4 0.000000 0.000000 0.000000 0.027177 0.000000 0.000000
# 5 0.000000 0.000000 0.000000 0.000000 0.064416 0.000000
# 6 0.000000 0.000000 0.000000 0.000000 0.000000 0.061229
#
#
# Mechanical properties :
#
#
# Convention : Reuss Voigt Hill
#
# Bulk Modulus (GPa) = 45.62687 49.74983 47.68835
# Shear Modulus (GPa) = 20.74519 23.39860 22.07189
#
# Velocity S-wave (km/s) = 3.40935 3.62083 3.51668
# Velocity P-wave (km/s) = 6.40807 6.73467 6.57340
#
# Compressibility (1/GPa) = 0.02191691
#
# Stress axis : x y z
#
# Youngs Moduli (GPa) = 51.34472 59.04724 66.69953
#
# Poissons Ratio (x) = 0.31296 0.12566
# Poissons Ratio (y) = 0.27213 0.50422
# Poissons Ratio (z) = 0.09673 0.44637
#
# Static dielectric constant tensor:
#      x y z
#    x 3.055950 0.000000 0.000000 
#    y 0.000000 3.196640 0.000000 
#    z 0.000000 0.000000 3.424100 
# 
# 
# High freq. dielectric constant tensor:
#      x y z
#    x 1.659590 0.000000 0.000000 
#    y 0.000000 1.679760 0.000000 
#    z 0.000000 0.000000 1.697920 
# 
# From -- ./inp_files/16464.got.cif
#   From: 2010.03.12/outbox.cif.g09.slc.cpg/sg65_9_cif.got.tgz:16464.got - 2010.04.10 20:52:16.
