data_PCOD8267453
_publ_section_title
;
Structure prediction by ZEFSAII (Michael W. Deem and Ramdas Pophale) SiO2 
 PCOD8267453
Probable space group: C M M M
;
_chemical_formula_sum "Si O2"
_cell_formula_units_Z 72
_cell_length_a 35.269298
_cell_length_b 14.594317
_cell_length_c 8.933409
_cell_angle_alpha 90.000000
_cell_angle_beta 90.000000
_cell_angle_gamma 90.000000
_cell_volume 4598.305365
_symmetry_space_group_name_H-M "C M M M"
_symmetry_group_IT_number 65
_symmetry_cell_setting 'orthorhombic'
loop_
_space_group_symop_operation_xyz
x,y,z
-x,-y,z
x,-y,-z
-x,y,-z
-x,-y,-z
x,y,-z
-x,y,z
x,-y,z
1/2+x,1/2+y,z
1/2-x,1/2-y,z
1/2+x,1/2-y,-z
1/2-x,1/2+y,-z
1/2-x,1/2-y,-z
1/2+x,1/2+y,-z
1/2-x,1/2+y,z
1/2+x,1/2-y,z
loop_
_atom_site_type_symbol
_atom_site_label
_atom_site_fract_x
_atom_site_fract_y
_atom_site_fract_z
Si Si1 0.500000 0.891478 0.331819
Si Si2 0.788682 0.199148 0.178052
Si Si3 0.769959 0.000000 0.174848
Si Si4 0.923316 0.606054 0.823062
Si Si5 0.648058 0.182813 0.672133
Si Si6 0.305923 0.000000 0.334323
O O1 0.500000 0.850857 0.500000
O O2 0.462894 0.857796 0.243781
O O3 0.500000 0.000000 0.337264
O O4 0.750000 0.250000 0.231420
O O5 0.825854 0.240620 0.252712
O O6 0.788160 0.093873 0.237175
O O7 0.792247 0.206558 0.000000
O O8 0.725602 0.000000 0.208300
O O9 0.774856 0.000000 0.000000
O O10 0.915688 0.500000 0.776872
O O11 0.891708 0.674047 0.757203
O O12 0.924513 0.616404 0.000000
O O13 0.640773 0.209022 0.500000
O O14 0.668230 0.086706 0.690067
O O15 0.287314 0.000000 0.500000
#
# Coordination Sequence:
#
# PCOD8267453 Si02
#       6
#     8  16   8  16  16   8
#     4   9  17  29  45  65  93 126 157 190 231 277
#     4  10  20  33  49  68  90 119 157 198 240 285
#     4  10  20  34  50  66  89 120 155 198 244 286
#     4  10  19  30  46  67  93 125 160 195 231 276
#     4  11  21  32  46  67  94 124 159 198 238 279
#     4  10  20  30  44  65  91 120 155 197 239 280
#
# _framework density 15.657943
#
# number of rings (size 3 to 8) (size 9 to 14) (size 15 to 20)
#    0.000    1.889    3.333    1.667    0.000    4.444 
#    0.000    0.000    0.000    0.000    0.000    0.000 
#    0.000    0.889    0.000    9.556    0.000    4.222 
#
# Total GULP energy -446346.796206 kJ/mol
# GULP energy per Si atom -12398.522117 kJ/mol
# Density = 1.562230 g / cm^3
# Si number density = 15.657943 Si / 1000 Ang^3
#
#
#
# Elastic Constant Matrix: (Units=GPa)
#
#
# Indices 1 2 3 4 5 6 
#
# 1 133.5919 49.6221 51.7887 0.0000 0.0000 0.0000
# 2 49.6221 91.5897 34.8700 0.0000 0.0000 0.0000
# 3 51.7887 34.8700 60.0819 0.0000 0.0000 0.0000
# 4 0.0000 0.0000 0.0000 48.5653 0.0000 0.0000
# 5 0.0000 0.0000 0.0000 0.0000 30.5548 0.0000
# 6 0.0000 0.0000 0.0000 0.0000 0.0000 32.5800
#
#
#
# Elastic Compliance Matrix: (Units=1/GPa)
#
#
# Indices 1 2 3 4 5 6 
#
# 1 0.011964 -0.003281 -0.008408 0.000000 0.000000 0.000000
# 2 -0.003281 0.014915 -0.005828 0.000000 0.000000 0.000000
# 3 -0.008408 -0.005828 0.027274 0.000000 0.000000 0.000000
# 4 0.000000 0.000000 0.000000 0.020591 0.000000 0.000000
# 5 0.000000 0.000000 0.000000 0.000000 0.032728 0.000000
# 6 0.000000 0.000000 0.000000 0.000000 0.000000 0.030694
#
#
# Mechanical properties :
#
#
# Convention : Reuss Voigt Hill
#
# Bulk Modulus (GPa) = 52.30645 61.98057 57.14351
# Shear Modulus (GPa) = 27.84397 32.27220 30.05808
#
# Velocity S-wave (km/s) = 4.22152 4.54483 4.38616
# Velocity P-wave (km/s) = 7.56570 8.19821 7.88830
#
# Compressibility (1/GPa) = 0.01911810
#
# Stress axis : x y z
#
# Youngs Moduli (GPa) = 83.58667 67.04858 36.66457
#
# Poissons Ratio (x) = 0.21995 0.30829
# Poissons Ratio (y) = 0.27421 0.21369
# Poissons Ratio (z) = 0.70283 0.39078
#
# Static dielectric constant tensor:
#      x y z
#    x 2.977920 0.000000 0.000000 
#    y 0.000000 2.991130 0.000000 
#    z 0.000000 0.000000 3.068470 
# 
# 
# High freq. dielectric constant tensor:
#      x y z
#    x 1.595790 0.000000 0.000000 
#    y 0.000000 1.564660 0.000000 
#    z 0.000000 0.000000 1.610770 
# 
# From -- ./inp_files/7410.got.cif
#   From: 2010.03.12/outbox.cif.g09.slc.cpg/sg65_4_cif.got.tgz:7410.got - 2010.04.10 20:52:16.
