data_PCOD8267597
_publ_section_title
;
Structure prediction by ZEFSAII (Michael W. Deem and Ramdas Pophale) SiO2 
 PCOD8267597
Probable space group: C M M M
;
_chemical_formula_sum "Si O2"
_cell_formula_units_Z 120
_cell_length_a 27.292678
_cell_length_b 9.119253
_cell_length_c 25.995483
_cell_angle_alpha 90.000000
_cell_angle_beta 90.000000
_cell_angle_gamma 90.000000
_cell_volume 6469.985498
_symmetry_space_group_name_H-M "C M M M"
_symmetry_group_IT_number 65
_symmetry_cell_setting 'orthorhombic'
loop_
_space_group_symop_operation_xyz
x,y,z
-x,-y,z
x,-y,-z
-x,y,-z
-x,-y,-z
x,y,-z
-x,y,z
x,-y,z
1/2+x,1/2+y,z
1/2-x,1/2-y,z
1/2+x,1/2-y,-z
1/2-x,1/2+y,-z
1/2-x,1/2-y,-z
1/2+x,1/2+y,-z
1/2-x,1/2+y,z
1/2+x,1/2-y,z
loop_
_atom_site_type_symbol
_atom_site_label
_atom_site_fract_x
_atom_site_fract_y
_atom_site_fract_z
Si Si1 0.556832 0.835235 0.706167
Si Si2 0.701984 0.669910 0.245346
Si Si3 0.500000 0.169012 0.560709
Si Si4 0.446188 0.337480 0.805758
Si Si5 0.352870 0.664156 0.143113
Si Si6 0.300656 0.672683 0.361961
Si Si7 0.907824 0.172377 0.612689
Si Si8 0.200123 0.329319 0.942297
O O1 0.500000 0.829774 0.690469
O O2 0.565409 0.787352 0.764387
O O3 0.584683 0.717590 0.671489
O O4 0.577446 0.000000 0.698649
O O5 0.713790 0.500000 0.247429
O O6 0.750000 0.750000 0.225387
O O7 0.662092 0.707083 0.201704
O O8 0.687493 0.723372 0.302986
O O9 0.500000 0.180582 0.500000
O O10 0.551447 0.242385 0.578819
O O11 0.500000 0.000000 0.579588
O O12 0.500000 0.314563 0.828360
O O13 0.440452 0.500000 0.780122
O O14 0.411448 0.325398 0.855279
O O15 0.334124 0.500000 0.129133
O O16 0.338689 0.778304 0.099527
O O17 0.290924 0.500000 0.364724
O O18 0.250000 0.750000 0.381664
O O19 0.349393 0.710435 0.397056
O O20 0.916898 0.000000 0.604876
O O21 0.209198 0.500000 0.936645
O O22 0.250000 0.250000 0.928277
O O23 0.182393 0.288456 0.000000
#
# Coordination Sequence:
#
# PCOD8267597 Si02
#       8
#    16  16   8  16  16  16  16  16
#     4  10  19  30  47  75 110 144 182 220 260 311
#     4   9  17  29  44  67 103 137 170 206 244 295
#     4  11  25  43  61  85 115 143 177 229 290 339
#     4   9  18  32  49  70 101 139 176 212 253 301
#     4  10  19  31  49  72  98 131 170 213 259 309
#     4   9  19  34  52  78 111 148 185 219 258 311
#     4  11  21  35  58  83 110 146 187 228 273 326
#     4  10  21  36  53  73  96 122 156 202 257 317
#
# _framework density 18.547181999999999
#
# number of rings (size 3 to 8) (size 9 to 14) (size 15 to 20)
#    0.000    2.200    0.667    2.600    0.000    7.200 
#    0.000    2.667    0.000    0.800    0.000    2.800 
#    0.000    0.000    0.000    0.000    0.000    0.000 
#
# Total GULP energy -743402.105189 kJ/mol
# GULP energy per Si atom -12390.035086 kJ/mol
# Density = 1.850497 g / cm^3
# Si number density = 18.547182 Si / 1000 Ang^3
#
#
#
# Elastic Constant Matrix: (Units=GPa)
#
#
# Indices 1 2 3 4 5 6 
#
# 1 120.4900 52.4712 51.2016 0.0000 0.0000 0.0000
# 2 52.4712 75.1175 32.9373 0.0000 0.0000 0.0000
# 3 51.2016 32.9373 52.0506 0.0000 0.0000 0.0000
# 4 0.0000 0.0000 0.0000 22.3790 0.0000 0.0000
# 5 0.0000 0.0000 0.0000 0.0000 14.3618 0.0000
# 6 0.0000 0.0000 0.0000 0.0000 0.0000 27.6912
#
#
#
# Elastic Compliance Matrix: (Units=1/GPa)
#
#
# Indices 1 2 3 4 5 6 
#
# 1 0.015949 -0.005898 -0.011956 0.000000 0.000000 0.000000
# 2 -0.005898 0.020606 -0.007238 0.000000 0.000000 0.000000
# 3 -0.011956 -0.007238 0.035553 0.000000 0.000000 0.000000
# 4 0.000000 0.000000 0.000000 0.044685 0.000000 0.000000
# 5 0.000000 0.000000 0.000000 0.000000 0.069629 0.000000
# 6 0.000000 0.000000 0.000000 0.000000 0.000000 0.036113
#
#
# Mechanical properties :
#
#
# Convention : Reuss Voigt Hill
#
# Bulk Modulus (GPa) = 45.61177 57.87535 51.74356
# Shear Modulus (GPa) = 17.85549 20.28959 19.07254
#
# Velocity S-wave (km/s) = 3.10612 3.31107 3.21023
# Velocity P-wave (km/s) = 6.12451 6.77420 6.45753
#
# Compressibility (1/GPa) = 0.02192417
#
# Stress axis : x y z
#
# Youngs Moduli (GPa) = 62.70114 48.53011 28.12677
#
# Poissons Ratio (x) = 0.28623 0.33629
# Poissons Ratio (y) = 0.36980 0.20357
# Poissons Ratio (z) = 0.74968 0.35124
#
# Static dielectric constant tensor:
#      x y z
#    x 3.724330 0.000000 0.000000 
#    y 0.000000 3.502100 0.000000 
#    z 0.000000 0.000000 3.133730 
# 
# 
# High freq. dielectric constant tensor:
#      x y z
#    x 1.725820 0.000000 0.000000 
#    y 0.000000 1.722880 0.000000 
#    z 0.000000 0.000000 1.680850 
# 
# From -- ./inp_files/76124.got.cif
#   From: 2010.03.12/outbox.cif.g09.slc.cpg/sg65_39_cif.got.tgz:76124.got - 2010.04.10 20:52:16.
