data_PCOD8267502
_publ_section_title
;
Structure prediction by ZEFSAII (Michael W. Deem and Ramdas Pophale) SiO2 
 PCOD8267502
Probable space group: C M M M
;
_chemical_formula_sum "Si O2"
_cell_formula_units_Z 104
_cell_length_a 8.923174
_cell_length_b 23.420333
_cell_length_c 27.680509
_cell_angle_alpha 90.000000
_cell_angle_beta 90.000000
_cell_angle_gamma 90.000000
_cell_volume 5784.775369
_symmetry_space_group_name_H-M "C M M M"
_symmetry_group_IT_number 65
_symmetry_cell_setting 'orthorhombic'
loop_
_space_group_symop_operation_xyz
x,y,z
-x,-y,z
x,-y,-z
-x,y,-z
-x,-y,-z
x,y,-z
-x,y,z
x,-y,z
1/2+x,1/2+y,z
1/2-x,1/2-y,z
1/2+x,1/2-y,-z
1/2-x,1/2+y,-z
1/2-x,1/2-y,-z
1/2+x,1/2+y,-z
1/2-x,1/2+y,z
1/2+x,1/2-y,z
loop_
_atom_site_type_symbol
_atom_site_label
_atom_site_fract_x
_atom_site_fract_y
_atom_site_fract_z
Si Si1 0.767385 0.500000 0.448386
Si Si2 0.336446 0.127061 0.552713
Si Si3 0.668642 0.567817 0.095508
Si Si4 0.325397 0.067201 0.806806
Si Si5 0.670281 0.310033 0.364435
Si Si6 0.826558 0.901463 0.287399
Si Si7 0.669420 0.068154 0.000000
Si Si8 0.320052 0.000000 0.345697
O O1 0.669534 0.500000 0.500000
O O2 0.859907 0.441366 0.448617
O O3 0.706367 0.500000 0.392962
O O4 0.278037 0.147891 0.500000
O O5 0.500000 0.153561 0.563240
O O6 0.224174 0.147454 0.593610
O O7 0.500000 0.592159 0.099432
O O8 0.664913 0.500000 0.093036
O O9 0.765652 0.587746 0.141322
O O10 0.746181 0.592183 0.047238
O O11 0.500000 0.082159 0.802887
O O12 0.231574 0.102703 0.767347
O O13 0.296594 0.000000 0.798781
O O14 0.500000 0.297285 0.375955
O O15 0.750000 0.250000 0.364602
O O16 0.691816 0.339852 0.312486
O O17 0.717574 0.944711 0.314791
O O18 0.000000 0.921702 0.288615
O O19 0.500000 0.091381 0.000000
O O20 0.669893 0.000000 0.000000
O O21 0.500000 0.000000 0.357947
#
# Coordination Sequence:
#
# PCOD8267502 Si02
#       8
#     8  16  16  16  16  16   8   8
#     4  10  20  34  56  86 114 138 165 198 244 302
#     4  10  20  36  59  84 109 136 165 200 243 295
#     4   9  16  25  38  57  86 125 167 210 256 297
#     4  10  19  30  46  70  97 128 168 206 249 302
#     4  11  25  42  59  77  99 130 169 210 253 302
#     4  11  23  37  53  75 104 131 162 207 257 304
#     4   9  15  23  35  53  81 121 170 217 252 291
#     4  12  21  32  56  82 104 133 165 199 244 303
#
# _framework density 17.978227
#
# number of rings (size 3 to 8) (size 9 to 14) (size 15 to 20)
#    0.000    1.769    2.308    3.000    0.000    7.538 
#    0.000    0.385    0.000    2.308    0.000    0.000 
#    0.000    0.000    0.000    0.692    0.000    9.462 
#
# Total GULP energy -644226.226908 kJ/mol
# GULP energy per Si atom -12388.965902 kJ/mol
# Density = 1.793731 g / cm^3
# Si number density = 17.978227 Si / 1000 Ang^3
#
#
#
# Elastic Constant Matrix: (Units=GPa)
#
#
# Indices 1 2 3 4 5 6 
#
# 1 119.4549 36.9739 60.6455 0.0000 0.0000 0.0000
# 2 36.9739 62.0270 32.9292 0.0000 0.0000 0.0000
# 3 60.6455 32.9292 157.6150 0.0000 0.0000 0.0000
# 4 0.0000 0.0000 0.0000 5.0925 0.0000 0.0000
# 5 0.0000 0.0000 0.0000 0.0000 27.9847 0.0000
# 6 0.0000 0.0000 0.0000 0.0000 0.0000 7.5049
#
#
#
# Elastic Compliance Matrix: (Units=1/GPa)
#
#
# Indices 1 2 3 4 5 6 
#
# 1 0.011708 -0.005160 -0.003427 0.000000 0.000000 0.000000
# 2 -0.005160 0.020407 -0.002278 0.000000 0.000000 0.000000
# 3 -0.003427 -0.002278 0.008139 0.000000 0.000000 0.000000
# 4 0.000000 0.000000 0.000000 0.196368 0.000000 0.000000
# 5 0.000000 0.000000 0.000000 0.000000 0.035734 0.000000
# 6 0.000000 0.000000 0.000000 0.000000 0.000000 0.133247
#
#
# Mechanical properties :
#
#
# Convention : Reuss Voigt Hill
#
# Bulk Modulus (GPa) = 53.98230 66.68823 60.33526
# Shear Modulus (GPa) = 11.53379 22.01962 16.77671
#
# Velocity S-wave (km/s) = 2.53562 3.50350 3.05809
# Velocity P-wave (km/s) = 6.21805 7.31713 6.78987
#
# Compressibility (1/GPa) = 0.01852459
#
# Stress axis : x y z
#
# Youngs Moduli (GPa) = 85.40954 49.00231 122.86326
#
# Poissons Ratio (x) = 0.25285 0.42105
# Poissons Ratio (y) = 0.44070 0.27990
# Poissons Ratio (z) = 0.29270 0.11163
#
# Static dielectric constant tensor:
#      x y z
#    x 3.315360 0.000000 0.000000 
#    y 0.000000 2.850600 0.000000 
#    z 0.000000 0.000000 3.655700 
# 
# 
# High freq. dielectric constant tensor:
#      x y z
#    x 1.698750 0.000000 0.000000 
#    y 0.000000 1.632900 0.000000 
#    z 0.000000 0.000000 1.714050 
# 
# From -- ./inp_files/73608.got.cif
#   From: 2010.03.12/outbox.cif.g09.slc.cpg/sg65_37_cif.got.tgz:73608.got - 2010.04.10 20:52:16.
