data_PCOD8267946
_publ_section_title
;
Structure prediction by ZEFSAII (Michael W. Deem and Ramdas Pophale) SiO2 
 PCOD8267946
Probable space group: C M M M
;
_chemical_formula_sum "Si O2"
_cell_formula_units_Z 96
_cell_length_a 24.387258
_cell_length_b 14.674654
_cell_length_c 13.520670
_cell_angle_alpha 90.000000
_cell_angle_beta 90.000000
_cell_angle_gamma 90.000000
_cell_volume 4838.704005
_symmetry_space_group_name_H-M "C M M M"
_symmetry_group_IT_number 65
_symmetry_cell_setting 'orthorhombic'
loop_
_space_group_symop_operation_xyz
x,y,z
-x,-y,z
x,-y,-z
-x,y,-z
-x,-y,-z
x,y,-z
-x,y,z
x,-y,z
1/2+x,1/2+y,z
1/2-x,1/2-y,z
1/2+x,1/2-y,-z
1/2-x,1/2+y,-z
1/2-x,1/2-y,-z
1/2+x,1/2+y,-z
1/2-x,1/2+y,z
1/2+x,1/2-y,z
loop_
_atom_site_type_symbol
_atom_site_label
_atom_site_fract_x
_atom_site_fract_y
_atom_site_fract_z
Si Si1 0.500000 0.397192 0.256718
Si Si2 0.808467 0.106227 0.389162
Si Si3 0.299482 0.105196 0.282682
Si Si4 0.092067 0.400537 0.384850
Si Si5 0.814237 0.264150 0.109267
Si Si6 0.500000 0.228796 0.383345
Si Si7 0.879338 0.895253 0.791667
O O1 0.500000 0.500000 0.298057
O O2 0.500000 0.332672 0.350986
O O3 0.555335 0.379663 0.193136
O O4 0.814756 0.149644 0.500000
O O5 0.756918 0.147488 0.326953
O O6 0.862903 0.124591 0.323689
O O7 0.796892 0.000000 0.402865
O O8 0.344291 0.121229 0.367673
O O9 0.324325 0.155612 0.187123
O O10 0.291084 0.000000 0.253486
O O11 0.080637 0.403972 0.500000
O O12 0.077667 0.500000 0.338672
O O13 0.053044 0.323300 0.338288
O O14 0.750000 0.250000 0.106115
O O15 0.845613 0.170911 0.137118
O O16 0.835120 0.293256 0.000000
O O17 0.500000 0.228779 0.500000
O O18 0.863700 0.000000 0.818241
#
# Coordination Sequence:
#
# PCOD8267946 Si02
#       7
#     8  16  16  16  16   8  16
#     4  10  22  38  58  78 107 153 199 244 287 329
#     4   9  17  31  53  80 112 149 185 224 272 327
#     4  10  19  34  55  81 114 148 183 224 275 342
#     4   9  17  30  52  81 112 147 185 226 275 334
#     4  11  23  38  58  84 112 142 182 235 293 350
#     4  10  19  31  48  74 113 153 194 237 276 324
#     4  10  21  40  60  82 113 150 194 241 287 336
#
# _framework density 19.840024
#
# number of rings (size 3 to 8) (size 9 to 14) (size 15 to 20)
#    0.000    2.167    1.667    1.750    0.000    4.500 
#    0.000    6.250    0.000    1.500    0.000    0.000 
#    0.000    6.667    0.000    0.000    0.000    0.000 
#
# Total GULP energy -594897.723317 kJ/mol
# GULP energy per Si atom -12393.702569 kJ/mol
# Density = 1.979487 g / cm^3
# Si number density = 19.840024 Si / 1000 Ang^3
#
#
#
# Elastic Constant Matrix: (Units=GPa)
#
#
# Indices 1 2 3 4 5 6 
#
# 1 123.3000 39.2725 21.9831 0.0000 0.0000 0.0000
# 2 39.2725 72.4022 28.6067 0.0000 0.0000 0.0000
# 3 21.9831 28.6067 82.3618 0.0000 0.0000 0.0000
# 4 0.0000 0.0000 0.0000 22.9815 0.0000 0.0000
# 5 0.0000 0.0000 0.0000 0.0000 -190.1390 0.0000
# 6 0.0000 0.0000 0.0000 0.0000 0.0000 21.3856
#
#
#
# Elastic Compliance Matrix: (Units=1/GPa)
#
#
# Indices 1 2 3 4 5 6 
#
# 1 0.009861 -0.004994 -0.000897 0.000000 0.000000 0.000000
# 2 -0.004994 0.018538 -0.005106 0.000000 0.000000 0.000000
# 3 -0.000897 -0.005106 0.014154 0.000000 0.000000 0.000000
# 4 0.000000 0.000000 0.000000 0.043513 0.000000 0.000000
# 5 0.000000 0.000000 0.000000 0.000000 -0.005259 0.000000
# 6 0.000000 0.000000 0.000000 0.000000 0.000000 0.046760
#
#
# Mechanical properties :
#
#
# Convention : Reuss Voigt Hill
#
# Bulk Modulus (GPa) = 48.64117 50.86540 49.75329
# Shear Modulus (GPa) = 31.96609 -16.60761 7.67924
#
# Velocity S-wave (km/s) = 4.01832 -2.89637 1.96951
# Velocity P-wave (km/s) = 6.78963 3.80896 5.50487
#
# Compressibility (1/GPa) = 0.02055872
#
# Stress axis : x y z
#
# Youngs Moduli (GPa) = 101.40936 53.94302 70.64913
#
# Poissons Ratio (x) = 0.26941 0.06340
# Poissons Ratio (y) = 0.50647 0.36072
# Poissons Ratio (z) = 0.09100 0.27542
#
# Static dielectric constant tensor:
#      x y z
#    x 3.781230 0.000000 0.000000 
#    y 0.000000 3.709670 0.000000 
#    z 0.000000 0.000000 3.548070 
# 
# 
# High freq. dielectric constant tensor:
#      x y z
#    x 1.778260 0.000000 0.000000 
#    y 0.000000 1.774800 0.000000 
#    z 0.000000 0.000000 1.735320 
# 
# From -- ./inp_files/45666.got.cif
#   From: 2010.03.12/outbox.cif.g09.slc.cpg/sg65_23_cif.got.tgz:45666.got - 2010.04.10 20:52:16.
