data_PCOD8267021
_publ_section_title
;
Structure prediction by ZEFSAII (Michael W. Deem and Ramdas Pophale) SiO2 
 PCOD8267021
Probable space group: C M M M
;
_chemical_formula_sum "Si O2"
_cell_formula_units_Z 88
_cell_length_a 21.470514
_cell_length_b 14.367170
_cell_length_c 17.395442
_cell_angle_alpha 90.000000
_cell_angle_beta 90.000000
_cell_angle_gamma 90.000000
_cell_volume 5365.981120
_symmetry_space_group_name_H-M "C M M M"
_symmetry_group_IT_number 65
_symmetry_cell_setting 'orthorhombic'
loop_
_space_group_symop_operation_xyz
x,y,z
-x,-y,z
x,-y,-z
-x,y,-z
-x,-y,-z
x,y,-z
-x,y,z
x,-y,z
1/2+x,1/2+y,z
1/2-x,1/2-y,z
1/2+x,1/2-y,-z
1/2-x,1/2+y,-z
1/2-x,1/2-y,-z
1/2+x,1/2+y,-z
1/2-x,1/2+y,z
1/2+x,1/2-y,z
loop_
_atom_site_type_symbol
_atom_site_label
_atom_site_fract_x
_atom_site_fract_y
_atom_site_fract_z
Si Si1 0.861776 0.394800 0.913375
Si Si2 0.318081 0.607360 0.412773
Si Si3 0.250000 0.250000 0.687518
Si Si4 0.357299 0.739140 0.197932
Si Si5 0.570792 0.606051 0.302742
Si Si6 0.285619 0.604212 0.086277
O O1 0.882144 0.500000 0.892057
O O2 0.889565 0.322976 0.850435
O O3 0.787962 0.383947 0.909350
O O4 0.884988 0.371180 0.000000
O O5 0.320243 0.643971 0.500000
O O6 0.298755 0.500000 0.409137
O O7 0.265531 0.661564 0.365277
O O8 0.386305 0.624019 0.376904
O O9 0.310091 0.221005 0.737854
O O10 0.411714 0.677095 0.234731
O O11 0.317101 0.675747 0.142185
O O12 0.500000 0.624839 0.328061
O O13 0.579446 0.500000 0.272896
O O14 0.304484 0.500000 0.110951
O O15 0.308783 0.624971 0.000000
#
# Coordination Sequence:
#
# PCOD8267021 Si02
#       6
#    16  16   8  16  16  16
#     4   9  17  27  40  62  91 120 153 189 221 261
#     4   9  18  32  49  68  93 123 148 175 215 265
#     4  10  19  26  41  70  98 118 142 176 221 274
#     4  11  17  27  44  65  92 125 149 182 232 272
#     4   9  19  33  48  68  90 114 150 190 224 264
#     4   9  16  25  39  62  91 122 154 185 219 266
#
# _framework density 16.399611
#
# number of rings (size 3 to 8) (size 9 to 14) (size 15 to 20)
#    0.000    2.545    1.818    2.455    0.000    3.273 
#    0.000    1.818    0.000    2.727    0.000    7.636 
#    0.000    0.000    0.000   19.273    0.000    0.364 
#
# Total GULP energy -545477.814457 kJ/mol
# GULP energy per Si atom -12397.223056 kJ/mol
# Density = 1.636228 g / cm^3
# Si number density = 16.399611 Si / 1000 Ang^3
#
#
#
# Elastic Constant Matrix: (Units=GPa)
#
#
# Indices 1 2 3 4 5 6 
#
# 1 52.3916 31.1780 27.4050 0.0000 0.0000 0.0000
# 2 31.1780 93.0061 66.7784 0.0000 0.0000 0.0000
# 3 27.4050 66.7784 106.8074 0.0000 0.0000 0.0000
# 4 0.0000 0.0000 0.0000 32.6115 0.0000 0.0000
# 5 0.0000 0.0000 0.0000 0.0000 11.5679 0.0000
# 6 0.0000 0.0000 0.0000 0.0000 0.0000 19.3216
#
#
#
# Elastic Compliance Matrix: (Units=1/GPa)
#
#
# Indices 1 2 3 4 5 6 
#
# 1 0.024089 -0.006601 -0.002054 0.000000 0.000000 0.000000
# 2 -0.006601 0.021319 -0.011636 0.000000 0.000000 0.000000
# 3 -0.002054 -0.011636 0.017165 0.000000 0.000000 0.000000
# 4 0.000000 0.000000 0.000000 0.030664 0.000000 0.000000
# 5 0.000000 0.000000 0.000000 0.000000 0.086446 0.000000
# 6 0.000000 0.000000 0.000000 0.000000 0.000000 0.051756
#
#
# Mechanical properties :
#
#
# Convention : Reuss Voigt Hill
#
# Bulk Modulus (GPa) = 45.46995 55.88087 50.67541
# Shear Modulus (GPa) = 17.89871 21.15644 19.52757
#
# Velocity S-wave (km/s) = 3.30723 3.59563 3.45444
# Velocity P-wave (km/s) = 6.50924 7.16844 6.84678
#
# Compressibility (1/GPa) = 0.02199255
#
# Stress axis : x y z
#
# Youngs Moduli (GPa) = 41.51189 46.90660 58.25974
#
# Poissons Ratio (x) = 0.30961 0.11967
# Poissons Ratio (y) = 0.27400 0.67788
# Poissons Ratio (z) = 0.08527 0.54578
#
# Static dielectric constant tensor:
#      x y z
#    x 2.729350 0.000000 0.000000 
#    y 0.000000 3.349110 0.000000 
#    z 0.000000 0.000000 3.413860 
# 
# 
# High freq. dielectric constant tensor:
#      x y z
#    x 1.586140 0.000000 0.000000 
#    y 0.000000 1.636570 0.000000 
#    z 0.000000 0.000000 1.635250 
# 
# From -- ./inp_files/45548.got.cif
#   From: 2010.03.12/outbox.cif.g09.slc.cpg/sg65_23_cif.got.tgz:45548.got - 2010.04.10 20:52:16.
