data_PCOD8267647
_publ_section_title
;
Structure prediction by ZEFSAII (Michael W. Deem and Ramdas Pophale) SiO2 
 PCOD8267647
Probable space group: C M M M
;
_chemical_formula_sum "Si O2"
_cell_formula_units_Z 88
_cell_length_a 9.136850
_cell_length_b 29.940486
_cell_length_c 17.242863
_cell_angle_alpha 90.000000
_cell_angle_beta 90.000000
_cell_angle_gamma 90.000000
_cell_volume 4716.987424
_symmetry_space_group_name_H-M "C M M M"
_symmetry_group_IT_number 65
_symmetry_cell_setting 'orthorhombic'
loop_
_space_group_symop_operation_xyz
x,y,z
-x,-y,z
x,-y,-z
-x,y,-z
-x,-y,-z
x,y,-z
-x,y,z
x,-y,z
1/2+x,1/2+y,z
1/2-x,1/2-y,z
1/2+x,1/2-y,-z
1/2-x,1/2+y,-z
1/2-x,1/2-y,-z
1/2+x,1/2+y,-z
1/2-x,1/2+y,z
1/2+x,1/2-y,z
loop_
_atom_site_type_symbol
_atom_site_label
_atom_site_fract_x
_atom_site_fract_y
_atom_site_fract_z
Si Si1 0.673101 0.049784 0.500000
Si Si2 0.164833 0.207108 0.374852
Si Si3 0.333692 0.552158 0.088558
Si Si4 0.835123 0.792847 0.809637
Si Si5 0.171343 0.618677 0.372323
Si Si6 0.671038 0.118837 0.806086
O O1 0.500000 0.045340 0.500000
O O2 0.723829 0.076370 0.423067
O O3 0.743482 0.000000 0.500000
O O4 0.250000 0.250000 0.408745
O O5 0.164835 0.209233 0.282565
O O6 0.244741 0.162302 0.403281
O O7 0.000000 0.207400 0.407484
O O8 0.500000 0.564646 0.111418
O O9 0.306530 0.500000 0.099740
O O10 0.220315 0.576792 0.143944
O O11 0.303092 0.566109 0.000000
O O12 0.750000 0.750000 0.843757
O O13 0.754043 0.837504 0.837605
O O14 0.000000 0.792856 0.842492
O O15 0.210455 0.608493 0.283211
O O16 0.000000 0.628179 0.383323
O O17 0.500000 0.127312 0.816622
#
# Coordination Sequence:
#
# PCOD8267647 Si02
#       6
#     8  16  16  16  16  16
#     4   9  18  34  54  71  92 129 172 211 252 295
#     4   9  16  27  46  71  99 129 161 200 247 296
#     4   9  19  36  55  74  99 132 167 203 248 302
#     4   9  16  27  45  70 101 135 169 204 243 290
#     4   9  18  32  50  73 100 130 168 209 246 291
#     4  10  19  30  49  78 106 131 164 207 251 296
#
# _framework density 18.655975000000002
#
# number of rings (size 3 to 8) (size 9 to 14) (size 15 to 20)
#    0.000    2.818    0.000    2.182    0.000    6.545 
#    0.000    3.636    0.000    1.636    0.000    0.000 
#    0.000    0.000    0.000    0.000    0.000    0.000 
#
# Total GULP energy -545591.308049 kJ/mol
# GULP energy per Si atom -12399.802456 kJ/mol
# Density = 1.861351 g / cm^3
# Si number density = 18.655975 Si / 1000 Ang^3
#
#
#
# Elastic Constant Matrix: (Units=GPa)
#
#
# Indices 1 2 3 4 5 6 
#
# 1 106.2777 65.9621 35.4616 0.0000 0.0000 0.0000
# 2 65.9621 146.6711 51.1846 0.0000 0.0000 0.0000
# 3 35.4616 51.1846 58.7574 0.0000 0.0000 0.0000
# 4 0.0000 0.0000 0.0000 -4.3819 0.0000 0.0000
# 5 0.0000 0.0000 0.0000 0.0000 9.8398 0.0000
# 6 0.0000 0.0000 0.0000 0.0000 0.0000 37.0458
#
#
#
# Elastic Compliance Matrix: (Units=1/GPa)
#
#
# Indices 1 2 3 4 5 6 
#
# 1 0.013731 -0.004717 -0.004178 0.000000 0.000000 0.000000
# 2 -0.004717 0.011417 -0.007098 0.000000 0.000000 0.000000
# 3 -0.004178 -0.007098 0.025724 0.000000 0.000000 0.000000
# 4 0.000000 0.000000 0.000000 -0.228212 0.000000 0.000000
# 5 0.000000 0.000000 0.000000 0.000000 0.101628 0.000000
# 6 0.000000 0.000000 0.000000 0.000000 0.000000 0.026994
#
#
# Mechanical properties :
#
#
# Convention : Reuss Voigt Hill
#
# Bulk Modulus (GPa) = 52.95182 68.54700 60.74941
# Shear Modulus (GPa) = -479.04474 19.10727 -229.96873
#
# Velocity S-wave (km/s) = -16.04168 3.20377 -11.11466
# Velocity P-wave (km/s) = 17.73892 7.10689 11.49263
#
# Compressibility (1/GPa) = 0.01888509
#
# Stress axis : x y z
#
# Youngs Moduli (GPa) = 72.82710 87.59191 38.87450
#
# Poissons Ratio (x) = 0.41320 0.16241
# Poissons Ratio (y) = 0.34355 0.27594
# Poissons Ratio (z) = 0.30425 0.62174
#
# Static dielectric constant tensor:
#      x y z
#    x 3.440390 0.000000 0.000000 
#    y 0.000000 3.547900 0.000000 
#    z 0.000000 0.000000 3.097740 
# 
# 
# High freq. dielectric constant tensor:
#      x y z
#    x 1.721320 0.000000 0.000000 
#    y 0.000000 1.729830 0.000000 
#    z 0.000000 0.000000 1.692200 
# 
# From -- ./inp_files/50388.got.cif
#   From: 2010.03.12/outbox.cif.g09.slc.cpg/sg65_26_cif.got.tgz:50388.got - 2010.04.10 20:52:16.
