data_PCOD8267573
_publ_section_title
;
Structure prediction by ZEFSAII (Michael W. Deem and Ramdas Pophale) SiO2 
 PCOD8267573
Probable space group: C M M M
;
_chemical_formula_sum "Si O2"
_cell_formula_units_Z 96
_cell_length_a 27.338665
_cell_length_b 8.111273
_cell_length_c 25.114758
_cell_angle_alpha 90.000000
_cell_angle_beta 90.000000
_cell_angle_gamma 90.000000
_cell_volume 5569.232126
_symmetry_space_group_name_H-M "C M M M"
_symmetry_group_IT_number 65
_symmetry_cell_setting 'orthorhombic'
loop_
_space_group_symop_operation_xyz
x,y,z
-x,-y,z
x,-y,-z
-x,y,-z
-x,-y,-z
x,y,-z
-x,y,z
x,-y,z
1/2+x,1/2+y,z
1/2-x,1/2-y,z
1/2+x,1/2-y,-z
1/2-x,1/2+y,-z
1/2-x,1/2-y,-z
1/2+x,1/2+y,-z
1/2-x,1/2+y,z
1/2+x,1/2-y,z
loop_
_atom_site_type_symbol
_atom_site_label
_atom_site_fract_x
_atom_site_fract_y
_atom_site_fract_z
Si Si1 0.397705 0.310782 0.769577
Si Si2 0.557178 0.814793 0.126503
Si Si3 0.058147 0.000000 0.940233
Si Si4 0.694354 0.193403 0.500000
Si Si5 0.355116 0.693901 0.392597
Si Si6 0.055059 0.309933 0.334843
Si Si7 0.303239 0.693168 0.288824
O O1 0.399613 0.500000 0.788648
O O2 0.416471 0.195780 0.816738
O O3 0.430778 0.295443 0.716984
O O4 0.342445 0.252229 0.755767
O O5 0.500000 0.788059 0.136426
O O6 0.576951 0.669080 0.087888
O O7 0.567097 0.000000 0.103057
O O8 0.000000 0.000000 0.941391
O O9 0.079439 0.000000 0.000000
O O10 0.750000 0.250000 0.500000
O O11 0.666201 0.259929 0.449160
O O12 0.692839 0.000000 0.500000
O O13 0.360278 0.500000 0.387574
O O14 0.409067 0.770371 0.384284
O O15 0.318967 0.765575 0.346565
O O16 0.059292 0.500000 0.318925
O O17 0.000000 0.263876 0.352479
O O18 0.303694 0.500000 0.294046
O O19 0.250000 0.750000 0.270908
#
# Coordination Sequence:
#
# PCOD8267573 Si02
#       7
#    16  16   8   8  16  16  16
#     4  10  19  31  47  70 101 136 170 208 249 299
#     4  10  19  30  47  72 100 135 176 213 251 296
#     4   9  18  32  48  68 100 140 174 211 257 295
#     4  12  24  38  57  78  99 124 158 205 249 297
#     4  10  21  37  54  74  98 127 165 202 247 297
#     4  10  20  33  50  74 102 131 166 205 248 300
#     4   9  19  32  48  70  97 129 160 197 246 303
#
# _framework density 17.237565
#
# number of rings (size 3 to 8) (size 9 to 14) (size 15 to 20)
#    0.000    2.083    0.833    4.250    0.000    9.000 
#    0.000    2.083    0.000    2.500    0.000    0.000 
#    0.000    0.667    0.333    0.000    0.000    0.000 
#
# Total GULP energy -595102.941460 kJ/mol
# GULP energy per Si atom -12397.977947 kJ/mol
# Density = 1.719833 g / cm^3
# Si number density = 17.237565 Si / 1000 Ang^3
#
#
#
# Elastic Constant Matrix: (Units=GPa)
#
#
# Indices 1 2 3 4 5 6 
#
# 1 115.1443 34.4728 43.7575 0.0000 0.0000 0.0000
# 2 34.4728 81.2467 34.8074 0.0000 0.0000 0.0000
# 3 43.7575 34.8074 96.4863 0.0000 0.0000 0.0000
# 4 0.0000 0.0000 0.0000 21.7275 0.0000 0.0000
# 5 0.0000 0.0000 0.0000 0.0000 18.2383 0.0000
# 6 0.0000 0.0000 0.0000 0.0000 0.0000 25.1388
#
#
#
# Elastic Compliance Matrix: (Units=1/GPa)
#
#
# Indices 1 2 3 4 5 6 
#
# 1 0.011085 -0.003016 -0.003939 0.000000 0.000000 0.000000
# 2 -0.003016 0.015379 -0.004180 0.000000 0.000000 0.000000
# 3 -0.003939 -0.004180 0.013659 0.000000 0.000000 0.000000
# 4 0.000000 0.000000 0.000000 0.046025 0.000000 0.000000
# 5 0.000000 0.000000 0.000000 0.000000 0.054830 0.000000
# 6 0.000000 0.000000 0.000000 0.000000 0.000000 0.039779
#
#
# Mechanical properties :
#
#
# Convention : Reuss Voigt Hill
#
# Bulk Modulus (GPa) = 56.01634 57.66142 56.83888
# Shear Modulus (GPa) = 23.92626 25.01023 24.46824
#
# Velocity S-wave (km/s) = 3.72967 3.81322 3.77168
# Velocity P-wave (km/s) = 7.14944 7.27401 7.21199
#
# Compressibility (1/GPa) = 0.01785193
#
# Stress axis : x y z
#
# Youngs Moduli (GPa) = 90.21589 65.02560 73.21397
#
# Poissons Ratio (x) = 0.19609 0.28840
# Poissons Ratio (y) = 0.27205 0.30605
# Poissons Ratio (z) = 0.35537 0.27182
#
# Static dielectric constant tensor:
#      x y z
#    x 2.862420 0.000000 0.000000 
#    y 0.000000 3.377710 0.000000 
#    z 0.000000 0.000000 3.081780 
# 
# 
# High freq. dielectric constant tensor:
#      x y z
#    x 1.649520 0.000000 0.000000 
#    y 0.000000 1.681330 0.000000 
#    z 0.000000 0.000000 1.640750 
# 
# From -- ./inp_files/71716.got.cif
#   From: 2010.03.12/outbox.cif.g09.slc.cpg/sg65_36_cif.got.tgz:71716.got - 2010.04.10 20:52:16.
