data_PCOD8267085
_publ_section_title
;
Structure prediction by ZEFSAII (Michael W. Deem and Ramdas Pophale) SiO2 
 PCOD8267085
Probable space group: C M M M
;
_chemical_formula_sum "Si O2"
_cell_formula_units_Z 96
_cell_length_a 13.209834
_cell_length_b 33.884765
_cell_length_c 13.056485
_cell_angle_alpha 90.000000
_cell_angle_beta 90.000000
_cell_angle_gamma 90.000000
_cell_volume 5844.240941
_symmetry_space_group_name_H-M "C M M M"
_symmetry_group_IT_number 65
_symmetry_cell_setting 'orthorhombic'
loop_
_space_group_symop_operation_xyz
x,y,z
-x,-y,z
x,-y,-z
-x,y,-z
-x,-y,-z
x,y,-z
-x,y,z
x,-y,z
1/2+x,1/2+y,z
1/2-x,1/2-y,z
1/2+x,1/2-y,-z
1/2-x,1/2+y,-z
1/2-x,1/2-y,-z
1/2+x,1/2+y,-z
1/2-x,1/2+y,z
1/2+x,1/2-y,z
loop_
_atom_site_type_symbol
_atom_site_label
_atom_site_fract_x
_atom_site_fract_y
_atom_site_fract_z
Si Si1 0.119572 0.269542 0.113451
Si Si2 0.618530 0.313199 0.812681
Si Si3 0.252279 0.615537 0.880863
Si Si4 0.887507 0.956100 0.121338
Si Si5 0.380937 0.161500 0.740132
Si Si6 0.270287 0.703610 0.383846
O O1 0.166258 0.226506 0.136503
O O2 0.160232 0.302876 0.188846
O O3 0.000000 0.266849 0.130011
O O4 0.148085 0.283197 0.000000
O O5 0.500000 0.315534 0.830938
O O6 0.664967 0.350285 0.870747
O O7 0.641371 0.311865 0.691167
O O8 0.303977 0.575126 0.841277
O O9 0.159553 0.622745 0.800514
O O10 0.215446 0.612742 0.000000
O O11 0.000000 0.946011 0.164840
O O12 0.855087 0.000000 0.158125
O O13 0.892979 0.954509 0.000000
O O14 0.500000 0.157539 0.723309
O O15 0.327496 0.174403 0.633873
O O16 0.306541 0.697185 0.500000
O O17 0.250000 0.750000 0.364561
#
# Coordination Sequence:
#
# PCOD8267085 Si02
#       6
#    16  16  16  16  16  16
#     4   9  16  26  40  57  81 116 150 178 212 256
#     4  10  19  30  43  64  90 115 147 186 226 271
#     4  10  19  28  44  68  93 122 153 186 219 258
#     4   8  14  26  44  66  93 123 152 180 214 262
#     4  10  20  33  45  62  87 118 157 195 230 270
#     4  10  20  33  47  63  81 108 152 199 238 274
#
# _framework density 16.426427
#
# number of rings (size 3 to 8) (size 9 to 14) (size 15 to 20)
#    0.000    2.500    1.667    2.000    0.000    3.333 
#    0.000    4.167    0.000    0.500    0.000    2.333 
#    0.000   10.667    0.000   42.667    0.000    2.667 
#
# Total GULP energy -594867.669471 kJ/mol
# GULP energy per Si atom -12393.076447 kJ/mol
# Density = 1.638904 g / cm^3
# Si number density = 16.426427 Si / 1000 Ang^3
#
#
#
# Elastic Constant Matrix: (Units=GPa)
#
#
# Indices 1 2 3 4 5 6 
#
# 1 34.9400 17.7272 -11.7512 0.0000 0.0000 0.0000
# 2 17.7272 78.2491 4.0912 0.0000 0.0000 0.0000
# 3 -11.7512 4.0912 42.4983 0.0000 0.0000 0.0000
# 4 0.0000 0.0000 0.0000 7.8282 0.0000 0.0000
# 5 0.0000 0.0000 0.0000 0.0000 16.9467 0.0000
# 6 0.0000 0.0000 0.0000 0.0000 0.0000 25.9287
#
#
#
# Elastic Compliance Matrix: (Units=1/GPa)
#
#
# Indices 1 2 3 4 5 6 
#
# 1 0.036869 -0.008931 0.011054 0.000000 0.000000 0.000000
# 2 -0.008931 0.015008 -0.003914 0.000000 0.000000 0.000000
# 3 0.011054 -0.003914 0.026964 0.000000 0.000000 0.000000
# 4 0.000000 0.000000 0.000000 0.127743 0.000000 0.000000
# 5 0.000000 0.000000 0.000000 0.000000 0.059008 0.000000
# 6 0.000000 0.000000 0.000000 0.000000 0.000000 0.038567
#
#
# Mechanical properties :
#
#
# Convention : Reuss Voigt Hill
#
# Bulk Modulus (GPa) = 13.28726 19.53575 16.41151
# Shear Modulus (GPa) = 15.02283 19.84874 17.43579
#
# Velocity S-wave (km/s) = 3.02744 3.47989 3.26152
# Velocity P-wave (km/s) = 4.50855 5.29763 4.91894
#
# Compressibility (1/GPa) = 0.07526008
#
# Stress axis : x y z
#
# Youngs Moduli (GPa) = 27.12275 66.63298 37.08675
#
# Poissons Ratio (x) = 0.59508 -0.40997
# Poissons Ratio (y) = 0.24222 0.14516
# Poissons Ratio (z) = -0.29983 0.26081
#
# Static dielectric constant tensor:
#      x y z
#    x 3.123720 0.000000 0.000000 
#    y 0.000000 3.181310 0.000000 
#    z 0.000000 0.000000 2.879420 
# 
# 
# High freq. dielectric constant tensor:
#      x y z
#    x 1.638640 0.000000 0.000000 
#    y 0.000000 1.604910 0.000000 
#    z 0.000000 0.000000 1.604300 
# 
# From -- ./inp_files/41256.got.cif
#   From: 2010.03.12/outbox.cif.g09.slc.cpg/sg65_21_cif.got.tgz:41256.got - 2010.04.10 20:52:16.
