data_PCOD8267659
_publ_section_title
;
Structure prediction by ZEFSAII (Michael W. Deem and Ramdas Pophale) SiO2 
 PCOD8267659
Probable space group: C M M M
;
_chemical_formula_sum "Si O2"
_cell_formula_units_Z 88
_cell_length_a 8.030324
_cell_length_b 23.653375
_cell_length_c 24.410239
_cell_angle_alpha 90.000000
_cell_angle_beta 90.000000
_cell_angle_gamma 90.000000
_cell_volume 4636.584904
_symmetry_space_group_name_H-M "C M M M"
_symmetry_group_IT_number 65
_symmetry_cell_setting 'orthorhombic'
loop_
_space_group_symop_operation_xyz
x,y,z
-x,-y,z
x,-y,-z
-x,y,-z
-x,-y,-z
x,y,-z
-x,y,z
x,-y,z
1/2+x,1/2+y,z
1/2-x,1/2-y,z
1/2+x,1/2-y,-z
1/2-x,1/2+y,-z
1/2-x,1/2-y,-z
1/2+x,1/2+y,-z
1/2-x,1/2+y,z
1/2+x,1/2-y,z
loop_
_atom_site_type_symbol
_atom_site_label
_atom_site_fract_x
_atom_site_fract_y
_atom_site_fract_z
Si Si1 0.188971 0.934076 0.365651
Si Si2 0.187980 0.500000 0.201512
Si Si3 0.192405 0.618482 0.940050
Si Si4 0.806113 0.609956 0.256732
Si Si5 0.500000 0.933392 0.439247
Si Si6 0.690881 0.312659 0.163737
Si Si7 0.190747 0.000000 0.084953
O O1 0.208457 0.891270 0.314255
O O2 0.328630 0.914555 0.409350
O O3 0.000000 0.927133 0.389069
O O4 0.219988 0.000000 0.348482
O O5 0.272415 0.443018 0.223617
O O6 0.190204 0.500000 0.136857
O O7 0.000000 0.500000 0.222557
O O8 0.282587 0.651482 0.891425
O O9 0.268657 0.556216 0.948793
O O10 0.000000 0.614515 0.923627
O O11 0.214971 0.648339 0.000000
O O12 0.782227 0.664594 0.218314
O O13 0.000000 0.603747 0.270264
O O14 0.500000 0.906048 0.500000
O O15 0.500000 0.000000 0.444267
O O16 0.500000 0.313069 0.179030
O O17 0.750000 0.250000 0.150601
O O18 0.000000 0.000000 0.103708
#
# Coordination Sequence:
#
# PCOD8267659 Si02
#       7
#    16   8  16  16   8  16   8
#     4  10  19  30  50  80 113 154 201 240 282 337
#     4  10  20  31  55  82 110 146 181 220 278 345
#     4  11  24  42  62  82 108 144 184 228 281 343
#     4  11  20  35  58  83 114 149 185 233 288 341
#     4   9  18  32  48  72 116 164 201 239 281 328
#     4  12  26  43  61  82 109 144 184 232 289 348
#     4  12  23  35  56  87 116 140 177 225 283 338
#
# _framework density 18.979486000000001
#
# number of rings (size 3 to 8) (size 9 to 14) (size 15 to 20)
#    0.000    1.182    3.636    3.818    0.000    4.000 
#    0.000    1.818    0.000    0.000    0.000    0.000 
#    0.000    0.727    0.364    0.000    0.000    0.000 
#
# Total GULP energy -545363.764890 kJ/mol
# GULP energy per Si atom -12394.631020 kJ/mol
# Density = 1.893629 g / cm^3
# Si number density = 18.979486 Si / 1000 Ang^3
#
#
#
# Elastic Constant Matrix: (Units=GPa)
#
#
# Indices 1 2 3 4 5 6 
#
# 1 108.4346 12.2486 37.4157 0.0000 0.0000 0.0000
# 2 12.2486 67.5751 25.9627 0.0000 0.0000 0.0000
# 3 37.4157 25.9627 125.4011 0.0000 0.0000 0.0000
# 4 0.0000 0.0000 0.0000 1.5751 0.0000 0.0000
# 5 0.0000 0.0000 0.0000 0.0000 21.0584 0.0000
# 6 0.0000 0.0000 0.0000 0.0000 0.0000 22.8663
#
#
#
# Elastic Compliance Matrix: (Units=1/GPa)
#
#
# Indices 1 2 3 4 5 6 
#
# 1 0.010315 -0.000747 -0.002923 0.000000 0.000000 0.000000
# 2 -0.000747 0.016131 -0.003117 0.000000 0.000000 0.000000
# 3 -0.002923 -0.003117 0.009492 0.000000 0.000000 0.000000
# 4 0.000000 0.000000 0.000000 0.634885 0.000000 0.000000
# 5 0.000000 0.000000 0.000000 0.000000 0.047487 0.000000
# 6 0.000000 0.000000 0.000000 0.000000 0.000000 0.043732
#
#
# Mechanical properties :
#
#
# Convention : Reuss Voigt Hill
#
# Bulk Modulus (GPa) = 44.71315 50.29609 47.50462
# Shear Modulus (GPa) = 6.38512 24.15222 15.26867
#
# Velocity S-wave (km/s) = 1.83617 3.57114 2.83942
# Velocity P-wave (km/s) = 5.30143 6.60014 5.98611
#
# Compressibility (1/GPa) = 0.02236479
#
# Stress axis : x y z
#
# Youngs Moduli (GPa) = 96.94511 61.99146 105.35284
#
# Poissons Ratio (x) = 0.04628 0.30796
# Poissons Ratio (y) = 0.07238 0.32838
# Poissons Ratio (z) = 0.28338 0.19323
#
# Static dielectric constant tensor:
#      x y z
#    x 3.567420 0.000000 0.000000 
#    y 0.000000 3.222710 0.000000 
#    z 0.000000 0.000000 3.436400 
# 
# 
# High freq. dielectric constant tensor:
#      x y z
#    x 1.751300 0.000000 0.000000 
#    y 0.000000 1.692850 0.000000 
#    z 0.000000 0.000000 1.730670 
# 
# From -- ./inp_files/67643.got.cif
#   From: 2010.03.12/outbox.cif.g09.slc.cpg/sg65_34_cif.got.tgz:67643.got - 2010.04.10 20:52:16.
