data_PCOD8267664
_publ_section_title
;
Structure prediction by ZEFSAII (Michael W. Deem and Ramdas Pophale) SiO2 
 PCOD8267664
Probable space group: C M M M
;
_chemical_formula_sum "Si O2"
_cell_formula_units_Z 88
_cell_length_a 18.182914
_cell_length_b 10.067206
_cell_length_c 25.273260
_cell_angle_alpha 90.000000
_cell_angle_beta 90.000000
_cell_angle_gamma 90.000000
_cell_volume 4626.299078
_symmetry_space_group_name_H-M "C M M M"
_symmetry_group_IT_number 65
_symmetry_cell_setting 'orthorhombic'
loop_
_space_group_symop_operation_xyz
x,y,z
-x,-y,z
x,-y,-z
-x,y,-z
-x,-y,-z
x,y,-z
-x,y,z
x,-y,z
1/2+x,1/2+y,z
1/2-x,1/2-y,z
1/2+x,1/2-y,-z
1/2-x,1/2+y,-z
1/2-x,1/2-y,-z
1/2+x,1/2+y,-z
1/2-x,1/2+y,z
1/2+x,1/2-y,z
loop_
_atom_site_type_symbol
_atom_site_label
_atom_site_fract_x
_atom_site_fract_y
_atom_site_fract_z
Si Si1 0.586458 0.000000 0.871564
Si Si2 0.587103 0.236558 0.058922
Si Si3 0.165139 0.762118 0.698693
Si Si4 0.413537 0.500000 0.117911
Si Si5 0.824013 0.000000 0.774879
Si Si6 0.087374 0.346206 0.500000
Si Si7 0.412820 0.348125 0.407332
Si Si8 0.345800 0.000000 0.240718
O O1 0.620586 0.872485 0.901191
O O2 0.601780 0.000000 0.809565
O O3 0.500000 0.000000 0.878869
O O4 0.500000 0.223577 0.055587
O O5 0.609910 0.377104 0.082216
O O6 0.620505 0.219011 0.000000
O O7 0.250000 0.750000 0.681779
O O8 0.118784 0.803941 0.648376
O O9 0.136043 0.624546 0.722184
O O10 0.151502 0.870104 0.743652
O O11 0.500000 0.500000 0.133092
O O12 0.365060 0.500000 0.170027
O O13 0.736473 0.000000 0.782301
O O14 0.117895 0.500000 0.500000
O O15 0.115746 0.260762 0.449744
O O16 0.000000 0.352460 0.500000
O O17 0.500000 0.344055 0.404203
O O18 0.387666 0.500000 0.421580
#
# Coordination Sequence:
#
# PCOD8267664 Si02
#       8
#     8  16  16   8   8   8  16   8
#     4  10  19  32  50  74  99 131 174 217 259 313
#     4   9  17  30  49  74 102 131 165 210 266 320
#     4  10  21  37  55  77 107 145 184 221 269 327
#     4  10  19  30  52  78 101 129 170 221 261 311
#     4  10  20  37  53  72 105 142 177 213 270 329
#     4   9  19  35  56  85 120 149 177 217 272 327
#     4  10  20  36  59  85 112 145 183 224 269 318
#     4  10  22  35  53  74 103 144 177 219 270 321
#
# _framework density 19.021684
#
# number of rings (size 3 to 8) (size 9 to 14) (size 15 to 20)
#    0.000    2.273    0.909    1.909    1.273    4.727 
#    0.000    0.455    0.000    3.273    0.000    0.000 
#    0.000    0.000    0.000    0.000    0.000    0.000 
#
# Total GULP energy -545501.864906 kJ/mol
# GULP energy per Si atom -12397.769657 kJ/mol
# Density = 1.897839 g / cm^3
# Si number density = 19.021684 Si / 1000 Ang^3
#
#
#
# Elastic Constant Matrix: (Units=GPa)
#
#
# Indices 1 2 3 4 5 6 
#
# 1 13.6792 19.6732 19.8835 0.0000 0.0000 0.0000
# 2 19.6732 186.2926 67.5945 0.0000 0.0000 0.0000
# 3 19.8835 67.5945 117.6140 0.0000 0.0000 0.0000
# 4 0.0000 0.0000 0.0000 7.6449 0.0000 0.0000
# 5 0.0000 0.0000 0.0000 0.0000 -10.5511 0.0000
# 6 0.0000 0.0000 0.0000 0.0000 0.0000 45.3640
#
#
#
# Elastic Compliance Matrix: (Units=1/GPa)
#
#
# Indices 1 2 3 4 5 6 
#
# 1 0.101455 -0.005674 -0.013891 0.000000 0.000000 0.000000
# 2 -0.005674 0.007099 -0.003121 0.000000 0.000000 0.000000
# 3 -0.013891 -0.003121 0.012644 0.000000 0.000000 0.000000
# 4 0.000000 0.000000 0.000000 0.130806 0.000000 0.000000
# 5 0.000000 0.000000 0.000000 0.000000 -0.094777 0.000000
# 6 0.000000 0.000000 0.000000 0.000000 0.000000 0.022044
#
#
# Mechanical properties :
#
#
# Convention : Reuss Voigt Hill
#
# Bulk Modulus (GPa) = 13.18780 59.09868 36.14324
# Shear Modulus (GPa) = 20.00642 22.52053 21.26347
#
# Velocity S-wave (km/s) = 3.24662 3.44458 3.34706
# Velocity P-wave (km/s) = 4.58281 6.85250 5.82919
#
# Compressibility (1/GPa) = 0.07582766
#
# Stress axis : x y z
#
# Youngs Moduli (GPa) = 9.85656 140.85499 79.08635
#
# Poissons Ratio (x) = 0.79920 1.09858
# Poissons Ratio (y) = 0.05593 0.24683
# Poissons Ratio (z) = 0.13692 0.43960
#
# Static dielectric constant tensor:
#      x y z
#    x 3.071540 0.000000 0.000000 
#    y 0.000000 4.164670 0.000000 
#    z 0.000000 0.000000 3.538790 
# 
# 
# High freq. dielectric constant tensor:
#      x y z
#    x 1.693990 0.000000 0.000000 
#    y 0.000000 1.765070 0.000000 
#    z 0.000000 0.000000 1.750160 
# 
# From -- ./inp_files/71139.got.cif
#   From: 2010.03.12/outbox.cif.g09.slc.cpg/sg65_36_cif.got.tgz:71139.got - 2010.04.10 20:52:16.
