data_PCOD8267557
_publ_section_title
;
Structure prediction by ZEFSAII (Michael W. Deem and Ramdas Pophale) SiO2 
 PCOD8267557
Probable space group: C M M M
;
_chemical_formula_sum "Si O2"
_cell_formula_units_Z 72
_cell_length_a 8.592942
_cell_length_b 16.474113
_cell_length_c 24.811744
_cell_angle_alpha 90.000000
_cell_angle_beta 90.000000
_cell_angle_gamma 90.000000
_cell_volume 3512.377712
_symmetry_space_group_name_H-M "C M M M"
_symmetry_group_IT_number 65
_symmetry_cell_setting 'orthorhombic'
loop_
_space_group_symop_operation_xyz
x,y,z
-x,-y,z
x,-y,-z
-x,y,-z
-x,-y,-z
x,y,-z
-x,y,z
x,-y,z
1/2+x,1/2+y,z
1/2-x,1/2-y,z
1/2+x,1/2-y,-z
1/2-x,1/2+y,-z
1/2-x,1/2-y,-z
1/2+x,1/2+y,-z
1/2-x,1/2+y,z
1/2+x,1/2-y,z
loop_
_atom_site_type_symbol
_atom_site_label
_atom_site_fract_x
_atom_site_fract_y
_atom_site_fract_z
Si Si1 0.178274 0.000000 0.436380
Si Si2 0.184908 0.335759 0.832518
Si Si3 0.815834 0.337053 0.384598
Si Si4 0.184902 0.591417 0.058291
Si Si5 0.184483 0.588706 0.276071
O O1 0.256819 0.916119 0.416619
O O2 0.193513 0.000000 0.500000
O O3 0.000000 0.000000 0.417163
O O4 0.250000 0.250000 0.816819
O O5 0.256398 0.361287 0.890623
O O6 0.247119 0.391742 0.783839
O O7 0.000000 0.335859 0.835428
O O8 0.750000 0.250000 0.405561
O O9 0.762362 0.347860 0.322024
O O10 0.000000 0.334365 0.391248
O O11 0.247060 0.500000 0.061794
O O12 0.000000 0.591902 0.061983
O O13 0.237237 0.629010 0.000000
O O14 0.248782 0.500000 0.292337
O O15 0.000000 0.587643 0.273927
#
# Coordination Sequence:
#
# PCOD8267557 Si02
#       5
#     8  16  16  16  16
#     4  11  25  45  67  93 125 161 204 249 294 348
#     4  10  19  30  47  71 102 136 172 219 273 330
#     4  11  22  39  64  93 126 162 202 248 299 355
#     4   8  14  26  45  68  91 122 171 223 266 315
#     4   9  17  32  55  81 108 143 188 233 282 339
#
# _framework density 20.498934999999999
#
# number of rings (size 3 to 8) (size 9 to 14) (size 15 to 20)
#    0.000    2.333    1.111    3.000    0.000    4.444 
#    0.000    1.111    0.000    2.000    0.000    1.556 
#    0.000    0.000    0.000    0.000    0.000    0.000 
#
# Total GULP energy -445996.196317 kJ/mol
# GULP energy per Si atom -12388.783231 kJ/mol
# Density = 2.045228 g / cm^3
# Si number density = 20.498935 Si / 1000 Ang^3
#
#
#
# Elastic Constant Matrix: (Units=GPa)
#
#
# Indices 1 2 3 4 5 6 
#
# 1 48.5082 31.8086 31.6751 0.0000 0.0000 0.0000
# 2 31.8086 143.3829 47.0022 0.0000 0.0000 0.0000
# 3 31.6751 47.0022 111.2154 0.0000 0.0000 0.0000
# 4 0.0000 0.0000 0.0000 26.6860 0.0000 0.0000
# 5 0.0000 0.0000 0.0000 0.0000 14.9274 0.0000
# 6 0.0000 0.0000 0.0000 0.0000 0.0000 26.8700
#
#
#
# Elastic Compliance Matrix: (Units=1/GPa)
#
#
# Indices 1 2 3 4 5 6 
#
# 1 0.027219 -0.004059 -0.006037 0.000000 0.000000 0.000000
# 2 -0.004059 0.008701 -0.002521 0.000000 0.000000 0.000000
# 3 -0.006037 -0.002521 0.011776 0.000000 0.000000 0.000000
# 4 0.000000 0.000000 0.000000 0.037473 0.000000 0.000000
# 5 0.000000 0.000000 0.000000 0.000000 0.066991 0.000000
# 6 0.000000 0.000000 0.000000 0.000000 0.000000 0.037216
#
#
# Mechanical properties :
#
#
# Convention : Reuss Voigt Hill
#
# Bulk Modulus (GPa) = 44.51952 58.23092 51.37522
# Shear Modulus (GPa) = 22.51258 26.53807 24.52533
#
# Velocity S-wave (km/s) = 3.31755 3.60197 3.46268
# Velocity P-wave (km/s) = 6.03655 6.76516 6.41122
#
# Compressibility (1/GPa) = 0.02246206
#
# Stress axis : x y z
#
# Youngs Moduli (GPa) = 36.73931 114.92417 84.91601
#
# Poissons Ratio (x) = 0.46653 0.51260
# Poissons Ratio (y) = 0.14914 0.21409
# Poissons Ratio (z) = 0.22178 0.28975
#
# Static dielectric constant tensor:
#      x y z
#    x 3.241700 0.000000 0.000000 
#    y 0.000000 3.772440 0.000000 
#    z 0.000000 0.000000 4.179670 
# 
# 
# High freq. dielectric constant tensor:
#      x y z
#    x 1.752070 0.000000 0.000000 
#    y 0.000000 1.803910 0.000000 
#    z 0.000000 0.000000 1.820030 
# 
# From -- ./inp_files/72515.got.cif
#   From: 2010.03.12/outbox.cif.g09.slc.cpg/sg65_37_cif.got.tgz:72515.got - 2010.04.10 20:52:16.
