data_PCOD8267534
_publ_section_title
;
Structure prediction by ZEFSAII (Michael W. Deem and Ramdas Pophale) SiO2 
 PCOD8267534
Probable space group: C M M M
;
_chemical_formula_sum "Si O2"
_cell_formula_units_Z 120
_cell_length_a 20.304439
_cell_length_b 14.576055
_cell_length_c 23.353217
_cell_angle_alpha 90.000000
_cell_angle_beta 90.000000
_cell_angle_gamma 90.000000
_cell_volume 6911.585867
_symmetry_space_group_name_H-M "C M M M"
_symmetry_group_IT_number 65
_symmetry_cell_setting 'orthorhombic'
loop_
_space_group_symop_operation_xyz
x,y,z
-x,-y,z
x,-y,-z
-x,y,-z
-x,-y,-z
x,y,-z
-x,y,z
x,-y,z
1/2+x,1/2+y,z
1/2-x,1/2-y,z
1/2+x,1/2-y,-z
1/2-x,1/2+y,-z
1/2-x,1/2-y,-z
1/2+x,1/2+y,-z
1/2-x,1/2+y,z
1/2+x,1/2-y,z
loop_
_atom_site_type_symbol
_atom_site_label
_atom_site_fract_x
_atom_site_fract_y
_atom_site_fract_z
Si Si1 0.077585 0.892822 0.675136
Si Si2 0.578259 0.289782 0.437443
Si Si3 0.422564 0.900491 0.736413
Si Si4 0.572214 0.605362 0.884381
Si Si5 0.750000 0.750000 0.149384
Si Si6 0.879621 0.216152 0.783157
Si Si7 0.789355 0.893830 0.065259
Si Si8 0.078395 0.600254 0.391799
O O1 0.102343 0.857749 0.612847
O O2 0.118051 0.836631 0.722675
O O3 0.000000 0.873053 0.683466
O O4 0.093925 0.000000 0.680274
O O5 0.603355 0.324207 0.500000
O O6 0.500000 0.288236 0.436568
O O7 0.605366 0.185620 0.428815
O O8 0.500000 0.897569 0.732343
O O9 0.399153 0.822013 0.778745
O O10 0.394415 0.885466 0.672551
O O11 0.398918 0.000000 0.759990
O O12 0.500000 0.620541 0.914118
O O13 0.580016 0.500000 0.865526
O O14 0.571990 0.665079 0.826729
O O15 0.633152 0.632881 0.925403
O O16 0.807197 0.781004 0.191425
O O17 0.740253 0.836818 0.106569
O O18 0.777566 0.000000 0.079042
O O19 0.771507 0.870547 0.000000
O O20 0.102253 0.500000 0.415372
O O21 0.000000 0.601693 0.391636
#
# Coordination Sequence:
#
# PCOD8267534 Si02
#       8
#    16  16  16  16   8  16  16  16
#     4  10  19  30  47  69  93 126 161 192 237 296
#     4   9  16  25  38  61  94 126 154 189 234 288
#     4   9  16  26  43  64  85 113 148 185 230 284
#     4   9  17  28  46  75 103 125 154 191 231 277
#     4  10  23  34  48  72  97 124 162 202 232 274
#     4  11  19  31  46  64  92 128 157 195 239 281
#     4   9  18  34  54  73  98 131 161 192 232 276
#     4   8  13  22  36  56  83 114 148 185 225 273
#
# _framework density 17.362151000000001
#
# number of rings (size 3 to 8) (size 9 to 14) (size 15 to 20)
#    0.000    2.667    1.333    2.600    0.000    2.933 
#    0.000    4.000    0.000    0.000    0.000    0.467 
#    0.000    0.000    0.000   33.200    0.000    0.267 
#
# Total GULP energy -743358.375123 kJ/mol
# GULP energy per Si atom -12389.306252 kJ/mol
# Density = 1.732263 g / cm^3
# Si number density = 17.362151 Si / 1000 Ang^3
#
#
#
# Elastic Constant Matrix: (Units=GPa)
#
#
# Indices 1 2 3 4 5 6 
#
# 1 30.8695 18.8948 21.6877 0.0000 0.0000 0.0000
# 2 18.8948 112.3560 56.3129 0.0000 0.0000 0.0000
# 3 21.6877 56.3129 101.6570 0.0000 0.0000 0.0000
# 4 0.0000 0.0000 0.0000 34.3916 0.0000 0.0000
# 5 0.0000 0.0000 0.0000 0.0000 13.2815 0.0000
# 6 0.0000 0.0000 0.0000 0.0000 0.0000 18.5031
#
#
#
# Elastic Compliance Matrix: (Units=1/GPa)
#
#
# Indices 1 2 3 4 5 6 
#
# 1 0.038972 -0.003304 -0.006484 0.000000 0.000000 0.000000
# 2 -0.003304 0.012601 -0.006276 0.000000 0.000000 0.000000
# 3 -0.006484 -0.006276 0.014697 0.000000 0.000000 0.000000
# 4 0.000000 0.000000 0.000000 0.029077 0.000000 0.000000
# 5 0.000000 0.000000 0.000000 0.000000 0.075292 0.000000
# 6 0.000000 0.000000 0.000000 0.000000 0.000000 0.054045
#
#
# Mechanical properties :
#
#
# Convention : Reuss Voigt Hill
#
# Bulk Modulus (GPa) = 29.28882 48.74147 39.01514
# Shear Modulus (GPa) = 18.64329 23.10105 20.87217
#
# Velocity S-wave (km/s) = 3.28043 3.65162 3.47099
# Velocity P-wave (km/s) = 5.59055 6.77594 6.21159
#
# Compressibility (1/GPa) = 0.03414273
#
# Stress axis : x y z
#
# Youngs Moduli (GPa) = 25.65919 79.35726 68.04250
#
# Poissons Ratio (x) = 0.26220 0.44120
# Poissons Ratio (y) = 0.08478 0.42700
# Poissons Ratio (z) = 0.16638 0.49801
#
# Static dielectric constant tensor:
#      x y z
#    x 2.749440 0.000000 0.000000 
#    y 0.000000 3.201220 0.000000 
#    z 0.000000 0.000000 3.466460 
# 
# 
# High freq. dielectric constant tensor:
#      x y z
#    x 1.606420 0.000000 0.000000 
#    y 0.000000 1.685220 0.000000 
#    z 0.000000 0.000000 1.667620 
# 
# From -- ./inp_files/65567.got.cif
#   From: 2010.03.12/outbox.cif.g09.slc.cpg/sg65_33_cif.got.tgz:65567.got - 2010.04.10 20:52:16.
