data_PCOD8267747
_publ_section_title
;
Structure prediction by ZEFSAII (Michael W. Deem and Ramdas Pophale) SiO2 
 PCOD8267747
Probable space group: C M M M
;
_chemical_formula_sum "Si O2"
_cell_formula_units_Z 104
_cell_length_a 22.953978
_cell_length_b 20.304565
_cell_length_c 13.315002
_cell_angle_alpha 90.000000
_cell_angle_beta 90.000000
_cell_angle_gamma 90.000000
_cell_volume 6205.730150
_symmetry_space_group_name_H-M "C M M M"
_symmetry_group_IT_number 65
_symmetry_cell_setting 'orthorhombic'
loop_
_space_group_symop_operation_xyz
x,y,z
-x,-y,z
x,-y,-z
-x,y,-z
-x,-y,-z
x,y,-z
-x,y,z
x,-y,z
1/2+x,1/2+y,z
1/2-x,1/2-y,z
1/2+x,1/2-y,-z
1/2-x,1/2+y,-z
1/2-x,1/2-y,-z
1/2+x,1/2+y,-z
1/2-x,1/2+y,z
1/2+x,1/2-y,z
loop_
_atom_site_type_symbol
_atom_site_label
_atom_site_fract_x
_atom_site_fract_y
_atom_site_fract_z
Si Si1 0.394503 0.073757 0.117657
Si Si2 0.777361 0.575418 0.772732
Si Si3 0.433439 0.320641 0.883850
Si Si4 0.065614 0.693990 0.759026
Si Si5 0.142160 0.625437 0.617994
Si Si6 0.337322 0.423849 0.116432
Si Si7 0.065775 0.500000 0.618849
O O1 0.326395 0.084289 0.142099
O O2 0.432654 0.129007 0.171893
O O3 0.414205 0.000000 0.153193
O O4 0.404019 0.081247 0.000000
O O5 0.769467 0.500000 0.740729
O O6 0.795399 0.616318 0.672465
O O7 0.716926 0.602365 0.817719
O O8 0.500000 0.340273 0.860681
O O9 0.413549 0.256933 0.821894
O O10 0.393934 0.382414 0.852102
O O11 0.424980 0.302621 0.000000
O O12 0.108291 0.688724 0.662258
O O13 0.000000 0.703263 0.719574
O O14 0.151819 0.632301 0.500000
O O15 0.101718 0.564035 0.652971
O O16 0.351105 0.500000 0.138892
O O17 0.321378 0.413678 0.000000
O O18 0.061832 0.500000 0.500000
O O19 0.000000 0.500000 0.663481
#
# Coordination Sequence:
#
# PCOD8267747 Si02
#       7
#    16  16  16  16  16  16   8
#     4   9  17  28  41  59  87 124 164 201 231 264
#     4   9  16  28  46  68  95 124 154 192 241 287
#     4   9  18  33  51  72 100 128 152 187 237 291
#     4  10  20  31  45  64  91 128 165 197 238 288
#     4  10  19  31  46  67  93 124 163 206 245 277
#     4   9  17  30  52  79 100 120 151 188 232 293
#     4   9  16  26  42  64  89 117 154 201 245 275
#
# _framework density 16.758704999999999
#
# number of rings (size 3 to 8) (size 9 to 14) (size 15 to 20)
#    0.000    2.692    0.769    1.385    1.077    4.308 
#    0.000    5.385    0.000   10.154    0.000    0.000 
#    0.000    0.000    0.000    6.769    0.000    0.308 
#
# Total GULP energy -644681.334962 kJ/mol
# GULP energy per Si atom -12397.717980 kJ/mol
# Density = 1.672056 g / cm^3
# Si number density = 16.758705 Si / 1000 Ang^3
#
#
#
# Elastic Constant Matrix: (Units=GPa)
#
#
# Indices 1 2 3 4 5 6 
#
# 1 96.0801 50.1862 43.7381 0.0000 0.0000 0.0000
# 2 50.1862 75.6111 41.7333 0.0000 0.0000 0.0000
# 3 43.7381 41.7333 80.1827 0.0000 0.0000 0.0000
# 4 0.0000 0.0000 0.0000 18.2396 0.0000 0.0000
# 5 0.0000 0.0000 0.0000 0.0000 20.5351 0.0000
# 6 0.0000 0.0000 0.0000 0.0000 0.0000 23.3360
#
#
#
# Elastic Compliance Matrix: (Units=1/GPa)
#
#
# Indices 1 2 3 4 5 6 
#
# 1 0.017162 -0.008733 -0.004816 0.000000 0.000000 0.000000
# 2 -0.008733 0.023000 -0.007207 0.000000 0.000000 0.000000
# 3 -0.004816 -0.007207 0.018850 0.000000 0.000000 0.000000
# 4 0.000000 0.000000 0.000000 0.054826 0.000000 0.000000
# 5 0.000000 0.000000 0.000000 0.000000 0.048697 0.000000
# 6 0.000000 0.000000 0.000000 0.000000 0.000000 0.042852
#
#
# Mechanical properties :
#
#
# Convention : Reuss Voigt Hill
#
# Bulk Modulus (GPa) = 57.14620 58.13213 57.63916
# Shear Modulus (GPa) = 19.78372 20.16988 19.97680
#
# Velocity S-wave (km/s) = 3.43957 3.47298 3.45632
# Velocity P-wave (km/s) = 7.06737 7.13058 7.09904
#
# Compressibility (1/GPa) = 0.01749898
#
# Stress axis : x y z
#
# Youngs Moduli (GPa) = 58.26853 43.47836 53.05028
#
# Poissons Ratio (x) = 0.37968 0.25551
# Poissons Ratio (y) = 0.50884 0.38236
# Poissons Ratio (z) = 0.28064 0.31337
#
# Static dielectric constant tensor:
#      x y z
#    x 3.110860 0.000000 0.000000 
#    y 0.000000 3.026230 0.000000 
#    z 0.000000 0.000000 3.054890 
# 
# 
# High freq. dielectric constant tensor:
#      x y z
#    x 1.635980 0.000000 0.000000 
#    y 0.000000 1.622330 0.000000 
#    z 0.000000 0.000000 1.637090 
# 
# From -- ./inp_files/44632.got.cif
#   From: 2010.03.12/outbox.cif.g09.slc.cpg/sg65_23_cif.got.tgz:44632.got - 2010.04.10 20:52:16.
