data_PCOD8267280
_publ_section_title
;
Structure prediction by ZEFSAII (Michael W. Deem and Ramdas Pophale) SiO2 
 PCOD8267280
Probable space group: C M M M
;
_chemical_formula_sum "Si O2"
_cell_formula_units_Z 128
_cell_length_a 17.755266
_cell_length_b 26.600796
_cell_length_c 16.920234
_cell_angle_alpha 90.000000
_cell_angle_beta 90.000000
_cell_angle_gamma 90.000000
_cell_volume 7991.497732
_symmetry_space_group_name_H-M "C M M M"
_symmetry_group_IT_number 65
_symmetry_cell_setting 'orthorhombic'
loop_
_space_group_symop_operation_xyz
x,y,z
-x,-y,z
x,-y,-z
-x,y,-z
-x,-y,-z
x,y,-z
-x,y,z
x,-y,z
1/2+x,1/2+y,z
1/2-x,1/2-y,z
1/2+x,1/2-y,-z
1/2-x,1/2+y,-z
1/2-x,1/2-y,-z
1/2+x,1/2+y,-z
1/2-x,1/2+y,z
1/2+x,1/2-y,z
loop_
_atom_site_type_symbol
_atom_site_label
_atom_site_fract_x
_atom_site_fract_y
_atom_site_fract_z
Si Si1 0.584061 0.059007 0.088767
Si Si2 0.675529 0.872099 0.196010
Si Si3 0.671701 0.776432 0.087311
Si Si4 0.180269 0.130711 0.707110
Si Si5 0.414215 0.811089 0.681670
Si Si6 0.773440 0.306980 0.414856
Si Si7 0.585520 0.285273 0.787126
Si Si8 0.912385 0.058989 0.590972
O O1 0.500000 0.080565 0.104708
O O2 0.643314 0.080267 0.150610
O O3 0.583230 0.000000 0.099909
O O4 0.609043 0.073520 0.000000
O O5 0.687860 0.827150 0.134765
O O6 0.753669 0.890787 0.236242
O O7 0.613758 0.854393 0.259335
O O8 0.750000 0.750000 0.076568
O O9 0.617063 0.737989 0.132152
O O10 0.637642 0.788422 0.000000
O O11 0.219801 0.168351 0.647999
O O12 0.124467 0.162766 0.761806
O O13 0.137391 0.088125 0.656323
O O14 0.500000 0.822414 0.657220
O O15 0.361792 0.812322 0.604855
O O16 0.405710 0.755888 0.718714
O O17 0.761488 0.332820 0.500000
O O18 0.750000 0.250000 0.418485
O O19 0.500000 0.299463 0.803322
O O20 0.890808 0.073626 0.500000
O O21 0.000000 0.072235 0.605299
O O22 0.898065 0.000000 0.603869
#
# Coordination Sequence:
#
# PCOD8267280 Si02
#       8
#    16  16  16  16  16  16  16  16
#     4   9  18  33  51  71  97 125 156 200 247 287
#     4  10  19  29  50  72  97 127 162 198 237 288
#     4  10  19  32  48  67  95 131 166 196 233 276
#     4  11  19  31  50  72  97 127 156 198 245 294
#     4   9  18  30  45  64  91 126 160 195 233 273
#     4  10  19  30  45  64  93 126 158 195 233 279
#     4  10  19  31  46  67  94 124 160 201 240 281
#     4   9  19  36  55  74  97 125 161 206 251 296
#
# _framework density 16.017022999999998
#
# number of rings (size 3 to 8) (size 9 to 14) (size 15 to 20)
#    0.000    2.250    2.500    2.250    0.000    1.500 
#    0.000    0.000    0.000    0.000    0.000    0.000 
#    0.000    0.000    0.000   31.500    0.000    0.000 
#
# Total GULP energy -793257.557843 kJ/mol
# GULP energy per Si atom -12394.649341 kJ/mol
# Density = 1.598057 g / cm^3
# Si number density = 16.017023 Si / 1000 Ang^3
#
#
#
# Elastic Constant Matrix: (Units=GPa)
#
#
# Indices 1 2 3 4 5 6 
#
# 1 107.6510 37.3274 52.6740 0.0000 0.0000 0.0000
# 2 37.3274 51.7041 34.4414 0.0000 0.0000 0.0000
# 3 52.6740 34.4414 102.6293 0.0000 0.0000 0.0000
# 4 0.0000 0.0000 0.0000 36.3463 0.0000 0.0000
# 5 0.0000 0.0000 0.0000 0.0000 35.8894 0.0000
# 6 0.0000 0.0000 0.0000 0.0000 0.0000 23.3580
#
#
#
# Elastic Compliance Matrix: (Units=1/GPa)
#
#
# Indices 1 2 3 4 5 6 
#
# 1 0.014085 -0.006894 -0.004915 0.000000 0.000000 0.000000
# 2 -0.006894 0.028284 -0.005953 0.000000 0.000000 0.000000
# 3 -0.004915 -0.005953 0.014264 0.000000 0.000000 0.000000
# 4 0.000000 0.000000 0.000000 0.027513 0.000000 0.000000
# 5 0.000000 0.000000 0.000000 0.000000 0.027863 0.000000
# 6 0.000000 0.000000 0.000000 0.000000 0.000000 0.042812
#
#
# Mechanical properties :
#
#
# Convention : Reuss Voigt Hill
#
# Bulk Modulus (GPa) = 47.37704 56.76332 52.07018
# Shear Modulus (GPa) = 25.33144 28.28819 26.80981
#
# Velocity S-wave (km/s) = 3.98116 4.20710 4.09569
# Velocity P-wave (km/s) = 7.12575 7.68868 7.41256
#
# Compressibility (1/GPa) = 0.02110727
#
# Stress axis : x y z
#
# Youngs Moduli (GPa) = 70.99785 35.35597 70.10422
#
# Poissons Ratio (x) = 0.24375 0.34459
# Poissons Ratio (y) = 0.48948 0.41735
# Poissons Ratio (z) = 0.34898 0.21049
#
# Static dielectric constant tensor:
#      x y z
#    x 3.132200 0.000000 0.000000 
#    y 0.000000 2.819810 0.000000 
#    z 0.000000 0.000000 3.356030 
# 
# 
# High freq. dielectric constant tensor:
#      x y z
#    x 1.620790 0.000000 0.000000 
#    y 0.000000 1.593410 0.000000 
#    z 0.000000 0.000000 1.618090 
# 
# From -- ./inp_files/55133.got.cif
#   From: 2010.03.12/outbox.cif.g09.slc.cpg/sg65_28_cif.got.tgz:55133.got - 2010.04.10 20:52:16.
