data_PCOD8267566
_publ_section_title
;
Structure prediction by ZEFSAII (Michael W. Deem and Ramdas Pophale) SiO2 
 PCOD8267566
Probable space group: C M M M
;
_chemical_formula_sum "Si O2"
_cell_formula_units_Z 88
_cell_length_a 9.112298
_cell_length_b 25.604062
_cell_length_c 22.599030
_cell_angle_alpha 90.000000
_cell_angle_beta 90.000000
_cell_angle_gamma 90.000000
_cell_volume 5272.621338
_symmetry_space_group_name_H-M "C M M M"
_symmetry_group_IT_number 65
_symmetry_cell_setting 'orthorhombic'
loop_
_space_group_symop_operation_xyz
x,y,z
-x,-y,z
x,-y,-z
-x,y,-z
-x,-y,-z
x,y,-z
-x,y,z
x,-y,z
1/2+x,1/2+y,z
1/2-x,1/2-y,z
1/2+x,1/2-y,-z
1/2-x,1/2+y,-z
1/2-x,1/2-y,-z
1/2+x,1/2+y,-z
1/2-x,1/2+y,z
1/2+x,1/2-y,z
loop_
_atom_site_type_symbol
_atom_site_label
_atom_site_fract_x
_atom_site_fract_y
_atom_site_fract_z
Si Si1 0.672004 0.647125 0.326589
Si Si2 0.672234 0.414590 0.841924
Si Si3 0.168539 0.304170 0.565575
Si Si4 0.335528 0.941739 0.728007
Si Si5 0.829819 0.197134 0.797425
Si Si6 0.327841 0.500000 0.065073
O O1 0.500000 0.649377 0.338379
O O2 0.756743 0.660280 0.385953
O O3 0.722929 0.588717 0.313522
O O4 0.716447 0.682987 0.270131
O O5 0.500000 0.422316 0.826360
O O6 0.772464 0.442537 0.793914
O O7 0.707313 0.351912 0.841362
O O8 0.715198 0.445502 0.901975
O O9 0.181866 0.329741 0.500000
O O10 0.250000 0.250000 0.566143
O O11 0.000000 0.294935 0.582961
O O12 0.500000 0.917153 0.727622
O O13 0.342274 0.000000 0.703119
O O14 0.750000 0.250000 0.818561
O O15 0.000000 0.209884 0.800072
O O16 0.500000 0.500000 0.057440
O O17 0.252582 0.500000 0.000000
#
# Coordination Sequence:
#
# PCOD8267566 Si02
#       6
#    16  16  16  16  16   8
#     4  10  20  32  48  70  95 125 162 202 245 291
#     4   9  17  30  48  70  97 126 160 201 243 289
#     4  10  20  33  49  69  95 127 162 201 244 290
#     4  10  19  30  47  71  98 126 156 191 240 298
#     4   9  18  29  43  67  95 125 157 192 238 288
#     4   9  16  28  51  77  97 123 162 209 250 281
#
# _framework density 16.689990999999999
#
# number of rings (size 3 to 8) (size 9 to 14) (size 15 to 20)
#    0.000    2.455    0.909    3.273    0.000    7.273 
#    0.000    0.000    0.000    2.182    0.000    3.818 
#    0.000    0.000    0.000    0.000    0.000    0.364 
#
# Total GULP energy -545225.156979 kJ/mol
# GULP energy per Si atom -12391.480840 kJ/mol
# Density = 1.665200 g / cm^3
# Si number density = 16.689991 Si / 1000 Ang^3
#
#
#
# Elastic Constant Matrix: (Units=GPa)
#
#
# Indices 1 2 3 4 5 6 
#
# 1 70.7708 37.3792 38.0394 0.0000 0.0000 0.0000
# 2 37.3792 112.5634 54.0336 0.0000 0.0000 0.0000
# 3 38.0394 54.0336 108.5213 0.0000 0.0000 0.0000
# 4 0.0000 0.0000 0.0000 21.6998 0.0000 0.0000
# 5 0.0000 0.0000 0.0000 0.0000 16.6003 0.0000
# 6 0.0000 0.0000 0.0000 0.0000 0.0000 28.2793
#
#
#
# Elastic Compliance Matrix: (Units=1/GPa)
#
#
# Indices 1 2 3 4 5 6 
#
# 1 0.018703 -0.004026 -0.004551 0.000000 0.000000 0.000000
# 2 -0.004026 0.012541 -0.004833 0.000000 0.000000 0.000000
# 3 -0.004551 -0.004833 0.013216 0.000000 0.000000 0.000000
# 4 0.000000 0.000000 0.000000 0.046083 0.000000 0.000000
# 5 0.000000 0.000000 0.000000 0.000000 0.060240 0.000000
# 6 0.000000 0.000000 0.000000 0.000000 0.000000 0.035362
#
#
# Mechanical properties :
#
#
# Convention : Reuss Voigt Hill
#
# Bulk Modulus (GPa) = 56.69017 61.19555 58.94286
# Shear Modulus (GPa) = 22.84722 24.14276 23.49499
#
# Velocity S-wave (km/s) = 3.70390 3.80747 3.75604
# Velocity P-wave (km/s) = 7.23410 7.48830 7.36230
#
# Compressibility (1/GPa) = 0.01763974
#
# Stress axis : x y z
#
# Youngs Moduli (GPa) = 53.46778 79.74016 75.66326
#
# Poissons Ratio (x) = 0.32103 0.34436
# Poissons Ratio (y) = 0.21526 0.36567
# Poissons Ratio (z) = 0.24335 0.38538
#
# Static dielectric constant tensor:
#      x y z
#    x 3.186400 0.000000 0.000000 
#    y 0.000000 3.128940 0.000000 
#    z 0.000000 0.000000 3.362060 
# 
# 
# High freq. dielectric constant tensor:
#      x y z
#    x 1.647520 0.000000 0.000000 
#    y 0.000000 1.638670 0.000000 
#    z 0.000000 0.000000 1.616320 
# 
# From -- ./inp_files/60238.got.cif
#   From: 2010.03.12/outbox.cif.g09.slc.cpg/sg65_31_cif.got.tgz:60238.got - 2010.04.10 20:52:16.
