data_PCOD8267159
_publ_section_title
;
Structure prediction by ZEFSAII (Michael W. Deem and Ramdas Pophale) SiO2 
 PCOD8267159
Probable space group: C M M M
;
_chemical_formula_sum "Si O2"
_cell_formula_units_Z 88
_cell_length_a 21.641850
_cell_length_b 13.780872
_cell_length_c 16.099984
_cell_angle_alpha 90.000000
_cell_angle_beta 90.000000
_cell_angle_gamma 90.000000
_cell_volume 4801.716620
_symmetry_space_group_name_H-M "C M M M"
_symmetry_group_IT_number 65
_symmetry_cell_setting 'orthorhombic'
loop_
_space_group_symop_operation_xyz
x,y,z
-x,-y,z
x,-y,-z
-x,y,-z
-x,-y,-z
x,y,-z
-x,y,z
x,-y,z
1/2+x,1/2+y,z
1/2-x,1/2-y,z
1/2+x,1/2-y,-z
1/2-x,1/2+y,-z
1/2-x,1/2-y,-z
1/2+x,1/2+y,-z
1/2-x,1/2+y,z
1/2+x,1/2-y,z
loop_
_atom_site_type_symbol
_atom_site_label
_atom_site_fract_x
_atom_site_fract_y
_atom_site_fract_z
Si Si1 0.573150 0.108965 0.500000
Si Si2 0.884308 0.802665 0.093733
Si Si3 0.428769 0.605081 0.253263
Si Si4 0.744153 0.391636 0.092802
Si Si5 0.871506 0.608293 0.830063
Si Si6 0.426165 0.803031 0.327383
O O1 0.500000 0.101979 0.500000
O O2 0.595553 0.167857 0.419309
O O3 0.600997 0.000000 0.500000
O O4 0.920971 0.872528 0.155641
O O5 0.810622 0.815137 0.109357
O O6 0.902902 0.690725 0.112338
O O7 0.902924 0.830147 0.000000
O O8 0.500000 0.595923 0.274065
O O9 0.397376 0.500000 0.274057
O O10 0.401925 0.693189 0.309080
O O11 0.715534 0.500000 0.097783
O O12 0.797464 0.380694 0.161492
O O13 0.772202 0.374039 0.000000
O O14 0.891924 0.500000 0.858645
O O15 0.892195 0.623616 0.735187
O O16 0.500000 0.811917 0.315220
#
# Coordination Sequence:
#
# PCOD8267159 Si02
#       6
#     8  16  16  16  16  16
#     4   9  16  28  49  73  94 117 146 180 218 264
#     4  10  19  30  45  65  90 121 158 197 232 265
#     4   9  18  32  48  67  93 122 151 186 228 273
#     4   9  17  29  45  65  88 115 152 196 234 265
#     4  10  19  29  43  64  90 120 151 185 228 274
#     4   9  18  32  49  70  94 118 146 182 226 274
#
# _framework density 18.326779999999999
#
# number of rings (size 3 to 8) (size 9 to 14) (size 15 to 20)
#    0.000    2.636    0.000    2.182    0.000    5.091 
#    0.000    1.364    0.000    4.364    0.000   20.364 
#    0.000    8.727    0.000    0.000    0.000    0.000 
#
# Total GULP energy -545276.737727 kJ/mol
# GULP energy per Si atom -12392.653130 kJ/mol
# Density = 1.828507 g / cm^3
# Si number density = 18.326780 Si / 1000 Ang^3
#
#
#
# Elastic Constant Matrix: (Units=GPa)
#
#
# Indices 1 2 3 4 5 6 
#
# 1 22.4331 14.1271 19.8481 0.0000 0.0000 0.0000
# 2 14.1271 147.0227 54.4215 0.0000 0.0000 0.0000
# 3 19.8481 54.4215 116.6361 0.0000 0.0000 0.0000
# 4 0.0000 0.0000 0.0000 20.0442 0.0000 0.0000
# 5 0.0000 0.0000 0.0000 0.0000 13.2989 0.0000
# 6 0.0000 0.0000 0.0000 0.0000 0.0000 20.4357
#
#
#
# Elastic Compliance Matrix: (Units=1/GPa)
#
#
# Indices 1 2 3 4 5 6 
#
# 1 0.053020 -0.002121 -0.008033 0.000000 0.000000 0.000000
# 2 -0.002121 0.008307 -0.003515 0.000000 0.000000 0.000000
# 3 -0.008033 -0.003515 0.011581 0.000000 0.000000 0.000000
# 4 0.000000 0.000000 0.000000 0.049890 0.000000 0.000000
# 5 0.000000 0.000000 0.000000 0.000000 0.075194 0.000000
# 6 0.000000 0.000000 0.000000 0.000000 0.000000 0.048934
#
#
# Mechanical properties :
#
#
# Convention : Reuss Voigt Hill
#
# Bulk Modulus (GPa) = 21.94443 51.43170 36.68807
# Shear Modulus (GPa) = 17.27399 23.93543 20.60471
#
# Velocity S-wave (km/s) = 3.07344 3.61783 3.35669
# Velocity P-wave (km/s) = 4.95930 6.75102 5.92330
#
# Compressibility (1/GPa) = 0.04556964
#
# Stress axis : x y z
#
# Youngs Moduli (GPa) = 18.86080 120.38737 86.35131
#
# Poissons Ratio (x) = 0.25537 0.69364
# Poissons Ratio (y) = 0.04001 0.30351
# Poissons Ratio (z) = 0.15150 0.42314
#
# Static dielectric constant tensor:
#      x y z
#    x 3.002220 0.000000 0.000000 
#    y 0.000000 3.967300 0.000000 
#    z 0.000000 0.000000 3.264880 
# 
# 
# High freq. dielectric constant tensor:
#      x y z
#    x 1.665120 0.000000 0.000000 
#    y 0.000000 1.738910 0.000000 
#    z 0.000000 0.000000 1.682820 
# 
# From -- ./inp_files/45557.got.cif
#   From: 2010.03.12/outbox.cif.g09.slc.cpg/sg65_23_cif.got.tgz:45557.got - 2010.04.10 20:52:16.
