data_PCOD8267497
_publ_section_title
;
Structure prediction by ZEFSAII (Michael W. Deem and Ramdas Pophale) SiO2 
 PCOD8267497
Probable space group: C M M M
;
_chemical_formula_sum "Si O2"
_cell_formula_units_Z 104
_cell_length_a 23.406751
_cell_length_b 8.737332
_cell_length_c 28.124210
_cell_angle_alpha 90.000000
_cell_angle_beta 90.000000
_cell_angle_gamma 90.000000
_cell_volume 5751.754031
_symmetry_space_group_name_H-M "C M M M"
_symmetry_group_IT_number 65
_symmetry_cell_setting 'orthorhombic'
loop_
_space_group_symop_operation_xyz
x,y,z
-x,-y,z
x,-y,-z
-x,y,-z
-x,-y,-z
x,y,-z
-x,y,z
x,-y,z
1/2+x,1/2+y,z
1/2-x,1/2-y,z
1/2+x,1/2-y,-z
1/2-x,1/2+y,-z
1/2-x,1/2-y,-z
1/2+x,1/2+y,-z
1/2-x,1/2+y,z
1/2+x,1/2-y,z
loop_
_atom_site_type_symbol
_atom_site_label
_atom_site_fract_x
_atom_site_fract_y
_atom_site_fract_z
Si Si1 0.000000 0.322795 0.672944
Si Si2 0.811343 0.680299 0.638651
Si Si3 0.568232 0.827624 0.000000
Si Si4 0.000000 0.829089 0.578363
Si Si5 0.388276 0.319027 0.716521
Si Si6 0.567711 0.329037 0.905064
Si Si7 0.625123 0.325591 0.552276
Si Si8 0.066228 0.679687 0.807452
O O1 0.945153 0.237944 0.691950
O O2 0.000000 0.500000 0.688693
O O3 0.000000 0.306444 0.616682
O O4 0.807332 0.500000 0.644739
O O5 0.750000 0.750000 0.627855
O O6 0.834936 0.749249 0.687982
O O7 0.851300 0.716826 0.593504
O O8 0.592912 0.744485 0.046840
O O9 0.500000 0.824593 0.000000
O O10 0.591221 0.000000 0.000000
O O11 0.943244 0.809168 0.547236
O O12 0.000000 0.000000 0.602016
O O13 0.383435 0.500000 0.714714
O O14 0.390833 0.263057 0.771042
O O15 0.500000 0.333102 0.908969
O O16 0.592328 0.500000 0.899287
O O17 0.586133 0.228149 0.859962
O O18 0.650075 0.281484 0.500000
O O19 0.642063 0.500000 0.565205
O O20 0.073488 0.500000 0.801783
O O21 0.000000 0.727951 0.797787
#
# Coordination Sequence:
#
# PCOD8267497 Si02
#       8
#     8  16   8   8  16  16  16  16
#     4  12  22  33  53  83 111 140 173 212 257 311
#     4  12  26  44  63  82 106 137 177 220 262 313
#     4   9  15  23  35  51  77 119 170 217 260 303
#     4  10  19  34  58  86 117 147 173 207 253 308
#     4  12  23  37  57  80 107 139 173 215 266 318
#     4   9  16  25  37  56  85 123 169 215 260 308
#     4  10  21  38  61  88 116 145 176 212 257 308
#     4  10  19  30  46  70 101 133 170 215 262 312
#
# _framework density 18.081441000000002
#
# number of rings (size 3 to 8) (size 9 to 14) (size 15 to 20)
#    0.000    1.462    2.308    4.846    0.000    4.923 
#    0.000    0.000    0.000    1.385    0.000    0.000 
#    0.000    0.000    0.000    0.692    0.000    9.769 
#
# Total GULP energy -644747.165647 kJ/mol
# GULP energy per Si atom -12398.983955 kJ/mol
# Density = 1.804029 g / cm^3
# Si number density = 18.081441 Si / 1000 Ang^3
#
#
#
# Elastic Constant Matrix: (Units=GPa)
#
#
# Indices 1 2 3 4 5 6 
#
# 1 57.4590 26.9534 24.1709 0.0000 0.0000 0.0000
# 2 26.9534 137.1051 52.9996 0.0000 0.0000 0.0000
# 3 24.1709 52.9996 132.7772 0.0000 0.0000 0.0000
# 4 0.0000 0.0000 0.0000 30.5977 0.0000 0.0000
# 5 0.0000 0.0000 0.0000 0.0000 7.4778 0.0000
# 6 0.0000 0.0000 0.0000 0.0000 0.0000 23.7933
#
#
#
# Elastic Compliance Matrix: (Units=1/GPa)
#
#
# Indices 1 2 3 4 5 6 
#
# 1 0.019811 -0.002957 -0.002426 0.000000 0.000000 0.000000
# 2 -0.002957 0.009066 -0.003080 0.000000 0.000000 0.000000
# 3 -0.002426 -0.003080 0.009203 0.000000 0.000000 0.000000
# 4 0.000000 0.000000 0.000000 0.032682 0.000000 0.000000
# 5 0.000000 0.000000 0.000000 0.000000 0.133730 0.000000
# 6 0.000000 0.000000 0.000000 0.000000 0.000000 0.042029
#
#
# Mechanical properties :
#
#
# Convention : Reuss Voigt Hill
#
# Bulk Modulus (GPa) = 47.27507 59.50991 53.39249
# Shear Modulus (GPa) = 18.48439 27.25491 22.86965
#
# Velocity S-wave (km/s) = 3.20079 3.88666 3.56028
# Velocity P-wave (km/s) = 6.31367 7.28870 6.81864
#
# Compressibility (1/GPa) = 0.02115280
#
# Stress axis : x y z
#
# Youngs Moduli (GPa) = 50.47612 110.30549 108.66396
#
# Poissons Ratio (x) = 0.32615 0.26364
# Poissons Ratio (y) = 0.14925 0.33473
# Poissons Ratio (z) = 0.12247 0.33979
#
# Static dielectric constant tensor:
#      x y z
#    x 2.874100 0.000000 0.000000 
#    y 0.000000 3.492650 0.000000 
#    z 0.000000 0.000000 3.572970 
# 
# 
# High freq. dielectric constant tensor:
#      x y z
#    x 1.639470 0.000000 0.000000 
#    y 0.000000 1.713430 0.000000 
#    z 0.000000 0.000000 1.713310 
# 
# From -- ./inp_files/75846.got.cif
#   From: 2010.03.12/outbox.cif.g09.slc.cpg/sg65_38_cif.got.tgz:75846.got - 2010.04.10 20:52:16.
