data_PCOD8267133
_publ_section_title
;
Structure prediction by ZEFSAII (Michael W. Deem and Ramdas Pophale) SiO2 
 PCOD8267133
Probable space group: C M M M
;
_chemical_formula_sum "Si O2"
_cell_formula_units_Z 72
_cell_length_a 8.857053
_cell_length_b 29.788225
_cell_length_c 15.604997
_cell_angle_alpha 90.000000
_cell_angle_beta 90.000000
_cell_angle_gamma 90.000000
_cell_volume 4117.158235
_symmetry_space_group_name_H-M "C M M M"
_symmetry_group_IT_number 65
_symmetry_cell_setting 'orthorhombic'
loop_
_space_group_symop_operation_xyz
x,y,z
-x,-y,z
x,-y,-z
-x,y,-z
-x,-y,-z
x,y,-z
-x,y,z
x,-y,z
1/2+x,1/2+y,z
1/2-x,1/2-y,z
1/2+x,1/2-y,-z
1/2-x,1/2+y,-z
1/2-x,1/2-y,-z
1/2+x,1/2+y,-z
1/2-x,1/2+y,z
1/2+x,1/2-y,z
loop_
_atom_site_type_symbol
_atom_site_label
_atom_site_fract_x
_atom_site_fract_y
_atom_site_fract_z
Si Si1 0.321329 0.605624 0.675831
Si Si2 0.672656 0.053251 0.827523
Si Si3 0.676920 0.293079 0.674656
Si Si4 0.834846 0.596556 0.500000
Si Si5 0.329532 0.553377 0.000000
Si Si6 0.666101 0.200165 0.500000
O O1 0.500000 0.604695 0.665974
O O2 0.268853 0.573253 0.750702
O O3 0.268032 0.656590 0.700741
O O4 0.255613 0.585341 0.587077
O O5 0.500000 0.069427 0.821268
O O6 0.742146 0.071268 0.916482
O O7 0.684801 0.000000 0.822291
O O8 0.500000 0.288883 0.685793
O O9 0.750000 0.250000 0.726388
O O10 0.728636 0.285812 0.577926
O O11 0.866696 0.648391 0.500000
O O12 0.000000 0.571982 0.500000
O O13 0.331440 0.500000 0.000000
O O14 0.500000 0.572441 0.000000
O O15 0.500000 0.223791 0.500000
#
# Coordination Sequence:
#
# PCOD8267133 Si02
#       6
#    16  16  16   8   8   8
#     4  10  20  33  49  70  97 130 167 205 244 287
#     4  10  20  34  53  77 103 129 158 195 240 289
#     4  10  19  29  42  62  89 121 158 199 241 284
#     4   9  17  30  47  66  92 128 167 206 245 284
#     4   9  17  31  53  79 104 127 152 189 239 291
#     4   9  16  26  41  60  84 116 154 197 245 290
#
# _framework density 17.48779
#
# number of rings (size 3 to 8) (size 9 to 14) (size 15 to 20)
#    0.000    2.333    0.000    3.333    0.000    8.000 
#    0.000    0.556    0.000    3.333    0.000    0.778 
#    0.000    0.000    0.000    0.000    0.000    0.000 
#
# Total GULP energy -445972.994564 kJ/mol
# GULP energy per Si atom -12388.138738 kJ/mol
# Density = 1.744799 g / cm^3
# Si number density = 17.487790 Si / 1000 Ang^3
#
#
#
# Elastic Constant Matrix: (Units=GPa)
#
#
# Indices 1 2 3 4 5 6 
#
# 1 81.3525 19.4245 35.0008 0.0000 0.0000 0.0000
# 2 19.4245 29.1267 24.4456 0.0000 0.0000 0.0000
# 3 35.0008 24.4456 105.7105 0.0000 0.0000 0.0000
# 4 0.0000 0.0000 0.0000 -7.7912 0.0000 0.0000
# 5 0.0000 0.0000 0.0000 0.0000 28.4842 0.0000
# 6 0.0000 0.0000 0.0000 0.0000 0.0000 25.5597
#
#
#
# Elastic Compliance Matrix: (Units=1/GPa)
#
#
# Indices 1 2 3 4 5 6 
#
# 1 0.015553 -0.007508 -0.003414 0.000000 0.000000 0.000000
# 2 -0.007508 0.046225 -0.008204 0.000000 0.000000 0.000000
# 3 -0.003414 -0.008204 0.012487 0.000000 0.000000 0.000000
# 4 0.000000 0.000000 0.000000 -0.128350 0.000000 0.000000
# 5 0.000000 0.000000 0.000000 0.000000 0.035107 0.000000
# 6 0.000000 0.000000 0.000000 0.000000 0.000000 0.039124
#
#
# Mechanical properties :
#
#
# Convention : Reuss Voigt Hill
#
# Bulk Modulus (GPa) = 27.76574 41.54795 34.65685
# Shear Modulus (GPa) = 71.02054 18.40512 44.71283
#
# Velocity S-wave (km/s) = 6.37963 3.24768 5.06197
# Velocity P-wave (km/s) = 8.37723 6.15411 7.35020
#
# Compressibility (1/GPa) = 0.03601561
#
# Stress axis : x y z
#
# Youngs Moduli (GPa) = 64.29455 21.63335 80.08209
#
# Poissons Ratio (x) = 0.16241 0.27337
# Poissons Ratio (y) = 0.48269 0.65698
# Poissons Ratio (z) = 0.21948 0.17748
#
# Static dielectric constant tensor:
#      x y z
#    x 3.479940 0.000000 0.000000 
#    y 0.000000 3.362910 0.000000 
#    z 0.000000 0.000000 3.123380 
# 
# 
# High freq. dielectric constant tensor:
#      x y z
#    x 1.697280 0.000000 0.000000 
#    y 0.000000 1.661060 0.000000 
#    z 0.000000 0.000000 1.640800 
# 
# From -- ./inp_files/36634.got.cif
#   From: 2010.03.12/outbox.cif.g09.slc.cpg/sg65_19_cif.got.tgz:36634.got - 2010.04.10 20:52:16.
