data_PCOD8267459
_publ_section_title
;
Structure prediction by ZEFSAII (Michael W. Deem and Ramdas Pophale) SiO2 
 PCOD8267459
Probable space group: C M M M
;
_chemical_formula_sum "Si O2"
_cell_formula_units_Z 88
_cell_length_a 18.598697
_cell_length_b 9.056546
_cell_length_c 28.668339
_cell_angle_alpha 90.000000
_cell_angle_beta 90.000000
_cell_angle_gamma 90.000000
_cell_volume 4828.893729
_symmetry_space_group_name_H-M "C M M M"
_symmetry_group_IT_number 65
_symmetry_cell_setting 'orthorhombic'
loop_
_space_group_symop_operation_xyz
x,y,z
-x,-y,z
x,-y,-z
-x,y,-z
-x,-y,-z
x,y,-z
-x,y,z
x,-y,z
1/2+x,1/2+y,z
1/2-x,1/2-y,z
1/2+x,1/2-y,-z
1/2-x,1/2+y,-z
1/2-x,1/2-y,-z
1/2+x,1/2+y,-z
1/2-x,1/2+y,z
1/2+x,1/2-y,z
loop_
_atom_site_type_symbol
_atom_site_label
_atom_site_fract_x
_atom_site_fract_y
_atom_site_fract_z
Si Si1 0.418858 0.174918 0.411511
Si Si2 0.173264 0.324506 0.323111
Si Si3 0.579728 0.175349 0.865682
Si Si4 0.327663 0.824313 0.500000
Si Si5 0.325137 0.828150 0.051391
Si Si6 0.080821 0.324926 0.762762
O O1 0.500000 0.241153 0.412873
O O2 0.378669 0.227248 0.364823
O O3 0.372592 0.231353 0.455338
O O4 0.424241 0.000000 0.412987
O O5 0.183635 0.500000 0.322802
O O6 0.250000 0.250000 0.329509
O O7 0.136488 0.264390 0.275574
O O8 0.500000 0.239600 0.871725
O O9 0.626350 0.242658 0.907792
O O10 0.608913 0.222170 0.814381
O O11 0.577974 0.000000 0.869685
O O12 0.250000 0.750000 0.500000
O O13 0.317235 0.000000 0.500000
O O14 0.250000 0.750000 0.054267
O O15 0.312650 0.000000 0.060503
O O16 0.360185 0.802247 0.000000
O O17 0.076970 0.500000 0.758804
O O18 0.000000 0.262648 0.754078
#
# Coordination Sequence:
#
# PCOD8267459 Si02
#       6
#    16  16  16   8  16  16
#     4   9  17  30  49  70  89 115 154 190 215 248
#     4  10  19  30  46  68  92 116 144 180 219 258
#     4   8  14  25  42  64  86 107 138 181 219 248
#     4  10  19  31  49  71  95 120 146 182 224 262
#     4   9  17  28  42  61  85 112 140 171 210 255
#     4   8  14  26  44  64  85 111 144 179 213 251
#
# _framework density 18.223635000000002
#
# number of rings (size 3 to 8) (size 9 to 14) (size 15 to 20)
#    0.000    3.091    0.000    2.455    0.000    4.364 
#    0.000    1.818    0.000    4.909    0.000    5.091 
#    0.000    0.000    0.000    0.000    0.000    0.000 
#
# Total GULP energy -545289.896496 kJ/mol
# GULP energy per Si atom -12392.952193 kJ/mol
# Density = 1.818216 g / cm^3
# Si number density = 18.223635 Si / 1000 Ang^3
#
#
#
# Elastic Constant Matrix: (Units=GPa)
#
#
# Indices 1 2 3 4 5 6 
#
# 1 142.4849 20.8597 99.2085 0.0000 0.0000 0.0000
# 2 20.8597 12.9585 21.5926 0.0000 0.0000 0.0000
# 3 99.2085 21.5926 189.1517 0.0000 0.0000 0.0000
# 4 0.0000 0.0000 0.0000 9.7757 0.0000 0.0000
# 5 0.0000 0.0000 0.0000 0.0000 36.7499 0.0000
# 6 0.0000 0.0000 0.0000 0.0000 0.0000 21.0650
#
#
#
# Elastic Compliance Matrix: (Units=1/GPa)
#
#
# Indices 1 2 3 4 5 6 
#
# 1 0.012227 -0.011109 -0.005145 0.000000 0.000000 0.000000
# 2 -0.011109 0.105391 -0.006204 0.000000 0.000000 0.000000
# 3 -0.005145 -0.006204 0.008693 0.000000 0.000000 0.000000
# 4 0.000000 0.000000 0.000000 0.102294 0.000000 0.000000
# 5 0.000000 0.000000 0.000000 0.000000 0.027211 0.000000
# 6 0.000000 0.000000 0.000000 0.000000 0.000000 0.047472
#
#
# Mechanical properties :
#
#
# Convention : Reuss Voigt Hill
#
# Bulk Modulus (GPa) = 12.28586 69.76853 41.02719
# Shear Modulus (GPa) = 13.32141 27.04707 20.18424
#
# Velocity S-wave (km/s) = 2.70663 3.85668 3.33165
# Velocity P-wave (km/s) = 4.06499 7.62887 6.11244
#
# Compressibility (1/GPa) = 0.08139441
#
# Stress axis : x y z
#
# Youngs Moduli (GPa) = 81.78772 9.48852 115.03092
#
# Poissons Ratio (x) = 0.10541 0.59179
# Poissons Ratio (y) = 0.90861 0.71366
# Poissons Ratio (z) = 0.42077 0.05887
#
# Static dielectric constant tensor:
#      x y z
#    x 3.477910 0.000000 0.000000 
#    y 0.000000 2.753330 0.000000 
#    z 0.000000 0.000000 3.913390 
# 
# 
# High freq. dielectric constant tensor:
#      x y z
#    x 1.707580 0.000000 0.000000 
#    y 0.000000 1.638190 0.000000 
#    z 0.000000 0.000000 1.730200 
# 
# From -- ./inp_files/74237.got.cif
#   From: 2010.03.12/outbox.cif.g09.slc.cpg/sg65_38_cif.got.tgz:74237.got - 2010.04.10 20:52:16.
