data_PCOD8267909
_publ_section_title
;
Structure prediction by ZEFSAII (Michael W. Deem and Ramdas Pophale) SiO2 
 PCOD8267909
Probable space group: C M M M
;
_chemical_formula_sum "Si O2"
_cell_formula_units_Z 76
_cell_length_a 20.460502
_cell_length_b 17.791720
_cell_length_c 12.352998
_cell_angle_alpha 90.000000
_cell_angle_beta 90.000000
_cell_angle_gamma 90.000000
_cell_volume 4496.831259
_symmetry_space_group_name_H-M "C M M M"
_symmetry_group_IT_number 65
_symmetry_cell_setting 'orthorhombic'
loop_
_space_group_symop_operation_xyz
x,y,z
-x,-y,z
x,-y,-z
-x,y,-z
-x,-y,-z
x,y,-z
-x,y,z
x,-y,z
1/2+x,1/2+y,z
1/2-x,1/2-y,z
1/2+x,1/2-y,-z
1/2-x,1/2+y,-z
1/2-x,1/2-y,-z
1/2+x,1/2+y,-z
1/2-x,1/2+y,z
1/2+x,1/2-y,z
loop_
_atom_site_type_symbol
_atom_site_label
_atom_site_fract_x
_atom_site_fract_y
_atom_site_fract_z
Si Si1 0.375639 0.084452 0.871267
Si Si2 0.000000 0.821245 0.733308
Si Si3 0.133724 0.912148 0.264860
Si Si4 0.125469 0.084539 0.500000
Si Si5 0.755694 0.163780 0.872049
Si Si6 0.000000 0.815916 0.500000
Si Si7 0.500000 0.176518 0.128768
O O1 0.308682 0.121225 0.829443
O O2 0.436397 0.132751 0.827357
O O3 0.380850 0.000000 0.825054
O O4 0.377080 0.083293 0.000000
O O5 0.937206 0.874487 0.744732
O O6 0.000000 0.774357 0.617368
O O7 0.000000 0.760911 0.828351
O O8 0.164051 0.900715 0.386989
O O9 0.181112 0.872663 0.180630
O O10 0.127709 0.000000 0.235593
O O11 0.062394 0.133514 0.500000
O O12 0.099519 0.000000 0.500000
O O13 0.750000 0.250000 0.836476
O O14 0.763840 0.155897 0.000000
O O15 0.500000 0.181088 0.000000
#
# Coordination Sequence:
#
# PCOD8267909 Si02
#       7
#    16   8  16   8  16   4   8
#     4   9  17  30  48  69  92 121 159 197 231 273
#     4  10  19  31  48  71  98 127 156 190 232 277
#     4  10  19  32  50  71  96 125 159 195 232 278
#     4   8  15  28  47  69  91 118 154 198 238 268
#     4  10  20  33  48  68  97 131 161 191 233 283
#     4   8  15  28  46  66  89 122 162 192 220 270
#     4  10  19  31  49  73  97 118 147 195 247 282
#
# _framework density 16.900790000000001
#
# number of rings (size 3 to 8) (size 9 to 14) (size 15 to 20)
#    0.000    2.526    0.000    2.684    0.000    7.579 
#    0.000    0.526    0.000    3.158    0.000    2.947 
#    0.000    0.000    0.000    0.000    0.000    0.000 
#
# Total GULP energy -470875.066864 kJ/mol
# GULP energy per Si atom -12391.449128 kJ/mol
# Density = 1.686232 g / cm^3
# Si number density = 16.900790 Si / 1000 Ang^3
#
#
#
# Elastic Constant Matrix: (Units=GPa)
#
#
# Indices 1 2 3 4 5 6 
#
# 1 118.5660 55.6174 37.4443 0.0000 0.0000 0.0000
# 2 55.6174 123.8147 40.1853 0.0000 0.0000 0.0000
# 3 37.4443 40.1853 43.0053 0.0000 0.0000 0.0000
# 4 0.0000 0.0000 0.0000 16.3677 0.0000 0.0000
# 5 0.0000 0.0000 0.0000 0.0000 16.5361 0.0000
# 6 0.0000 0.0000 0.0000 0.0000 0.0000 34.1378
#
#
#
# Elastic Compliance Matrix: (Units=1/GPa)
#
#
# Indices 1 2 3 4 5 6 
#
# 1 0.012341 -0.002951 -0.007988 0.000000 0.000000 0.000000
# 2 -0.002951 0.012298 -0.008922 0.000000 0.000000 0.000000
# 3 -0.007988 -0.008922 0.038545 0.000000 0.000000 0.000000
# 4 0.000000 0.000000 0.000000 0.061096 0.000000 0.000000
# 5 0.000000 0.000000 0.000000 0.000000 0.060474 0.000000
# 6 0.000000 0.000000 0.000000 0.000000 0.000000 0.029293
#
#
# Mechanical properties :
#
#
# Convention : Reuss Voigt Hill
#
# Bulk Modulus (GPa) = 42.62190 61.32002 51.97096
# Shear Modulus (GPa) = 19.11398 23.55092 21.33245
#
# Velocity S-wave (km/s) = 3.36661 3.73698 3.55662
# Velocity P-wave (km/s) = 6.35498 7.41493 6.90532
#
# Compressibility (1/GPa) = 0.02346212
#
# Stress axis : x y z
#
# Youngs Moduli (GPa) = 81.03070 81.31429 25.94393
#
# Poissons Ratio (x) = 0.23997 0.20723
# Poissons Ratio (y) = 0.23913 0.23147
# Poissons Ratio (z) = 0.64724 0.72549
#
# Static dielectric constant tensor:
#      x y z
#    x 3.162150 0.000000 0.000000 
#    y 0.000000 3.206300 0.000000 
#    z 0.000000 0.000000 3.346920 
# 
# 
# High freq. dielectric constant tensor:
#      x y z
#    x 1.650930 0.000000 0.000000 
#    y 0.000000 1.653330 0.000000 
#    z 0.000000 0.000000 1.629760 
# 
# From -- ./inp_files/42431.got.cif
#   From: 2010.03.12/outbox.cif.g09.slc.cpg/sg65_22_cif.got.tgz:42431.got - 2010.04.10 20:52:16.
