data_PCOD8267054
_publ_section_title
;
Structure prediction by ZEFSAII (Michael W. Deem and Ramdas Pophale) SiO2 
 PCOD8267054
Probable space group: C M M M
;
_chemical_formula_sum "Si O2"
_cell_formula_units_Z 104
_cell_length_a 8.963452
_cell_length_b 26.990030
_cell_length_c 26.428515
_cell_angle_alpha 90.000000
_cell_angle_beta 90.000000
_cell_angle_gamma 90.000000
_cell_volume 6393.687792
_symmetry_space_group_name_H-M "C M M M"
_symmetry_group_IT_number 65
_symmetry_cell_setting 'orthorhombic'
loop_
_space_group_symop_operation_xyz
x,y,z
-x,-y,z
x,-y,-z
-x,y,-z
-x,-y,-z
x,y,-z
-x,y,z
x,-y,z
1/2+x,1/2+y,z
1/2-x,1/2-y,z
1/2+x,1/2-y,-z
1/2-x,1/2+y,-z
1/2-x,1/2-y,-z
1/2+x,1/2+y,-z
1/2-x,1/2+y,z
1/2+x,1/2-y,z
loop_
_atom_site_type_symbol
_atom_site_label
_atom_site_fract_x
_atom_site_fract_y
_atom_site_fract_z
Si Si1 0.671009 0.100814 0.404759
Si Si2 0.825067 0.303399 0.945072
Si Si3 0.327404 0.943613 0.298748
Si Si4 0.173476 0.852572 0.256895
Si Si5 0.675743 0.444125 0.500000
Si Si6 0.825347 0.196945 0.152040
Si Si7 0.674052 0.800199 0.348153
O O1 0.500000 0.094089 0.421261
O O2 0.710322 0.065629 0.357504
O O3 0.774079 0.085699 0.450875
O O4 0.704836 0.157646 0.389887
O O5 0.750000 0.250000 0.947037
O O6 0.746192 0.330705 0.897489
O O7 0.000000 0.298098 0.934353
O O8 0.798034 0.329823 0.000000
O O9 0.500000 0.930303 0.289151
O O10 0.227338 0.909041 0.263269
O O11 0.290369 0.000000 0.284802
O O12 0.208458 0.837776 0.199583
O O13 0.260479 0.815794 0.294036
O O14 0.000000 0.848579 0.269999
O O15 0.742508 0.500000 0.500000
O O16 0.500000 0.446429 0.500000
O O17 0.750000 0.250000 0.161380
O O18 0.000000 0.204727 0.143467
O O19 0.500000 0.791052 0.340379
O O20 0.750000 0.750000 0.367821
#
# Coordination Sequence:
#
# PCOD8267054 Si02
#       7
#    16  16  16  16   8  16  16
#     4   9  19  35  53  72  94 121 152 183 219 269
#     4   9  16  25  38  56  79 111 150 188 226 266
#     4   9  18  33  52  72  93 119 151 186 227 273
#     4  10  20  31  45  68  95 123 155 189 226 269
#     4  11  23  35  50  75 100 119 146 187 230 269
#     4  10  19  28  40  60  87 120 155 188 223 263
#     4  10  20  34  52  72  94 123 157 190 226 268
#
# _framework density 16.266043
#
# number of rings (size 3 to 8) (size 9 to 14) (size 15 to 20)
#    0.000    2.385    0.000    4.846    0.000    9.231 
#    0.000    0.385    0.000    0.000    0.000    0.000 
#    0.000    0.615    0.000    6.769    0.000    4.923 
#
# Total GULP energy -644667.465306 kJ/mol
# GULP energy per Si atom -12397.451256 kJ/mol
# Density = 1.622902 g / cm^3
# Si number density = 16.266043 Si / 1000 Ang^3
#
#
#
# Elastic Constant Matrix: (Units=GPa)
#
#
# Indices 1 2 3 4 5 6 
#
# 1 99.9292 44.5658 65.4864 0.0000 0.0000 0.0000
# 2 44.5658 81.6170 49.0037 0.0000 0.0000 0.0000
# 3 65.4864 49.0037 122.9608 0.0000 0.0000 0.0000
# 4 0.0000 0.0000 0.0000 15.7695 0.0000 0.0000
# 5 0.0000 0.0000 0.0000 0.0000 30.2388 0.0000
# 6 0.0000 0.0000 0.0000 0.0000 0.0000 24.7571
#
#
#
# Elastic Compliance Matrix: (Units=1/GPa)
#
#
# Indices 1 2 3 4 5 6 
#
# 1 0.016790 -0.004994 -0.006952 0.000000 0.000000 0.000000
# 2 -0.004994 0.017592 -0.004351 0.000000 0.000000 0.000000
# 3 -0.006952 -0.004351 0.013569 0.000000 0.000000 0.000000
# 4 0.000000 0.000000 0.000000 0.063414 0.000000 0.000000
# 5 0.000000 0.000000 0.000000 0.000000 0.033070 0.000000
# 6 0.000000 0.000000 0.000000 0.000000 0.000000 0.040392
#
#
# Mechanical properties :
#
#
# Convention : Reuss Voigt Hill
#
# Bulk Modulus (GPa) = 65.11686 69.17988 67.14837
# Shear Modulus (GPa) = 22.46791 23.84981 23.15886
#
# Velocity S-wave (km/s) = 3.72059 3.83330 3.77736
# Velocity P-wave (km/s) = 7.65352 7.88764 7.77146
#
# Compressibility (1/GPa) = 0.01535701
#
# Stress axis : x y z
#
# Youngs Moduli (GPa) = 59.55951 56.84494 73.69704
#
# Poissons Ratio (x) = 0.28388 0.51232
# Poissons Ratio (y) = 0.29744 0.32067
# Poissons Ratio (z) = 0.41404 0.24734
#
# Static dielectric constant tensor:
#      x y z
#    x 3.184640 0.000000 0.000000 
#    y 0.000000 2.982910 0.000000 
#    z 0.000000 0.000000 3.370050 
# 
# 
# High freq. dielectric constant tensor:
#      x y z
#    x 1.640130 0.000000 0.000000 
#    y 0.000000 1.594730 0.000000 
#    z 0.000000 0.000000 1.624750 
# 
# From -- ./inp_files/68205.got.cif
#   From: 2010.03.12/outbox.cif.g09.slc.cpg/sg65_35_cif.got.tgz:68205.got - 2010.04.10 20:52:16.
