data_PCOD8267023
_publ_section_title
;
Structure prediction by ZEFSAII (Michael W. Deem and Ramdas Pophale) SiO2 
 PCOD8267023
Probable space group: C M M M
;
_chemical_formula_sum "Si O2"
_cell_formula_units_Z 88
_cell_length_a 25.713652
_cell_length_b 18.353625
_cell_length_c 12.338097
_cell_angle_alpha 90.000000
_cell_angle_beta 90.000000
_cell_angle_gamma 90.000000
_cell_volume 5822.825782
_symmetry_space_group_name_H-M "C M M M"
_symmetry_group_IT_number 65
_symmetry_cell_setting 'orthorhombic'
loop_
_space_group_symop_operation_xyz
x,y,z
-x,-y,z
x,-y,-z
-x,y,-z
-x,-y,-z
x,y,-z
-x,y,z
x,-y,z
1/2+x,1/2+y,z
1/2-x,1/2-y,z
1/2+x,1/2-y,-z
1/2-x,1/2+y,-z
1/2-x,1/2-y,-z
1/2+x,1/2+y,-z
1/2-x,1/2+y,z
1/2+x,1/2-y,z
loop_
_atom_site_type_symbol
_atom_site_label
_atom_site_fract_x
_atom_site_fract_y
_atom_site_fract_z
Si Si1 0.561424 0.579436 0.500000
Si Si2 0.440214 0.413255 0.265524
Si Si3 0.057499 0.581731 0.128897
Si Si4 0.652603 0.825304 0.870865
Si Si5 0.750509 0.417844 0.129021
Si Si6 0.146528 0.160035 0.871344
O O1 0.587960 0.500000 0.500000
O O2 0.500000 0.568675 0.500000
O O3 0.576609 0.617671 0.385660
O O4 0.500000 0.393507 0.240226
O O5 0.432063 0.500000 0.260268
O O6 0.405745 0.373790 0.176257
O O7 0.069707 0.500000 0.170150
O O8 0.100615 0.636541 0.176201
O O9 0.000000 0.606223 0.168692
O O10 0.059329 0.582528 0.000000
O O11 0.702741 0.868199 0.825068
O O12 0.653893 0.742525 0.829929
O O13 0.653068 0.828110 0.000000
O O14 0.756876 0.500000 0.173273
O O15 0.695947 0.385627 0.170519
O O16 0.751675 0.417270 0.000000
O O17 0.141276 0.156942 0.000000
#
# Coordination Sequence:
#
# PCOD8267023 Si02
#       6
#     8  16  16  16  16  16
#     4   7  12  26  46  62  73  92 131 177 205 218
#     4   9  17  29  44  60  79 105 136 167 196 227
#     4   8  13  21  33  48  65  89 127 171 204 228
#     4   9  16  25  36  50  72 104 137 164 194 233
#     4   9  16  26  39  52  69  99 141 179 200 221
#     4  10  19  27  36  56  86 112 131 156 195 244
#
# _framework density 15.112938
#
# number of rings (size 3 to 8) (size 9 to 14) (size 15 to 20)
#    0.000    3.182    0.000    3.273    0.000    6.545 
#    0.000    2.727    0.000    0.000    0.000    2.545 
#    0.000    0.000    0.000    2.455    0.000   27.455 
#
# Total GULP energy -545209.870487 kJ/mol
# GULP energy per Si atom -12391.133420 kJ/mol
# Density = 1.507854 g / cm^3
# Si number density = 15.112938 Si / 1000 Ang^3
#
#
#
# Elastic Constant Matrix: (Units=GPa)
#
#
# Indices 1 2 3 4 5 6 
#
# 1 118.0884 65.7758 25.3689 0.0000 0.0000 0.0000
# 2 65.7758 103.7023 20.2445 0.0000 0.0000 0.0000
# 3 25.3689 20.2445 22.9368 0.0000 0.0000 0.0000
# 4 0.0000 0.0000 0.0000 4.9814 0.0000 0.0000
# 5 0.0000 0.0000 0.0000 0.0000 5.0407 0.0000
# 6 0.0000 0.0000 0.0000 0.0000 0.0000 22.6839
#
#
#
# Elastic Compliance Matrix: (Units=1/GPa)
#
#
# Indices 1 2 3 4 5 6 
#
# 1 0.014684 -0.007422 -0.009690 0.000000 0.000000 0.000000
# 2 -0.007422 0.015402 -0.005385 0.000000 0.000000 0.000000
# 3 -0.009690 -0.005385 0.059069 0.000000 0.000000 0.000000
# 4 0.000000 0.000000 0.000000 0.200747 0.000000 0.000000
# 5 0.000000 0.000000 0.000000 0.000000 0.198385 0.000000
# 6 0.000000 0.000000 0.000000 0.000000 0.000000 0.044084
#
#
# Mechanical properties :
#
#
# Convention : Reuss Voigt Hill
#
# Bulk Modulus (GPa) = 22.64488 51.94510 37.29499
# Shear Modulus (GPa) = 8.44473 15.43042 11.93758
#
# Velocity S-wave (km/s) = 2.36641 3.19879 2.81355
# Velocity P-wave (km/s) = 4.74160 6.93462 5.94019
#
# Compressibility (1/GPa) = 0.04416010
#
# Stress axis : x y z
#
# Youngs Moduli (GPa) = 68.10082 64.92723 16.92944
#
# Poissons Ratio (x) = 0.48189 0.16405
# Poissons Ratio (y) = 0.50545 0.09116
# Poissons Ratio (z) = 0.65991 0.34963
#
# Static dielectric constant tensor:
#      x y z
#    x 3.064220 0.000000 0.000000 
#    y 0.000000 2.987760 0.000000 
#    z 0.000000 0.000000 2.472500 
# 
# 
# High freq. dielectric constant tensor:
#      x y z
#    x 1.587460 0.000000 0.000000 
#    y 0.000000 1.577920 0.000000 
#    z 0.000000 0.000000 1.503660 
# 
# From -- ./inp_files/45866.got.cif
#   From: 2010.03.12/outbox.cif.g09.slc.cpg/sg65_23_cif.got.tgz:45866.got - 2010.04.10 20:52:16.
