data_PCOD8267644
_publ_section_title
;
Structure prediction by ZEFSAII (Michael W. Deem and Ramdas Pophale) SiO2 
 PCOD8267644
Probable space group: C M M M
;
_chemical_formula_sum "Si O2"
_cell_formula_units_Z 128
_cell_length_a 18.605527
_cell_length_b 18.510231
_cell_length_c 20.675288
_cell_angle_alpha 90.000000
_cell_angle_beta 90.000000
_cell_angle_gamma 90.000000
_cell_volume 7120.416245
_symmetry_space_group_name_H-M "C M M M"
_symmetry_group_IT_number 65
_symmetry_cell_setting 'orthorhombic'
loop_
_space_group_symop_operation_xyz
x,y,z
-x,-y,z
x,-y,-z
-x,y,-z
-x,-y,-z
x,y,-z
-x,y,z
x,-y,z
1/2+x,1/2+y,z
1/2-x,1/2-y,z
1/2+x,1/2-y,-z
1/2-x,1/2+y,-z
1/2-x,1/2-y,-z
1/2+x,1/2+y,-z
1/2-x,1/2+y,z
1/2+x,1/2-y,z
loop_
_atom_site_type_symbol
_atom_site_label
_atom_site_fract_x
_atom_site_fract_y
_atom_site_fract_z
Si Si1 0.915388 0.420161 0.570921
Si Si2 0.803500 0.082417 0.142474
Si Si3 0.662411 0.915801 0.928820
Si Si4 0.418685 0.319862 0.302090
Si Si5 0.578320 0.688119 0.153323
Si Si6 0.707751 0.583895 0.295683
Si Si7 0.852297 0.662958 0.687960
Si Si8 0.083210 0.654538 0.822273
O O1 0.887120 0.393986 0.500000
O O2 0.883848 0.500000 0.585789
O O3 0.894606 0.366021 0.626800
O O4 0.000000 0.424592 0.568650
O O5 0.734281 0.113646 0.105306
O O6 0.869440 0.131642 0.118018
O O7 0.791023 0.090280 0.218520
O O8 0.820265 0.000000 0.123287
O O9 0.595846 0.900790 0.880884
O O10 0.668972 0.000000 0.937867
O O11 0.651513 0.880120 0.000000
O O12 0.500000 0.317485 0.334401
O O13 0.431563 0.334119 0.227270
O O14 0.368164 0.386777 0.325735
O O15 0.370429 0.248038 0.312601
O O16 0.500000 0.685541 0.118935
O O17 0.612155 0.768434 0.151555
O O18 0.718995 0.500000 0.317064
O O19 0.769772 0.638137 0.321585
O O20 0.878348 0.628928 0.756268
O O21 0.000000 0.661335 0.804705
#
# Coordination Sequence:
#
# PCOD8267644 Si02
#       8
#    16  16  16  16  16  16  16  16
#     4   9  18  31  47  72 108 146 177 207 253 312
#     4   9  17  31  49  70  95 124 160 200 245 295
#     4  10  21  36  50  66  93 128 165 204 245 291
#     4   9  18  31  48  73 104 139 174 208 254 306
#     4   8  16  30  48  72  98 122 154 200 248 295
#     4  10  19  30  49  76 104 134 171 216 259 301
#     4  11  18  31  53  78 105 131 167 212 259 304
#     4  10  20  33  50  72  99 128 162 202 245 296
#
# _framework density 17.976476999999999
#
# number of rings (size 3 to 8) (size 9 to 14) (size 15 to 20)
#    0.000    2.500    1.250    3.000    0.000    2.000 
#    0.000    4.375    0.000    2.625    0.000    1.750 
#    0.000    0.000    0.000    5.250    0.000    3.000 
#
# Total GULP energy -792899.100975 kJ/mol
# GULP energy per Si atom -12389.048453 kJ/mol
# Density = 1.793556 g / cm^3
# Si number density = 17.976477 Si / 1000 Ang^3
#
#
#
# Elastic Constant Matrix: (Units=GPa)
#
#
# Indices 1 2 3 4 5 6 
#
# 1 90.4204 47.3227 13.9528 0.0000 0.0000 0.0000
# 2 47.3227 64.2460 26.3600 0.0000 0.0000 0.0000
# 3 13.9528 26.3600 69.6351 0.0000 0.0000 0.0000
# 4 0.0000 0.0000 0.0000 0.4616 0.0000 0.0000
# 5 0.0000 0.0000 0.0000 0.0000 15.1267 0.0000
# 6 0.0000 0.0000 0.0000 0.0000 0.0000 30.2809
#
#
#
# Elastic Compliance Matrix: (Units=1/GPa)
#
#
# Indices 1 2 3 4 5 6 
#
# 1 0.018163 -0.014071 0.001687 0.000000 0.000000 0.000000
# 2 -0.014071 0.029328 -0.008283 0.000000 0.000000 0.000000
# 3 0.001687 -0.008283 0.017158 0.000000 0.000000 0.000000
# 4 0.000000 0.000000 0.000000 2.166601 0.000000 0.000000
# 5 0.000000 0.000000 0.000000 0.000000 0.066108 0.000000
# 6 0.000000 0.000000 0.000000 0.000000 0.000000 0.033024
#
#
# Mechanical properties :
#
#
# Convention : Reuss Voigt Hill
#
# Bulk Modulus (GPa) = 42.88854 44.39693 43.64274
# Shear Modulus (GPa) = 2.10129 18.28490 10.19309
#
# Velocity S-wave (km/s) = 1.08234 3.19275 2.38381
# Velocity P-wave (km/s) = 5.04697 6.19212 5.64864
#
# Compressibility (1/GPa) = 0.02331625
#
# Stress axis : x y z
#
# Youngs Moduli (GPa) = 55.05563 34.09699 58.28245
#
# Poissons Ratio (x) = 0.47978 -0.09833
# Poissons Ratio (y) = 0.77470 0.48273
# Poissons Ratio (z) = -0.09289 0.28241
#
# Static dielectric constant tensor:
#      x y z
#    x 3.538240 0.000000 0.000000 
#    y 0.000000 3.389100 0.000000 
#    z 0.000000 0.000000 3.197030 
# 
# 
# High freq. dielectric constant tensor:
#      x y z
#    x 1.697880 0.000000 0.000000 
#    y 0.000000 1.689760 0.000000 
#    z 0.000000 0.000000 1.651550 
# 
# From -- ./inp_files/70688.got.cif
#   From: 2010.03.12/outbox.cif.g09.slc.cpg/sg65_36_cif.got.tgz:70688.got - 2010.04.10 20:52:16.
