data_PCOD8267907
_publ_section_title
;
Structure prediction by ZEFSAII (Michael W. Deem and Ramdas Pophale) SiO2 
 PCOD8267907
Probable space group: C M M M
;
_chemical_formula_sum "Si O2"
_cell_formula_units_Z 104
_cell_length_a 23.881787
_cell_length_b 8.833684
_cell_length_c 28.332201
_cell_angle_alpha 90.000000
_cell_angle_beta 90.000000
_cell_angle_gamma 90.000000
_cell_volume 5977.078977
_symmetry_space_group_name_H-M "C M M M"
_symmetry_group_IT_number 65
_symmetry_cell_setting 'orthorhombic'
loop_
_space_group_symop_operation_xyz
x,y,z
-x,-y,z
x,-y,-z
-x,y,-z
-x,-y,-z
x,y,-z
-x,y,z
x,-y,z
1/2+x,1/2+y,z
1/2-x,1/2-y,z
1/2+x,1/2-y,-z
1/2-x,1/2+y,-z
1/2-x,1/2-y,-z
1/2+x,1/2+y,-z
1/2-x,1/2+y,z
1/2+x,1/2-y,z
loop_
_atom_site_type_symbol
_atom_site_label
_atom_site_fract_x
_atom_site_fract_y
_atom_site_fract_z
Si Si1 0.106025 0.675501 0.802451
Si Si2 0.062902 0.321018 0.100510
Si Si3 0.688998 0.178241 0.278540
Si Si4 0.933483 0.666005 0.000000
Si Si5 0.121983 0.820489 0.634618
Si Si6 0.000000 0.178665 0.344322
Si Si7 0.809165 0.675227 0.554202
Si Si8 0.500000 0.322451 0.758876
O O1 0.090970 0.500000 0.795620
O O2 0.108698 0.716636 0.858506
O O3 0.162078 0.715408 0.772987
O O4 0.055575 0.773907 0.784407
O O5 0.058745 0.500000 0.093244
O O6 0.083358 0.250502 0.049681
O O7 0.000000 0.261447 0.114077
O O8 0.750000 0.250000 0.280211
O O9 0.650806 0.246325 0.319834
O O10 0.694269 0.000000 0.286972
O O11 0.905328 0.500000 0.000000
O O12 0.000000 0.651309 0.000000
O O13 0.146541 0.761681 0.585866
O O14 0.057051 0.769574 0.630208
O O15 0.129397 0.000000 0.639089
O O16 0.000000 0.252922 0.292672
O O17 0.000000 0.000000 0.339935
O O18 0.827203 0.696449 0.500000
O O19 0.805833 0.500000 0.568468
O O20 0.750000 0.750000 0.564557
O O21 0.500000 0.500000 0.754992
#
# Coordination Sequence:
#
# PCOD8267907 Si02
#       8
#    16  16  16   8  16   8  16   8
#     4  10  19  31  48  71  97 128 166 206 246 291
#     4   8  12  20  37  62  94 123 152 195 243 289
#     4  11  23  36  51  72  99 131 167 205 251 296
#     4   7  10  16  30  58  91 122 150 186 242 292
#     4  11  21  37  58  79 106 136 169 204 244 293
#     4   9  20  35  52  76 104 137 168 200 239 290
#     4  10  21  38  59  83 108 135 171 213 255 295
#     4  11  19  31  49  71 101 133 167 200 240 293
#
# _framework density 17.399802999999999
#
# number of rings (size 3 to 8) (size 9 to 14) (size 15 to 20)
#    0.000    2.231    2.308    3.000    0.000    1.538 
#    0.000    1.923    0.000    2.308    0.000    1.615 
#    0.000    0.000    0.000    0.000    0.000    0.000 
#
# Total GULP energy -644236.208644 kJ/mol
# GULP energy per Si atom -12389.157859 kJ/mol
# Density = 1.736020 g / cm^3
# Si number density = 17.399803 Si / 1000 Ang^3
#
#
#
# Elastic Constant Matrix: (Units=GPa)
#
#
# Indices 1 2 3 4 5 6 
#
# 1 115.0661 42.2062 71.0661 0.0000 0.0000 0.0000
# 2 42.2062 61.8477 37.3121 0.0000 0.0000 0.0000
# 3 71.0661 37.3121 136.3501 0.0000 0.0000 0.0000
# 4 0.0000 0.0000 0.0000 12.6794 0.0000 0.0000
# 5 0.0000 0.0000 0.0000 0.0000 25.3444 0.0000
# 6 0.0000 0.0000 0.0000 0.0000 0.0000 3.3115
#
#
#
# Elastic Compliance Matrix: (Units=1/GPa)
#
#
# Indices 1 2 3 4 5 6 
#
# 1 0.014707 -0.006482 -0.005891 0.000000 0.000000 0.000000
# 2 -0.006482 0.022223 -0.002703 0.000000 0.000000 0.000000
# 3 -0.005891 -0.002703 0.011144 0.000000 0.000000 0.000000
# 4 0.000000 0.000000 0.000000 0.078868 0.000000 0.000000
# 5 0.000000 0.000000 0.000000 0.000000 0.039457 0.000000
# 6 0.000000 0.000000 0.000000 0.000000 0.000000 0.301980
#
#
# Mechanical properties :
#
#
# Convention : Reuss Voigt Hill
#
# Bulk Modulus (GPa) = 55.79918 68.27033 62.03475
# Shear Modulus (GPa) = 9.91070 19.11234 14.51152
#
# Velocity S-wave (km/s) = 2.38919 3.31784 2.89105
# Velocity P-wave (km/s) = 6.30472 7.34839 6.84647
#
# Compressibility (1/GPa) = 0.01792141
#
# Stress axis : x y z
#
# Youngs Moduli (GPa) = 67.99521 44.99880 89.73165
#
# Poissons Ratio (x) = 0.29168 0.52865
# Poissons Ratio (y) = 0.44075 0.24253
# Poissons Ratio (z) = 0.40059 0.12162
#
# Static dielectric constant tensor:
#      x y z
#    x 3.075660 0.000000 0.000000 
#    y 0.000000 3.091840 0.000000 
#    z 0.000000 0.000000 3.700410 
# 
# 
# High freq. dielectric constant tensor:
#      x y z
#    x 1.643480 0.000000 0.000000 
#    y 0.000000 1.652950 0.000000 
#    z 0.000000 0.000000 1.688180 
# 
# From -- ./inp_files/78311.got.cif
#   From: 2010.03.12/outbox.cif.g09.slc.cpg/sg65_40_cif.got.tgz:78311.got - 2010.04.10 20:52:16.
