data_PCOD8267903
_publ_section_title
;
Structure prediction by ZEFSAII (Michael W. Deem and Ramdas Pophale) SiO2 
 PCOD8267903
Probable space group: C M M M
;
_chemical_formula_sum "Si O2"
_cell_formula_units_Z 104
_cell_length_a 21.827819
_cell_length_b 8.991549
_cell_length_c 29.439101
_cell_angle_alpha 90.000000
_cell_angle_beta 90.000000
_cell_angle_gamma 90.000000
_cell_volume 5777.891774
_symmetry_space_group_name_H-M "C M M M"
_symmetry_group_IT_number 65
_symmetry_cell_setting 'orthorhombic'
loop_
_space_group_symop_operation_xyz
x,y,z
-x,-y,z
x,-y,-z
-x,y,-z
-x,-y,-z
x,y,-z
-x,y,z
x,-y,z
1/2+x,1/2+y,z
1/2-x,1/2-y,z
1/2+x,1/2-y,-z
1/2-x,1/2+y,-z
1/2-x,1/2-y,-z
1/2+x,1/2+y,-z
1/2-x,1/2+y,z
1/2+x,1/2-y,z
loop_
_atom_site_type_symbol
_atom_site_label
_atom_site_fract_x
_atom_site_fract_y
_atom_site_fract_z
Si Si1 0.572275 0.666023 0.203816
Si Si2 0.812636 0.325473 0.052369
Si Si3 0.572756 0.169398 0.292664
Si Si4 0.429791 0.175773 0.889166
Si Si5 0.188058 0.671725 0.548603
Si Si6 0.893136 0.175815 0.384438
Si Si7 0.500000 0.676800 0.449187
O O1 0.500000 0.656992 0.208750
O O2 0.600440 0.500000 0.202399
O O3 0.599045 0.754139 0.247072
O O4 0.589911 0.752072 0.158224
O O5 0.804108 0.500000 0.059270
O O6 0.750000 0.250000 0.071976
O O7 0.876570 0.272193 0.075805
O O8 0.820293 0.280501 0.000000
O O9 0.500000 0.179527 0.294550
O O10 0.600125 0.254803 0.335182
O O11 0.595405 0.000000 0.293260
O O12 0.500000 0.224422 0.903815
O O13 0.428915 0.000000 0.883129
O O14 0.150372 0.683860 0.500000
O O15 0.194817 0.500000 0.562862
O O16 0.250000 0.750000 0.536189
O O17 0.167406 0.764944 0.592308
O O18 0.943136 0.235111 0.420191
O O19 0.894438 0.000000 0.378661
O O20 0.500000 0.500000 0.452327
O O21 0.500000 0.745353 0.500000
#
# Coordination Sequence:
#
# PCOD8267903 Si02
#       7
#    16  16  16  16  16  16   8
#     4   9  17  29  47  71  99 130 166 207 253 303
#     4   9  18  32  50  73 103 141 181 218 258 309
#     4  10  19  31  48  71 102 135 168 204 247 300
#     4   9  17  30  49  74 103 134 172 218 267 312
#     4  10  21  37  55  74  95 123 162 205 247 293
#     4  11  20  32  51  74 102 132 164 201 244 295
#     4   9  18  30  45  69 101 133 161 191 234 289
#
# _framework density 17.999645000000001
#
# number of rings (size 3 to 8) (size 9 to 14) (size 15 to 20)
#    0.000    2.385    0.769    2.308    0.000    4.923 
#    0.000    1.538    0.000    2.769    0.000    8.615 
#    0.000    0.000    0.000    0.000    0.000    0.000 
#
# Total GULP energy -644254.923910 kJ/mol
# GULP energy per Si atom -12389.517768 kJ/mol
# Density = 1.795868 g / cm^3
# Si number density = 17.999645 Si / 1000 Ang^3
#
#
#
# Elastic Constant Matrix: (Units=GPa)
#
#
# Indices 1 2 3 4 5 6 
#
# 1 78.2119 33.4317 57.8115 0.0000 0.0000 0.0000
# 2 33.4317 65.9371 51.3184 0.0000 0.0000 0.0000
# 3 57.8115 51.3184 134.4156 0.0000 0.0000 0.0000
# 4 0.0000 0.0000 0.0000 30.7029 0.0000 0.0000
# 5 0.0000 0.0000 0.0000 0.0000 452.1575 0.0000
# 6 0.0000 0.0000 0.0000 0.0000 0.0000 22.6589
#
#
#
# Elastic Compliance Matrix: (Units=1/GPa)
#
#
# Indices 1 2 3 4 5 6 
#
# 1 0.019777 -0.004848 -0.006655 0.000000 0.000000 0.000000
# 2 -0.004848 0.022766 -0.006607 0.000000 0.000000 0.000000
# 3 -0.006655 -0.006607 0.012824 0.000000 0.000000 0.000000
# 4 0.000000 0.000000 0.000000 0.032570 0.000000 0.000000
# 5 0.000000 0.000000 0.000000 0.000000 0.002212 0.000000
# 6 0.000000 0.000000 0.000000 0.000000 0.000000 0.044133
#
#
# Mechanical properties :
#
#
# Convention : Reuss Voigt Hill
#
# Bulk Modulus (GPa) = 52.22496 62.63199 57.42848
# Shear Modulus (GPa) = 28.26700 110.17073 69.21887
#
# Velocity S-wave (km/s) = 3.96715 7.83199 6.20799
# Velocity P-wave (km/s) = 7.07544 10.80086 9.13018
#
# Compressibility (1/GPa) = 0.01914793
#
# Stress axis : x y z
#
# Youngs Moduli (GPa) = 50.56288 43.92525 77.97629
#
# Poissons Ratio (x) = 0.21294 0.51896
# Poissons Ratio (y) = 0.24512 0.51517
# Poissons Ratio (z) = 0.33651 0.29020
#
# Static dielectric constant tensor:
#      x y z
#    x 3.200820 0.000000 0.000000 
#    y 0.000000 3.358520 0.000000 
#    z 0.000000 0.000000 3.770600 
# 
# 
# High freq. dielectric constant tensor:
#      x y z
#    x 1.662970 0.000000 0.000000 
#    y 0.000000 1.698890 0.000000 
#    z 0.000000 0.000000 1.702420 
# 
# From -- ./inp_files/75803.got.cif
#   From: 2010.03.12/outbox.cif.g09.slc.cpg/sg65_38_cif.got.tgz:75803.got - 2010.04.10 20:52:16.
