data_PCOD8267111
_publ_section_title
;
Structure prediction by ZEFSAII (Michael W. Deem and Ramdas Pophale) SiO2 
 PCOD8267111
Probable space group: C M M M
;
_chemical_formula_sum "Si O2"
_cell_formula_units_Z 104
_cell_length_a 19.760298
_cell_length_b 30.854434
_cell_length_c 11.278079
_cell_angle_alpha 90.000000
_cell_angle_beta 90.000000
_cell_angle_gamma 90.000000
_cell_volume 6876.163682
_symmetry_space_group_name_H-M "C M M M"
_symmetry_group_IT_number 65
_symmetry_cell_setting 'orthorhombic'
loop_
_space_group_symop_operation_xyz
x,y,z
-x,-y,z
x,-y,-z
-x,y,-z
-x,-y,-z
x,y,-z
-x,y,z
x,-y,z
1/2+x,1/2+y,z
1/2-x,1/2-y,z
1/2+x,1/2-y,-z
1/2-x,1/2+y,-z
1/2-x,1/2-y,-z
1/2+x,1/2+y,-z
1/2-x,1/2+y,z
1/2+x,1/2-y,z
loop_
_atom_site_type_symbol
_atom_site_label
_atom_site_fract_x
_atom_site_fract_y
_atom_site_fract_z
Si Si1 0.605359 0.953179 0.000000
Si Si2 0.802115 0.628410 0.364313
Si Si3 0.500000 0.051279 0.634617
Si Si4 0.922994 0.670334 0.748434
Si Si5 0.074184 0.238872 0.364254
Si Si6 0.643164 0.048282 0.742208
Si Si7 0.426657 0.857757 0.000000
Si Si8 0.215483 0.206310 0.638907
O O1 0.651785 0.952283 0.116446
O O2 0.561138 0.909724 0.000000
O O3 0.564569 0.000000 0.000000
O O4 0.784656 0.620909 0.500000
O O5 0.877608 0.647302 0.350233
O O6 0.799118 0.580992 0.304299
O O7 0.748933 0.662751 0.305867
O O8 0.500000 0.070082 0.500000
O O9 0.567923 0.065783 0.705325
O O10 0.500000 0.000000 0.629916
O O11 0.920482 0.721511 0.726528
O O12 0.891091 0.658847 0.878746
O O13 0.000000 0.652657 0.736359
O O14 0.082789 0.255688 0.500000
O O15 0.134847 0.205567 0.334401
O O16 0.000000 0.216476 0.349240
O O17 0.655571 0.000000 0.689623
O O18 0.500000 0.835257 0.000000
O O19 0.231641 0.205405 0.500000
O O20 0.250000 0.250000 0.692386
#
# Coordination Sequence:
#
# PCOD8267111 Si02
#       8
#     8  16   8  16  16  16   8  16
#     4  10  20  31  44  55  69 102 148 188 219 251
#     4  11  20  28  44  63  82 112 138 173 220 255
#     4   9  18  31  43  57  81 108 137 181 223 249
#     4  10  19  29  41  59  81 110 145 177 213 251
#     4   9  16  28  47  67  87 111 140 175 211 250
#     4  10  21  33  43  58  79 108 144 181 217 253
#     4  10  20  31  40  54  78 107 145 190 217 243
#     4   9  16  27  41  63  91 113 136 168 209 254
#
# _framework density 15.124713
#
# number of rings (size 3 to 8) (size 9 to 14) (size 15 to 20)
#    0.000    2.231    3.077    0.923    2.154    2.000 
#    0.000    0.000    0.000    2.769    0.000    0.000 
#    0.000    0.615    0.000    6.000    0.000    4.308 
#
# Total GULP energy -644201.956095 kJ/mol
# GULP energy per Si atom -12388.499156 kJ/mol
# Density = 1.509029 g / cm^3
# Si number density = 15.124713 Si / 1000 Ang^3
#
#
#
# Elastic Constant Matrix: (Units=GPa)
#
#
# Indices 1 2 3 4 5 6 
#
# 1 77.4046 50.9150 18.2221 0.0000 0.0000 0.0000
# 2 50.9150 97.5192 26.4630 0.0000 0.0000 0.0000
# 3 18.2221 26.4630 58.9290 0.0000 0.0000 0.0000
# 4 0.0000 0.0000 0.0000 18.4321 0.0000 0.0000
# 5 0.0000 0.0000 0.0000 0.0000 5.2007 0.0000
# 6 0.0000 0.0000 0.0000 0.0000 0.0000 25.3009
#
#
#
# Elastic Compliance Matrix: (Units=1/GPa)
#
#
# Indices 1 2 3 4 5 6 
#
# 1 0.019823 -0.009892 -0.001688 0.000000 0.000000 0.000000
# 2 -0.009892 0.016613 -0.004402 0.000000 0.000000 0.000000
# 3 -0.001688 -0.004402 0.019468 0.000000 0.000000 0.000000
# 4 0.000000 0.000000 0.000000 0.054253 0.000000 0.000000
# 5 0.000000 0.000000 0.000000 0.000000 0.192282 0.000000
# 6 0.000000 0.000000 0.000000 0.000000 0.000000 0.039524
#
#
# Mechanical properties :
#
#
# Convention : Reuss Voigt Hill
#
# Bulk Modulus (GPa) = 41.76726 47.22813 44.49769
# Shear Modulus (GPa) = 13.09219 19.00359 16.04789
#
# Velocity S-wave (km/s) = 2.94533 3.54850 3.26089
# Velocity P-wave (km/s) = 6.26433 6.93417 6.60774
#
# Compressibility (1/GPa) = 0.02394220
#
# Stress axis : x y z
#
# Youngs Moduli (GPa) = 50.44665 60.19268 51.36602
#
# Poissons Ratio (x) = 0.59540 0.08669
# Poissons Ratio (y) = 0.49900 0.22610
# Poissons Ratio (z) = 0.08514 0.26495
#
# Static dielectric constant tensor:
#      x y z
#    x 2.754740 0.000000 0.000000 
#    y 0.000000 2.994630 0.000000 
#    z 0.000000 0.000000 2.917250 
# 
# 
# High freq. dielectric constant tensor:
#      x y z
#    x 1.532290 0.000000 0.000000 
#    y 0.000000 1.568720 0.000000 
#    z 0.000000 0.000000 1.568030 
# 
# From -- ./inp_files/27762.got.cif
#   From: 2010.03.12/outbox.cif.g09.slc.cpg/sg65_14_cif.got.tgz:27762.got - 2010.04.10 20:52:16.
