data_PCOD8267640
_publ_section_title
;
Structure prediction by ZEFSAII (Michael W. Deem and Ramdas Pophale) SiO2 
 PCOD8267640
Probable space group: C M M M
;
_chemical_formula_sum "Si O2"
_cell_formula_units_Z 96
_cell_length_a 24.073264
_cell_length_b 23.971032
_cell_length_c 9.316470
_cell_angle_alpha 90.000000
_cell_angle_beta 90.000000
_cell_angle_gamma 90.000000
_cell_volume 5376.171324
_symmetry_space_group_name_H-M "C M M M"
_symmetry_group_IT_number 65
_symmetry_cell_setting 'orthorhombic'
loop_
_space_group_symop_operation_xyz
x,y,z
-x,-y,z
x,-y,-z
-x,y,-z
-x,-y,-z
x,y,-z
-x,y,z
x,-y,z
1/2+x,1/2+y,z
1/2-x,1/2-y,z
1/2+x,1/2-y,-z
1/2-x,1/2+y,-z
1/2-x,1/2-y,-z
1/2+x,1/2+y,-z
1/2-x,1/2+y,z
1/2+x,1/2-y,z
loop_
_atom_site_type_symbol
_atom_site_label
_atom_site_fract_x
_atom_site_fract_y
_atom_site_fract_z
Si Si1 0.656899 0.226989 0.665761
Si Si2 0.866140 0.562964 0.834188
Si Si3 0.658151 0.355546 0.331739
Si Si4 0.562348 0.857303 0.333232
Si Si5 0.561930 0.437314 0.329688
Si Si6 0.268713 0.147368 0.168060
O O1 0.673133 0.217436 0.500000
O O2 0.644467 0.291154 0.699137
O O3 0.600642 0.195062 0.708715
O O4 0.708280 0.204335 0.760176
O O5 0.855338 0.500000 0.783727
O O6 0.918299 0.587365 0.748559
O O7 0.810872 0.597391 0.799904
O O8 0.881868 0.566398 0.000000
O O9 0.669143 0.366442 0.500000
O O10 0.607045 0.392885 0.272487
O O11 0.712046 0.372389 0.241645
O O12 0.566336 0.870994 0.500000
O O13 0.500000 0.841946 0.286575
O O14 0.561122 0.435183 0.500000
O O15 0.500000 0.421773 0.272379
O O16 0.577871 0.500000 0.278320
O O17 0.259626 0.158229 0.000000
#
# Coordination Sequence:
#
# PCOD8267640 Si02
#       6
#    16  16  16  16  16  16
#     4   9  18  32  48  68  97 128 156 191 234 278
#     4   9  19  35  51  67  91 125 162 196 232 278
#     4  10  19  30  49  75  97 122 158 194 230 277
#     4   9  18  32  49  70  96 124 155 194 238 279
#     4   8  15  29  48  71  99 126 153 190 233 275
#     4  10  20  33  49  69  95 126 158 194 236 279
#
# _framework density 17.856573999999998
#
# number of rings (size 3 to 8) (size 9 to 14) (size 15 to 20)
#    0.000    2.833    0.000    1.500    0.000    5.667 
#    0.000    5.000    0.000    0.500    0.000    3.500 
#    0.000    0.000    0.000    0.000    0.000    0.000 
#
# Total GULP energy -595186.548466 kJ/mol
# GULP energy per Si atom -12399.719760 kJ/mol
# Density = 1.781593 g / cm^3
# Si number density = 17.856574 Si / 1000 Ang^3
#
#
#
# Elastic Constant Matrix: (Units=GPa)
#
#
# Indices 1 2 3 4 5 6 
#
# 1 136.8823 57.2695 43.2528 0.0000 0.0000 0.0000
# 2 57.2695 99.0798 28.8309 0.0000 0.0000 0.0000
# 3 43.2528 28.8309 43.7510 0.0000 0.0000 0.0000
# 4 0.0000 0.0000 0.0000 17.8198 0.0000 0.0000
# 5 0.0000 0.0000 0.0000 0.0000 19.9496 0.0000
# 6 0.0000 0.0000 0.0000 0.0000 0.0000 27.2956
#
#
#
# Elastic Compliance Matrix: (Units=1/GPa)
#
#
# Indices 1 2 3 4 5 6 
#
# 1 0.011935 -0.004287 -0.008974 0.000000 0.000000 0.000000
# 2 -0.004287 0.014027 -0.005005 0.000000 0.000000 0.000000
# 3 -0.008974 -0.005005 0.035027 0.000000 0.000000 0.000000
# 4 0.000000 0.000000 0.000000 0.056117 0.000000 0.000000
# 5 0.000000 0.000000 0.000000 0.000000 0.050126 0.000000
# 6 0.000000 0.000000 0.000000 0.000000 0.000000 0.036636
#
#
# Mechanical properties :
#
#
# Convention : Reuss Voigt Hill
#
# Bulk Modulus (GPa) = 40.88936 59.82437 50.35687
# Shear Modulus (GPa) = 20.11641 23.03699 21.57670
#
# Velocity S-wave (km/s) = 3.36006 3.59571 3.47988
# Velocity P-wave (km/s) = 6.16456 7.12841 6.66394
#
# Compressibility (1/GPa) = 0.02445624
#
# Stress axis : x y z
#
# Youngs Moduli (GPa) = 83.78830 71.28879 28.54974
#
# Poissons Ratio (x) = 0.30563 0.25620
# Poissons Ratio (y) = 0.35922 0.14290
# Poissons Ratio (z) = 0.75189 0.35682
#
# Static dielectric constant tensor:
#      x y z
#    x 3.505650 0.000000 0.000000 
#    y 0.000000 3.439310 0.000000 
#    z 0.000000 0.000000 3.120570 
# 
# 
# High freq. dielectric constant tensor:
#      x y z
#    x 1.695130 0.000000 0.000000 
#    y 0.000000 1.691970 0.000000 
#    z 0.000000 0.000000 1.667850 
# 
# From -- ./inp_files/14281.got.cif
#   From: 2010.03.12/outbox.cif.g09.slc.cpg/sg65_8_cif.got.tgz:14281.got - 2010.04.10 20:52:16.
