data_PCOD8267515
_publ_section_title
;
Structure prediction by ZEFSAII (Michael W. Deem and Ramdas Pophale) SiO2 
 PCOD8267515
Probable space group: C M M M
;
_chemical_formula_sum "Si O2"
_cell_formula_units_Z 104
_cell_length_a 23.156189
_cell_length_b 8.899485
_cell_length_c 28.222882
_cell_angle_alpha 90.000000
_cell_angle_beta 90.000000
_cell_angle_gamma 90.000000
_cell_volume 5816.119498
_symmetry_space_group_name_H-M "C M M M"
_symmetry_group_IT_number 65
_symmetry_cell_setting 'orthorhombic'
loop_
_space_group_symop_operation_xyz
x,y,z
-x,-y,z
x,-y,-z
-x,y,-z
-x,-y,-z
x,y,-z
-x,y,z
x,-y,z
1/2+x,1/2+y,z
1/2-x,1/2-y,z
1/2+x,1/2-y,-z
1/2-x,1/2+y,-z
1/2-x,1/2-y,-z
1/2+x,1/2+y,-z
1/2-x,1/2+y,z
1/2+x,1/2-y,z
loop_
_atom_site_type_symbol
_atom_site_label
_atom_site_fract_x
_atom_site_fract_y
_atom_site_fract_z
Si Si1 0.881077 0.327435 0.734283
Si Si2 0.500000 0.821368 0.221006
Si Si3 0.812732 0.823067 0.652946
Si Si4 0.188148 0.176349 0.000000
Si Si5 0.311404 0.173699 0.171866
Si Si6 0.116261 0.821768 0.091191
Si Si7 0.000000 0.320939 0.112866
Si Si8 0.688641 0.324663 0.549932
O O1 0.887747 0.500000 0.718972
O O2 0.942798 0.263092 0.751979
O O3 0.860487 0.233208 0.689449
O O4 0.833099 0.310349 0.774714
O O5 0.500000 0.761423 0.167165
O O6 0.500000 0.000000 0.218739
O O7 0.750000 0.750000 0.661704
O O8 0.839284 0.779499 0.600638
O O9 0.804589 0.000000 0.659347
O O10 0.250000 0.250000 0.000000
O O11 0.154118 0.229150 0.953512
O O12 0.197014 0.000000 0.000000
O O13 0.250000 0.250000 0.166701
O O14 0.355933 0.259730 0.138912
O O15 0.307546 0.000000 0.156386
O O16 0.054451 0.744883 0.085039
O O17 0.109565 0.000000 0.094279
O O18 0.000000 0.500000 0.110578
O O19 0.654847 0.281870 0.500000
O O20 0.699592 0.500000 0.550920
O O21 0.750000 0.250000 0.547668
#
# Coordination Sequence:
#
# PCOD8267515 Si02
#       8
#    16   8  16   8  16  16   8  16
#     4  10  20  35  54  74 101 136 171 213 264 313
#     4   9  18  37  58  76 100 135 174 215 260 308
#     4  10  19  30  46  72 105 137 173 215 258 311
#     4  10  24  43  62  85 117 148 180 220 267 320
#     4  11  22  36  55  80 109 142 178 218 262 320
#     4  11  23  40  61  86 113 145 181 222 268 314
#     4  11  21  40  64  87 112 141 181 224 266 318
#     4   8  14  25  41  62  92 131 170 209 255 305
#
# _framework density 17.881338
#
# number of rings (size 3 to 8) (size 9 to 14) (size 15 to 20)
#    0.000    2.000    1.538    2.538    0.000    5.846 
#    0.000    1.923    0.000    0.000    0.000    0.538 
#    0.000    4.308    0.000    0.000    0.000    0.000 
#
# Total GULP energy -644493.785478 kJ/mol
# GULP energy per Si atom -12394.111259 kJ/mol
# Density = 1.784064 g / cm^3
# Si number density = 17.881338 Si / 1000 Ang^3
#
#
#
# Elastic Constant Matrix: (Units=GPa)
#
#
# Indices 1 2 3 4 5 6 
#
# 1 114.5371 38.7121 44.3052 0.0000 0.0000 0.0000
# 2 38.7121 66.1137 43.9511 0.0000 0.0000 0.0000
# 3 44.3052 43.9511 121.1159 0.0000 0.0000 0.0000
# 4 0.0000 0.0000 0.0000 18.9819 0.0000 0.0000
# 5 0.0000 0.0000 0.0000 0.0000 17.4021 0.0000
# 6 0.0000 0.0000 0.0000 0.0000 0.0000 27.7879
#
#
#
# Elastic Compliance Matrix: (Units=1/GPa)
#
#
# Indices 1 2 3 4 5 6 
#
# 1 0.011349 -0.005120 -0.002293 0.000000 0.000000 0.000000
# 2 -0.005120 0.022245 -0.006199 0.000000 0.000000 0.000000
# 3 -0.002293 -0.006199 0.011345 0.000000 0.000000 0.000000
# 4 0.000000 0.000000 0.000000 0.052682 0.000000 0.000000
# 5 0.000000 0.000000 0.000000 0.000000 0.057464 0.000000
# 6 0.000000 0.000000 0.000000 0.000000 0.000000 0.035987
#
#
# Mechanical properties :
#
#
# Convention : Reuss Voigt Hill
#
# Bulk Modulus (GPa) = 56.45721 61.74484 59.10103
# Shear Modulus (GPa) = 22.30138 24.48759 23.39448
#
# Velocity S-wave (km/s) = 3.53539 3.70462 3.62099
# Velocity P-wave (km/s) = 6.95033 7.27353 7.11377
#
# Compressibility (1/GPa) = 0.01771253
#
# Stress axis : x y z
#
# Youngs Moduli (GPa) = 88.11719 44.95438 88.14446
#
# Poissons Ratio (x) = 0.23019 0.20214
# Poissons Ratio (y) = 0.45120 0.54642
# Poissons Ratio (z) = 0.20207 0.27868
#
# Static dielectric constant tensor:
#      x y z
#    x 3.166750 0.000000 0.000000 
#    y 0.000000 3.291670 0.000000 
#    z 0.000000 0.000000 3.823400 
# 
# 
# High freq. dielectric constant tensor:
#      x y z
#    x 1.669580 0.000000 0.000000 
#    y 0.000000 1.693220 0.000000 
#    z 0.000000 0.000000 1.706570 
# 
# From -- ./inp_files/75870.got.cif
#   From: 2010.03.12/outbox.cif.g09.slc.cpg/sg65_38_cif.got.tgz:75870.got - 2010.04.10 20:52:16.
