data_PCOD8267991
_publ_section_title
;
Structure prediction by ZEFSAII (Michael W. Deem and Ramdas Pophale) SiO2 
 PCOD8267991
Probable space group: C M M M
;
_chemical_formula_sum "Si O2"
_cell_formula_units_Z 104
_cell_length_a 27.416312
_cell_length_b 7.970623
_cell_length_c 23.679606
_cell_angle_alpha 90.000000
_cell_angle_beta 90.000000
_cell_angle_gamma 90.000000
_cell_volume 5174.587961
_symmetry_space_group_name_H-M "C M M M"
_symmetry_group_IT_number 65
_symmetry_cell_setting 'orthorhombic'
loop_
_space_group_symop_operation_xyz
x,y,z
-x,-y,z
x,-y,-z
-x,y,-z
-x,-y,-z
x,y,-z
-x,y,z
x,-y,z
1/2+x,1/2+y,z
1/2-x,1/2-y,z
1/2+x,1/2-y,-z
1/2-x,1/2+y,-z
1/2-x,1/2-y,-z
1/2+x,1/2+y,-z
1/2-x,1/2+y,z
1/2+x,1/2-y,z
loop_
_atom_site_type_symbol
_atom_site_label
_atom_site_fract_x
_atom_site_fract_y
_atom_site_fract_z
Si Si1 0.119829 0.689872 0.065562
Si Si2 0.305779 0.301162 0.847321
Si Si3 0.397348 0.198361 0.562813
Si Si4 0.802355 0.695855 0.626081
Si Si5 0.852897 0.806218 0.733394
Si Si6 0.946707 0.803827 0.672272
Si Si7 0.445486 0.500000 0.066972
O O1 0.099500 0.500000 0.075106
O O2 0.170578 0.713646 0.098223
O O3 0.081370 0.829757 0.087946
O O4 0.131246 0.720713 0.000000
O O5 0.310536 0.500000 0.852308
O O6 0.250000 0.250000 0.843288
O O7 0.334232 0.228483 0.792261
O O8 0.407567 0.269096 0.500000
O O9 0.342820 0.253850 0.580931
O O10 0.436315 0.273821 0.606145
O O11 0.402332 0.000000 0.563590
O O12 0.804945 0.500000 0.636761
O O13 0.750000 0.750000 0.602020
O O14 0.811392 0.784220 0.686185
O O15 0.903920 0.721740 0.711316
O O16 0.862456 0.000000 0.743779
O O17 0.000000 0.726305 0.687211
O O18 0.947756 0.000000 0.683502
O O19 0.500000 0.500000 0.092880
O O20 0.448337 0.500000 0.000000
#
# Coordination Sequence:
#
# PCOD8267991 Si02
#       7
#    16  16  16  16  16  16   8
#     4  10  21  38  60  88 124 161 200 248 296 350
#     4  11  22  36  56  82 115 153 195 238 290 349
#     4   9  19  34  49  69  99 133 170 212 260 318
#     4  10  19  31  49  71  97 132 171 215 266 319
#     4   9  19  35  54  76 106 138 178 223 272 328
#     4   9  18  34  55  77 102 134 172 216 269 325
#     4   9  18  36  62  88 118 158 200 244 292 342
#
# _framework density 20.098219
#
# number of rings (size 3 to 8) (size 9 to 14) (size 15 to 20)
#    0.000    2.385    0.769    1.385    0.000    4.923 
#    0.000    3.846    0.000    0.000    0.000    0.000 
#    0.000    0.000    0.000    0.000    0.000    0.000 
#
# Total GULP energy -644612.692804 kJ/mol
# GULP energy per Si atom -12396.397939 kJ/mol
# Density = 2.005247 g / cm^3
# Si number density = 20.098219 Si / 1000 Ang^3
#
#
#
# Elastic Constant Matrix: (Units=GPa)
#
#
# Indices 1 2 3 4 5 6 
#
# 1 151.2682 32.3587 53.1698 0.0000 0.0000 0.0000
# 2 32.3587 68.0987 29.9388 0.0000 0.0000 0.0000
# 3 53.1698 29.9388 89.3784 0.0000 0.0000 0.0000
# 4 0.0000 0.0000 0.0000 19.5668 0.0000 0.0000
# 5 0.0000 0.0000 0.0000 0.0000 39.8481 0.0000
# 6 0.0000 0.0000 0.0000 0.0000 0.0000 25.2564
#
#
#
# Elastic Compliance Matrix: (Units=1/GPa)
#
#
# Indices 1 2 3 4 5 6 
#
# 1 0.008621 -0.002160 -0.004405 0.000000 0.000000 0.000000
# 2 -0.002160 0.017762 -0.004665 0.000000 0.000000 0.000000
# 3 -0.004405 -0.004665 0.015371 0.000000 0.000000 0.000000
# 4 0.000000 0.000000 0.000000 0.051107 0.000000 0.000000
# 5 0.000000 0.000000 0.000000 0.000000 0.025095 0.000000
# 6 0.000000 0.000000 0.000000 0.000000 0.000000 0.039594
#
#
# Mechanical properties :
#
#
# Convention : Reuss Voigt Hill
#
# Bulk Modulus (GPa) = 51.82716 59.96443 55.89580
# Shear Modulus (GPa) = 26.81806 29.81946 28.31876
#
# Velocity S-wave (km/s) = 3.65684 3.85604 3.75776
# Velocity P-wave (km/s) = 6.60855 7.05166 6.83370
#
# Compressibility (1/GPa) = 0.01929490
#
# Stress axis : x y z
#
# Youngs Moduli (GPa) = 115.99345 56.30106 65.05581
#
# Poissons Ratio (x) = 0.12160 0.28658
# Poissons Ratio (y) = 0.25053 0.30346
# Poissons Ratio (z) = 0.51096 0.26263
#
# Static dielectric constant tensor:
#      x y z
#    x 4.012840 0.000000 0.000000 
#    y 0.000000 3.591330 0.000000 
#    z 0.000000 0.000000 3.681270 
# 
# 
# High freq. dielectric constant tensor:
#      x y z
#    x 1.783950 0.000000 0.000000 
#    y 0.000000 1.777810 0.000000 
#    z 0.000000 0.000000 1.770630 
# 
# From -- ./inp_files/71825.got.cif
#   From: 2010.03.12/outbox.cif.g09.slc.cpg/sg65_36_cif.got.tgz:71825.got - 2010.04.10 20:52:16.
