data_PCOD8267860
_publ_section_title
;
Structure prediction by ZEFSAII (Michael W. Deem and Ramdas Pophale) SiO2 
 PCOD8267860
Probable space group: C M M M
;
_chemical_formula_sum "Si O2"
_cell_formula_units_Z 104
_cell_length_a 8.044765
_cell_length_b 27.721178
_cell_length_c 28.037495
_cell_angle_alpha 90.000000
_cell_angle_beta 90.000000
_cell_angle_gamma 90.000000
_cell_volume 6252.651924
_symmetry_space_group_name_H-M "C M M M"
_symmetry_group_IT_number 65
_symmetry_cell_setting 'orthorhombic'
loop_
_space_group_symop_operation_xyz
x,y,z
-x,-y,z
x,-y,-z
-x,y,-z
-x,-y,-z
x,y,-z
-x,y,z
x,-y,z
1/2+x,1/2+y,z
1/2-x,1/2-y,z
1/2+x,1/2-y,-z
1/2-x,1/2+y,-z
1/2-x,1/2-y,-z
1/2+x,1/2+y,-z
1/2-x,1/2+y,z
1/2+x,1/2-y,z
loop_
_atom_site_type_symbol
_atom_site_label
_atom_site_fract_x
_atom_site_fract_y
_atom_site_fract_z
Si Si1 0.500000 0.443080 0.052994
Si Si2 0.197537 0.552726 0.692155
Si Si3 0.695633 0.302812 0.446556
Si Si4 0.808192 0.603596 0.215318
Si Si5 0.690166 0.696192 0.736348
Si Si6 0.693664 0.056769 0.881539
Si Si7 0.807784 0.353100 0.644302
O O1 0.500000 0.500000 0.049668
O O2 0.326334 0.427193 0.078118
O O3 0.500000 0.420154 0.000000
O O4 0.272596 0.500000 0.679897
O O5 0.272814 0.571397 0.742466
O O6 0.250405 0.591469 0.651815
O O7 0.000000 0.549549 0.695213
O O8 0.763083 0.313280 0.500000
O O9 0.500000 0.307192 0.444854
O O10 0.750000 0.250000 0.429694
O O11 0.773899 0.341109 0.410600
O O12 0.782385 0.659998 0.227247
O O13 0.740286 0.587064 0.164103
O O14 0.000000 0.591460 0.214366
O O15 0.500000 0.692612 0.749717
O O16 0.750000 0.750000 0.746060
O O17 0.714672 0.682564 0.680693
O O18 0.500000 0.069082 0.895724
O O19 0.707797 0.000000 0.870137
O O20 0.000000 0.347347 0.656965
#
# Coordination Sequence:
#
# PCOD8267860 Si02
#       7
#     8  16  16  16  16  16  16
#     4   9  18  30  44  66  98 132 168 208 243 285
#     4   8  14  26  45  67  90 117 150 186 222 261
#     4  10  20  33  49  68  89 112 142 183 228 276
#     4   9  17  29  46  68  93 122 157 196 232 277
#     4  11  21  32  46  64  92 126 155 186 226 276
#     4   9  17  29  47  69  96 132 166 201 243 285
#     4  10  19  31  48  68  91 118 150 184 224 270
#
# _framework density 16.632942
#
# number of rings (size 3 to 8) (size 9 to 14) (size 15 to 20)
#    0.000    2.538    0.000    4.154    1.077    3.077 
#    0.000    1.538    0.000    8.769    0.000    3.231 
#    0.000    0.615    0.308    0.000    0.000    0.000 
#
# Total GULP energy -644450.829476 kJ/mol
# GULP energy per Si atom -12393.285182 kJ/mol
# Density = 1.659508 g / cm^3
# Si number density = 16.632942 Si / 1000 Ang^3
#
#
#
# Elastic Constant Matrix: (Units=GPa)
#
#
# Indices 1 2 3 4 5 6 
#
# 1 47.6773 13.9644 29.7005 0.0000 0.0000 0.0000
# 2 13.9644 108.9457 58.9834 0.0000 0.0000 0.0000
# 3 29.7005 58.9834 122.0952 0.0000 0.0000 0.0000
# 4 0.0000 0.0000 0.0000 21.7054 0.0000 0.0000
# 5 0.0000 0.0000 0.0000 0.0000 24.1771 0.0000
# 6 0.0000 0.0000 0.0000 0.0000 0.0000 17.0255
#
#
#
# Elastic Compliance Matrix: (Units=1/GPa)
#
#
# Indices 1 2 3 4 5 6 
#
# 1 0.024722 0.000118 -0.006071 0.000000 0.000000 0.000000
# 2 0.000118 0.012430 -0.006034 0.000000 0.000000 0.000000
# 3 -0.006071 -0.006034 0.012582 0.000000 0.000000 0.000000
# 4 0.000000 0.000000 0.000000 0.046071 0.000000 0.000000
# 5 0.000000 0.000000 0.000000 0.000000 0.041361 0.000000
# 6 0.000000 0.000000 0.000000 0.000000 0.000000 0.058735
#
#
# Mechanical properties :
#
#
# Convention : Reuss Voigt Hill
#
# Bulk Modulus (GPa) = 38.81850 53.77944 46.29897
# Shear Modulus (GPa) = 21.88546 24.31959 23.10253
#
# Velocity S-wave (km/s) = 3.63132 3.82793 3.73092
# Velocity P-wave (km/s) = 6.40086 7.20699 6.81585
#
# Compressibility (1/GPa) = 0.02576091
#
# Stress axis : x y z
#
# Youngs Moduli (GPa) = 40.45059 80.44751 79.47909
#
# Poissons Ratio (x) = -0.00949 0.48249
# Poissons Ratio (y) = -0.00477 0.47956
# Poissons Ratio (z) = 0.24556 0.48540
#
# Static dielectric constant tensor:
#      x y z
#    x 3.128490 0.000000 0.000000 
#    y 0.000000 3.080540 0.000000 
#    z 0.000000 0.000000 3.225940 
# 
# 
# High freq. dielectric constant tensor:
#      x y z
#    x 1.642280 0.000000 0.000000 
#    y 0.000000 1.621490 0.000000 
#    z 0.000000 0.000000 1.621040 
# 
# From -- ./inp_files/73792.got.cif
#   From: 2010.03.12/outbox.cif.g09.slc.cpg/sg65_37_cif.got.tgz:73792.got - 2010.04.10 20:52:16.
