data_PCOD8267541
_publ_section_title
;
Structure prediction by ZEFSAII (Michael W. Deem and Ramdas Pophale) SiO2 
 PCOD8267541
Probable space group: C M M M
;
_chemical_formula_sum "Si O2"
_cell_formula_units_Z 88
_cell_length_a 27.367637
_cell_length_b 8.924925
_cell_length_c 21.319143
_cell_angle_alpha 90.000000
_cell_angle_beta 90.000000
_cell_angle_gamma 90.000000
_cell_volume 5207.288249
_symmetry_space_group_name_H-M "C M M M"
_symmetry_group_IT_number 65
_symmetry_cell_setting 'orthorhombic'
loop_
_space_group_symop_operation_xyz
x,y,z
-x,-y,z
x,-y,-z
-x,y,-z
-x,-y,-z
x,y,-z
-x,y,z
x,-y,z
1/2+x,1/2+y,z
1/2-x,1/2-y,z
1/2+x,1/2-y,-z
1/2-x,1/2+y,-z
1/2-x,1/2-y,-z
1/2+x,1/2+y,-z
1/2-x,1/2+y,z
1/2+x,1/2-y,z
loop_
_atom_site_type_symbol
_atom_site_label
_atom_site_fract_x
_atom_site_fract_y
_atom_site_fract_z
Si Si1 0.699868 0.674789 0.430403
Si Si2 0.144467 0.175918 0.691396
Si Si3 0.198901 0.322410 0.195120
Si Si4 0.396709 0.176093 0.874173
Si Si5 0.944067 0.320715 0.000000
Si Si6 0.555656 0.175740 0.747268
O O1 0.683399 0.729642 0.500000
O O2 0.710064 0.500000 0.430678
O O3 0.750000 0.750000 0.409230
O O4 0.658537 0.716449 0.379962
O O5 0.181387 0.259932 0.738070
O O6 0.089195 0.233380 0.698978
O O7 0.147809 0.000000 0.705232
O O8 0.204670 0.500000 0.201091
O O9 0.250000 0.250000 0.174830
O O10 0.159186 0.278145 0.141664
O O11 0.415871 0.246873 0.939280
O O12 0.431933 0.229392 0.817812
O O13 0.400771 0.000000 0.880900
O O14 0.942997 0.500000 0.000000
O O15 0.000000 0.264068 0.000000
O O16 0.500000 0.214661 0.731620
O O17 0.566935 0.000000 0.740142
#
# Coordination Sequence:
#
# PCOD8267541 Si02
#       6
#    16  16  16  16   8  16
#     4   9  18  31  46  66  92 119 146 179 220 266
#     4  10  19  30  47  70  93 118 150 186 224 268
#     4  10  19  31  46  65  92 122 152 186 225 267
#     4   8  15  26  41  64  91 117 146 183 225 267
#     4   9  14  22  41  66  89 113 145 185 226 269
#     4   9  17  30  47  67  93 122 151 186 228 268
#
# _framework density 16.899391999999999
#
# number of rings (size 3 to 8) (size 9 to 14) (size 15 to 20)
#    0.000    2.818    0.000    3.273    0.000    5.455 
#    0.000    0.455    0.000    0.545    0.000   19.091 
#    0.000   24.000    0.000    0.000    0.000    0.000 
#
# Total GULP energy -545442.439107 kJ/mol
# GULP energy per Si atom -12396.419071 kJ/mol
# Density = 1.686093 g / cm^3
# Si number density = 16.899392 Si / 1000 Ang^3
#
#
#
# Elastic Constant Matrix: (Units=GPa)
#
#
# Indices 1 2 3 4 5 6 
#
# 1 138.9677 42.3623 79.4840 0.0000 0.0000 0.0000
# 2 42.3623 45.8327 37.4538 0.0000 0.0000 0.0000
# 3 79.4840 37.4538 129.4101 0.0000 0.0000 0.0000
# 4 0.0000 0.0000 0.0000 16.1336 0.0000 0.0000
# 5 0.0000 0.0000 0.0000 0.0000 21.7975 0.0000
# 6 0.0000 0.0000 0.0000 0.0000 0.0000 28.4153
#
#
#
# Elastic Compliance Matrix: (Units=1/GPa)
#
#
# Indices 1 2 3 4 5 6 
#
# 1 0.012588 -0.006964 -0.005716 0.000000 0.000000 0.000000
# 2 -0.006964 0.032430 -0.005109 0.000000 0.000000 0.000000
# 3 -0.005716 -0.005109 0.012717 0.000000 0.000000 0.000000
# 4 0.000000 0.000000 0.000000 0.061983 0.000000 0.000000
# 5 0.000000 0.000000 0.000000 0.000000 0.045877 0.000000
# 6 0.000000 0.000000 0.000000 0.000000 0.000000 0.035192
#
#
# Mechanical properties :
#
#
# Convention : Reuss Voigt Hill
#
# Bulk Modulus (GPa) = 45.13166 70.31232 57.72199
# Shear Modulus (GPa) = 20.51289 23.59665 22.05477
#
# Velocity S-wave (km/s) = 3.48778 3.74077 3.61648
# Velocity P-wave (km/s) = 6.55618 7.76882 7.18812
#
# Compressibility (1/GPa) = 0.02215739
#
# Stress axis : x y z
#
# Youngs Moduli (GPa) = 79.43959 30.83601 78.63602
#
# Poissons Ratio (x) = 0.21474 0.44950
# Poissons Ratio (y) = 0.55320 0.40172
# Poissons Ratio (z) = 0.45410 0.15753
#
# Static dielectric constant tensor:
#      x y z
#    x 3.296810 0.000000 0.000000 
#    y 0.000000 2.967160 0.000000 
#    z 0.000000 0.000000 3.396920 
# 
# 
# High freq. dielectric constant tensor:
#      x y z
#    x 1.650230 0.000000 0.000000 
#    y 0.000000 1.630650 0.000000 
#    z 0.000000 0.000000 1.643920 
# 
# From -- ./inp_files/60683.got.cif
#   From: 2010.03.12/outbox.cif.g09.slc.cpg/sg65_31_cif.got.tgz:60683.got - 2010.04.10 20:52:16.
