data_PCOD8267780
_publ_section_title
;
Structure prediction by ZEFSAII (Michael W. Deem and Ramdas Pophale) SiO2 
 PCOD8267780
Probable space group: C M M M
;
_chemical_formula_sum "Si O2"
_cell_formula_units_Z 72
_cell_length_a 8.847671
_cell_length_b 33.817447
_cell_length_c 15.603512
_cell_angle_alpha 90.000000
_cell_angle_beta 90.000000
_cell_angle_gamma 90.000000
_cell_volume 4668.658874
_symmetry_space_group_name_H-M "C M M M"
_symmetry_group_IT_number 65
_symmetry_cell_setting 'orthorhombic'
loop_
_space_group_symop_operation_xyz
x,y,z
-x,-y,z
x,-y,-z
-x,y,-z
-x,-y,-z
x,y,-z
-x,y,z
x,-y,z
1/2+x,1/2+y,z
1/2-x,1/2-y,z
1/2+x,1/2-y,-z
1/2-x,1/2+y,-z
1/2-x,1/2-y,-z
1/2+x,1/2+y,-z
1/2-x,1/2+y,z
1/2+x,1/2-y,z
loop_
_atom_site_type_symbol
_atom_site_label
_atom_site_fract_x
_atom_site_fract_y
_atom_site_fract_z
Si Si1 0.329548 0.500000 0.101767
Si Si2 0.678475 0.793409 0.313922
Si Si3 0.322149 0.080190 0.900461
Si Si4 0.826797 0.291319 0.500000
Si Si5 0.678211 0.707326 0.000000
Si Si6 0.679302 0.657900 0.836228
O O1 0.500000 0.500000 0.138063
O O2 0.241945 0.538718 0.134744
O O3 0.330001 0.500000 0.000000
O O4 0.500000 0.790320 0.295384
O O5 0.750000 0.750000 0.303183
O O6 0.712910 0.812267 0.409160
O O7 0.755587 0.823465 0.249547
O O8 0.500000 0.080968 0.885838
O O9 0.244443 0.114087 0.844855
O O10 0.279655 0.086301 0.000000
O O11 0.750000 0.250000 0.500000
O O12 0.000000 0.280731 0.500000
O O13 0.750000 0.750000 0.000000
O O14 0.734697 0.683965 0.916526
O O15 0.500000 0.712138 0.000000
O O16 0.500000 0.655774 0.831425
#
# Coordination Sequence:
#
# PCOD8267780 Si02
#       6
#     8  16  16   8   8  16
#     4   9  17  29  47  67  89 118 149 186 229 275
#     4  10  19  32  48  68  90 118 153 192 235 279
#     4  10  19  31  47  67  90 119 154 192 229 270
#     4   8  16  30  48  66  88 113 144 187 236 282
#     4  10  22  34  44  57  82 119 158 192 225 262
#     4  11  21  33  46  64  90 123 157 193 230 271
#
# _framework density 15.421988000000001
#
# number of rings (size 3 to 8) (size 9 to 14) (size 15 to 20)
#    0.000    2.111    1.111    3.000    0.000    6.667 
#    0.000    0.000    0.000    0.000    0.000    0.000 
#    0.000    0.889    0.000    9.556    0.000    4.222 
#
# Total GULP energy -446252.006968 kJ/mol
# GULP energy per Si atom -12395.889082 kJ/mol
# Density = 1.538689 g / cm^3
# Si number density = 15.421988 Si / 1000 Ang^3
#
#
#
# Elastic Constant Matrix: (Units=GPa)
#
#
# Indices 1 2 3 4 5 6 
#
# 1 77.6516 49.7992 45.7513 0.0000 0.0000 0.0000
# 2 49.7992 126.2489 59.9724 0.0000 0.0000 0.0000
# 3 45.7513 59.9724 107.9397 0.0000 0.0000 0.0000
# 4 0.0000 0.0000 0.0000 8.0634 0.0000 0.0000
# 5 0.0000 0.0000 0.0000 0.0000 20.4493 0.0000
# 6 0.0000 0.0000 0.0000 0.0000 0.0000 31.5128
#
#
#
# Elastic Compliance Matrix: (Units=1/GPa)
#
#
# Indices 1 2 3 4 5 6 
#
# 1 0.019281 -0.005058 -0.005362 0.000000 0.000000 0.000000
# 2 -0.005058 0.012088 -0.004572 0.000000 0.000000 0.000000
# 3 -0.005362 -0.004572 0.014078 0.000000 0.000000 0.000000
# 4 0.000000 0.000000 0.000000 0.124017 0.000000 0.000000
# 5 0.000000 0.000000 0.000000 0.000000 0.048901 0.000000
# 6 0.000000 0.000000 0.000000 0.000000 0.000000 0.031733
#
#
# Mechanical properties :
#
#
# Convention : Reuss Voigt Hill
#
# Bulk Modulus (GPa) = 64.67636 69.20957 66.94297
# Shear Modulus (GPa) = 17.52920 22.42624 19.97772
#
# Velocity S-wave (km/s) = 3.37506 3.81750 3.60308
# Velocity P-wave (km/s) = 7.56418 8.02532 7.79816
#
# Compressibility (1/GPa) = 0.01546160
#
# Stress axis : x y z
#
# Youngs Moduli (GPa) = 51.86364 82.72576 71.03491
#
# Poissons Ratio (x) = 0.41846 0.38089
# Poissons Ratio (y) = 0.26235 0.32479
# Poissons Ratio (z) = 0.27810 0.37824
#
# Static dielectric constant tensor:
#      x y z
#    x 3.063970 0.000000 0.000000 
#    y 0.000000 2.884080 0.000000 
#    z 0.000000 0.000000 3.016790 
# 
# 
# High freq. dielectric constant tensor:
#      x y z
#    x 1.610250 0.000000 0.000000 
#    y 0.000000 1.576230 0.000000 
#    z 0.000000 0.000000 1.569210 
# 
# From -- ./inp_files/37031.got.cif
#   From: 2010.03.12/outbox.cif.g09.slc.cpg/sg65_19_cif.got.tgz:37031.got - 2010.04.10 20:52:16.
