data_PCOD8267482
_publ_section_title
;
Structure prediction by ZEFSAII (Michael W. Deem and Ramdas Pophale) SiO2 
 PCOD8267482
Probable space group: C M M M
;
_chemical_formula_sum "Si O2"
_cell_formula_units_Z 104
_cell_length_a 9.092449
_cell_length_b 27.358404
_cell_length_c 26.038901
_cell_angle_alpha 90.000000
_cell_angle_beta 90.000000
_cell_angle_gamma 90.000000
_cell_volume 6477.304034
_symmetry_space_group_name_H-M "C M M M"
_symmetry_group_IT_number 65
_symmetry_cell_setting 'orthorhombic'
loop_
_space_group_symop_operation_xyz
x,y,z
-x,-y,z
x,-y,-z
-x,y,-z
-x,-y,-z
x,y,-z
-x,y,z
x,-y,z
1/2+x,1/2+y,z
1/2-x,1/2-y,z
1/2+x,1/2-y,-z
1/2-x,1/2+y,-z
1/2-x,1/2-y,-z
1/2+x,1/2+y,-z
1/2-x,1/2+y,z
1/2+x,1/2-y,z
loop_
_atom_site_type_symbol
_atom_site_label
_atom_site_fract_x
_atom_site_fract_y
_atom_site_fract_z
Si Si1 0.334252 0.441888 0.500000
Si Si2 0.668624 0.444598 0.791687
Si Si3 0.828647 0.444222 0.399571
Si Si4 0.167831 0.854455 0.857227
Si Si5 0.671331 0.200178 0.941342
Si Si6 0.672660 0.698800 0.752090
Si Si7 0.672970 0.109245 0.704541
O O1 0.325647 0.500000 0.500000
O O2 0.500000 0.422281 0.500000
O O3 0.254976 0.422229 0.551144
O O4 0.500000 0.436035 0.773668
O O5 0.697073 0.500000 0.809194
O O6 0.701725 0.410022 0.840372
O O7 0.774918 0.431685 0.744817
O O8 0.779832 0.500000 0.387631
O O9 0.787351 0.410361 0.351665
O O10 0.000000 0.442320 0.412040
O O11 0.271930 0.843226 0.905291
O O12 0.204038 0.818321 0.810138
O O13 0.000000 0.848123 0.874976
O O14 0.500000 0.207958 0.932625
O O15 0.750000 0.250000 0.924755
O O16 0.708466 0.186327 0.000000
O O17 0.500000 0.703293 0.741189
O O18 0.750000 0.750000 0.742093
O O19 0.741256 0.659824 0.712725
O O20 0.500000 0.117851 0.711745
#
# Coordination Sequence:
#
# PCOD8267482 Si02
#       7
#     8  16  16  16  16  16  16
#     4   9  17  27  41  63  88 117 154 191 227 267
#     4   9  18  32  48  67  93 123 154 189 227 266
#     4   9  17  29  44  63  91 124 154 186 224 266
#     4   9  18  31  48  69  91 118 150 183 222 267
#     4  10  20  32  47  68  92 117 146 182 225 271
#     4  10  20  33  48  68  94 122 152 187 227 270
#     4  10  19  30  46  69  94 122 156 189 225 271
#
# _framework density 16.056063000000002
#
# number of rings (size 3 to 8) (size 9 to 14) (size 15 to 20)
#    0.000    2.538    0.000    3.462    0.000    8.308 
#    0.000    1.538    0.000    0.462    0.000    3.769 
#    0.000    0.000    0.000    0.000    0.000    0.000 
#
# Total GULP energy -644880.282291 kJ/mol
# GULP energy per Si atom -12401.543890 kJ/mol
# Density = 1.601952 g / cm^3
# Si number density = 16.056063 Si / 1000 Ang^3
#
#
#
# Elastic Constant Matrix: (Units=GPa)
#
#
# Indices 1 2 3 4 5 6 
#
# 1 86.2018 51.1600 61.9514 0.0000 0.0000 0.0000
# 2 51.1600 111.3676 58.2781 0.0000 0.0000 0.0000
# 3 61.9514 58.2781 109.2778 0.0000 0.0000 0.0000
# 4 0.0000 0.0000 0.0000 20.7607 0.0000 0.0000
# 5 0.0000 0.0000 0.0000 0.0000 28.3322 0.0000
# 6 0.0000 0.0000 0.0000 0.0000 0.0000 25.3043
#
#
#
# Elastic Compliance Matrix: (Units=1/GPa)
#
#
# Indices 1 2 3 4 5 6 
#
# 1 0.021281 -0.004803 -0.009503 0.000000 0.000000 0.000000
# 2 -0.004803 0.013539 -0.004498 0.000000 0.000000 0.000000
# 3 -0.009503 -0.004498 0.016937 0.000000 0.000000 0.000000
# 4 0.000000 0.000000 0.000000 0.048168 0.000000 0.000000
# 5 0.000000 0.000000 0.000000 0.000000 0.035296 0.000000
# 6 0.000000 0.000000 0.000000 0.000000 0.000000 0.039519
#
#
# Mechanical properties :
#
#
# Convention : Reuss Voigt Hill
#
# Bulk Modulus (GPa) = 70.67245 72.18070 71.42658
# Shear Modulus (GPa) = 23.03474 23.90996 23.47235
#
# Velocity S-wave (km/s) = 3.79178 3.86314 3.82763
# Velocity P-wave (km/s) = 7.95498 8.05925 8.00729
#
# Compressibility (1/GPa) = 0.01414979
#
# Stress axis : x y z
#
# Youngs Moduli (GPa) = 46.99051 73.85919 59.04254
#
# Poissons Ratio (x) = 0.35476 0.56108
# Poissons Ratio (y) = 0.22570 0.26555
# Poissons Ratio (z) = 0.44655 0.33219
#
# Static dielectric constant tensor:
#      x y z
#    x 3.120120 0.000000 0.000000 
#    y 0.000000 2.938640 0.000000 
#    z 0.000000 0.000000 2.967040 
# 
# 
# High freq. dielectric constant tensor:
#      x y z
#    x 1.628610 0.000000 0.000000 
#    y 0.000000 1.598540 0.000000 
#    z 0.000000 0.000000 1.605830 
# 
# From -- ./inp_files/73738.got.cif
#   From: 2010.03.12/outbox.cif.g09.slc.cpg/sg65_37_cif.got.tgz:73738.got - 2010.04.10 20:52:16.
