data_PCOD8267374
_publ_section_title
;
Structure prediction by ZEFSAII (Michael W. Deem and Ramdas Pophale) SiO2 
 PCOD8267374
Probable space group: C M M M
;
_chemical_formula_sum "Si O2"
_cell_formula_units_Z 88
_cell_length_a 17.458971
_cell_length_b 17.217256
_cell_length_c 19.453007
_cell_angle_alpha 90.000000
_cell_angle_beta 90.000000
_cell_angle_gamma 90.000000
_cell_volume 5847.487790
_symmetry_space_group_name_H-M "C M M M"
_symmetry_group_IT_number 65
_symmetry_cell_setting 'orthorhombic'
loop_
_space_group_symop_operation_xyz
x,y,z
-x,-y,z
x,-y,-z
-x,y,-z
-x,-y,-z
x,y,-z
-x,y,z
x,-y,z
1/2+x,1/2+y,z
1/2-x,1/2-y,z
1/2+x,1/2-y,-z
1/2-x,1/2+y,-z
1/2-x,1/2-y,-z
1/2+x,1/2+y,-z
1/2-x,1/2+y,z
1/2+x,1/2-y,z
loop_
_atom_site_type_symbol
_atom_site_label
_atom_site_fract_x
_atom_site_fract_y
_atom_site_fract_z
Si Si1 0.218187 0.589772 0.500000
Si Si2 0.913903 0.708711 0.500000
Si Si3 0.706303 0.590198 0.643245
Si Si4 0.089668 0.583668 0.000000
Si Si5 0.310571 0.183689 0.258647
Si Si6 0.089084 0.592887 0.850249
Si Si7 0.087996 0.784083 0.355496
O O1 0.196378 0.500000 0.500000
O O2 0.138452 0.633695 0.500000
O O3 0.266365 0.612654 0.433067
O O4 0.898290 0.761669 0.565755
O O5 0.000000 0.676207 0.500000
O O6 0.691246 0.500000 0.652250
O O7 0.768569 0.616973 0.698452
O O8 0.626228 0.632595 0.657249
O O9 0.110071 0.624674 0.072533
O O10 0.131269 0.500000 0.000000
O O11 0.000000 0.568767 0.000000
O O12 0.250000 0.250000 0.233759
O O13 0.353257 0.141975 0.196209
O O14 0.374760 0.219733 0.307268
O O15 0.103313 0.500000 0.843641
O O16 0.000000 0.610773 0.832099
O O17 0.000000 0.791433 0.335406
#
# Coordination Sequence:
#
# PCOD8267374 Si02
#       7
#     8   8  16   8  16  16  16
#     4  10  19  32  48  64  86 115 146 181 222 264
#     4  10  19  32  48  64  86 115 146 181 222 264
#     4  10  20  32  47  65  85 113 147 182 220 261
#     4   7  12  24  43  66  88 114 143 169 208 254
#     4  10  19  30  45  64  90 119 145 173 214 262
#     4   9  16  28  47  68  90 114 143 179 212 248
#     4  10  20  32  47  65  85 113 147 182 220 261
#
# _framework density 15.049196999999999
#
# number of rings (size 3 to 8) (size 9 to 14) (size 15 to 20)
#    0.000    2.455    1.818    2.727    0.000    1.273 
#    0.000    0.455    0.000    3.273    0.000    0.000 
#    0.000    0.000    0.000    0.000    0.000  109.091 
#
# Total GULP energy -545304.656100 kJ/mol
# GULP energy per Si atom -12393.287639 kJ/mol
# Density = 1.501494 g / cm^3
# Si number density = 15.049197 Si / 1000 Ang^3
#
#
#
# Elastic Constant Matrix: (Units=GPa)
#
#
# Indices 1 2 3 4 5 6 
#
# 1 99.0543 42.2942 47.4881 0.0000 0.0000 0.0000
# 2 42.2942 45.1454 27.2259 0.0000 0.0000 0.0000
# 3 47.4881 27.2259 104.6406 0.0000 0.0000 0.0000
# 4 0.0000 0.0000 0.0000 1.8255 0.0000 0.0000
# 5 0.0000 0.0000 0.0000 0.0000 23.3720 0.0000
# 6 0.0000 0.0000 0.0000 0.0000 0.0000 21.5413
#
#
#
# Elastic Compliance Matrix: (Units=1/GPa)
#
#
# Indices 1 2 3 4 5 6 
#
# 1 0.018534 -0.014579 -0.004618 0.000000 0.000000 0.000000
# 2 -0.014579 0.037741 -0.003203 0.000000 0.000000 0.000000
# 3 -0.004618 -0.003203 0.012486 0.000000 0.000000 0.000000
# 4 0.000000 0.000000 0.000000 0.547793 0.000000 0.000000
# 5 0.000000 0.000000 0.000000 0.000000 0.042786 0.000000
# 6 0.000000 0.000000 0.000000 0.000000 0.000000 0.046422
#
#
# Mechanical properties :
#
#
# Convention : Reuss Voigt Hill
#
# Bulk Modulus (GPa) = 41.73585 53.65076 47.69331
# Shear Modulus (GPa) = 6.59153 18.13658 12.36405
#
# Velocity S-wave (km/s) = 2.09511 3.47530 2.86942
# Velocity P-wave (km/s) = 5.80050 7.19939 6.53747
#
# Compressibility (1/GPa) = 0.02396021
#
# Stress axis : x y z
#
# Youngs Moduli (GPa) = 53.95416 26.49672 80.09114
#
# Poissons Ratio (x) = 0.38629 0.36987
# Poissons Ratio (y) = 0.78658 0.25656
# Poissons Ratio (z) = 0.24916 0.08488
#
# Static dielectric constant tensor:
#      x y z
#    x 2.835260 0.000000 0.000000 
#    y 0.000000 2.744770 0.000000 
#    z 0.000000 0.000000 3.040550 
# 
# 
# High freq. dielectric constant tensor:
#      x y z
#    x 1.571480 0.000000 0.000000 
#    y 0.000000 1.566380 0.000000 
#    z 0.000000 0.000000 1.573100 
# 
# From -- ./inp_files/53081.got.cif
#   From: 2010.03.12/outbox.cif.g09.slc.cpg/sg65_27_cif.got.tgz:53081.got - 2010.04.10 20:52:16.
