data_PCOD8267752
_publ_section_title
;
Structure prediction by ZEFSAII (Michael W. Deem and Ramdas Pophale) SiO2 
 PCOD8267752
Probable space group: C M M M
;
_chemical_formula_sum "Si O2"
_cell_formula_units_Z 120
_cell_length_a 8.561034
_cell_length_b 28.201659
_cell_length_c 28.743010
_cell_angle_alpha 90.000000
_cell_angle_beta 90.000000
_cell_angle_gamma 90.000000
_cell_volume 6939.579012
_symmetry_space_group_name_H-M "C M M M"
_symmetry_group_IT_number 65
_symmetry_cell_setting 'orthorhombic'
loop_
_space_group_symop_operation_xyz
x,y,z
-x,-y,z
x,-y,-z
-x,y,-z
-x,-y,-z
x,y,-z
-x,y,z
x,-y,z
1/2+x,1/2+y,z
1/2-x,1/2-y,z
1/2+x,1/2-y,-z
1/2-x,1/2+y,-z
1/2-x,1/2-y,-z
1/2+x,1/2+y,-z
1/2-x,1/2+y,z
1/2+x,1/2-y,z
loop_
_atom_site_type_symbol
_atom_site_label
_atom_site_fract_x
_atom_site_fract_y
_atom_site_fract_z
Si Si1 0.814418 0.697036 0.150088
Si Si2 0.180963 0.855638 0.236243
Si Si3 0.680875 0.351262 0.411562
Si Si4 0.819145 0.553525 0.731230
Si Si5 0.683178 0.198375 0.321787
Si Si6 0.683378 0.198055 0.049053
Si Si7 0.679369 0.552854 0.367328
Si Si8 0.319342 0.197882 0.500000
O O1 0.750000 0.750000 0.156282
O O2 0.729142 0.663137 0.186073
O O3 0.768299 0.675288 0.098792
O O4 0.000000 0.697216 0.158593
O O5 0.214505 0.911878 0.237241
O O6 0.286774 0.832012 0.275795
O O7 0.000000 0.844941 0.245914
O O8 0.500000 0.341875 0.421353
O O9 0.728000 0.324048 0.365129
O O10 0.716932 0.407552 0.406227
O O11 0.775448 0.331874 0.454835
O O12 0.771892 0.500000 0.744624
O O13 0.788569 0.562610 0.676729
O O14 0.000000 0.563381 0.741202
O O15 0.500000 0.200391 0.332423
O O16 0.750000 0.250000 0.312067
O O17 0.500000 0.202987 0.049277
O O18 0.750000 0.250000 0.047960
O O19 0.735868 0.171789 0.000000
O O20 0.500000 0.558064 0.350702
O O21 0.710078 0.500000 0.387954
O O22 0.500000 0.206256 0.500000
O O23 0.250000 0.250000 0.500000
#
# Coordination Sequence:
#
# PCOD8267752 Si02
#       8
#    16  16  16  16  16  16  16   8
#     4  10  19  31  46  67  99 137 175 216 260 306
#     4  12  23  35  50  72 103 138 174 210 253 305
#     4  11  22  39  61  85 110 137 172 211 255 305
#     4  10  20  34  54  79 105 133 168 210 255 302
#     4  12  24  38  55  76 104 136 174 213 254 303
#     4   8  14  25  42  63  88 123 168 214 258 303
#     4   9  18  34  58  85 111 138 168 204 248 301
#     4  12  26  44  63  82 107 139 176 217 261 304
#
# _framework density 17.292116
#
# number of rings (size 3 to 8) (size 9 to 14) (size 15 to 20)
#    0.000    1.600    1.333    5.000    0.000    1.867 
#    0.000    0.333    0.000    2.000    0.000    0.000 
#    0.000    0.533    0.000    6.133    0.000    1.733 
#
# Total GULP energy -743704.250724 kJ/mol
# GULP energy per Si atom -12395.070845 kJ/mol
# Density = 1.725276 g / cm^3
# Si number density = 17.292116 Si / 1000 Ang^3
#
#
#
# Elastic Constant Matrix: (Units=GPa)
#
#
# Indices 1 2 3 4 5 6 
#
# 1 67.0248 32.2048 20.1867 0.0000 0.0000 0.0000
# 2 32.2048 103.3029 51.7798 0.0000 0.0000 0.0000
# 3 20.1867 51.7798 119.3585 0.0000 0.0000 0.0000
# 4 0.0000 0.0000 0.0000 9.3200 0.0000 0.0000
# 5 0.0000 0.0000 0.0000 0.0000 27.0543 0.0000
# 6 0.0000 0.0000 0.0000 0.0000 0.0000 24.8195
#
#
#
# Elastic Compliance Matrix: (Units=1/GPa)
#
#
# Indices 1 2 3 4 5 6 
#
# 1 0.017603 -0.005106 -0.000762 0.000000 0.000000 0.000000
# 2 -0.005106 0.013851 -0.005145 0.000000 0.000000 0.000000
# 3 -0.000762 -0.005145 0.010739 0.000000 0.000000 0.000000
# 4 0.000000 0.000000 0.000000 0.107296 0.000000 0.000000
# 5 0.000000 0.000000 0.000000 0.000000 0.036963 0.000000
# 6 0.000000 0.000000 0.000000 0.000000 0.000000 0.040291
#
#
# Mechanical properties :
#
#
# Convention : Reuss Voigt Hill
#
# Bulk Modulus (GPa) = 49.58699 55.33653 52.46176
# Shear Modulus (GPa) = 19.57018 24.60642 22.08830
#
# Velocity S-wave (km/s) = 3.36778 3.77634 3.57790
# Velocity P-wave (km/s) = 6.62276 7.14736 6.89006
#
# Compressibility (1/GPa) = 0.02016658
#
# Stress axis : x y z
#
# Youngs Moduli (GPa) = 56.80983 72.19695 93.11726
#
# Poissons Ratio (x) = 0.36861 0.07097
# Poissons Ratio (y) = 0.29005 0.47912
# Poissons Ratio (z) = 0.04330 0.37148
#
# Static dielectric constant tensor:
#      x y z
#    x 3.338190 0.000000 0.000000 
#    y 0.000000 3.323620 0.000000 
#    z 0.000000 0.000000 4.011220 
# 
# 
# High freq. dielectric constant tensor:
#      x y z
#    x 1.681790 0.000000 0.000000 
#    y 0.000000 1.651040 0.000000 
#    z 0.000000 0.000000 1.659870 
# 
# From -- ./inp_files/73986.got.cif
#   From: 2010.03.12/outbox.cif.g09.slc.cpg/sg65_37_cif.got.tgz:73986.got - 2010.04.10 20:52:16.
