data_PCOD8267486
_publ_section_title
;
Structure prediction by ZEFSAII (Michael W. Deem and Ramdas Pophale) SiO2 
 PCOD8267486
Probable space group: C M M M
;
_chemical_formula_sum "Si O2"
_cell_formula_units_Z 72
_cell_length_a 17.260903
_cell_length_b 14.772591
_cell_length_c 16.656774
_cell_angle_alpha 90.000000
_cell_angle_beta 90.000000
_cell_angle_gamma 90.000000
_cell_volume 4247.281825
_symmetry_space_group_name_H-M "C M M M"
_symmetry_group_IT_number 65
_symmetry_cell_setting 'orthorhombic'
loop_
_space_group_symop_operation_xyz
x,y,z
-x,-y,z
x,-y,-z
-x,y,-z
-x,-y,-z
x,y,-z
-x,y,z
x,-y,z
1/2+x,1/2+y,z
1/2-x,1/2-y,z
1/2+x,1/2-y,-z
1/2-x,1/2+y,-z
1/2-x,1/2-y,-z
1/2+x,1/2+y,-z
1/2-x,1/2+y,z
1/2+x,1/2-y,z
loop_
_atom_site_type_symbol
_atom_site_label
_atom_site_fract_x
_atom_site_fract_y
_atom_site_fract_z
Si Si1 0.851437 0.605550 0.669495
Si Si2 0.587444 0.761744 0.793567
Si Si3 0.587047 0.893402 0.500000
Si Si4 0.799853 0.338590 0.912156
Si Si5 0.204418 0.099955 0.230973
O O1 0.872528 0.500000 0.681892
O O2 0.909592 0.665280 0.722451
O O3 0.864018 0.637111 0.577821
O O4 0.762647 0.624556 0.695952
O O5 0.500000 0.729748 0.807835
O O6 0.617786 0.809355 0.874707
O O7 0.637095 0.673422 0.770544
O O8 0.500000 0.850775 0.500000
O O9 0.578118 0.000000 0.500000
O O10 0.750000 0.250000 0.923857
O O11 0.754361 0.404070 0.851307
O O12 0.812625 0.384583 0.000000
O O13 0.168182 0.000000 0.243443
#
# Coordination Sequence:
#
# PCOD8267486 Si02
#       5
#    16  16   8  16  16
#     4   9  17  31  50  70  93 120 150 187 233 284
#     4  10  19  30  46  69  97 125 153 190 234 276
#     4   9  16  26  45  74 100 118 143 187 242 290
#     4   8  15  29  47  65  86 115 151 188 227 271
#     4   9  18  32  48  66  91 125 163 195 223 266
#
# _framework density 16.952019
#
# number of rings (size 3 to 8) (size 9 to 14) (size 15 to 20)
#    0.000    3.000    0.000    2.667    0.000    2.667 
#    0.000    2.222    0.000    0.000    0.000   12.444 
#    0.000    7.111    0.000    0.000    0.000    0.000 
#
# Total GULP energy -446144.654333 kJ/mol
# GULP energy per Si atom -12392.907065 kJ/mol
# Density = 1.691344 g / cm^3
# Si number density = 16.952019 Si / 1000 Ang^3
#
#
#
# Elastic Constant Matrix: (Units=GPa)
#
#
# Indices 1 2 3 4 5 6 
#
# 1 116.4710 36.1370 53.8371 0.0000 0.0000 0.0000
# 2 36.1370 60.8496 24.1459 0.0000 0.0000 0.0000
# 3 53.8371 24.1459 142.1663 0.0000 0.0000 0.0000
# 4 0.0000 0.0000 0.0000 20.1515 0.0000 0.0000
# 5 0.0000 0.0000 0.0000 0.0000 14.8725 0.0000
# 6 0.0000 0.0000 0.0000 0.0000 0.0000 18.8741
#
#
#
# Elastic Compliance Matrix: (Units=1/GPa)
#
#
# Indices 1 2 3 4 5 6 
#
# 1 0.012013 -0.005714 -0.003579 0.000000 0.000000 0.000000
# 2 -0.005714 0.020340 -0.001291 0.000000 0.000000 0.000000
# 3 -0.003579 -0.001291 0.008608 0.000000 0.000000 0.000000
# 4 0.000000 0.000000 0.000000 0.049624 0.000000 0.000000
# 5 0.000000 0.000000 0.000000 0.000000 0.067238 0.000000
# 6 0.000000 0.000000 0.000000 0.000000 0.000000 0.052983
#
#
# Mechanical properties :
#
#
# Convention : Reuss Voigt Hill
#
# Bulk Modulus (GPa) = 50.52020 60.85854 55.68937
# Shear Modulus (GPa) = 20.95812 24.47073 22.71442
#
# Velocity S-wave (km/s) = 3.51995 3.80350 3.66447
# Velocity P-wave (km/s) = 6.81077 7.43419 7.12930
#
# Compressibility (1/GPa) = 0.01979406
#
# Stress axis : x y z
#
# Youngs Moduli (GPa) = 83.24372 49.16528 116.16506
#
# Poissons Ratio (x) = 0.28093 0.41572
# Poissons Ratio (y) = 0.47566 0.14993
# Poissons Ratio (z) = 0.29790 0.06345
#
# Static dielectric constant tensor:
#      x y z
#    x 2.963520 0.000000 0.000000 
#    y 0.000000 2.997890 0.000000 
#    z 0.000000 0.000000 3.629710 
# 
# 
# High freq. dielectric constant tensor:
#      x y z
#    x 1.633530 0.000000 0.000000 
#    y 0.000000 1.639430 0.000000 
#    z 0.000000 0.000000 1.655440 
# 
# From -- ./inp_files/42158.got.cif
#   From: 2010.03.12/outbox.cif.g09.slc.cpg/sg65_22_cif.got.tgz:42158.got - 2010.04.10 20:52:16.
