data_PCOD8267850
_publ_section_title
;
Structure prediction by ZEFSAII (Michael W. Deem and Ramdas Pophale) SiO2 
 PCOD8267850
Probable space group: C M M M
;
_chemical_formula_sum "Si O2"
_cell_formula_units_Z 120
_cell_length_a 19.340927
_cell_length_b 18.144500
_cell_length_c 17.513306
_cell_angle_alpha 90.000000
_cell_angle_beta 90.000000
_cell_angle_gamma 90.000000
_cell_volume 6145.969868
_symmetry_space_group_name_H-M "C M M M"
_symmetry_group_IT_number 65
_symmetry_cell_setting 'orthorhombic'
loop_
_space_group_symop_operation_xyz
x,y,z
-x,-y,z
x,-y,-z
-x,y,-z
-x,-y,-z
x,y,-z
-x,y,z
x,-y,z
1/2+x,1/2+y,z
1/2-x,1/2-y,z
1/2+x,1/2-y,-z
1/2-x,1/2+y,-z
1/2-x,1/2-y,-z
1/2+x,1/2+y,-z
1/2-x,1/2+y,z
1/2+x,1/2-y,z
loop_
_atom_site_type_symbol
_atom_site_label
_atom_site_fract_x
_atom_site_fract_y
_atom_site_fract_z
Si Si1 0.307629 0.414682 0.234936
Si Si2 0.666261 0.360932 0.914848
Si Si3 0.420672 0.310696 0.292813
Si Si4 0.077731 0.732732 0.865198
Si Si5 0.172784 0.270981 0.411770
Si Si6 0.574662 0.500000 0.910813
Si Si7 0.919693 0.419182 0.188501
Si Si8 0.325121 0.917868 0.333173
O O1 0.317870 0.500000 0.213948
O O2 0.281553 0.369848 0.157185
O O3 0.379900 0.384003 0.267526
O O4 0.250126 0.402890 0.298278
O O5 0.629612 0.281265 0.916222
O O6 0.612205 0.424141 0.889211
O O7 0.698192 0.374393 0.000000
O O8 0.500000 0.331021 0.313172
O O9 0.417519 0.252630 0.223877
O O10 0.383963 0.275169 0.365897
O O11 0.099236 0.646161 0.871315
O O12 0.000000 0.745497 0.896465
O O13 0.161747 0.252050 0.500000
O O14 0.250000 0.250000 0.384587
O O15 0.161198 0.358333 0.398925
O O16 0.500000 0.500000 0.869559
O O17 0.564337 0.500000 0.000000
O O18 0.901459 0.500000 0.152849
O O19 0.881102 0.408431 0.267590
O O20 0.000000 0.413297 0.208830
O O21 0.328722 0.000000 0.368971
#
# Coordination Sequence:
#
# PCOD8267850 Si02
#       8
#    16  16  16  16  16   8  16  16
#     4  10  20  35  54  81 113 152 194 229 273 332
#     4  10  19  31  47  73 109 144 180 228 280 330
#     4  10  20  35  55  82 113 147 187 228 269 324
#     4   9  17  29  49  75 103 139 179 218 268 329
#     4  11  22  37  58  83 110 146 184 226 282 334
#     4   9  16  26  42  66 102 142 172 208 268 329
#     4   9  17  31  54  82 106 133 178 233 283 330
#     4  10  20  35  58  84 112 147 184 228 280 336
#
# _framework density 19.524989000000001
#
# number of rings (size 3 to 8) (size 9 to 14) (size 15 to 20)
#    0.000    2.200    3.333    0.400    0.000    2.133 
#    0.000    0.000    0.000    2.400    0.000    7.467 
#    0.000    0.000    0.000    0.000    0.000    0.000 
#
# Total GULP energy -743549.925556 kJ/mol
# GULP energy per Si atom -12392.498759 kJ/mol
# Density = 1.948055 g / cm^3
# Si number density = 19.524989 Si / 1000 Ang^3
#
#
#
# Elastic Constant Matrix: (Units=GPa)
#
#
# Indices 1 2 3 4 5 6 
#
# 1 57.6095 18.6377 17.0093 0.0000 0.0000 0.0000
# 2 18.6377 110.1466 19.9571 0.0000 0.0000 0.0000
# 3 17.0093 19.9571 64.8278 0.0000 0.0000 0.0000
# 4 0.0000 0.0000 0.0000 24.6585 0.0000 0.0000
# 5 0.0000 0.0000 0.0000 0.0000 5.8276 0.0000
# 6 0.0000 0.0000 0.0000 0.0000 0.0000 25.8877
#
#
#
# Elastic Compliance Matrix: (Units=1/GPa)
#
#
# Indices 1 2 3 4 5 6 
#
# 1 0.019448 -0.002506 -0.004331 0.000000 0.000000 0.000000
# 2 -0.002506 0.009938 -0.002402 0.000000 0.000000 0.000000
# 3 -0.004331 -0.002402 0.017301 0.000000 0.000000 0.000000
# 4 0.000000 0.000000 0.000000 0.040554 0.000000 0.000000
# 5 0.000000 0.000000 0.000000 0.000000 0.171597 0.000000
# 6 0.000000 0.000000 0.000000 0.000000 0.000000 0.038628
#
#
# Mechanical properties :
#
#
# Convention : Reuss Voigt Hill
#
# Bulk Modulus (GPa) = 35.44969 38.19914 36.82442
# Shear Modulus (GPa) = 15.36820 23.07341 19.22080
#
# Velocity S-wave (km/s) = 2.80858 3.44137 3.14095
# Velocity P-wave (km/s) = 5.35845 5.94957 5.66173
#
# Compressibility (1/GPa) = 0.02820899
#
# Stress axis : x y z
#
# Youngs Moduli (GPa) = 51.41980 100.62358 57.79913
#
# Poissons Ratio (x) = 0.25216 0.25034
# Poissons Ratio (y) = 0.12886 0.13883
# Poissons Ratio (z) = 0.22271 0.24169
#
# Static dielectric constant tensor:
#      x y z
#    x 3.631520 0.000000 0.000000 
#    y 0.000000 3.844140 0.000000 
#    z 0.000000 0.000000 3.229440 
# 
# 
# High freq. dielectric constant tensor:
#      x y z
#    x 1.747660 0.000000 0.000000 
#    y 0.000000 1.775480 0.000000 
#    z 0.000000 0.000000 1.729430 
# 
# From -- ./inp_files/56094.got.cif
#   From: 2010.03.12/outbox.cif.g09.slc.cpg/sg65_29_cif.got.tgz:56094.got - 2010.04.10 20:52:16.
