data_PCOD8267284
_publ_section_title
;
Structure prediction by ZEFSAII (Michael W. Deem and Ramdas Pophale) SiO2 
 PCOD8267284
Probable space group: C M M M
;
_chemical_formula_sum "Si O2"
_cell_formula_units_Z 72
_cell_length_a 19.261132
_cell_length_b 30.775303
_cell_length_c 7.802757
_cell_angle_alpha 90.000000
_cell_angle_beta 90.000000
_cell_angle_gamma 90.000000
_cell_volume 4625.218212
_symmetry_space_group_name_H-M "C M M M"
_symmetry_group_IT_number 65
_symmetry_cell_setting 'orthorhombic'
loop_
_space_group_symop_operation_xyz
x,y,z
-x,-y,z
x,-y,-z
-x,y,-z
-x,-y,-z
x,y,-z
-x,y,z
x,-y,z
1/2+x,1/2+y,z
1/2-x,1/2-y,z
1/2+x,1/2-y,-z
1/2-x,1/2+y,-z
1/2-x,1/2-y,-z
1/2+x,1/2+y,-z
1/2-x,1/2+y,z
1/2+x,1/2-y,z
loop_
_atom_site_type_symbol
_atom_site_label
_atom_site_fract_x
_atom_site_fract_y
_atom_site_fract_z
Si Si1 0.500000 0.448893 0.688739
Si Si2 0.851503 0.951188 0.803845
Si Si3 0.266445 0.819819 0.000000
Si Si4 0.794727 0.134404 0.691013
Si Si5 0.578691 0.695832 0.693820
Si Si6 0.862582 0.755904 0.000000
O O1 0.500000 0.500000 0.667448
O O2 0.500000 0.426810 0.500000
O O3 0.431159 0.435136 0.790404
O O4 0.802863 0.917692 0.701857
O O5 0.841749 0.000000 0.728135
O O6 0.828850 0.950079 0.000000
O O7 0.261596 0.849189 0.171198
O O8 0.205318 0.785244 0.000000
O O9 0.340045 0.794709 0.000000
O O10 0.768680 0.146603 0.500000
O O11 0.869683 0.155842 0.730594
O O12 0.589426 0.713760 0.500000
O O13 0.500000 0.678806 0.719274
O O14 0.593299 0.734651 0.828090
#
# Coordination Sequence:
#
# PCOD8267284 Si02
#       6
#     8  16   8  16  16   8
#     4   9  17  27  37  51  71  99 137 174 211 255
#     4  10  19  30  41  55  78 108 143 180 217 253
#     4   9  18  32  43  62  80 101 140 178 210 253
#     4  10  19  30  44  61  83 111 141 179 217 248
#     4   9  18  30  44  65  87 107 135 170 212 258
#     4   9  17  30  48  60  80 107 134 169 214 255
#
# _framework density 15.566834
#
# number of rings (size 3 to 8) (size 9 to 14) (size 15 to 20)
#    0.000    2.556    1.111    1.333    1.556    3.556 
#    0.000    4.444    0.000    0.000    0.000    0.000 
#    0.000    0.000    0.000    0.000    0.000    8.889 
#
# Total GULP energy -446217.579340 kJ/mol
# GULP energy per Si atom -12394.932759 kJ/mol
# Density = 1.553140 g / cm^3
# Si number density = 15.566834 Si / 1000 Ang^3
#
#
#
# Elastic Constant Matrix: (Units=GPa)
#
#
# Indices 1 2 3 4 5 6 
#
# 1 18.8758 21.7627 18.8218 0.0000 0.0000 0.0000
# 2 21.7627 77.4238 38.1427 0.0000 0.0000 0.0000
# 3 18.8218 38.1427 104.1050 0.0000 0.0000 0.0000
# 4 0.0000 0.0000 0.0000 17.5726 0.0000 0.0000
# 5 0.0000 0.0000 0.0000 0.0000 12.6914 0.0000
# 6 0.0000 0.0000 0.0000 0.0000 0.0000 20.3919
#
#
#
# Elastic Compliance Matrix: (Units=1/GPa)
#
#
# Indices 1 2 3 4 5 6 
#
# 1 0.083407 -0.019543 -0.007919 0.000000 0.000000 0.000000
# 2 -0.019543 0.020340 -0.003919 0.000000 0.000000 0.000000
# 3 -0.007919 -0.003919 0.012473 0.000000 0.000000 0.000000
# 4 0.000000 0.000000 0.000000 0.056907 0.000000 0.000000
# 5 0.000000 0.000000 0.000000 0.000000 0.078793 0.000000
# 6 0.000000 0.000000 0.000000 0.000000 0.000000 0.049039
#
#
# Mechanical properties :
#
#
# Convention : Reuss Voigt Hill
#
# Bulk Modulus (GPa) = 18.70651 39.76209 29.23430
# Shear Modulus (GPa) = 13.10478 18.24301 15.67389
#
# Velocity S-wave (km/s) = 2.90459 3.42704 3.17658
# Velocity P-wave (km/s) = 4.82617 6.42322 5.68109
#
# Compressibility (1/GPa) = 0.05345733
#
# Stress axis : x y z
#
# Youngs Moduli (GPa) = 11.98946 49.16468 80.17108
#
# Poissons Ratio (x) = 0.96082 0.63490
# Poissons Ratio (y) = 0.23431 0.31419
# Poissons Ratio (z) = 0.09495 0.19267
#
# Static dielectric constant tensor:
#      x y z
#    x 2.614600 0.000000 0.000000 
#    y 0.000000 2.913590 0.000000 
#    z 0.000000 0.000000 3.168320 
# 
# 
# High freq. dielectric constant tensor:
#      x y z
#    x 1.529130 0.000000 0.000000 
#    y 0.000000 1.575550 0.000000 
#    z 0.000000 0.000000 1.617030 
# 
# From -- ./inp_files/9517.got.cif
#   From: 2010.03.12/outbox.cif.g09.slc.cpg/sg65_5_cif.got.tgz:9517.got - 2010.04.10 20:52:16.
