data_PCOD8267294
_publ_section_title
;
Structure prediction by ZEFSAII (Michael W. Deem and Ramdas Pophale) SiO2 
 PCOD8267294
Probable space group: C M M M
;
_chemical_formula_sum "Si O2"
_cell_formula_units_Z 88
_cell_length_a 17.746081
_cell_length_b 30.485783
_cell_length_c 9.751863
_cell_angle_alpha 90.000000
_cell_angle_beta 90.000000
_cell_angle_gamma 90.000000
_cell_volume 5275.788840
_symmetry_space_group_name_H-M "C M M M"
_symmetry_group_IT_number 65
_symmetry_cell_setting 'orthorhombic'
loop_
_space_group_symop_operation_xyz
x,y,z
-x,-y,z
x,-y,-z
-x,y,-z
-x,-y,-z
x,y,-z
-x,y,z
x,-y,z
1/2+x,1/2+y,z
1/2-x,1/2-y,z
1/2+x,1/2-y,-z
1/2-x,1/2+y,-z
1/2-x,1/2-y,-z
1/2+x,1/2+y,-z
1/2-x,1/2+y,z
1/2+x,1/2-y,z
loop_
_atom_site_type_symbol
_atom_site_label
_atom_site_fract_x
_atom_site_fract_y
_atom_site_fract_z
Si Si1 0.717946 0.120599 0.161788
Si Si2 0.586314 0.851740 0.340056
Si Si3 0.837683 0.950815 0.836315
Si Si4 0.586886 0.248559 0.652359
Si Si5 0.803057 0.208567 0.154902
Si Si6 0.000000 0.947967 0.849986
O O1 0.639987 0.117968 0.246279
O O2 0.771246 0.081082 0.213111
O O3 0.759319 0.165444 0.201957
O O4 0.699971 0.117852 0.000000
O O5 0.606117 0.858064 0.500000
O O6 0.500000 0.865828 0.312561
O O7 0.598212 0.801208 0.295334
O O8 0.920228 0.935088 0.776256
O O9 0.818359 0.000000 0.785028
O O10 0.843936 0.949964 0.000000
O O11 0.621351 0.252992 0.500000
O O12 0.500000 0.260790 0.649908
O O13 0.624974 0.284147 0.750187
O O14 0.750000 0.250000 0.172714
O O15 0.832088 0.203353 0.000000
O O16 0.000000 0.000000 0.866594
O O17 0.000000 0.925662 0.000000
#
# Coordination Sequence:
#
# PCOD8267294 Si02
#       6
#    16  16  16  16  16   8
#     4  10  19  30  46  71  97 121 152 188 232 280
#     4   9  18  32  49  68  89 118 159 198 228 268
#     4   8  14  26  45  68  93 120 153 192 226 262
#     4   9  18  32  48  64  84 118 163 198 222 258
#     4  10  19  30  42  64  98 126 146 178 228 282
#     4   7  10  20  40  64  89 117 147 181 221 259
#
# _framework density 16.679970000000001
#
# number of rings (size 3 to 8) (size 9 to 14) (size 15 to 20)
#    0.000    3.000    1.818    2.182    0.000    1.818 
#    1.636    1.818    0.000    1.091    0.000    3.818 
#    0.000    2.182    0.000    0.000    0.000    0.000 
#
# Total GULP energy -545266.421216 kJ/mol
# GULP energy per Si atom -12392.418664 kJ/mol
# Density = 1.664201 g / cm^3
# Si number density = 16.679970 Si / 1000 Ang^3
#
#
#
# Elastic Constant Matrix: (Units=GPa)
#
#
# Indices 1 2 3 4 5 6 
#
# 1 125.1564 54.3451 52.4261 0.0000 0.0000 0.0000
# 2 54.3451 74.5105 23.1845 0.0000 0.0000 0.0000
# 3 52.4261 23.1845 46.0927 0.0000 0.0000 0.0000
# 4 0.0000 0.0000 0.0000 6.6702 0.0000 0.0000
# 5 0.0000 0.0000 0.0000 0.0000 28.3995 0.0000
# 6 0.0000 0.0000 0.0000 0.0000 0.0000 29.8108
#
#
#
# Elastic Compliance Matrix: (Units=1/GPa)
#
#
# Indices 1 2 3 4 5 6 
#
# 1 0.018841 -0.008387 -0.017212 0.000000 0.000000 0.000000
# 2 -0.008387 0.019644 -0.000342 0.000000 0.000000 0.000000
# 3 -0.017212 -0.000342 0.041444 0.000000 0.000000 0.000000
# 4 0.000000 0.000000 0.000000 0.149920 0.000000 0.000000
# 5 0.000000 0.000000 0.000000 0.000000 0.035212 0.000000
# 6 0.000000 0.000000 0.000000 0.000000 0.000000 0.033545
#
#
# Mechanical properties :
#
#
# Convention : Reuss Voigt Hill
#
# Bulk Modulus (GPa) = 35.65202 56.18568 45.91885
# Shear Modulus (GPa) = 13.89516 20.69635 17.29576
#
# Velocity S-wave (km/s) = 2.88938 3.52631 3.22361
# Velocity P-wave (km/s) = 5.70543 7.09489 6.43775
#
# Compressibility (1/GPa) = 0.02804890
#
# Stress axis : x y z
#
# Youngs Moduli (GPa) = 53.07477 50.90560 24.12882
#
# Poissons Ratio (x) = 0.42692 0.41530
# Poissons Ratio (y) = 0.44512 0.00825
# Poissons Ratio (z) = 0.91351 0.01741
#
# Static dielectric constant tensor:
#      x y z
#    x 3.253450 0.000000 0.000000 
#    y 0.000000 2.992770 0.000000 
#    z 0.000000 0.000000 2.854860 
# 
# 
# High freq. dielectric constant tensor:
#      x y z
#    x 1.650300 0.000000 0.000000 
#    y 0.000000 1.613650 0.000000 
#    z 0.000000 0.000000 1.609810 
# 
# From -- ./inp_files/25166.got.cif
#   From: 2010.03.12/outbox.cif.g09.slc.cpg/sg65_13_cif.got.tgz:25166.got - 2010.04.10 20:52:16.
