data_PCOD8267039
_publ_section_title
;
Structure prediction by ZEFSAII (Michael W. Deem and Ramdas Pophale) SiO2 
 PCOD8267039
Probable space group: C M M M
;
_chemical_formula_sum "Si O2"
_cell_formula_units_Z 96
_cell_length_a 21.159084
_cell_length_b 19.388693
_cell_length_c 17.300672
_cell_angle_alpha 90.000000
_cell_angle_beta 90.000000
_cell_angle_gamma 90.000000
_cell_volume 7097.548506
_symmetry_space_group_name_H-M "C M M M"
_symmetry_group_IT_number 65
_symmetry_cell_setting 'orthorhombic'
loop_
_space_group_symop_operation_xyz
x,y,z
-x,-y,z
x,-y,-z
-x,y,-z
-x,-y,-z
x,y,-z
-x,y,z
x,-y,z
1/2+x,1/2+y,z
1/2-x,1/2-y,z
1/2+x,1/2-y,-z
1/2-x,1/2+y,-z
1/2-x,1/2-y,-z
1/2+x,1/2+y,-z
1/2-x,1/2+y,z
1/2+x,1/2-y,z
loop_
_atom_site_type_symbol
_atom_site_label
_atom_site_fract_x
_atom_site_fract_y
_atom_site_fract_z
Si Si1 0.120145 0.659522 0.908173
Si Si2 0.500000 0.922315 0.092321
Si Si3 0.072199 0.802253 0.912840
Si Si4 0.075030 0.075513 0.500000
Si Si5 0.129577 0.920196 0.178167
Si Si6 0.256525 0.920495 0.910903
Si Si7 0.429405 0.418503 0.335300
O O1 0.114550 0.738951 0.879618
O O2 0.186331 0.627089 0.881135
O O3 0.062339 0.614974 0.874083
O O4 0.115508 0.657554 0.000000
O O5 0.500000 0.000000 0.123808
O O6 0.500000 0.921000 0.000000
O O7 0.080140 0.872546 0.866190
O O8 0.000000 0.777498 0.908847
O O9 0.092751 0.818644 0.000000
O O10 0.093836 0.113500 0.418600
O O11 0.000000 0.068300 0.500000
O O12 0.107117 0.000000 0.500000
O O13 0.199372 0.903810 0.147078
O O14 0.121853 0.901156 0.268838
O O15 0.111619 0.000000 0.162688
O O16 0.277476 0.000000 0.904529
O O17 0.237613 0.903576 0.000000
O O18 0.500000 0.390863 0.312981
O O19 0.434173 0.500000 0.347016
#
# Coordination Sequence:
#
# PCOD8267039 Si02
#       7
#    16   8  16   8  16  16  16
#     4   9  16  27  40  54  71  90 118 159 204 240
#     4   9  14  22  40  60  71  83 109 152 206 253
#     4  10  19  29  39  51  71  98 129 166 198 221
#     4   7  10  18  34  54  72  89 112 149 193 226
#     4  10  19  28  37  51  74 105 136 158 176 206
#     4   9  17  28  40  54  73  97 127 161 192 224
#     4   8  13  22  36  53  72  94 122 155 188 218
#
# _framework density 13.525797000000001
#
# number of rings (size 3 to 8) (size 9 to 14) (size 15 to 20)
#    0.000    3.000    0.833    2.500    0.000    4.667 
#    0.000    3.333    0.000    0.000    0.000    0.000 
#    0.000    2.667    0.000    0.167    0.000    0.500 
#
# Total GULP energy -594673.059394 kJ/mol
# GULP energy per Si atom -12389.022071 kJ/mol
# Density = 1.349501 g / cm^3
# Si number density = 13.525797 Si / 1000 Ang^3
#
#
#
# Elastic Constant Matrix: (Units=GPa)
#
#
# Indices 1 2 3 4 5 6 
#
# 1 69.1024 28.2020 44.4555 0.0000 0.0000 0.0000
# 2 28.2020 57.0388 31.3369 0.0000 0.0000 0.0000
# 3 44.4555 31.3369 83.4213 0.0000 0.0000 0.0000
# 4 0.0000 0.0000 0.0000 4.3405 0.0000 0.0000
# 5 0.0000 0.0000 0.0000 0.0000 4.8608 0.0000
# 6 0.0000 0.0000 0.0000 0.0000 0.0000 20.5350
#
#
#
# Elastic Compliance Matrix: (Units=1/GPa)
#
#
# Indices 1 2 3 4 5 6 
#
# 1 0.023535 -0.005980 -0.010296 0.000000 0.000000 0.000000
# 2 -0.005980 0.023611 -0.005682 0.000000 0.000000 0.000000
# 3 -0.010296 -0.005682 0.019608 0.000000 0.000000 0.000000
# 4 0.000000 0.000000 0.000000 0.230387 0.000000 0.000000
# 5 0.000000 0.000000 0.000000 0.000000 0.205727 0.000000
# 6 0.000000 0.000000 0.000000 0.000000 0.000000 0.048697
#
#
# Mechanical properties :
#
#
# Convention : Reuss Voigt Hill
#
# Bulk Modulus (GPa) = 43.78670 46.39459 45.09065
# Shear Modulus (GPa) = 8.29057 12.98515 10.63786
#
# Velocity S-wave (km/s) = 2.47846 3.10179 2.80748
# Velocity P-wave (km/s) = 6.37443 6.87048 6.62710
#
# Compressibility (1/GPa) = 0.02283798
#
# Stress axis : x y z
#
# Youngs Moduli (GPa) = 42.48913 42.35379 50.99841
#
# Poissons Ratio (x) = 0.25329 0.52506
# Poissons Ratio (y) = 0.25410 0.28979
# Poissons Ratio (z) = 0.43745 0.24067
#
# Static dielectric constant tensor:
#      x y z
#    x 2.622560 0.000000 0.000000 
#    y 0.000000 2.599150 0.000000 
#    z 0.000000 0.000000 2.699340 
# 
# 
# High freq. dielectric constant tensor:
#      x y z
#    x 1.504790 0.000000 0.000000 
#    y 0.000000 1.498880 0.000000 
#    z 0.000000 0.000000 1.475950 
# 
# From -- ./inp_files/54768.got.cif
#   From: 2010.03.12/outbox.cif.g09.slc.cpg/sg65_28_cif.got.tgz:54768.got - 2010.04.10 20:52:16.
