data_PCOD8267510
_publ_section_title
;
Structure prediction by ZEFSAII (Michael W. Deem and Ramdas Pophale) SiO2 
 PCOD8267510
Probable space group: C M M M
;
_chemical_formula_sum "Si O2"
_cell_formula_units_Z 104
_cell_length_a 23.904111
_cell_length_b 8.474003
_cell_length_c 28.502048
_cell_angle_alpha 90.000000
_cell_angle_beta 90.000000
_cell_angle_gamma 90.000000
_cell_volume 5773.474837
_symmetry_space_group_name_H-M "C M M M"
_symmetry_group_IT_number 65
_symmetry_cell_setting 'orthorhombic'
loop_
_space_group_symop_operation_xyz
x,y,z
-x,-y,z
x,-y,-z
-x,y,-z
-x,-y,-z
x,y,-z
-x,y,z
x,-y,z
1/2+x,1/2+y,z
1/2-x,1/2-y,z
1/2+x,1/2-y,-z
1/2-x,1/2+y,-z
1/2-x,1/2-y,-z
1/2+x,1/2+y,-z
1/2-x,1/2+y,z
1/2+x,1/2-y,z
loop_
_atom_site_type_symbol
_atom_site_label
_atom_site_fract_x
_atom_site_fract_y
_atom_site_fract_z
Si Si1 0.688206 0.814318 0.950506
Si Si2 0.933897 0.687660 0.500000
Si Si3 0.620849 0.313289 0.237467
Si Si4 0.811775 0.816773 0.327031
Si Si5 0.687503 0.186863 0.848999
Si Si6 0.000000 0.180225 0.251949
Si Si7 0.500000 0.178473 0.348551
Si Si8 0.400880 0.315917 0.596730
O O1 0.750000 0.750000 0.951276
O O2 0.661111 0.764425 0.900415
O O3 0.692434 0.000000 0.950457
O O4 0.657813 0.759156 0.000000
O O5 0.928091 0.500000 0.500000
O O6 0.899409 0.762981 0.542938
O O7 0.000000 0.736477 0.500000
O O8 0.616112 0.500000 0.243593
O O9 0.653503 0.242871 0.282894
O O10 0.650854 0.271391 0.189591
O O11 0.557854 0.239815 0.233987
O O12 0.750000 0.750000 0.329334
O O13 0.842412 0.782174 0.376506
O O14 0.806116 0.000000 0.317351
O O15 0.750000 0.250000 0.844288
O O16 0.686997 0.000000 0.840996
O O17 0.000000 0.192221 0.307965
O O18 0.000000 0.000000 0.236120
O O19 0.553720 0.203710 0.380162
O O20 0.500000 0.000000 0.328829
O O21 0.417155 0.500000 0.601061
#
# Coordination Sequence:
#
# PCOD8267510 Si02
#       8
#    16   8  16  16  16   8   8  16
#     4   8  14  25  41  62  91 128 168 209 254 301
#     4  11  23  37  56  89 117 132 167 221 268 302
#     4  10  20  35  54  76 102 135 171 211 255 306
#     4  10  22  38  57  79 104 137 177 211 247 302
#     4  10  19  30  46  71 103 137 172 212 255 306
#     4  10  20  38  57  75 103 137 172 209 254 310
#     4  12  22  33  55  86 112 135 166 216 265 299
#     4  11  22  39  60  81 108 145 179 207 251 312
#
# _framework density 18.013415999999999
#
# number of rings (size 3 to 8) (size 9 to 14) (size 15 to 20)
#    0.000    1.923    2.308    2.308    0.000    4.615 
#    0.000    0.385    0.000    0.000    0.000    0.538 
#    0.000    4.308    0.000    0.000    0.000    0.000 
#
# Total GULP energy -644195.274865 kJ/mol
# GULP energy per Si atom -12388.370670 kJ/mol
# Density = 1.797242 g / cm^3
# Si number density = 18.013416 Si / 1000 Ang^3
#
#
#
# Elastic Constant Matrix: (Units=GPa)
#
#
# Indices 1 2 3 4 5 6 
#
# 1 124.6579 23.3421 65.7540 0.0000 0.0000 0.0000
# 2 23.3421 31.4291 13.1869 0.0000 0.0000 0.0000
# 3 65.7540 13.1869 156.8580 0.0000 0.0000 0.0000
# 4 0.0000 0.0000 0.0000 19.4743 0.0000 0.0000
# 5 0.0000 0.0000 0.0000 0.0000 24.6174 0.0000
# 6 0.0000 0.0000 0.0000 0.0000 0.0000 16.5552
#
#
#
# Elastic Compliance Matrix: (Units=1/GPa)
#
#
# Indices 1 2 3 4 5 6 
#
# 1 0.011544 -0.006782 -0.004269 0.000000 0.000000 0.000000
# 2 -0.006782 0.036966 -0.000265 0.000000 0.000000 0.000000
# 3 -0.004269 -0.000265 0.008187 0.000000 0.000000 0.000000
# 4 0.000000 0.000000 0.000000 0.051350 0.000000 0.000000
# 5 0.000000 0.000000 0.000000 0.000000 0.040622 0.000000
# 6 0.000000 0.000000 0.000000 0.000000 0.000000 0.060404
#
#
# Mechanical properties :
#
#
# Convention : Reuss Voigt Hill
#
# Bulk Modulus (GPa) = 29.35568 57.50123 43.42845
# Shear Modulus (GPa) = 20.57121 26.17351 23.37236
#
# Velocity S-wave (km/s) = 3.38301 3.81596 3.60599
# Velocity P-wave (km/s) = 5.62064 7.16980 6.44196
#
# Compressibility (1/GPa) = 0.03406496
#
# Stress axis : x y z
#
# Youngs Moduli (GPa) = 86.62785 27.05202 122.14613
#
# Poissons Ratio (x) = 0.18347 0.52142
# Poissons Ratio (y) = 0.58753 0.03232
# Poissons Ratio (z) = 0.36980 0.00716
#
# Static dielectric constant tensor:
#      x y z
#    x 3.246720 0.000000 0.000000 
#    y 0.000000 3.231460 0.000000 
#    z 0.000000 0.000000 3.873650 
# 
# 
# High freq. dielectric constant tensor:
#      x y z
#    x 1.665370 0.000000 0.000000 
#    y 0.000000 1.692840 0.000000 
#    z 0.000000 0.000000 1.712840 
# 
# From -- ./inp_files/75544.got.cif
#   From: 2010.03.12/outbox.cif.g09.slc.cpg/sg65_38_cif.got.tgz:75544.got - 2010.04.10 20:52:16.
