data_PCOD8267626
_publ_section_title
;
Structure prediction by ZEFSAII (Michael W. Deem and Ramdas Pophale) SiO2 
 PCOD8267626
Probable space group: C M M M
;
_chemical_formula_sum "Si O2"
_cell_formula_units_Z 96
_cell_length_a 23.557564
_cell_length_b 9.112539
_cell_length_c 25.768340
_cell_angle_alpha 90.000000
_cell_angle_beta 90.000000
_cell_angle_gamma 90.000000
_cell_volume 5531.669466
_symmetry_space_group_name_H-M "C M M M"
_symmetry_group_IT_number 65
_symmetry_cell_setting 'orthorhombic'
loop_
_space_group_symop_operation_xyz
x,y,z
-x,-y,z
x,-y,-z
-x,y,-z
-x,-y,-z
x,y,-z
-x,y,z
x,-y,z
1/2+x,1/2+y,z
1/2-x,1/2-y,z
1/2+x,1/2-y,-z
1/2-x,1/2+y,-z
1/2-x,1/2-y,-z
1/2+x,1/2+y,-z
1/2-x,1/2+y,z
1/2+x,1/2-y,z
loop_
_atom_site_type_symbol
_atom_site_label
_atom_site_fract_x
_atom_site_fract_y
_atom_site_fract_z
Si Si1 0.500000 0.673169 0.601949
Si Si2 0.190964 0.170115 0.945248
Si Si3 0.808757 0.672135 0.355766
Si Si4 0.121888 0.667268 0.746579
Si Si5 0.810386 0.172409 0.832677
Si Si6 0.500000 0.833459 0.291384
Si Si7 0.619444 0.329092 0.439971
O O1 0.500000 0.500000 0.601141
O O2 0.500000 0.724594 0.660763
O O3 0.556191 0.730486 0.572605
O O4 0.250000 0.250000 0.947186
O O5 0.162030 0.210306 0.889877
O O6 0.205191 0.000000 0.944291
O O7 0.157260 0.208137 0.000000
O O8 0.798382 0.500000 0.363333
O O9 0.750000 0.750000 0.342075
O O10 0.851698 0.706598 0.309074
O O11 0.834424 0.737183 0.408383
O O12 0.136309 0.500000 0.761584
O O13 0.145340 0.773398 0.790465
O O14 0.054687 0.695024 0.744211
O O15 0.750000 0.250000 0.824636
O O16 0.800818 0.000000 0.825149
O O17 0.500000 0.000000 0.313074
O O18 0.632489 0.302326 0.500000
O O19 0.625112 0.500000 0.425084
#
# Coordination Sequence:
#
# PCOD8267626 Si02
#       7
#     8  16  16  16  16   8  16
#     4  10  19  34  58  84 106 129 159 201 250 298
#     4   8  14  25  41  64  96 133 169 205 245 288
#     4  11  23  38  56  76 101 134 170 206 248 299
#     4  10  21  36  54  75 101 131 165 207 253 301
#     4  10  19  30  48  74 105 138 172 208 247 296
#     4  10  20  37  57  77 101 129 162 204 254 301
#     4  10  21  37  57  81 107 133 163 201 247 298
#
# _framework density 17.354616
#
# number of rings (size 3 to 8) (size 9 to 14) (size 15 to 20)
#    0.000    2.167    1.667    1.750    0.000    5.667 
#    0.000    0.000    0.000    1.500    0.000    0.583 
#    0.000    4.667    0.000    0.000    0.000    0.000 
#
# Total GULP energy -594898.412783 kJ/mol
# GULP energy per Si atom -12393.716933 kJ/mol
# Density = 1.731512 g / cm^3
# Si number density = 17.354616 Si / 1000 Ang^3
#
#
#
# Elastic Constant Matrix: (Units=GPa)
#
#
# Indices 1 2 3 4 5 6 
#
# 1 93.4019 33.4559 39.5595 0.0000 0.0000 0.0000
# 2 33.4559 50.9840 40.8909 0.0000 0.0000 0.0000
# 3 39.5595 40.8909 118.4795 0.0000 0.0000 0.0000
# 4 0.0000 0.0000 0.0000 22.4897 0.0000 0.0000
# 5 0.0000 0.0000 0.0000 0.0000 8.8693 0.0000
# 6 0.0000 0.0000 0.0000 0.0000 0.0000 21.7766
#
#
#
# Elastic Compliance Matrix: (Units=1/GPa)
#
#
# Indices 1 2 3 4 5 6 
#
# 1 0.014377 -0.007721 -0.002135 0.000000 0.000000 0.000000
# 2 -0.007721 0.031268 -0.008214 0.000000 0.000000 0.000000
# 3 -0.002135 -0.008214 0.011988 0.000000 0.000000 0.000000
# 4 0.000000 0.000000 0.000000 0.044465 0.000000 0.000000
# 5 0.000000 0.000000 0.000000 0.000000 0.112749 0.000000
# 6 0.000000 0.000000 0.000000 0.000000 0.000000 0.045921
#
#
# Mechanical properties :
#
#
# Convention : Reuss Voigt Hill
#
# Bulk Modulus (GPa) = 46.52806 54.51977 50.52392
# Shear Modulus (GPa) = 16.44348 20.55772 18.50060
#
# Velocity S-wave (km/s) = 3.08149 3.44549 3.26856
# Velocity P-wave (km/s) = 6.28722 6.87836 6.58942
#
# Compressibility (1/GPa) = 0.02149241
#
# Stress axis : x y z
#
# Youngs Moduli (GPa) = 69.55770 31.98125 83.41657
#
# Poissons Ratio (x) = 0.24694 0.17813
# Poissons Ratio (y) = 0.53708 0.68515
# Poissons Ratio (z) = 0.14853 0.26268
#
# Static dielectric constant tensor:
#      x y z
#    x 3.100350 0.000000 0.000000 
#    y 0.000000 3.246080 0.000000 
#    z 0.000000 0.000000 3.635340 
# 
# 
# High freq. dielectric constant tensor:
#      x y z
#    x 1.642590 0.000000 0.000000 
#    y 0.000000 1.674500 0.000000 
#    z 0.000000 0.000000 1.682190 
# 
# From -- ./inp_files/71425.got.cif
#   From: 2010.03.12/outbox.cif.g09.slc.cpg/sg65_36_cif.got.tgz:71425.got - 2010.04.10 20:52:16.
