data_PCOD8267924
_publ_section_title
;
Structure prediction by ZEFSAII (Michael W. Deem and Ramdas Pophale) SiO2 
 PCOD8267924
Probable space group: C M M M
;
_chemical_formula_sum "Si O2"
_cell_formula_units_Z 72
_cell_length_a 7.459950
_cell_length_b 18.089420
_cell_length_c 25.127131
_cell_angle_alpha 90.000000
_cell_angle_beta 90.000000
_cell_angle_gamma 90.000000
_cell_volume 3390.810060
_symmetry_space_group_name_H-M "C M M M"
_symmetry_group_IT_number 65
_symmetry_cell_setting 'orthorhombic'
loop_
_space_group_symop_operation_xyz
x,y,z
-x,-y,z
x,-y,-z
-x,y,-z
-x,-y,-z
x,y,-z
-x,y,z
x,-y,z
1/2+x,1/2+y,z
1/2-x,1/2-y,z
1/2+x,1/2-y,-z
1/2-x,1/2+y,-z
1/2-x,1/2-y,-z
1/2+x,1/2+y,-z
1/2-x,1/2+y,z
1/2+x,1/2-y,z
loop_
_atom_site_type_symbol
_atom_site_label
_atom_site_fract_x
_atom_site_fract_y
_atom_site_fract_z
Si Si1 0.500000 0.085324 0.062771
Si Si2 0.290497 0.336231 0.869802
Si Si3 0.213006 0.916519 0.558326
Si Si4 0.790484 0.164886 0.339835
Si Si5 0.287165 0.416836 0.236731
O O1 0.679522 0.124565 0.083751
O O2 0.500000 0.000000 0.080449
O O3 0.500000 0.094086 0.000000
O O4 0.500000 0.351759 0.880022
O O5 0.250000 0.250000 0.869283
O O6 0.223125 0.369879 0.813931
O O7 0.283164 0.890211 0.500000
O O8 0.294699 0.864608 0.604716
O O9 0.000000 0.913253 0.558639
O O10 0.277604 0.000000 0.569265
O O11 0.750000 0.250000 0.332508
O O12 0.706547 0.121008 0.289830
O O13 0.000000 0.149693 0.341138
O O14 0.500000 0.417543 0.239330
O O15 0.211352 0.500000 0.232315
#
# Coordination Sequence:
#
# PCOD8267924 Si02
#       5
#     8  16  16  16  16
#     4  11  26  46  68  98 133 169 214 262 309 366
#     4  11  22  41  66  96 129 168 209 259 314 371
#     4   8  14  26  46  70  94 126 175 228 274 327
#     4  10  19  31  48  72 104 139 176 226 282 340
#     4   9  18  33  56  82 110 147 192 239 292 353
#
# _framework density 21.233864000000001
#
# number of rings (size 3 to 8) (size 9 to 14) (size 15 to 20)
#    0.000    2.333    1.111    2.667    0.000    5.333 
#    2.000    1.111    0.000    2.000    0.000    1.556 
#    0.000    0.000    0.000    0.000    0.000    0.000 
#
# Total GULP energy -446329.438671 kJ/mol
# GULP energy per Si atom -12398.039963 kJ/mol
# Density = 2.118553 g / cm^3
# Si number density = 21.233864 Si / 1000 Ang^3
#
#
#
# Elastic Constant Matrix: (Units=GPa)
#
#
# Indices 1 2 3 4 5 6 
#
# 1 64.8895 21.8622 33.4230 0.0000 0.0000 0.0000
# 2 21.8622 185.5456 97.9553 0.0000 0.0000 0.0000
# 3 33.4230 97.9553 163.7766 0.0000 0.0000 0.0000
# 4 0.0000 0.0000 0.0000 38.2070 0.0000 0.0000
# 5 0.0000 0.0000 0.0000 0.0000 -5.6277 0.0000
# 6 0.0000 0.0000 0.0000 0.0000 0.0000 14.9210
#
#
#
# Elastic Compliance Matrix: (Units=1/GPa)
#
#
# Indices 1 2 3 4 5 6 
#
# 1 0.017229 -0.000254 -0.003364 0.000000 0.000000 0.000000
# 2 -0.000254 0.007880 -0.004661 0.000000 0.000000 0.000000
# 3 -0.003364 -0.004661 0.009580 0.000000 0.000000 0.000000
# 4 0.000000 0.000000 0.000000 0.026173 0.000000 0.000000
# 5 0.000000 0.000000 0.000000 0.000000 -0.177692 0.000000
# 6 0.000000 0.000000 0.000000 0.000000 0.000000 0.067020
#
#
# Mechanical properties :
#
#
# Convention : Reuss Voigt Hill
#
# Bulk Modulus (GPa) = 55.15479 80.07697 67.61588
# Shear Modulus (GPa) = -183.78104 26.89814 -78.44145
#
# Velocity S-wave (km/s) = -9.31337 3.56301 -6.08456
# Velocity P-wave (km/s) = 9.46681 7.39733 4.17731
#
# Compressibility (1/GPa) = 0.01813079
#
# Stress axis : x y z
#
# Youngs Moduli (GPa) = 58.04109 126.89791 104.37940
#
# Poissons Ratio (x) = 0.03223 0.35115
# Poissons Ratio (y) = 0.01474 0.48656
# Poissons Ratio (z) = 0.19526 0.59153
#
# Static dielectric constant tensor:
#      x y z
#    x 3.550130 0.000000 0.000000 
#    y 0.000000 3.843500 0.000000 
#    z 0.000000 0.000000 4.166540 
# 
# 
# High freq. dielectric constant tensor:
#      x y z
#    x 1.811140 0.000000 0.000000 
#    y 0.000000 1.836670 0.000000 
#    z 0.000000 0.000000 1.842030 
# 
# From -- ./inp_files/66980.got.cif
#   From: 2010.03.12/outbox.cif.g09.slc.cpg/sg65_34_cif.got.tgz:66980.got - 2010.04.10 20:52:16.
