data_PCOD8267332
_publ_section_title
;
Structure prediction by ZEFSAII (Michael W. Deem and Ramdas Pophale) SiO2 
 PCOD8267332
Probable space group: C M M M
;
_chemical_formula_sum "Si O2"
_cell_formula_units_Z 88
_cell_length_a 9.713584
_cell_length_b 31.592582
_cell_length_c 19.412794
_cell_angle_alpha 90.000000
_cell_angle_beta 90.000000
_cell_angle_gamma 90.000000
_cell_volume 5957.343848
_symmetry_space_group_name_H-M "C M M M"
_symmetry_group_IT_number 65
_symmetry_cell_setting 'orthorhombic'
loop_
_space_group_symop_operation_xyz
x,y,z
-x,-y,z
x,-y,-z
-x,y,-z
-x,-y,-z
x,y,-z
-x,y,z
x,-y,z
1/2+x,1/2+y,z
1/2-x,1/2-y,z
1/2+x,1/2-y,-z
1/2-x,1/2+y,-z
1/2-x,1/2-y,-z
1/2+x,1/2+y,-z
1/2-x,1/2+y,z
1/2+x,1/2-y,z
loop_
_atom_site_type_symbol
_atom_site_label
_atom_site_fract_x
_atom_site_fract_y
_atom_site_fract_z
Si Si1 0.343894 0.500000 0.081868
Si Si2 0.000000 0.182964 0.918420
Si Si3 0.346623 0.924437 0.078863
Si Si4 0.780004 0.661209 0.855559
Si Si5 0.162059 0.293068 0.722753
Si Si6 0.500000 0.779938 0.919301
Si Si7 0.343887 0.790390 0.572805
O O1 0.500000 0.500000 0.110998
O O2 0.263159 0.541639 0.107656
O O3 0.343488 0.500000 0.000000
O O4 0.871588 0.159182 0.885900
O O5 0.000000 0.231588 0.895603
O O6 0.000000 0.177287 0.000000
O O7 0.500000 0.944318 0.081602
O O8 0.347623 0.883820 0.128410
O O9 0.311278 0.911095 0.000000
O O10 0.782352 0.670701 0.773997
O O11 0.862024 0.699134 0.891438
O O12 0.250000 0.250000 0.732024
O O13 0.184856 0.313564 0.645909
O O14 0.000000 0.283475 0.737388
O O15 0.500000 0.784860 0.000000
O O16 0.319964 0.816622 0.500000
O O17 0.500000 0.773963 0.574743
O O18 0.250000 0.750000 0.569871
#
# Coordination Sequence:
#
# PCOD8267332 Si02
#       7
#     8   8  16  16  16   8  16
#     4   9  19  33  51  71  87 103 130 175 226 272
#     4  11  24  34  44  59  82 116 156 195 227 254
#     4  10  19  33  50  66  85 109 140 177 222 274
#     4  12  22  32  46  64  85 114 149 189 227 265
#     4  10  19  30  44  62  86 116 149 185 222 260
#     4  11  20  34  46  57  80 114 154 189 221 254
#     4   8  14  25  41  60  81 107 141 179 217 257
#
# _framework density 14.771684
#
# number of rings (size 3 to 8) (size 9 to 14) (size 15 to 20)
#    0.000    1.909    1.818    3.545    2.545    2.545 
#    0.000    0.000    0.000    0.000    0.000    0.000 
#    0.000    0.000    0.000    0.818    0.000   13.727 
#
# Total GULP energy -545182.922323 kJ/mol
# GULP energy per Si atom -12390.520962 kJ/mol
# Density = 1.473806 g / cm^3
# Si number density = 14.771684 Si / 1000 Ang^3
#
#
#
# Elastic Constant Matrix: (Units=GPa)
#
#
# Indices 1 2 3 4 5 6 
#
# 1 88.1995 19.7862 22.8347 0.0000 0.0000 0.0000
# 2 19.7862 51.5179 38.2131 0.0000 0.0000 0.0000
# 3 22.8347 38.2131 89.5227 0.0000 0.0000 0.0000
# 4 0.0000 0.0000 0.0000 9.0558 0.0000 0.0000
# 5 0.0000 0.0000 0.0000 0.0000 15.1943 0.0000
# 6 0.0000 0.0000 0.0000 0.0000 0.0000 20.6131
#
#
#
# Elastic Compliance Matrix: (Units=1/GPa)
#
#
# Indices 1 2 3 4 5 6 
#
# 1 0.012577 -0.003586 -0.001677 0.000000 0.000000 0.000000
# 2 -0.003586 0.029426 -0.011646 0.000000 0.000000 0.000000
# 3 -0.001677 -0.011646 0.016569 0.000000 0.000000 0.000000
# 4 0.000000 0.000000 0.000000 0.110427 0.000000 0.000000
# 5 0.000000 0.000000 0.000000 0.000000 0.065814 0.000000
# 6 0.000000 0.000000 0.000000 0.000000 0.000000 0.048513
#
#
# Mechanical properties :
#
#
# Convention : Reuss Voigt Hill
#
# Bulk Modulus (GPa) = 40.39822 43.43422 41.91622
# Shear Modulus (GPa) = 15.36589 18.86638 17.11614
#
# Velocity S-wave (km/s) = 3.22875 3.57767 3.40768
# Velocity P-wave (km/s) = 6.42710 6.82157 6.62727
#
# Compressibility (1/GPa) = 0.02475356
#
# Stress axis : x y z
#
# Youngs Moduli (GPa) = 79.51234 33.98298 60.35257
#
# Poissons Ratio (x) = 0.12187 0.10122
# Poissons Ratio (y) = 0.28515 0.70287
# Poissons Ratio (z) = 0.13335 0.39577
#
# Static dielectric constant tensor:
#      x y z
#    x 3.101130 0.000000 0.000000 
#    y 0.000000 2.531840 0.000000 
#    z 0.000000 0.000000 3.318300 
# 
# 
# High freq. dielectric constant tensor:
#      x y z
#    x 1.587440 0.000000 0.000000 
#    y 0.000000 1.515520 0.000000 
#    z 0.000000 0.000000 1.554640 
# 
# From -- ./inp_files/60762.got.cif
#   From: 2010.03.12/outbox.cif.g09.slc.cpg/sg65_31_cif.got.tgz:60762.got - 2010.04.10 20:52:16.
