data_PCOD8267587
_publ_section_title
;
Structure prediction by ZEFSAII (Michael W. Deem and Ramdas Pophale) SiO2 
 PCOD8267587
Probable space group: C M M M
;
_chemical_formula_sum "Si O2"
_cell_formula_units_Z 96
_cell_length_a 23.608285
_cell_length_b 9.138027
_cell_length_c 25.925296
_cell_angle_alpha 90.000000
_cell_angle_beta 90.000000
_cell_angle_gamma 90.000000
_cell_volume 5592.945661
_symmetry_space_group_name_H-M "C M M M"
_symmetry_group_IT_number 65
_symmetry_cell_setting 'orthorhombic'
loop_
_space_group_symop_operation_xyz
x,y,z
-x,-y,z
x,-y,-z
-x,y,-z
-x,-y,-z
x,y,-z
-x,y,z
x,-y,z
1/2+x,1/2+y,z
1/2-x,1/2-y,z
1/2+x,1/2-y,-z
1/2-x,1/2+y,-z
1/2-x,1/2-y,-z
1/2+x,1/2+y,-z
1/2-x,1/2+y,z
1/2+x,1/2-y,z
loop_
_atom_site_type_symbol
_atom_site_label
_atom_site_fract_x
_atom_site_fract_y
_atom_site_fract_z
Si Si1 0.378658 0.668661 0.252283
Si Si2 0.691412 0.169209 0.054404
Si Si3 0.892124 0.831739 0.558834
Si Si4 0.308898 0.329783 0.352820
Si Si5 0.310497 0.827549 0.833420
Si Si6 0.500000 0.826409 0.599720
Si Si7 0.500000 0.332265 0.707141
O O1 0.366182 0.500000 0.238931
O O2 0.348807 0.714916 0.305385
O O3 0.356105 0.769238 0.206648
O O4 0.445412 0.698756 0.257704
O O5 0.750000 0.250000 0.052111
O O6 0.662636 0.208795 0.109432
O O7 0.706349 0.000000 0.055576
O O8 0.657486 0.205815 0.000000
O O9 0.872329 0.812849 0.500000
O O10 0.840071 0.781368 0.594674
O O11 0.945613 0.730536 0.569303
O O12 0.908694 0.000000 0.571277
O O13 0.295646 0.500000 0.352876
O O14 0.250000 0.250000 0.347320
O O15 0.250000 0.750000 0.825056
O O16 0.301666 0.000000 0.824899
O O17 0.500000 0.772465 0.658222
O O18 0.500000 0.000000 0.599202
O O19 0.500000 0.500000 0.687070
#
# Coordination Sequence:
#
# PCOD8267587 Si02
#       7
#    16  16  16  16  16   8   8
#     4  10  20  35  55  75  98 129 167 209 251 300
#     4   8  14  25  41  63  94 133 171 206 244 286
#     4  10  21  39  60  77  99 137 176 204 241 301
#     4  10  21  36  54  76 101 132 168 203 244 296
#     4  10  19  30  47  73 106 138 171 208 247 297
#     4  12  23  35  56  85 110 127 155 209 264 300
#     4  10  20  39  61  76  97 132 170 204 246 305
#
# _framework density 17.164480000000001
#
# number of rings (size 3 to 8) (size 9 to 14) (size 15 to 20)
#    0.000    2.167    1.667    2.000    0.000    5.667 
#    0.000    0.000    0.000    0.000    0.000    0.583 
#    0.000    4.667    0.000    0.000    0.000    0.000 
#
# Total GULP energy -594890.053141 kJ/mol
# GULP energy per Si atom -12393.542774 kJ/mol
# Density = 1.712541 g / cm^3
# Si number density = 17.164480 Si / 1000 Ang^3
#
#
#
# Elastic Constant Matrix: (Units=GPa)
#
#
# Indices 1 2 3 4 5 6 
#
# 1 110.1428 41.7242 58.3239 0.0000 0.0000 0.0000
# 2 41.7242 65.8309 51.6411 0.0000 0.0000 0.0000
# 3 58.3239 51.6411 149.8214 0.0000 0.0000 0.0000
# 4 0.0000 0.0000 0.0000 21.6325 0.0000 0.0000
# 5 0.0000 0.0000 0.0000 0.0000 16.0916 0.0000
# 6 0.0000 0.0000 0.0000 0.0000 0.0000 14.1842
#
#
#
# Elastic Compliance Matrix: (Units=1/GPa)
#
#
# Indices 1 2 3 4 5 6 
#
# 1 0.012869 -0.005793 -0.003013 0.000000 0.000000 0.000000
# 2 -0.005793 0.023428 -0.005820 0.000000 0.000000 0.000000
# 3 -0.003013 -0.005820 0.009854 0.000000 0.000000 0.000000
# 4 0.000000 0.000000 0.000000 0.046227 0.000000 0.000000
# 5 0.000000 0.000000 0.000000 0.000000 0.062144 0.000000
# 6 0.000000 0.000000 0.000000 0.000000 0.000000 0.070501
#
#
# Mechanical properties :
#
#
# Convention : Reuss Voigt Hill
#
# Bulk Modulus (GPa) = 59.17759 69.90817 64.54288
# Shear Modulus (GPa) = 19.23765 21.98872 20.61318
#
# Velocity S-wave (km/s) = 3.35144 3.58307 3.46919
# Velocity P-wave (km/s) = 7.03760 7.61148 7.33016
#
# Compressibility (1/GPa) = 0.01689829
#
# Stress axis : x y z
#
# Youngs Moduli (GPa) = 77.70539 42.68478 101.48554
#
# Poissons Ratio (x) = 0.24727 0.30578
# Poissons Ratio (y) = 0.45014 0.59064
# Poissons Ratio (z) = 0.23413 0.24842
#
# Static dielectric constant tensor:
#      x y z
#    x 2.970520 0.000000 0.000000 
#    y 0.000000 3.170440 0.000000 
#    z 0.000000 0.000000 3.747720 
# 
# 
# High freq. dielectric constant tensor:
#      x y z
#    x 1.630720 0.000000 0.000000 
#    y 0.000000 1.662530 0.000000 
#    z 0.000000 0.000000 1.680230 
# 
# From -- ./inp_files/71474.got.cif
#   From: 2010.03.12/outbox.cif.g09.slc.cpg/sg65_36_cif.got.tgz:71474.got - 2010.04.10 20:52:16.
