data_PCOD8267883
_publ_section_title
;
Structure prediction by ZEFSAII (Michael W. Deem and Ramdas Pophale) SiO2 
 PCOD8267883
Probable space group: C M M M
;
_chemical_formula_sum "Si O2"
_cell_formula_units_Z 128
_cell_length_a 19.698749
_cell_length_b 19.702395
_cell_length_c 20.151559
_cell_angle_alpha 90.000000
_cell_angle_beta 90.000000
_cell_angle_gamma 90.000000
_cell_volume 7821.072624
_symmetry_space_group_name_H-M "C M M M"
_symmetry_group_IT_number 65
_symmetry_cell_setting 'orthorhombic'
loop_
_space_group_symop_operation_xyz
x,y,z
-x,-y,z
x,-y,-z
-x,y,-z
-x,-y,-z
x,y,-z
-x,y,z
x,-y,z
1/2+x,1/2+y,z
1/2-x,1/2-y,z
1/2+x,1/2-y,-z
1/2-x,1/2+y,-z
1/2-x,1/2-y,-z
1/2+x,1/2+y,-z
1/2-x,1/2+y,z
1/2+x,1/2-y,z
loop_
_atom_site_type_symbol
_atom_site_label
_atom_site_fract_x
_atom_site_fract_y
_atom_site_fract_z
Si Si1 0.921553 0.205195 0.325138
Si Si2 0.822450 0.280744 0.577262
Si Si3 0.243893 0.140788 0.196651
Si Si4 0.167278 0.076161 0.686806
Si Si5 0.923086 0.679133 0.073937
Si Si6 0.225768 0.575106 0.576154
Si Si7 0.304694 0.922449 0.926092
Si Si8 0.861478 0.259451 0.802765
O O1 0.881617 0.243560 0.383180
O O2 0.894663 0.128826 0.313552
O O3 0.913098 0.247678 0.257531
O O4 0.000000 0.201719 0.345257
O O5 0.834691 0.266060 0.500000
O O6 0.750000 0.250000 0.600526
O O7 0.824563 0.362018 0.592932
O O8 0.222323 0.090562 0.255469
O O9 0.249029 0.101841 0.126798
O O10 0.186820 0.196247 0.186347
O O11 0.316304 0.174458 0.214768
O O12 0.205258 0.082454 0.616975
O O13 0.138326 0.000000 0.696848
O O14 0.876536 0.613760 0.083629
O O15 0.903442 0.734387 0.129133
O O16 0.000000 0.655126 0.084579
O O17 0.913066 0.710713 0.000000
O O18 0.248406 0.581814 0.500000
O O19 0.192165 0.500000 0.589459
O O20 0.321147 0.000000 0.913633
O O21 0.275126 0.908979 0.000000
#
# Coordination Sequence:
#
# PCOD8267883 Si02
#       8
#    16  16  16  16  16  16  16  16
#     4  11  22  33  49  72 100 131 161 197 243 292
#     4  10  19  33  54  76  99 128 164 204 237 278
#     4   9  17  29  47  69  88 117 154 197 240 283
#     4  10  19  31  48  69  96 127 160 195 234 286
#     4   9  17  29  44  62  87 120 155 189 230 283
#     4   9  17  30  51  77  99 122 157 200 241 277
#     4   9  17  28  42  63  91 119 149 189 235 281
#     4   9  18  30  47  68  92 117 153 199 242 283
#
# _framework density 16.366042
#
# number of rings (size 3 to 8) (size 9 to 14) (size 15 to 20)
#    0.000    2.500    1.250    1.500    1.750    1.250 
#    0.000    3.750    0.000    0.375    0.000    4.375 
#    0.000    0.000    0.000   23.250    0.000    0.500 
#
# Total GULP energy -793365.433644 kJ/mol
# GULP energy per Si atom -12396.334901 kJ/mol
# Density = 1.632879 g / cm^3
# Si number density = 16.366042 Si / 1000 Ang^3
#
#
#
# Elastic Constant Matrix: (Units=GPa)
#
#
# Indices 1 2 3 4 5 6 
#
# 1 87.6172 36.2642 48.2640 0.0000 0.0000 0.0000
# 2 36.2642 101.3963 49.3770 0.0000 0.0000 0.0000
# 3 48.2640 49.3770 93.9270 0.0000 0.0000 0.0000
# 4 0.0000 0.0000 0.0000 24.5694 0.0000 0.0000
# 5 0.0000 0.0000 0.0000 0.0000 21.4438 0.0000
# 6 0.0000 0.0000 0.0000 0.0000 0.0000 11.1623
#
#
#
# Elastic Compliance Matrix: (Units=1/GPa)
#
#
# Indices 1 2 3 4 5 6 
#
# 1 0.016328 -0.002357 -0.007151 0.000000 0.000000 0.000000
# 2 -0.002357 0.013596 -0.005936 0.000000 0.000000 0.000000
# 3 -0.007151 -0.005936 0.017442 0.000000 0.000000 0.000000
# 4 0.000000 0.000000 0.000000 0.040701 0.000000 0.000000
# 5 0.000000 0.000000 0.000000 0.000000 0.046634 0.000000
# 6 0.000000 0.000000 0.000000 0.000000 0.000000 0.089587
#
#
# Mechanical properties :
#
#
# Convention : Reuss Voigt Hill
#
# Bulk Modulus (GPa) = 60.69037 61.19456 60.94247
# Shear Modulus (GPa) = 19.18144 21.37077 20.27611
#
# Velocity S-wave (km/s) = 3.42720 3.61751 3.52364
# Velocity P-wave (km/s) = 7.26805 7.41086 7.33980
#
# Compressibility (1/GPa) = 0.01647708
#
# Stress axis : x y z
#
# Youngs Moduli (GPa) = 61.24433 73.55038 57.33439
#
# Poissons Ratio (x) = 0.17339 0.40999
# Poissons Ratio (y) = 0.14438 0.34034
# Poissons Ratio (z) = 0.43795 0.43660
#
# Static dielectric constant tensor:
#      x y z
#    x 2.800650 0.000000 0.000000 
#    y 0.000000 3.274220 0.000000 
#    z 0.000000 0.000000 3.315270 
# 
# 
# High freq. dielectric constant tensor:
#      x y z
#    x 1.595430 0.000000 0.000000 
#    y 0.000000 1.633250 0.000000 
#    z 0.000000 0.000000 1.645320 
# 
# From -- ./inp_files/64110.got.cif
#   From: 2010.03.12/outbox.cif.g09.slc.cpg/sg65_33_cif.got.tgz:64110.got - 2010.04.10 20:52:16.
