data_PCOD8267028
_publ_section_title
;
Structure prediction by ZEFSAII (Michael W. Deem and Ramdas Pophale) SiO2 
 PCOD8267028
Probable space group: C M M M
;
_chemical_formula_sum "Si O2"
_cell_formula_units_Z 88
_cell_length_a 32.113676
_cell_length_b 20.328267
_cell_length_c 9.443381
_cell_angle_alpha 90.000000
_cell_angle_beta 90.000000
_cell_angle_gamma 90.000000
_cell_volume 6164.784357
_symmetry_space_group_name_H-M "C M M M"
_symmetry_group_IT_number 65
_symmetry_cell_setting 'orthorhombic'
loop_
_space_group_symop_operation_xyz
x,y,z
-x,-y,z
x,-y,-z
-x,y,-z
-x,-y,-z
x,y,-z
-x,y,z
x,-y,z
1/2+x,1/2+y,z
1/2-x,1/2-y,z
1/2+x,1/2-y,-z
1/2-x,1/2+y,-z
1/2-x,1/2-y,-z
1/2+x,1/2+y,-z
1/2-x,1/2+y,z
1/2+x,1/2-y,z
loop_
_atom_site_type_symbol
_atom_site_label
_atom_site_fract_x
_atom_site_fract_y
_atom_site_fract_z
Si Si1 0.256441 0.144142 0.341721
Si Si2 0.180825 0.426136 0.836207
Si Si3 0.547898 0.142534 0.668320
Si Si4 0.451194 0.000000 0.652851
Si Si5 0.121362 0.692955 0.832847
Si Si6 0.316518 0.731793 0.659698
O O1 0.254465 0.115304 0.500000
O O2 0.275328 0.088047 0.241349
O O3 0.286068 0.206714 0.336834
O O4 0.209964 0.167072 0.294158
O O5 0.165509 0.500000 0.798162
O O6 0.144978 0.374829 0.792121
O O7 0.191019 0.418705 0.000000
O O8 0.556595 0.146437 0.500000
O O9 0.500000 0.160422 0.700418
O O10 0.559485 0.069047 0.729702
O O11 0.576643 0.192631 0.755489
O O12 0.500000 0.000000 0.624338
O O13 0.428565 0.000000 0.500000
O O14 0.146241 0.755775 0.770770
O O15 0.115632 0.701915 0.000000
O O16 0.334221 0.722900 0.500000
#
# Coordination Sequence:
#
# PCOD8267028 Si02
#       6
#    16  16  16   8  16  16
#     4   8  14  25  41  57  70  89 118 152 184 215
#     4   9  18  29  37  50  76 104 124 147 184 226
#     4   9  17  29  42  53  67  90 121 156 194 231
#     4   7  12  24  39  51  61  79 113 151 183 221
#     4  10  19  27  38  55  74  96 123 155 188 225
#     4   8  14  26  41  55  72  90 114 150 188 221
#
# _framework density 14.274628
#
# number of rings (size 3 to 8) (size 9 to 14) (size 15 to 20)
#    0.000    3.364    0.000    2.727    1.273    2.182 
#    0.000    3.636    0.000    1.636    0.000    0.000 
#    0.000    0.000    0.000    0.000    0.000    0.909 
#
# Total GULP energy -545074.537101 kJ/mol
# GULP energy per Si atom -12388.057661 kJ/mol
# Density = 1.424214 g / cm^3
# Si number density = 14.274628 Si / 1000 Ang^3
#
#
#
# Elastic Constant Matrix: (Units=GPa)
#
#
# Indices 1 2 3 4 5 6 
#
# 1 78.4903 18.7124 43.8213 0.0000 0.0000 0.0000
# 2 18.7124 15.0249 14.3991 0.0000 0.0000 0.0000
# 3 43.8213 14.3991 58.6905 0.0000 0.0000 0.0000
# 4 0.0000 0.0000 0.0000 14.6805 0.0000 0.0000
# 5 0.0000 0.0000 0.0000 0.0000 19.8747 0.0000
# 6 0.0000 0.0000 0.0000 0.0000 0.0000 20.9767
#
#
#
# Elastic Compliance Matrix: (Units=1/GPa)
#
#
# Indices 1 2 3 4 5 6 
#
# 1 0.024841 -0.017209 -0.014326 0.000000 0.000000 0.000000
# 2 -0.017209 0.098936 -0.011424 0.000000 0.000000 0.000000
# 3 -0.014326 -0.011424 0.030538 0.000000 0.000000 0.000000
# 4 0.000000 0.000000 0.000000 0.068118 0.000000 0.000000
# 5 0.000000 0.000000 0.000000 0.000000 0.050315 0.000000
# 6 0.000000 0.000000 0.000000 0.000000 0.000000 0.047672
#
#
# Mechanical properties :
#
#
# Convention : Reuss Voigt Hill
#
# Bulk Modulus (GPa) = 14.62029 34.00793 24.31411
# Shear Modulus (GPa) = 11.65132 16.12457 13.88794
#
# Velocity S-wave (km/s) = 2.86007 3.36459 3.12254
# Velocity P-wave (km/s) = 4.60120 6.24257 5.48365
#
# Compressibility (1/GPa) = 0.06839812
#
# Stress axis : x y z
#
# Youngs Moduli (GPa) = 40.25583 10.10751 32.74657
#
# Poissons Ratio (x) = 0.17394 0.46912
# Poissons Ratio (y) = 0.69275 0.37410
# Poissons Ratio (z) = 0.57669 0.11547
#
# Static dielectric constant tensor:
#      x y z
#    x 2.762710 0.000000 0.000000 
#    y 0.000000 2.658240 0.000000 
#    z 0.000000 0.000000 2.750330 
# 
# 
# High freq. dielectric constant tensor:
#      x y z
#    x 1.527420 0.000000 0.000000 
#    y 0.000000 1.494300 0.000000 
#    z 0.000000 0.000000 1.542110 
# 
# From -- ./inp_files/14967.got.cif
#   From: 2010.03.12/outbox.cif.g09.slc.cpg/sg65_8_cif.got.tgz:14967.got - 2010.04.10 20:52:16.
