data_PCOD8267703
_publ_section_title
;
Structure prediction by ZEFSAII (Michael W. Deem and Ramdas Pophale) SiO2 
 PCOD8267703
Probable space group: C M M M
;
_chemical_formula_sum "Si O2"
_cell_formula_units_Z 88
_cell_length_a 29.224952
_cell_length_b 8.553423
_cell_length_c 18.301884
_cell_angle_alpha 90.000000
_cell_angle_beta 90.000000
_cell_angle_gamma 90.000000
_cell_volume 4574.983742
_symmetry_space_group_name_H-M "C M M M"
_symmetry_group_IT_number 65
_symmetry_cell_setting 'orthorhombic'
loop_
_space_group_symop_operation_xyz
x,y,z
-x,-y,z
x,-y,-z
-x,y,-z
-x,-y,-z
x,y,-z
-x,y,z
x,-y,z
1/2+x,1/2+y,z
1/2-x,1/2-y,z
1/2+x,1/2-y,-z
1/2-x,1/2+y,-z
1/2-x,1/2-y,-z
1/2+x,1/2+y,-z
1/2-x,1/2+y,z
1/2+x,1/2-y,z
loop_
_atom_site_type_symbol
_atom_site_label
_atom_site_fract_x
_atom_site_fract_y
_atom_site_fract_z
Si Si1 0.854003 0.686058 0.858725
Si Si2 0.450230 0.185763 0.352000
Si Si3 0.858156 0.686349 0.419324
Si Si4 0.199625 0.314464 0.283546
Si Si5 0.199118 0.686150 0.000000
Si Si6 0.950281 0.685926 0.186949
O O1 0.852974 0.500000 0.859940
O O2 0.829626 0.747700 0.785197
O O3 0.827448 0.752167 0.929111
O O4 0.906929 0.746615 0.860401
O O5 0.500000 0.240779 0.382463
O O6 0.409107 0.251625 0.401709
O O7 0.443854 0.247427 0.269474
O O8 0.448027 0.000000 0.351235
O O9 0.843740 0.746855 0.500000
O O10 0.858721 0.500000 0.417451
O O11 0.822707 0.749767 0.358750
O O12 0.200766 0.500000 0.283789
O O13 0.250000 0.250000 0.276131
O O14 0.250000 0.750000 0.000000
O O15 0.200585 0.500000 0.000000
O O16 0.949958 0.500000 0.187356
O O17 0.000000 0.744371 0.156096
#
# Coordination Sequence:
#
# PCOD8267703 Si02
#       6
#    16  16  16  16   8  16
#     4   9  16  28  44  63  88 116 143 175 216 259
#     4   8  12  19  33  54  81 112 141 168 205 256
#     4   9  16  25  37  56  83 112 142 177 215 254
#     4  10  19  31  46  62  83 113 147 180 216 256
#     4  10  20  32  47  67  91 117 148 184 219 252
#     4   8  12  20  37  59  84 114 142 167 205 259
#
# _framework density 19.235040000000001
#
# number of rings (size 3 to 8) (size 9 to 14) (size 15 to 20)
#    0.000    3.091    1.818    1.636    0.000    0.727 
#    0.000    2.273    0.000    2.727    0.000    0.000 
#    0.000    5.818    0.000    1.636    0.000    1.818 
#
# Total GULP energy -545134.396845 kJ/mol
# GULP energy per Si atom -12389.418110 kJ/mol
# Density = 1.919126 g / cm^3
# Si number density = 19.235040 Si / 1000 Ang^3
#
#
#
# Elastic Constant Matrix: (Units=GPa)
#
#
# Indices 1 2 3 4 5 6 
#
# 1 193.6032 6.3007 93.0795 0.0000 0.0000 0.0000
# 2 6.3007 3.0351 7.8996 0.0000 0.0000 0.0000
# 3 93.0795 7.8996 147.8373 0.0000 0.0000 0.0000
# 4 0.0000 0.0000 0.0000 4.6373 0.0000 0.0000
# 5 0.0000 0.0000 0.0000 0.0000 25.4942 0.0000
# 6 0.0000 0.0000 0.0000 0.0000 0.0000 16.3727
#
#
#
# Elastic Compliance Matrix: (Units=1/GPa)
#
#
# Indices 1 2 3 4 5 6 
#
# 1 0.007445 -0.003781 -0.004485 0.000000 0.000000 0.000000
# 2 -0.003781 0.384619 -0.018172 0.000000 0.000000 0.000000
# 3 -0.004485 -0.018172 0.010559 0.000000 0.000000 0.000000
# 4 0.000000 0.000000 0.000000 0.215642 0.000000 0.000000
# 5 0.000000 0.000000 0.000000 0.000000 0.039225 0.000000
# 6 0.000000 0.000000 0.000000 0.000000 0.000000 0.061077
#
#
# Mechanical properties :
#
#
# Convention : Reuss Voigt Hill
#
# Bulk Modulus (GPa) = 2.85920 62.11504 32.48712
# Shear Modulus (GPa) = 5.63048 25.11389 15.37218
#
# Velocity S-wave (km/s) = 1.71276 3.61727 2.83004
# Velocity P-wave (km/s) = 2.32402 7.05755 5.25405
#
# Compressibility (1/GPa) = 0.34974791
#
# Stress axis : x y z
#
# Youngs Moduli (GPa) = 134.32570 2.59997 94.70528
#
# Poissons Ratio (x) = 0.00983 0.42477
# Poissons Ratio (y) = 0.50785 1.72095
# Poissons Ratio (z) = 0.60247 0.04725
#
# Static dielectric constant tensor:
#      x y z
#    x 4.223250 0.000000 0.000000 
#    y 0.000000 2.693230 0.000000 
#    z 0.000000 0.000000 3.728570 
# 
# 
# High freq. dielectric constant tensor:
#      x y z
#    x 1.770730 0.000000 0.000000 
#    y 0.000000 1.660960 0.000000 
#    z 0.000000 0.000000 1.738180 
# 
# From -- ./inp_files/57983.got.cif
#   From: 2010.03.12/outbox.cif.g09.slc.cpg/sg65_29_cif.got.tgz:57983.got - 2010.04.10 20:52:16.
