data_PCOD8267043
_publ_section_title
;
Structure prediction by ZEFSAII (Michael W. Deem and Ramdas Pophale) SiO2 
 PCOD8267043
Probable space group: C M M M
;
_chemical_formula_sum "Si O2"
_cell_formula_units_Z 112
_cell_length_a 38.727669
_cell_length_b 27.359894
_cell_length_c 9.468841
_cell_angle_alpha 90.000000
_cell_angle_beta 90.000000
_cell_angle_gamma 90.000000
_cell_volume 10033.041121
_symmetry_space_group_name_H-M "C M M M"
_symmetry_group_IT_number 65
_symmetry_cell_setting 'orthorhombic'
loop_
_space_group_symop_operation_xyz
x,y,z
-x,-y,z
x,-y,-z
-x,y,-z
-x,-y,-z
x,y,-z
-x,y,z
x,-y,z
1/2+x,1/2+y,z
1/2-x,1/2-y,z
1/2+x,1/2-y,-z
1/2-x,1/2+y,-z
1/2-x,1/2-y,-z
1/2+x,1/2+y,-z
1/2-x,1/2+y,z
1/2+x,1/2-y,z
loop_
_atom_site_type_symbol
_atom_site_label
_atom_site_fract_x
_atom_site_fract_y
_atom_site_fract_z
Si Si1 0.039151 0.057897 0.000000
Si Si2 0.241458 0.644916 0.844384
Si Si3 0.343201 0.606668 0.670926
Si Si4 0.085469 0.057832 0.745455
Si Si5 0.216255 0.944086 0.836980
Si Si6 0.815645 0.194508 0.160997
Si Si7 0.786833 0.276242 0.340024
Si Si8 0.037671 0.057822 0.500000
O O1 0.063348 0.076163 0.124177
O O2 0.000000 0.080394 0.000000
O O3 0.034774 0.000000 0.000000
O O4 0.249359 0.588220 0.806994
O O5 0.277927 0.671979 0.847013
O O6 0.216805 0.669576 0.727749
O O7 0.224279 0.649582 0.000000
O O8 0.341470 0.610039 0.500000
O O9 0.378771 0.585167 0.727215
O O10 0.313577 0.570553 0.727624
O O11 0.339712 0.659724 0.743181
O O12 0.059472 0.076272 0.628965
O O13 0.093055 0.000000 0.744655
O O14 0.226502 0.000000 0.811034
O O15 0.203785 0.935366 0.000000
O O16 0.813664 0.246305 0.242538
O O17 0.830016 0.201078 0.000000
O O18 0.801029 0.281150 0.500000
O O19 0.750000 0.250000 0.341895
O O20 0.000000 0.082627 0.500000
O O21 0.033328 0.000000 0.500000
#
# Coordination Sequence:
#
# PCOD8267043 Si02
#       8
#     8  16  16  16  16  16  16   8
#     4   9  18  30  42  54  64  76  99 130 158 184
#     4   8  14  24  36  49  63  81 105 129 152 181
#     4  11  20  28  36  50  69  86 105 127 155 193
#     4  10  19  28  39  53  66  82 102 126 156 190
#     4   9  18  29  39  49  65  89 112 132 155 185
#     4   9  17  27  38  49  63  83 103 125 152 183
#     4   9  15  23  36  52  66  79  98 125 155 183
#     4   9  16  28  42  52  64  80  99 124 156 190
#
# _framework density 11.163116
#
# number of rings (size 3 to 8) (size 9 to 14) (size 15 to 20)
#    0.000    2.714    0.714    3.000    2.000    7.714 
#    0.000    0.000    0.000    0.000    0.000    0.000 
#    0.000    0.000    0.000    0.000    0.000    0.000 
#
# Total GULP energy -693731.182923 kJ/mol
# GULP energy per Si atom -12388.056838 kJ/mol
# Density = 1.113771 g / cm^3
# Si number density = 11.163116 Si / 1000 Ang^3
#
#
#
# Elastic Constant Matrix: (Units=GPa)
#
#
# Indices 1 2 3 4 5 6 
#
# 1 35.1425 33.8627 31.5645 0.0000 0.0000 0.0000
# 2 33.8627 63.0041 41.0600 0.0000 0.0000 0.0000
# 3 31.5645 41.0600 104.7870 0.0000 0.0000 0.0000
# 4 0.0000 0.0000 0.0000 7.6702 0.0000 0.0000
# 5 0.0000 0.0000 0.0000 0.0000 16.9311 0.0000
# 6 0.0000 0.0000 0.0000 0.0000 0.0000 9.8585
#
#
#
# Elastic Compliance Matrix: (Units=1/GPa)
#
#
# Indices 1 2 3 4 5 6 
#
# 1 0.063344 -0.029021 -0.007709 0.000000 0.000000 0.000000
# 2 -0.029021 0.034611 -0.004820 0.000000 0.000000 0.000000
# 3 -0.007709 -0.004820 0.013754 0.000000 0.000000 0.000000
# 4 0.000000 0.000000 0.000000 0.130374 0.000000 0.000000
# 5 0.000000 0.000000 0.000000 0.000000 0.059063 0.000000
# 6 0.000000 0.000000 0.000000 0.000000 0.000000 0.101435
#
#
# Mechanical properties :
#
#
# Convention : Reuss Voigt Hill
#
# Bulk Modulus (GPa) = 34.95489 46.21199 40.58344
# Shear Modulus (GPa) = 10.09653 13.32173 11.70913
#
# Velocity S-wave (km/s) = 3.01068 3.45827 3.24221
# Velocity P-wave (km/s) = 6.59290 7.57846 7.10280
#
# Compressibility (1/GPa) = 0.02860830
#
# Stress axis : x y z
#
# Youngs Moduli (GPa) = 15.78674 28.89219 72.70559
#
# Poissons Ratio (x) = 0.83849 0.56049
# Poissons Ratio (y) = 0.45815 0.35046
# Poissons Ratio (z) = 0.12170 0.13927
#
# Static dielectric constant tensor:
#      x y z
#    x 1.298980 0.000000 0.000000 
#    y 0.000000 2.361940 0.000000 
#    z 0.000000 0.000000 2.581920 
# 
# 
# High freq. dielectric constant tensor:
#      x y z
#    x 1.376920 0.000000 0.000000 
#    y 0.000000 1.394240 0.000000 
#    z 0.000000 0.000000 1.443360 
# 
# From -- ./inp_files/19233.got.cif
#   From: 2010.03.12/outbox.cif.g09.slc.cpg/sg65_10_cif.got.tgz:19233.got - 2010.04.10 20:52:16.
