data_PCOD8267661
_publ_section_title
;
Structure prediction by ZEFSAII (Michael W. Deem and Ramdas Pophale) SiO2 
 PCOD8267661
Probable space group: C M M M
;
_chemical_formula_sum "Si O2"
_cell_formula_units_Z 72
_cell_length_a 18.023520
_cell_length_b 10.351882
_cell_length_c 20.333375
_cell_angle_alpha 90.000000
_cell_angle_beta 90.000000
_cell_angle_gamma 90.000000
_cell_volume 3793.747270
_symmetry_space_group_name_H-M "C M M M"
_symmetry_group_IT_number 65
_symmetry_cell_setting 'orthorhombic'
loop_
_space_group_symop_operation_xyz
x,y,z
-x,-y,z
x,-y,-z
-x,y,-z
-x,-y,-z
x,y,-z
-x,y,z
x,-y,z
1/2+x,1/2+y,z
1/2-x,1/2-y,z
1/2+x,1/2-y,-z
1/2-x,1/2+y,-z
1/2-x,1/2-y,-z
1/2+x,1/2+y,-z
1/2-x,1/2+y,z
1/2+x,1/2-y,z
loop_
_atom_site_type_symbol
_atom_site_label
_atom_site_fract_x
_atom_site_fract_y
_atom_site_fract_z
Si Si1 0.088246 0.242916 0.073835
Si Si2 0.912404 0.000000 0.153931
Si Si3 0.587893 0.147915 0.500000
Si Si4 0.157299 0.000000 0.705732
Si Si5 0.170380 0.500000 0.716657
Si Si6 0.087934 0.500000 0.146356
Si Si7 0.836296 0.743480 0.371563
O O1 0.115087 0.376295 0.105653
O O2 0.000000 0.238188 0.071737
O O3 0.120598 0.126174 0.117719
O O4 0.120264 0.231778 0.000000
O O5 0.892981 0.000000 0.230131
O O6 0.000000 0.000000 0.146950
O O7 0.500000 0.150067 0.500000
O O8 0.616938 0.224610 0.562877
O O9 0.617660 0.000000 0.500000
O O10 0.137598 0.124793 0.662569
O O11 0.242058 0.000000 0.729453
O O12 0.127722 0.500000 0.784381
O O13 0.145895 0.626356 0.677168
O O14 0.000000 0.500000 0.158080
O O15 0.750000 0.750000 0.390582
#
# Coordination Sequence:
#
# PCOD8267661 Si02
#       7
#    16   8   8   8   8   8  16
#     4   9  17  30  49  74 103 136 176 221 269 323
#     4  10  19  32  51  75 102 135 177 221 270 324
#     4  11  23  39  61  89 116 143 178 226 278 321
#     4  10  22  36  56  81 107 145 180 225 270 311
#     4  10  20  36  56  77 109 145 182 221 266 325
#     4  10  19  30  51  79 104 135 177 227 272 316
#     4  10  21  39  59  81 110 147 188 220 261 328
#
# _framework density 18.978596
#
# number of rings (size 3 to 8) (size 9 to 14) (size 15 to 20)
#    0.000    2.111    1.111    2.333    0.000    4.889 
#    0.000    0.556    0.000    4.000    0.000    0.000 
#    0.000    0.000    0.000    0.000    0.000    0.000 
#
# Total GULP energy -446516.439389 kJ/mol
# GULP energy per Si atom -12403.234427 kJ/mol
# Density = 1.893540 g / cm^3
# Si number density = 18.978596 Si / 1000 Ang^3
#
#
#
# Elastic Constant Matrix: (Units=GPa)
#
#
# Indices 1 2 3 4 5 6 
#
# 1 29.8524 30.8181 40.5916 0.0000 0.0000 0.0000
# 2 30.8181 194.2852 92.0417 0.0000 0.0000 0.0000
# 3 40.5916 92.0417 164.1953 0.0000 0.0000 0.0000
# 4 0.0000 0.0000 0.0000 39.8428 0.0000 0.0000
# 5 0.0000 0.0000 0.0000 0.0000 108.5823 0.0000
# 6 0.0000 0.0000 0.0000 0.0000 0.0000 -4.2847
#
#
#
# Elastic Compliance Matrix: (Units=1/GPa)
#
#
# Indices 1 2 3 4 5 6 
#
# 1 0.051648 -0.002919 -0.011132 0.000000 0.000000 0.000000
# 2 -0.002919 0.007173 -0.003299 0.000000 0.000000 0.000000
# 3 -0.011132 -0.003299 0.010692 0.000000 0.000000 0.000000
# 4 0.000000 0.000000 0.000000 0.025099 0.000000 0.000000
# 5 0.000000 0.000000 0.000000 0.000000 0.009210 0.000000
# 6 0.000000 0.000000 0.000000 0.000000 0.000000 -0.233389
#
#
# Mechanical properties :
#
#
# Convention : Reuss Voigt Hill
#
# Bulk Modulus (GPa) = 28.72533 79.47064 54.09798
# Shear Modulus (GPa) = -60.05086 43.82018 -8.11534
#
# Velocity S-wave (km/s) = -5.63117 4.81034 -2.07010
# Velocity P-wave (km/s) = 5.20688 8.53330 4.78046
#
# Compressibility (1/GPa) = 0.03481248
#
# Stress axis : x y z
#
# Youngs Moduli (GPa) = 19.36185 139.40876 93.52929
#
# Poissons Ratio (x) = 0.40691 1.04117
# Poissons Ratio (y) = 0.05651 0.30859
# Poissons Ratio (z) = 0.21554 0.45997
#
# Static dielectric constant tensor:
#      x y z
#    x 3.105420 0.000000 0.000000 
#    y 0.000000 4.063530 0.000000 
#    z 0.000000 0.000000 3.511650 
# 
# 
# High freq. dielectric constant tensor:
#      x y z
#    x 1.700990 0.000000 0.000000 
#    y 0.000000 1.758350 0.000000 
#    z 0.000000 0.000000 1.751180 
# 
# From -- ./inp_files/51210.got.cif
#   From: 2010.03.12/outbox.cif.g09.slc.cpg/sg65_26_cif.got.tgz:51210.got - 2010.04.10 20:52:16.
