data_PCOD8267402
_publ_section_title
;
Structure prediction by ZEFSAII (Michael W. Deem and Ramdas Pophale) SiO2 
 PCOD8267402
Probable space group: C M M M
;
_chemical_formula_sum "Si O2"
_cell_formula_units_Z 88
_cell_length_a 23.516674
_cell_length_b 17.815803
_cell_length_c 13.797646
_cell_angle_alpha 90.000000
_cell_angle_beta 90.000000
_cell_angle_gamma 90.000000
_cell_volume 5780.778099
_symmetry_space_group_name_H-M "C M M M"
_symmetry_group_IT_number 65
_symmetry_cell_setting 'orthorhombic'
loop_
_space_group_symop_operation_xyz
x,y,z
-x,-y,z
x,-y,-z
-x,y,-z
-x,-y,-z
x,y,-z
-x,y,z
x,-y,z
1/2+x,1/2+y,z
1/2-x,1/2-y,z
1/2+x,1/2-y,-z
1/2-x,1/2+y,-z
1/2-x,1/2-y,-z
1/2+x,1/2+y,-z
1/2-x,1/2+y,z
1/2+x,1/2-y,z
loop_
_atom_site_type_symbol
_atom_site_label
_atom_site_fract_x
_atom_site_fract_y
_atom_site_fract_z
Si Si1 0.065556 0.292980 0.887292
Si Si2 0.233027 0.835907 0.109474
Si Si3 0.565702 0.587346 0.390202
Si Si4 0.346694 0.916229 0.115071
Si Si5 0.884550 0.853960 0.795694
Si Si6 0.563113 0.500000 0.114053
O O1 0.103122 0.362093 0.846614
O O2 0.080731 0.218105 0.830241
O O3 0.000000 0.314025 0.870611
O O4 0.079118 0.278201 0.000000
O O5 0.250000 0.750000 0.107751
O O6 0.285531 0.885223 0.148639
O O7 0.182154 0.846339 0.184697
O O8 0.215309 0.860532 0.000000
O O9 0.584465 0.605180 0.500000
O O10 0.500000 0.609084 0.374771
O O11 0.574810 0.500000 0.366296
O O12 0.604949 0.636390 0.319057
O O13 0.355594 0.000000 0.157658
O O14 0.348947 0.918092 0.000000
O O15 0.905263 0.926101 0.852800
O O16 0.500000 0.500000 0.159815
O O17 0.560054 0.500000 0.000000
#
# Coordination Sequence:
#
# PCOD8267402 Si02
#       6
#    16  16  16  16  16   8
#     4  10  19  30  45  66  93 125 158 196 242 286
#     4  10  19  32  47  66  96 132 166 195 229 279
#     4   9  18  33  50  68  94 127 163 202 243 291
#     4   9  18  31  45  63  89 125 167 203 229 267
#     4  12  20  30  48  69  95 128 164 195 237 286
#     4  11  22  30  39  67 107 135 155 187 230 287
#
# _framework density 15.222864
#
# number of rings (size 3 to 8) (size 9 to 14) (size 15 to 20)
#    0.000    1.909    2.727    3.818    1.273    1.818 
#    0.000    1.818    0.000    0.545    0.000    0.000 
#    0.000    0.727    0.000    3.818    0.000    0.182 
#
# Total GULP energy -545607.934875 kJ/mol
# GULP energy per Si atom -12400.180338 kJ/mol
# Density = 1.518822 g / cm^3
# Si number density = 15.222864 Si / 1000 Ang^3
#
#
#
# Elastic Constant Matrix: (Units=GPa)
#
#
# Indices 1 2 3 4 5 6 
#
# 1 104.3091 39.6983 44.6228 0.0000 0.0000 0.0000
# 2 39.6983 96.2574 32.4827 0.0000 0.0000 0.0000
# 3 44.6228 32.4827 71.6332 0.0000 0.0000 0.0000
# 4 0.0000 0.0000 0.0000 14.2404 0.0000 0.0000
# 5 0.0000 0.0000 0.0000 0.0000 18.5428 0.0000
# 6 0.0000 0.0000 0.0000 0.0000 0.0000 26.7521
#
#
#
# Elastic Compliance Matrix: (Units=1/GPa)
#
#
# Indices 1 2 3 4 5 6 
#
# 1 0.013915 -0.003322 -0.007162 0.000000 0.000000 0.000000
# 2 -0.003322 0.013059 -0.003852 0.000000 0.000000 0.000000
# 3 -0.007162 -0.003852 0.020168 0.000000 0.000000 0.000000
# 4 0.000000 0.000000 0.000000 0.070223 0.000000 0.000000
# 5 0.000000 0.000000 0.000000 0.000000 0.053929 0.000000
# 6 0.000000 0.000000 0.000000 0.000000 0.000000 0.037380
#
#
# Mechanical properties :
#
#
# Convention : Reuss Voigt Hill
#
# Bulk Modulus (GPa) = 54.14194 56.20080 55.17137
# Shear Modulus (GPa) = 20.53364 22.26678 21.40021
#
# Velocity S-wave (km/s) = 3.67668 3.82870 3.75346
# Velocity P-wave (km/s) = 7.32580 7.51958 7.42332
#
# Compressibility (1/GPa) = 0.01846997
#
# Stress axis : x y z
#
# Youngs Moduli (GPa) = 71.86531 76.57647 49.58324
#
# Poissons Ratio (x) = 0.25439 0.35510
# Poissons Ratio (y) = 0.23874 0.19101
# Poissons Ratio (z) = 0.51468 0.29499
#
# Static dielectric constant tensor:
#      x y z
#    x 2.953550 0.000000 0.000000 
#    y 0.000000 3.113140 0.000000 
#    z 0.000000 0.000000 2.689450 
# 
# 
# High freq. dielectric constant tensor:
#      x y z
#    x 1.588290 0.000000 0.000000 
#    y 0.000000 1.586910 0.000000 
#    z 0.000000 0.000000 1.538230 
# 
# From -- ./inp_files/42973.got.cif
#   From: 2010.03.12/outbox.cif.g09.slc.cpg/sg65_22_cif.got.tgz:42973.got - 2010.04.10 20:52:16.
