data_PCOD8267858
_publ_section_title
;
Structure prediction by ZEFSAII (Michael W. Deem and Ramdas Pophale) SiO2 
 PCOD8267858
Probable space group: C M M M
;
_chemical_formula_sum "Si O2"
_cell_formula_units_Z 120
_cell_length_a 26.885931
_cell_length_b 27.619586
_cell_length_c 9.654942
_cell_angle_alpha 90.000000
_cell_angle_beta 90.000000
_cell_angle_gamma 90.000000
_cell_volume 7169.550257
_symmetry_space_group_name_H-M "C M M M"
_symmetry_group_IT_number 65
_symmetry_cell_setting 'orthorhombic'
loop_
_space_group_symop_operation_xyz
x,y,z
-x,-y,z
x,-y,-z
-x,y,-z
-x,-y,-z
x,y,-z
-x,y,z
x,-y,z
1/2+x,1/2+y,z
1/2-x,1/2-y,z
1/2+x,1/2-y,-z
1/2-x,1/2+y,-z
1/2-x,1/2-y,-z
1/2+x,1/2+y,-z
1/2-x,1/2+y,z
1/2+x,1/2-y,z
loop_
_atom_site_type_symbol
_atom_site_label
_atom_site_fract_x
_atom_site_fract_y
_atom_site_fract_z
Si Si1 0.446001 0.685561 0.663881
Si Si2 0.155265 0.143946 0.337783
Si Si3 0.000000 0.554348 0.835762
Si Si4 0.942189 0.294115 0.342719
Si Si5 0.266227 0.696659 0.839926
Si Si6 0.280882 0.445638 0.659597
Si Si7 0.796800 0.604573 0.157741
Si Si8 0.409302 0.879533 0.161232
O O1 0.450725 0.687547 0.500000
O O2 0.500000 0.668927 0.724840
O O3 0.402397 0.648747 0.709506
O O4 0.432995 0.739840 0.714023
O O5 0.161370 0.155739 0.500000
O O6 0.186875 0.182877 0.253429
O O7 0.173334 0.089712 0.301764
O O8 0.049418 0.582405 0.784682
O O9 0.000000 0.500000 0.772599
O O10 0.000000 0.551104 0.000000
O O11 0.922735 0.299883 0.500000
O O12 0.911863 0.329709 0.244407
O O13 0.000000 0.307421 0.334505
O O14 0.250000 0.750000 0.794031
O O15 0.220832 0.659579 0.811981
O O16 0.282763 0.695668 0.000000
O O17 0.265959 0.439552 0.500000
O O18 0.298508 0.500000 0.693396
O O19 0.231977 0.433224 0.746423
O O20 0.855052 0.598191 0.188273
O O21 0.784574 0.590714 0.000000
O O22 0.417537 0.867467 0.000000
#
# Coordination Sequence:
#
# PCOD8267858 Si02
#       8
#    16  16   8  16  16  16  16  16
#     4   8  15  28  46  70  98 127 158 189 223 269
#     4   9  17  30  49  71  93 122 161 195 225 274
#     4   9  18  32  47  63  85 113 145 187 236 275
#     4   9  17  29  45  65  91 123 154 183 222 271
#     4   9  18  31  44  63  96 130 152 184 237 282
#     4   9  18  33  51  70  93 120 153 197 243 278
#     4   9  19  32  46  68  93 120 157 193 229 279
#     4  10  19  31  48  68  89 115 152 195 234 276
#
# _framework density 16.737451
#
# number of rings (size 3 to 8) (size 9 to 14) (size 15 to 20)
#    0.000    3.000    0.667    0.800    1.867    1.600 
#    0.000    1.333    0.000    2.400    0.000    2.800 
#    0.000    0.000    0.000    6.667    0.000    6.933 
#
# Total GULP energy -743821.966769 kJ/mol
# GULP energy per Si atom -12397.032779 kJ/mol
# Density = 1.669936 g / cm^3
# Si number density = 16.737451 Si / 1000 Ang^3
#
#
#
# Elastic Constant Matrix: (Units=GPa)
#
#
# Indices 1 2 3 4 5 6 
#
# 1 132.9088 69.2342 40.2323 0.0000 0.0000 0.0000
# 2 69.2342 109.9581 38.2903 0.0000 0.0000 0.0000
# 3 40.2323 38.2903 42.4065 0.0000 0.0000 0.0000
# 4 0.0000 0.0000 0.0000 19.9632 0.0000 0.0000
# 5 0.0000 0.0000 0.0000 0.0000 18.4183 0.0000
# 6 0.0000 0.0000 0.0000 0.0000 0.0000 17.9730
#
#
#
# Elastic Compliance Matrix: (Units=1/GPa)
#
#
# Indices 1 2 3 4 5 6 
#
# 1 0.012442 -0.005431 -0.006900 0.000000 0.000000 0.000000
# 2 -0.005431 0.015636 -0.008966 0.000000 0.000000 0.000000
# 3 -0.006900 -0.008966 0.038223 0.000000 0.000000 0.000000
# 4 0.000000 0.000000 0.000000 0.050092 0.000000 0.000000
# 5 0.000000 0.000000 0.000000 0.000000 0.054294 0.000000
# 6 0.000000 0.000000 0.000000 0.000000 0.000000 0.055639
#
#
# Mechanical properties :
#
#
# Convention : Reuss Voigt Hill
#
# Bulk Modulus (GPa) = 42.18113 64.53189 53.35651
# Shear Modulus (GPa) = 18.06215 20.43867 19.25041
#
# Velocity S-wave (km/s) = 3.28860 3.49826 3.39505
# Velocity P-wave (km/s) = 6.29891 7.41325 6.87868
#
# Compressibility (1/GPa) = 0.02370728
#
# Stress axis : x y z
#
# Youngs Moduli (GPa) = 80.37452 63.95443 26.16227
#
# Poissons Ratio (x) = 0.34734 0.18052
# Poissons Ratio (y) = 0.43652 0.23456
# Poissons Ratio (z) = 0.55458 0.57340
#
# Static dielectric constant tensor:
#      x y z
#    x 3.303730 0.000000 0.000000 
#    y 0.000000 3.148370 0.000000 
#    z 0.000000 0.000000 2.983070 
# 
# 
# High freq. dielectric constant tensor:
#      x y z
#    x 1.642410 0.000000 0.000000 
#    y 0.000000 1.635040 0.000000 
#    z 0.000000 0.000000 1.624630 
# 
# From -- ./inp_files/17103.got.cif
#   From: 2010.03.12/outbox.cif.g09.slc.cpg/sg65_9_cif.got.tgz:17103.got - 2010.04.10 20:52:16.
