data_PCOD8267119
_publ_section_title
;
Structure prediction by ZEFSAII (Michael W. Deem and Ramdas Pophale) SiO2 
 PCOD8267119
Probable space group: C M M M
;
_chemical_formula_sum "Si O2"
_cell_formula_units_Z 112
_cell_length_a 22.728279
_cell_length_b 18.894672
_cell_length_c 17.532264
_cell_angle_alpha 90.000000
_cell_angle_beta 90.000000
_cell_angle_gamma 90.000000
_cell_volume 7529.114656
_symmetry_space_group_name_H-M "C M M M"
_symmetry_group_IT_number 65
_symmetry_cell_setting 'orthorhombic'
loop_
_space_group_symop_operation_xyz
x,y,z
-x,-y,z
x,-y,-z
-x,y,-z
-x,-y,-z
x,y,-z
-x,y,z
x,-y,z
1/2+x,1/2+y,z
1/2-x,1/2-y,z
1/2+x,1/2-y,-z
1/2-x,1/2+y,-z
1/2-x,1/2-y,-z
1/2+x,1/2+y,-z
1/2-x,1/2+y,z
1/2+x,1/2-y,z
loop_
_atom_site_type_symbol
_atom_site_label
_atom_site_fract_x
_atom_site_fract_y
_atom_site_fract_z
Si Si1 0.934320 0.915951 0.414046
Si Si2 0.317978 0.081287 0.088875
Si Si3 0.064678 0.346897 0.910630
Si Si4 0.622824 0.293650 0.914911
Si Si5 0.566284 0.423044 0.142952
Si Si6 0.651289 0.580670 0.285005
Si Si7 0.769069 0.826663 0.190360
O O1 0.918311 0.892470 0.500000
O O2 0.882999 0.886821 0.358326
O O3 0.000000 0.887347 0.392771
O O4 0.935503 0.000000 0.406672
O O5 0.387582 0.091903 0.106536
O O6 0.282151 0.131728 0.145671
O O7 0.301308 0.000000 0.105535
O O8 0.304603 0.100134 0.000000
O O9 0.088907 0.272587 0.876489
O O10 0.000000 0.365074 0.874927
O O11 0.056234 0.336847 0.000000
O O12 0.580401 0.361957 0.917618
O O13 0.680756 0.313457 0.870499
O O14 0.642078 0.273028 0.000000
O O15 0.500000 0.416020 0.171822
O O16 0.577210 0.500000 0.104276
O O17 0.605793 0.414933 0.216721
O O18 0.672333 0.500000 0.299554
O O19 0.708194 0.627851 0.262987
O O20 0.750000 0.750000 0.222120
#
# Coordination Sequence:
#
# PCOD8267119 Si02
#       7
#    16  16  16  16  16  16  16
#     4   8  13  23  43  70  95 117 141 168 196 229
#     4  10  20  32  46  63  80 102 139 187 232 270
#     4   9  17  29  44  60  76  96 126 172 230 278
#     4  10  19  29  42  57  76 104 141 180 215 253
#     4   9  17  27  38  55  82 114 142 168 202 244
#     4   9  17  28  42  62  87 113 140 172 205 241
#     4  11  20  31  45  59  80 112 144 175 211 258
#
# _framework density 14.875586999999999
#
# number of rings (size 3 to 8) (size 9 to 14) (size 15 to 20)
#    0.000    2.571    1.429    2.143    0.000    4.286 
#    0.000    2.143    0.000    0.429    0.000    0.000 
#    0.000    0.000    0.000    0.000    0.000    0.000 
#
# Total GULP energy -693904.359509 kJ/mol
# GULP energy per Si atom -12391.149277 kJ/mol
# Density = 1.484173 g / cm^3
# Si number density = 14.875587 Si / 1000 Ang^3
#
#
#
# Elastic Constant Matrix: (Units=GPa)
#
#
# Indices 1 2 3 4 5 6 
#
# 1 86.2511 31.9650 28.8560 0.0000 0.0000 0.0000
# 2 31.9650 77.5235 21.4237 0.0000 0.0000 0.0000
# 3 28.8560 21.4237 51.1818 0.0000 0.0000 0.0000
# 4 0.0000 0.0000 0.0000 8.4898 0.0000 0.0000
# 5 0.0000 0.0000 0.0000 0.0000 15.3614 0.0000
# 6 0.0000 0.0000 0.0000 0.0000 0.0000 24.1534
#
#
#
# Elastic Compliance Matrix: (Units=1/GPa)
#
#
# Indices 1 2 3 4 5 6 
#
# 1 0.015573 -0.004517 -0.006889 0.000000 0.000000 0.000000
# 2 -0.004517 0.015897 -0.004107 0.000000 0.000000 0.000000
# 3 -0.006889 -0.004107 0.025141 0.000000 0.000000 0.000000
# 4 0.000000 0.000000 0.000000 0.117789 0.000000 0.000000
# 5 0.000000 0.000000 0.000000 0.000000 0.065098 0.000000
# 6 0.000000 0.000000 0.000000 0.000000 0.000000 0.041402
#
#
# Mechanical properties :
#
#
# Convention : Reuss Voigt Hill
#
# Bulk Modulus (GPa) = 39.08699 42.16063 40.62381
# Shear Modulus (GPa) = 15.60275 18.44835 17.02555
#
# Velocity S-wave (km/s) = 3.24216 3.52543 3.38676
# Velocity P-wave (km/s) = 6.35204 6.70636 6.53160
#
# Compressibility (1/GPa) = 0.02558396
#
# Stress axis : x y z
#
# Youngs Moduli (GPa) = 64.21366 62.90492 39.77488
#
# Poissons Ratio (x) = 0.28416 0.27401
# Poissons Ratio (y) = 0.29008 0.16337
# Poissons Ratio (z) = 0.44237 0.25837
#
# Static dielectric constant tensor:
#      x y z
#    x 3.083110 0.000000 0.000000 
#    y 0.000000 3.093850 0.000000 
#    z 0.000000 0.000000 2.654400 
# 
# 
# High freq. dielectric constant tensor:
#      x y z
#    x 1.573740 0.000000 0.000000 
#    y 0.000000 1.560090 0.000000 
#    z 0.000000 0.000000 1.518730 
# 
# From -- ./inp_files/55041.got.cif
#   From: 2010.03.12/outbox.cif.g09.slc.cpg/sg65_28_cif.got.tgz:55041.got - 2010.04.10 20:52:16.
