data_PCOD8267389
_publ_section_title
;
Structure prediction by ZEFSAII (Michael W. Deem and Ramdas Pophale) SiO2 
 PCOD8267389
Probable space group: C M M M
;
_chemical_formula_sum "Si O2"
_cell_formula_units_Z 96
_cell_length_a 24.093298
_cell_length_b 15.362739
_cell_length_c 14.729340
_cell_angle_alpha 90.000000
_cell_angle_beta 90.000000
_cell_angle_gamma 90.000000
_cell_volume 5451.903897
_symmetry_space_group_name_H-M "C M M M"
_symmetry_group_IT_number 65
_symmetry_cell_setting 'orthorhombic'
loop_
_space_group_symop_operation_xyz
x,y,z
-x,-y,z
x,-y,-z
-x,y,-z
-x,-y,-z
x,y,-z
-x,y,z
x,-y,z
1/2+x,1/2+y,z
1/2-x,1/2-y,z
1/2+x,1/2-y,-z
1/2-x,1/2+y,-z
1/2-x,1/2-y,-z
1/2+x,1/2+y,-z
1/2-x,1/2+y,z
1/2+x,1/2-y,z
loop_
_atom_site_type_symbol
_atom_site_label
_atom_site_fract_x
_atom_site_fract_y
_atom_site_fract_z
Si Si1 0.934477 0.101272 0.000000
Si Si2 0.637376 0.132645 0.602731
Si Si3 0.059600 0.097642 0.500000
Si Si4 0.936314 0.594726 0.230967
Si Si5 0.261613 0.600557 0.397001
Si Si6 0.871341 0.823787 0.348127
Si Si7 0.434591 0.282863 0.829228
O O1 0.914704 0.160760 0.915496
O O2 0.000000 0.093599 0.000000
O O3 0.910887 0.000000 0.000000
O O4 0.630384 0.094103 0.500000
O O5 0.597134 0.087768 0.674852
O O6 0.699834 0.117974 0.639319
O O7 0.623064 0.233336 0.599846
O O8 0.096054 0.109721 0.410559
O O9 0.000000 0.150454 0.500000
O O10 0.041267 0.000000 0.500000
O O11 0.927584 0.500000 0.181042
O O12 0.919843 0.678037 0.166960
O O13 0.000000 0.606586 0.259260
O O14 0.266605 0.635395 0.500000
O O15 0.276079 0.500000 0.391383
O O16 0.306579 0.651215 0.336042
O O17 0.900042 0.824853 0.251198
O O18 0.500000 0.295213 0.813210
#
# Coordination Sequence:
#
# PCOD8267389 Si02
#       7
#     8  16   8  16  16  16  16
#     4   9  18  34  55  77 100 127 162 208 258 306
#     4  10  19  31  46  69  96 136 176 214 249 289
#     4  11  22  32  43  64  97 133 167 202 244 298
#     4   9  18  32  49  72 103 134 166 208 254 302
#     4  10  19  30  45  65  95 129 170 216 250 288
#     4  11  19  32  48  68  95 133 170 206 249 297
#     4   9  19  34  52  75 102 130 164 208 256 306
#
# _framework density 17.608526999999999
#
# number of rings (size 3 to 8) (size 9 to 14) (size 15 to 20)
#    0.000    2.167    1.667    2.000    0.000    4.667 
#    0.000    2.917    0.000    2.500    0.000    9.333 
#    0.000    0.000    0.000    0.000    0.000    0.000 
#
# Total GULP energy -594688.448712 kJ/mol
# GULP energy per Si atom -12389.342681 kJ/mol
# Density = 1.756845 g / cm^3
# Si number density = 17.608527 Si / 1000 Ang^3
#
#
#
# Elastic Constant Matrix: (Units=GPa)
#
#
# Indices 1 2 3 4 5 6 
#
# 1 69.3789 27.0583 33.6200 0.0000 0.0000 0.0000
# 2 27.0583 111.1686 55.6167 0.0000 0.0000 0.0000
# 3 33.6200 55.6167 94.3381 0.0000 0.0000 0.0000
# 4 0.0000 0.0000 0.0000 17.9704 0.0000 0.0000
# 5 0.0000 0.0000 0.0000 0.0000 -3.7282 0.0000
# 6 0.0000 0.0000 0.0000 0.0000 0.0000 18.0166
#
#
#
# Elastic Compliance Matrix: (Units=1/GPa)
#
#
# Indices 1 2 3 4 5 6 
#
# 1 0.017628 -0.001628 -0.005322 0.000000 0.000000 0.000000
# 2 -0.001628 0.012909 -0.007030 0.000000 0.000000 0.000000
# 3 -0.005322 -0.007030 0.016642 0.000000 0.000000 0.000000
# 4 0.000000 0.000000 0.000000 0.055647 0.000000 0.000000
# 5 0.000000 0.000000 0.000000 0.000000 -0.268229 0.000000
# 6 0.000000 0.000000 0.000000 0.000000 0.000000 0.055504
#
#
# Mechanical properties :
#
#
# Convention : Reuss Voigt Hill
#
# Bulk Modulus (GPa) = 52.03696 56.38619 54.21157
# Shear Modulus (GPa) = -66.19599 17.02448 -24.58576
#
# Velocity S-wave (km/s) = -6.13798 3.11276 -3.74069
# Velocity P-wave (km/s) = 4.54056 6.70900 3.49242
#
# Compressibility (1/GPa) = 0.01921711
#
# Stress axis : x y z
#
# Youngs Moduli (GPa) = 56.72915 77.46730 60.09050
#
# Poissons Ratio (x) = 0.12610 0.31983
# Poissons Ratio (y) = 0.09234 0.42245
# Poissons Ratio (z) = 0.30194 0.54461
#
# Static dielectric constant tensor:
#      x y z
#    x 3.261550 0.000000 0.000000 
#    y 0.000000 3.585600 0.000000 
#    z 0.000000 0.000000 3.036290 
# 
# 
# High freq. dielectric constant tensor:
#      x y z
#    x 1.675890 0.000000 0.000000 
#    y 0.000000 1.701290 0.000000 
#    z 0.000000 0.000000 1.633010 
# 
# From -- ./inp_files/45703.got.cif
#   From: 2010.03.12/outbox.cif.g09.slc.cpg/sg65_23_cif.got.tgz:45703.got - 2010.04.10 20:52:16.
