data_PCOD8267330
_publ_section_title
;
Structure prediction by ZEFSAII (Michael W. Deem and Ramdas Pophale) SiO2 
 PCOD8267330
Probable space group: C M M M
;
_chemical_formula_sum "Si O2"
_cell_formula_units_Z 88
_cell_length_a 27.366164
_cell_length_b 9.295725
_cell_length_c 21.598951
_cell_angle_alpha 90.000000
_cell_angle_beta 90.000000
_cell_angle_gamma 90.000000
_cell_volume 5494.521179
_symmetry_space_group_name_H-M "C M M M"
_symmetry_group_IT_number 65
_symmetry_cell_setting 'orthorhombic'
loop_
_space_group_symop_operation_xyz
x,y,z
-x,-y,z
x,-y,-z
-x,y,-z
-x,-y,-z
x,y,-z
-x,y,z
x,-y,z
1/2+x,1/2+y,z
1/2-x,1/2-y,z
1/2+x,1/2-y,-z
1/2-x,1/2+y,-z
1/2-x,1/2-y,-z
1/2+x,1/2+y,-z
1/2-x,1/2+y,z
1/2+x,1/2-y,z
loop_
_atom_site_type_symbol
_atom_site_label
_atom_site_fract_x
_atom_site_fract_y
_atom_site_fract_z
Si Si1 0.617455 0.335165 0.430437
Si Si2 0.444771 0.668396 0.313949
Si Si3 0.198855 0.668346 0.865976
Si Si4 0.363177 0.166154 0.751365
Si Si5 0.201177 0.663905 0.000000
Si Si6 0.699607 0.167332 0.631248
O O1 0.597503 0.311908 0.500000
O O2 0.634082 0.500000 0.419871
O O3 0.574381 0.294038 0.382855
O O4 0.663790 0.232567 0.420358
O O5 0.500000 0.725804 0.308930
O O6 0.442041 0.500000 0.300839
O O7 0.412325 0.745800 0.261956
O O8 0.209598 0.500000 0.855154
O O9 0.250000 0.750000 0.858054
O O10 0.159867 0.723177 0.815606
O O11 0.174239 0.697430 0.934420
O O12 0.323006 0.193288 0.698743
O O13 0.378076 0.000000 0.755422
O O14 0.250000 0.750000 0.000000
O O15 0.217538 0.500000 0.000000
O O16 0.750000 0.250000 0.627550
O O17 0.707964 0.000000 0.617057
#
# Coordination Sequence:
#
# PCOD8267330 Si02
#       6
#    16  16  16  16   8  16
#     4   9  18  32  48  65  85 109 137 169 208 256
#     4   9  18  32  49  68  87 106 133 173 218 260
#     4   9  16  26  41  63  91 121 150 177 207 244
#     4   9  18  30  44  64  88 114 144 176 211 252
#     4   8  14  24  38  58  87 120 149 177 206 239
#     4  10  19  30  44  62  86 115 145 176 208 244
#
# _framework density 16.015953
#
# number of rings (size 3 to 8) (size 9 to 14) (size 15 to 20)
#    0.000    2.909    0.000    1.091    0.000    2.909 
#    0.000    1.818    0.000    0.000    0.000    5.727 
#    0.000    5.091    0.000    0.000    0.000    0.000 
#
# Total GULP energy -545362.207647 kJ/mol
# GULP energy per Si atom -12394.595628 kJ/mol
# Density = 1.597950 g / cm^3
# Si number density = 16.015953 Si / 1000 Ang^3
#
#
#
# Elastic Constant Matrix: (Units=GPa)
#
#
# Indices 1 2 3 4 5 6 
#
# 1 118.2352 46.8077 58.1678 0.0000 0.0000 0.0000
# 2 46.8077 53.6438 34.6467 0.0000 0.0000 0.0000
# 3 58.1678 34.6467 127.8667 0.0000 0.0000 0.0000
# 4 0.0000 0.0000 0.0000 19.8527 0.0000 0.0000
# 5 0.0000 0.0000 0.0000 0.0000 17.4580 0.0000
# 6 0.0000 0.0000 0.0000 0.0000 0.0000 25.1239
#
#
#
# Elastic Compliance Matrix: (Units=1/GPa)
#
#
# Indices 1 2 3 4 5 6 
#
# 1 0.014287 -0.010023 -0.003784 0.000000 0.000000 0.000000
# 2 -0.010023 0.029627 -0.003468 0.000000 0.000000 0.000000
# 3 -0.003784 -0.003468 0.010482 0.000000 0.000000 0.000000
# 4 0.000000 0.000000 0.000000 0.050371 0.000000 0.000000
# 5 0.000000 0.000000 0.000000 0.000000 0.057280 0.000000
# 6 0.000000 0.000000 0.000000 0.000000 0.000000 0.039803
#
#
# Mechanical properties :
#
#
# Convention : Reuss Voigt Hill
#
# Bulk Modulus (GPa) = 50.38671 64.33225 57.35948
# Shear Modulus (GPa) = 20.57497 23.16182 21.86839
#
# Velocity S-wave (km/s) = 3.58810 3.80698 3.69916
# Velocity P-wave (km/s) = 6.97815 7.71874 7.35777
#
# Compressibility (1/GPa) = 0.01984650
#
# Stress axis : x y z
#
# Youngs Moduli (GPa) = 69.99419 33.75310 95.40545
#
# Poissons Ratio (x) = 0.33829 0.36097
# Poissons Ratio (y) = 0.70152 0.33090
# Poissons Ratio (z) = 0.26483 0.11707
#
# Static dielectric constant tensor:
#      x y z
#    x 2.823510 0.000000 0.000000 
#    y 0.000000 3.062000 0.000000 
#    z 0.000000 0.000000 3.457140 
# 
# 
# High freq. dielectric constant tensor:
#      x y z
#    x 1.585310 0.000000 0.000000 
#    y 0.000000 1.618520 0.000000 
#    z 0.000000 0.000000 1.619040 
# 
# From -- ./inp_files/60307.got.cif
#   From: 2010.03.12/outbox.cif.g09.slc.cpg/sg65_31_cif.got.tgz:60307.got - 2010.04.10 20:52:16.
