data_PCOD8267055
_publ_section_title
;
Structure prediction by ZEFSAII (Michael W. Deem and Ramdas Pophale) SiO2 
 PCOD8267055
Probable space group: C M M M
;
_chemical_formula_sum "Si O2"
_cell_formula_units_Z 104
_cell_length_a 26.752332
_cell_length_b 9.177129
_cell_length_c 26.430940
_cell_angle_alpha 90.000000
_cell_angle_beta 90.000000
_cell_angle_gamma 90.000000
_cell_volume 6489.049555
_symmetry_space_group_name_H-M "C M M M"
_symmetry_group_IT_number 65
_symmetry_cell_setting 'orthorhombic'
loop_
_space_group_symop_operation_xyz
x,y,z
-x,-y,z
x,-y,-z
-x,y,-z
-x,-y,-z
x,y,-z
-x,y,z
x,-y,z
1/2+x,1/2+y,z
1/2-x,1/2-y,z
1/2+x,1/2-y,-z
1/2-x,1/2+y,-z
1/2-x,1/2-y,-z
1/2+x,1/2+y,-z
1/2-x,1/2+y,z
1/2+x,1/2-y,z
loop_
_atom_site_type_symbol
_atom_site_label
_atom_site_fract_x
_atom_site_fract_y
_atom_site_fract_z
Si Si1 0.201361 0.669482 0.302764
Si Si2 0.345987 0.330763 0.393929
Si Si3 0.555528 0.666630 0.660858
Si Si4 0.900519 0.330751 0.247843
Si Si5 0.058499 0.169902 0.846930
Si Si6 0.940697 0.336648 0.055607
Si Si7 0.802394 0.170244 0.500000
O O1 0.212680 0.500000 0.310211
O O2 0.250000 0.750000 0.280487
O O3 0.188694 0.736090 0.357419
O O4 0.156770 0.696631 0.263391
O O5 0.333522 0.500000 0.384480
O O6 0.404411 0.296985 0.382928
O O7 0.334800 0.283814 0.451264
O O8 0.500000 0.694567 0.638777
O O9 0.561704 0.500000 0.679135
O O10 0.563000 0.767412 0.709519
O O11 0.912902 0.500000 0.241578
O O12 0.909532 0.250930 0.195285
O O13 0.078306 0.226525 0.901271
O O14 0.000000 0.204948 0.839184
O O15 0.069536 0.000000 0.843569
O O16 0.921559 0.500000 0.067829
O O17 0.000000 0.335618 0.054605
O O18 0.920782 0.287290 0.000000
O O19 0.750000 0.250000 0.500000
O O20 0.790966 0.000000 0.500000
#
# Coordination Sequence:
#
# PCOD8267055 Si02
#       7
#    16  16  16  16  16  16   8
#     4  10  20  33  49  68  88 112 142 176 218 265
#     4   9  18  32  48  67  91 116 143 176 213 257
#     4   9  17  30  47  65  87 116 147 178 214 255
#     4  10  20  31  44  64  88 114 146 181 216 259
#     4  10  19  28  40  61  89 120 152 185 220 256
#     4   8  14  25  40  57  80 114 153 188 222 259
#     4  10  20  32  47  67  89 113 142 178 221 264
#
# _framework density 16.027000999999998
#
# number of rings (size 3 to 8) (size 9 to 14) (size 15 to 20)
#    0.000    2.615    0.000    2.769    0.000    7.077 
#    0.000    1.923    0.000    2.308    0.000    0.000 
#    0.000    6.154    0.000    2.000    0.000    2.462 
#
# Total GULP energy -644750.570265 kJ/mol
# GULP energy per Si atom -12399.049428 kJ/mol
# Density = 1.599052 g / cm^3
# Si number density = 16.027001 Si / 1000 Ang^3
#
#
#
# Elastic Constant Matrix: (Units=GPa)
#
#
# Indices 1 2 3 4 5 6 
#
# 1 84.2713 44.7069 47.6982 0.0000 0.0000 0.0000
# 2 44.7069 91.4887 64.2505 0.0000 0.0000 0.0000
# 3 47.6982 64.2505 133.8493 0.0000 0.0000 0.0000
# 4 0.0000 0.0000 0.0000 27.2598 0.0000 0.0000
# 5 0.0000 0.0000 0.0000 0.0000 15.7183 0.0000
# 6 0.0000 0.0000 0.0000 0.0000 0.0000 22.1974
#
#
#
# Elastic Compliance Matrix: (Units=1/GPa)
#
#
# Indices 1 2 3 4 5 6 
#
# 1 0.016827 -0.006051 -0.003091 0.000000 0.000000 0.000000
# 2 -0.006051 0.018665 -0.006803 0.000000 0.000000 0.000000
# 3 -0.003091 -0.006803 0.011838 0.000000 0.000000 0.000000
# 4 0.000000 0.000000 0.000000 0.036684 0.000000 0.000000
# 5 0.000000 0.000000 0.000000 0.000000 0.063620 0.000000
# 6 0.000000 0.000000 0.000000 0.000000 0.000000 0.045050
#
#
# Mechanical properties :
#
#
# Convention : Reuss Voigt Hill
#
# Bulk Modulus (GPa) = 64.77522 69.21335 66.99429
# Shear Modulus (GPa) = 21.76536 23.23202 22.49869
#
# Velocity S-wave (km/s) = 3.68916 3.81143 3.75080
# Velocity P-wave (km/s) = 7.65837 7.91509 7.78778
#
# Compressibility (1/GPa) = 0.01543800
#
# Stress axis : x y z
#
# Youngs Moduli (GPa) = 59.42981 53.57585 84.47065
#
# Poissons Ratio (x) = 0.32421 0.26114
# Poissons Ratio (y) = 0.35963 0.57467
# Poissons Ratio (z) = 0.18373 0.36449
#
# Static dielectric constant tensor:
#      x y z
#    x 2.949280 0.000000 0.000000 
#    y 0.000000 3.152200 0.000000 
#    z 0.000000 0.000000 3.155940 
# 
# 
# High freq. dielectric constant tensor:
#      x y z
#    x 1.589570 0.000000 0.000000 
#    y 0.000000 1.624610 0.000000 
#    z 0.000000 0.000000 1.609060 
# 
# From -- ./inp_files/76058.got.cif
#   From: 2010.03.12/outbox.cif.g09.slc.cpg/sg65_39_cif.got.tgz:76058.got - 2010.04.10 20:52:16.
