data_PCOD8267611
_publ_section_title
;
Structure prediction by ZEFSAII (Michael W. Deem and Ramdas Pophale) SiO2 
 PCOD8267611
Probable space group: C M M M
;
_chemical_formula_sum "Si O2"
_cell_formula_units_Z 72
_cell_length_a 27.680840
_cell_length_b 16.385832
_cell_length_c 9.297001
_cell_angle_alpha 90.000000
_cell_angle_beta 90.000000
_cell_angle_gamma 90.000000
_cell_volume 4216.874156
_symmetry_space_group_name_H-M "C M M M"
_symmetry_group_IT_number 65
_symmetry_cell_setting 'orthorhombic'
loop_
_space_group_symop_operation_xyz
x,y,z
-x,-y,z
x,-y,-z
-x,y,-z
-x,-y,-z
x,y,-z
-x,y,z
x,-y,z
1/2+x,1/2+y,z
1/2-x,1/2-y,z
1/2+x,1/2-y,-z
1/2-x,1/2+y,-z
1/2-x,1/2-y,-z
1/2+x,1/2+y,-z
1/2-x,1/2+y,z
1/2+x,1/2-y,z
loop_
_atom_site_type_symbol
_atom_site_label
_atom_site_fract_x
_atom_site_fract_y
_atom_site_fract_z
Si Si1 0.686299 0.091642 0.168844
Si Si2 0.781364 0.169465 0.157509
Si Si3 0.856003 0.259797 0.333681
Si Si4 0.057382 0.000000 0.838452
Si Si5 0.445335 0.344373 0.664991
O O1 0.743244 0.100633 0.210621
O O2 0.652479 0.154519 0.254414
O O3 0.669843 0.000000 0.208034
O O4 0.679865 0.110101 0.000000
O O5 0.750000 0.250000 0.142253
O O6 0.823901 0.185148 0.271096
O O7 0.803216 0.146813 0.000000
O O8 0.842443 0.270596 0.500000
O O9 0.911907 0.235027 0.311572
O O10 0.075800 0.918903 0.758567
O O11 0.000000 0.000000 0.835885
O O12 0.078055 0.000000 0.000000
O O13 0.443793 0.373196 0.500000
O O14 0.500000 0.320702 0.710789
#
# Coordination Sequence:
#
# PCOD8267611 Si02
#       5
#    16  16  16   8  16
#     4   9  18  33  51  69  93 127 162 191 230 287
#     4   8  15  29  47  65  90 122 153 185 227 280
#     4  10  19  30  48  73  97 122 158 199 236 275
#     4   9  17  29  47  71  93 115 153 201 237 269
#     4   9  18  33  50  67  95 133 162 188 233 290
#
# _framework density 17.074258
#
# number of rings (size 3 to 8) (size 9 to 14) (size 15 to 20)
#    0.000    3.000    0.000    2.333    0.000    7.556 
#    2.000    0.000    0.000    0.667    0.000    4.667 
#    0.000    0.000    0.000    0.000    0.000    0.000 
#
# Total GULP energy -446179.395195 kJ/mol
# GULP energy per Si atom -12393.872089 kJ/mol
# Density = 1.703540 g / cm^3
# Si number density = 17.074258 Si / 1000 Ang^3
#
#
#
# Elastic Constant Matrix: (Units=GPa)
#
#
# Indices 1 2 3 4 5 6 
#
# 1 76.4487 48.3112 46.9789 0.0000 0.0000 0.0000
# 2 48.3112 101.3372 57.5605 0.0000 0.0000 0.0000
# 3 46.9789 57.5605 96.0141 0.0000 0.0000 0.0000
# 4 0.0000 0.0000 0.0000 18.9683 0.0000 0.0000
# 5 0.0000 0.0000 0.0000 0.0000 19.3887 0.0000
# 6 0.0000 0.0000 0.0000 0.0000 0.0000 21.6632
#
#
#
# Elastic Compliance Matrix: (Units=1/GPa)
#
#
# Indices 1 2 3 4 5 6 
#
# 1 0.021102 -0.006362 -0.006511 0.000000 0.000000 0.000000
# 2 -0.006362 0.016881 -0.007008 0.000000 0.000000 0.000000
# 3 -0.006511 -0.007008 0.017802 0.000000 0.000000 0.000000
# 4 0.000000 0.000000 0.000000 0.052719 0.000000 0.000000
# 5 0.000000 0.000000 0.000000 0.000000 0.051577 0.000000
# 6 0.000000 0.000000 0.000000 0.000000 0.000000 0.046161
#
#
# Mechanical properties :
#
#
# Convention : Reuss Voigt Hill
#
# Bulk Modulus (GPa) = 62.40486 64.38903 63.39695
# Shear Modulus (GPa) = 19.89294 20.06734 19.98014
#
# Velocity S-wave (km/s) = 3.41704 3.43198 3.42452
# Velocity P-wave (km/s) = 7.22472 7.31421 7.26960
#
# Compressibility (1/GPa) = 0.01602439
#
# Stress axis : x y z
#
# Youngs Moduli (GPa) = 47.38846 59.23706 56.17311
#
# Poissons Ratio (x) = 0.37685 0.36576
# Poissons Ratio (y) = 0.30147 0.39364
# Poissons Ratio (z) = 0.30856 0.41511
#
# Static dielectric constant tensor:
#      x y z
#    x 3.178260 0.000000 0.000000 
#    y 0.000000 3.247620 0.000000 
#    z 0.000000 0.000000 3.272060 
# 
# 
# High freq. dielectric constant tensor:
#      x y z
#    x 1.636890 0.000000 0.000000 
#    y 0.000000 1.641490 0.000000 
#    z 0.000000 0.000000 1.661760 
# 
# From -- ./inp_files/18018.got.cif
#   From: 2010.03.12/outbox.cif.g09.slc.cpg/sg65_10_cif.got.tgz:18018.got - 2010.04.10 20:52:16.
