data_PCOD8267337
_publ_section_title
;
Structure prediction by ZEFSAII (Michael W. Deem and Ramdas Pophale) SiO2 
 PCOD8267337
Probable space group: C M M M
;
_chemical_formula_sum "Si O2"
_cell_formula_units_Z 80
_cell_length_a 24.084859
_cell_length_b 9.028748
_cell_length_c 20.634133
_cell_angle_alpha 90.000000
_cell_angle_beta 90.000000
_cell_angle_gamma 90.000000
_cell_volume 4487.018554
_symmetry_space_group_name_H-M "C M M M"
_symmetry_group_IT_number 65
_symmetry_cell_setting 'orthorhombic'
loop_
_space_group_symop_operation_xyz
x,y,z
-x,-y,z
x,-y,-z
-x,y,-z
-x,-y,-z
x,y,-z
-x,y,z
x,-y,z
1/2+x,1/2+y,z
1/2-x,1/2-y,z
1/2+x,1/2-y,-z
1/2-x,1/2+y,-z
1/2-x,1/2-y,-z
1/2+x,1/2+y,-z
1/2-x,1/2+y,z
1/2+x,1/2-y,z
loop_
_atom_site_type_symbol
_atom_site_label
_atom_site_fract_x
_atom_site_fract_y
_atom_site_fract_z
Si Si1 0.384108 0.823982 0.571922
Si Si2 0.309345 0.176014 0.689438
Si Si3 0.000000 0.676606 0.771500
Si Si4 0.118224 0.675767 0.811010
Si Si5 0.307306 0.825727 0.926939
Si Si6 0.500000 0.823448 0.375102
O O1 0.367387 0.768172 0.500000
O O2 0.338804 0.767341 0.623525
O O3 0.445200 0.761593 0.589247
O O4 0.386480 0.000000 0.574594
O O5 0.250000 0.250000 0.694845
O O6 0.346225 0.231926 0.749799
O O7 0.302461 0.000000 0.690071
O O8 0.055260 0.737726 0.807204
O O9 0.000000 0.500000 0.771570
O O10 0.000000 0.735563 0.698215
O O11 0.116684 0.500000 0.809288
O O12 0.145321 0.732459 0.878065
O O13 0.250000 0.750000 0.906967
O O14 0.298393 0.000000 0.919984
O O15 0.325027 0.782031 0.000000
O O16 0.500000 0.000000 0.375788
#
# Coordination Sequence:
#
# PCOD8267337 Si02
#       6
#    16  16   8  16  16   8
#     4   9  16  25  39  61  87 111 139 179 220 255
#     4  10  19  30  44  63  87 115 145 176 213 256
#     4   9  14  23  41  63  87 113 139 173 220 263
#     4   9  16  27  43  64  89 114 142 178 217 257
#     4   9  17  29  45  66  91 118 147 178 211 248
#     4   9  13  22  39  61  86 110 138 176 220 259
#
# _framework density 17.829211000000001
#
# number of rings (size 3 to 8) (size 9 to 14) (size 15 to 20)
#    0.000    2.800    2.000    0.900    0.000    1.600 
#    0.000    0.500    0.000    3.000    0.000    4.900 
#    0.000    4.800    0.000    0.000    0.000    0.000 
#
# Total GULP energy -495825.027706 kJ/mol
# GULP energy per Si atom -12395.625693 kJ/mol
# Density = 1.778863 g / cm^3
# Si number density = 17.829211 Si / 1000 Ang^3
#
#
#
# Elastic Constant Matrix: (Units=GPa)
#
#
# Indices 1 2 3 4 5 6 
#
# 1 176.5281 16.0550 98.1407 0.0000 0.0000 0.0000
# 2 16.0550 7.9933 12.3208 0.0000 0.0000 0.0000
# 3 98.1407 12.3208 157.9010 0.0000 0.0000 0.0000
# 4 0.0000 0.0000 0.0000 9.1062 0.0000 0.0000
# 5 0.0000 0.0000 0.0000 0.0000 37.3022 0.0000
# 6 0.0000 0.0000 0.0000 0.0000 0.0000 18.7709
#
#
#
# Elastic Compliance Matrix: (Units=1/GPa)
#
#
# Indices 1 2 3 4 5 6 
#
# 1 0.009478 -0.011319 -0.005008 0.000000 0.000000 0.000000
# 2 -0.011319 0.155725 -0.005116 0.000000 0.000000 0.000000
# 3 -0.005008 -0.005116 0.009845 0.000000 0.000000 0.000000
# 4 0.000000 0.000000 0.000000 0.109815 0.000000 0.000000
# 5 0.000000 0.000000 0.000000 0.000000 0.026808 0.000000
# 6 0.000000 0.000000 0.000000 0.000000 0.000000 0.053274
#
#
# Mechanical properties :
#
#
# Convention : Reuss Voigt Hill
#
# Bulk Modulus (GPa) = 7.56643 66.16172 36.86407
# Shear Modulus (GPa) = 11.06477 27.42960 19.24718
#
# Velocity S-wave (km/s) = 2.49388 3.92658 3.28919
# Velocity P-wave (km/s) = 3.54198 7.59912 5.92841
#
# Compressibility (1/GPa) = 0.13216280
#
# Stress axis : x y z
#
# Youngs Moduli (GPa) = 105.50286 6.42158 101.57539
#
# Poissons Ratio (x) = 0.07268 0.50869
# Poissons Ratio (y) = 1.19415 0.51967
# Poissons Ratio (z) = 0.52836 0.03285
#
# Static dielectric constant tensor:
#      x y z
#    x 3.554960 0.000000 0.000000 
#    y 0.000000 2.646120 0.000000 
#    z 0.000000 0.000000 3.622020 
# 
# 
# High freq. dielectric constant tensor:
#      x y z
#    x 1.697550 0.000000 0.000000 
#    y 0.000000 1.617100 0.000000 
#    z 0.000000 0.000000 1.700950 
# 
# From -- ./inp_files/51355.got.cif
#   From: 2010.03.12/outbox.cif.g09.slc.cpg/sg65_26_cif.got.tgz:51355.got - 2010.04.10 20:52:16.
