data_PCOD8267233
_publ_section_title
;
Structure prediction by ZEFSAII (Michael W. Deem and Ramdas Pophale) SiO2 
 PCOD8267233
Probable space group: C M M M
;
_chemical_formula_sum "Si O2"
_cell_formula_units_Z 104
_cell_length_a 29.553607
_cell_length_b 14.170874
_cell_length_c 14.395805
_cell_angle_alpha 90.000000
_cell_angle_beta 90.000000
_cell_angle_gamma 90.000000
_cell_volume 6028.969483
_symmetry_space_group_name_H-M "C M M M"
_symmetry_group_IT_number 65
_symmetry_cell_setting 'orthorhombic'
loop_
_space_group_symop_operation_xyz
x,y,z
-x,-y,z
x,-y,-z
-x,y,-z
-x,-y,-z
x,y,-z
-x,y,z
x,-y,z
1/2+x,1/2+y,z
1/2-x,1/2-y,z
1/2+x,1/2-y,-z
1/2-x,1/2+y,-z
1/2-x,1/2-y,-z
1/2+x,1/2+y,-z
1/2-x,1/2+y,z
1/2+x,1/2-y,z
loop_
_atom_site_type_symbol
_atom_site_label
_atom_site_fract_x
_atom_site_fract_y
_atom_site_fract_z
Si Si1 0.243917 0.111913 0.199095
Si Si2 0.000000 0.605045 0.110609
Si Si3 0.448351 0.392121 0.759325
Si Si4 0.317294 0.763477 0.889558
Si Si5 0.717103 0.611325 0.601330
Si Si6 0.920643 0.737964 0.890943
Si Si7 0.616028 0.612107 0.398147
O O1 0.289487 0.147614 0.150309
O O2 0.200921 0.165233 0.153680
O O3 0.247541 0.138975 0.309419
O O4 0.237738 0.000000 0.183857
O O5 0.045699 0.656428 0.146596
O O6 0.000000 0.500000 0.152571
O O7 0.000000 0.602160 0.000000
O O8 0.500000 0.381587 0.728151
O O9 0.435385 0.500000 0.778693
O O10 0.438020 0.337665 0.853691
O O11 0.418057 0.345737 0.677870
O O12 0.369076 0.781477 0.860251
O O13 0.311060 0.758882 0.000000
O O14 0.735640 0.648761 0.500000
O O15 0.713675 0.500000 0.594698
O O16 0.666616 0.651096 0.619317
O O17 0.924148 0.745756 0.000000
O O18 0.599384 0.644471 0.500000
O O19 0.615180 0.500000 0.391023
#
# Coordination Sequence:
#
# PCOD8267233 Si02
#       7
#    16   8  16  16  16  16  16
#     4  10  19  33  52  72  99 133 165 202 246 294
#     4   9  18  34  55  73  88 115 159 207 253 292
#     4  10  19  29  45  71 101 132 161 191 236 296
#     4  10  22  35  48  71 100 130 167 209 246 289
#     4   8  14  26  46  70  94 124 161 198 239 288
#     4  10  20  35  51  69  98 129 160 204 250 290
#     4   8  14  25  41  64  96 131 165 197 228 271
#
# _framework density 17.250046000000001
#
# number of rings (size 3 to 8) (size 9 to 14) (size 15 to 20)
#    0.000    2.692    0.769    2.769    0.000    4.308 
#    0.000    6.923    0.000    0.923    0.000    0.000 
#    0.000    1.231    0.000    0.000    0.000    0.308 
#
# Total GULP energy -644399.875114 kJ/mol
# GULP energy per Si atom -12392.305291 kJ/mol
# Density = 1.721078 g / cm^3
# Si number density = 17.250046 Si / 1000 Ang^3
#
#
#
# Elastic Constant Matrix: (Units=GPa)
#
#
# Indices 1 2 3 4 5 6 
#
# 1 100.0057 47.8574 41.5732 0.0000 0.0000 0.0000
# 2 47.8574 85.5679 39.3315 0.0000 0.0000 0.0000
# 3 41.5732 39.3315 77.0292 0.0000 0.0000 0.0000
# 4 0.0000 0.0000 0.0000 6.3926 0.0000 0.0000
# 5 0.0000 0.0000 0.0000 0.0000 21.1753 0.0000
# 6 0.0000 0.0000 0.0000 0.0000 0.0000 16.8108
#
#
#
# Elastic Compliance Matrix: (Units=1/GPa)
#
#
# Indices 1 2 3 4 5 6 
#
# 1 0.014984 -0.006093 -0.004976 0.000000 0.000000 0.000000
# 2 -0.006093 0.017749 -0.005774 0.000000 0.000000 0.000000
# 3 -0.004976 -0.005774 0.018616 0.000000 0.000000 0.000000
# 4 0.000000 0.000000 0.000000 0.156431 0.000000 0.000000
# 5 0.000000 0.000000 0.000000 0.000000 0.047225 0.000000
# 6 0.000000 0.000000 0.000000 0.000000 0.000000 0.059486
#
#
# Mechanical properties :
#
#
# Convention : Reuss Voigt Hill
#
# Bulk Modulus (GPa) = 56.61745 57.79190 57.20468
# Shear Modulus (GPa) = 14.12180 17.79846 15.96013
#
# Velocity S-wave (km/s) = 2.86432 3.21564 3.04505
# Velocity P-wave (km/s) = 6.62057 6.88203 6.75256
#
# Compressibility (1/GPa) = 0.01766240
#
# Stress axis : x y z
#
# Youngs Moduli (GPa) = 66.73905 56.34276 53.71832
#
# Poissons Ratio (x) = 0.34331 0.26728
# Poissons Ratio (y) = 0.40666 0.31016
# Poissons Ratio (z) = 0.33207 0.32532
#
# Static dielectric constant tensor:
#      x y z
#    x 3.388990 0.000000 0.000000 
#    y 0.000000 2.990490 0.000000 
#    z 0.000000 0.000000 3.484780 
# 
# 
# High freq. dielectric constant tensor:
#      x y z
#    x 1.664870 0.000000 0.000000 
#    y 0.000000 1.634700 0.000000 
#    z 0.000000 0.000000 1.668030 
# 
# From -- ./inp_files/48005.got.cif
#   From: 2010.03.12/outbox.cif.g09.slc.cpg/sg65_25_cif.got.tgz:48005.got - 2010.04.10 20:52:16.
