data_PCOD8267905
_publ_section_title
;
Structure prediction by ZEFSAII (Michael W. Deem and Ramdas Pophale) SiO2 
 PCOD8267905
Probable space group: C M M M
;
_chemical_formula_sum "Si O2"
_cell_formula_units_Z 96
_cell_length_a 27.691300
_cell_length_b 8.758748
_cell_length_c 23.756393
_cell_angle_alpha 90.000000
_cell_angle_beta 90.000000
_cell_angle_gamma 90.000000
_cell_volume 5761.902130
_symmetry_space_group_name_H-M "C M M M"
_symmetry_group_IT_number 65
_symmetry_cell_setting 'orthorhombic'
loop_
_space_group_symop_operation_xyz
x,y,z
-x,-y,z
x,-y,-z
-x,y,-z
-x,-y,-z
x,y,-z
-x,y,z
x,-y,z
1/2+x,1/2+y,z
1/2-x,1/2-y,z
1/2+x,1/2-y,-z
1/2-x,1/2+y,-z
1/2-x,1/2-y,-z
1/2+x,1/2+y,-z
1/2-x,1/2+y,z
1/2+x,1/2-y,z
loop_
_atom_site_type_symbol
_atom_site_label
_atom_site_fract_x
_atom_site_fract_y
_atom_site_fract_z
Si Si1 0.199211 0.179630 0.562395
Si Si2 0.353471 0.680698 0.671966
Si Si3 0.055010 0.323243 0.935152
Si Si4 0.698509 0.819293 0.776518
Si Si5 0.111821 0.820942 0.838049
Si Si6 0.947238 0.820008 0.730841
O O1 0.183276 0.236709 0.500000
O O2 0.250000 0.250000 0.580352
O O3 0.159312 0.229750 0.608189
O O4 0.205948 0.000000 0.562582
O O5 0.347987 0.500000 0.681576
O O6 0.317337 0.761389 0.715037
O O7 0.408620 0.734181 0.683722
O O8 0.061320 0.500000 0.919432
O O9 0.092006 0.223194 0.899087
O O10 0.000000 0.271347 0.923275
O O11 0.068085 0.294574 0.000000
O O12 0.750000 0.750000 0.792372
O O13 0.661369 0.766568 0.824850
O O14 0.701867 0.000000 0.775585
O O15 0.071824 0.770882 0.792165
O O16 0.122474 0.000000 0.835042
O O17 0.000000 0.744232 0.720085
O O18 0.952677 0.000000 0.728083
#
# Coordination Sequence:
#
# PCOD8267905 Si02
#       6
#    16  16  16  16  16  16
#     4   9  17  28  42  61  86 116 149 187 231 277
#     4   9  17  29  45  66  91 119 152 189 229 274
#     4   9  18  32  49  71 101 134 164 195 233 275
#     4  11  21  33  49  69  94 122 152 188 233 283
#     4  10  19  31  48  71  96 123 158 196 234 276
#     4   8  14  25  42  64  89 117 148 183 223 266
#
# _framework density 16.661163999999999
#
# number of rings (size 3 to 8) (size 9 to 14) (size 15 to 20)
#    0.000    2.667    0.000    4.500    0.000    3.333 
#    0.000    0.833    0.000    5.500    0.000    3.500 
#    0.000    0.000    0.000   10.167    0.000   11.000 
#
# Total GULP energy -595051.474944 kJ/mol
# GULP energy per Si atom -12396.905728 kJ/mol
# Density = 1.662324 g / cm^3
# Si number density = 16.661164 Si / 1000 Ang^3
#
#
#
# Elastic Constant Matrix: (Units=GPa)
#
#
# Indices 1 2 3 4 5 6 
#
# 1 132.4777 34.5686 65.3888 0.0000 0.0000 0.0000
# 2 34.5686 57.3974 30.8602 0.0000 0.0000 0.0000
# 3 65.3888 30.8602 106.1448 0.0000 0.0000 0.0000
# 4 0.0000 0.0000 0.0000 21.9338 0.0000 0.0000
# 5 0.0000 0.0000 0.0000 0.0000 20.3889 0.0000
# 6 0.0000 0.0000 0.0000 0.0000 0.0000 20.8767
#
#
#
# Elastic Compliance Matrix: (Units=1/GPa)
#
#
# Indices 1 2 3 4 5 6 
#
# 1 0.011468 -0.003684 -0.005994 0.000000 0.000000 0.000000
# 2 -0.003684 0.021834 -0.004078 0.000000 0.000000 0.000000
# 3 -0.005994 -0.004078 0.014299 0.000000 0.000000 0.000000
# 4 0.000000 0.000000 0.000000 0.045592 0.000000 0.000000
# 5 0.000000 0.000000 0.000000 0.000000 0.049046 0.000000
# 6 0.000000 0.000000 0.000000 0.000000 0.000000 0.047900
#
#
# Mechanical properties :
#
#
# Convention : Reuss Voigt Hill
#
# Bulk Modulus (GPa) = 49.77899 61.96171 55.87035
# Shear Modulus (GPa) = 22.28675 23.65336 22.97005
#
# Velocity S-wave (km/s) = 3.66135 3.77194 3.71706
# Velocity P-wave (km/s) = 6.91492 7.49934 7.21305
#
# Compressibility (1/GPa) = 0.02008880
#
# Stress axis : x y z
#
# Youngs Moduli (GPa) = 87.19772 45.79993 69.93466
#
# Poissons Ratio (x) = 0.16875 0.41916
# Poissons Ratio (y) = 0.32127 0.28521
# Poissons Ratio (z) = 0.52263 0.18678
#
# Static dielectric constant tensor:
#      x y z
#    x 3.269970 0.000000 0.000000 
#    y 0.000000 2.981510 0.000000 
#    z 0.000000 0.000000 3.193850 
# 
# 
# High freq. dielectric constant tensor:
#      x y z
#    x 1.636540 0.000000 0.000000 
#    y 0.000000 1.630510 0.000000 
#    z 0.000000 0.000000 1.632280 
# 
# From -- ./inp_files/68057.got.cif
#   From: 2010.03.12/outbox.cif.g09.slc.cpg/sg65_35_cif.got.tgz:68057.got - 2010.04.10 20:52:16.
