data_PCOD8267544
_publ_section_title
;
Structure prediction by ZEFSAII (Michael W. Deem and Ramdas Pophale) SiO2 
 PCOD8267544
Probable space group: C M M M
;
_chemical_formula_sum "Si O2"
_cell_formula_units_Z 80
_cell_length_a 19.655187
_cell_length_b 8.883771
_cell_length_c 25.838330
_cell_angle_alpha 90.000000
_cell_angle_beta 90.000000
_cell_angle_gamma 90.000000
_cell_volume 4511.687136
_symmetry_space_group_name_H-M "C M M M"
_symmetry_group_IT_number 65
_symmetry_cell_setting 'orthorhombic'
loop_
_space_group_symop_operation_xyz
x,y,z
-x,-y,z
x,-y,-z
-x,y,-z
-x,-y,-z
x,y,-z
-x,y,z
x,-y,z
1/2+x,1/2+y,z
1/2-x,1/2-y,z
1/2+x,1/2-y,-z
1/2-x,1/2+y,-z
1/2-x,1/2-y,-z
1/2+x,1/2+y,-z
1/2-x,1/2+y,z
1/2+x,1/2-y,z
loop_
_atom_site_type_symbol
_atom_site_label
_atom_site_fract_x
_atom_site_fract_y
_atom_site_fract_z
Si Si1 0.077010 0.177628 0.855130
Si Si2 0.176637 0.823765 0.443908
Si Si3 0.175601 0.678790 0.342464
Si Si4 0.922623 0.677237 0.250685
Si Si5 0.179650 0.177674 0.941658
O O1 0.104616 0.249209 0.802144
O O2 0.121258 0.236867 0.903282
O O3 0.000000 0.230291 0.865714
O O4 0.082336 0.000000 0.849517
O O5 0.139500 0.799155 0.500000
O O6 0.250000 0.750000 0.447689
O O7 0.140230 0.741221 0.395551
O O8 0.183676 0.000000 0.431691
O O9 0.181980 0.500000 0.345297
O O10 0.250000 0.750000 0.333876
O O11 0.126360 0.732273 0.296530
O O12 0.918946 0.500000 0.243977
O O13 0.000000 0.729692 0.262615
O O14 0.250000 0.250000 0.923458
O O15 0.187552 0.000000 0.938347
O O16 0.160726 0.228592 0.000000
#
# Coordination Sequence:
#
# PCOD8267544 Si02
#       5
#    16  16  16  16  16
#     4   9  18  32  50  71  92 118 155 194 231 272
#     4   9  16  26  42  65  93 122 151 186 228 272
#     4  10  19  30  47  70  94 120 152 191 231 273
#     4   9  19  35  51  67  91 124 158 191 230 274
#     4   9  18  32  49  70  97 126 154 187 228 274
#
# _framework density 17.731725999999998
#
# number of rings (size 3 to 8) (size 9 to 14) (size 15 to 20)
#    0.000    2.800    0.000    2.400    0.000    4.800 
#    0.000    6.000    0.000    0.600    0.000    9.800 
#    0.000    0.000    0.000    0.000    0.000    0.000 
#
# Total GULP energy -495771.315087 kJ/mol
# GULP energy per Si atom -12394.282877 kJ/mol
# Density = 1.769137 g / cm^3
# Si number density = 17.731726 Si / 1000 Ang^3
#
#
#
# Elastic Constant Matrix: (Units=GPa)
#
#
# Indices 1 2 3 4 5 6 
#
# 1 77.5041 27.4097 84.7959 0.0000 0.0000 0.0000
# 2 27.4097 47.3126 44.5634 0.0000 0.0000 0.0000
# 3 84.7959 44.5634 180.4052 0.0000 0.0000 0.0000
# 4 0.0000 0.0000 0.0000 31.1941 0.0000 0.0000
# 5 0.0000 0.0000 0.0000 0.0000 18.2951 0.0000
# 6 0.0000 0.0000 0.0000 0.0000 0.0000 21.2412
#
#
#
# Elastic Compliance Matrix: (Units=1/GPa)
#
#
# Indices 1 2 3 4 5 6 
#
# 1 0.027400 -0.004878 -0.011674 0.000000 0.000000 0.000000
# 2 -0.004878 0.028413 -0.004726 0.000000 0.000000 0.000000
# 3 -0.011674 -0.004726 0.012197 0.000000 0.000000 0.000000
# 4 0.000000 0.000000 0.000000 0.032057 0.000000 0.000000
# 5 0.000000 0.000000 0.000000 0.000000 0.054659 0.000000
# 6 0.000000 0.000000 0.000000 0.000000 0.000000 0.047078
#
#
# Mechanical properties :
#
#
# Convention : Reuss Voigt Hill
#
# Bulk Modulus (GPa) = 39.28474 68.75113 54.01793
# Shear Modulus (GPa) = 19.77492 24.04295 21.90893
#
# Velocity S-wave (km/s) = 3.34313 3.68629 3.51889
# Velocity P-wave (km/s) = 6.09140 7.54821 6.85859
#
# Compressibility (1/GPa) = 0.02545518
#
# Stress axis : x y z
#
# Youngs Moduli (GPa) = 36.49671 35.19494 81.98465
#
# Poissons Ratio (x) = 0.17169 0.95706
# Poissons Ratio (y) = 0.17804 0.38743
# Poissons Ratio (z) = 0.42605 0.16632
#
# Static dielectric constant tensor:
#      x y z
#    x 3.179440 0.000000 0.000000 
#    y 0.000000 3.247050 0.000000 
#    z 0.000000 0.000000 3.922020 
# 
# 
# High freq. dielectric constant tensor:
#      x y z
#    x 1.651200 0.000000 0.000000 
#    y 0.000000 1.686030 0.000000 
#    z 0.000000 0.000000 1.704790 
# 
# From -- ./inp_files/75023.got.cif
#   From: 2010.03.12/outbox.cif.g09.slc.cpg/sg65_38_cif.got.tgz:75023.got - 2010.04.10 20:52:16.
