data_PCOD8267976
_publ_section_title
;
Structure prediction by ZEFSAII (Michael W. Deem and Ramdas Pophale) SiO2 
 PCOD8267976
Probable space group: C M M M
;
_chemical_formula_sum "Si O2"
_cell_formula_units_Z 80
_cell_length_a 7.718391
_cell_length_b 18.799732
_cell_length_c 27.653437
_cell_angle_alpha 90.000000
_cell_angle_beta 90.000000
_cell_angle_gamma 90.000000
_cell_volume 4012.615536
_symmetry_space_group_name_H-M "C M M M"
_symmetry_group_IT_number 65
_symmetry_cell_setting 'orthorhombic'
loop_
_space_group_symop_operation_xyz
x,y,z
-x,-y,z
x,-y,-z
-x,y,-z
-x,-y,-z
x,y,-z
-x,y,z
x,-y,z
1/2+x,1/2+y,z
1/2-x,1/2-y,z
1/2+x,1/2-y,-z
1/2-x,1/2+y,-z
1/2-x,1/2-y,-z
1/2+x,1/2+y,-z
1/2-x,1/2+y,z
1/2+x,1/2-y,z
loop_
_atom_site_type_symbol
_atom_site_label
_atom_site_fract_x
_atom_site_fract_y
_atom_site_fract_z
Si Si1 0.797317 0.171590 0.786246
Si Si2 0.000000 0.415529 0.946027
Si Si3 0.706882 0.580501 0.408649
Si Si4 0.796002 0.828992 0.679612
Si Si5 0.796348 0.832564 0.500000
Si Si6 0.198192 0.083775 0.123554
O O1 0.750000 0.250000 0.804476
O O2 0.713890 0.156876 0.733098
O O3 0.729906 0.116559 0.826359
O O4 0.000000 0.162828 0.781179
O O5 0.174818 0.389463 0.919049
O O6 0.000000 0.500000 0.948482
O O7 0.000000 0.382938 0.000000
O O8 0.500000 0.581067 0.408911
O O9 0.777075 0.500000 0.413158
O O10 0.779555 0.614636 0.358850
O O11 0.780406 0.627839 0.452835
O O12 0.750000 0.750000 0.661651
O O13 0.000000 0.837550 0.682197
O O14 0.750000 0.750000 0.500000
O O15 0.000000 0.841513 0.500000
O O16 0.000000 0.107823 0.111894
O O17 0.208849 0.000000 0.129871
#
# Coordination Sequence:
#
# PCOD8267976 Si02
#       6
#    16   8  16  16   8  16
#     4   9  18  30  47  72  96 128 165 199 247 300
#     4   9  18  32  52  78 104 134 171 210 258 308
#     4   9  17  29  47  70  94 123 160 204 248 291
#     4   9  17  30  47  68  94 123 160 198 240 293
#     4  10  19  31  49  71  93 122 164 204 246 296
#     4   9  18  32  50  75 103 131 169 214 256 302
#
# _framework density 19.937118999999999
#
# number of rings (size 3 to 8) (size 9 to 14) (size 15 to 20)
#    0.000    2.900    0.000    0.900    1.400    2.400 
#    0.000    6.000    0.000    3.600    0.000    0.000 
#    0.000    0.000    0.000    0.000    0.000    0.000 
#
# Total GULP energy -495779.792842 kJ/mol
# GULP energy per Si atom -12394.494821 kJ/mol
# Density = 1.989174 g / cm^3
# Si number density = 19.937119 Si / 1000 Ang^3
#
#
#
# Elastic Constant Matrix: (Units=GPa)
#
#
# Indices 1 2 3 4 5 6 
#
# 1 44.5848 18.1397 42.4353 0.0000 0.0000 0.0000
# 2 18.1397 109.5875 83.1349 0.0000 0.0000 0.0000
# 3 42.4353 83.1349 180.8483 0.0000 0.0000 0.0000
# 4 0.0000 0.0000 0.0000 33.9670 0.0000 0.0000
# 5 0.0000 0.0000 0.0000 0.0000 8.3964 0.0000
# 6 0.0000 0.0000 0.0000 0.0000 0.0000 21.1191
#
#
#
# Elastic Compliance Matrix: (Units=1/GPa)
#
#
# Indices 1 2 3 4 5 6 
#
# 1 0.028901 0.000554 -0.007036 0.000000 0.000000 0.000000
# 2 0.000554 0.014022 -0.006576 0.000000 0.000000 0.000000
# 3 -0.007036 -0.006576 0.010203 0.000000 0.000000 0.000000
# 4 0.000000 0.000000 0.000000 0.029440 0.000000 0.000000
# 5 0.000000 0.000000 0.000000 0.000000 0.119099 0.000000
# 6 0.000000 0.000000 0.000000 0.000000 0.000000 0.047350
#
#
# Mechanical properties :
#
#
# Convention : Reuss Voigt Hill
#
# Bulk Modulus (GPa) = 37.02339 69.16002 53.09170
# Shear Modulus (GPa) = 17.59729 25.45055 21.52392
#
# Velocity S-wave (km/s) = 2.97415 3.57675 3.28928
# Velocity P-wave (km/s) = 5.51402 7.19874 6.41196
#
# Compressibility (1/GPa) = 0.02700995
#
# Stress axis : x y z
#
# Youngs Moduli (GPa) = 34.60135 71.31685 98.00771
#
# Poissons Ratio (x) = -0.03949 0.68958
# Poissons Ratio (y) = -0.01916 0.64447
# Poissons Ratio (z) = 0.24345 0.46896
#
# Static dielectric constant tensor:
#      x y z
#    x 3.456050 0.000000 0.000000 
#    y 0.000000 2.065350 0.000000 
#    z 0.000000 0.000000 4.210190 
# 
# 
# High freq. dielectric constant tensor:
#      x y z
#    x 1.757910 0.000000 0.000000 
#    y 0.000000 1.758840 0.000000 
#    z 0.000000 0.000000 1.783910 
# 
# From -- ./inp_files/67311.got.cif
#   From: 2010.03.12/outbox.cif.g09.slc.cpg/sg65_34_cif.got.tgz:67311.got - 2010.04.10 20:52:16.
