data_PCOD8267179
_publ_section_title
;
Structure prediction by ZEFSAII (Michael W. Deem and Ramdas Pophale) SiO2 
 PCOD8267179
Probable space group: C M M M
;
_chemical_formula_sum "Si O2"
_cell_formula_units_Z 112
_cell_length_a 19.242446
_cell_length_b 25.269625
_cell_length_c 13.478047
_cell_angle_alpha 90.000000
_cell_angle_beta 90.000000
_cell_angle_gamma 90.000000
_cell_volume 6553.692193
_symmetry_space_group_name_H-M "C M M M"
_symmetry_group_IT_number 65
_symmetry_cell_setting 'orthorhombic'
loop_
_space_group_symop_operation_xyz
x,y,z
-x,-y,z
x,-y,-z
-x,y,-z
-x,-y,-z
x,y,-z
-x,y,z
x,-y,z
1/2+x,1/2+y,z
1/2-x,1/2-y,z
1/2+x,1/2-y,-z
1/2-x,1/2+y,-z
1/2-x,1/2-y,-z
1/2+x,1/2+y,-z
1/2-x,1/2+y,z
1/2+x,1/2-y,z
loop_
_atom_site_type_symbol
_atom_site_label
_atom_site_fract_x
_atom_site_fract_y
_atom_site_fract_z
Si Si1 0.580396 0.145932 0.609871
Si Si2 0.583216 0.776416 0.784637
Si Si3 0.425465 0.441631 0.617283
Si Si4 0.703681 0.299548 0.768642
Si Si5 0.791466 0.887282 0.382725
Si Si6 0.684672 0.143939 0.114714
Si Si7 0.832055 0.438087 0.718679
O O1 0.613296 0.155151 0.500000
O O2 0.500000 0.135864 0.599729
O O3 0.595291 0.197839 0.676132
O O4 0.608661 0.092245 0.657999
O O5 0.500000 0.769757 0.807965
O O6 0.623353 0.719198 0.787736
O O7 0.621083 0.815310 0.863105
O O8 0.417242 0.446401 0.500000
O O9 0.500000 0.416599 0.645793
O O10 0.418966 0.500000 0.664022
O O11 0.366268 0.404500 0.659566
O O12 0.750000 0.250000 0.747910
O O13 0.718249 0.330964 0.667402
O O14 0.738830 0.331646 0.860099
O O15 0.786771 0.881340 0.500000
O O16 0.737946 0.931443 0.345066
O O17 0.674710 0.088948 0.173469
O O18 0.682955 0.129542 0.000000
O O19 0.850163 0.500000 0.730728
#
# Coordination Sequence:
#
# PCOD8267179 Si02
#       7
#    16  16  16  16  16  16  16
#     4   9  18  32  48  67  96 133 164 188 220 265
#     4   9  18  32  50  73  97 121 156 196 228 268
#     4   8  14  25  40  58  83 116 150 181 216 259
#     4   9  19  32  46  67  93 123 155 186 226 274
#     4  10  19  29  43  66  96 126 156 190 223 259
#     4   9  19  36  53  68  91 120 149 189 242 293
#     4  10  20  32  48  71  94 118 155 198 235 275
#
# _framework density 17.089603
#
# number of rings (size 3 to 8) (size 9 to 14) (size 15 to 20)
#    0.000    2.857    0.000    2.143    0.000    6.571 
#    0.000    0.714    0.000    0.000    0.000    4.000 
#    0.000    0.000    0.000   15.143    0.000    0.571 
#
# Total GULP energy -693766.676463 kJ/mol
# GULP energy per Si atom -12388.690651 kJ/mol
# Density = 1.705071 g / cm^3
# Si number density = 17.089603 Si / 1000 Ang^3
#
#
#
# Elastic Constant Matrix: (Units=GPa)
#
#
# Indices 1 2 3 4 5 6 
#
# 1 68.7005 8.1653 22.3110 0.0000 0.0000 0.0000
# 2 8.1653 46.1379 21.2542 0.0000 0.0000 0.0000
# 3 22.3110 21.2542 104.5084 0.0000 0.0000 0.0000
# 4 0.0000 0.0000 0.0000 8.6197 0.0000 0.0000
# 5 0.0000 0.0000 0.0000 0.0000 14.2440 0.0000
# 6 0.0000 0.0000 0.0000 0.0000 0.0000 21.7725
#
#
#
# Elastic Compliance Matrix: (Units=1/GPa)
#
#
# Indices 1 2 3 4 5 6 
#
# 1 0.015718 -0.001364 -0.003078 0.000000 0.000000 0.000000
# 2 -0.001364 0.024033 -0.004597 0.000000 0.000000 0.000000
# 3 -0.003078 -0.004597 0.011161 0.000000 0.000000 0.000000
# 4 0.000000 0.000000 0.000000 0.116013 0.000000 0.000000
# 5 0.000000 0.000000 0.000000 0.000000 0.070205 0.000000
# 6 0.000000 0.000000 0.000000 0.000000 0.000000 0.045929
#
#
# Mechanical properties :
#
#
# Convention : Reuss Voigt Hill
#
# Bulk Modulus (GPa) = 30.45575 35.86753 33.16164
# Shear Modulus (GPa) = 16.02153 20.10167 18.06160
#
# Velocity S-wave (km/s) = 3.06519 3.43337 3.25449
# Velocity P-wave (km/s) = 5.51245 6.06225 5.79387
#
# Compressibility (1/GPa) = 0.03283452
#
# Stress axis : x y z
#
# Youngs Moduli (GPa) = 63.62267 41.60950 89.60117
#
# Poissons Ratio (x) = 0.05674 0.27581
# Poissons Ratio (y) = 0.08676 0.41186
# Poissons Ratio (z) = 0.19584 0.19126
#
# Static dielectric constant tensor:
#      x y z
#    x 3.678580 0.000000 0.000000 
#    y 0.000000 3.345340 0.000000 
#    z 0.000000 0.000000 2.987240 
# 
# 
# High freq. dielectric constant tensor:
#      x y z
#    x 1.671800 0.000000 0.000000 
#    y 0.000000 1.646660 0.000000 
#    z 0.000000 0.000000 1.632970 
# 
# From -- ./inp_files/29399.got.cif
#   From: 2010.03.12/outbox.cif.g09.slc.cpg/sg65_15_cif.got.tgz:29399.got - 2010.04.10 20:52:16.
