data_PCOD8267798
_publ_section_title
;
Structure prediction by ZEFSAII (Michael W. Deem and Ramdas Pophale) SiO2 
 PCOD8267798
Probable space group: C M M M
;
_chemical_formula_sum "Si O2"
_cell_formula_units_Z 120
_cell_length_a 8.166631
_cell_length_b 27.964404
_cell_length_c 28.445197
_cell_angle_alpha 90.000000
_cell_angle_beta 90.000000
_cell_angle_gamma 90.000000
_cell_volume 6496.170972
_symmetry_space_group_name_H-M "C M M M"
_symmetry_group_IT_number 65
_symmetry_cell_setting 'orthorhombic'
loop_
_space_group_symop_operation_xyz
x,y,z
-x,-y,z
x,-y,-z
-x,y,-z
-x,-y,-z
x,y,-z
-x,y,z
x,-y,z
1/2+x,1/2+y,z
1/2-x,1/2-y,z
1/2+x,1/2-y,-z
1/2-x,1/2+y,-z
1/2-x,1/2-y,-z
1/2+x,1/2+y,-z
1/2-x,1/2+y,z
1/2+x,1/2-y,z
loop_
_atom_site_type_symbol
_atom_site_label
_atom_site_fract_x
_atom_site_fract_y
_atom_site_fract_z
Si Si1 0.194591 0.302177 0.885583
Si Si2 0.814538 0.112567 0.055015
Si Si3 0.189664 0.699175 0.219924
Si Si4 0.692380 0.552856 0.360594
Si Si5 0.500000 0.946817 0.944209
Si Si6 0.810195 0.857596 0.304280
Si Si7 0.807028 0.607409 0.552636
Si Si8 0.808424 0.698371 0.610475
O O1 0.250000 0.250000 0.902109
O O2 0.293710 0.337669 0.918651
O O3 0.259047 0.311019 0.832178
O O4 0.000000 0.309394 0.891162
O O5 0.669193 0.077719 0.073582
O O6 0.000000 0.092344 0.064720
O O7 0.790831 0.121978 0.000000
O O8 0.250000 0.750000 0.240387
O O9 0.232376 0.655429 0.254312
O O10 0.000000 0.703931 0.214697
O O11 0.500000 0.551433 0.353561
O O12 0.766796 0.500000 0.350233
O O13 0.767506 0.592819 0.324984
O O14 0.729121 0.567085 0.414304
O O15 0.500000 0.000000 0.922964
O O16 0.500000 0.948194 0.000000
O O17 0.780365 0.814755 0.340870
O O18 0.000000 0.864654 0.295782
O O19 0.737331 0.601068 0.500000
O O20 0.758487 0.660331 0.570517
O O21 0.000000 0.600577 0.553505
O O22 0.750000 0.750000 0.592799
O O23 0.000000 0.698057 0.620322
#
# Coordination Sequence:
#
# PCOD8267798 Si02
#       8
#    16  16  16  16   8  16  16  16
#     4  10  20  34  52  76 109 148 185 225 270 324
#     4  10  20  34  54  81 113 149 191 236 283 336
#     4  10  20  33  51  76 105 135 171 209 253 304
#     4   9  19  35  53  73  95 121 157 200 245 293
#     4   9  18  34  56  80 108 142 184 238 289 329
#     4  10  19  32  51  72  95 125 160 201 249 296
#     4   9  19  34  49  68  95 125 157 193 235 285
#     4  10  19  31  47  67  94 125 157 195 236 285
#
# _framework density 18.472418999999999
#
# number of rings (size 3 to 8) (size 9 to 14) (size 15 to 20)
#    0.000    2.333    0.667    2.000    0.000    4.267 
#    0.000    2.667    0.000    0.800    0.000    1.867 
#    0.000    0.000    0.000    0.000    0.000    0.000 
#
# Total GULP energy -743813.604995 kJ/mol
# GULP energy per Si atom -12396.893417 kJ/mol
# Density = 1.843038 g / cm^3
# Si number density = 18.472419 Si / 1000 Ang^3
#
#
#
# Elastic Constant Matrix: (Units=GPa)
#
#
# Indices 1 2 3 4 5 6 
#
# 1 63.8164 32.0452 26.0275 0.0000 0.0000 0.0000
# 2 32.0452 132.2237 48.0752 0.0000 0.0000 0.0000
# 3 26.0275 48.0752 68.2252 0.0000 0.0000 0.0000
# 4 0.0000 0.0000 0.0000 14.9159 0.0000 0.0000
# 5 0.0000 0.0000 0.0000 0.0000 22.1237 0.0000
# 6 0.0000 0.0000 0.0000 0.0000 0.0000 23.8914
#
#
#
# Elastic Compliance Matrix: (Units=1/GPa)
#
#
# Indices 1 2 3 4 5 6 
#
# 1 0.019239 -0.002681 -0.005450 0.000000 0.000000 0.000000
# 2 -0.002681 0.010542 -0.006405 0.000000 0.000000 0.000000
# 3 -0.005450 -0.006405 0.021250 0.000000 0.000000 0.000000
# 4 0.000000 0.000000 0.000000 0.067042 0.000000 0.000000
# 5 0.000000 0.000000 0.000000 0.000000 0.045200 0.000000
# 6 0.000000 0.000000 0.000000 0.000000 0.000000 0.041856
#
#
# Mechanical properties :
#
#
# Convention : Reuss Voigt Hill
#
# Bulk Modulus (GPa) = 45.54290 52.95122 49.24706
# Shear Modulus (GPa) = 20.70198 22.72738 21.71468
#
# Velocity S-wave (km/s) = 3.35131 3.51143 3.43230
# Velocity P-wave (km/s) = 6.29945 6.72067 6.51347
#
# Compressibility (1/GPa) = 0.02195732
#
# Stress axis : x y z
#
# Youngs Moduli (GPa) = 51.97733 94.86187 47.05821
#
# Poissons Ratio (x) = 0.25432 0.25649
# Poissons Ratio (y) = 0.13935 0.30143
# Poissons Ratio (z) = 0.28330 0.60763
#
# Static dielectric constant tensor:
#      x y z
#    x 3.447560 0.000000 0.000000 
#    y 0.000000 3.609800 0.000000 
#    z 0.000000 0.000000 3.438670 
# 
# 
# High freq. dielectric constant tensor:
#      x y z
#    x 1.722440 0.000000 0.000000 
#    y 0.000000 1.707990 0.000000 
#    z 0.000000 0.000000 1.698750 
# 
# From -- ./inp_files/73925.got.cif
#   From: 2010.03.12/outbox.cif.g09.slc.cpg/sg65_37_cif.got.tgz:73925.got - 2010.04.10 20:52:16.
