data_PCOD8267526
_publ_section_title
;
Structure prediction by ZEFSAII (Michael W. Deem and Ramdas Pophale) SiO2 
 PCOD8267526
Probable space group: C M M M
;
_chemical_formula_sum "Si O2"
_cell_formula_units_Z 120
_cell_length_a 19.968792
_cell_length_b 20.290132
_cell_length_c 17.194932
_cell_angle_alpha 90.000000
_cell_angle_beta 90.000000
_cell_angle_gamma 90.000000
_cell_volume 6966.860721
_symmetry_space_group_name_H-M "C M M M"
_symmetry_group_IT_number 65
_symmetry_cell_setting 'orthorhombic'
loop_
_space_group_symop_operation_xyz
x,y,z
-x,-y,z
x,-y,-z
-x,y,-z
-x,-y,-z
x,y,-z
-x,y,z
x,-y,z
1/2+x,1/2+y,z
1/2-x,1/2-y,z
1/2+x,1/2-y,-z
1/2-x,1/2+y,-z
1/2-x,1/2-y,-z
1/2+x,1/2+y,-z
1/2-x,1/2+y,z
1/2+x,1/2-y,z
loop_
_atom_site_type_symbol
_atom_site_label
_atom_site_fract_x
_atom_site_fract_y
_atom_site_fract_z
Si Si1 0.211619 0.076299 0.088487
Si Si2 0.244155 0.674719 0.216351
Si Si3 0.877885 0.143998 0.302312
Si Si4 0.427295 0.424850 0.843682
Si Si5 0.419365 0.000000 0.593556
Si Si6 0.839753 0.372122 0.354086
Si Si7 0.925068 0.254776 0.413432
Si Si8 0.706995 0.573082 0.586742
O O1 0.253871 0.124184 0.143871
O O2 0.132317 0.092327 0.096839
O O3 0.226108 0.000000 0.111101
O O4 0.232804 0.090152 0.000000
O O5 0.250000 0.750000 0.185291
O O6 0.308418 0.671136 0.270414
O O7 0.177698 0.652123 0.265247
O O8 0.924774 0.119196 0.233422
O O9 0.917288 0.198782 0.349452
O O10 0.857688 0.084818 0.359675
O O11 0.500000 0.412268 0.883689
O O12 0.420350 0.500000 0.816558
O O13 0.386724 0.936906 0.637708
O O14 0.500000 0.000000 0.605975
O O15 0.402897 0.000000 0.500000
O O16 0.875486 0.314117 0.399072
O O17 0.769345 0.379941 0.397096
O O18 0.911117 0.226357 0.500000
O O19 0.000000 0.282960 0.407295
O O20 0.681269 0.583999 0.500000
O O21 0.734167 0.500000 0.601992
#
# Coordination Sequence:
#
# PCOD8267526 Si02
#       8
#    16  16  16  16   8  16  16  16
#     4   9  19  34  55  83 111 133 161 206 257 310
#     4  10  20  35  53  77 104 139 172 207 256 315
#     4  10  19  32  47  68  98 130 170 213 249 294
#     4   9  17  30  50  73 100 135 169 199 241 296
#     4  11  22  36  54  76 105 137 176 231 285 319
#     4  11  21  34  52  72 100 132 173 220 262 320
#     4  11  22  34  48  67  96 136 177 219 264 305
#     4  10  19  30  47  68  92 125 167 218 268 305
#
# _framework density 17.224399999999999
#
# number of rings (size 3 to 8) (size 9 to 14) (size 15 to 20)
#    0.000    1.933    2.000    2.800    0.933    3.200 
#    0.000    3.333    0.000    0.000    0.000    5.600 
#    0.000    2.667    0.000    0.000    0.000    0.000 
#
# Total GULP energy -743504.621681 kJ/mol
# GULP energy per Si atom -12391.743695 kJ/mol
# Density = 1.718520 g / cm^3
# Si number density = 17.224400 Si / 1000 Ang^3
#
#
#
# Elastic Constant Matrix: (Units=GPa)
#
#
# Indices 1 2 3 4 5 6 
#
# 1 53.2302 18.0679 20.8567 0.0000 0.0000 0.0000
# 2 18.0679 86.3590 46.0981 0.0000 0.0000 0.0000
# 3 20.8567 46.0981 87.1979 0.0000 0.0000 0.0000
# 4 0.0000 0.0000 0.0000 27.2789 0.0000 0.0000
# 5 0.0000 0.0000 0.0000 0.0000 12.7830 0.0000
# 6 0.0000 0.0000 0.0000 0.0000 0.0000 22.0330
#
#
#
# Elastic Compliance Matrix: (Units=1/GPa)
#
#
# Indices 1 2 3 4 5 6 
#
# 1 0.021079 -0.002394 -0.003776 0.000000 0.000000 0.000000
# 2 -0.002394 0.016404 -0.008099 0.000000 0.000000 0.000000
# 3 -0.003776 -0.008099 0.016653 0.000000 0.000000 0.000000
# 4 0.000000 0.000000 0.000000 0.036658 0.000000 0.000000
# 5 0.000000 0.000000 0.000000 0.000000 0.078229 0.000000
# 6 0.000000 0.000000 0.000000 0.000000 0.000000 0.045386
#
#
# Mechanical properties :
#
#
# Convention : Reuss Voigt Hill
#
# Bulk Modulus (GPa) = 39.06837 44.09251 41.58044
# Shear Modulus (GPa) = 19.88220 21.86993 20.87606
#
# Velocity S-wave (km/s) = 3.40119 3.56716 3.48516
# Velocity P-wave (km/s) = 6.17700 6.52845 6.35515
#
# Compressibility (1/GPa) = 0.02559616
#
# Stress axis : x y z
#
# Youngs Moduli (GPa) = 47.44161 60.96081 60.04868
#
# Poissons Ratio (x) = 0.14597 0.22674
# Poissons Ratio (y) = 0.11360 0.48636
# Poissons Ratio (z) = 0.17913 0.49375
#
# Static dielectric constant tensor:
#      x y z
#    x 3.202410 0.000000 0.000000 
#    y 0.000000 3.289560 0.000000 
#    z 0.000000 0.000000 3.115400 
# 
# 
# High freq. dielectric constant tensor:
#      x y z
#    x 1.656290 0.000000 0.000000 
#    y 0.000000 1.667310 0.000000 
#    z 0.000000 0.000000 1.650160 
# 
# From -- ./inp_files/44713.got.cif
#   From: 2010.03.12/outbox.cif.g09.slc.cpg/sg65_23_cif.got.tgz:44713.got - 2010.04.10 20:52:16.
