data_PCOD8267760
_publ_section_title
;
Structure prediction by ZEFSAII (Michael W. Deem and Ramdas Pophale) SiO2 
 PCOD8267760
Probable space group: C M M M
;
_chemical_formula_sum "Si O2"
_cell_formula_units_Z 104
_cell_length_a 18.331133
_cell_length_b 22.452012
_cell_length_c 13.938417
_cell_angle_alpha 90.000000
_cell_angle_beta 90.000000
_cell_angle_gamma 90.000000
_cell_volume 5736.645688
_symmetry_space_group_name_H-M "C M M M"
_symmetry_group_IT_number 65
_symmetry_cell_setting 'orthorhombic'
loop_
_space_group_symop_operation_xyz
x,y,z
-x,-y,z
x,-y,-z
-x,y,-z
-x,-y,-z
x,y,-z
-x,y,z
x,-y,z
1/2+x,1/2+y,z
1/2-x,1/2-y,z
1/2+x,1/2-y,-z
1/2-x,1/2+y,-z
1/2-x,1/2-y,-z
1/2+x,1/2+y,-z
1/2-x,1/2+y,z
1/2+x,1/2-y,z
loop_
_atom_site_type_symbol
_atom_site_label
_atom_site_fract_x
_atom_site_fract_y
_atom_site_fract_z
Si Si1 0.202782 0.342828 0.604787
Si Si2 0.000000 0.570884 0.887775
Si Si3 0.853368 0.209189 0.394852
Si Si4 0.918829 0.756649 0.206631
Si Si5 0.857940 0.369679 0.797943
Si Si6 0.579814 0.375353 0.888710
Si Si7 0.775778 0.066195 0.113580
O O1 0.189463 0.372753 0.500000
O O2 0.175940 0.275760 0.601702
O O3 0.289323 0.338732 0.627249
O O4 0.159330 0.381328 0.684899
O O5 0.928916 0.595158 0.833260
O O6 0.000000 0.500000 0.880715
O O7 0.000000 0.590903 0.000000
O O8 0.888325 0.194453 0.500000
O O9 0.910486 0.207856 0.307782
O O10 0.864843 0.701537 0.188507
O O11 0.905128 0.804950 0.123993
O O12 0.000000 0.729828 0.202496
O O13 0.788547 0.389490 0.858449
O O14 0.500000 0.392042 0.843221
O O15 0.646342 0.412722 0.842370
O O16 0.576813 0.389689 0.000000
O O17 0.758883 0.000000 0.152841
O O18 0.780635 0.066250 0.000000
#
# Coordination Sequence:
#
# PCOD8267760 Si02
#       7
#    16   8  16  16  16  16  16
#     4   8  15  28  48  73  99 129 166 208 257 311
#     4  11  24  40  55  71  97 139 189 235 274 309
#     4   8  14  26  45  70 102 136 166 201 247 304
#     4  10  19  31  46  75 109 138 170 205 256 313
#     4  11  20  34  53  76 102 137 175 218 266 306
#     4   9  19  34  51  74 105 135 160 201 262 324
#     4  10  21  36  54  75  96 126 175 223 259 306
#
# _framework density 18.129062000000001
#
# number of rings (size 3 to 8) (size 9 to 14) (size 15 to 20)
#    0.000    2.538    0.769    2.769    0.000    4.923 
#    0.000    3.462    0.000    2.308    0.000    0.000 
#    0.000    0.000    0.000   13.231    0.000    0.923 
#
# Total GULP energy -644252.888267 kJ/mol
# GULP energy per Si atom -12389.478621 kJ/mol
# Density = 1.808780 g / cm^3
# Si number density = 18.129062 Si / 1000 Ang^3
#
#
#
# Elastic Constant Matrix: (Units=GPa)
#
#
# Indices 1 2 3 4 5 6 
#
# 1 121.0132 49.6012 38.9166 0.0000 0.0000 0.0000
# 2 49.6012 53.1329 37.0665 0.0000 0.0000 0.0000
# 3 38.9166 37.0665 60.0563 0.0000 0.0000 0.0000
# 4 0.0000 0.0000 0.0000 11.4921 0.0000 0.0000
# 5 0.0000 0.0000 0.0000 0.0000 25.3963 0.0000
# 6 0.0000 0.0000 0.0000 0.0000 0.0000 25.6668
#
#
#
# Elastic Compliance Matrix: (Units=1/GPa)
#
#
# Indices 1 2 3 4 5 6 
#
# 1 0.013483 -0.011401 -0.001701 0.000000 0.000000 0.000000
# 2 -0.011401 0.042691 -0.018961 0.000000 0.000000 0.000000
# 3 -0.001701 -0.018961 0.029456 0.000000 0.000000 0.000000
# 4 0.000000 0.000000 0.000000 0.087016 0.000000 0.000000
# 5 0.000000 0.000000 0.000000 0.000000 0.039376 0.000000
# 6 0.000000 0.000000 0.000000 0.000000 0.000000 0.038961
#
#
# Mechanical properties :
#
#
# Convention : Reuss Voigt Hill
#
# Bulk Modulus (GPa) = 46.50035 53.93013 50.21524
# Shear Modulus (GPa) = 15.51457 19.75226 17.63342
#
# Velocity S-wave (km/s) = 2.92855 3.30439 3.12213
# Velocity P-wave (km/s) = 6.09430 6.66117 6.38403
#
# Compressibility (1/GPa) = 0.02150522
#
# Stress axis : x y z
#
# Youngs Moduli (GPa) = 74.16478 23.42394 33.94893
#
# Poissons Ratio (x) = 0.26705 0.05774
# Poissons Ratio (y) = 0.84553 0.64371
# Poissons Ratio (z) = 0.12614 0.44415
#
# Static dielectric constant tensor:
#      x y z
#    x 3.574860 0.000000 0.000000 
#    y 0.000000 3.131450 0.000000 
#    z 0.000000 0.000000 3.732950 
# 
# 
# High freq. dielectric constant tensor:
#      x y z
#    x 1.706480 0.000000 0.000000 
#    y 0.000000 1.666580 0.000000 
#    z 0.000000 0.000000 1.696110 
# 
# From -- ./inp_files/43077.got.cif
#   From: 2010.03.12/outbox.cif.g09.slc.cpg/sg65_22_cif.got.tgz:43077.got - 2010.04.10 20:52:16.
