data_PCOD8267239
_publ_section_title
;
Structure prediction by ZEFSAII (Michael W. Deem and Ramdas Pophale) SiO2 
 PCOD8267239
Probable space group: C M M M
;
_chemical_formula_sum "Si O2"
_cell_formula_units_Z 80
_cell_length_a 25.717560
_cell_length_b 18.509550
_cell_length_c 9.260192
_cell_angle_alpha 90.000000
_cell_angle_beta 90.000000
_cell_angle_gamma 90.000000
_cell_volume 4408.040881
_symmetry_space_group_name_H-M "C M M M"
_symmetry_group_IT_number 65
_symmetry_cell_setting 'orthorhombic'
loop_
_space_group_symop_operation_xyz
x,y,z
-x,-y,z
x,-y,-z
-x,y,-z
-x,-y,-z
x,y,-z
-x,y,z
x,-y,z
1/2+x,1/2+y,z
1/2-x,1/2-y,z
1/2+x,1/2-y,-z
1/2-x,1/2+y,-z
1/2-x,1/2-y,-z
1/2+x,1/2+y,-z
1/2-x,1/2+y,z
1/2+x,1/2-y,z
loop_
_atom_site_type_symbol
_atom_site_label
_atom_site_fract_x
_atom_site_fract_y
_atom_site_fract_z
Si Si1 0.940136 0.582640 0.833104
Si Si2 0.153445 0.828410 0.327953
Si Si3 0.352779 0.835250 0.671381
Si Si4 0.057476 0.918878 0.671762
Si Si5 0.251247 0.081589 0.671988
O O1 0.928911 0.500000 0.788832
O O2 0.906008 0.635251 0.736197
O O3 0.000000 0.601910 0.803183
O O4 0.926328 0.594757 0.000000
O O5 0.153753 0.831369 0.500000
O O6 0.156223 0.746287 0.273690
O O7 0.100921 0.864907 0.265297
O O8 0.203014 0.872078 0.266950
O O9 0.357610 0.838127 0.500000
O O10 0.304646 0.882998 0.727839
O O11 0.059235 0.918037 0.500000
O O12 0.000000 0.894344 0.724881
O O13 0.069407 0.000000 0.726684
O O14 0.250169 0.081792 0.500000
O O15 0.247464 0.000000 0.731794
#
# Coordination Sequence:
#
# PCOD8267239 Si02
#       5
#    16  16  16  16  16
#     4   9  19  36  54  69  89 122 160 190 220 270
#     4   9  16  25  38  59  91 126 153 183 230 280
#     4  10  19  29  45  72 100 120 146 192 242 279
#     4   8  13  21  33  50  76 114 157 192 221 263
#     4   9  16  26  41  61  88 125 164 193 222 271
#
# _framework density 18.148651999999998
#
# number of rings (size 3 to 8) (size 9 to 14) (size 15 to 20)
#    0.000    3.000    0.000    3.000    0.000    7.200 
#    0.000    3.000    0.000    2.400    0.000    0.000 
#    0.000    2.400    0.000   11.000    0.000    8.400 
#
# Total GULP energy -495891.947462 kJ/mol
# GULP energy per Si atom -12397.298687 kJ/mol
# Density = 1.810734 g / cm^3
# Si number density = 18.148652 Si / 1000 Ang^3
#
#
#
# Elastic Constant Matrix: (Units=GPa)
#
#
# Indices 1 2 3 4 5 6 
#
# 1 145.3303 92.3396 22.7671 0.0000 0.0000 0.0000
# 2 92.3396 161.1730 22.3250 0.0000 0.0000 0.0000
# 3 22.7671 22.3250 12.5013 0.0000 0.0000 0.0000
# 4 0.0000 0.0000 0.0000 9.0066 0.0000 0.0000
# 5 0.0000 0.0000 0.0000 0.0000 10.0204 0.0000
# 6 0.0000 0.0000 0.0000 0.0000 0.0000 34.1468
#
#
#
# Elastic Compliance Matrix: (Units=1/GPa)
#
#
# Indices 1 2 3 4 5 6 
#
# 1 0.012218 -0.005205 -0.012955 0.000000 0.000000 0.000000
# 2 -0.005205 0.010461 -0.009202 0.000000 0.000000 0.000000
# 3 -0.012955 -0.009202 0.120019 0.000000 0.000000 0.000000
# 4 0.000000 0.000000 0.000000 0.111030 0.000000 0.000000
# 5 0.000000 0.000000 0.000000 0.000000 0.099796 0.000000
# 6 0.000000 0.000000 0.000000 0.000000 0.000000 0.029285
#
#
# Mechanical properties :
#
#
# Convention : Reuss Voigt Hill
#
# Bulk Modulus (GPa) = 11.36716 65.98531 38.67624
# Shear Modulus (GPa) = 10.70989 22.73963 16.72476
#
# Velocity S-wave (km/s) = 2.43187 3.54356 3.03899
# Velocity P-wave (km/s) = 3.76329 7.29244 5.80267
#
# Compressibility (1/GPa) = 0.08797271
#
# Stress axis : x y z
#
# Youngs Moduli (GPa) = 81.84836 95.58911 8.33204
#
# Poissons Ratio (x) = 0.49758 0.10794
# Poissons Ratio (y) = 0.42605 0.07667
# Poissons Ratio (z) = 1.06033 0.87964
#
# Static dielectric constant tensor:
#      x y z
#    x 3.594160 0.000000 0.000000 
#    y 0.000000 3.531620 0.000000 
#    z 0.000000 0.000000 2.602100 
# 
# 
# High freq. dielectric constant tensor:
#      x y z
#    x 1.721070 0.000000 0.000000 
#    y 0.000000 1.712800 0.000000 
#    z 0.000000 0.000000 1.623020 
# 
# From -- ./inp_files/9575.got.cif
#   From: 2010.03.12/outbox.cif.g09.slc.cpg/sg65_5_cif.got.tgz:9575.got - 2010.04.10 20:52:16.
