data_PCOD8267552
_publ_section_title
;
Structure prediction by ZEFSAII (Michael W. Deem and Ramdas Pophale) SiO2 
 PCOD8267552
Probable space group: C M M M
;
_chemical_formula_sum "Si O2"
_cell_formula_units_Z 112
_cell_length_a 15.943778
_cell_length_b 27.807307
_cell_length_c 14.700225
_cell_angle_alpha 90.000000
_cell_angle_beta 90.000000
_cell_angle_gamma 90.000000
_cell_volume 6517.396639
_symmetry_space_group_name_H-M "C M M M"
_symmetry_group_IT_number 65
_symmetry_cell_setting 'orthorhombic'
loop_
_space_group_symop_operation_xyz
x,y,z
-x,-y,z
x,-y,-z
-x,y,-z
-x,-y,-z
x,y,-z
-x,y,z
x,-y,z
1/2+x,1/2+y,z
1/2-x,1/2-y,z
1/2+x,1/2-y,-z
1/2-x,1/2+y,-z
1/2-x,1/2-y,-z
1/2+x,1/2+y,-z
1/2-x,1/2+y,z
1/2+x,1/2-y,z
loop_
_atom_site_type_symbol
_atom_site_label
_atom_site_fract_x
_atom_site_fract_y
_atom_site_fract_z
Si Si1 0.767312 0.555853 0.900748
Si Si2 0.407546 0.642401 0.711099
Si Si3 0.229541 0.804476 0.395564
Si Si4 0.665812 0.105086 0.601538
Si Si5 0.158448 0.944796 0.604143
Si Si6 0.593419 0.944116 0.763606
Si Si7 0.406227 0.399570 0.102916
O O1 0.785314 0.500000 0.904402
O O2 0.834467 0.577825 0.829812
O O3 0.669442 0.563437 0.875201
O O4 0.785511 0.578811 0.000000
O O5 0.500000 0.660057 0.685494
O O6 0.345779 0.681246 0.669751
O O7 0.395584 0.588772 0.670415
O O8 0.396909 0.641877 0.821003
O O9 0.200118 0.810370 0.500000
O O10 0.250000 0.750000 0.371358
O O11 0.308489 0.839541 0.377720
O O12 0.628603 0.101188 0.500000
O O13 0.745040 0.070029 0.613124
O O14 0.595705 0.086985 0.671268
O O15 0.128193 0.937795 0.500000
O O16 0.147761 0.000000 0.635297
O O17 0.500000 0.937680 0.805915
O O18 0.610474 0.000000 0.741558
O O19 0.500000 0.423397 0.112614
O O20 0.396633 0.378652 0.000000
#
# Coordination Sequence:
#
# PCOD8267552 Si02
#       7
#    16  16  16  16  16  16  16
#     4   9  17  29  45  64  89 124 162 199 238 277
#     4  10  19  30  47  70  96 127 159 193 235 283
#     4   9  18  33  52  72  94 121 154 194 239 286
#     4   9  17  30  47  65  88 120 156 192 231 277
#     4   9  17  28  43  65  94 128 162 194 230 277
#     4  10  20  31  44  65  93 126 164 203 238 273
#     4   9  18  31  47  70  97 123 154 192 236 287
#
# _framework density 17.184775999999999
#
# number of rings (size 3 to 8) (size 9 to 14) (size 15 to 20)
#    0.000    2.714    0.000    3.429    0.000    4.857 
#    0.000    6.429    0.000    3.000    0.000    0.000 
#    0.000    2.286    0.000    0.000    0.000    0.000 
#
# Total GULP energy -693949.144737 kJ/mol
# GULP energy per Si atom -12391.949013 kJ/mol
# Density = 1.714566 g / cm^3
# Si number density = 17.184776 Si / 1000 Ang^3
#
#
#
# Elastic Constant Matrix: (Units=GPa)
#
#
# Indices 1 2 3 4 5 6 
#
# 1 98.7395 30.9517 54.0898 0.0000 0.0000 0.0000
# 2 30.9517 81.5786 38.9651 0.0000 0.0000 0.0000
# 3 54.0898 38.9651 94.6637 0.0000 0.0000 0.0000
# 4 0.0000 0.0000 0.0000 14.6132 0.0000 0.0000
# 5 0.0000 0.0000 0.0000 0.0000 23.1234 0.0000
# 6 0.0000 0.0000 0.0000 0.0000 0.0000 15.6511
#
#
#
# Elastic Compliance Matrix: (Units=1/GPa)
#
#
# Indices 1 2 3 4 5 6 
#
# 1 0.014997 -0.001988 -0.007751 0.000000 0.000000 0.000000
# 2 -0.001988 0.015521 -0.005253 0.000000 0.000000 0.000000
# 3 -0.007751 -0.005253 0.017155 0.000000 0.000000 0.000000
# 4 0.000000 0.000000 0.000000 0.068431 0.000000 0.000000
# 5 0.000000 0.000000 0.000000 0.000000 0.043246 0.000000
# 6 0.000000 0.000000 0.000000 0.000000 0.000000 0.063893
#
#
# Mechanical properties :
#
#
# Convention : Reuss Voigt Hill
#
# Bulk Modulus (GPa) = 56.53065 58.11053 57.32059
# Shear Modulus (GPa) = 19.29585 20.74255 20.01920
#
# Velocity S-wave (km/s) = 3.35452 3.47800 3.41682
# Velocity P-wave (km/s) = 6.92611 7.07228 6.99958
#
# Compressibility (1/GPa) = 0.01768952
#
# Stress axis : x y z
#
# Youngs Moduli (GPa) = 66.68164 64.42740 58.29349
#
# Poissons Ratio (x) = 0.12807 0.45181
# Poissons Ratio (y) = 0.13255 0.30622
# Poissons Ratio (z) = 0.51683 0.33844
#
# Static dielectric constant tensor:
#      x y z
#    x 3.173750 0.000000 0.000000 
#    y 0.000000 2.863310 0.000000 
#    z 0.000000 0.000000 3.478510 
# 
# 
# High freq. dielectric constant tensor:
#      x y z
#    x 1.659310 0.000000 0.000000 
#    y 0.000000 1.613990 0.000000 
#    z 0.000000 0.000000 1.673470 
# 
# From -- ./inp_files/41381.got.cif
#   From: 2010.03.12/outbox.cif.g09.slc.cpg/sg65_21_cif.got.tgz:41381.got - 2010.04.10 20:52:16.
