data_PCOD8267202
_publ_section_title
;
Structure prediction by ZEFSAII (Michael W. Deem and Ramdas Pophale) SiO2 
 PCOD8267202
Probable space group: C M M M
;
_chemical_formula_sum "Si O2"
_cell_formula_units_Z 112
_cell_length_a 28.709704
_cell_length_b 14.722573
_cell_length_c 14.736970
_cell_angle_alpha 90.000000
_cell_angle_beta 90.000000
_cell_angle_gamma 90.000000
_cell_volume 6229.032986
_symmetry_space_group_name_H-M "C M M M"
_symmetry_group_IT_number 65
_symmetry_cell_setting 'orthorhombic'
loop_
_space_group_symop_operation_xyz
x,y,z
-x,-y,z
x,-y,-z
-x,y,-z
-x,-y,-z
x,y,-z
-x,y,z
x,-y,z
1/2+x,1/2+y,z
1/2-x,1/2-y,z
1/2+x,1/2-y,-z
1/2-x,1/2+y,-z
1/2-x,1/2-y,-z
1/2+x,1/2+y,-z
1/2-x,1/2+y,z
1/2+x,1/2-y,z
loop_
_atom_site_type_symbol
_atom_site_label
_atom_site_fract_x
_atom_site_fract_y
_atom_site_fract_z
Si Si1 0.355350 0.103178 0.396166
Si Si2 0.731672 0.650419 0.901883
Si Si3 0.819227 0.099285 0.600841
Si Si4 0.371444 0.606283 0.897770
Si Si5 0.764622 0.645193 0.715962
Si Si6 0.447519 0.395332 0.247478
Si Si7 0.095922 0.781839 0.394882
O O1 0.337184 0.115341 0.500000
O O2 0.314979 0.126914 0.325339
O O3 0.398328 0.173090 0.379660
O O4 0.373024 0.000000 0.380216
O O5 0.750000 0.750000 0.917833
O O6 0.677226 0.654750 0.872597
O O7 0.761675 0.606519 0.819635
O O8 0.736543 0.598285 0.000000
O O9 0.804274 0.128494 0.500000
O O10 0.772684 0.090941 0.658160
O O11 0.855801 0.172105 0.638371
O O12 0.843319 0.000000 0.602095
O O13 0.362547 0.500000 0.887083
O O14 0.412312 0.638708 0.830624
O O15 0.387070 0.631281 0.000000
O O16 0.750000 0.750000 0.714753
O O17 0.500000 0.387232 0.209700
O O18 0.437051 0.500000 0.275756
O O19 0.443933 0.327159 0.333522
O O20 0.084952 0.804280 0.500000
#
# Coordination Sequence:
#
# PCOD8267202 Si02
#       7
#    16  16  16  16  16  16  16
#     4  10  21  35  50  70  98 134 177 223 266 306
#     4   9  19  32  46  69 100 136 176 211 246 298
#     4  10  19  29  44  68  97 130 167 206 250 304
#     4   9  18  33  53  75 103 140 176 211 252 301
#     4  11  19  28  46  68  96 135 173 216 263 297
#     4  10  21  35  54  82 110 135 168 211 261 319
#     4  10  20  34  51  70  99 135 171 209 255 311
#
# _framework density 17.980319999999999
#
# number of rings (size 3 to 8) (size 9 to 14) (size 15 to 20)
#    0.000    2.143    1.429    2.143    2.000    5.429 
#    0.000    2.143    0.000    0.429    0.000    2.000 
#    0.000    0.000    0.000    1.286    0.000    0.143 
#
# Total GULP energy -693970.352344 kJ/mol
# GULP energy per Si atom -12392.327720 kJ/mol
# Density = 1.793940 g / cm^3
# Si number density = 17.980320 Si / 1000 Ang^3
#
#
#
# Elastic Constant Matrix: (Units=GPa)
#
#
# Indices 1 2 3 4 5 6 
#
# 1 70.8354 25.0943 44.4696 0.0000 0.0000 0.0000
# 2 25.0943 84.9824 25.6326 0.0000 0.0000 0.0000
# 3 44.4696 25.6326 108.0488 0.0000 0.0000 0.0000
# 4 0.0000 0.0000 0.0000 8.4583 0.0000 0.0000
# 5 0.0000 0.0000 0.0000 0.0000 20.7644 0.0000
# 6 0.0000 0.0000 0.0000 0.0000 0.0000 22.5263
#
#
#
# Elastic Compliance Matrix: (Units=1/GPa)
#
#
# Indices 1 2 3 4 5 6 
#
# 1 0.020059 -0.003698 -0.007379 0.000000 0.000000 0.000000
# 2 -0.003698 0.013356 -0.001647 0.000000 0.000000 0.000000
# 3 -0.007379 -0.001647 0.012682 0.000000 0.000000 0.000000
# 4 0.000000 0.000000 0.000000 0.118227 0.000000 0.000000
# 5 0.000000 0.000000 0.000000 0.000000 0.048159 0.000000
# 6 0.000000 0.000000 0.000000 0.000000 0.000000 0.044393
#
#
# Mechanical properties :
#
#
# Convention : Reuss Voigt Hill
#
# Bulk Modulus (GPa) = 48.42189 50.47331 49.44760
# Shear Modulus (GPa) = 17.28872 21.59447 19.44159
#
# Velocity S-wave (km/s) = 3.10423 3.46931 3.29184
# Velocity P-wave (km/s) = 6.31168 6.64684 6.48143
#
# Compressibility (1/GPa) = 0.02065181
#
# Stress axis : x y z
#
# Youngs Moduli (GPa) = 49.85193 74.87460 78.84885
#
# Poissons Ratio (x) = 0.27687 0.58180
# Poissons Ratio (y) = 0.18434 0.12983
# Poissons Ratio (z) = 0.36784 0.12328
#
# Static dielectric constant tensor:
#      x y z
#    x 3.031840 0.000000 0.000000 
#    y 0.000000 3.475540 0.000000 
#    z 0.000000 0.000000 3.768700 
# 
# 
# High freq. dielectric constant tensor:
#      x y z
#    x 1.657450 0.000000 0.000000 
#    y 0.000000 1.684700 0.000000 
#    z 0.000000 0.000000 1.706940 
# 
# From -- ./inp_files/41127.got.cif
#   From: 2010.03.12/outbox.cif.g09.slc.cpg/sg65_21_cif.got.tgz:41127.got - 2010.04.10 20:52:16.
