data_PCOD8267470
_publ_section_title
;
Structure prediction by ZEFSAII (Michael W. Deem and Ramdas Pophale) SiO2 
 PCOD8267470
Probable space group: C M M M
;
_chemical_formula_sum "Si O2"
_cell_formula_units_Z 120
_cell_length_a 28.940610
_cell_length_b 9.236081
_cell_length_c 25.262530
_cell_angle_alpha 90.000000
_cell_angle_beta 90.000000
_cell_angle_gamma 90.000000
_cell_volume 6752.619150
_symmetry_space_group_name_H-M "C M M M"
_symmetry_group_IT_number 65
_symmetry_cell_setting 'orthorhombic'
loop_
_space_group_symop_operation_xyz
x,y,z
-x,-y,z
x,-y,-z
-x,y,-z
-x,-y,-z
x,y,-z
-x,y,z
x,-y,z
1/2+x,1/2+y,z
1/2-x,1/2-y,z
1/2+x,1/2-y,-z
1/2-x,1/2+y,-z
1/2-x,1/2-y,-z
1/2+x,1/2+y,-z
1/2-x,1/2+y,z
1/2+x,1/2-y,z
loop_
_atom_site_type_symbol
_atom_site_label
_atom_site_fract_x
_atom_site_fract_y
_atom_site_fract_z
Si Si1 0.796765 0.170800 0.241695
Si Si2 0.393613 0.329989 0.593782
Si Si3 0.644718 0.167567 0.157359
Si Si4 0.552940 0.334756 0.302578
Si Si5 0.554215 0.827778 0.500000
Si Si6 0.296145 0.168993 0.059315
Si Si7 0.949577 0.333351 0.801242
Si Si8 0.704138 0.332166 0.363413
O O1 0.750000 0.250000 0.224283
O O2 0.836624 0.232717 0.204399
O O3 0.808652 0.207602 0.302746
O O4 0.791575 0.000000 0.232383
O O5 0.401313 0.500000 0.581517
O O6 0.415842 0.283907 0.649096
O O7 0.419034 0.235131 0.550206
O O8 0.338939 0.293151 0.598221
O O9 0.663984 0.214714 0.100207
O O10 0.589279 0.192163 0.154045
O O11 0.656740 0.000000 0.169766
O O12 0.500000 0.310146 0.318986
O O13 0.563405 0.500000 0.288145
O O14 0.567094 0.244033 0.251804
O O15 0.500000 0.781096 0.500000
O O16 0.558548 0.000000 0.500000
O O17 0.250000 0.250000 0.076889
O O18 0.285425 0.000000 0.062020
O O19 0.311574 0.214841 0.000000
O O20 0.953517 0.500000 0.786352
O O21 0.000000 0.275109 0.820617
O O22 0.715956 0.500000 0.367398
O O23 0.750000 0.250000 0.383056
#
# Coordination Sequence:
#
# PCOD8267470 Si02
#       8
#    16  16  16  16   8  16  16  16
#     4  10  19  31  48  73 105 134 160 194 237 285
#     4  10  20  36  57  77  98 129 167 201 237 283
#     4  10  19  30  46  68  94 127 165 201 241 289
#     4   9  17  30  50  75 100 126 159 199 241 287
#     4  11  25  41  56  79 106 127 154 197 246 291
#     4   9  18  32  48  66  90 120 155 197 242 287
#     4   9  18  31  46  67  97 130 161 196 240 288
#     4   9  19  34  52  75 102 132 165 199 235 280
#
# _framework density 17.770882
#
# number of rings (size 3 to 8) (size 9 to 14) (size 15 to 20)
#    0.000    2.467    0.000    2.200    0.000    5.867 
#    0.000    1.667    0.000    0.400    0.000    2.800 
#    0.000    0.000    0.000    7.867    0.000    8.267 
#
# Total GULP energy -743851.350569 kJ/mol
# GULP energy per Si atom -12397.522509 kJ/mol
# Density = 1.773043 g / cm^3
# Si number density = 17.770882 Si / 1000 Ang^3
#
#
#
# Elastic Constant Matrix: (Units=GPa)
#
#
# Indices 1 2 3 4 5 6 
#
# 1 139.2815 51.1663 82.2310 0.0000 0.0000 0.0000
# 2 51.1663 55.2688 40.4047 0.0000 0.0000 0.0000
# 3 82.2310 40.4047 86.3391 0.0000 0.0000 0.0000
# 4 0.0000 0.0000 0.0000 40.1990 0.0000 0.0000
# 5 0.0000 0.0000 0.0000 0.0000 29.3372 0.0000
# 6 0.0000 0.0000 0.0000 0.0000 0.0000 26.1562
#
#
#
# Elastic Compliance Matrix: (Units=1/GPa)
#
#
# Indices 1 2 3 4 5 6 
#
# 1 0.017687 -0.006170 -0.013958 0.000000 0.000000 0.000000
# 2 -0.006170 0.029655 -0.008001 0.000000 0.000000 0.000000
# 3 -0.013958 -0.008001 0.028621 0.000000 0.000000 0.000000
# 4 0.000000 0.000000 0.000000 0.024876 0.000000 0.000000
# 5 0.000000 0.000000 0.000000 0.000000 0.034086 0.000000
# 6 0.000000 0.000000 0.000000 0.000000 0.000000 0.038232
#
#
# Mechanical properties :
#
#
# Convention : Reuss Voigt Hill
#
# Bulk Modulus (GPa) = 50.75199 69.83258 60.29229
# Shear Modulus (GPa) = 21.18789 26.27765 23.73277
#
# Velocity S-wave (km/s) = 3.45669 3.84955 3.65840
# Velocity P-wave (km/s) = 6.67478 7.69026 7.20044
#
# Compressibility (1/GPa) = 0.01970366
#
# Stress axis : x y z
#
# Youngs Moduli (GPa) = 56.53840 33.72131 34.93983
#
# Poissons Ratio (x) = 0.20806 0.48769
# Poissons Ratio (y) = 0.34884 0.27957
# Poissons Ratio (z) = 0.78917 0.26982
#
# Static dielectric constant tensor:
#      x y z
#    x 3.535520 0.000000 0.000000 
#    y 0.000000 3.272100 0.000000 
#    z 0.000000 0.000000 3.357410 
# 
# 
# High freq. dielectric constant tensor:
#      x y z
#    x 1.696520 0.000000 0.000000 
#    y 0.000000 1.684170 0.000000 
#    z 0.000000 0.000000 1.665690 
# 
# From -- ./inp_files/76166.got.cif
#   From: 2010.03.12/outbox.cif.g09.slc.cpg/sg65_39_cif.got.tgz:76166.got - 2010.04.10 20:52:16.
