data_PCOD8267674
_publ_section_title
;
Structure prediction by ZEFSAII (Michael W. Deem and Ramdas Pophale) SiO2 
 PCOD8267674
Probable space group: C M M M
;
_chemical_formula_sum "Si O2"
_cell_formula_units_Z 104
_cell_length_a 35.974496
_cell_length_b 8.902715
_cell_length_c 24.621526
_cell_angle_alpha 90.000000
_cell_angle_beta 90.000000
_cell_angle_gamma 90.000000
_cell_volume 7885.553002
_symmetry_space_group_name_H-M "C M M M"
_symmetry_group_IT_number 65
_symmetry_cell_setting 'orthorhombic'
loop_
_space_group_symop_operation_xyz
x,y,z
-x,-y,z
x,-y,-z
-x,y,-z
-x,-y,-z
x,y,-z
-x,y,z
x,-y,z
1/2+x,1/2+y,z
1/2-x,1/2-y,z
1/2+x,1/2-y,-z
1/2-x,1/2+y,-z
1/2-x,1/2-y,-z
1/2+x,1/2+y,-z
1/2-x,1/2+y,z
1/2+x,1/2-y,z
loop_
_atom_site_type_symbol
_atom_site_label
_atom_site_fract_x
_atom_site_fract_y
_atom_site_fract_z
Si Si1 0.955800 0.331036 0.940473
Si Si2 0.213381 0.830828 0.435531
Si Si3 0.069019 0.822198 0.620416
Si Si4 0.500000 0.170440 0.564238
Si Si5 0.543636 0.825890 0.273400
Si Si6 0.637786 0.174832 0.436275
Si Si7 0.955806 0.832676 0.835445
O O1 0.940911 0.500000 0.932807
O O2 0.939035 0.229976 0.892079
O O3 0.000000 0.331250 0.936956
O O4 0.943404 0.269114 0.000000
O O5 0.215990 0.836926 0.500000
O O6 0.250000 0.750000 0.411568
O O7 0.177923 0.733836 0.417379
O O8 0.210538 0.000000 0.412097
O O9 0.036490 0.752569 0.584585
O O10 0.066179 0.768132 0.682327
O O11 0.107969 0.770024 0.596510
O O12 0.065952 0.000000 0.617969
O O13 0.500000 0.171665 0.500000
O O14 0.500000 0.000000 0.586876
O O15 0.500000 0.795273 0.282145
O O16 0.557086 0.771554 0.214281
O O17 0.553363 0.000000 0.279384
O O18 0.631444 0.202270 0.500000
O O19 0.634211 0.000000 0.421598
O O20 0.000000 0.833771 0.838723
O O21 0.940247 0.000000 0.826463
#
# Coordination Sequence:
#
# PCOD8267674 Si02
#       7
#    16  16  16   8  16  16  16
#     4   8  13  21  32  46  65  88 112 136 168 214
#     4   9  16  27  44  65  86 105 124 145 173 213
#     4  12  23  33  46  61  77  95 121 158 195 230
#     4  11  23  37  49  59  73  95 122 151 188 235
#     4  10  19  31  45  55  68  91 121 153 188 229
#     4  10  20  33  47  62  81 103 125 150 183 226
#     4   9  16  24  35  51  69  86 110 144 181 218
#
# _framework density 13.188675
#
# number of rings (size 3 to 8) (size 9 to 14) (size 15 to 20)
#    0.000    2.231    0.769    4.385    0.000    8.000 
#    0.000    1.538    0.000    0.000    0.000    0.000 
#    0.000    0.000    0.000    0.000    0.000    0.000 
#
# Total GULP energy -644739.964535 kJ/mol
# GULP energy per Si atom -12398.845472 kJ/mol
# Density = 1.315866 g / cm^3
# Si number density = 13.188675 Si / 1000 Ang^3
#
#
#
# Elastic Constant Matrix: (Units=GPa)
#
#
# Indices 1 2 3 4 5 6 
#
# 1 58.5547 32.8838 28.3985 0.0000 0.0000 0.0000
# 2 32.8838 111.3083 46.0018 0.0000 0.0000 0.0000
# 3 28.3985 46.0018 76.3371 0.0000 0.0000 0.0000
# 4 0.0000 0.0000 0.0000 20.3198 0.0000 0.0000
# 5 0.0000 0.0000 0.0000 0.0000 3.0974 0.0000
# 6 0.0000 0.0000 0.0000 0.0000 0.0000 17.7742
#
#
#
# Elastic Compliance Matrix: (Units=1/GPa)
#
#
# Indices 1 2 3 4 5 6 
#
# 1 0.022215 -0.004191 -0.005739 0.000000 0.000000 0.000000
# 2 -0.004191 0.012754 -0.006127 0.000000 0.000000 0.000000
# 3 -0.005739 -0.006127 0.018927 0.000000 0.000000 0.000000
# 4 0.000000 0.000000 0.000000 0.049213 0.000000 0.000000
# 5 0.000000 0.000000 0.000000 0.000000 0.322851 0.000000
# 6 0.000000 0.000000 0.000000 0.000000 0.000000 0.056261
#
#
# Mechanical properties :
#
#
# Convention : Reuss Voigt Hill
#
# Bulk Modulus (GPa) = 45.90770 51.19646 48.55208
# Shear Modulus (GPa) = 9.58596 17.49934 13.54265
#
# Velocity S-wave (km/s) = 2.69891 3.64654 3.20791
# Velocity P-wave (km/s) = 6.67803 7.52545 7.11437
#
# Compressibility (1/GPa) = 0.02178284
#
# Stress axis : x y z
#
# Youngs Moduli (GPa) = 45.01457 78.40456 52.83549
#
# Poissons Ratio (x) = 0.32862 0.30320
# Poissons Ratio (y) = 0.18867 0.32371
# Poissons Ratio (z) = 0.25832 0.48036
#
# Static dielectric constant tensor:
#      x y z
#    x 2.531050 0.000000 0.000000 
#    y 0.000000 2.867010 0.000000 
#    z 0.000000 0.000000 2.685610 
# 
# 
# High freq. dielectric constant tensor:
#      x y z
#    x 1.448610 0.000000 0.000000 
#    y 0.000000 1.522750 0.000000 
#    z 0.000000 0.000000 1.487300 
# 
# From -- ./inp_files/72146.got.cif
#   From: 2010.03.12/outbox.cif.g09.slc.cpg/sg65_37_cif.got.tgz:72146.got - 2010.04.10 20:52:16.
