data_PCOD8267730
_publ_section_title
;
Structure prediction by ZEFSAII (Michael W. Deem and Ramdas Pophale) SiO2 
 PCOD8267730
Probable space group: C M M M
;
_chemical_formula_sum "Si O2"
_cell_formula_units_Z 104
_cell_length_a 9.024869
_cell_length_b 27.176580
_cell_length_c 26.378175
_cell_angle_alpha 90.000000
_cell_angle_beta 90.000000
_cell_angle_gamma 90.000000
_cell_volume 6469.645053
_symmetry_space_group_name_H-M "C M M M"
_symmetry_group_IT_number 65
_symmetry_cell_setting 'orthorhombic'
loop_
_space_group_symop_operation_xyz
x,y,z
-x,-y,z
x,-y,-z
-x,y,-z
-x,-y,-z
x,y,-z
-x,y,z
x,-y,z
1/2+x,1/2+y,z
1/2-x,1/2-y,z
1/2+x,1/2-y,-z
1/2-x,1/2+y,-z
1/2-x,1/2-y,-z
1/2+x,1/2+y,-z
1/2-x,1/2+y,z
1/2+x,1/2-y,z
loop_
_atom_site_type_symbol
_atom_site_label
_atom_site_fract_x
_atom_site_fract_y
_atom_site_fract_z
Si Si1 0.824896 0.850202 0.353128
Si Si2 0.170868 0.054593 0.294664
Si Si3 0.827072 0.602078 0.796069
Si Si4 0.327620 0.801438 0.558212
Si Si5 0.173737 0.556786 0.100189
Si Si6 0.175368 0.299846 0.739964
Si Si7 0.833011 0.941509 0.000000
O O1 0.785894 0.906221 0.337884
O O2 0.752215 0.842755 0.408082
O O3 0.749472 0.812854 0.313716
O O4 0.000000 0.840104 0.354803
O O5 0.256832 0.063936 0.242916
O O6 0.000000 0.060166 0.280693
O O7 0.208907 0.000000 0.315100
O O8 0.770088 0.589600 0.852482
O O9 0.787114 0.658145 0.781335
O O10 0.000000 0.592437 0.792916
O O11 0.305005 0.816926 0.500000
O O12 0.500000 0.797092 0.572265
O O13 0.250000 0.750000 0.570211
O O14 0.216972 0.500000 0.110321
O O15 0.000000 0.562259 0.091206
O O16 0.253132 0.578426 0.050403
O O17 0.250000 0.250000 0.760559
O O18 0.000000 0.293252 0.732506
O O19 0.000000 0.921885 0.000000
O O20 0.824133 0.000000 0.000000
#
# Coordination Sequence:
#
# PCOD8267730 Si02
#       7
#    16  16  16  16  16  16   8
#     4  10  19  31  48  68  91 119 149 180 216 259
#     4   9  18  31  46  66  92 120 149 181 217 257
#     4   9  18  30  45  66  89 116 150 184 218 259
#     4  10  20  33  49  69  92 116 144 180 222 266
#     4   9  16  27  43  62  86 115 145 177 214 256
#     4  10  19  31  46  65  91 119 148 181 218 261
#     4   9  17  27  39  59  86 115 146 177 212 255
#
# _framework density 16.075071000000001
#
# number of rings (size 3 to 8) (size 9 to 14) (size 15 to 20)
#    0.000    2.538    0.000    2.538    0.000    4.615 
#    0.000    1.538    0.000    0.462    0.000    3.769 
#    0.000    0.000    0.000    0.000    0.000    0.000 
#
# Total GULP energy -644811.279863 kJ/mol
# GULP energy per Si atom -12400.216920 kJ/mol
# Density = 1.603848 g / cm^3
# Si number density = 16.075071 Si / 1000 Ang^3
#
#
#
# Elastic Constant Matrix: (Units=GPa)
#
#
# Indices 1 2 3 4 5 6 
#
# 1 75.5627 41.3516 55.7624 0.0000 0.0000 0.0000
# 2 41.3516 91.6909 58.1560 0.0000 0.0000 0.0000
# 3 55.7624 58.1560 128.3355 0.0000 0.0000 0.0000
# 4 0.0000 0.0000 0.0000 22.8677 0.0000 0.0000
# 5 0.0000 0.0000 0.0000 0.0000 22.6731 0.0000
# 6 0.0000 0.0000 0.0000 0.0000 0.0000 20.2156
#
#
#
# Elastic Compliance Matrix: (Units=1/GPa)
#
#
# Indices 1 2 3 4 5 6 
#
# 1 0.021108 -0.005196 -0.006817 0.000000 0.000000 0.000000
# 2 -0.005196 0.016584 -0.005258 0.000000 0.000000 0.000000
# 3 -0.006817 -0.005258 0.013137 0.000000 0.000000 0.000000
# 4 0.000000 0.000000 0.000000 0.043730 0.000000 0.000000
# 5 0.000000 0.000000 0.000000 0.000000 0.044105 0.000000
# 6 0.000000 0.000000 0.000000 0.000000 0.000000 0.049467
#
#
# Mechanical properties :
#
#
# Convention : Reuss Voigt Hill
#
# Bulk Modulus (GPa) = 61.39483 67.34769 64.37126
# Shear Modulus (GPa) = 21.92011 22.50588 22.21300
#
# Velocity S-wave (km/s) = 3.69671 3.74578 3.72133
# Velocity P-wave (km/s) = 7.51641 7.79067 7.65477
#
# Compressibility (1/GPa) = 0.01628802
#
# Stress axis : x y z
#
# Youngs Moduli (GPa) = 47.37496 60.29865 76.12272
#
# Poissons Ratio (x) = 0.31329 0.51894
# Poissons Ratio (y) = 0.24615 0.40022
# Poissons Ratio (z) = 0.32296 0.31703
#
# Static dielectric constant tensor:
#      x y z
#    x 3.126240 0.000000 0.000000 
#    y 0.000000 3.035920 0.000000 
#    z 0.000000 0.000000 3.088160 
# 
# 
# High freq. dielectric constant tensor:
#      x y z
#    x 1.628870 0.000000 0.000000 
#    y 0.000000 1.596390 0.000000 
#    z 0.000000 0.000000 1.610350 
# 
# From -- ./inp_files/68235.got.cif
#   From: 2010.03.12/outbox.cif.g09.slc.cpg/sg65_35_cif.got.tgz:68235.got - 2010.04.10 20:52:16.
