data_PCOD8267097
_publ_section_title
;
Structure prediction by ZEFSAII (Michael W. Deem and Ramdas Pophale) SiO2 
 PCOD8267097
Probable space group: C M M M
;
_chemical_formula_sum "Si O2"
_cell_formula_units_Z 112
_cell_length_a 31.883414
_cell_length_b 32.070477
_cell_length_c 8.964185
_cell_angle_alpha 90.000000
_cell_angle_beta 90.000000
_cell_angle_gamma 90.000000
_cell_volume 9166.025237
_symmetry_space_group_name_H-M "C M M M"
_symmetry_group_IT_number 65
_symmetry_cell_setting 'orthorhombic'
loop_
_space_group_symop_operation_xyz
x,y,z
-x,-y,z
x,-y,-z
-x,y,-z
-x,-y,-z
x,y,-z
-x,y,z
x,-y,z
1/2+x,1/2+y,z
1/2-x,1/2-y,z
1/2+x,1/2-y,-z
1/2-x,1/2+y,-z
1/2-x,1/2-y,-z
1/2+x,1/2+y,-z
1/2-x,1/2+y,z
1/2+x,1/2-y,z
loop_
_atom_site_type_symbol
_atom_site_label
_atom_site_fract_x
_atom_site_fract_y
_atom_site_fract_z
Si Si1 0.415650 0.500000 0.823333
Si Si2 0.253896 0.345783 0.831765
Si Si3 0.300950 0.584383 0.675636
Si Si4 0.118085 0.862066 0.324945
Si Si5 0.662918 0.291091 0.167790
Si Si6 0.951468 0.913284 0.174360
Si Si7 0.208227 0.722574 0.668486
Si Si8 0.179881 0.000000 0.177493
O O1 0.439290 0.540993 0.762949
O O2 0.368054 0.500000 0.765367
O O3 0.417298 0.500000 0.000000
O O4 0.263136 0.387117 0.736157
O O5 0.294459 0.316898 0.832740
O O6 0.215767 0.320697 0.755675
O O7 0.241155 0.358126 0.000000
O O8 0.295680 0.578485 0.500000
O O9 0.345585 0.605012 0.716982
O O10 0.297065 0.540340 0.757680
O O11 0.115008 0.855329 0.500000
O O12 0.127135 0.817267 0.251695
O O13 0.074201 0.878395 0.262238
O O14 0.670447 0.247460 0.252266
O O15 0.647891 0.281669 0.000000
O O16 0.000000 0.905020 0.205828
O O17 0.940454 0.909986 0.000000
O O18 0.194697 0.712245 0.500000
O O19 0.250000 0.750000 0.669816
O O20 0.182888 0.000000 0.000000
#
# Coordination Sequence:
#
# PCOD8267097 Si02
#       8
#     8  16  16  16  16  16  16   8
#     4   9  17  29  44  57  67  79 103 137 173 213
#     4   9  16  25  37  52  69  89 112 133 155 187
#     4  10  19  29  39  52  69  88 109 136 170 204
#     4  10  19  29  40  53  70  87 106 132 166 205
#     4   9  16  25  38  53  69  88 110 131 153 186
#     4  10  19  31  45  57  68  84 107 136 172 215
#     4   9  15  23  35  52  73  92 108 127 154 185
#     4  11  19  28  43  55  66  86 112 141 173 211
#
# _framework density 12.219037
#
# number of rings (size 3 to 8) (size 9 to 14) (size 15 to 20)
#    0.000    2.429    1.429    2.571    0.000    7.429 
#    0.000    0.357    0.000    0.857    0.000    0.000 
#    0.000    0.000    0.000    0.000    0.000    0.000 
#
# Total GULP energy -694430.109363 kJ/mol
# GULP energy per Si atom -12400.537667 kJ/mol
# Density = 1.219123 g / cm^3
# Si number density = 12.219037 Si / 1000 Ang^3
#
#
#
# Elastic Constant Matrix: (Units=GPa)
#
#
# Indices 1 2 3 4 5 6 
#
# 1 36.6497 41.4137 27.4111 0.0000 0.0000 0.0000
# 2 41.4137 74.8925 44.0109 0.0000 0.0000 0.0000
# 3 27.4111 44.0109 83.3391 0.0000 0.0000 0.0000
# 4 0.0000 0.0000 0.0000 21.3047 0.0000 0.0000
# 5 0.0000 0.0000 0.0000 0.0000 14.3776 0.0000
# 6 0.0000 0.0000 0.0000 0.0000 0.0000 16.8054
#
#
#
# Elastic Compliance Matrix: (Units=1/GPa)
#
#
# Indices 1 2 3 4 5 6 
#
# 1 0.073613 -0.038392 -0.003937 0.000000 0.000000 0.000000
# 2 -0.038392 0.039384 -0.008171 0.000000 0.000000 0.000000
# 3 -0.003937 -0.008171 0.017609 0.000000 0.000000 0.000000
# 4 0.000000 0.000000 0.000000 0.046938 0.000000 0.000000
# 5 0.000000 0.000000 0.000000 0.000000 0.069553 0.000000
# 6 0.000000 0.000000 0.000000 0.000000 0.000000 0.059505
#
#
# Mechanical properties :
#
#
# Convention : Reuss Voigt Hill
#
# Bulk Modulus (GPa) = 33.77788 46.72809 40.25298
# Shear Modulus (GPa) = 11.97689 15.96727 13.97208
#
# Velocity S-wave (km/s) = 3.13418 3.61883 3.38519
# Velocity P-wave (km/s) = 6.38758 7.46902 6.94937
#
# Compressibility (1/GPa) = 0.02960517
#
# Stress axis : x y z
#
# Youngs Moduli (GPa) = 13.58458 25.39100 56.78861
#
# Poissons Ratio (x) = 0.97482 0.22360
# Poissons Ratio (y) = 0.52154 0.46401
# Poissons Ratio (z) = 0.05349 0.20747
#
# Static dielectric constant tensor:
#      x y z
#    x 2.179100 0.000000 0.000000 
#    y 0.000000 2.488080 0.000000 
#    z 0.000000 0.000000 2.612380 
# 
# 
# High freq. dielectric constant tensor:
#      x y z
#    x 1.406880 0.000000 0.000000 
#    y 0.000000 1.449210 0.000000 
#    z 0.000000 0.000000 1.478400 
# 
# From -- ./inp_files/19227.got.cif
#   From: 2010.03.12/outbox.cif.g09.slc.cpg/sg65_10_cif.got.tgz:19227.got - 2010.04.10 20:52:16.
