data_PCOD8267008
_publ_section_title
;
Structure prediction by ZEFSAII (Michael W. Deem and Ramdas Pophale) SiO2 
 PCOD8267008
Probable space group: C M M M
;
_chemical_formula_sum "Si O2"
_cell_formula_units_Z 72
_cell_length_a 18.925696
_cell_length_b 23.453964
_cell_length_c 7.889456
_cell_angle_alpha 90.000000
_cell_angle_beta 90.000000
_cell_angle_gamma 90.000000
_cell_volume 3501.992184
_symmetry_space_group_name_H-M "C M M M"
_symmetry_group_IT_number 65
_symmetry_cell_setting 'orthorhombic'
loop_
_space_group_symop_operation_xyz
x,y,z
-x,-y,z
x,-y,-z
-x,y,-z
-x,-y,-z
x,y,-z
-x,y,z
x,-y,z
1/2+x,1/2+y,z
1/2-x,1/2-y,z
1/2+x,1/2-y,-z
1/2-x,1/2+y,-z
1/2-x,1/2-y,-z
1/2+x,1/2+y,-z
1/2-x,1/2+y,z
1/2+x,1/2-y,z
loop_
_atom_site_type_symbol
_atom_site_label
_atom_site_fract_x
_atom_site_fract_y
_atom_site_fract_z
Si Si1 0.077133 0.933625 0.500000
Si Si2 0.668884 0.736261 0.697329
Si Si3 0.162416 0.887532 0.187613
Si Si4 0.691109 0.065573 0.700124
Si Si5 0.579166 0.156625 0.700944
O O1 0.117600 0.918614 0.329478
O O2 0.000000 0.903641 0.500000
O O3 0.067222 0.000000 0.500000
O O4 0.654198 0.724418 0.500000
O O5 0.750000 0.750000 0.729356
O O6 0.649953 0.679904 0.800188
O O7 0.620670 0.787719 0.768102
O O8 0.244145 0.903897 0.208242
O O9 0.137646 0.906922 0.000000
O O10 0.704086 0.070310 0.500000
O O11 0.620302 0.099163 0.755600
O O12 0.683608 0.000000 0.757942
O O13 0.575870 0.159880 0.500000
O O14 0.500000 0.154943 0.778030
#
# Coordination Sequence:
#
# PCOD8267008 Si02
#       5
#     8  16  16  16  16
#     4  11  26  48  69  92 129 167 203 260 324 378
#     4  10  18  35  61  88 123 169 210 262 321 375
#     4  12  24  40  67  97 126 162 211 263 316 383
#     4  10  19  35  60  88 124 166 208 259 314 370
#     4   9  18  32  55  89 126 167 213 260 313 374
#
# _framework density 20.559726000000001
#
# number of rings (size 3 to 8) (size 9 to 14) (size 15 to 20)
#    0.000    1.667    4.444    0.667    0.000    4.000 
#    0.000    3.333    0.000    2.000    0.000    1.556 
#    0.000    0.000    0.000    0.000    0.000    0.000 
#
# Total GULP energy -446391.971935 kJ/mol
# GULP energy per Si atom -12399.776998 kJ/mol
# Density = 2.051293 g / cm^3
# Si number density = 20.559726 Si / 1000 Ang^3
#
#
#
# Elastic Constant Matrix: (Units=GPa)
#
#
# Indices 1 2 3 4 5 6 
#
# 1 151.9516 60.0477 37.9199 0.0000 0.0000 0.0000
# 2 60.0477 142.8500 15.1447 0.0000 0.0000 0.0000
# 3 37.9199 15.1447 74.6413 0.0000 0.0000 0.0000
# 4 0.0000 0.0000 0.0000 -0.1307 0.0000 0.0000
# 5 0.0000 0.0000 0.0000 0.0000 -2.3862 0.0000
# 6 0.0000 0.0000 0.0000 0.0000 0.0000 43.9233
#
#
#
# Elastic Compliance Matrix: (Units=1/GPa)
#
#
# Indices 1 2 3 4 5 6 
#
# 1 0.008843 -0.003312 -0.003821 0.000000 0.000000 0.000000
# 2 -0.003312 0.008395 -0.000021 0.000000 0.000000 0.000000
# 3 -0.003821 -0.000021 0.015343 0.000000 0.000000 0.000000
# 4 0.000000 0.000000 0.000000 -7.650310 0.000000 0.000000
# 5 0.000000 0.000000 0.000000 0.000000 -0.419076 0.000000
# 6 0.000000 0.000000 0.000000 0.000000 0.000000 0.022767
#
#
# Mechanical properties :
#
#
# Convention : Reuss Voigt Hill
#
# Bulk Modulus (GPa) = 54.72309 66.18528 60.45419
# Shear Modulus (GPa) = -0.62550 25.36998 12.37224
#
# Velocity S-wave (km/s) = -0.55217 3.51659 2.45576
# Velocity P-wave (km/s) = 5.12522 6.98213 6.12446
#
# Compressibility (1/GPa) = 0.01827382
#
# Stress axis : x y z
#
# Youngs Moduli (GPa) = 113.07810 119.12013 65.17814
#
# Poissons Ratio (x) = 0.39457 0.24902
# Poissons Ratio (y) = 0.37455 0.00134
# Poissons Ratio (z) = 0.43203 0.00245
#
# Static dielectric constant tensor:
#      x y z
#    x 4.017810 0.000000 0.000000 
#    y 0.000000 3.966390 0.000000 
#    z 0.000000 0.000000 3.540690 
# 
# 
# High freq. dielectric constant tensor:
#      x y z
#    x 1.799690 0.000000 0.000000 
#    y 0.000000 1.814690 0.000000 
#    z 0.000000 0.000000 1.779220 
# 
# From -- ./inp_files/9272.got.cif
#   From: 2010.03.12/outbox.cif.g09.slc.cpg/sg65_5_cif.got.tgz:9272.got - 2010.04.10 20:52:16.
