data_PCOD8267949
_publ_section_title
;
Structure prediction by ZEFSAII (Michael W. Deem and Ramdas Pophale) SiO2 
 PCOD8267949
Probable space group: C M M M
;
_chemical_formula_sum "Si O2"
_cell_formula_units_Z 72
_cell_length_a 18.056434
_cell_length_b 19.405199
_cell_length_c 11.842085
_cell_angle_alpha 90.000000
_cell_angle_beta 90.000000
_cell_angle_gamma 90.000000
_cell_volume 4149.332709
_symmetry_space_group_name_H-M "C M M M"
_symmetry_group_IT_number 65
_symmetry_cell_setting 'orthorhombic'
loop_
_space_group_symop_operation_xyz
x,y,z
-x,-y,z
x,-y,-z
-x,y,-z
-x,-y,-z
x,y,-z
-x,y,z
x,-y,z
1/2+x,1/2+y,z
1/2-x,1/2-y,z
1/2+x,1/2-y,-z
1/2-x,1/2+y,-z
1/2-x,1/2-y,-z
1/2+x,1/2+y,-z
1/2-x,1/2+y,z
1/2+x,1/2-y,z
loop_
_atom_site_type_symbol
_atom_site_label
_atom_site_fract_x
_atom_site_fract_y
_atom_site_fract_z
Si Si1 0.864763 0.834213 0.367285
Si Si2 0.916881 0.187681 0.000000
Si Si3 0.264848 0.829461 0.198824
Si Si4 0.292968 0.417165 0.000000
Si Si5 0.583908 0.780130 0.780837
Si Si6 0.500000 0.575843 0.634262
O O1 0.851180 0.837562 0.500000
O O2 0.784975 0.844799 0.309105
O O3 0.902960 0.762166 0.334168
O O4 0.924037 0.890071 0.322349
O O5 0.874306 0.115525 0.000000
O O6 0.898874 0.231791 0.111319
O O7 0.000000 0.162878 0.000000
O O8 0.250000 0.750000 0.158390
O O9 0.249142 0.888064 0.108360
O O10 0.353150 0.839280 0.222179
O O11 0.295458 0.500000 0.000000
O O12 0.500000 0.810215 0.785438
O O13 0.500000 0.500000 0.684863
O O14 0.500000 0.578091 0.500000
#
# Coordination Sequence:
#
# PCOD8267949 Si02
#       6
#    16   8  16   8  16   8
#     4  10  19  31  48  76 109 139 178 216 249 304
#     4  10  19  34  50  75 104 136 174 210 251 314
#     4  10  20  35  55  73 105 141 178 215 268 317
#     4  12  22  35  54  79 104 137 177 222 266 315
#     4  10  19  33  56  76  99 136 179 216 267 312
#     4   9  18  32  48  67 105 151 173 195 248 312
#
# _framework density 17.352187000000001
#
# number of rings (size 3 to 8) (size 9 to 14) (size 15 to 20)
#    0.000    1.889    5.556    1.000    0.000    5.111 
#    0.000    0.000    0.000    1.333    0.000    0.000 
#    0.000    0.000    0.000   15.778    0.000    0.000 
#
# Total GULP energy -446041.550519 kJ/mol
# GULP energy per Si atom -12390.043070 kJ/mol
# Density = 1.731269 g / cm^3
# Si number density = 17.352187 Si / 1000 Ang^3
#
#
#
# Elastic Constant Matrix: (Units=GPa)
#
#
# Indices 1 2 3 4 5 6 
#
# 1 192.1452 58.5933 52.2460 0.0000 0.0000 0.0000
# 2 58.5933 70.8031 30.9934 0.0000 0.0000 0.0000
# 3 52.2460 30.9934 84.6881 0.0000 0.0000 0.0000
# 4 0.0000 0.0000 0.0000 20.5214 0.0000 0.0000
# 5 0.0000 0.0000 0.0000 0.0000 83.5703 0.0000
# 6 0.0000 0.0000 0.0000 0.0000 0.0000 22.5220
#
#
#
# Elastic Compliance Matrix: (Units=1/GPa)
#
#
# Indices 1 2 3 4 5 6 
#
# 1 0.007479 -0.004965 -0.002797 0.000000 0.000000 0.000000
# 2 -0.004965 0.020114 -0.004298 0.000000 0.000000 0.000000
# 3 -0.002797 -0.004298 0.015107 0.000000 0.000000 0.000000
# 4 0.000000 0.000000 0.000000 0.048730 0.000000 0.000000
# 5 0.000000 0.000000 0.000000 0.000000 0.011966 0.000000
# 6 0.000000 0.000000 0.000000 0.000000 0.000000 0.044401
#
#
# Mechanical properties :
#
#
# Convention : Reuss Voigt Hill
#
# Bulk Modulus (GPa) = 53.82304 70.14464 61.98384
# Shear Modulus (GPa) = 28.07274 39.04299 33.55786
#
# Velocity S-wave (km/s) = 4.02658 4.74860 4.40241
# Velocity P-wave (km/s) = 7.25969 8.40104 7.85113
#
# Compressibility (1/GPa) = 0.01857940
#
# Stress axis : x y z
#
# Youngs Moduli (GPa) = 133.70953 49.71705 66.19664
#
# Poissons Ratio (x) = 0.24684 0.18515
# Poissons Ratio (y) = 0.66385 0.28452
# Poissons Ratio (z) = 0.37397 0.21369
#
# Static dielectric constant tensor:
#      x y z
#    x 3.671160 0.000000 0.000000 
#    y 0.000000 2.913900 0.000000 
#    z 0.000000 0.000000 3.192920 
# 
# 
# High freq. dielectric constant tensor:
#      x y z
#    x 1.691890 0.000000 0.000000 
#    y 0.000000 1.613080 0.000000 
#    z 0.000000 0.000000 1.670670 
# 
# From -- ./inp_files/26404.got.cif
#   From: 2010.03.12/outbox.cif.g09.slc.cpg/sg65_14_cif.got.tgz:26404.got - 2010.04.10 20:52:16.
