data_PCOD8267815
_publ_section_title
;
Structure prediction by ZEFSAII (Michael W. Deem and Ramdas Pophale) SiO2 
 PCOD8267815
Probable space group: C M M M
;
_chemical_formula_sum "Si O2"
_cell_formula_units_Z 88
_cell_length_a 20.025308
_cell_length_b 30.381695
_cell_length_c 7.903553
_cell_angle_alpha 90.000000
_cell_angle_beta 90.000000
_cell_angle_gamma 90.000000
_cell_volume 4808.543775
_symmetry_space_group_name_H-M "C M M M"
_symmetry_group_IT_number 65
_symmetry_cell_setting 'orthorhombic'
loop_
_space_group_symop_operation_xyz
x,y,z
-x,-y,z
x,-y,-z
-x,y,-z
-x,-y,-z
x,y,-z
-x,y,z
x,-y,z
1/2+x,1/2+y,z
1/2-x,1/2-y,z
1/2+x,1/2-y,-z
1/2-x,1/2+y,-z
1/2-x,1/2-y,-z
1/2+x,1/2+y,-z
1/2-x,1/2+y,z
1/2+x,1/2-y,z
loop_
_atom_site_type_symbol
_atom_site_label
_atom_site_fract_x
_atom_site_fract_y
_atom_site_fract_z
Si Si1 0.779299 0.549288 0.191831
Si Si2 0.254332 0.320302 0.000000
Si Si3 0.138401 0.051619 0.311453
Si Si4 0.500000 0.450726 0.197969
Si Si5 0.311506 0.137970 0.689689
Si Si6 0.923155 0.707183 0.308002
Si Si7 0.359803 0.748517 0.000000
O O1 0.787841 0.500000 0.271064
O O2 0.701501 0.564616 0.196499
O O3 0.823189 0.585193 0.293776
O O4 0.803978 0.548929 0.000000
O O5 0.243883 0.348563 0.829018
O O6 0.329655 0.300892 0.000000
O O7 0.201571 0.281397 0.000000
O O8 0.156866 0.066578 0.500000
O O9 0.067955 0.074271 0.257293
O O10 0.126887 0.000000 0.294548
O O11 0.500000 0.500000 0.275400
O O12 0.500000 0.452656 0.000000
O O13 0.285899 0.149309 0.500000
O O14 0.381187 0.162700 0.725301
O O15 0.910592 0.724891 0.500000
O O16 0.000000 0.694430 0.281316
O O17 0.902910 0.744397 0.171241
#
# Coordination Sequence:
#
# PCOD8267815 Si02
#       7
#    16   8  16   8  16  16   8
#     4  10  19  31  47  68  97 133 176 224 268 311
#     4   9  18  32  47  76 107 129 164 204 249 313
#     4   9  16  25  38  58  82 109 148 198 248 297
#     4   9  15  23  35  53  77 103 135 183 243 293
#     4  10  19  32  51  74 105 142 174 215 265 304
#     4   9  18  32  52  81 110 136 173 214 253 303
#     4   9  17  30  52  76 106 136 160 199 252 309
#
# _framework density 18.300758999999999
#
# number of rings (size 3 to 8) (size 9 to 14) (size 15 to 20)
#    0.000    2.636    0.909    1.636    0.000    5.091 
#    0.000    3.636    0.000    0.545    4.727    3.818 
#    0.000    0.000    0.000    0.000    0.000    0.000 
#
# Total GULP energy -545165.959695 kJ/mol
# GULP energy per Si atom -12390.135448 kJ/mol
# Density = 1.825911 g / cm^3
# Si number density = 18.300759 Si / 1000 Ang^3
#
#
#
# Elastic Constant Matrix: (Units=GPa)
#
#
# Indices 1 2 3 4 5 6 
#
# 1 75.2588 38.6359 42.2051 0.0000 0.0000 0.0000
# 2 38.6359 73.1096 41.3565 0.0000 0.0000 0.0000
# 3 42.2051 41.3565 116.9057 0.0000 0.0000 0.0000
# 4 0.0000 0.0000 0.0000 18.2519 0.0000 0.0000
# 5 0.0000 0.0000 0.0000 0.0000 25.4153 0.0000
# 6 0.0000 0.0000 0.0000 0.0000 0.0000 18.1269
#
#
#
# Elastic Compliance Matrix: (Units=1/GPa)
#
#
# Indices 1 2 3 4 5 6 
#
# 1 0.019836 -0.008041 -0.004317 0.000000 0.000000 0.000000
# 2 -0.008041 0.020360 -0.004299 0.000000 0.000000 0.000000
# 3 -0.004317 -0.004299 0.011633 0.000000 0.000000 0.000000
# 4 0.000000 0.000000 0.000000 0.054789 0.000000 0.000000
# 5 0.000000 0.000000 0.000000 0.000000 0.039346 0.000000
# 6 0.000000 0.000000 0.000000 0.000000 0.000000 0.055167
#
#
# Mechanical properties :
#
#
# Convention : Reuss Voigt Hill
#
# Bulk Modulus (GPa) = 54.01045 56.62990 55.32017
# Shear Modulus (GPa) = 20.77992 21.89725 21.33858
#
# Velocity S-wave (km/s) = 3.37333 3.46283 3.41837
# Velocity P-wave (km/s) = 6.68948 6.85561 6.77306
#
# Compressibility (1/GPa) = 0.01851494
#
# Stress axis : x y z
#
# Youngs Moduli (GPa) = 50.41259 49.11695 85.96022
#
# Poissons Ratio (x) = 0.39495 0.37107
# Poissons Ratio (y) = 0.40536 0.36958
# Poissons Ratio (z) = 0.21762 0.21118
#
# Static dielectric constant tensor:
#      x y z
#    x 3.334760 0.000000 0.000000 
#    y 0.000000 3.199940 0.000000 
#    z 0.000000 0.000000 3.522180 
# 
# 
# High freq. dielectric constant tensor:
#      x y z
#    x 1.687200 0.000000 0.000000 
#    y 0.000000 1.665890 0.000000 
#    z 0.000000 0.000000 1.724400 
# 
# From -- ./inp_files/10216.got.cif
#   From: 2010.03.12/outbox.cif.g09.slc.cpg/sg65_6_cif.got.tgz:10216.got - 2010.04.10 20:52:16.
