data_PCOD8267401
_publ_section_title
;
Structure prediction by ZEFSAII (Michael W. Deem and Ramdas Pophale) SiO2 
 PCOD8267401
Probable space group: C M M M
;
_chemical_formula_sum "Si O2"
_cell_formula_units_Z 80
_cell_length_a 27.652148
_cell_length_b 8.940975
_cell_length_c 18.836061
_cell_angle_alpha 90.000000
_cell_angle_beta 90.000000
_cell_angle_gamma 90.000000
_cell_volume 4656.974302
_symmetry_space_group_name_H-M "C M M M"
_symmetry_group_IT_number 65
_symmetry_cell_setting 'orthorhombic'
loop_
_space_group_symop_operation_xyz
x,y,z
-x,-y,z
x,-y,-z
-x,y,-z
-x,-y,-z
x,y,-z
-x,y,z
x,-y,z
1/2+x,1/2+y,z
1/2-x,1/2-y,z
1/2+x,1/2-y,-z
1/2-x,1/2+y,-z
1/2-x,1/2-y,-z
1/2+x,1/2+y,-z
1/2-x,1/2+y,z
1/2+x,1/2-y,z
loop_
_atom_site_type_symbol
_atom_site_label
_atom_site_fract_x
_atom_site_fract_y
_atom_site_fract_z
Si Si1 0.299879 0.324874 0.335377
Si Si2 0.107694 0.825446 0.577569
Si Si3 0.944788 0.822862 0.284436
Si Si4 0.700722 0.174404 0.079298
Si Si5 0.358730 0.824134 0.212911
O O1 0.292576 0.500000 0.321376
O O2 0.250000 0.250000 0.358731
O O3 0.337310 0.294252 0.399070
O O4 0.319330 0.251022 0.263638
O O5 0.098565 0.750173 0.500000
O O6 0.071037 0.762518 0.637462
O O7 0.098133 0.000000 0.570512
O O8 0.911991 0.744375 0.224845
O O9 0.000000 0.778166 0.270334
O O10 0.936221 0.000000 0.279716
O O11 0.750000 0.250000 0.105983
O O12 0.656797 0.213416 0.132285
O O13 0.711293 0.000000 0.079786
O O14 0.686531 0.229964 0.000000
O O15 0.360036 0.000000 0.228058
#
# Coordination Sequence:
#
# PCOD8267401 Si02
#       5
#    16  16  16  16  16
#     4  10  19  30  45  66  93 124 157 191 226 268
#     4   8  15  28  45  66  91 118 150 188 230 276
#     4   9  18  32  50  71  93 118 150 191 236 278
#     4   9  18  31  47  70  98 125 153 184 220 264
#     4  10  19  31  49  70  93 122 154 190 229 271
#
# _framework density 17.178536999999999
#
# number of rings (size 3 to 8) (size 9 to 14) (size 15 to 20)
#    0.000    2.800    0.000    3.000    0.000    4.400 
#    0.000    2.000    0.000   15.000    0.000    9.800 
#    0.000    0.000    0.000    0.000    0.000    0.000 
#
# Total GULP energy -495858.172975 kJ/mol
# GULP energy per Si atom -12396.454324 kJ/mol
# Density = 1.713944 g / cm^3
# Si number density = 17.178537 Si / 1000 Ang^3
#
#
#
# Elastic Constant Matrix: (Units=GPa)
#
#
# Indices 1 2 3 4 5 6 
#
# 1 128.2680 44.4967 63.6893 0.0000 0.0000 0.0000
# 2 44.4967 55.4658 37.7853 0.0000 0.0000 0.0000
# 3 63.6893 37.7853 114.9780 0.0000 0.0000 0.0000
# 4 0.0000 0.0000 0.0000 19.0858 0.0000 0.0000
# 5 0.0000 0.0000 0.0000 0.0000 17.3812 0.0000
# 6 0.0000 0.0000 0.0000 0.0000 0.0000 28.7111
#
#
#
# Elastic Compliance Matrix: (Units=1/GPa)
#
#
# Indices 1 2 3 4 5 6 
#
# 1 0.012486 -0.006836 -0.004670 0.000000 0.000000 0.000000
# 2 -0.006836 0.026972 -0.005077 0.000000 0.000000 0.000000
# 3 -0.004670 -0.005077 0.012953 0.000000 0.000000 0.000000
# 4 0.000000 0.000000 0.000000 0.052395 0.000000 0.000000
# 5 0.000000 0.000000 0.000000 0.000000 0.057533 0.000000
# 6 0.000000 0.000000 0.000000 0.000000 0.000000 0.034830
#
#
# Mechanical properties :
#
#
# Convention : Reuss Voigt Hill
#
# Bulk Modulus (GPa) = 51.96207 65.62828 58.79517
# Shear Modulus (GPa) = 21.11932 23.21832 22.16882
#
# Velocity S-wave (km/s) = 3.51009 3.68038 3.59624
# Velocity P-wave (km/s) = 6.83678 7.50646 7.17943
#
# Compressibility (1/GPa) = 0.01924481
#
# Stress axis : x y z
#
# Youngs Moduli (GPa) = 80.08762 37.07582 77.20339
#
# Poissons Ratio (x) = 0.25343 0.36055
# Poissons Ratio (y) = 0.54744 0.39199
# Poissons Ratio (z) = 0.37402 0.18825
#
# Static dielectric constant tensor:
#      x y z
#    x 3.170930 0.000000 0.000000 
#    y 0.000000 3.088050 0.000000 
#    z 0.000000 0.000000 3.447570 
# 
# 
# High freq. dielectric constant tensor:
#      x y z
#    x 1.654050 0.000000 0.000000 
#    y 0.000000 1.649350 0.000000 
#    z 0.000000 0.000000 1.658520 
# 
# From -- ./inp_files/49855.got.cif
#   From: 2010.03.12/outbox.cif.g09.slc.cpg/sg65_25_cif.got.tgz:49855.got - 2010.04.10 20:52:16.
