data_PCOD8267786
_publ_section_title
;
Structure prediction by ZEFSAII (Michael W. Deem and Ramdas Pophale) SiO2 
 PCOD8267786
Probable space group: C M M M
;
_chemical_formula_sum "Si O2"
_cell_formula_units_Z 72
_cell_length_a 23.580906
_cell_length_b 14.699422
_cell_length_c 11.844169
_cell_angle_alpha 90.000000
_cell_angle_beta 90.000000
_cell_angle_gamma 90.000000
_cell_volume 4105.493234
_symmetry_space_group_name_H-M "C M M M"
_symmetry_group_IT_number 65
_symmetry_cell_setting 'orthorhombic'
loop_
_space_group_symop_operation_xyz
x,y,z
-x,-y,z
x,-y,-z
-x,y,-z
-x,-y,-z
x,y,-z
-x,y,z
x,-y,z
1/2+x,1/2+y,z
1/2-x,1/2-y,z
1/2+x,1/2-y,-z
1/2-x,1/2+y,-z
1/2-x,1/2-y,-z
1/2+x,1/2+y,-z
1/2-x,1/2+y,z
1/2+x,1/2-y,z
loop_
_atom_site_type_symbol
_atom_site_label
_atom_site_fract_x
_atom_site_fract_y
_atom_site_fract_z
Si Si1 0.219373 0.607642 0.625362
Si Si2 0.155985 0.101128 0.366460
Si Si3 0.610579 0.106744 0.761795
Si Si4 0.937016 0.761916 0.630183
Si Si5 0.436125 0.893256 0.000000
O O1 0.202379 0.645642 0.500000
O O2 0.224679 0.500000 0.616150
O O3 0.281800 0.643729 0.661705
O O4 0.173510 0.635488 0.719780
O O5 0.148544 0.093674 0.500000
O O6 0.107850 0.167282 0.315207
O O7 0.148647 0.000000 0.313419
O O8 0.565905 0.163442 0.688669
O O9 0.599074 0.000000 0.741765
O O10 0.601013 0.135742 0.891611
O O11 0.922975 0.746206 0.500000
O O12 0.000000 0.802035 0.647483
O O13 0.500000 0.849555 0.000000
O O14 0.444547 0.000000 0.000000
#
# Coordination Sequence:
#
# PCOD8267786 Si02
#       5
#    16  16  16  16   8
#     4   8  14  26  46  70  92 117 148 180 224 274
#     4   8  15  29  47  67  93 122 152 187 222 262
#     4  10  19  31  47  67  92 119 149 187 224 266
#     4  10  20  30  43  68  96 123 155 184 221 271
#     4   9  18  32  48  63  83 121 164 189 215 259
#
# _framework density 17.537479000000001
#
# number of rings (size 3 to 8) (size 9 to 14) (size 15 to 20)
#    0.000    3.000    0.000    2.667    0.000    4.000 
#    0.000    6.667    0.000    2.667    0.000    2.333 
#    0.000    2.667    0.000    0.000    0.000    0.000 
#
# Total GULP energy -446124.780737 kJ/mol
# GULP energy per Si atom -12392.355020 kJ/mol
# Density = 1.749756 g / cm^3
# Si number density = 17.537479 Si / 1000 Ang^3
#
#
#
# Elastic Constant Matrix: (Units=GPa)
#
#
# Indices 1 2 3 4 5 6 
#
# 1 141.8895 40.7513 68.6207 0.0000 0.0000 0.0000
# 2 40.7513 48.3063 30.2647 0.0000 0.0000 0.0000
# 3 68.6207 30.2647 84.9557 0.0000 0.0000 0.0000
# 4 0.0000 0.0000 0.0000 10.7252 0.0000 0.0000
# 5 0.0000 0.0000 0.0000 0.0000 -0.7596 0.0000
# 6 0.0000 0.0000 0.0000 0.0000 0.0000 25.4076
#
#
#
# Elastic Compliance Matrix: (Units=1/GPa)
#
#
# Indices 1 2 3 4 5 6 
#
# 1 0.012598 -0.005474 -0.008226 0.000000 0.000000 0.000000
# 2 -0.005474 0.029028 -0.005919 0.000000 0.000000 0.000000
# 3 -0.008226 -0.005919 0.020523 0.000000 0.000000 0.000000
# 4 0.000000 0.000000 0.000000 0.093238 0.000000 0.000000
# 5 0.000000 0.000000 0.000000 0.000000 -1.316508 0.000000
# 6 0.000000 0.000000 0.000000 0.000000 0.000000 0.039358
#
#
# Mechanical properties :
#
#
# Convention : Reuss Voigt Hill
#
# Bulk Modulus (GPa) = 43.64666 61.60276 52.62471
# Shear Modulus (GPa) = -4.65165 16.10897 5.72866
#
# Velocity S-wave (km/s) = -1.63039 3.03404 1.80931
# Velocity P-wave (km/s) = 4.62574 6.89032 5.86830
#
# Compressibility (1/GPa) = 0.02291126
#
# Stress axis : x y z
#
# Youngs Moduli (GPa) = 79.37750 34.44975 48.72463
#
# Poissons Ratio (x) = 0.18859 0.40079
# Poissons Ratio (y) = 0.43453 0.28841
# Poissons Ratio (z) = 0.65293 0.20391
#
# Static dielectric constant tensor:
#      x y z
#    x 3.575940 0.000000 0.000000 
#    y 0.000000 3.225230 0.000000 
#    z 0.000000 0.000000 3.051520 
# 
# 
# High freq. dielectric constant tensor:
#      x y z
#    x 1.690450 0.000000 0.000000 
#    y 0.000000 1.661870 0.000000 
#    z 0.000000 0.000000 1.625410 
# 
# From -- ./inp_files/24488.got.cif
#   From: 2010.03.12/outbox.cif.g09.slc.cpg/sg65_13_cif.got.tgz:24488.got - 2010.04.10 20:52:16.
