data_PCOD8267607
_publ_section_title
;
Structure prediction by ZEFSAII (Michael W. Deem and Ramdas Pophale) SiO2 
 PCOD8267607
Probable space group: C M M M
;
_chemical_formula_sum "Si O2"
_cell_formula_units_Z 88
_cell_length_a 18.360136
_cell_length_b 8.716528
_cell_length_c 28.511138
_cell_angle_alpha 90.000000
_cell_angle_beta 90.000000
_cell_angle_gamma 90.000000
_cell_volume 4562.826715
_symmetry_space_group_name_H-M "C M M M"
_symmetry_group_IT_number 65
_symmetry_cell_setting 'orthorhombic'
loop_
_space_group_symop_operation_xyz
x,y,z
-x,-y,z
x,-y,-z
-x,y,-z
-x,-y,-z
x,y,-z
-x,y,z
x,-y,z
1/2+x,1/2+y,z
1/2-x,1/2-y,z
1/2+x,1/2-y,-z
1/2-x,1/2+y,-z
1/2-x,1/2-y,-z
1/2+x,1/2+y,-z
1/2-x,1/2+y,z
1/2+x,1/2-y,z
loop_
_atom_site_type_symbol
_atom_site_label
_atom_site_fract_x
_atom_site_fract_y
_atom_site_fract_z
Si Si1 0.170272 0.319142 0.914049
Si Si2 0.329647 0.320555 0.550771
Si Si3 0.085679 0.178700 0.000000
Si Si4 0.415730 0.321237 0.169258
Si Si5 0.170041 0.318635 0.356895
Si Si6 0.415579 0.175587 0.266269
O O1 0.176169 0.500000 0.918945
O O2 0.250000 0.250000 0.919553
O O3 0.135826 0.276396 0.864256
O O4 0.118285 0.254684 0.954009
O O5 0.368697 0.289764 0.500000
O O6 0.323291 0.500000 0.560548
O O7 0.250000 0.250000 0.548272
O O8 0.369894 0.242295 0.595341
O O9 0.000000 0.207905 0.000000
O O10 0.104961 0.000000 0.000000
O O11 0.500000 0.277141 0.160022
O O12 0.402093 0.500000 0.160065
O O13 0.393328 0.280177 0.222235
O O14 0.172976 0.500000 0.358774
O O15 0.250000 0.250000 0.353061
O O16 0.125990 0.260995 0.311710
O O17 0.500000 0.191231 0.277798
O O18 0.394521 0.000000 0.254822
#
# Coordination Sequence:
#
# PCOD8267607 Si02
#       6
#    16  16   8  16  16  16
#     4  12  25  41  62  88 120 154 189 231 279 327
#     4   9  16  26  42  65  94 127 163 205 253 307
#     4  11  24  43  66  91 121 155 192 233 274 323
#     4  10  21  38  60  85 112 144 184 227 272 325
#     4  10  19  30  48  73 100 130 165 211 262 312
#     4   9  19  36  55  75 102 139 181 220 261 313
#
# _framework density 19.286290000000001
#
# number of rings (size 3 to 8) (size 9 to 14) (size 15 to 20)
#    0.000    1.909    0.000    5.455    0.000    7.273 
#    0.000    1.818    0.000    0.545    0.000    3.818 
#    0.000    0.000    0.000    0.000    0.000    0.000 
#
# Total GULP energy -545526.395592 kJ/mol
# GULP energy per Si atom -12398.327173 kJ/mol
# Density = 1.924239 g / cm^3
# Si number density = 19.286290 Si / 1000 Ang^3
#
#
#
# Elastic Constant Matrix: (Units=GPa)
#
#
# Indices 1 2 3 4 5 6 
#
# 1 58.8626 48.1778 53.0178 0.0000 0.0000 0.0000
# 2 48.1778 119.6813 61.9760 0.0000 0.0000 0.0000
# 3 53.0178 61.9760 152.6673 0.0000 0.0000 0.0000
# 4 0.0000 0.0000 0.0000 73.3018 0.0000 0.0000
# 5 0.0000 0.0000 0.0000 0.0000 -7.4475 0.0000
# 6 0.0000 0.0000 0.0000 0.0000 0.0000 25.2855
#
#
#
# Elastic Compliance Matrix: (Units=1/GPa)
#
#
# Indices 1 2 3 4 5 6 
#
# 1 0.030364 -0.008562 -0.007069 0.000000 0.000000 0.000000
# 2 -0.008562 0.012994 -0.002301 0.000000 0.000000 0.000000
# 3 -0.007069 -0.002301 0.009939 0.000000 0.000000 0.000000
# 4 0.000000 0.000000 0.000000 0.013642 0.000000 0.000000
# 5 0.000000 0.000000 0.000000 0.000000 -0.134274 0.000000
# 6 0.000000 0.000000 0.000000 0.000000 0.000000 0.039548
#
#
# Mechanical properties :
#
#
# Convention : Reuss Voigt Hill
#
# Bulk Modulus (GPa) = 57.36612 73.06163 65.21387
# Shear Modulus (GPa) = 359.98160 29.43060 194.70610
#
# Velocity S-wave (km/s) = 13.67687 3.91062 10.05857
# Velocity P-wave (km/s) = 16.70982 7.63908 12.99180
#
# Compressibility (1/GPa) = 0.01743189
#
# Stress axis : x y z
#
# Youngs Moduli (GPa) = 32.93410 76.95761 100.61108
#
# Poissons Ratio (x) = 0.65895 0.71118
# Poissons Ratio (y) = 0.28200 0.23156
# Poissons Ratio (z) = 0.23280 0.17712
#
# Static dielectric constant tensor:
#      x y z
#    x 3.353330 0.000000 0.000000 
#    y 0.000000 3.640720 0.000000 
#    z 0.000000 0.000000 4.209480 
# 
# 
# High freq. dielectric constant tensor:
#      x y z
#    x 1.718640 0.000000 0.000000 
#    y 0.000000 1.762080 0.000000 
#    z 0.000000 0.000000 1.776710 
# 
# From -- ./inp_files/77951.got.cif
#   From: 2010.03.12/outbox.cif.g09.slc.cpg/sg65_39_cif.got.tgz:77951.got - 2010.04.10 20:52:16.
