data_PCOD8267518
_publ_section_title
;
Structure prediction by ZEFSAII (Michael W. Deem and Ramdas Pophale) SiO2 
 PCOD8267518
Probable space group: C M M M
;
_chemical_formula_sum "Si O2"
_cell_formula_units_Z 88
_cell_length_a 8.708586
_cell_length_b 27.418400
_cell_length_c 21.393462
_cell_angle_alpha 90.000000
_cell_angle_beta 90.000000
_cell_angle_gamma 90.000000
_cell_volume 5108.234466
_symmetry_space_group_name_H-M "C M M M"
_symmetry_group_IT_number 65
_symmetry_cell_setting 'orthorhombic'
loop_
_space_group_symop_operation_xyz
x,y,z
-x,-y,z
x,-y,-z
-x,y,-z
-x,-y,-z
x,y,-z
-x,y,z
x,-y,z
1/2+x,1/2+y,z
1/2-x,1/2-y,z
1/2+x,1/2-y,-z
1/2-x,1/2+y,-z
1/2-x,1/2-y,-z
1/2+x,1/2+y,-z
1/2-x,1/2+y,z
1/2+x,1/2-y,z
loop_
_atom_site_type_symbol
_atom_site_label
_atom_site_fract_x
_atom_site_fract_y
_atom_site_fract_z
Si Si1 0.681662 0.850326 0.429384
Si Si2 0.818712 0.198618 0.687749
Si Si3 0.319463 0.108721 0.754907
Si Si4 0.680797 0.053095 0.367060
Si Si5 0.319429 0.556462 0.128354
Si Si6 0.672538 0.057792 0.000000
O O1 0.727164 0.836513 0.500000
O O2 0.500000 0.846630 0.417981
O O3 0.763319 0.813251 0.382595
O O4 0.739148 0.905686 0.415397
O O5 0.750000 0.250000 0.708882
O O6 0.762920 0.159199 0.738096
O O7 0.000000 0.201325 0.688175
O O8 0.500000 0.118428 0.755748
O O9 0.274122 0.068508 0.703178
O O10 0.264762 0.089701 0.821335
O O11 0.500000 0.048324 0.373379
O O12 0.756098 0.000000 0.381590
O O13 0.500000 0.563813 0.133737
O O14 0.273075 0.500000 0.138420
O O15 0.263404 0.575817 0.061093
O O16 0.500000 0.079342 0.000000
O O17 0.667344 0.000000 0.000000
#
# Coordination Sequence:
#
# PCOD8267518 Si02
#       6
#    16  16  16  16  16   8
#     4   9  18  32  49  71  98 126 159 198 240 291
#     4  11  22  37  55  73  94 120 154 200 254 305
#     4  10  19  32  50  73  99 128 165 204 244 294
#     4   8  14  25  43  68  96 125 158 196 234 274
#     4  10  19  30  46  72 107 142 173 207 247 287
#     4   9  17  29  45  67  98 139 182 215 243 281
#
# _framework density 17.227087000000001
#
# number of rings (size 3 to 8) (size 9 to 14) (size 15 to 20)
#    0.000    2.455    0.000    4.636    0.000    4.000 
#    0.000    1.818    0.000    4.909    0.000    5.727 
#    0.000    0.000    0.000    0.000    0.000    0.000 
#
# Total GULP energy -545527.842733 kJ/mol
# GULP energy per Si atom -12398.360062 kJ/mol
# Density = 1.718788 g / cm^3
# Si number density = 17.227087 Si / 1000 Ang^3
#
#
#
# Elastic Constant Matrix: (Units=GPa)
#
#
# Indices 1 2 3 4 5 6 
#
# 1 79.9273 31.5839 35.5211 0.0000 0.0000 0.0000
# 2 31.5839 85.9882 28.3858 0.0000 0.0000 0.0000
# 3 35.5211 28.3858 104.8040 0.0000 0.0000 0.0000
# 4 0.0000 0.0000 0.0000 10.5351 0.0000 0.0000
# 5 0.0000 0.0000 0.0000 0.0000 27.8136 0.0000
# 6 0.0000 0.0000 0.0000 0.0000 0.0000 21.8533
#
#
#
# Elastic Compliance Matrix: (Units=1/GPa)
#
#
# Indices 1 2 3 4 5 6 
#
# 1 0.016200 -0.004544 -0.004260 0.000000 0.000000 0.000000
# 2 -0.004544 0.014046 -0.002264 0.000000 0.000000 0.000000
# 3 -0.004260 -0.002264 0.011599 0.000000 0.000000 0.000000
# 4 0.000000 0.000000 0.000000 0.094921 0.000000 0.000000
# 5 0.000000 0.000000 0.000000 0.000000 0.035954 0.000000
# 6 0.000000 0.000000 0.000000 0.000000 0.000000 0.045760
#
#
# Mechanical properties :
#
#
# Convention : Reuss Voigt Hill
#
# Bulk Modulus (GPa) = 50.73986 51.30012 51.01999
# Shear Modulus (GPa) = 20.22775 23.72230 21.97502
#
# Velocity S-wave (km/s) = 3.43035 3.71487 3.57544
# Velocity P-wave (km/s) = 6.72363 6.94577 6.83560
#
# Compressibility (1/GPa) = 0.01970837
#
# Stress axis : x y z
#
# Youngs Moduli (GPa) = 61.72754 71.19456 86.21662
#
# Poissons Ratio (x) = 0.32352 0.36728
# Poissons Ratio (y) = 0.28050 0.19521
# Poissons Ratio (z) = 0.26296 0.16120
#
# Static dielectric constant tensor:
#      x y z
#    x 3.123140 0.000000 0.000000 
#    y 0.000000 3.208820 0.000000 
#    z 0.000000 0.000000 3.246540 
# 
# 
# High freq. dielectric constant tensor:
#      x y z
#    x 1.659410 0.000000 0.000000 
#    y 0.000000 1.647450 0.000000 
#    z 0.000000 0.000000 1.659800 
# 
# From -- ./inp_files/59836.got.cif
#   From: 2010.03.12/outbox.cif.g09.slc.cpg/sg65_30_cif.got.tgz:59836.got - 2010.04.10 20:52:16.
