data_PCOD8267531
_publ_section_title
;
Structure prediction by ZEFSAII (Michael W. Deem and Ramdas Pophale) SiO2 
 PCOD8267531
Probable space group: C M M M
;
_chemical_formula_sum "Si O2"
_cell_formula_units_Z 72
_cell_length_a 18.982077
_cell_length_b 8.976502
_cell_length_c 23.638952
_cell_angle_alpha 90.000000
_cell_angle_beta 90.000000
_cell_angle_gamma 90.000000
_cell_volume 4027.903725
_symmetry_space_group_name_H-M "C M M M"
_symmetry_group_IT_number 65
_symmetry_cell_setting 'orthorhombic'
loop_
_space_group_symop_operation_xyz
x,y,z
-x,-y,z
x,-y,-z
-x,y,-z
-x,-y,-z
x,y,-z
-x,y,z
x,-y,z
1/2+x,1/2+y,z
1/2-x,1/2-y,z
1/2+x,1/2-y,-z
1/2-x,1/2+y,-z
1/2-x,1/2-y,-z
1/2+x,1/2+y,-z
1/2-x,1/2+y,z
1/2+x,1/2-y,z
loop_
_atom_site_type_symbol
_atom_site_label
_atom_site_fract_x
_atom_site_fract_y
_atom_site_fract_z
Si Si1 0.915922 0.167862 0.000000
Si Si2 0.825637 0.674513 0.561411
Si Si3 0.083901 0.332225 0.110835
Si Si4 0.080518 0.174278 0.223231
Si Si5 0.673726 0.676816 0.670667
O O1 0.885830 0.248433 0.944170
O O2 0.000000 0.172593 0.000000
O O3 0.887715 0.000000 0.000000
O O4 0.863834 0.697664 0.500000
O O5 0.817596 0.500000 0.574792
O O6 0.750000 0.750000 0.557773
O O7 0.864356 0.756456 0.613929
O O8 0.112297 0.500000 0.109436
O O9 0.111740 0.254974 0.167921
O O10 0.000000 0.326237 0.109797
O O11 0.125725 0.224849 0.276894
O O12 0.000000 0.221802 0.234748
O O13 0.086453 0.000000 0.211839
O O14 0.680585 0.500000 0.665245
O O15 0.750000 0.750000 0.679108
#
# Coordination Sequence:
#
# PCOD8267531 Si02
#       5
#     8  16  16  16  16
#     4   9  15  23  37  57  84 117 148 181 222 265
#     4   9  16  26  42  64  89 115 144 181 223 265
#     4   9  16  25  39  61  87 114 146 185 226 264
#     4   9  18  32  47  64  89 121 154 184 219 265
#     4  10  19  30  47  69  92 118 148 185 224 264
#
# _framework density 17.875302000000001
#
# number of rings (size 3 to 8) (size 9 to 14) (size 15 to 20)
#    0.000    2.778    0.000    3.667    0.000    7.111 
#    0.000    0.000    0.000    0.667    0.000    5.444 
#    0.000    0.000    0.000    0.000    0.000    0.000 
#
# Total GULP energy -446147.109610 kJ/mol
# GULP energy per Si atom -12392.975267 kJ/mol
# Density = 1.783462 g / cm^3
# Si number density = 17.875302 Si / 1000 Ang^3
#
#
#
# Elastic Constant Matrix: (Units=GPa)
#
#
# Indices 1 2 3 4 5 6 
#
# 1 26.5917 22.7108 40.7676 0.0000 0.0000 0.0000
# 2 22.7108 114.2430 91.4856 0.0000 0.0000 0.0000
# 3 40.7676 91.4856 219.7883 0.0000 0.0000 0.0000
# 4 0.0000 0.0000 0.0000 38.5908 0.0000 0.0000
# 5 0.0000 0.0000 0.0000 0.0000 7.8782 0.0000
# 6 0.0000 0.0000 0.0000 0.0000 0.0000 13.0436
#
#
#
# Elastic Compliance Matrix: (Units=1/GPa)
#
#
# Indices 1 2 3 4 5 6 
#
# 1 0.053772 -0.004054 -0.008287 0.000000 0.000000 0.000000
# 2 -0.004054 0.013435 -0.004841 0.000000 0.000000 0.000000
# 3 -0.008287 -0.004841 0.008102 0.000000 0.000000 0.000000
# 4 0.000000 0.000000 0.000000 0.025913 0.000000 0.000000
# 5 0.000000 0.000000 0.000000 0.000000 0.126932 0.000000
# 6 0.000000 0.000000 0.000000 0.000000 0.000000 0.076666
#
#
# Mechanical properties :
#
#
# Convention : Reuss Voigt Hill
#
# Bulk Modulus (GPa) = 24.42153 74.50568 49.46360
# Shear Modulus (GPa) = 14.17110 25.61312 19.89211
#
# Velocity S-wave (km/s) = 2.81868 3.78944 3.33952
# Velocity P-wave (km/s) = 4.92799 7.80498 6.52698
#
# Compressibility (1/GPa) = 0.04094748
#
# Stress axis : x y z
#
# Youngs Moduli (GPa) = 18.59708 74.43034 123.43057
#
# Poissons Ratio (x) = 0.30171 1.02282
# Poissons Ratio (y) = 0.07539 0.59747
# Poissons Ratio (z) = 0.15411 0.36028
#
# Static dielectric constant tensor:
#      x y z
#    x 2.663490 0.000000 0.000000 
#    y 0.000000 3.440010 0.000000 
#    z 0.000000 0.000000 4.046850 
# 
# 
# High freq. dielectric constant tensor:
#      x y z
#    x 1.608810 0.000000 0.000000 
#    y 0.000000 1.706500 0.000000 
#    z 0.000000 0.000000 1.720970 
# 
# From -- ./inp_files/64982.got.cif
#   From: 2010.03.12/outbox.cif.g09.slc.cpg/sg65_33_cif.got.tgz:64982.got - 2010.04.10 20:52:16.
