data_PCOD8267318
_publ_section_title
;
Structure prediction by ZEFSAII (Michael W. Deem and Ramdas Pophale) SiO2 
 PCOD8267318
Probable space group: C M M M
;
_chemical_formula_sum "Si O2"
_cell_formula_units_Z 104
_cell_length_a 15.716508
_cell_length_b 24.046797
_cell_length_c 17.145576
_cell_angle_alpha 90.000000
_cell_angle_beta 90.000000
_cell_angle_gamma 90.000000
_cell_volume 6479.856298
_symmetry_space_group_name_H-M "C M M M"
_symmetry_group_IT_number 65
_symmetry_cell_setting 'orthorhombic'
loop_
_space_group_symop_operation_xyz
x,y,z
-x,-y,z
x,-y,-z
-x,y,-z
-x,-y,-z
x,y,-z
-x,y,z
x,-y,z
1/2+x,1/2+y,z
1/2-x,1/2-y,z
1/2+x,1/2-y,-z
1/2-x,1/2+y,-z
1/2-x,1/2-y,-z
1/2+x,1/2+y,-z
1/2-x,1/2+y,z
1/2+x,1/2-y,z
loop_
_atom_site_type_symbol
_atom_site_label
_atom_site_fract_x
_atom_site_fract_y
_atom_site_fract_z
Si Si1 0.402651 0.560254 0.000000
Si Si2 0.867175 0.360853 0.088006
Si Si3 0.405003 0.565917 0.412859
Si Si4 0.598302 0.736615 0.089291
Si Si5 0.725054 0.434391 0.282518
Si Si6 0.092728 0.436168 0.771265
Si Si7 0.679505 0.628531 0.130187
O O1 0.385673 0.595240 0.077273
O O2 0.354047 0.500000 0.000000
O O3 0.500000 0.546486 0.000000
O O4 0.883456 0.298611 0.119592
O O5 0.911497 0.402257 0.148241
O O6 0.768167 0.373797 0.085346
O O7 0.904637 0.367998 0.000000
O O8 0.388323 0.589250 0.500000
O O9 0.500000 0.585486 0.384257
O O10 0.404121 0.500000 0.414683
O O11 0.326604 0.586633 0.358728
O O12 0.500000 0.722341 0.097439
O O13 0.650223 0.692467 0.141235
O O14 0.629298 0.730904 0.000000
O O15 0.711731 0.500000 0.269719
O O16 0.827075 0.419570 0.284862
O O17 0.682235 0.400891 0.213049
O O18 0.104484 0.500000 0.795725
O O19 0.000000 0.427322 0.729167
#
# Coordination Sequence:
#
# PCOD8267318 Si02
#       7
#     8  16  16  16  16  16  16
#     4  11  22  32  41  56  83 119 153 184 220 264
#     4  10  19  31  45  63  80 111 152 199 236 271
#     4   8  14  26  45  68  92 117 145 178 218 266
#     4  10  19  30  44  59  81 110 147 191 234 272
#     4   9  18  30  45  66  91 120 151 183 223 269
#     4   9  18  31  45  63  89 118 148 186 233 276
#     4  11  19  31  44  60  83 116 152 189 224 266
#
# _framework density 16.049738999999999
#
# number of rings (size 3 to 8) (size 9 to 14) (size 15 to 20)
#    0.000    2.385    1.538    2.308    0.000    4.308 
#    0.000    2.308    0.000    0.462    0.000    3.231 
#    0.000    9.846    0.000    3.077    0.000    0.923 
#
# Total GULP energy -644369.751639 kJ/mol
# GULP energy per Si atom -12391.725993 kJ/mol
# Density = 1.601321 g / cm^3
# Si number density = 16.049739 Si / 1000 Ang^3
#
#
#
# Elastic Constant Matrix: (Units=GPa)
#
#
# Indices 1 2 3 4 5 6 
#
# 1 106.9308 25.9689 55.6022 0.0000 0.0000 0.0000
# 2 25.9689 56.1925 24.8024 0.0000 0.0000 0.0000
# 3 55.6022 24.8024 80.0353 0.0000 0.0000 0.0000
# 4 0.0000 0.0000 0.0000 1.2549 0.0000 0.0000
# 5 0.0000 0.0000 0.0000 0.0000 18.3071 0.0000
# 6 0.0000 0.0000 0.0000 0.0000 0.0000 13.3439
#
#
#
# Elastic Compliance Matrix: (Units=1/GPa)
#
#
# Indices 1 2 3 4 5 6 
#
# 1 0.014986 -0.002700 -0.009575 0.000000 0.000000 0.000000
# 2 -0.002700 0.021102 -0.004664 0.000000 0.000000 0.000000
# 3 -0.009575 -0.004664 0.020591 0.000000 0.000000 0.000000
# 4 0.000000 0.000000 0.000000 0.796893 0.000000 0.000000
# 5 0.000000 0.000000 0.000000 0.000000 0.054624 0.000000
# 6 0.000000 0.000000 0.000000 0.000000 0.000000 0.074941
#
#
# Mechanical properties :
#
#
# Convention : Reuss Voigt Hill
#
# Bulk Modulus (GPa) = 43.85296 50.65616 47.25456
# Shear Modulus (GPa) = 4.87989 15.70018 10.29003
#
# Velocity S-wave (km/s) = 1.74559 3.13104 2.53481
# Velocity P-wave (km/s) = 5.60761 6.68594 6.17037
#
# Compressibility (1/GPa) = 0.02280348
#
# Stress axis : x y z
#
# Youngs Moduli (GPa) = 66.72870 47.38851 48.56397
#
# Poissons Ratio (x) = 0.12793 0.46498
# Poissons Ratio (y) = 0.18015 0.22650
# Poissons Ratio (z) = 0.63889 0.22102
#
# Static dielectric constant tensor:
#      x y z
#    x 3.336400 0.000000 0.000000 
#    y 0.000000 2.997120 0.000000 
#    z 0.000000 0.000000 2.894180 
# 
# 
# High freq. dielectric constant tensor:
#      x y z
#    x 1.636080 0.000000 0.000000 
#    y 0.000000 1.603840 0.000000 
#    z 0.000000 0.000000 1.568050 
# 
# From -- ./inp_files/53502.got.cif
#   From: 2010.03.12/outbox.cif.g09.slc.cpg/sg65_27_cif.got.tgz:53502.got - 2010.04.10 20:52:16.
