data_PCOD8267147
_publ_section_title
;
Structure prediction by ZEFSAII (Michael W. Deem and Ramdas Pophale) SiO2 
 PCOD8267147
Probable space group: C M M M
;
_chemical_formula_sum "Si O2"
_cell_formula_units_Z 112
_cell_length_a 14.940621
_cell_length_b 28.324686
_cell_length_c 14.478911
_cell_angle_alpha 90.000000
_cell_angle_beta 90.000000
_cell_angle_gamma 90.000000
_cell_volume 6127.307158
_symmetry_space_group_name_H-M "C M M M"
_symmetry_group_IT_number 65
_symmetry_cell_setting 'orthorhombic'
loop_
_space_group_symop_operation_xyz
x,y,z
-x,-y,z
x,-y,-z
-x,y,-z
-x,-y,-z
x,y,-z
-x,y,z
x,-y,z
1/2+x,1/2+y,z
1/2-x,1/2-y,z
1/2+x,1/2-y,-z
1/2-x,1/2+y,-z
1/2-x,1/2-y,-z
1/2+x,1/2+y,-z
1/2-x,1/2+y,z
1/2+x,1/2-y,z
loop_
_atom_site_type_symbol
_atom_site_label
_atom_site_fract_x
_atom_site_fract_y
_atom_site_fract_z
Si Si1 0.236867 0.947274 0.394438
Si Si2 0.600299 0.182060 0.599643
Si Si3 0.396304 0.131837 0.898645
Si Si4 0.394680 0.092539 0.709600
Si Si5 0.850543 0.736050 0.900428
Si Si6 0.604342 0.636037 0.607856
Si Si7 0.350651 0.731092 0.709511
O O1 0.264042 0.937361 0.500000
O O2 0.328923 0.945551 0.335486
O O3 0.160045 0.910535 0.363140
O O4 0.197200 0.000000 0.382340
O O5 0.651664 0.181759 0.500000
O O6 0.500000 0.166229 0.580970
O O7 0.639743 0.142881 0.668564
O O8 0.597351 0.234341 0.641140
O O9 0.500000 0.144893 0.895293
O O10 0.374834 0.093464 0.819644
O O11 0.347377 0.180662 0.876188
O O12 0.368924 0.111635 0.000000
O O13 0.500000 0.081138 0.690556
O O14 0.750000 0.750000 0.915071
O O15 0.892479 0.765150 0.813674
O O16 0.900898 0.744876 0.000000
O O17 0.617589 0.648355 0.500000
O O18 0.500000 0.626951 0.629848
O O19 0.641778 0.678530 0.670520
O O20 0.250000 0.750000 0.713040
#
# Coordination Sequence:
#
# PCOD8267147 Si02
#       7
#    16  16  16  16  16  16  16
#     4  10  22  39  58  79 102 131 172 222 274 325
#     4  10  19  29  42  64  98 137 169 195 231 292
#     4   9  17  30  49  72 100 138 180 214 246 296
#     4  10  19  32  52  79 110 141 172 207 257 320
#     4   9  18  30  44  67 101 142 181 213 248 293
#     4  10  22  38  55  76 103 138 182 228 268 309
#     4  11  20  29  47  73 104 140 172 209 257 301
#
# _framework density 18.278829999999999
#
# number of rings (size 3 to 8) (size 9 to 14) (size 15 to 20)
#    0.000    2.143    1.429    2.143    2.000    5.429 
#    0.000    2.143    0.000    0.429    0.000    2.000 
#    0.000    0.000    0.000    2.571    0.000    0.286 
#
# Total GULP energy -693834.079615 kJ/mol
# GULP energy per Si atom -12389.894279 kJ/mol
# Density = 1.823723 g / cm^3
# Si number density = 18.278830 Si / 1000 Ang^3
#
#
#
# Elastic Constant Matrix: (Units=GPa)
#
#
# Indices 1 2 3 4 5 6 
#
# 1 70.9302 30.0235 28.8124 0.0000 0.0000 0.0000
# 2 30.0235 86.2237 41.2368 0.0000 0.0000 0.0000
# 3 28.8124 41.2368 132.6370 0.0000 0.0000 0.0000
# 4 0.0000 0.0000 0.0000 15.4940 0.0000 0.0000
# 5 0.0000 0.0000 0.0000 0.0000 13.7128 0.0000
# 6 0.0000 0.0000 0.0000 0.0000 0.0000 21.0446
#
#
#
# Elastic Compliance Matrix: (Units=1/GPa)
#
#
# Indices 1 2 3 4 5 6 
#
# 1 0.017057 -0.004895 -0.002183 0.000000 0.000000 0.000000
# 2 -0.004895 0.015028 -0.003609 0.000000 0.000000 0.000000
# 3 -0.002183 -0.003609 0.009136 0.000000 0.000000 0.000000
# 4 0.000000 0.000000 0.000000 0.064541 0.000000 0.000000
# 5 0.000000 0.000000 0.000000 0.000000 0.072924 0.000000
# 6 0.000000 0.000000 0.000000 0.000000 0.000000 0.047518
#
#
# Mechanical properties :
#
#
# Convention : Reuss Voigt Hill
#
# Bulk Modulus (GPa) = 50.38746 54.43738 52.41242
# Shear Modulus (GPa) = 19.66991 22.69816 21.18403
#
# Velocity S-wave (km/s) = 3.28396 3.52770 3.40801
# Velocity P-wave (km/s) = 6.48113 6.81463 6.64997
#
# Compressibility (1/GPa) = 0.01984621
#
# Stress axis : x y z
#
# Youngs Moduli (GPa) = 58.62575 66.54132 109.46097
#
# Poissons Ratio (x) = 0.32574 0.23900
# Poissons Ratio (y) = 0.28699 0.39503
# Poissons Ratio (z) = 0.12800 0.24014
#
# Static dielectric constant tensor:
#      x y z
#    x 3.292900 0.000000 0.000000 
#    y 0.000000 3.104950 0.000000 
#    z 0.000000 0.000000 4.018840 
# 
# 
# High freq. dielectric constant tensor:
#      x y z
#    x 1.694050 0.000000 0.000000 
#    y 0.000000 1.675440 0.000000 
#    z 0.000000 0.000000 1.719780 
# 
# From -- ./inp_files/41071.got.cif
#   From: 2010.03.12/outbox.cif.g09.slc.cpg/sg65_21_cif.got.tgz:41071.got - 2010.04.10 20:52:16.
