data_PCOD8267867
_publ_section_title
;
Structure prediction by ZEFSAII (Michael W. Deem and Ramdas Pophale) SiO2 
 PCOD8267867
Probable space group: C M M M
;
_chemical_formula_sum "Si O2"
_cell_formula_units_Z 112
_cell_length_a 31.518646
_cell_length_b 20.366122
_cell_length_c 9.717657
_cell_angle_alpha 90.000000
_cell_angle_beta 90.000000
_cell_angle_gamma 90.000000
_cell_volume 6237.886371
_symmetry_space_group_name_H-M "C M M M"
_symmetry_group_IT_number 65
_symmetry_cell_setting 'orthorhombic'
loop_
_space_group_symop_operation_xyz
x,y,z
-x,-y,z
x,-y,-z
-x,y,-z
-x,-y,-z
x,y,-z
-x,y,z
x,-y,z
1/2+x,1/2+y,z
1/2-x,1/2-y,z
1/2+x,1/2-y,-z
1/2-x,1/2+y,-z
1/2-x,1/2-y,-z
1/2+x,1/2+y,-z
1/2-x,1/2+y,z
1/2+x,1/2-y,z
loop_
_atom_site_type_symbol
_atom_site_label
_atom_site_fract_x
_atom_site_fract_y
_atom_site_fract_z
Si Si1 0.046648 0.325214 0.838090
Si Si2 0.710127 0.606669 0.657630
Si Si3 0.602071 0.291373 0.840359
Si Si4 0.195932 0.390913 0.656409
Si Si5 0.867087 0.071447 0.841361
Si Si6 0.382678 0.925591 0.841437
Si Si7 0.323334 0.254908 0.346876
O O1 0.059342 0.249158 0.804881
O O2 0.081169 0.377060 0.779223
O O3 0.000000 0.337510 0.772340
O O4 0.043925 0.336568 0.000000
O O5 0.699215 0.588636 0.500000
O O6 0.757413 0.580969 0.694454
O O7 0.675980 0.571908 0.754343
O O8 0.708609 0.685175 0.680664
O O9 0.600728 0.369107 0.798277
O O10 0.639040 0.254291 0.761758
O O11 0.612619 0.284113 0.000000
O O12 0.183681 0.410500 0.500000
O O13 0.160834 0.419733 0.757409
O O14 0.201402 0.312794 0.670165
O O15 0.889224 0.000000 0.817837
O O16 0.854027 0.080122 0.000000
O O17 0.399677 0.000000 0.828456
O O18 0.372864 0.907633 0.000000
O O19 0.343123 0.260993 0.500000
#
# Coordination Sequence:
#
# PCOD8267867 Si02
#       7
#    16  16  16  16  16  16  16
#     4   9  17  31  53  77  96 116 149 194 237 280
#     4   9  18  30  45  68  95 126 166 203 233 269
#     4   9  16  29  50  72  94 121 154 191 232 278
#     4  10  19  31  48  68  95 129 161 197 239 279
#     4   9  18  31  46  67  97 130 160 192 232 274
#     4  10  21  35  50  70  96 125 157 194 236 281
#     4   9  16  28  47  69  94 123 157 198 239 275
#
# _framework density 17.954799999999999
#
# number of rings (size 3 to 8) (size 9 to 14) (size 15 to 20)
#    0.000    2.714    1.429    0.429    0.000    3.714 
#    0.000    4.286    0.000    6.429    0.000    4.000 
#    0.000    0.000    0.000    7.143    0.000    7.429 
#
# Total GULP energy -693882.685590 kJ/mol
# GULP energy per Si atom -12390.762243 kJ/mol
# Density = 1.791393 g / cm^3
# Si number density = 17.954800 Si / 1000 Ang^3
#
#
#
# Elastic Constant Matrix: (Units=GPa)
#
#
# Indices 1 2 3 4 5 6 
#
# 1 85.1528 35.8060 26.8151 0.0000 0.0000 0.0000
# 2 35.8060 102.9932 20.1183 0.0000 0.0000 0.0000
# 3 26.8151 20.1183 40.5001 0.0000 0.0000 0.0000
# 4 0.0000 0.0000 0.0000 18.1835 0.0000 0.0000
# 5 0.0000 0.0000 0.0000 0.0000 -3.1325 0.0000
# 6 0.0000 0.0000 0.0000 0.0000 0.0000 9.7116
#
#
#
# Elastic Compliance Matrix: (Units=1/GPa)
#
#
# Indices 1 2 3 4 5 6 
#
# 1 0.016139 -0.003902 -0.008747 0.000000 0.000000 0.000000
# 2 -0.003902 0.011696 -0.003226 0.000000 0.000000 0.000000
# 3 -0.008747 -0.003226 0.032086 0.000000 0.000000 0.000000
# 4 0.000000 0.000000 0.000000 0.054995 0.000000 0.000000
# 5 0.000000 0.000000 0.000000 0.000000 -0.319237 0.000000
# 6 0.000000 0.000000 0.000000 0.000000 0.000000 0.102970
#
#
# Mechanical properties :
#
#
# Convention : Reuss Voigt Hill
#
# Bulk Modulus (GPa) = 35.49985 43.79164 39.64575
# Shear Modulus (GPa) = -83.04259 14.67964 -34.18147
#
# Velocity S-wave (km/s) = -6.80818 2.86245 -4.36793
# Velocity P-wave (km/s) = 6.47974 5.94708 1.81925
#
# Compressibility (1/GPa) = 0.02816913
#
# Stress axis : x y z
#
# Youngs Moduli (GPa) = 61.96181 85.49774 31.16662
#
# Poissons Ratio (x) = 0.33362 0.27262
# Poissons Ratio (y) = 0.24178 0.10056
# Poissons Ratio (z) = 0.54200 0.27585
#
# Static dielectric constant tensor:
#      x y z
#    x 3.212060 0.000000 0.000000 
#    y 0.000000 3.592000 0.000000 
#    z 0.000000 0.000000 3.209680 
# 
# 
# High freq. dielectric constant tensor:
#      x y z
#    x 1.661710 0.000000 0.000000 
#    y 0.000000 1.710260 0.000000 
#    z 0.000000 0.000000 1.675170 
# 
# From -- ./inp_files/32769.got.cif
#   From: 2010.03.12/outbox.cif.g09.slc.cpg/sg65_17_cif.got.tgz:32769.got - 2010.04.10 20:52:16.
