data_PCOD8267824
_publ_section_title
;
Structure prediction by ZEFSAII (Michael W. Deem and Ramdas Pophale) SiO2 
 PCOD8267824
Probable space group: C M M M
;
_chemical_formula_sum "Si O2"
_cell_formula_units_Z 64
_cell_length_a 7.775662
_cell_length_b 18.427057
_cell_length_c 22.698604
_cell_angle_alpha 90.000000
_cell_angle_beta 90.000000
_cell_angle_gamma 90.000000
_cell_volume 3252.314246
_symmetry_space_group_name_H-M "C M M M"
_symmetry_group_IT_number 65
_symmetry_cell_setting 'orthorhombic'
loop_
_space_group_symop_operation_xyz
x,y,z
-x,-y,z
x,-y,-z
-x,y,-z
-x,-y,-z
x,y,-z
-x,y,z
x,-y,z
1/2+x,1/2+y,z
1/2-x,1/2-y,z
1/2+x,1/2-y,-z
1/2-x,1/2+y,-z
1/2-x,1/2-y,-z
1/2+x,1/2+y,-z
1/2-x,1/2+y,z
1/2+x,1/2-y,z
loop_
_atom_site_type_symbol
_atom_site_label
_atom_site_fract_x
_atom_site_fract_y
_atom_site_fract_z
Si Si1 0.794810 0.917770 0.000000
Si Si2 0.703967 0.419301 0.776330
Si Si3 0.297623 0.666893 0.886837
Si Si4 0.191722 0.913503 0.353833
Si Si5 0.000000 0.413359 0.433548
O O1 0.721320 0.876810 0.942467
O O2 0.000000 0.916593 0.000000
O O3 0.725669 0.000000 0.000000
O O4 0.500000 0.423984 0.780952
O O5 0.781450 0.500000 0.785751
O O6 0.780914 0.366271 0.826442
O O7 0.752424 0.388623 0.711512
O O8 0.500000 0.657322 0.885851
O O9 0.250000 0.750000 0.892876
O O10 0.328883 0.883513 0.401086
O O11 0.000000 0.883536 0.369042
O O12 0.186080 0.000000 0.354549
O O13 0.000000 0.500000 0.432706
O O14 0.000000 0.383372 0.500000
#
# Coordination Sequence:
#
# PCOD8267824 Si02
#       5
#     8  16  16  16   8
#     4   9  17  30  51  73  90 121 170 206 232 279
#     4   8  14  27  47  65  84 119 163 201 235 280
#     4  10  19  31  47  69  97 124 153 199 247 294
#     4   8  14  25  40  59  85 120 160 199 240 286
#     4   9  16  24  36  60  94 127 157 191 237 295
#
# _framework density 19.678296
#
# number of rings (size 3 to 8) (size 9 to 14) (size 15 to 20)
#    0.000    3.250    0.000    2.625    0.000    3.500 
#    2.250    2.500    0.000    3.000    0.000    0.000 
#    0.000    1.000    0.500    0.000    0.000    0.000 
#
# Total GULP energy -396591.467710 kJ/mol
# GULP energy per Si atom -12393.483366 kJ/mol
# Density = 1.963351 g / cm^3
# Si number density = 19.678296 Si / 1000 Ang^3
#
#
#
# Elastic Constant Matrix: (Units=GPa)
#
#
# Indices 1 2 3 4 5 6 
#
# 1 63.3905 14.7206 61.3776 0.0000 0.0000 0.0000
# 2 14.7206 90.3856 64.6022 0.0000 0.0000 0.0000
# 3 61.3776 64.6022 209.2057 0.0000 0.0000 0.0000
# 4 0.0000 0.0000 0.0000 8.6390 0.0000 0.0000
# 5 0.0000 0.0000 0.0000 0.0000 12.7160 0.0000
# 6 0.0000 0.0000 0.0000 0.0000 0.0000 14.2367
#
#
#
# Elastic Compliance Matrix: (Units=1/GPa)
#
#
# Indices 1 2 3 4 5 6 
#
# 1 0.022159 0.001332 -0.006912 0.000000 0.000000 0.000000
# 2 0.001332 0.014277 -0.004799 0.000000 0.000000 0.000000
# 3 -0.006912 -0.004799 0.008290 0.000000 0.000000 0.000000
# 4 0.000000 0.000000 0.000000 0.115754 0.000000 0.000000
# 5 0.000000 0.000000 0.000000 0.000000 0.078641 0.000000
# 6 0.000000 0.000000 0.000000 0.000000 0.000000 0.070241
#
#
# Mechanical properties :
#
#
# Convention : Reuss Voigt Hill
#
# Bulk Modulus (GPa) = 41.72621 71.59808 56.66215
# Shear Modulus (GPa) = 14.78806 21.93710 18.36258
#
# Velocity S-wave (km/s) = 2.74431 3.34246 3.05805
# Velocity P-wave (km/s) = 5.59391 7.16655 6.42850
#
# Compressibility (1/GPa) = 0.02396575
#
# Stress axis : x y z
#
# Youngs Moduli (GPa) = 45.12896 70.04182 120.62782
#
# Poissons Ratio (x) = -0.09326 0.83380
# Poissons Ratio (y) = -0.06009 0.57894
# Poissons Ratio (z) = 0.31194 0.33616
#
# Static dielectric constant tensor:
#      x y z
#    x 3.420750 0.000000 0.000000 
#    y 0.000000 2.969510 0.000000 
#    z 0.000000 0.000000 4.017120 
# 
# 
# High freq. dielectric constant tensor:
#      x y z
#    x 1.743860 0.000000 0.000000 
#    y 0.000000 1.713400 0.000000 
#    z 0.000000 0.000000 1.777800 
# 
# From -- ./inp_files/59152.got.cif
#   From: 2010.03.12/outbox.cif.g09.slc.cpg/sg65_30_cif.got.tgz:59152.got - 2010.04.10 20:52:16.
