data_PCOD8267868
_publ_section_title
;
Structure prediction by ZEFSAII (Michael W. Deem and Ramdas Pophale) SiO2 
 PCOD8267868
Probable space group: C M M M
;
_chemical_formula_sum "Si O2"
_cell_formula_units_Z 80
_cell_length_a 9.257111
_cell_length_b 19.956528
_cell_length_c 26.683346
_cell_angle_alpha 90.000000
_cell_angle_beta 90.000000
_cell_angle_gamma 90.000000
_cell_volume 4929.475867
_symmetry_space_group_name_H-M "C M M M"
_symmetry_group_IT_number 65
_symmetry_cell_setting 'orthorhombic'
loop_
_space_group_symop_operation_xyz
x,y,z
-x,-y,z
x,-y,-z
-x,y,-z
-x,-y,-z
x,y,-z
-x,y,z
x,-y,z
1/2+x,1/2+y,z
1/2-x,1/2-y,z
1/2+x,1/2-y,-z
1/2-x,1/2+y,-z
1/2-x,1/2-y,-z
1/2+x,1/2+y,-z
1/2-x,1/2+y,z
1/2+x,1/2-y,z
loop_
_atom_site_type_symbol
_atom_site_label
_atom_site_fract_x
_atom_site_fract_y
_atom_site_fract_z
Si Si1 0.836909 0.925389 0.147660
Si Si2 0.832078 0.684254 0.678161
Si Si3 0.169507 0.683293 0.207160
Si Si4 0.337093 0.420383 0.500000
Si Si5 0.668532 0.076848 0.402963
Si Si6 0.830576 0.000000 0.945310
O O1 0.721396 0.878380 0.173895
O O2 0.793533 0.933793 0.088344
O O3 0.000000 0.896417 0.153359
O O4 0.830785 0.000000 0.172285
O O5 0.750000 0.750000 0.658677
O O6 0.789927 0.667573 0.735295
O O7 0.786406 0.620458 0.645097
O O8 0.000000 0.700002 0.672934
O O9 0.250000 0.750000 0.188754
O O10 0.000000 0.693300 0.199598
O O11 0.334434 0.500000 0.500000
O O12 0.500000 0.392255 0.500000
O O13 0.255405 0.394445 0.549438
O O14 0.500000 0.083456 0.415536
O O15 0.709989 0.000000 0.391006
O O16 0.000000 0.000000 0.954085
O O17 0.751852 0.000000 0.000000
#
# Coordination Sequence:
#
# PCOD8267868 Si02
#       6
#    16  16  16   8  16   8
#     4   8  16  29  47  72  98 123 156 195 234 279
#     4   9  19  33  48  67  91 122 155 189 229 276
#     4  10  19  31  48  68  95 129 162 196 237 282
#     4   9  17  29  46  69  94 115 143 183 230 275
#     4   9  17  31  50  69  89 116 150 186 225 272
#     4   7  12  26  49  73  97 127 159 192 235 282
#
# _framework density 16.228905000000001
#
# number of rings (size 3 to 8) (size 9 to 14) (size 15 to 20)
#    0.600    2.600    0.000    0.900    0.000    4.000 
#    0.000    2.500    0.000    4.200    0.000    0.000 
#    0.000    0.000    0.000    0.000    0.000    0.000 
#
# Total GULP energy -495678.765000 kJ/mol
# GULP energy per Si atom -12391.969125 kJ/mol
# Density = 1.619197 g / cm^3
# Si number density = 16.228905 Si / 1000 Ang^3
#
#
#
# Elastic Constant Matrix: (Units=GPa)
#
#
# Indices 1 2 3 4 5 6 
#
# 1 64.4302 40.8460 44.5464 0.0000 0.0000 0.0000
# 2 40.8460 83.4514 60.4032 0.0000 0.0000 0.0000
# 3 44.5464 60.4032 103.6314 0.0000 0.0000 0.0000
# 4 0.0000 0.0000 0.0000 4.1131 0.0000 0.0000
# 5 0.0000 0.0000 0.0000 0.0000 17.7518 0.0000
# 6 0.0000 0.0000 0.0000 0.0000 0.0000 28.4800
#
#
#
# Elastic Compliance Matrix: (Units=1/GPa)
#
#
# Indices 1 2 3 4 5 6 
#
# 1 0.024575 -0.007580 -0.006145 0.000000 0.000000 0.000000
# 2 -0.007580 0.023066 -0.010186 0.000000 0.000000 0.000000
# 3 -0.006145 -0.010186 0.018228 0.000000 0.000000 0.000000
# 4 0.000000 0.000000 0.000000 0.243125 0.000000 0.000000
# 5 0.000000 0.000000 0.000000 0.000000 0.056332 0.000000
# 6 0.000000 0.000000 0.000000 0.000000 0.000000 0.035112
#
#
# Mechanical properties :
#
#
# Convention : Reuss Voigt Hill
#
# Bulk Modulus (GPa) = 55.41396 60.34491 57.87944
# Shear Modulus (GPa) = 11.00648 17.11681 14.06164
#
# Velocity S-wave (km/s) = 2.60706 3.25115 2.94676
# Velocity P-wave (km/s) = 6.57888 7.16643 6.87893
#
# Compressibility (1/GPa) = 0.01804599
#
# Stress axis : x y z
#
# Youngs Moduli (GPa) = 40.69138 43.35382 54.86000
#
# Poissons Ratio (x) = 0.32864 0.33714
# Poissons Ratio (y) = 0.30846 0.55880
# Poissons Ratio (z) = 0.25006 0.44160
#
# Static dielectric constant tensor:
#      x y z
#    x 2.978700 0.000000 0.000000 
#    y 0.000000 2.898410 0.000000 
#    z 0.000000 0.000000 3.271210 
# 
# 
# High freq. dielectric constant tensor:
#      x y z
#    x 1.618990 0.000000 0.000000 
#    y 0.000000 1.603830 0.000000 
#    z 0.000000 0.000000 1.617170 
# 
# From -- ./inp_files/73021.got.cif
#   From: 2010.03.12/outbox.cif.g09.slc.cpg/sg65_37_cif.got.tgz:73021.got - 2010.04.10 20:52:16.
