data_PCOD8267863
_publ_section_title
;
Structure prediction by ZEFSAII (Michael W. Deem and Ramdas Pophale) SiO2 
 PCOD8267863
Probable space group: C M M M
;
_chemical_formula_sum "Si O2"
_cell_formula_units_Z 80
_cell_length_a 27.728205
_cell_length_b 8.888092
_cell_length_c 18.866890
_cell_angle_alpha 90.000000
_cell_angle_beta 90.000000
_cell_angle_gamma 90.000000
_cell_volume 4649.760833
_symmetry_space_group_name_H-M "C M M M"
_symmetry_group_IT_number 65
_symmetry_cell_setting 'orthorhombic'
loop_
_space_group_symop_operation_xyz
x,y,z
-x,-y,z
x,-y,-z
-x,y,-z
-x,-y,-z
x,y,-z
-x,y,z
x,-y,z
1/2+x,1/2+y,z
1/2-x,1/2-y,z
1/2+x,1/2-y,-z
1/2-x,1/2+y,-z
1/2-x,1/2-y,-z
1/2+x,1/2+y,-z
1/2-x,1/2+y,z
1/2+x,1/2-y,z
loop_
_atom_site_type_symbol
_atom_site_label
_atom_site_fract_x
_atom_site_fract_y
_atom_site_fract_z
Si Si1 0.198878 0.177897 0.579112
Si Si2 0.856360 0.177089 0.287504
Si Si3 0.801004 0.822373 0.148939
Si Si4 0.554411 0.322690 0.201845
Si Si5 0.110311 0.326324 0.918978
O O1 0.181418 0.222943 0.500000
O O2 0.250000 0.250000 0.596865
O O3 0.160060 0.242210 0.636043
O O4 0.205013 0.000000 0.586120
O O5 0.817617 0.225024 0.227991
O O6 0.909599 0.234766 0.264376
O O7 0.858353 0.000000 0.293947
O O8 0.750000 0.750000 0.131319
O O9 0.839774 0.761236 0.093134
O O10 0.797218 0.000000 0.140448
O O11 0.500000 0.281891 0.224293
O O12 0.561180 0.500000 0.189181
O O13 0.567440 0.240912 0.128683
O O14 0.118231 0.500000 0.899293
O O15 0.094268 0.305777 0.000000
#
# Coordination Sequence:
#
# PCOD8267863 Si02
#       5
#    16  16  16  16  16
#     4   9  16  26  42  65  94 125 153 182 218 261
#     4   8  15  28  45  66  91 119 152 188 224 264
#     4  10  19  31  48  68  92 123 157 191 226 268
#     4   9  18  33  52  70  88 115 151 190 232 277
#     4  10  21  35  49  67  92 119 148 186 231 277
#
# _framework density 17.205186000000001
#
# number of rings (size 3 to 8) (size 9 to 14) (size 15 to 20)
#    0.000    2.800    0.000    3.000    0.000    2.800 
#    0.000    6.000    0.000    0.600    0.000    4.200 
#    0.000    0.000    0.000   12.200    0.000   13.200 
#
# Total GULP energy -495840.399327 kJ/mol
# GULP energy per Si atom -12396.009983 kJ/mol
# Density = 1.716603 g / cm^3
# Si number density = 17.205186 Si / 1000 Ang^3
#
#
#
# Elastic Constant Matrix: (Units=GPa)
#
#
# Indices 1 2 3 4 5 6 
#
# 1 119.5140 32.5584 60.1552 0.0000 0.0000 0.0000
# 2 32.5584 46.7820 27.3234 0.0000 0.0000 0.0000
# 3 60.1552 27.3234 120.4356 0.0000 0.0000 0.0000
# 4 0.0000 0.0000 0.0000 16.6679 0.0000 0.0000
# 5 0.0000 0.0000 0.0000 0.0000 19.6915 0.0000
# 6 0.0000 0.0000 0.0000 0.0000 0.0000 23.9880
#
#
#
# Elastic Compliance Matrix: (Units=1/GPa)
#
#
# Indices 1 2 3 4 5 6 
#
# 1 0.012398 -0.005777 -0.004882 0.000000 0.000000 0.000000
# 2 -0.005777 0.027333 -0.003315 0.000000 0.000000 0.000000
# 3 -0.004882 -0.003315 0.011494 0.000000 0.000000 0.000000
# 4 0.000000 0.000000 0.000000 0.059996 0.000000 0.000000
# 5 0.000000 0.000000 0.000000 0.000000 0.050783 0.000000
# 6 0.000000 0.000000 0.000000 0.000000 0.000000 0.041687
#
#
# Mechanical properties :
#
#
# Convention : Reuss Voigt Hill
#
# Bulk Modulus (GPa) = 42.96346 58.53396 50.74871
# Shear Modulus (GPa) = 20.88556 23.18245 22.03400
#
# Velocity S-wave (km/s) = 3.48790 3.67469 3.58251
# Velocity P-wave (km/s) = 6.42231 7.21799 6.83175
#
# Compressibility (1/GPa) = 0.02327560
#
# Stress axis : x y z
#
# Youngs Moduli (GPa) = 80.65558 36.58582 87.00316
#
# Poissons Ratio (x) = 0.21137 0.42475
# Poissons Ratio (y) = 0.46598 0.28845
# Poissons Ratio (z) = 0.39376 0.12130
#
# Static dielectric constant tensor:
#      x y z
#    x 3.294730 0.000000 0.000000 
#    y 0.000000 3.101890 0.000000 
#    z 0.000000 0.000000 3.462890 
# 
# 
# High freq. dielectric constant tensor:
#      x y z
#    x 1.655540 0.000000 0.000000 
#    y 0.000000 1.652130 0.000000 
#    z 0.000000 0.000000 1.658280 
# 
# From -- ./inp_files/49847.got.cif
#   From: 2010.03.12/outbox.cif.g09.slc.cpg/sg65_25_cif.got.tgz:49847.got - 2010.04.10 20:52:16.
