data_PCOD8267582
_publ_section_title
;
Structure prediction by ZEFSAII (Michael W. Deem and Ramdas Pophale) SiO2 
 PCOD8267582
Probable space group: C M M M
;
_chemical_formula_sum "Si O2"
_cell_formula_units_Z 96
_cell_length_a 31.107860
_cell_length_b 9.285311
_cell_length_c 18.573713
_cell_angle_alpha 90.000000
_cell_angle_beta 90.000000
_cell_angle_gamma 90.000000
_cell_volume 5364.945578
_symmetry_space_group_name_H-M "C M M M"
_symmetry_group_IT_number 65
_symmetry_cell_setting 'orthorhombic'
loop_
_space_group_symop_operation_xyz
x,y,z
-x,-y,z
x,-y,-z
-x,y,-z
-x,-y,-z
x,y,-z
-x,y,z
x,-y,z
1/2+x,1/2+y,z
1/2-x,1/2-y,z
1/2+x,1/2-y,-z
1/2-x,1/2+y,-z
1/2-x,1/2-y,-z
1/2+x,1/2+y,-z
1/2-x,1/2+y,z
1/2+x,1/2-y,z
loop_
_atom_site_type_symbol
_atom_site_label
_atom_site_fract_x
_atom_site_fract_y
_atom_site_fract_z
Si Si1 0.207589 0.833895 0.914865
Si Si2 0.453142 0.338556 0.672785
Si Si3 0.047603 0.161964 0.156162
Si Si4 0.207601 0.331969 0.582887
Si Si5 0.372299 0.834098 0.326155
Si Si6 0.370287 0.167888 0.842941
O O1 0.250000 0.750000 0.888218
O O2 0.166807 0.757057 0.880760
O O3 0.210272 0.000000 0.889363
O O4 0.202998 0.823790 0.000000
O O5 0.500000 0.281582 0.646371
O O6 0.445891 0.500000 0.644395
O O7 0.452364 0.336040 0.758380
O O8 0.414947 0.240897 0.642330
O O9 0.083880 0.272321 0.127917
O O10 0.000000 0.208881 0.128209
O O11 0.058121 0.000000 0.128851
O O12 0.196942 0.297887 0.500000
O O13 0.215439 0.500000 0.596099
O O14 0.250000 0.250000 0.608743
O O15 0.168674 0.272379 0.631322
O O16 0.365583 0.805897 0.241947
O O17 0.378426 0.000000 0.343907
O O18 0.366846 0.000000 0.863204
#
# Coordination Sequence:
#
# PCOD8267582 Si02
#       6
#    16  16  16  16  16  16
#     4  10  21  37  55  72  92 122 159 194 230 277
#     4   8  14  25  42  65  92 122 155 189 227 272
#     4   8  14  26  44  66  94 127 160 192 228 273
#     4   9  18  33  50  66  88 120 157 194 231 275
#     4   9  18  30  45  70  98 122 153 192 233 274
#     4  10  19  30  47  73 102 126 152 191 236 280
#
# _framework density 17.893937000000001
#
# number of rings (size 3 to 8) (size 9 to 14) (size 15 to 20)
#    0.000    3.000    0.000    2.000    0.000    3.667 
#    0.000    5.000    0.000    1.000    0.000    7.000 
#    0.000    0.000    0.000    0.000    0.000    0.000 
#
# Total GULP energy -595012.212646 kJ/mol
# GULP energy per Si atom -12396.087763 kJ/mol
# Density = 1.785321 g / cm^3
# Si number density = 17.893937 Si / 1000 Ang^3
#
#
#
# Elastic Constant Matrix: (Units=GPa)
#
#
# Indices 1 2 3 4 5 6 
#
# 1 187.8727 91.6076 35.7841 0.0000 0.0000 0.0000
# 2 91.6076 107.8514 26.9657 0.0000 0.0000 0.0000
# 3 35.7841 26.9657 18.2594 0.0000 0.0000 0.0000
# 4 0.0000 0.0000 0.0000 17.6655 0.0000 0.0000
# 5 0.0000 0.0000 0.0000 0.0000 -7.1360 0.0000
# 6 0.0000 0.0000 0.0000 0.0000 0.0000 42.2397
#
#
#
# Elastic Compliance Matrix: (Units=1/GPa)
#
#
# Indices 1 2 3 4 5 6 
#
# 1 0.010454 -0.005956 -0.011690 0.000000 0.000000 0.000000
# 2 -0.005956 0.018094 -0.015048 0.000000 0.000000 0.000000
# 3 -0.011690 -0.015048 0.099900 0.000000 0.000000 0.000000
# 4 0.000000 0.000000 0.000000 0.056607 0.000000 0.000000
# 5 0.000000 0.000000 0.000000 0.000000 -0.140134 0.000000
# 6 0.000000 0.000000 0.000000 0.000000 0.000000 0.023674
#
#
# Mechanical properties :
#
#
# Convention : Reuss Voigt Hill
#
# Bulk Modulus (GPa) = 15.85851 69.18871 42.52361
# Shear Modulus (GPa) = 32.25742 21.19558 26.72650
#
# Velocity S-wave (km/s) = 4.25043 3.44541 3.86891
# Velocity P-wave (km/s) = 5.74195 7.38767 6.61618
#
# Compressibility (1/GPa) = 0.06305763
#
# Stress axis : x y z
#
# Youngs Moduli (GPa) = 95.65894 55.26802 10.01006
#
# Poissons Ratio (x) = 0.32920 0.11702
# Poissons Ratio (y) = 0.56978 0.15063
# Poissons Ratio (z) = 1.11830 0.83166
#
# Static dielectric constant tensor:
#      x y z
#    x 3.734780 0.000000 0.000000 
#    y 0.000000 3.438440 0.000000 
#    z 0.000000 0.000000 2.947250 
# 
# 
# High freq. dielectric constant tensor:
#      x y z
#    x 1.710760 0.000000 0.000000 
#    y 0.000000 1.693570 0.000000 
#    z 0.000000 0.000000 1.646080 
# 
# From -- ./inp_files/60225.got.cif
#   From: 2010.03.12/outbox.cif.g09.slc.cpg/sg65_31_cif.got.tgz:60225.got - 2010.04.10 20:52:16.
