data_PCOD8267790
_publ_section_title
;
Structure prediction by ZEFSAII (Michael W. Deem and Ramdas Pophale) SiO2 
 PCOD8267790
Probable space group: C M M M
;
_chemical_formula_sum "Si O2"
_cell_formula_units_Z 72
_cell_length_a 19.036846
_cell_length_b 9.720676
_cell_length_c 23.055253
_cell_angle_alpha 90.000000
_cell_angle_beta 90.000000
_cell_angle_gamma 90.000000
_cell_volume 4266.397900
_symmetry_space_group_name_H-M "C M M M"
_symmetry_group_IT_number 65
_symmetry_cell_setting 'orthorhombic'
loop_
_space_group_symop_operation_xyz
x,y,z
-x,-y,z
x,-y,-z
-x,y,-z
-x,-y,-z
x,y,-z
-x,y,z
x,-y,z
1/2+x,1/2+y,z
1/2-x,1/2-y,z
1/2+x,1/2-y,-z
1/2-x,1/2+y,-z
1/2-x,1/2-y,-z
1/2+x,1/2+y,-z
1/2-x,1/2+y,z
1/2+x,1/2-y,z
loop_
_atom_site_type_symbol
_atom_site_label
_atom_site_fract_x
_atom_site_fract_y
_atom_site_fract_z
Si Si1 0.178770 0.335666 0.500000
Si Si2 0.184439 0.841493 0.934167
Si Si3 0.083522 0.653090 0.730726
Si Si4 0.919020 0.841610 0.833382
Si Si5 0.921803 0.336886 0.397005
O O1 0.193382 0.500000 0.500000
O O2 0.250000 0.250000 0.500000
O O3 0.134222 0.286998 0.555777
O O4 0.250000 0.750000 0.915153
O O5 0.119836 0.803171 0.892815
O O6 0.206596 0.000000 0.927397
O O7 0.161069 0.808499 0.000000
O O8 0.114126 0.500000 0.741571
O O9 0.113264 0.753815 0.780286
O O10 0.105254 0.709113 0.666909
O O11 0.000000 0.648588 0.733131
O O12 0.000000 0.805309 0.844057
O O13 0.908487 0.000000 0.816541
O O14 0.927919 0.500000 0.398253
O O15 0.000000 0.276191 0.410269
#
# Coordination Sequence:
#
# PCOD8267790 Si02
#       5
#     8  16  16  16  16
#     4  10  19  31  47  67  93 120 146 182 226 266
#     4   9  18  32  48  65  87 117 151 185 220 259
#     4   8  14  26  45  68  91 114 144 183 222 258
#     4   9  17  29  46  69  94 117 143 178 222 268
#     4   8  14  27  49  71  86 110 153 192 216 250
#
# _framework density 16.876062999999998
#
# number of rings (size 3 to 8) (size 9 to 14) (size 15 to 20)
#    0.000    3.333    0.000    1.667    0.000    2.667 
#    0.000    4.444    0.000    8.000    0.000    6.222 
#    0.000    0.000    0.000    0.000    0.000    0.000 
#
# Total GULP energy -446209.491846 kJ/mol
# GULP energy per Si atom -12394.708107 kJ/mol
# Density = 1.683765 g / cm^3
# Si number density = 16.876063 Si / 1000 Ang^3
#
#
#
# Elastic Constant Matrix: (Units=GPa)
#
#
# Indices 1 2 3 4 5 6 
#
# 1 81.4071 41.1712 71.4076 0.0000 0.0000 0.0000
# 2 41.1712 53.4279 59.5290 0.0000 0.0000 0.0000
# 3 71.4076 59.5290 150.5949 0.0000 0.0000 0.0000
# 4 0.0000 0.0000 0.0000 25.2454 0.0000 0.0000
# 5 0.0000 0.0000 0.0000 0.0000 9.9115 0.0000
# 6 0.0000 0.0000 0.0000 0.0000 0.0000 23.3685
#
#
#
# Elastic Compliance Matrix: (Units=1/GPa)
#
#
# Indices 1 2 3 4 5 6 
#
# 1 0.023842 -0.010323 -0.007225 0.000000 0.000000 0.000000
# 2 -0.010323 0.037918 -0.010094 0.000000 0.000000 0.000000
# 3 -0.007225 -0.010094 0.014056 0.000000 0.000000 0.000000
# 4 0.000000 0.000000 0.000000 0.039611 0.000000 0.000000
# 5 0.000000 0.000000 0.000000 0.000000 0.100893 0.000000
# 6 0.000000 0.000000 0.000000 0.000000 0.000000 0.042793
#
#
# Mechanical properties :
#
#
# Convention : Reuss Voigt Hill
#
# Bulk Modulus (GPa) = 48.70121 69.96061 59.33091
# Shear Modulus (GPa) = 15.56467 19.25987 17.41227
#
# Velocity S-wave (km/s) = 3.04022 3.38191 3.21561
# Velocity P-wave (km/s) = 6.42221 7.53626 7.00143
#
# Compressibility (1/GPa) = 0.02053337
#
# Stress axis : x y z
#
# Youngs Moduli (GPa) = 41.94319 26.37255 71.14353
#
# Poissons Ratio (x) = 0.27224 0.51398
# Poissons Ratio (y) = 0.43297 0.71813
# Poissons Ratio (z) = 0.30302 0.26621
#
# Static dielectric constant tensor:
#      x y z
#    x 2.981060 0.000000 0.000000 
#    y 0.000000 3.060320 0.000000 
#    z 0.000000 0.000000 3.601320 
# 
# 
# High freq. dielectric constant tensor:
#      x y z
#    x 1.621310 0.000000 0.000000 
#    y 0.000000 1.625890 0.000000 
#    z 0.000000 0.000000 1.665480 
# 
# From -- ./inp_files/54094.got.cif
#   From: 2010.03.12/outbox.cif.g09.slc.cpg/sg65_28_cif.got.tgz:54094.got - 2010.04.10 20:52:16.
