data_PCOD8267964
_publ_section_title
;
Structure prediction by ZEFSAII (Michael W. Deem and Ramdas Pophale) SiO2 
 PCOD8267964
Probable space group: C M M M
;
_chemical_formula_sum "Si O2"
_cell_formula_units_Z 88
_cell_length_a 18.215916
_cell_length_b 9.054870
_cell_length_c 28.516400
_cell_angle_alpha 90.000000
_cell_angle_beta 90.000000
_cell_angle_gamma 90.000000
_cell_volume 4703.573473
_symmetry_space_group_name_H-M "C M M M"
_symmetry_group_IT_number 65
_symmetry_cell_setting 'orthorhombic'
loop_
_space_group_symop_operation_xyz
x,y,z
-x,-y,z
x,-y,-z
-x,y,-z
-x,-y,-z
x,y,-z
-x,y,z
x,-y,z
1/2+x,1/2+y,z
1/2-x,1/2-y,z
1/2+x,1/2-y,-z
1/2-x,1/2+y,-z
1/2-x,1/2-y,-z
1/2+x,1/2+y,-z
1/2-x,1/2+y,z
1/2+x,1/2-y,z
loop_
_atom_site_type_symbol
_atom_site_label
_atom_site_fract_x
_atom_site_fract_y
_atom_site_fract_z
Si Si1 0.082380 0.175206 0.819040
Si Si2 0.328242 0.324630 0.728604
Si Si3 0.674275 0.326766 0.447415
Si Si4 0.671330 0.324458 0.090615
Si Si5 0.917510 0.824777 0.000000
Si Si6 0.081544 0.175404 0.360671
O O1 0.122348 0.229362 0.771989
O O2 0.127910 0.232194 0.863686
O O3 0.000000 0.241465 0.820425
O O4 0.077827 0.000000 0.820031
O O5 0.318121 0.500000 0.728534
O O6 0.250000 0.250000 0.732952
O O7 0.367410 0.266902 0.681383
O O8 0.648168 0.284498 0.500000
O O9 0.687508 0.500000 0.442654
O O10 0.750000 0.250000 0.434355
O O11 0.613478 0.271199 0.410633
O O12 0.681364 0.500000 0.090710
O O13 0.750000 0.250000 0.089563
O O14 0.625472 0.269078 0.045791
O O15 0.000000 0.758717 0.000000
O O16 0.922105 0.000000 0.000000
O O17 0.000000 0.242474 0.355269
O O18 0.077491 0.000000 0.358611
#
# Coordination Sequence:
#
# PCOD8267964 Si02
#       6
#    16  16  16  16   8  16
#     4   9  17  30  49  71  92 118 155 192 223 261
#     4  10  19  31  49  70  92 119 150 186 226 268
#     4   9  17  29  46  67  90 117 148 183 223 266
#     4  10  19  31  49  71  95 122 152 189 229 270
#     4   9  17  30  49  71  92 119 158 196 226 261
#     4   9  17  29  46  68  91 116 150 189 224 260
#
# _framework density 18.709178000000001
#
# number of rings (size 3 to 8) (size 9 to 14) (size 15 to 20)
#    0.000    2.636    0.000    2.455    0.000    4.727 
#    0.000    1.818    0.000    7.636    0.000    2.545 
#    0.000    0.000    0.000    0.000    0.000    0.000 
#
# Total GULP energy -545576.008203 kJ/mol
# GULP energy per Si atom -12399.454732 kJ/mol
# Density = 1.866660 g / cm^3
# Si number density = 18.709178 Si / 1000 Ang^3
#
#
#
# Elastic Constant Matrix: (Units=GPa)
#
#
# Indices 1 2 3 4 5 6 
#
# 1 195.1754 25.8578 102.7519 0.0000 0.0000 0.0000
# 2 25.8578 14.2166 19.4448 0.0000 0.0000 0.0000
# 3 102.7519 19.4448 171.9673 0.0000 0.0000 0.0000
# 4 0.0000 0.0000 0.0000 9.4956 0.0000 0.0000
# 5 0.0000 0.0000 0.0000 0.0000 40.0792 0.0000
# 6 0.0000 0.0000 0.0000 0.0000 0.0000 27.4554
#
#
#
# Elastic Compliance Matrix: (Units=1/GPa)
#
#
# Indices 1 2 3 4 5 6 
#
# 1 0.008554 -0.010135 -0.003965 0.000000 0.000000 0.000000
# 2 -0.010135 0.095217 -0.004711 0.000000 0.000000 0.000000
# 3 -0.003965 -0.004711 0.008717 0.000000 0.000000 0.000000
# 4 0.000000 0.000000 0.000000 0.105312 0.000000 0.000000
# 5 0.000000 0.000000 0.000000 0.000000 0.024951 0.000000
# 6 0.000000 0.000000 0.000000 0.000000 0.000000 0.036423
#
#
# Mechanical properties :
#
#
# Convention : Reuss Voigt Hill
#
# Bulk Modulus (GPa) = 13.35709 75.27426 44.31567
# Shear Modulus (GPa) = 14.63060 30.95970 22.79515
#
# Velocity S-wave (km/s) = 2.79946 4.07232 3.49434
# Velocity P-wave (km/s) = 4.19573 7.90145 6.32602
#
# Compressibility (1/GPa) = 0.07486660
#
# Stress axis : x y z
#
# Youngs Moduli (GPa) = 116.90901 10.50230 114.72092
#
# Poissons Ratio (x) = 0.10644 0.45486
# Poissons Ratio (y) = 1.18484 0.54044
# Poissons Ratio (z) = 0.46354 0.04948
#
# Static dielectric constant tensor:
#      x y z
#    x 3.651130 0.000000 0.000000 
#    y 0.000000 2.896200 0.000000 
#    z 0.000000 0.000000 3.820350 
# 
# 
# High freq. dielectric constant tensor:
#      x y z
#    x 1.739250 0.000000 0.000000 
#    y 0.000000 1.666180 0.000000 
#    z 0.000000 0.000000 1.748710 
# 
# From -- ./inp_files/74245.got.cif
#   From: 2010.03.12/outbox.cif.g09.slc.cpg/sg65_38_cif.got.tgz:74245.got - 2010.04.10 20:52:16.
