data_PCOD8267187
_publ_section_title
;
Structure prediction by ZEFSAII (Michael W. Deem and Ramdas Pophale) SiO2 
 PCOD8267187
Probable space group: C M M M
;
_chemical_formula_sum "Si O2"
_cell_formula_units_Z 104
_cell_length_a 18.966262
_cell_length_b 9.034569
_cell_length_c 33.115336
_cell_angle_alpha 90.000000
_cell_angle_beta 90.000000
_cell_angle_gamma 90.000000
_cell_volume 5674.379144
_symmetry_space_group_name_H-M "C M M M"
_symmetry_group_IT_number 65
_symmetry_cell_setting 'orthorhombic'
loop_
_space_group_symop_operation_xyz
x,y,z
-x,-y,z
x,-y,-z
-x,y,-z
-x,-y,-z
x,y,-z
-x,y,z
x,-y,z
1/2+x,1/2+y,z
1/2-x,1/2-y,z
1/2+x,1/2-y,-z
1/2-x,1/2+y,-z
1/2-x,1/2-y,-z
1/2+x,1/2+y,-z
1/2-x,1/2+y,z
1/2+x,1/2-y,z
loop_
_atom_site_type_symbol
_atom_site_label
_atom_site_fract_x
_atom_site_fract_y
_atom_site_fract_z
Si Si1 0.821741 0.327040 0.953346
Si Si2 0.416836 0.331303 0.891268
Si Si3 0.918814 0.328069 0.810373
Si Si4 0.421370 0.175660 0.427561
Si Si5 0.578920 0.175866 0.662255
Si Si6 0.174630 0.323439 0.500000
Si Si7 0.325205 0.175025 0.265759
O O1 0.814679 0.500000 0.945058
O O2 0.750000 0.250000 0.938962
O O3 0.885744 0.261571 0.928028
O O4 0.837414 0.291966 0.000000
O O5 0.500000 0.318137 0.895288
O O6 0.390764 0.500000 0.893798
O O7 0.391711 0.264470 0.848677
O O8 0.909307 0.500000 0.820739
O O9 0.871650 0.279473 0.772688
O O10 0.000000 0.291949 0.799824
O O11 0.500000 0.236222 0.437059
O O12 0.397701 0.227285 0.382695
O O13 0.366734 0.236170 0.460583
O O14 0.423354 0.000000 0.429634
O O15 0.500000 0.235569 0.671732
O O16 0.634571 0.238150 0.694679
O O17 0.577283 0.000000 0.664993
O O18 0.181862 0.500000 0.500000
O O19 0.250000 0.250000 0.500000
O O20 0.250000 0.250000 0.262307
O O21 0.315005 0.000000 0.268360
#
# Coordination Sequence:
#
# PCOD8267187 Si02
#       7
#    16  16  16  16  16   8  16
#     4  10  21  37  57  80 107 140 176 213 254 301
#     4  10  21  36  55  80 108 137 170 210 255 301
#     4   9  18  34  54  72  93 126 168 209 245 286
#     4   8  14  26  46  69  90 117 159 206 240 273
#     4   8  14  27  48  71  92 118 158 204 243 280
#     4  10  19  29  43  67  97 126 156 192 240 292
#     4  10  20  32  48  72  99 126 157 196 244 295
#
# _framework density 18.327995999999999
#
# number of rings (size 3 to 8) (size 9 to 14) (size 15 to 20)
#    0.000    2.769    0.000    2.538    0.000    6.769 
#    0.000    3.077    0.000    2.308    0.000    2.154 
#    0.000    0.000    0.000    0.000    0.000    0.000 
#
# Total GULP energy -644744.573615 kJ/mol
# GULP energy per Si atom -12398.934108 kJ/mol
# Density = 1.828628 g / cm^3
# Si number density = 18.327996 Si / 1000 Ang^3
#
#
#
# Elastic Constant Matrix: (Units=GPa)
#
#
# Indices 1 2 3 4 5 6 
#
# 1 107.4623 36.9728 82.0074 0.0000 0.0000 0.0000
# 2 36.9728 50.7784 49.3635 0.0000 0.0000 0.0000
# 3 82.0074 49.3635 144.7333 0.0000 0.0000 0.0000
# 4 0.0000 0.0000 0.0000 14.8321 0.0000 0.0000
# 5 0.0000 0.0000 0.0000 0.0000 20.6234 0.0000
# 6 0.0000 0.0000 0.0000 0.0000 0.0000 30.9968
#
#
#
# Elastic Compliance Matrix: (Units=1/GPa)
#
#
# Indices 1 2 3 4 5 6 
#
# 1 0.017062 -0.004526 -0.008124 0.000000 0.000000 0.000000
# 2 -0.004526 0.030662 -0.007894 0.000000 0.000000 0.000000
# 3 -0.008124 -0.007894 0.014205 0.000000 0.000000 0.000000
# 4 0.000000 0.000000 0.000000 0.067421 0.000000 0.000000
# 5 0.000000 0.000000 0.000000 0.000000 0.048489 0.000000
# 6 0.000000 0.000000 0.000000 0.000000 0.000000 0.032261
#
#
# Mechanical properties :
#
#
# Convention : Reuss Voigt Hill
#
# Bulk Modulus (GPa) = 47.97866 71.07348 59.52607
# Shear Modulus (GPa) = 19.36970 22.26582 20.81776
#
# Velocity S-wave (km/s) = 3.25443 3.48926 3.37389
# Velocity P-wave (km/s) = 6.35267 7.42267 6.90842
#
# Compressibility (1/GPa) = 0.02084260
#
# Stress axis : x y z
#
# Youngs Moduli (GPa) = 58.60813 32.61339 70.39908
#
# Poissons Ratio (x) = 0.14760 0.57194
# Poissons Ratio (y) = 0.26524 0.55570
# Poissons Ratio (z) = 0.47615 0.25743
#
# Static dielectric constant tensor:
#      x y z
#    x 3.369190 0.000000 0.000000 
#    y 0.000000 3.086570 0.000000 
#    z 0.000000 0.000000 3.653220 
# 
# 
# High freq. dielectric constant tensor:
#      x y z
#    x 1.708580 0.000000 0.000000 
#    y 0.000000 1.676400 0.000000 
#    z 0.000000 0.000000 1.724530 
# 
# From -- ./inp_files/78189.got.cif
#   From: 2010.03.12/outbox.cif.g09.slc.cpg/sg65_40_cif.got.tgz:78189.got - 2010.04.10 20:52:16.
