data_PCOD8267975
_publ_section_title
;
Structure prediction by ZEFSAII (Michael W. Deem and Ramdas Pophale) SiO2 
 PCOD8267975
Probable space group: C M M M
;
_chemical_formula_sum "Si O2"
_cell_formula_units_Z 80
_cell_length_a 19.913035
_cell_length_b 8.741280
_cell_length_c 25.794482
_cell_angle_alpha 90.000000
_cell_angle_beta 90.000000
_cell_angle_gamma 90.000000
_cell_volume 4489.927203
_symmetry_space_group_name_H-M "C M M M"
_symmetry_group_IT_number 65
_symmetry_cell_setting 'orthorhombic'
loop_
_space_group_symop_operation_xyz
x,y,z
-x,-y,z
x,-y,-z
-x,y,-z
-x,-y,-z
x,y,-z
-x,y,z
x,-y,z
1/2+x,1/2+y,z
1/2-x,1/2-y,z
1/2+x,1/2-y,-z
1/2-x,1/2+y,-z
1/2-x,1/2-y,-z
1/2+x,1/2+y,-z
1/2-x,1/2+y,z
1/2+x,1/2-y,z
loop_
_atom_site_type_symbol
_atom_site_label
_atom_site_fract_x
_atom_site_fract_y
_atom_site_fract_z
Si Si1 0.924538 0.819970 0.339940
Si Si2 0.678264 0.182852 0.856933
Si Si3 0.821902 0.817375 0.747076
Si Si4 0.074876 0.681667 0.942427
Si Si5 0.579715 0.827169 0.556279
O O1 0.876323 0.759290 0.294612
O O2 0.893179 0.771696 0.395544
O O3 0.000000 0.752366 0.331989
O O4 0.927589 0.000000 0.338358
O O5 0.750000 0.250000 0.872756
O O6 0.654658 0.249647 0.801967
O O7 0.626381 0.245012 0.899876
O O8 0.681749 0.000000 0.853944
O O9 0.750000 0.750000 0.730785
O O10 0.817140 0.000000 0.750396
O O11 0.075312 0.500000 0.941238
O O12 0.000000 0.741698 0.929224
O O13 0.096081 0.738565 0.000000
O O14 0.605910 0.765421 0.500000
O O15 0.500000 0.819831 0.555964
O O16 0.604825 0.000000 0.564074
#
# Coordination Sequence:
#
# PCOD8267975 Si02
#       5
#    16  16  16  16  16
#     4   9  18  31  47  69  94 120 152 189 231 277
#     4  10  19  31  49  71  93 120 155 192 230 273
#     4  10  20  34  50  67  92 125 157 191 231 275
#     4   8  15  29  48  70  96 124 154 189 228 270
#     4   8  14  25  42  66  95 123 150 184 227 271
#
# _framework density 17.817661999999999
#
# number of rings (size 3 to 8) (size 9 to 14) (size 15 to 20)
#    0.000    3.000    0.000    3.600    0.000    3.200 
#    0.000    2.000    0.000    4.200    0.000    5.600 
#    0.000    0.000    0.000    0.000    0.000    0.000 
#
# Total GULP energy -495731.924256 kJ/mol
# GULP energy per Si atom -12393.298106 kJ/mol
# Density = 1.777711 g / cm^3
# Si number density = 17.817662 Si / 1000 Ang^3
#
#
#
# Elastic Constant Matrix: (Units=GPa)
#
#
# Indices 1 2 3 4 5 6 
#
# 1 93.3560 24.7128 103.0647 0.0000 0.0000 0.0000
# 2 24.7128 41.0891 33.7206 0.0000 0.0000 0.0000
# 3 103.0647 33.7206 181.8585 0.0000 0.0000 0.0000
# 4 0.0000 0.0000 0.0000 24.5165 0.0000 0.0000
# 5 0.0000 0.0000 0.0000 0.0000 14.6639 0.0000
# 6 0.0000 0.0000 0.0000 0.0000 0.0000 17.5768
#
#
#
# Elastic Compliance Matrix: (Units=1/GPa)
#
#
# Indices 1 2 3 4 5 6 
#
# 1 0.029373 -0.004724 -0.015771 0.000000 0.000000 0.000000
# 2 -0.004724 0.029465 -0.002786 0.000000 0.000000 0.000000
# 3 -0.015771 -0.002786 0.014953 0.000000 0.000000 0.000000
# 4 0.000000 0.000000 0.000000 0.040789 0.000000 0.000000
# 5 0.000000 0.000000 0.000000 0.000000 0.068195 0.000000
# 6 0.000000 0.000000 0.000000 0.000000 0.000000 0.056893
#
#
# Mechanical properties :
#
#
# Convention : Reuss Voigt Hill
#
# Bulk Modulus (GPa) = 36.72470 71.03334 53.87902
# Shear Modulus (GPa) = 16.93162 21.67181 19.30172
#
# Velocity S-wave (km/s) = 3.08599 3.49135 3.29491
# Velocity P-wave (km/s) = 5.77529 7.49707 6.69179
#
# Compressibility (1/GPa) = 0.02722963
#
# Stress axis : x y z
#
# Youngs Moduli (GPa) = 34.04518 33.93844 66.87582
#
# Poissons Ratio (x) = 0.16031 1.05467
# Poissons Ratio (y) = 0.16082 0.18634
# Poissons Ratio (z) = 0.53691 0.09457
#
# Static dielectric constant tensor:
#      x y z
#    x 3.319220 0.000000 0.000000 
#    y 0.000000 3.103290 0.000000 
#    z 0.000000 0.000000 3.822090 
# 
# 
# High freq. dielectric constant tensor:
#      x y z
#    x 1.663880 0.000000 0.000000 
#    y 0.000000 1.670820 0.000000 
#    z 0.000000 0.000000 1.704690 
# 
# From -- ./inp_files/75031.got.cif
#   From: 2010.03.12/outbox.cif.g09.slc.cpg/sg65_38_cif.got.tgz:75031.got - 2010.04.10 20:52:16.
