data_PCOD8267075
_publ_section_title
;
Structure prediction by ZEFSAII (Michael W. Deem and Ramdas Pophale) SiO2 
 PCOD8267075
Probable space group: C M M M
;
_chemical_formula_sum "Si O2"
_cell_formula_units_Z 72
_cell_length_a 27.956457
_cell_length_b 17.657366
_cell_length_c 9.360009
_cell_angle_alpha 90.000000
_cell_angle_beta 90.000000
_cell_angle_gamma 90.000000
_cell_volume 4620.450444
_symmetry_space_group_name_H-M "C M M M"
_symmetry_group_IT_number 65
_symmetry_cell_setting 'orthorhombic'
loop_
_space_group_symop_operation_xyz
x,y,z
-x,-y,z
x,-y,-z
-x,y,-z
-x,-y,-z
x,y,-z
-x,y,z
x,-y,z
1/2+x,1/2+y,z
1/2-x,1/2-y,z
1/2+x,1/2-y,-z
1/2-x,1/2+y,-z
1/2-x,1/2-y,-z
1/2+x,1/2+y,-z
1/2-x,1/2+y,z
1/2+x,1/2-y,z
loop_
_atom_site_type_symbol
_atom_site_label
_atom_site_fract_x
_atom_site_fract_y
_atom_site_fract_z
Si Si1 0.443510 0.500000 0.341684
Si Si2 0.446384 0.643099 0.162879
Si Si3 0.293974 0.412990 0.667690
Si Si4 0.350432 0.712835 0.164538
Si Si5 0.210199 0.314690 0.342517
O O1 0.500000 0.500000 0.352088
O O2 0.420149 0.500000 0.500000
O O3 0.426841 0.574609 0.259256
O O4 0.500000 0.669988 0.208213
O O5 0.408312 0.711294 0.180567
O O6 0.447142 0.614007 0.000000
O O7 0.303910 0.398459 0.500000
O O8 0.302666 0.500000 0.710290
O O9 0.329423 0.361257 0.758894
O O10 0.238317 0.391396 0.702017
O O11 0.331753 0.791481 0.233071
O O12 0.334528 0.711029 0.000000
O O13 0.187178 0.323086 0.500000
O O14 0.250000 0.250000 0.342717
#
# Coordination Sequence:
#
# PCOD8267075 Si02
#       5
#     8  16  16  16  16
#     4   9  17  27  39  55  73  97 133 175 209 231
#     4   9  18  31  42  53  77 111 140 167 202 243
#     4   9  18  31  45  61  82 109 137 165 200 245
#     4  10  19  28  42  62  82 107 140 172 203 238
#     4   8  15  29  45  59  79 107 134 161 202 249
#
# _framework density 15.582897000000001
#
# number of rings (size 3 to 8) (size 9 to 14) (size 15 to 20)
#    0.000    3.000    0.000    2.333    1.556    7.556 
#    0.000    0.000    0.000    0.000    0.000    0.000 
#    0.000    0.889    0.000   11.111    0.000    0.000 
#
# Total GULP energy -446100.940663 kJ/mol
# GULP energy per Si atom -12391.692796 kJ/mol
# Density = 1.554743 g / cm^3
# Si number density = 15.582897 Si / 1000 Ang^3
#
#
#
# Elastic Constant Matrix: (Units=GPa)
#
#
# Indices 1 2 3 4 5 6 
#
# 1 76.4025 19.2216 39.6726 0.0000 0.0000 0.0000
# 2 19.2216 25.1775 16.7874 0.0000 0.0000 0.0000
# 3 39.6726 16.7874 77.2951 0.0000 0.0000 0.0000
# 4 0.0000 0.0000 0.0000 18.5448 0.0000 0.0000
# 5 0.0000 0.0000 0.0000 0.0000 15.1037 0.0000
# 6 0.0000 0.0000 0.0000 0.0000 0.0000 21.6831
#
#
#
# Elastic Compliance Matrix: (Units=1/GPa)
#
#
# Indices 1 2 3 4 5 6 
#
# 1 0.019679 -0.009693 -0.007995 0.000000 0.000000 0.000000
# 2 -0.009693 0.051218 -0.006149 0.000000 0.000000 0.000000
# 3 -0.007995 -0.006149 0.018376 0.000000 0.000000 0.000000
# 4 0.000000 0.000000 0.000000 0.053924 0.000000 0.000000
# 5 0.000000 0.000000 0.000000 0.000000 0.066209 0.000000
# 6 0.000000 0.000000 0.000000 0.000000 0.000000 0.046119
#
#
# Mechanical properties :
#
#
# Convention : Reuss Voigt Hill
#
# Bulk Modulus (GPa) = 24.03885 36.69313 30.36599
# Shear Modulus (GPa) = 15.76970 17.94589 16.85780
#
# Velocity S-wave (km/s) = 3.18463 3.39726 3.29266
# Velocity P-wave (km/s) = 5.38353 6.24393 5.82963
#
# Compressibility (1/GPa) = 0.04159933
#
# Stress axis : x y z
#
# Youngs Moduli (GPa) = 50.81653 19.52457 54.41733
#
# Poissons Ratio (x) = 0.18924 0.43508
# Poissons Ratio (y) = 0.49255 0.33460
# Poissons Ratio (z) = 0.40629 0.12005
#
# Static dielectric constant tensor:
#      x y z
#    x 3.038330 0.000000 0.000000 
#    y 0.000000 2.929910 0.000000 
#    z 0.000000 0.000000 3.130500 
# 
# 
# High freq. dielectric constant tensor:
#      x y z
#    x 1.586620 0.000000 0.000000 
#    y 0.000000 1.552020 0.000000 
#    z 0.000000 0.000000 1.606190 
# 
# From -- ./inp_files/9494.got.cif
#   From: 2010.03.12/outbox.cif.g09.slc.cpg/sg65_5_cif.got.tgz:9494.got - 2010.04.10 20:52:16.
