data_PCOD8267211
_publ_section_title
;
Structure prediction by ZEFSAII (Michael W. Deem and Ramdas Pophale) SiO2 
 PCOD8267211
Probable space group: C M M M
;
_chemical_formula_sum "Si O2"
_cell_formula_units_Z 120
_cell_length_a 9.719577
_cell_length_b 28.743875
_cell_length_c 25.650365
_cell_angle_alpha 90.000000
_cell_angle_beta 90.000000
_cell_angle_gamma 90.000000
_cell_volume 7166.155531
_symmetry_space_group_name_H-M "C M M M"
_symmetry_group_IT_number 65
_symmetry_cell_setting 'orthorhombic'
loop_
_space_group_symop_operation_xyz
x,y,z
-x,-y,z
x,-y,-z
-x,y,-z
-x,-y,-z
x,y,-z
-x,y,z
x,-y,z
1/2+x,1/2+y,z
1/2-x,1/2-y,z
1/2+x,1/2-y,-z
1/2-x,1/2+y,-z
1/2-x,1/2-y,-z
1/2+x,1/2+y,-z
1/2-x,1/2+y,z
1/2+x,1/2-y,z
loop_
_atom_site_type_symbol
_atom_site_label
_atom_site_fract_x
_atom_site_fract_y
_atom_site_fract_z
Si Si1 0.346051 0.793199 0.000000
Si Si2 0.660095 0.553412 0.241499
Si Si3 0.842617 0.291947 0.286793
Si Si4 0.159640 0.632948 0.797673
Si Si5 0.159925 0.703347 0.886681
Si Si6 0.842620 0.291750 0.406517
Si Si7 0.344454 0.446095 0.360869
Si Si8 0.158544 0.607778 0.441573
O O1 0.250000 0.750000 0.000000
O O2 0.320769 0.819703 0.055093
O O3 0.500000 0.773424 0.000000
O O4 0.500000 0.565092 0.233397
O O5 0.689787 0.500000 0.226209
O O6 0.750756 0.586052 0.204084
O O7 0.702849 0.562183 0.301495
O O8 0.750000 0.250000 0.264894
O O9 0.811280 0.338487 0.254967
O O10 0.806032 0.302876 0.346505
O O11 0.000000 0.276346 0.279469
O O12 0.208924 0.664009 0.846502
O O13 0.000000 0.619065 0.802945
O O14 0.250000 0.750000 0.879609
O O15 0.000000 0.716335 0.876083
O O16 0.750000 0.250000 0.428453
O O17 0.809653 0.337396 0.439724
O O18 0.000000 0.276134 0.412613
O O19 0.500000 0.428197 0.368440
O O20 0.334548 0.500000 0.375062
O O21 0.247792 0.418937 0.399887
O O22 0.192207 0.590190 0.500000
O O23 0.000000 0.598595 0.427258
#
# Coordination Sequence:
#
# PCOD8267211 Si02
#       8
#     8  16  16  16  16  16  16  16
#     4   8  14  26  42  60  89 130 169 203 234 265
#     4   9  19  35  52  70  92 118 149 185 228 279
#     4   9  17  28  42  62  89 118 147 179 217 264
#     4  10  19  29  44  69  97 123 153 190 231 274
#     4   9  17  28  43  66  97 132 168 201 233 271
#     4   9  18  32  47  63  86 117 150 182 217 259
#     4   9  19  36  55  73  93 117 146 181 223 275
#     4  10  21  35  50  70  95 120 148 185 227 269
#
# _framework density 16.745380000000001
#
# number of rings (size 3 to 8) (size 9 to 14) (size 15 to 20)
#    0.000    2.800    0.000    2.000    0.000    4.533 
#    0.000    5.333    0.000    0.000    0.000    0.467 
#    0.000    3.733    0.000    0.000    0.000    0.000 
#
# Total GULP energy -743772.712593 kJ/mol
# GULP energy per Si atom -12396.211877 kJ/mol
# Density = 1.670727 g / cm^3
# Si number density = 16.745380 Si / 1000 Ang^3
#
#
#
# Elastic Constant Matrix: (Units=GPa)
#
#
# Indices 1 2 3 4 5 6 
#
# 1 67.8224 53.8590 41.8816 0.0000 0.0000 0.0000
# 2 53.8590 85.2381 47.1368 0.0000 0.0000 0.0000
# 3 41.8816 47.1368 78.1234 0.0000 0.0000 0.0000
# 4 0.0000 0.0000 0.0000 18.4483 0.0000 0.0000
# 5 0.0000 0.0000 0.0000 0.0000 20.3739 0.0000
# 6 0.0000 0.0000 0.0000 0.0000 0.0000 34.9249
#
#
#
# Elastic Compliance Matrix: (Units=1/GPa)
#
#
# Indices 1 2 3 4 5 6 
#
# 1 0.032280 -0.016248 -0.007501 0.000000 0.000000 0.000000
# 2 -0.016248 0.025785 -0.006847 0.000000 0.000000 0.000000
# 3 -0.007501 -0.006847 0.020953 0.000000 0.000000 0.000000
# 4 0.000000 0.000000 0.000000 0.054206 0.000000 0.000000
# 5 0.000000 0.000000 0.000000 0.000000 0.049082 0.000000
# 6 0.000000 0.000000 0.000000 0.000000 0.000000 0.028633
#
#
# Mechanical properties :
#
#
# Convention : Reuss Voigt Hill
#
# Bulk Modulus (GPa) = 56.10341 57.43765 56.77053
# Shear Modulus (GPa) = 17.98089 20.63652 19.30870
#
# Velocity S-wave (km/s) = 3.28042 3.51432 3.39938
# Velocity P-wave (km/s) = 6.92277 7.13038 7.02734
#
# Compressibility (1/GPa) = 0.01782423
#
# Stress axis : x y z
#
# Youngs Moduli (GPa) = 30.97941 38.78238 47.72562
#
# Poissons Ratio (x) = 0.63014 0.35801
# Poissons Ratio (y) = 0.50335 0.32679
# Poissons Ratio (z) = 0.23239 0.26555
#
# Static dielectric constant tensor:
#      x y z
#    x 3.147050 0.000000 0.000000 
#    y 0.000000 3.031320 0.000000 
#    z 0.000000 0.000000 3.404160 
# 
# 
# High freq. dielectric constant tensor:
#      x y z
#    x 1.647530 0.000000 0.000000 
#    y 0.000000 1.623780 0.000000 
#    z 0.000000 0.000000 1.640520 
# 
# From -- ./inp_files/73960.got.cif
#   From: 2010.03.12/outbox.cif.g09.slc.cpg/sg65_37_cif.got.tgz:73960.got - 2010.04.10 20:52:16.
