data_PCOD8267865
_publ_section_title
;
Structure prediction by ZEFSAII (Michael W. Deem and Ramdas Pophale) SiO2 
 PCOD8267865
Probable space group: C M M M
;
_chemical_formula_sum "Si O2"
_cell_formula_units_Z 96
_cell_length_a 32.941757
_cell_length_b 18.631774
_cell_length_c 8.948067
_cell_angle_alpha 90.000000
_cell_angle_beta 90.000000
_cell_angle_gamma 90.000000
_cell_volume 5491.995771
_symmetry_space_group_name_H-M "C M M M"
_symmetry_group_IT_number 65
_symmetry_cell_setting 'orthorhombic'
loop_
_space_group_symop_operation_xyz
x,y,z
-x,-y,z
x,-y,-z
-x,y,-z
-x,-y,-z
x,y,-z
-x,y,z
x,-y,z
1/2+x,1/2+y,z
1/2-x,1/2-y,z
1/2+x,1/2-y,-z
1/2-x,1/2+y,-z
1/2-x,1/2-y,-z
1/2+x,1/2+y,-z
1/2-x,1/2+y,z
1/2+x,1/2-y,z
loop_
_atom_site_type_symbol
_atom_site_label
_atom_site_fract_x
_atom_site_fract_y
_atom_site_fract_z
Si Si1 0.757899 0.417277 0.326156
Si Si2 0.172909 0.081099 0.176172
Si Si3 0.378547 0.289739 0.173398
Si Si4 0.545664 0.793553 0.176273
Si Si5 0.410341 0.081883 0.672619
Si Si6 0.165734 0.644816 0.174516
O O1 0.757024 0.398712 0.500000
O O2 0.769390 0.500000 0.297332
O O3 0.714377 0.399174 0.257868
O O4 0.790515 0.367181 0.246108
O O5 0.138391 0.135359 0.240160
O O6 0.158971 0.000000 0.213525
O O7 0.180012 0.091622 0.000000
O O8 0.422753 0.266677 0.238658
O O9 0.346187 0.227149 0.205614
O O10 0.384734 0.302360 0.000000
O O11 0.500000 0.768757 0.214432
O O12 0.554817 0.869284 0.254199
O O13 0.552102 0.805136 0.000000
O O14 0.405310 0.102685 0.500000
O O15 0.367081 0.092389 0.751576
O O16 0.424303 0.000000 0.692564
O O17 0.167463 0.627246 0.000000
#
# Coordination Sequence:
#
# PCOD8267865 Si02
#       6
#    16  16  16  16  16  16
#     4  10  20  32  45  65  96 128 158 196 236 269
#     4   9  17  31  51  70  89 119 157 191 228 280
#     4   8  16  31  49  70  93 117 150 193 235 272
#     4   9  18  33  52  71  92 122 157 190 228 278
#     4  10  20  32  46  67  97 129 159 195 236 270
#     4  10  19  31  48  68  93 127 164 197 228 268
#
# _framework density 17.479984999999999
#
# number of rings (size 3 to 8) (size 9 to 14) (size 15 to 20)
#    0.000    2.667    0.000    3.000    0.000    5.667 
#    0.000    9.167    0.000    0.500    0.000    3.500 
#    0.000    0.000    0.000   10.167    0.000   11.000 
#
# Total GULP energy -595087.874864 kJ/mol
# GULP energy per Si atom -12397.664060 kJ/mol
# Density = 1.744020 g / cm^3
# Si number density = 17.479985 Si / 1000 Ang^3
#
#
#
# Elastic Constant Matrix: (Units=GPa)
#
#
# Indices 1 2 3 4 5 6 
#
# 1 139.2120 82.2341 51.8921 0.0000 0.0000 0.0000
# 2 82.2341 92.5014 42.0707 0.0000 0.0000 0.0000
# 3 51.8921 42.0707 66.2861 0.0000 0.0000 0.0000
# 4 0.0000 0.0000 0.0000 12.6713 0.0000 0.0000
# 5 0.0000 0.0000 0.0000 0.0000 10.2978 0.0000
# 6 0.0000 0.0000 0.0000 0.0000 0.0000 18.3809
#
#
#
# Elastic Compliance Matrix: (Units=1/GPa)
#
#
# Indices 1 2 3 4 5 6 
#
# 1 0.016220 -0.012153 -0.004985 0.000000 0.000000 0.000000
# 2 -0.012153 0.024303 -0.005911 0.000000 0.000000 0.000000
# 3 -0.004985 -0.005911 0.022740 0.000000 0.000000 0.000000
# 4 0.000000 0.000000 0.000000 0.078919 0.000000 0.000000
# 5 0.000000 0.000000 0.000000 0.000000 0.097108 0.000000
# 6 0.000000 0.000000 0.000000 0.000000 0.000000 0.054404
#
#
# Mechanical properties :
#
#
# Convention : Reuss Voigt Hill
#
# Bulk Modulus (GPa) = 58.25400 72.26595 65.25997
# Shear Modulus (GPa) = 14.47128 16.39018 15.43073
#
# Velocity S-wave (km/s) = 2.88041 3.06544 2.97436
# Velocity P-wave (km/s) = 6.66789 7.34582 7.01505
#
# Compressibility (1/GPa) = 0.01716620
#
# Stress axis : x y z
#
# Youngs Moduli (GPa) = 61.65206 41.14785 43.97527
#
# Poissons Ratio (x) = 0.50005 0.21921
# Poissons Ratio (y) = 0.74923 0.25993
# Poissons Ratio (z) = 0.30733 0.24322
#
# Static dielectric constant tensor:
#      x y z
#    x 3.345320 0.000000 0.000000 
#    y 0.000000 3.367750 0.000000 
#    z 0.000000 0.000000 3.191060 
# 
# 
# High freq. dielectric constant tensor:
#      x y z
#    x 1.669050 0.000000 0.000000 
#    y 0.000000 1.663700 0.000000 
#    z 0.000000 0.000000 1.666880 
# 
# From -- ./inp_files/16350.got.cif
#   From: 2010.03.12/outbox.cif.g09.slc.cpg/sg65_9_cif.got.tgz:16350.got - 2010.04.10 20:52:16.
