data_PCOD8267577
_publ_section_title
;
Structure prediction by ZEFSAII (Michael W. Deem and Ramdas Pophale) SiO2 
 PCOD8267577
Probable space group: C M M M
;
_chemical_formula_sum "Si O2"
_cell_formula_units_Z 88
_cell_length_a 14.009580
_cell_length_b 20.051423
_cell_length_c 17.782097
_cell_angle_alpha 90.000000
_cell_angle_beta 90.000000
_cell_angle_gamma 90.000000
_cell_volume 4995.204693
_symmetry_space_group_name_H-M "C M M M"
_symmetry_group_IT_number 65
_symmetry_cell_setting 'orthorhombic'
loop_
_space_group_symop_operation_xyz
x,y,z
-x,-y,z
x,-y,-z
-x,y,-z
-x,-y,-z
x,y,-z
-x,y,z
x,-y,z
1/2+x,1/2+y,z
1/2-x,1/2-y,z
1/2+x,1/2-y,-z
1/2-x,1/2+y,-z
1/2-x,1/2-y,-z
1/2+x,1/2+y,-z
1/2-x,1/2+y,z
1/2+x,1/2-y,z
loop_
_atom_site_type_symbol
_atom_site_label
_atom_site_fract_x
_atom_site_fract_y
_atom_site_fract_z
Si Si1 0.609324 0.577086 0.586778
Si Si2 0.282819 0.647079 0.285527
Si Si3 0.298612 0.423394 0.859710
Si Si4 0.000000 0.921133 0.082867
Si Si5 0.325812 0.191487 0.082765
Si Si6 0.107084 0.275431 0.240630
O O1 0.623773 0.595777 0.500000
O O2 0.500000 0.590732 0.611203
O O3 0.634554 0.500000 0.600908
O O4 0.680978 0.623872 0.633206
O O5 0.280477 0.584187 0.229367
O O6 0.175692 0.676862 0.290600
O O7 0.354033 0.700690 0.248485
O O8 0.284633 0.500000 0.883722
O O9 0.405776 0.396907 0.874420
O O10 0.225651 0.379836 0.908400
O O11 0.000000 0.000000 0.077664
O O12 0.000000 0.889014 0.000000
O O13 0.250000 0.250000 0.087582
O O14 0.397014 0.202793 0.152634
O O15 0.376368 0.192123 0.000000
O O16 0.000000 0.280648 0.272996
#
# Coordination Sequence:
#
# PCOD8267577 Si02
#       6
#    16  16  16   8  16  16
#     4   9  18  32  54  85 114 138 166 205 259 324
#     4  10  19  34  52  76 103 138 168 211 263 312
#     4  10  19  30  47  72  98 131 170 211 263 319
#     4   9  18  28  38  64 101 127 154 198 255 312
#     4  10  19  34  49  67  98 136 178 220 267 316
#     4  10  20  35  52  74 102 136 183 223 257 309
#
# _framework density 17.616896000000001
#
# number of rings (size 3 to 8) (size 9 to 14) (size 15 to 20)
#    0.000    2.273    3.636    2.182    2.545    1.455 
#    0.000    1.818    0.000   15.273    0.000    6.364 
#    0.000    0.000    0.000    0.000    0.000    0.000 
#
# Total GULP energy -545370.153766 kJ/mol
# GULP energy per Si atom -12394.776222 kJ/mol
# Density = 1.757680 g / cm^3
# Si number density = 17.616896 Si / 1000 Ang^3
#
#
#
# Elastic Constant Matrix: (Units=GPa)
#
#
# Indices 1 2 3 4 5 6 
#
# 1 97.4730 31.3900 28.8606 0.0000 0.0000 0.0000
# 2 31.3900 74.7494 30.3751 0.0000 0.0000 0.0000
# 3 28.8606 30.3751 88.0801 0.0000 0.0000 0.0000
# 4 0.0000 0.0000 0.0000 23.9134 0.0000 0.0000
# 5 0.0000 0.0000 0.0000 0.0000 13.1714 0.0000
# 6 0.0000 0.0000 0.0000 0.0000 0.0000 16.0447
#
#
#
# Elastic Compliance Matrix: (Units=1/GPa)
#
#
# Indices 1 2 3 4 5 6 
#
# 1 0.012366 -0.004124 -0.002630 0.000000 0.000000 0.000000
# 2 -0.004124 0.016934 -0.004488 0.000000 0.000000 0.000000
# 3 -0.002630 -0.004488 0.013763 0.000000 0.000000 0.000000
# 4 0.000000 0.000000 0.000000 0.041818 0.000000 0.000000
# 5 0.000000 0.000000 0.000000 0.000000 0.075922 0.000000
# 6 0.000000 0.000000 0.000000 0.000000 0.000000 0.062326
#
#
# Mechanical properties :
#
#
# Convention : Reuss Voigt Hill
#
# Bulk Modulus (GPa) = 48.59549 49.06152 48.82850
# Shear Modulus (GPa) = 19.80417 21.93770 20.87093
#
# Velocity S-wave (km/s) = 3.35648 3.53266 3.44570
# Velocity P-wave (km/s) = 6.53190 6.67452 6.60360
#
# Compressibility (1/GPa) = 0.02057804
#
# Stress axis : x y z
#
# Youngs Moduli (GPa) = 80.86665 59.05310 72.65981
#
# Poissons Ratio (x) = 0.24356 0.19106
# Poissons Ratio (y) = 0.33353 0.32612
# Poissons Ratio (z) = 0.21264 0.26505
#
# Static dielectric constant tensor:
#      x y z
#    x 3.133950 0.000000 0.000000 
#    y 0.000000 3.155640 0.000000 
#    z 0.000000 0.000000 3.226990 
# 
# 
# High freq. dielectric constant tensor:
#      x y z
#    x 1.657400 0.000000 0.000000 
#    y 0.000000 1.677200 0.000000 
#    z 0.000000 0.000000 1.670130 
# 
# From -- ./inp_files/52976.got.cif
#   From: 2010.03.12/outbox.cif.g09.slc.cpg/sg65_27_cif.got.tgz:52976.got - 2010.04.10 20:52:16.
