data_PCOD8267297
_publ_section_title
;
Structure prediction by ZEFSAII (Michael W. Deem and Ramdas Pophale) SiO2 
 PCOD8267297
Probable space group: C M M M
;
_chemical_formula_sum "Si O2"
_cell_formula_units_Z 96
_cell_length_a 8.884019
_cell_length_b 29.526005
_cell_length_c 20.843307
_cell_angle_alpha 90.000000
_cell_angle_beta 90.000000
_cell_angle_gamma 90.000000
_cell_volume 5467.399301
_symmetry_space_group_name_H-M "C M M M"
_symmetry_group_IT_number 65
_symmetry_cell_setting 'orthorhombic'
loop_
_space_group_symop_operation_xyz
x,y,z
-x,-y,z
x,-y,-z
-x,y,-z
-x,-y,-z
x,y,-z
-x,y,z
x,-y,z
1/2+x,1/2+y,z
1/2-x,1/2-y,z
1/2+x,1/2-y,-z
1/2-x,1/2+y,-z
1/2-x,1/2-y,-z
1/2+x,1/2+y,-z
1/2-x,1/2+y,z
1/2+x,1/2-y,z
loop_
_atom_site_type_symbol
_atom_site_label
_atom_site_fract_x
_atom_site_fract_y
_atom_site_fract_z
Si Si1 0.320960 0.642354 0.429255
Si Si2 0.678970 0.643394 0.811997
Si Si3 0.678979 0.299064 0.689856
Si Si4 0.820981 0.049023 0.231525
Si Si5 0.822383 0.202583 0.928003
Si Si6 0.678933 0.549186 0.376772
O O1 0.266740 0.658330 0.500000
O O2 0.500000 0.640943 0.425558
O O3 0.260984 0.676830 0.375178
O O4 0.257103 0.591399 0.417503
O O5 0.500000 0.643026 0.811297
O O6 0.735886 0.671813 0.750645
O O7 0.741770 0.591715 0.809126
O O8 0.739064 0.665260 0.878073
O O9 0.500000 0.294713 0.689519
O O10 0.750000 0.250000 0.694518
O O11 0.763257 0.054669 0.304087
O O12 0.000000 0.050140 0.230972
O O13 0.765431 0.000000 0.203886
O O14 0.750000 0.250000 0.908718
O O15 0.000000 0.208365 0.922363
O O16 0.774902 0.187902 0.000000
O O17 0.500000 0.550587 0.377593
O O18 0.733322 0.500000 0.404125
#
# Coordination Sequence:
#
# PCOD8267297 Si02
#       6
#    16  16  16  16  16  16
#     4   9  16  25  36  52  77 106 132 162 203 243
#     4   9  15  25  41  59  81 108 135 164 200 239
#     4  10  19  30  43  59  79 105 137 169 200 236
#     4   8  12  19  34  55  78 104 132 160 193 238
#     4   9  17  28  42  61  85 111 138 168 202 238
#     4   8  12  19  32  51  76 103 129 158 196 242
#
# _framework density 17.558622
#
# number of rings (size 3 to 8) (size 9 to 14) (size 15 to 20)
#    0.000    3.167    1.667    1.500    0.000    0.667 
#    0.000    1.667    0.000    0.500    0.000    3.500 
#    0.000    4.667    0.000    5.667    0.000    6.000 
#
# Total GULP energy -594674.533618 kJ/mol
# GULP energy per Si atom -12389.052784 kJ/mol
# Density = 1.751866 g / cm^3
# Si number density = 17.558622 Si / 1000 Ang^3
#
#
#
# Elastic Constant Matrix: (Units=GPa)
#
#
# Indices 1 2 3 4 5 6 
#
# 1 4.2793 9.7632 7.6726 0.0000 0.0000 0.0000
# 2 9.7632 169.7514 86.6490 0.0000 0.0000 0.0000
# 3 7.6726 86.6490 126.9282 0.0000 0.0000 0.0000
# 4 0.0000 0.0000 0.0000 31.4149 0.0000 0.0000
# 5 0.0000 0.0000 0.0000 0.0000 6.9201 0.0000
# 6 0.0000 0.0000 0.0000 0.0000 0.0000 15.1167
#
#
#
# Elastic Compliance Matrix: (Units=1/GPa)
#
#
# Indices 1 2 3 4 5 6 
#
# 1 0.275457 -0.011271 -0.008957 0.000000 0.000000 0.000000
# 2 -0.011271 0.009503 -0.005806 0.000000 0.000000 0.000000
# 3 -0.008957 -0.005806 0.012383 0.000000 0.000000 0.000000
# 4 0.000000 0.000000 0.000000 0.031832 0.000000 0.000000
# 5 0.000000 0.000000 0.000000 0.000000 0.144508 0.000000
# 6 0.000000 0.000000 0.000000 0.000000 0.000000 0.066152
#
#
# Mechanical properties :
#
#
# Convention : Reuss Voigt Hill
#
# Bulk Modulus (GPa) = 4.07703 56.56981 30.32342
# Shear Modulus (GPa) = 7.42214 23.81528 15.61871
#
# Velocity S-wave (km/s) = 2.05821 3.68683 2.98571
# Velocity P-wave (km/s) = 2.82406 7.10009 5.40308
#
# Compressibility (1/GPa) = 0.24527632
#
# Stress axis : x y z
#
# Youngs Moduli (GPa) = 3.63033 105.23209 80.75359
#
# Poissons Ratio (x) = 1.18605 0.72329
# Poissons Ratio (y) = 0.04092 0.46885
# Poissons Ratio (z) = 0.03252 0.61097
#
# Static dielectric constant tensor:
#      x y z
#    x 2.564260 0.000000 0.000000 
#    y 0.000000 3.754580 0.000000 
#    z 0.000000 0.000000 3.446770 
# 
# 
# High freq. dielectric constant tensor:
#      x y z
#    x 1.601570 0.000000 0.000000 
#    y 0.000000 1.693260 0.000000 
#    z 0.000000 0.000000 1.668380 
# 
# From -- ./inp_files/61735.got.cif
#   From: 2010.03.12/outbox.cif.g09.slc.cpg/sg65_31_cif.got.tgz:61735.got - 2010.04.10 20:52:16.
