data_PCOD8267266
_publ_section_title
;
Structure prediction by ZEFSAII (Michael W. Deem and Ramdas Pophale) SiO2 
 PCOD8267266
Probable space group: C M M M
;
_chemical_formula_sum "Si O2"
_cell_formula_units_Z 72
_cell_length_a 9.300391
_cell_length_b 31.085300
_cell_length_c 14.338746
_cell_angle_alpha 90.000000
_cell_angle_beta 90.000000
_cell_angle_gamma 90.000000
_cell_volume 4145.409534
_symmetry_space_group_name_H-M "C M M M"
_symmetry_group_IT_number 65
_symmetry_cell_setting 'orthorhombic'
loop_
_space_group_symop_operation_xyz
x,y,z
-x,-y,z
x,-y,-z
-x,y,-z
-x,-y,-z
x,y,-z
-x,y,z
x,-y,z
1/2+x,1/2+y,z
1/2-x,1/2-y,z
1/2+x,1/2-y,-z
1/2-x,1/2+y,-z
1/2-x,1/2-y,-z
1/2+x,1/2+y,-z
1/2-x,1/2+y,z
1/2+x,1/2-y,z
loop_
_atom_site_type_symbol
_atom_site_label
_atom_site_fract_x
_atom_site_fract_y
_atom_site_fract_z
Si Si1 0.829420 0.047528 0.895504
Si Si2 0.829653 0.126045 0.772827
Si Si3 0.332358 0.292260 0.893208
Si Si4 0.671229 0.906790 0.393522
Si Si5 0.344079 0.000000 0.609756
O O1 0.769020 0.084562 0.828490
O O2 0.000000 0.050948 0.899182
O O3 0.782802 0.000000 0.858601
O O4 0.768635 0.054579 0.000000
O O5 0.783095 0.168178 0.829435
O O6 0.750889 0.127359 0.672782
O O7 0.000000 0.124078 0.758031
O O8 0.500000 0.283074 0.882435
O O9 0.250000 0.250000 0.858429
O O10 0.292661 0.303475 0.000000
O O11 0.710893 0.895210 0.500000
O O12 0.500000 0.905187 0.379372
O O13 0.733836 0.954702 0.365723
O O14 0.500000 0.000000 0.659103
O O15 0.369837 0.000000 0.500000
#
# Coordination Sequence:
#
# PCOD8267266 Si02
#       5
#    16  16  16  16   8
#     4   8  14  25  41  63  94 129 158 183 220 277
#     4  10  19  29  47  74  99 122 155 201 244 280
#     4   9  18  33  52  74 100 127 156 194 240 289
#     4   9  18  32  48  66  92 129 168 201 236 283
#     4   7  12  26  45  61  82 119 164 200 229 267
#
# _framework density 17.36861
#
# number of rings (size 3 to 8) (size 9 to 14) (size 15 to 20)
#    0.000    3.222    0.000    2.667    1.556    4.000 
#    0.000    0.000    0.000    4.667    0.000    1.556 
#    0.000    0.000    0.000    0.000    0.000    0.000 
#
# Total GULP energy -446094.038589 kJ/mol
# GULP energy per Si atom -12391.501072 kJ/mol
# Density = 1.732908 g / cm^3
# Si number density = 17.368610 Si / 1000 Ang^3
#
#
#
# Elastic Constant Matrix: (Units=GPa)
#
#
# Indices 1 2 3 4 5 6 
#
# 1 26.4804 39.4537 35.7734 0.0000 0.0000 0.0000
# 2 39.4537 132.9444 79.2622 0.0000 0.0000 0.0000
# 3 35.7734 79.2622 105.0590 0.0000 0.0000 0.0000
# 4 0.0000 0.0000 0.0000 26.0148 0.0000 0.0000
# 5 0.0000 0.0000 0.0000 0.0000 22.1158 0.0000
# 6 0.0000 0.0000 0.0000 0.0000 0.0000 19.2341
#
#
#
# Elastic Compliance Matrix: (Units=1/GPa)
#
#
# Indices 1 2 3 4 5 6 
#
# 1 0.082133 -0.013996 -0.017408 0.000000 0.000000 0.000000
# 2 -0.013996 0.016057 -0.007348 0.000000 0.000000 0.000000
# 3 -0.017408 -0.007348 0.020990 0.000000 0.000000 0.000000
# 4 0.000000 0.000000 0.000000 0.038440 0.000000 0.000000
# 5 0.000000 0.000000 0.000000 0.000000 0.045216 0.000000
# 6 0.000000 0.000000 0.000000 0.000000 0.000000 0.051991
#
#
# Mechanical properties :
#
#
# Convention : Reuss Voigt Hill
#
# Bulk Modulus (GPa) = 23.99470 63.71803 43.85637
# Shear Modulus (GPa) = 14.44160 20.80592 17.62376
#
# Velocity S-wave (km/s) = 2.88666 3.46483 3.18888
# Velocity P-wave (km/s) = 4.99554 7.26444 6.23408
#
# Compressibility (1/GPa) = 0.04167586
#
# Stress axis : x y z
#
# Youngs Moduli (GPa) = 12.17535 62.27990 47.64230
#
# Poissons Ratio (x) = 0.87167 0.82934
# Poissons Ratio (y) = 0.17041 0.35008
# Poissons Ratio (z) = 0.21194 0.45764
#
# Static dielectric constant tensor:
#      x y z
#    x 2.797530 0.000000 0.000000 
#    y 0.000000 3.333710 0.000000 
#    z 0.000000 0.000000 3.194380 
# 
# 
# High freq. dielectric constant tensor:
#      x y z
#    x 1.631240 0.000000 0.000000 
#    y 0.000000 1.661680 0.000000 
#    z 0.000000 0.000000 1.665840 
# 
# From -- ./inp_files/22737.got.cif
#   From: 2010.03.12/outbox.cif.g09.slc.cpg/sg65_12_cif.got.tgz:22737.got - 2010.04.10 20:52:16.
