data_PCOD8267776
_publ_section_title
;
Structure prediction by ZEFSAII (Michael W. Deem and Ramdas Pophale) SiO2 
 PCOD8267776
Probable space group: C M M M
;
_chemical_formula_sum "Si O2"
_cell_formula_units_Z 80
_cell_length_a 33.682589
_cell_length_b 8.783001
_cell_length_c 18.235885
_cell_angle_alpha 90.000000
_cell_angle_beta 90.000000
_cell_angle_gamma 90.000000
_cell_volume 5394.798685
_symmetry_space_group_name_H-M "C M M M"
_symmetry_group_IT_number 65
_symmetry_cell_setting 'orthorhombic'
loop_
_space_group_symop_operation_xyz
x,y,z
-x,-y,z
x,-y,-z
-x,y,-z
-x,-y,-z
x,y,-z
-x,y,z
x,-y,z
1/2+x,1/2+y,z
1/2-x,1/2-y,z
1/2+x,1/2-y,-z
1/2-x,1/2+y,-z
1/2-x,1/2-y,-z
1/2+x,1/2+y,-z
1/2-x,1/2+y,z
1/2+x,1/2-y,z
loop_
_atom_site_type_symbol
_atom_site_label
_atom_site_fract_x
_atom_site_fract_y
_atom_site_fract_z
Si Si1 0.659646 0.177991 0.368464
Si Si2 0.206900 0.322024 0.223402
Si Si3 0.206944 0.820700 0.500000
Si Si4 0.419032 0.322388 0.586185
Si Si5 0.500000 0.828547 0.587032
Si Si6 0.706750 0.678484 0.920652
O O1 0.677697 0.217708 0.289653
O O2 0.683735 0.271339 0.428173
O O3 0.614155 0.231208 0.368919
O O4 0.662545 0.000000 0.386819
O O5 0.213046 0.500000 0.213985
O O6 0.250000 0.250000 0.238323
O O7 0.185553 0.255526 0.149603
O O8 0.250000 0.750000 0.500000
O O9 0.211103 0.000000 0.500000
O O10 0.413186 0.290535 0.500000
O O11 0.415972 0.500000 0.603916
O O12 0.461264 0.261018 0.614795
O O13 0.500000 0.831819 0.500000
O O14 0.500000 0.000000 0.618708
O O15 0.710129 0.500000 0.906608
O O16 0.750000 0.750000 0.923325
O O17 0.685610 0.710876 0.000000
#
# Coordination Sequence:
#
# PCOD8267776 Si02
#       6
#    16  16   8  16   8  16
#     4  11  22  34  47  63  85 113 147 185 222 261
#     4  10  20  31  44  62  83 112 146 182 221 259
#     4  12  24  36  48  61  78 109 150 190 228 260
#     4  10  19  31  47  67  87 110 142 179 218 263
#     4   9  17  29  47  67  87 111 136 171 217 262
#     4   9  16  26  42  62  82 106 136 172 214 259
#
# _framework density 14.829098999999999
#
# number of rings (size 3 to 8) (size 9 to 14) (size 15 to 20)
#    0.000    1.900    1.000    5.400    0.000    8.000 
#    0.000    0.000    0.000    0.000    0.000    0.000 
#    0.000    0.000    0.000    0.900    0.000   16.800 
#
# Total GULP energy -495876.786200 kJ/mol
# GULP energy per Si atom -12396.919655 kJ/mol
# Density = 1.479535 g / cm^3
# Si number density = 14.829099 Si / 1000 Ang^3
#
#
#
# Elastic Constant Matrix: (Units=GPa)
#
#
# Indices 1 2 3 4 5 6 
#
# 1 91.8386 39.4965 43.9509 0.0000 0.0000 0.0000
# 2 39.4965 103.6842 56.8469 0.0000 0.0000 0.0000
# 3 43.9509 56.8469 106.4530 0.0000 0.0000 0.0000
# 4 0.0000 0.0000 0.0000 22.8623 0.0000 0.0000
# 5 0.0000 0.0000 0.0000 0.0000 46.5722 0.0000
# 6 0.0000 0.0000 0.0000 0.0000 0.0000 24.9955
#
#
#
# Elastic Compliance Matrix: (Units=1/GPa)
#
#
# Indices 1 2 3 4 5 6 
#
# 1 0.014247 -0.003114 -0.004219 0.000000 0.000000 0.000000
# 2 -0.003114 0.014318 -0.006360 0.000000 0.000000 0.000000
# 3 -0.004219 -0.006360 0.014532 0.000000 0.000000 0.000000
# 4 0.000000 0.000000 0.000000 0.043740 0.000000 0.000000
# 5 0.000000 0.000000 0.000000 0.000000 0.021472 0.000000
# 6 0.000000 0.000000 0.000000 0.000000 0.000000 0.040007
#
#
# Mechanical properties :
#
#
# Convention : Reuss Voigt Hill
#
# Bulk Modulus (GPa) = 63.65217 64.72937 64.19077
# Shear Modulus (GPa) = 27.63339 29.66477 28.64908
#
# Velocity S-wave (km/s) = 4.32146 4.47748 4.40016
# Velocity P-wave (km/s) = 8.24118 8.39497 8.31843
#
# Compressibility (1/GPa) = 0.01571038
#
# Stress axis : x y z
#
# Youngs Moduli (GPa) = 70.19009 69.84212 68.81209
#
# Poissons Ratio (x) = 0.21747 0.29034
# Poissons Ratio (y) = 0.21856 0.43767
# Poissons Ratio (z) = 0.29615 0.44422
#
# Static dielectric constant tensor:
#      x y z
#    x 2.736380 0.000000 0.000000 
#    y 0.000000 3.085470 0.000000 
#    z 0.000000 0.000000 3.198690 
# 
# 
# High freq. dielectric constant tensor:
#      x y z
#    x 1.535650 0.000000 0.000000 
#    y 0.000000 1.592290 0.000000 
#    z 0.000000 0.000000 1.550140 
# 
# From -- ./inp_files/66169.got.cif
#   From: 2010.03.12/outbox.cif.g09.slc.cpg/sg65_34_cif.got.tgz:66169.got - 2010.04.10 20:52:16.
