data_PCOD8267656
_publ_section_title
;
Structure prediction by ZEFSAII (Michael W. Deem and Ramdas Pophale) SiO2 
 PCOD8267656
Probable space group: C M M M
;
_chemical_formula_sum "Si O2"
_cell_formula_units_Z 80
_cell_length_a 28.796959
_cell_length_b 15.921566
_cell_length_c 9.501513
_cell_angle_alpha 90.000000
_cell_angle_beta 90.000000
_cell_angle_gamma 90.000000
_cell_volume 4356.374191
_symmetry_space_group_name_H-M "C M M M"
_symmetry_group_IT_number 65
_symmetry_cell_setting 'orthorhombic'
loop_
_space_group_symop_operation_xyz
x,y,z
-x,-y,z
x,-y,-z
-x,y,-z
-x,-y,-z
x,y,-z
-x,y,z
x,-y,z
1/2+x,1/2+y,z
1/2-x,1/2-y,z
1/2+x,1/2-y,-z
1/2-x,1/2+y,-z
1/2-x,1/2-y,-z
1/2+x,1/2+y,-z
1/2-x,1/2+y,z
1/2+x,1/2-y,z
loop_
_atom_site_type_symbol
_atom_site_label
_atom_site_fract_x
_atom_site_fract_y
_atom_site_fract_z
Si Si1 0.118799 0.000000 0.167923
Si Si2 0.713942 0.500000 0.332451
Si Si3 0.949047 0.144279 0.166747
Si Si4 0.133003 0.403821 0.659143
Si Si5 0.053114 0.333166 0.164259
Si Si6 0.770619 0.662794 0.667190
O O1 0.165920 0.000000 0.251624
O O2 0.090144 0.918905 0.220442
O O3 0.127202 0.000000 0.000000
O O4 0.705989 0.500000 0.500000
O O5 0.740759 0.416665 0.280887
O O6 0.936606 0.238322 0.215392
O O7 0.000000 0.118708 0.226359
O O8 0.951889 0.141249 0.000000
O O9 0.120599 0.377263 0.500000
O O10 0.149566 0.500000 0.663911
O O11 0.087349 0.393979 0.752827
O O12 0.175994 0.348077 0.717680
O O13 0.000000 0.358146 0.198201
O O14 0.063194 0.343705 0.000000
O O15 0.769679 0.664713 0.500000
O O16 0.750000 0.750000 0.729569
#
# Coordination Sequence:
#
# PCOD8267656 Si02
#       6
#     8   8  16  16  16  16
#     4  10  19  30  50  78 106 133 167 210 253 295
#     4  10  20  35  53  77 105 131 170 213 251 308
#     4   8  15  30  51  73 100 137 175 205 240 297
#     4  10  20  35  55  77 101 130 168 211 251 299
#     4   9  19  35  53  75 104 135 168 207 252 303
#     4   9  18  34  55  75  99 135 172 207 251 303
#
# _framework density 18.363896
#
# number of rings (size 3 to 8) (size 9 to 14) (size 15 to 20)
#    0.000    2.800    1.000    1.500    2.800    2.400 
#    0.000    3.000    0.000    3.600    0.000    0.000 
#    0.000    0.000    0.000    0.000    0.000    0.000 
#
# Total GULP energy -495855.297099 kJ/mol
# GULP energy per Si atom -12396.382427 kJ/mol
# Density = 1.832210 g / cm^3
# Si number density = 18.363896 Si / 1000 Ang^3
#
#
#
# Elastic Constant Matrix: (Units=GPa)
#
#
# Indices 1 2 3 4 5 6 
#
# 1 141.5309 58.9601 45.4470 0.0000 0.0000 0.0000
# 2 58.9601 99.9378 23.1562 0.0000 0.0000 0.0000
# 3 45.4470 23.1562 35.6819 0.0000 0.0000 0.0000
# 4 0.0000 0.0000 0.0000 14.7297 0.0000 0.0000
# 5 0.0000 0.0000 0.0000 0.0000 31.7646 0.0000
# 6 0.0000 0.0000 0.0000 0.0000 0.0000 32.7176
#
#
#
# Elastic Compliance Matrix: (Units=1/GPa)
#
#
# Indices 1 2 3 4 5 6 
#
# 1 0.013620 -0.004727 -0.014280 0.000000 0.000000 0.000000
# 2 -0.004727 0.013417 -0.002687 0.000000 0.000000 0.000000
# 3 -0.014280 -0.002687 0.047958 0.000000 0.000000 0.000000
# 4 0.000000 0.000000 0.000000 0.067890 0.000000 0.000000
# 5 0.000000 0.000000 0.000000 0.000000 0.031482 0.000000
# 6 0.000000 0.000000 0.000000 0.000000 0.000000 0.030565
#
#
# Mechanical properties :
#
#
# Convention : Reuss Voigt Hill
#
# Bulk Modulus (GPa) = 31.63849 59.14191 45.39020
# Shear Modulus (GPa) = 19.31582 25.81487 22.56534
#
# Velocity S-wave (km/s) = 3.24672 3.75339 3.50921
# Velocity P-wave (km/s) = 5.59651 7.14558 6.41796
#
# Compressibility (1/GPa) = 0.03160707
#
# Stress axis : x y z
#
# Youngs Moduli (GPa) = 73.42052 74.52983 20.85178
#
# Poissons Ratio (x) = 0.35228 0.29777
# Poissons Ratio (y) = 0.34703 0.05603
# Poissons Ratio (z) = 1.04846 0.20028
#
# Static dielectric constant tensor:
#      x y z
#    x 3.443530 0.000000 0.000000 
#    y 0.000000 3.657970 0.000000 
#    z 0.000000 0.000000 2.878240 
# 
# 
# High freq. dielectric constant tensor:
#      x y z
#    x 1.722580 0.000000 0.000000 
#    y 0.000000 1.720520 0.000000 
#    z 0.000000 0.000000 1.660060 
# 
# From -- ./inp_files/16082.got.cif
#   From: 2010.03.12/outbox.cif.g09.slc.cpg/sg65_9_cif.got.tgz:16082.got - 2010.04.10 20:52:16.
