data_PCOD8267658
_publ_section_title
;
Structure prediction by ZEFSAII (Michael W. Deem and Ramdas Pophale) SiO2 
 PCOD8267658
Probable space group: C M M M
;
_chemical_formula_sum "Si O2"
_cell_formula_units_Z 112
_cell_length_a 17.758325
_cell_length_b 14.526890
_cell_length_c 23.339240
_cell_angle_alpha 90.000000
_cell_angle_beta 90.000000
_cell_angle_gamma 90.000000
_cell_volume 6020.899219
_symmetry_space_group_name_H-M "C M M M"
_symmetry_group_IT_number 65
_symmetry_cell_setting 'orthorhombic'
loop_
_space_group_symop_operation_xyz
x,y,z
-x,-y,z
x,-y,-z
-x,y,-z
-x,-y,-z
x,y,-z
-x,y,z
x,-y,z
1/2+x,1/2+y,z
1/2-x,1/2-y,z
1/2+x,1/2-y,-z
1/2-x,1/2+y,-z
1/2-x,1/2-y,-z
1/2+x,1/2+y,-z
1/2-x,1/2+y,z
1/2+x,1/2-y,z
loop_
_atom_site_type_symbol
_atom_site_label
_atom_site_fract_x
_atom_site_fract_y
_atom_site_fract_z
Si Si1 0.411944 0.397083 0.066348
Si Si2 0.587517 0.393188 0.632704
Si Si3 0.163457 0.233490 0.154046
Si Si4 0.852750 0.394673 0.768013
Si Si5 0.585328 0.895178 0.350791
Si Si6 0.838612 0.741166 0.435385
Si Si7 0.819178 0.894503 0.256313
O O1 0.500000 0.391838 0.077928
O O2 0.383044 0.500000 0.085296
O O3 0.374542 0.310586 0.098426
O O4 0.392907 0.382900 0.000000
O O5 0.500000 0.370268 0.645664
O O6 0.598340 0.500000 0.618004
O O7 0.617676 0.335818 0.578747
O O8 0.639196 0.362064 0.686085
O O9 0.250000 0.250000 0.138908
O O10 0.130154 0.331618 0.176141
O O11 0.146598 0.162340 0.204519
O O12 0.862393 0.500000 0.788315
O O13 0.908340 0.368017 0.716245
O O14 0.770018 0.376081 0.741183
O O15 0.500000 0.879731 0.370360
O O16 0.638162 0.837714 0.391763
O O17 0.611768 0.000000 0.357743
O O18 0.860835 0.713385 0.500000
O O19 0.750000 0.750000 0.429211
O O20 0.838392 0.000000 0.244314
#
# Coordination Sequence:
#
# PCOD8267658 Si02
#       7
#    16  16  16  16  16  16  16
#     4   9  19  36  56  78 106 141 180 221 265 311
#     4  10  21  36  55  80 108 136 167 208 262 321
#     4  10  19  30  50  79 109 140 176 216 259 305
#     4   9  18  32  50  75 108 142 173 207 252 310
#     4  10  21  37  57  79 103 133 170 214 262 306
#     4  11  24  39  55  75  99 132 175 217 258 311
#     4   9  17  30  49  75 107 139 170 207 254 310
#
# _framework density 18.601873000000001
#
# number of rings (size 3 to 8) (size 9 to 14) (size 15 to 20)
#    0.000    2.286    0.000    3.000    0.000    6.571 
#    0.000    4.286    0.000    0.429    0.000    1.000 
#    0.000    0.000    0.000    0.000    0.000    0.000 
#
# Total GULP energy -694253.036127 kJ/mol
# GULP energy per Si atom -12397.375645 kJ/mol
# Density = 1.855953 g / cm^3
# Si number density = 18.601873 Si / 1000 Ang^3
#
#
#
# Elastic Constant Matrix: (Units=GPa)
#
#
# Indices 1 2 3 4 5 6 
#
# 1 54.5143 40.5283 39.1175 0.0000 0.0000 0.0000
# 2 40.5283 111.6688 70.3626 0.0000 0.0000 0.0000
# 3 39.1175 70.3626 100.0360 0.0000 0.0000 0.0000
# 4 0.0000 0.0000 0.0000 26.2919 0.0000 0.0000
# 5 0.0000 0.0000 0.0000 0.0000 17.4614 0.0000
# 6 0.0000 0.0000 0.0000 0.0000 0.0000 27.7133
#
#
#
# Elastic Compliance Matrix: (Units=1/GPa)
#
#
# Indices 1 2 3 4 5 6 
#
# 1 0.027402 -0.005735 -0.006681 0.000000 0.000000 0.000000
# 2 -0.005735 0.017283 -0.009914 0.000000 0.000000 0.000000
# 3 -0.006681 -0.009914 0.019582 0.000000 0.000000 0.000000
# 4 0.000000 0.000000 0.000000 0.038035 0.000000 0.000000
# 5 0.000000 0.000000 0.000000 0.000000 0.057269 0.000000
# 6 0.000000 0.000000 0.000000 0.000000 0.000000 0.036084
#
#
# Mechanical properties :
#
#
# Convention : Reuss Voigt Hill
#
# Bulk Modulus (GPa) = 51.00288 62.91512 56.95900
# Shear Modulus (GPa) = 20.25517 22.04070 21.14794
#
# Velocity S-wave (km/s) = 3.30340 3.44592 3.37541
# Velocity P-wave (km/s) = 6.48287 7.05180 6.77331
#
# Compressibility (1/GPa) = 0.01960673
#
# Stress axis : x y z
#
# Youngs Moduli (GPa) = 36.49408 57.85916 51.06718
#
# Poissons Ratio (x) = 0.33184 0.34118
# Poissons Ratio (y) = 0.20931 0.50628
# Poissons Ratio (z) = 0.24381 0.57361
#
# Static dielectric constant tensor:
#      x y z
#    x 3.372200 0.000000 0.000000 
#    y 0.000000 3.584700 0.000000 
#    z 0.000000 0.000000 3.296380 
# 
# 
# High freq. dielectric constant tensor:
#      x y z
#    x 1.716280 0.000000 0.000000 
#    y 0.000000 1.734480 0.000000 
#    z 0.000000 0.000000 1.703420 
# 
# From -- ./inp_files/69957.got.cif
#   From: 2010.03.12/outbox.cif.g09.slc.cpg/sg65_35_cif.got.tgz:69957.got - 2010.04.10 20:52:16.
