data_PCOD8267699
_publ_section_title
;
Structure prediction by ZEFSAII (Michael W. Deem and Ramdas Pophale) SiO2 
 PCOD8267699
Probable space group: C M M M
;
_chemical_formula_sum "Si O2"
_cell_formula_units_Z 112
_cell_length_a 15.674462
_cell_length_b 25.242284
_cell_length_c 17.314763
_cell_angle_alpha 90.000000
_cell_angle_beta 90.000000
_cell_angle_gamma 90.000000
_cell_volume 6850.745646
_symmetry_space_group_name_H-M "C M M M"
_symmetry_group_IT_number 65
_symmetry_cell_setting 'orthorhombic'
loop_
_space_group_symop_operation_xyz
x,y,z
-x,-y,z
x,-y,-z
-x,y,-z
-x,-y,-z
x,y,-z
-x,y,z
x,-y,z
1/2+x,1/2+y,z
1/2-x,1/2-y,z
1/2+x,1/2-y,-z
1/2-x,1/2+y,-z
1/2-x,1/2-y,-z
1/2+x,1/2+y,-z
1/2-x,1/2+y,z
1/2+x,1/2-y,z
loop_
_atom_site_type_symbol
_atom_site_label
_atom_site_fract_x
_atom_site_fract_y
_atom_site_fract_z
Si Si1 0.241122 0.062686 0.818812
Si Si2 0.902363 0.122894 0.909973
Si Si3 0.247026 0.853572 0.700674
Si Si4 0.833672 0.214014 0.586243
Si Si5 0.594849 0.062876 0.913055
Si Si6 0.906400 0.288720 0.705849
Si Si7 0.170723 0.220765 0.831722
O O1 0.158876 0.082035 0.866009
O O2 0.239043 0.086397 0.731827
O O3 0.328532 0.084119 0.859062
O O4 0.238400 0.000000 0.812462
O O5 0.880897 0.184129 0.891123
O O6 0.000000 0.111382 0.885249
O O7 0.889316 0.113164 0.000000
O O8 0.191557 0.843498 0.622994
O O9 0.345110 0.837900 0.686007
O O10 0.212141 0.814121 0.764967
O O11 0.869867 0.205042 0.500000
O O12 0.750000 0.250000 0.585638
O O13 0.902471 0.243317 0.639692
O O14 0.500000 0.081213 0.884076
O O15 0.598567 0.000000 0.913799
O O16 0.609963 0.084303 0.000000
O O17 0.890484 0.263375 0.790556
O O18 0.000000 0.313388 0.705579
O O19 0.250000 0.250000 0.875094
#
# Coordination Sequence:
#
# PCOD8267699 Si02
#       7
#    16  16  16  16  16  16  16
#     4  10  19  31  46  61  83 118 158 196 231 270
#     4  10  20  31  44  65  90 115 148 191 235 274
#     4   8  16  28  41  61  85 112 146 178 214 255
#     4   8  14  26  43  62  87 115 137 162 204 259
#     4   8  14  25  41  60  80 104 139 186 239 284
#     4   9  15  24  42  66  90 112 134 166 209 260
#     4   8  15  29  45  61  85 117 146 171 209 266
#
# _framework density 16.348585
#
# number of rings (size 3 to 8) (size 9 to 14) (size 15 to 20)
#    0.000    3.286    0.000    3.000    0.000    2.286 
#    0.000    0.714    0.000    0.429    0.000   14.000 
#    0.000    0.000    0.000   21.143    0.000    0.286 
#
# Total GULP energy -693892.759495 kJ/mol
# GULP energy per Si atom -12390.942134 kJ/mol
# Density = 1.631137 g / cm^3
# Si number density = 16.348585 Si / 1000 Ang^3
#
#
#
# Elastic Constant Matrix: (Units=GPa)
#
#
# Indices 1 2 3 4 5 6 
#
# 1 99.6532 25.2639 31.3259 0.0000 0.0000 0.0000
# 2 25.2639 58.9910 32.7473 0.0000 0.0000 0.0000
# 3 31.3259 32.7473 68.3792 0.0000 0.0000 0.0000
# 4 0.0000 0.0000 0.0000 17.4303 0.0000 0.0000
# 5 0.0000 0.0000 0.0000 0.0000 11.4304 0.0000
# 6 0.0000 0.0000 0.0000 0.0000 0.0000 19.7842
#
#
#
# Elastic Compliance Matrix: (Units=1/GPa)
#
#
# Indices 1 2 3 4 5 6 
#
# 1 0.012067 -0.002859 -0.004159 0.000000 0.000000 0.000000
# 2 -0.002859 0.023768 -0.010073 0.000000 0.000000 0.000000
# 3 -0.004159 -0.010073 0.021354 0.000000 0.000000 0.000000
# 4 0.000000 0.000000 0.000000 0.057371 0.000000 0.000000
# 5 0.000000 0.000000 0.000000 0.000000 0.087486 0.000000
# 6 0.000000 0.000000 0.000000 0.000000 0.000000 0.050545
#
#
# Mechanical properties :
#
#
# Convention : Reuss Voigt Hill
#
# Bulk Modulus (GPa) = 43.46551 45.07753 44.27152
# Shear Modulus (GPa) = 16.98132 18.90808 17.94470
#
# Velocity S-wave (km/s) = 3.22639 3.40451 3.31664
# Velocity P-wave (km/s) = 6.36584 6.56406 6.46571
#
# Compressibility (1/GPa) = 0.02300675
#
# Stress axis : x y z
#
# Youngs Moduli (GPa) = 82.87070 42.07357 46.83069
#
# Poissons Ratio (x) = 0.12030 0.19476
# Poissons Ratio (y) = 0.23695 0.47171
# Poissons Ratio (z) = 0.34465 0.42380
#
# Static dielectric constant tensor:
#      x y z
#    x 3.185210 0.000000 0.000000 
#    y 0.000000 2.939990 0.000000 
#    z 0.000000 0.000000 3.224100 
# 
# 
# High freq. dielectric constant tensor:
#      x y z
#    x 1.635710 0.000000 0.000000 
#    y 0.000000 1.592070 0.000000 
#    z 0.000000 0.000000 1.606200 
# 
# From -- ./inp_files/55029.got.cif
#   From: 2010.03.12/outbox.cif.g09.slc.cpg/sg65_28_cif.got.tgz:55029.got - 2010.04.10 20:52:16.
