data_PCOD8267851
_publ_section_title
;
Structure prediction by ZEFSAII (Michael W. Deem and Ramdas Pophale) SiO2 
 PCOD8267851
Probable space group: C M M M
;
_chemical_formula_sum "Si O2"
_cell_formula_units_Z 104
_cell_length_a 18.410419
_cell_length_b 18.971643
_cell_length_c 17.029210
_cell_angle_alpha 90.000000
_cell_angle_beta 90.000000
_cell_angle_gamma 90.000000
_cell_volume 5947.892594
_symmetry_space_group_name_H-M "C M M M"
_symmetry_group_IT_number 65
_symmetry_cell_setting 'orthorhombic'
loop_
_space_group_symop_operation_xyz
x,y,z
-x,-y,z
x,-y,-z
-x,y,-z
-x,-y,-z
x,y,-z
-x,y,z
x,-y,z
1/2+x,1/2+y,z
1/2-x,1/2-y,z
1/2+x,1/2-y,-z
1/2-x,1/2+y,-z
1/2-x,1/2-y,-z
1/2+x,1/2+y,-z
1/2-x,1/2+y,z
1/2+x,1/2-y,z
loop_
_atom_site_type_symbol
_atom_site_label
_atom_site_fract_x
_atom_site_fract_y
_atom_site_fract_z
Si Si1 0.718433 0.674150 0.090291
Si Si2 0.724577 0.917478 0.226535
Si Si3 0.418546 0.300769 0.180307
Si Si4 0.417297 0.241501 0.589045
Si Si5 0.417105 0.500000 0.592797
Si Si6 0.647021 0.633597 0.674367
Si Si7 0.418424 0.846235 0.263980
O O1 0.750000 0.750000 0.112929
O O2 0.756835 0.613650 0.141103
O O3 0.632668 0.678467 0.107932
O O4 0.731512 0.654636 0.000000
O O5 0.771049 0.876429 0.293135
O O6 0.639225 0.906702 0.243394
O O7 0.743245 0.000000 0.227200
O O8 0.500000 0.308014 0.149062
O O9 0.406245 0.355012 0.251763
O O10 0.402032 0.222200 0.211027
O O11 0.400174 0.218670 0.500000
O O12 0.500000 0.272093 0.596493
O O13 0.358809 0.299868 0.615959
O O14 0.410251 0.173083 0.644063
O O15 0.500000 0.500000 0.620846
O O16 0.411031 0.500000 0.500000
O O17 0.376265 0.433135 0.625600
O O18 0.500000 0.874510 0.247173
#
# Coordination Sequence:
#
# PCOD8267851 Si02
#       7
#    16  16  16  16   8  16  16
#     4  10  20  35  57  83 107 136 172 212 263 321
#     4  11  22  37  55  76 107 145 178 218 263 311
#     4   9  17  31  54  80 105 134 171 219 262 307
#     4   9  17  31  53  79 106 135 173 225 274 313
#     4  11  20  30  46  70 106 148 180 211 262 320
#     4  10  19  31  47  75 105 139 179 220 258 312
#     4   9  18  34  56  79 102 132 179 223 263 318
#
# _framework density 17.485184
#
# number of rings (size 3 to 8) (size 9 to 14) (size 15 to 20)
#    0.000    2.231    2.308    2.769    0.000    2.154 
#    0.000    2.308    0.000    0.462    0.000    5.385 
#    0.000    0.000    0.000    0.000    0.000    0.000 
#
# Total GULP energy -644738.223497 kJ/mol
# GULP energy per Si atom -12398.811990 kJ/mol
# Density = 1.744539 g / cm^3
# Si number density = 17.485184 Si / 1000 Ang^3
#
#
#
# Elastic Constant Matrix: (Units=GPa)
#
#
# Indices 1 2 3 4 5 6 
#
# 1 103.6011 27.7260 42.6708 0.0000 0.0000 0.0000
# 2 27.7260 50.9659 25.1131 0.0000 0.0000 0.0000
# 3 42.6708 25.1131 78.9439 0.0000 0.0000 0.0000
# 4 0.0000 0.0000 0.0000 19.5669 0.0000 0.0000
# 5 0.0000 0.0000 0.0000 0.0000 19.7203 0.0000
# 6 0.0000 0.0000 0.0000 0.0000 0.0000 26.5574
#
#
#
# Elastic Compliance Matrix: (Units=1/GPa)
#
#
# Indices 1 2 3 4 5 6 
#
# 1 0.013179 -0.004340 -0.005743 0.000000 0.000000 0.000000
# 2 -0.004340 0.024697 -0.005511 0.000000 0.000000 0.000000
# 3 -0.005743 -0.005511 0.017525 0.000000 0.000000 0.000000
# 4 0.000000 0.000000 0.000000 0.051107 0.000000 0.000000
# 5 0.000000 0.000000 0.000000 0.000000 0.050709 0.000000
# 6 0.000000 0.000000 0.000000 0.000000 0.000000 0.037654
#
#
# Mechanical properties :
#
#
# Convention : Reuss Voigt Hill
#
# Bulk Modulus (GPa) = 41.29893 47.17009 44.23451
# Shear Modulus (GPa) = 21.35565 22.36898 21.86232
#
# Velocity S-wave (km/s) = 3.49858 3.58063 3.53984
# Velocity P-wave (km/s) = 6.32383 6.64306 6.48541
#
# Compressibility (1/GPa) = 0.02421370
#
# Stress axis : x y z
#
# Youngs Moduli (GPa) = 75.87663 40.49030 57.06276
#
# Poissons Ratio (x) = 0.17572 0.32772
# Poissons Ratio (y) = 0.32929 0.31446
# Poissons Ratio (z) = 0.43577 0.22313
#
# Static dielectric constant tensor:
#      x y z
#    x 3.286550 0.000000 0.000000 
#    y 0.000000 3.048380 0.000000 
#    z 0.000000 0.000000 3.162510 
# 
# 
# High freq. dielectric constant tensor:
#      x y z
#    x 1.677370 0.000000 0.000000 
#    y 0.000000 1.650690 0.000000 
#    z 0.000000 0.000000 1.669710 
# 
# From -- ./inp_files/54584.got.cif
#   From: 2010.03.12/outbox.cif.g09.slc.cpg/sg65_28_cif.got.tgz:54584.got - 2010.04.10 20:52:16.
