data_PCOD8267044
_publ_section_title
;
Structure prediction by ZEFSAII (Michael W. Deem and Ramdas Pophale) SiO2 
 PCOD8267044
Probable space group: C M M M
;
_chemical_formula_sum "Si O2"
_cell_formula_units_Z 88
_cell_length_a 32.695463
_cell_length_b 16.781984
_cell_length_c 11.862172
_cell_angle_alpha 90.000000
_cell_angle_beta 90.000000
_cell_angle_gamma 90.000000
_cell_volume 6508.711345
_symmetry_space_group_name_H-M "C M M M"
_symmetry_group_IT_number 65
_symmetry_cell_setting 'orthorhombic'
loop_
_space_group_symop_operation_xyz
x,y,z
-x,-y,z
x,-y,-z
-x,y,-z
-x,-y,-z
x,y,-z
-x,y,z
x,-y,z
1/2+x,1/2+y,z
1/2-x,1/2-y,z
1/2+x,1/2-y,-z
1/2-x,1/2+y,-z
1/2-x,1/2-y,-z
1/2+x,1/2+y,-z
1/2-x,1/2+y,z
1/2+x,1/2-y,z
loop_
_atom_site_type_symbol
_atom_site_label
_atom_site_fract_x
_atom_site_fract_y
_atom_site_fract_z
Si Si1 0.088717 0.905383 0.369313
Si Si2 0.262339 0.408485 0.371311
Si Si3 0.720948 0.907873 0.000000
Si Si4 0.818211 0.091506 0.000000
Si Si5 0.663233 0.658102 0.762689
Si Si6 0.500000 0.413353 0.632793
Si Si7 0.712897 0.193592 0.210880
O O1 0.098453 0.887937 0.500000
O O2 0.119353 0.855442 0.292419
O O3 0.043222 0.871848 0.335066
O O4 0.092260 0.000000 0.346043
O O5 0.269822 0.383183 0.500000
O O6 0.249275 0.500000 0.360467
O O7 0.303837 0.395817 0.302410
O O8 0.225739 0.355570 0.321607
O O9 0.701753 0.866418 0.889897
O O10 0.769600 0.898067 0.000000
O O11 0.707978 0.000000 0.000000
O O12 0.838101 0.133108 0.892406
O O13 0.831026 0.000000 0.000000
O O14 0.674231 0.751958 0.755492
O O15 0.500000 0.500000 0.691026
O O16 0.500000 0.426109 0.500000
O O17 0.750000 0.250000 0.169638
#
# Coordination Sequence:
#
# PCOD8267044 Si02
#       7
#    16  16   8   8  16   8  16
#     4   9  16  27  43  62  82 105 134 164 193 227
#     4  10  19  29  39  52  73 103 136 164 193 233
#     4  11  18  30  46  54  68 101 142 174 199 230
#     4  11  19  27  41  56  73  99 137 171 197 227
#     4  11  20  27  40  57  80 102 129 167 203 233
#     4   7  12  24  42  61  79 101 131 163 190 222
#     4  10  19  28  39  55  76 100 129 167 206 233
#
# _framework density 13.520341
#
# number of rings (size 3 to 8) (size 9 to 14) (size 15 to 20)
#    0.000    2.091    3.636    4.636    0.000    5.455 
#    0.000    0.000    0.000    0.545    0.000    2.545 
#    0.000    0.000    0.000    4.091    0.000   26.364 
#
# Total GULP energy -545432.655357 kJ/mol
# GULP energy per Si atom -12396.196713 kJ/mol
# Density = 1.348957 g / cm^3
# Si number density = 13.520341 Si / 1000 Ang^3
#
#
#
# Elastic Constant Matrix: (Units=GPa)
#
#
# Indices 1 2 3 4 5 6 
#
# 1 92.3575 38.7502 41.9449 0.0000 0.0000 0.0000
# 2 38.7502 73.5343 38.9781 0.0000 0.0000 0.0000
# 3 41.9449 38.9781 96.9209 0.0000 0.0000 0.0000
# 4 0.0000 0.0000 0.0000 19.3028 0.0000 0.0000
# 5 0.0000 0.0000 0.0000 0.0000 2.6330 0.0000
# 6 0.0000 0.0000 0.0000 0.0000 0.0000 13.0247
#
#
#
# Elastic Compliance Matrix: (Units=1/GPa)
#
#
# Indices 1 2 3 4 5 6 
#
# 1 0.015168 -0.005736 -0.004257 0.000000 0.000000 0.000000
# 2 -0.005736 0.019453 -0.005341 0.000000 0.000000 0.000000
# 3 -0.004257 -0.005341 0.014308 0.000000 0.000000 0.000000
# 4 0.000000 0.000000 0.000000 0.051806 0.000000 0.000000
# 5 0.000000 0.000000 0.000000 0.000000 0.379798 0.000000
# 6 0.000000 0.000000 0.000000 0.000000 0.000000 0.076777
#
#
# Mechanical properties :
#
#
# Convention : Reuss Voigt Hill
#
# Bulk Modulus (GPa) = 54.76446 55.79545 55.27995
# Shear Modulus (GPa) = 8.41659 16.53473 12.47566
#
# Velocity S-wave (km/s) = 2.49773 3.50087 3.04095
# Velocity P-wave (km/s) = 6.99367 7.59597 7.30103
#
# Compressibility (1/GPa) = 0.01826002
#
# Stress axis : x y z
#
# Youngs Moduli (GPa) = 65.92949 51.40627 69.89099
#
# Poissons Ratio (x) = 0.29488 0.29755
# Poissons Ratio (y) = 0.37819 0.37327
# Poissons Ratio (z) = 0.28068 0.27455
#
# Static dielectric constant tensor:
#      x y z
#    x 2.601100 0.000000 0.000000 
#    y 0.000000 2.688500 0.000000 
#    z 0.000000 0.000000 2.748490 
# 
# 
# High freq. dielectric constant tensor:
#      x y z
#    x 1.475690 0.000000 0.000000 
#    y 0.000000 1.501020 0.000000 
#    z 0.000000 0.000000 1.520010 
# 
# From -- ./inp_files/34099.got.cif
#   From: 2010.03.12/outbox.cif.g09.slc.cpg/sg65_18_cif.got.tgz:34099.got - 2010.04.10 20:52:16.
