data_PCOD8267333
_publ_section_title
;
Structure prediction by ZEFSAII (Michael W. Deem and Ramdas Pophale) SiO2 
 PCOD8267333
Probable space group: C M M M
;
_chemical_formula_sum "Si O2"
_cell_formula_units_Z 112
_cell_length_a 20.773023
_cell_length_b 21.566110
_cell_length_c 14.997833
_cell_angle_alpha 90.000000
_cell_angle_beta 90.000000
_cell_angle_gamma 90.000000
_cell_volume 6718.928684
_symmetry_space_group_name_H-M "C M M M"
_symmetry_group_IT_number 65
_symmetry_cell_setting 'orthorhombic'
loop_
_space_group_symop_operation_xyz
x,y,z
-x,-y,z
x,-y,-z
-x,y,-z
-x,-y,-z
x,y,-z
-x,y,z
x,-y,z
1/2+x,1/2+y,z
1/2-x,1/2-y,z
1/2+x,1/2-y,-z
1/2-x,1/2+y,-z
1/2-x,1/2-y,-z
1/2+x,1/2+y,-z
1/2-x,1/2+y,z
1/2+x,1/2-y,z
loop_
_atom_site_type_symbol
_atom_site_label
_atom_site_fract_x
_atom_site_fract_y
_atom_site_fract_z
Si Si1 0.261069 0.148089 0.735733
Si Si2 0.851510 0.755461 0.732507
Si Si3 0.926291 0.833885 0.396734
Si Si4 0.706505 0.931004 0.896812
Si Si5 0.072284 0.257282 0.098555
Si Si6 0.314638 0.428251 0.603177
Si Si7 0.068216 0.403376 0.898007
O O1 0.209277 0.201100 0.724643
O O2 0.330109 0.182953 0.723069
O O3 0.255141 0.116076 0.833175
O O4 0.246502 0.097062 0.659551
O O5 0.903272 0.772535 0.656302
O O6 0.881521 0.772143 0.828333
O O7 0.920264 0.816790 0.500000
O O8 0.880985 0.892565 0.372410
O O9 0.000000 0.850571 0.371475
O O10 0.632814 0.934252 0.859075
O O11 0.736159 0.000000 0.889678
O O12 0.709299 0.907374 0.000000
O O13 0.073751 0.330311 0.111367
O O14 0.000000 0.231887 0.111560
O O15 0.097642 0.239091 0.000000
O O16 0.296848 0.418723 0.500000
O O17 0.326003 0.500000 0.626535
O O18 0.000000 0.425137 0.852306
O O19 0.064433 0.423631 0.000000
#
# Coordination Sequence:
#
# PCOD8267333 Si02
#       7
#    16  16  16  16  16  16  16
#     4  10  20  31  44  66  92 121 156 185 215 264
#     4  10  19  30  46  66  92 124 152 181 220 266
#     4   9  18  32  50  73  97 117 142 181 229 279
#     4  10  19  30  44  62  88 120 152 189 230 266
#     4   9  16  27  44  64  87 116 149 185 222 258
#     4   9  18  33  52  71  91 117 149 187 228 267
#     4   8  14  25  40  58  80 106 140 181 221 258
#
# _framework density 16.669324
#
# number of rings (size 3 to 8) (size 9 to 14) (size 15 to 20)
#    0.000    2.714    1.429    1.714    0.000    1.714 
#    0.000    7.143    0.000    0.000    0.000    0.000 
#    0.000    0.000    0.000   36.000    0.000    1.000 
#
# Total GULP energy -693816.554149 kJ/mol
# GULP energy per Si atom -12389.581324 kJ/mol
# Density = 1.663138 g / cm^3
# Si number density = 16.669324 Si / 1000 Ang^3
#
#
#
# Elastic Constant Matrix: (Units=GPa)
#
#
# Indices 1 2 3 4 5 6 
#
# 1 56.1395 20.0310 39.9994 0.0000 0.0000 0.0000
# 2 20.0310 65.4879 40.6176 0.0000 0.0000 0.0000
# 3 39.9994 40.6176 86.4226 0.0000 0.0000 0.0000
# 4 0.0000 0.0000 0.0000 24.0777 0.0000 0.0000
# 5 0.0000 0.0000 0.0000 0.0000 26.2617 0.0000
# 6 0.0000 0.0000 0.0000 0.0000 0.0000 5.9495
#
#
#
# Elastic Compliance Matrix: (Units=1/GPa)
#
#
# Indices 1 2 3 4 5 6 
#
# 1 0.026600 -0.000706 -0.011980 0.000000 0.000000 0.000000
# 2 -0.000706 0.021571 -0.009811 0.000000 0.000000 0.000000
# 3 -0.011980 -0.009811 0.021727 0.000000 0.000000 0.000000
# 4 0.000000 0.000000 0.000000 0.041532 0.000000 0.000000
# 5 0.000000 0.000000 0.000000 0.000000 0.038078 0.000000
# 6 0.000000 0.000000 0.000000 0.000000 0.000000 0.168081
#
#
# Mechanical properties :
#
#
# Convention : Reuss Voigt Hill
#
# Bulk Modulus (GPa) = 40.15416 45.48289 42.81852
# Shear Modulus (GPa) = 13.48122 18.41791 15.94956
#
# Velocity S-wave (km/s) = 2.84693 3.32761 3.09661
# Velocity P-wave (km/s) = 5.91165 6.48911 6.20710
#
# Compressibility (1/GPa) = 0.02490402
#
# Stress axis : x y z
#
# Youngs Moduli (GPa) = 37.59360 46.35781 46.02587
#
# Poissons Ratio (x) = 0.03274 0.55137
# Poissons Ratio (y) = 0.02655 0.45158
# Poissons Ratio (z) = 0.45036 0.45484
#
# Static dielectric constant tensor:
#      x y z
#    x 3.337950 0.000000 0.000000 
#    y 0.000000 3.115420 0.000000 
#    z 0.000000 0.000000 3.078570 
# 
# 
# High freq. dielectric constant tensor:
#      x y z
#    x 1.636600 0.000000 0.000000 
#    y 0.000000 1.628200 0.000000 
#    z 0.000000 0.000000 1.624810 
# 
# From -- ./inp_files/29377.got.cif
#   From: 2010.03.12/outbox.cif.g09.slc.cpg/sg65_15_cif.got.tgz:29377.got - 2010.04.10 20:52:16.
