data_PCOD8267657
_publ_section_title
;
Structure prediction by ZEFSAII (Michael W. Deem and Ramdas Pophale) SiO2 
 PCOD8267657
Probable space group: C M M M
;
_chemical_formula_sum "Si O2"
_cell_formula_units_Z 88
_cell_length_a 27.656688
_cell_length_b 18.712709
_cell_length_c 8.363558
_cell_angle_alpha 90.000000
_cell_angle_beta 90.000000
_cell_angle_gamma 90.000000
_cell_volume 4328.405172
_symmetry_space_group_name_H-M "C M M M"
_symmetry_group_IT_number 65
_symmetry_cell_setting 'orthorhombic'
loop_
_space_group_symop_operation_xyz
x,y,z
-x,-y,z
x,-y,-z
-x,y,-z
-x,-y,-z
x,y,-z
-x,y,z
x,-y,z
1/2+x,1/2+y,z
1/2-x,1/2-y,z
1/2+x,1/2-y,-z
1/2-x,1/2+y,-z
1/2-x,1/2-y,-z
1/2+x,1/2+y,-z
1/2-x,1/2+y,z
1/2+x,1/2-y,z
loop_
_atom_site_type_symbol
_atom_site_label
_atom_site_fract_x
_atom_site_fract_y
_atom_site_fract_z
Si Si1 0.554697 0.849164 0.176301
Si Si2 0.942834 0.582494 0.500000
Si Si3 0.795079 0.700721 0.184431
Si Si4 0.947347 0.819165 0.182873
Si Si5 0.348384 0.675024 0.685285
Si Si6 0.261488 0.579402 0.687655
O O1 0.500000 0.877941 0.167868
O O2 0.579771 0.884492 0.334392
O O3 0.554720 0.765162 0.202750
O O4 0.578898 0.867666 0.000000
O O5 0.929386 0.500000 0.500000
O O6 0.000000 0.597667 0.500000
O O7 0.750000 0.750000 0.230828
O O8 0.842386 0.744962 0.239602
O O9 0.786969 0.624611 0.271269
O O10 0.799424 0.683718 0.000000
O O11 0.902630 0.853405 0.280290
O O12 0.000000 0.846238 0.247117
O O13 0.941476 0.842420 0.000000
O O14 0.338858 0.682442 0.500000
O O15 0.309311 0.619264 0.758742
O O16 0.266571 0.572335 0.500000
O O17 0.257855 0.500000 0.763732
#
# Coordination Sequence:
#
# PCOD8267657 Si02
#       6
#    16   8  16  16  16  16
#     4   8  15  27  41  59  85 117 154 200 254 303
#     4   9  16  24  38  60  82 108 144 189 243 303
#     4   9  17  30  49  74 104 135 168 208 254 307
#     4   9  18  32  49  70  98 132 170 218 270 307
#     4  10  19  30  50  79 105 135 175 215 259 311
#     4   9  18  33  52  76 109 142 170 207 257 313
#
# _framework density 20.330812999999999
#
# number of rings (size 3 to 8) (size 9 to 14) (size 15 to 20)
#    0.000    3.000    0.000    2.182    1.273    4.000 
#    0.000    1.818    0.000    1.636    0.000    6.364 
#    0.000    0.000    0.000    0.000    0.000    0.000 
#
# Total GULP energy -545083.726568 kJ/mol
# GULP energy per Si atom -12388.266513 kJ/mol
# Density = 2.028454 g / cm^3
# Si number density = 20.330813 Si / 1000 Ang^3
#
#
#
# Elastic Constant Matrix: (Units=GPa)
#
#
# Indices 1 2 3 4 5 6 
#
# 1 77.4954 24.1941 -8.2321 0.0000 0.0000 0.0000
# 2 24.1941 86.2535 25.2270 0.0000 0.0000 0.0000
# 3 -8.2321 25.2270 68.8506 0.0000 0.0000 0.0000
# 4 0.0000 0.0000 0.0000 15.9411 0.0000 0.0000
# 5 0.0000 0.0000 0.0000 0.0000 23.3233 0.0000
# 6 0.0000 0.0000 0.0000 0.0000 0.0000 10.9301
#
#
#
# Elastic Compliance Matrix: (Units=1/GPa)
#
#
# Indices 1 2 3 4 5 6 
#
# 1 0.014948 -0.005282 0.003723 0.000000 0.000000 0.000000
# 2 -0.005282 0.014851 -0.006073 0.000000 0.000000 0.000000
# 3 0.003723 -0.006073 0.017194 0.000000 0.000000 0.000000
# 4 0.000000 0.000000 0.000000 0.062731 0.000000 0.000000
# 5 0.000000 0.000000 0.000000 0.000000 0.042875 0.000000
# 6 0.000000 0.000000 0.000000 0.000000 0.000000 0.091490
#
#
# Mechanical properties :
#
#
# Convention : Reuss Voigt Hill
#
# Bulk Modulus (GPa) = 31.51625 34.99751 33.25688
# Shear Modulus (GPa) = 18.52315 22.79961 20.66138
#
# Velocity S-wave (km/s) = 3.02170 3.35241 3.19134
# Velocity P-wave (km/s) = 5.26399 5.67770 5.47475
#
# Compressibility (1/GPa) = 0.03172967
#
# Stress axis : x y z
#
# Youngs Moduli (GPa) = 66.89681 67.33327 58.15818
#
# Poissons Ratio (x) = 0.35564 -0.21650
# Poissons Ratio (y) = 0.35333 0.35320
# Poissons Ratio (z) = -0.24903 0.40892
#
# Static dielectric constant tensor:
#      x y z
#    x 3.704070 0.000000 0.000000 
#    y 0.000000 3.550690 0.000000 
#    z 0.000000 0.000000 3.728580 
# 
# 
# High freq. dielectric constant tensor:
#      x y z
#    x 1.773870 0.000000 0.000000 
#    y 0.000000 1.752800 0.000000 
#    z 0.000000 0.000000 1.794580 
# 
# From -- ./inp_files/18306.got.cif
#   From: 2010.03.12/outbox.cif.g09.slc.cpg/sg65_10_cif.got.tgz:18306.got - 2010.04.10 20:52:16.
