data_PCOD8267000
_publ_section_title
;
Structure prediction by ZEFSAII (Michael W. Deem and Ramdas Pophale) SiO2 
 PCOD8267000
Probable space group: C M M M
;
_chemical_formula_sum "Si O2"
_cell_formula_units_Z 80
_cell_length_a 23.463926
_cell_length_b 9.220469
_cell_length_c 20.423806
_cell_angle_alpha 90.000000
_cell_angle_beta 90.000000
_cell_angle_gamma 90.000000
_cell_volume 4418.657797
_symmetry_space_group_name_H-M "C M M M"
_symmetry_group_IT_number 65
_symmetry_cell_setting 'orthorhombic'
loop_
_space_group_symop_operation_xyz
x,y,z
-x,-y,z
x,-y,-z
-x,y,-z
-x,-y,-z
x,y,-z
-x,y,z
x,-y,z
1/2+x,1/2+y,z
1/2-x,1/2-y,z
1/2+x,1/2-y,-z
1/2-x,1/2+y,-z
1/2-x,1/2-y,-z
1/2+x,1/2+y,-z
1/2-x,1/2+y,z
1/2+x,1/2-y,z
loop_
_atom_site_type_symbol
_atom_site_label
_atom_site_fract_x
_atom_site_fract_y
_atom_site_fract_z
Si Si1 0.899035 0.668328 0.640089
Si Si2 0.809311 0.668979 0.253809
Si Si3 0.189835 0.673923 0.000000
Si Si4 0.500000 0.328896 0.707789
Si Si5 0.000000 0.668091 0.159406
Si Si6 0.624482 0.830787 0.126604
Si Si7 0.935733 0.669605 0.500000
O O1 0.916728 0.500000 0.649151
O O2 0.838837 0.697798 0.675682
O O3 0.898277 0.713759 0.563494
O O4 0.944625 0.769659 0.673156
O O5 0.797126 0.500000 0.243846
O O6 0.750000 0.750000 0.252316
O O7 0.849619 0.730160 0.195000
O O8 0.250000 0.750000 0.000000
O O9 0.156535 0.733928 0.063698
O O10 0.195972 0.500000 0.000000
O O11 0.500000 0.500000 0.704447
O O12 0.500000 0.277653 0.781481
O O13 0.942893 0.702338 0.118321
O O14 0.000000 0.500000 0.183590
O O15 0.635061 0.000000 0.127238
O O16 0.945345 0.500000 0.500000
O O17 0.000000 0.740182 0.500000
#
# Coordination Sequence:
#
# PCOD8267000 Si02
#       7
#    16  16   8   8   8  16   8
#     4  10  19  35  56  77 105 139 178 215 258 316
#     4  10  20  34  53  75 102 139 179 219 257 303
#     4  10  20  35  53  79 109 140 181 216 256 307
#     4  12  22  31  50  83 114 137 168 216 271 319
#     4  10  18  35  57  77 106 139 173 216 269 319
#     4   9  18  32  55  81 104 135 175 217 260 310
#     4   9  16  28  55  84  98 128 178 220 251 306
#
# _framework density 18.105045
#
# number of rings (size 3 to 8) (size 9 to 14) (size 15 to 20)
#    0.000    2.100    3.000    1.500    0.000    1.200 
#    0.000    4.500    0.000    0.000    0.000    1.400 
#    0.000    0.000    0.000    0.000    0.000    0.000 
#
# Total GULP energy -495775.125546 kJ/mol
# GULP energy per Si atom -12394.378139 kJ/mol
# Density = 1.806384 g / cm^3
# Si number density = 18.105045 Si / 1000 Ang^3
#
#
#
# Elastic Constant Matrix: (Units=GPa)
#
#
# Indices 1 2 3 4 5 6 
#
# 1 158.8617 38.4035 79.1544 0.0000 0.0000 0.0000
# 2 38.4035 51.1583 22.6433 0.0000 0.0000 0.0000
# 3 79.1544 22.6433 150.1989 0.0000 0.0000 0.0000
# 4 0.0000 0.0000 0.0000 8.9511 0.0000 0.0000
# 5 0.0000 0.0000 0.0000 0.0000 30.3819 0.0000
# 6 0.0000 0.0000 0.0000 0.0000 0.0000 28.3799
#
#
#
# Elastic Compliance Matrix: (Units=1/GPa)
#
#
# Indices 1 2 3 4 5 6 
#
# 1 0.009759 -0.005410 -0.004327 0.000000 0.000000 0.000000
# 2 -0.005410 0.023944 -0.000758 0.000000 0.000000 0.000000
# 3 -0.004327 -0.000758 0.009053 0.000000 0.000000 0.000000
# 4 0.000000 0.000000 0.000000 0.111718 0.000000 0.000000
# 5 0.000000 0.000000 0.000000 0.000000 0.032914 0.000000
# 6 0.000000 0.000000 0.000000 0.000000 0.000000 0.035236
#
#
# Mechanical properties :
#
#
# Convention : Reuss Voigt Hill
#
# Bulk Modulus (GPa) = 45.94832 71.18014 58.56423
# Shear Modulus (GPa) = 19.93057 28.21044 24.07050
#
# Velocity S-wave (km/s) = 3.32147 3.95163 3.65017
# Velocity P-wave (km/s) = 6.33588 7.76021 7.08394
#
# Compressibility (1/GPa) = 0.02176358
#
# Stress axis : x y z
#
# Youngs Moduli (GPa) = 102.47177 41.76342 110.46549
#
# Poissons Ratio (x) = 0.22596 0.47801
# Poissons Ratio (y) = 0.55442 0.08378
# Poissons Ratio (z) = 0.44342 0.03168
#
# Static dielectric constant tensor:
#      x y z
#    x 3.364680 0.000000 0.000000 
#    y 0.000000 2.986720 0.000000 
#    z 0.000000 0.000000 4.096690 
# 
# 
# High freq. dielectric constant tensor:
#      x y z
#    x 1.701200 0.000000 0.000000 
#    y 0.000000 1.660360 0.000000 
#    z 0.000000 0.000000 1.709470 
# 
# From -- ./inp_files/65096.got.cif
#   From: 2010.03.12/outbox.cif.g09.slc.cpg/sg65_33_cif.got.tgz:65096.got - 2010.04.10 20:52:16.
