data_PCOD8267844
_publ_section_title
;
Structure prediction by ZEFSAII (Michael W. Deem and Ramdas Pophale) SiO2 
 PCOD8267844
Probable space group: C M M M
;
_chemical_formula_sum "Si O2"
_cell_formula_units_Z 88
_cell_length_a 28.723658
_cell_length_b 12.964046
_cell_length_c 13.023866
_cell_angle_alpha 90.000000
_cell_angle_beta 90.000000
_cell_angle_gamma 90.000000
_cell_volume 4849.759804
_symmetry_space_group_name_H-M "C M M M"
_symmetry_group_IT_number 65
_symmetry_cell_setting 'orthorhombic'
loop_
_space_group_symop_operation_xyz
x,y,z
-x,-y,z
x,-y,-z
-x,y,-z
-x,-y,-z
x,y,-z
-x,y,z
x,-y,z
1/2+x,1/2+y,z
1/2-x,1/2-y,z
1/2+x,1/2-y,-z
1/2-x,1/2+y,-z
1/2-x,1/2-y,-z
1/2+x,1/2+y,-z
1/2-x,1/2+y,z
1/2+x,1/2-y,z
loop_
_atom_site_type_symbol
_atom_site_label
_atom_site_fract_x
_atom_site_fract_y
_atom_site_fract_z
Si Si1 0.322642 0.380124 0.315961
Si Si2 0.224897 0.378651 0.614329
Si Si3 0.856684 0.378519 0.240045
Si Si4 0.000000 0.115846 0.621102
Si Si5 0.195231 0.771367 0.116155
Si Si6 0.090318 0.758865 0.381449
O O1 0.322963 0.500000 0.337841
O O2 0.275743 0.329182 0.365142
O O3 0.322471 0.360121 0.193401
O O4 0.366851 0.336754 0.375116
O O5 0.208052 0.355720 0.500000
O O6 0.228191 0.500000 0.637001
O O7 0.185224 0.335276 0.688478
O O8 0.862201 0.500000 0.226452
O O9 0.839998 0.327400 0.132758
O O10 0.902565 0.334708 0.298501
O O11 0.955021 0.179822 0.656881
O O12 0.000000 0.104361 0.500000
O O13 0.000000 0.000000 0.669746
O O14 0.250000 0.750000 0.134925
O O15 0.187807 0.809759 0.000000
O O16 0.085013 0.718963 0.500000
#
# Coordination Sequence:
#
# PCOD8267844 Si02
#       6
#    16  16  16   8  16  16
#     4  10  19  31  47  72 100 131 170 207 248 300
#     4   9  16  26  42  65  96 132 165 196 236 288
#     4  10  20  34  49  71 101 136 175 212 253 301
#     4   9  18  34  53  75 104 135 167 205 253 305
#     4  10  20  33  48  69  97 132 174 215 254 299
#     4  10  20  32  51  76 103 135 170 206 247 298
#
# _framework density 18.145227999999999
#
# number of rings (size 3 to 8) (size 9 to 14) (size 15 to 20)
#    0.000    2.273    1.818    1.636    0.000    3.636 
#    0.000    5.000    0.000    1.636    0.000   10.182 
#    0.000   23.273    0.000    0.000    0.000    0.000 
#
# Total GULP energy -545341.687763 kJ/mol
# GULP energy per Si atom -12394.129267 kJ/mol
# Density = 1.810393 g / cm^3
# Si number density = 18.145228 Si / 1000 Ang^3
#
#
#
# Elastic Constant Matrix: (Units=GPa)
#
#
# Indices 1 2 3 4 5 6 
#
# 1 89.9978 23.8406 7.1389 0.0000 0.0000 0.0000
# 2 23.8406 48.1239 -11.2959 0.0000 0.0000 0.0000
# 3 7.1389 -11.2959 50.3764 0.0000 0.0000 0.0000
# 4 0.0000 0.0000 0.0000 19.5318 0.0000 0.0000
# 5 0.0000 0.0000 0.0000 0.0000 13.0599 0.0000
# 6 0.0000 0.0000 0.0000 0.0000 0.0000 25.9037
#
#
#
# Elastic Compliance Matrix: (Units=1/GPa)
#
#
# Indices 1 2 3 4 5 6 
#
# 1 0.013371 -0.007461 -0.003568 0.000000 0.000000 0.000000
# 2 -0.007461 0.026098 0.006909 0.000000 0.000000 0.000000
# 3 -0.003568 0.006909 0.021905 0.000000 0.000000 0.000000
# 4 0.000000 0.000000 0.000000 0.051198 0.000000 0.000000
# 5 0.000000 0.000000 0.000000 0.000000 0.076570 0.000000
# 6 0.000000 0.000000 0.000000 0.000000 0.000000 0.038604
#
#
# Mechanical properties :
#
#
# Convention : Reuss Voigt Hill
#
# Bulk Modulus (GPa) = 18.82027 25.31835 22.06931
# Shear Modulus (GPa) = 19.70839 22.95339 21.33089
#
# Velocity S-wave (km/s) = 3.29925 3.56052 3.43237
# Velocity P-wave (km/s) = 4.99079 5.55756 5.28178
#
# Compressibility (1/GPa) = 0.05313421
#
# Stress axis : x y z
#
# Youngs Moduli (GPa) = 74.78899 38.31728 45.65076
#
# Poissons Ratio (x) = 0.28590 0.16288
# Poissons Ratio (y) = 0.55803 -0.31541
# Poissons Ratio (z) = 0.26684 -0.26475
#
# Static dielectric constant tensor:
#      x y z
#    x 3.331710 0.000000 0.000000 
#    y 0.000000 3.407640 0.000000 
#    z 0.000000 0.000000 3.169400 
# 
# 
# High freq. dielectric constant tensor:
#      x y z
#    x 1.677100 0.000000 0.000000 
#    y 0.000000 1.716580 0.000000 
#    z 0.000000 0.000000 1.680530 
# 
# From -- ./inp_files/25121.got.cif
#   From: 2010.03.12/outbox.cif.g09.slc.cpg/sg65_13_cif.got.tgz:25121.got - 2010.04.10 20:52:16.
