data_PCOD8267019
_publ_section_title
;
Structure prediction by ZEFSAII (Michael W. Deem and Ramdas Pophale) SiO2 
 PCOD8267019
Probable space group: C M M M
;
_chemical_formula_sum "Si O2"
_cell_formula_units_Z 96
_cell_length_a 17.257459
_cell_length_b 26.954903
_cell_length_c 14.334030
_cell_angle_alpha 90.000000
_cell_angle_beta 90.000000
_cell_angle_gamma 90.000000
_cell_volume 6667.805649
_symmetry_space_group_name_H-M "C M M M"
_symmetry_group_IT_number 65
_symmetry_cell_setting 'orthorhombic'
loop_
_space_group_symop_operation_xyz
x,y,z
-x,-y,z
x,-y,-z
-x,y,-z
-x,-y,-z
x,y,-z
-x,y,z
x,-y,z
1/2+x,1/2+y,z
1/2-x,1/2-y,z
1/2+x,1/2-y,-z
1/2-x,1/2+y,-z
1/2-x,1/2-y,-z
1/2+x,1/2+y,-z
1/2-x,1/2+y,z
1/2+x,1/2-y,z
loop_
_atom_site_type_symbol
_atom_site_label
_atom_site_fract_x
_atom_site_fract_y
_atom_site_fract_z
Si Si1 0.588820 0.556984 0.108132
Si Si2 0.587989 0.328702 0.395605
Si Si3 0.912329 0.287906 0.394804
Si Si4 0.339479 0.644089 0.788395
Si Si5 0.089278 0.765503 0.107650
Si Si6 0.695787 0.795627 0.766119
O O1 0.500000 0.568741 0.135260
O O2 0.608436 0.500000 0.129672
O O3 0.647151 0.589966 0.168941
O O4 0.602293 0.569060 0.000000
O O5 0.619002 0.339817 0.500000
O O6 0.500000 0.347515 0.386142
O O7 0.591464 0.270427 0.374472
O O8 0.641070 0.357466 0.321699
O O9 0.885192 0.300002 0.500000
O O10 0.854936 0.314359 0.321882
O O11 0.000000 0.306946 0.379440
O O12 0.395576 0.682908 0.840082
O O13 0.249424 0.659120 0.801281
O O14 0.140671 0.721024 0.149177
O O15 0.000000 0.750863 0.120971
O O16 0.111582 0.772324 0.000000
O O17 0.750000 0.750000 0.733524
#
# Coordination Sequence:
#
# PCOD8267019 Si02
#       6
#    16  16  16  16  16  16
#     4   9  18  32  49  66  81 102 138 180 214 245
#     4   9  16  25  39  58  80 110 145 172 195 232
#     4   9  16  27  41  55  79 116 150 176 198 227
#     4  11  19  27  42  63  83 109 135 171 214 249
#     4  10  19  29  40  54  78 113 144 167 195 241
#     4  10  19  26  36  58  85 111 137 169 205 243
#
# _framework density 14.397539999999999
#
# number of rings (size 3 to 8) (size 9 to 14) (size 15 to 20)
#    0.000    2.333    3.333    4.000    0.000    6.000 
#    0.000    0.000    0.000    0.500    0.000    2.333 
#    0.000    2.667    0.000   11.000    0.000    0.000 
#
# Total GULP energy -595172.609207 kJ/mol
# GULP energy per Si atom -12399.429358 kJ/mol
# Density = 1.436477 g / cm^3
# Si number density = 14.397540 Si / 1000 Ang^3
#
#
#
# Elastic Constant Matrix: (Units=GPa)
#
#
# Indices 1 2 3 4 5 6 
#
# 1 75.9155 32.4823 44.8550 0.0000 0.0000 0.0000
# 2 32.4823 56.4330 32.5657 0.0000 0.0000 0.0000
# 3 44.8550 32.5657 93.4157 0.0000 0.0000 0.0000
# 4 0.0000 0.0000 0.0000 15.0009 0.0000 0.0000
# 5 0.0000 0.0000 0.0000 0.0000 16.1488 0.0000
# 6 0.0000 0.0000 0.0000 0.0000 0.0000 17.8080
#
#
#
# Elastic Compliance Matrix: (Units=1/GPa)
#
#
# Indices 1 2 3 4 5 6 
#
# 1 0.020797 -0.007771 -0.007277 0.000000 0.000000 0.000000
# 2 -0.007771 0.025087 -0.005014 0.000000 0.000000 0.000000
# 3 -0.007277 -0.005014 0.015947 0.000000 0.000000 0.000000
# 4 0.000000 0.000000 0.000000 0.066663 0.000000 0.000000
# 5 0.000000 0.000000 0.000000 0.000000 0.061924 0.000000
# 6 0.000000 0.000000 0.000000 0.000000 0.000000 0.056155
#
#
# Mechanical properties :
#
#
# Convention : Reuss Voigt Hill
#
# Bulk Modulus (GPa) = 46.06963 49.50781 47.78872
# Shear Modulus (GPa) = 17.01070 17.51560 17.26315
#
# Velocity S-wave (km/s) = 3.44103 3.49172 3.46646
# Velocity P-wave (km/s) = 6.91775 7.12159 7.02041
#
# Compressibility (1/GPa) = 0.02170627
#
# Stress axis : x y z
#
# Youngs Moduli (GPa) = 48.08298 39.86182 62.70816
#
# Poissons Ratio (x) = 0.30978 0.45633
# Poissons Ratio (y) = 0.37368 0.31441
# Poissons Ratio (z) = 0.34990 0.19986
#
# Static dielectric constant tensor:
#      x y z
#    x 2.887880 0.000000 0.000000 
#    y 0.000000 2.364220 0.000000 
#    z 0.000000 0.000000 2.964730 
# 
# 
# High freq. dielectric constant tensor:
#      x y z
#    x 1.546530 0.000000 0.000000 
#    y 0.000000 1.483470 0.000000 
#    z 0.000000 0.000000 1.565200 
# 
# From -- ./inp_files/41229.got.cif
#   From: 2010.03.12/outbox.cif.g09.slc.cpg/sg65_21_cif.got.tgz:41229.got - 2010.04.10 20:52:16.
