data_PCOD8267276
_publ_section_title
;
Structure prediction by ZEFSAII (Michael W. Deem and Ramdas Pophale) SiO2 
 PCOD8267276
Probable space group: C M M M
;
_chemical_formula_sum "Si O2"
_cell_formula_units_Z 72
_cell_length_a 9.677752
_cell_length_b 28.738450
_cell_length_c 15.216209
_cell_angle_alpha 90.000000
_cell_angle_beta 90.000000
_cell_angle_gamma 90.000000
_cell_volume 4231.986703
_symmetry_space_group_name_H-M "C M M M"
_symmetry_group_IT_number 65
_symmetry_cell_setting 'orthorhombic'
loop_
_space_group_symop_operation_xyz
x,y,z
-x,-y,z
x,-y,-z
-x,y,-z
-x,-y,-z
x,y,-z
-x,y,z
x,-y,z
1/2+x,1/2+y,z
1/2-x,1/2-y,z
1/2+x,1/2-y,-z
1/2-x,1/2+y,-z
1/2-x,1/2-y,-z
1/2+x,1/2+y,-z
1/2-x,1/2+y,z
1/2+x,1/2-y,z
loop_
_atom_site_type_symbol
_atom_site_label
_atom_site_fract_x
_atom_site_fract_y
_atom_site_fract_z
Si Si1 0.163105 0.891787 0.236417
Si Si2 0.158339 0.795629 0.308864
Si Si3 0.658198 0.053148 0.102553
Si Si4 0.154170 0.793256 0.500000
Si Si5 0.164068 0.052654 0.596499
O O1 0.195703 0.836565 0.240865
O O2 0.240930 0.912060 0.152758
O O3 0.222686 0.915832 0.324839
O O4 0.000000 0.900970 0.225833
O O5 0.250000 0.750000 0.291926
O O6 0.179670 0.819296 0.406853
O O7 0.000000 0.779932 0.296734
O O8 0.500000 0.063521 0.128681
O O9 0.696133 0.000000 0.126485
O O10 0.680934 0.062030 0.000000
O O11 0.250000 0.750000 0.500000
O O12 0.000000 0.773509 0.500000
O O13 0.216201 0.070173 0.500000
O O14 0.000000 0.054762 0.597293
O O15 0.215323 0.000000 0.612225
#
# Coordination Sequence:
#
# PCOD8267276 Si02
#       5
#    16  16  16   8  16
#     4  10  19  29  48  76 100 124 161 207 247 282
#     4   9  18  30  45  67  96 130 166 205 245 284
#     4   9  19  36  55  74  98 128 159 192 239 300
#     4   8  14  26  42  60  87 124 163 201 238 275
#     4   8  14  24  39  63  96 129 157 187 228 281
#
# _framework density 17.013285
#
# number of rings (size 3 to 8) (size 9 to 14) (size 15 to 20)
#    0.000    3.111    0.000    2.000    1.556    2.667 
#    0.000    1.111    0.000    1.333    0.000    3.111 
#    0.000    0.000    0.000    0.000    0.000    0.000 
#
# Total GULP energy -445988.777436 kJ/mol
# GULP energy per Si atom -12388.577151 kJ/mol
# Density = 1.697456 g / cm^3
# Si number density = 17.013285 Si / 1000 Ang^3
#
#
#
# Elastic Constant Matrix: (Units=GPa)
#
#
# Indices 1 2 3 4 5 6 
#
# 1 59.6637 51.5528 44.9446 0.0000 0.0000 0.0000
# 2 51.5528 96.7437 57.6917 0.0000 0.0000 0.0000
# 3 44.9446 57.6917 80.1174 0.0000 0.0000 0.0000
# 4 0.0000 0.0000 0.0000 25.6240 0.0000 0.0000
# 5 0.0000 0.0000 0.0000 0.0000 22.6845 0.0000
# 6 0.0000 0.0000 0.0000 0.0000 0.0000 24.8558
#
#
#
# Elastic Compliance Matrix: (Units=1/GPa)
#
#
# Indices 1 2 3 4 5 6 
#
# 1 0.035997 -0.012513 -0.011183 0.000000 0.000000 0.000000
# 2 -0.012513 0.022466 -0.009158 0.000000 0.000000 0.000000
# 3 -0.011183 -0.009158 0.025350 0.000000 0.000000 0.000000
# 4 0.000000 0.000000 0.000000 0.039026 0.000000 0.000000
# 5 0.000000 0.000000 0.000000 0.000000 0.044083 0.000000
# 6 0.000000 0.000000 0.000000 0.000000 0.000000 0.040232
#
#
# Mechanical properties :
#
#
# Convention : Reuss Voigt Hill
#
# Bulk Modulus (GPa) = 55.23534 60.54476 57.89005
# Shear Modulus (GPa) = 17.92788 20.12191 19.02489
#
# Velocity S-wave (km/s) = 3.24968 3.44280 3.34763
# Velocity P-wave (km/s) = 6.82767 7.17411 7.00303
#
# Compressibility (1/GPa) = 0.01810435
#
# Stress axis : x y z
#
# Youngs Moduli (GPa) = 27.78014 44.51264 39.44846
#
# Poissons Ratio (x) = 0.55699 0.44116
# Poissons Ratio (y) = 0.34762 0.36125
# Poissons Ratio (z) = 0.31067 0.40763
#
# Static dielectric constant tensor:
#      x y z
#    x 2.913610 0.000000 0.000000 
#    y 0.000000 2.867210 0.000000 
#    z 0.000000 0.000000 15.492630 
# 
# 
# High freq. dielectric constant tensor:
#      x y z
#    x 1.628750 0.000000 0.000000 
#    y 0.000000 1.646330 0.000000 
#    z 0.000000 0.000000 1.648120 
# 
# From -- ./inp_files/36957.got.cif
#   From: 2010.03.12/outbox.cif.g09.slc.cpg/sg65_19_cif.got.tgz:36957.got - 2010.04.10 20:52:16.
