data_PCOD8267666
_publ_section_title
;
Structure prediction by ZEFSAII (Michael W. Deem and Ramdas Pophale) SiO2 
 PCOD8267666
Probable space group: C M M M
;
_chemical_formula_sum "Si O2"
_cell_formula_units_Z 120
_cell_length_a 20.141272
_cell_length_b 18.651907
_cell_length_c 17.900479
_cell_angle_alpha 90.000000
_cell_angle_beta 90.000000
_cell_angle_gamma 90.000000
_cell_volume 6724.729014
_symmetry_space_group_name_H-M "C M M M"
_symmetry_group_IT_number 65
_symmetry_cell_setting 'orthorhombic'
loop_
_space_group_symop_operation_xyz
x,y,z
-x,-y,z
x,-y,-z
-x,y,-z
-x,-y,-z
x,y,-z
-x,y,z
x,-y,z
1/2+x,1/2+y,z
1/2-x,1/2-y,z
1/2+x,1/2-y,-z
1/2-x,1/2+y,-z
1/2-x,1/2-y,-z
1/2+x,1/2+y,-z
1/2-x,1/2+y,z
1/2+x,1/2-y,z
loop_
_atom_site_type_symbol
_atom_site_label
_atom_site_fract_x
_atom_site_fract_y
_atom_site_fract_z
Si Si1 0.371760 0.333146 0.912600
Si Si2 0.344494 0.578787 0.319525
Si Si3 0.218758 0.421015 0.415282
Si Si4 0.424361 0.679818 0.415540
Si Si5 0.234702 0.085713 0.171858
Si Si6 0.679883 0.213526 0.184022
Si Si7 0.500000 0.418780 0.088787
Si Si8 0.823289 0.282444 0.648715
O O1 0.309244 0.385591 0.896906
O O2 0.368985 0.254151 0.873765
O O3 0.435882 0.375744 0.882222
O O4 0.375877 0.318160 0.000000
O O5 0.371215 0.500000 0.299639
O O6 0.294399 0.578028 0.388679
O O7 0.406531 0.624526 0.348786
O O8 0.305545 0.609592 0.247070
O O9 0.219069 0.394665 0.500000
O O10 0.187083 0.500000 0.406081
O O11 0.175287 0.367032 0.366645
O O12 0.416217 0.648487 0.500000
O O13 0.500000 0.704143 0.402581
O O14 0.375722 0.747355 0.407291
O O15 0.306037 0.127868 0.170523
O O16 0.247311 0.000000 0.167972
O O17 0.750000 0.250000 0.171965
O O18 0.652263 0.228463 0.266686
O O19 0.500000 0.500000 0.121576
O O20 0.500000 0.422849 0.000000
O O21 0.750000 0.250000 0.634596
#
# Coordination Sequence:
#
# PCOD8267666 Si02
#       8
#    16  16  16  16  16  16   8  16
#     4  10  20  34  52  76 106 139 175 214 255 308
#     4  10  19  34  51  71 104 141 176 211 254 314
#     4  10  19  30  52  82 101 123 171 227 269 304
#     4  11  23  35  48  72 106 140 175 221 271 316
#     4  10  19  33  53  77 106 138 169 211 264 312
#     4   9  18  32  50  73 102 136 169 212 263 312
#     4   9  18  34  54  76 105 139 176 219 257 293
#     4  11  19  34  55  74  99 137 178 219 260 313
#
# _framework density 17.844586
#
# number of rings (size 3 to 8) (size 9 to 14) (size 15 to 20)
#    0.000    1.933    2.667    2.800    0.000    4.800 
#    4.800    0.667    0.000    0.400    0.000    2.333 
#    0.000    1.600    0.000    0.000    0.000    0.000 
#
# Total GULP energy -743581.949670 kJ/mol
# GULP energy per Si atom -12393.032494 kJ/mol
# Density = 1.780397 g / cm^3
# Si number density = 17.844586 Si / 1000 Ang^3
#
#
#
# Elastic Constant Matrix: (Units=GPa)
#
#
# Indices 1 2 3 4 5 6 
#
# 1 70.7487 42.7126 29.6494 0.0000 0.0000 0.0000
# 2 42.7126 111.7818 36.5946 0.0000 0.0000 0.0000
# 3 29.6494 36.5946 78.3399 0.0000 0.0000 0.0000
# 4 0.0000 0.0000 0.0000 28.6157 0.0000 0.0000
# 5 0.0000 0.0000 0.0000 0.0000 21.4145 0.0000
# 6 0.0000 0.0000 0.0000 0.0000 0.0000 25.9442
#
#
#
# Elastic Compliance Matrix: (Units=1/GPa)
#
#
# Indices 1 2 3 4 5 6 
#
# 1 0.019712 -0.006009 -0.004654 0.000000 0.000000 0.000000
# 2 -0.006009 0.012393 -0.003515 0.000000 0.000000 0.000000
# 3 -0.004654 -0.003515 0.016168 0.000000 0.000000 0.000000
# 4 0.000000 0.000000 0.000000 0.034946 0.000000 0.000000
# 5 0.000000 0.000000 0.000000 0.000000 0.046697 0.000000
# 6 0.000000 0.000000 0.000000 0.000000 0.000000 0.038544
#
#
# Mechanical properties :
#
#
# Convention : Reuss Voigt Hill
#
# Bulk Modulus (GPa) = 50.20441 53.19817 51.70129
# Shear Modulus (GPa) = 24.57550 25.32248 24.94899
#
# Velocity S-wave (km/s) = 3.71509 3.77112 3.74321
# Velocity P-wave (km/s) = 6.82626 6.98845 6.90783
#
# Compressibility (1/GPa) = 0.01991857
#
# Stress axis : x y z
#
# Youngs Moduli (GPa) = 50.72934 80.69317 61.85038
#
# Poissons Ratio (x) = 0.48486 0.28784
# Poissons Ratio (y) = 0.30482 0.21739
# Poissons Ratio (z) = 0.23608 0.28362
#
# Static dielectric constant tensor:
#      x y z
#    x 3.023910 0.000000 0.000000 
#    y 0.000000 3.714170 0.000000 
#    z 0.000000 0.000000 3.285870 
# 
# 
# High freq. dielectric constant tensor:
#      x y z
#    x 1.640860 0.000000 0.000000 
#    y 0.000000 1.697070 0.000000 
#    z 0.000000 0.000000 1.694710 
# 
# From -- ./inp_files/54988.got.cif
#   From: 2010.03.12/outbox.cif.g09.slc.cpg/sg65_28_cif.got.tgz:54988.got - 2010.04.10 20:52:16.
