data_PCOD8267945
_publ_section_title
;
Structure prediction by ZEFSAII (Michael W. Deem and Ramdas Pophale) SiO2 
 PCOD8267945
Probable space group: C M M M
;
_chemical_formula_sum "Si O2"
_cell_formula_units_Z 104
_cell_length_a 15.414388
_cell_length_b 27.930332
_cell_length_c 13.645711
_cell_angle_alpha 90.000000
_cell_angle_beta 90.000000
_cell_angle_gamma 90.000000
_cell_volume 5874.873962
_symmetry_space_group_name_H-M "C M M M"
_symmetry_group_IT_number 65
_symmetry_cell_setting 'orthorhombic'
loop_
_space_group_symop_operation_xyz
x,y,z
-x,-y,z
x,-y,-z
-x,y,-z
-x,-y,-z
x,y,-z
-x,y,z
x,-y,z
1/2+x,1/2+y,z
1/2-x,1/2-y,z
1/2+x,1/2-y,-z
1/2-x,1/2+y,-z
1/2-x,1/2-y,-z
1/2+x,1/2+y,-z
1/2-x,1/2+y,z
1/2+x,1/2-y,z
loop_
_atom_site_type_symbol
_atom_site_label
_atom_site_fract_x
_atom_site_fract_y
_atom_site_fract_z
Si Si1 0.346261 0.162942 0.388173
Si Si2 0.597440 0.085014 0.255384
Si Si3 0.901594 0.236447 0.612980
Si Si4 0.397349 0.000000 0.391373
Si Si5 0.260477 0.055812 0.888003
Si Si6 0.401683 0.554659 0.242960
Si Si7 0.348372 0.364361 0.388390
O O1 0.383121 0.160854 0.500000
O O2 0.408110 0.135343 0.312485
O O3 0.341993 0.218667 0.353227
O O4 0.254800 0.136615 0.382408
O O5 0.500000 0.072318 0.218419
O O6 0.663512 0.086246 0.164325
O O7 0.634378 0.046355 0.332642
O O8 0.881072 0.226704 0.500000
O O9 0.881115 0.185276 0.663331
O O10 0.000000 0.251902 0.632989
O O11 0.500000 0.000000 0.401533
O O12 0.354963 0.000000 0.500000
O O13 0.165967 0.067115 0.843157
O O14 0.283982 0.000000 0.878828
O O15 0.257594 0.072668 0.000000
O O16 0.500000 0.561310 0.203047
O O17 0.387536 0.500000 0.279279
O O18 0.386191 0.589942 0.333327
O O19 0.381278 0.369021 0.500000
#
# Coordination Sequence:
#
# PCOD8267945 Si02
#       7
#    16  16  16   8  16  16  16
#     4  10  19  31  48  74 108 146 183 218 255 302
#     4  11  20  32  50  75 106 140 179 215 258 315
#     4   9  17  29  46  71 104 142 183 221 257 300
#     4   9  18  30  45  69 104 143 177 209 245 297
#     4  10  21  38  57  76 101 132 172 225 278 320
#     4  10  21  37  56  79 106 136 175 219 265 320
#     4  10  19  32  51  76 109 147 181 215 259 312
#
# _framework density 17.702507000000001
#
# number of rings (size 3 to 8) (size 9 to 14) (size 15 to 20)
#    0.000    2.077    2.308    1.846    0.000    5.231 
#    0.000    3.077    0.000    0.000    0.000    2.154 
#    0.000    3.692    0.000    0.000    0.000    0.000 
#
# Total GULP energy -644609.454801 kJ/mol
# GULP energy per Si atom -12396.335669 kJ/mol
# Density = 1.766222 g / cm^3
# Si number density = 17.702507 Si / 1000 Ang^3
#
#
#
# Elastic Constant Matrix: (Units=GPa)
#
#
# Indices 1 2 3 4 5 6 
#
# 1 90.4007 37.3800 43.8899 0.0000 0.0000 0.0000
# 2 37.3800 105.7089 51.3052 0.0000 0.0000 0.0000
# 3 43.8899 51.3052 95.5120 0.0000 0.0000 0.0000
# 4 0.0000 0.0000 0.0000 9.3415 0.0000 0.0000
# 5 0.0000 0.0000 0.0000 0.0000 18.0202 0.0000
# 6 0.0000 0.0000 0.0000 0.0000 0.0000 27.5920
#
#
#
# Elastic Compliance Matrix: (Units=1/GPa)
#
#
# Indices 1 2 3 4 5 6 
#
# 1 0.014751 -0.002606 -0.005379 0.000000 0.000000 0.000000
# 2 -0.002606 0.013256 -0.005923 0.000000 0.000000 0.000000
# 3 -0.005379 -0.005923 0.016123 0.000000 0.000000 0.000000
# 4 0.000000 0.000000 0.000000 0.107049 0.000000 0.000000
# 5 0.000000 0.000000 0.000000 0.000000 0.055493 0.000000
# 6 0.000000 0.000000 0.000000 0.000000 0.000000 0.036242
#
#
# Mechanical properties :
#
#
# Convention : Reuss Voigt Hill
#
# Bulk Modulus (GPa) = 61.29343 61.86353 61.57848
# Shear Modulus (GPa) = 18.10493 21.59385 19.84939
#
# Velocity S-wave (km/s) = 3.20149 3.49638 3.35218
# Velocity P-wave (km/s) = 6.95452 7.16391 7.05999
#
# Compressibility (1/GPa) = 0.01631496
#
# Stress axis : x y z
#
# Youngs Moduli (GPa) = 67.79404 75.43663 62.02210
#
# Poissons Ratio (x) = 0.19655 0.33359
# Poissons Ratio (y) = 0.17664 0.36738
# Poissons Ratio (z) = 0.36464 0.44684
#
# Static dielectric constant tensor:
#      x y z
#    x 3.283310 0.000000 0.000000 
#    y 0.000000 3.389270 0.000000 
#    z 0.000000 0.000000 2.963720 
# 
# 
# High freq. dielectric constant tensor:
#      x y z
#    x 1.693590 0.000000 0.000000 
#    y 0.000000 1.687250 0.000000 
#    z 0.000000 0.000000 1.631400 
# 
# From -- ./inp_files/25573.got.cif
#   From: 2010.03.12/outbox.cif.g09.slc.cpg/sg65_13_cif.got.tgz:25573.got - 2010.04.10 20:52:16.
