data_PCOD8267702
_publ_section_title
;
Structure prediction by ZEFSAII (Michael W. Deem and Ramdas Pophale) SiO2 
 PCOD8267702
Probable space group: C M M M
;
_chemical_formula_sum "Si O2"
_cell_formula_units_Z 104
_cell_length_a 15.305957
_cell_length_b 23.749459
_cell_length_c 17.818252
_cell_angle_alpha 90.000000
_cell_angle_beta 90.000000
_cell_angle_gamma 90.000000
_cell_volume 6477.080680
_symmetry_space_group_name_H-M "C M M M"
_symmetry_group_IT_number 65
_symmetry_cell_setting 'orthorhombic'
loop_
_space_group_symop_operation_xyz
x,y,z
-x,-y,z
x,-y,-z
-x,y,-z
-x,-y,-z
x,y,-z
-x,y,z
x,-y,z
1/2+x,1/2+y,z
1/2-x,1/2-y,z
1/2+x,1/2-y,-z
1/2-x,1/2+y,-z
1/2-x,1/2-y,-z
1/2+x,1/2+y,-z
1/2-x,1/2+y,z
1/2+x,1/2-y,z
loop_
_atom_site_type_symbol
_atom_site_label
_atom_site_fract_x
_atom_site_fract_y
_atom_site_fract_z
Si Si1 0.597381 0.566624 0.916581
Si Si2 0.162526 0.128151 0.359427
Si Si3 0.347448 0.133622 0.584662
Si Si4 0.721050 0.433717 0.784205
Si Si5 0.398547 0.258592 0.413846
Si Si6 0.000000 0.939421 0.414067
Si Si7 0.595761 0.935568 0.722070
O O1 0.500000 0.587077 0.889754
O O2 0.596341 0.500000 0.919893
O O3 0.676674 0.585882 0.862297
O O4 0.616654 0.590806 0.000000
O O5 0.247633 0.114070 0.408409
O O6 0.173060 0.105148 0.275882
O O7 0.142841 0.194885 0.358835
O O8 0.083810 0.096490 0.396824
O O9 0.381987 0.121450 0.500000
O O10 0.351368 0.199836 0.602798
O O11 0.403813 0.100302 0.645630
O O12 0.703792 0.500000 0.768793
O O13 0.825765 0.420315 0.780489
O O14 0.383224 0.277579 0.500000
O O15 0.500000 0.250826 0.396205
O O16 0.000000 0.953360 0.500000
O O17 0.000000 0.000000 0.370812
O O18 0.500000 0.925817 0.760292
O O19 0.607013 0.000000 0.697137
#
# Coordination Sequence:
#
# PCOD8267702 Si02
#       7
#    16  16  16  16  16   8  16
#     4   8  14  25  43  67  93 120 148 178 214 263
#     4  11  20  31  44  61  86 117 152 192 230 277
#     4  10  20  32  47  64  83 113 156 201 243 282
#     4   9  18  30  45  66  91 121 152 182 224 278
#     4  10  19  31  46  62  83 112 150 196 244 282
#     4  11  22  32  42  58  85 123 158 188 227 275
#     4   9  18  32  47  64  88 116 148 190 238 281
#
# _framework density 16.056616999999999
#
# number of rings (size 3 to 8) (size 9 to 14) (size 15 to 20)
#    0.000    2.385    0.769    3.231    1.077    3.077 
#    0.000    0.769    0.000    0.462    0.000    3.231 
#    0.000    9.846    0.000    3.077    0.000    0.923 
#
# Total GULP energy -644413.147524 kJ/mol
# GULP energy per Si atom -12392.560529 kJ/mol
# Density = 1.602007 g / cm^3
# Si number density = 16.056617 Si / 1000 Ang^3
#
#
#
# Elastic Constant Matrix: (Units=GPa)
#
#
# Indices 1 2 3 4 5 6 
#
# 1 115.2612 27.6785 53.3798 0.0000 0.0000 0.0000
# 2 27.6785 51.8997 29.3028 0.0000 0.0000 0.0000
# 3 53.3798 29.3028 87.6126 0.0000 0.0000 0.0000
# 4 0.0000 0.0000 0.0000 8.5537 0.0000 0.0000
# 5 0.0000 0.0000 0.0000 0.0000 23.9707 0.0000
# 6 0.0000 0.0000 0.0000 0.0000 0.0000 15.8184
#
#
#
# Elastic Compliance Matrix: (Units=1/GPa)
#
#
# Indices 1 2 3 4 5 6 
#
# 1 0.012431 -0.002901 -0.006603 0.000000 0.000000 0.000000
# 2 -0.002901 0.024431 -0.006403 0.000000 0.000000 0.000000
# 3 -0.006603 -0.006403 0.017579 0.000000 0.000000 0.000000
# 4 0.000000 0.000000 0.000000 0.116909 0.000000 0.000000
# 5 0.000000 0.000000 0.000000 0.000000 0.041718 0.000000
# 6 0.000000 0.000000 0.000000 0.000000 0.000000 0.063217
#
#
# Mechanical properties :
#
#
# Convention : Reuss Voigt Hill
#
# Bulk Modulus (GPa) = 44.20041 52.83286 48.51664
# Shear Modulus (GPa) = 15.84078 19.29607 17.56843
#
# Velocity S-wave (km/s) = 3.14436 3.47039 3.31139
# Velocity P-wave (km/s) = 6.38516 7.00241 6.70089
#
# Compressibility (1/GPa) = 0.02262422
#
# Stress axis : x y z
#
# Youngs Moduli (GPa) = 80.44543 40.93240 56.88662
#
# Poissons Ratio (x) = 0.11875 0.37565
# Poissons Ratio (y) = 0.23338 0.36427
# Poissons Ratio (z) = 0.53121 0.26211
#
# Static dielectric constant tensor:
#      x y z
#    x 3.038880 0.000000 0.000000 
#    y 0.000000 2.977880 0.000000 
#    z 0.000000 0.000000 2.928070 
# 
# 
# High freq. dielectric constant tensor:
#      x y z
#    x 1.637290 0.000000 0.000000 
#    y 0.000000 1.599870 0.000000 
#    z 0.000000 0.000000 1.575630 
# 
# From -- ./inp_files/53501.got.cif
#   From: 2010.03.12/outbox.cif.g09.slc.cpg/sg65_27_cif.got.tgz:53501.got - 2010.04.10 20:52:16.
