data_PCOD8267892
_publ_section_title
;
Structure prediction by ZEFSAII (Michael W. Deem and Ramdas Pophale) SiO2 
 PCOD8267892
Probable space group: C M M M
;
_chemical_formula_sum "Si O2"
_cell_formula_units_Z 72
_cell_length_a 8.896154
_cell_length_b 18.785978
_cell_length_c 23.350713
_cell_angle_alpha 90.000000
_cell_angle_beta 90.000000
_cell_angle_gamma 90.000000
_cell_volume 3902.440119
_symmetry_space_group_name_H-M "C M M M"
_symmetry_group_IT_number 65
_symmetry_cell_setting 'orthorhombic'
loop_
_space_group_symop_operation_xyz
x,y,z
-x,-y,z
x,-y,-z
-x,y,-z
-x,-y,-z
x,y,-z
-x,y,z
x,-y,z
1/2+x,1/2+y,z
1/2-x,1/2-y,z
1/2+x,1/2-y,-z
1/2-x,1/2+y,-z
1/2-x,1/2-y,-z
1/2+x,1/2+y,-z
1/2-x,1/2+y,z
1/2+x,1/2-y,z
loop_
_atom_site_type_symbol
_atom_site_label
_atom_site_fract_x
_atom_site_fract_y
_atom_site_fract_z
Si Si1 0.176126 0.822808 0.065723
Si Si2 0.322307 0.172756 0.265634
Si Si3 0.822469 0.172424 0.622446
Si Si4 0.325725 0.325541 0.500000
Si Si5 0.324757 0.081877 0.843787
O O1 0.250000 0.750000 0.088571
O O2 0.234869 0.889176 0.101823
O O3 0.000000 0.814933 0.073817
O O4 0.221414 0.836733 0.000000
O O5 0.500000 0.180599 0.271326
O O6 0.250000 0.250000 0.256128
O O7 0.256487 0.134374 0.323268
O O8 0.274691 0.123383 0.213005
O O9 0.750000 0.250000 0.619868
O O10 0.787078 0.133958 0.560400
O O11 0.000000 0.177184 0.633696
O O12 0.500000 0.308028 0.500000
O O13 0.250000 0.250000 0.500000
O O14 0.500000 0.092264 0.856089
O O15 0.281682 0.000000 0.835089
#
# Coordination Sequence:
#
# PCOD8267892 Si02
#       5
#    16  16  16   8  16
#     4  10  21  37  58  83 108 134 166 204 245 292
#     4  10  19  31  48  70  96 126 163 204 245 292
#     4   9  15  24  39  61  90 122 156 194 240 291
#     4   8  14  22  34  56  87 120 151 189 237 289
#     4  10  22  38  54  74 102 136 171 208 252 298
#
# _framework density 18.449995000000001
#
# number of rings (size 3 to 8) (size 9 to 14) (size 15 to 20)
#    0.000    2.444    0.000    4.000    0.000    6.667 
#    0.000    2.222    0.000    0.000    0.000    0.778 
#    0.000    6.222    0.000    0.000    0.000    0.000 
#
# Total GULP energy -446074.833436 kJ/mol
# GULP energy per Si atom -12390.967595 kJ/mol
# Density = 1.840800 g / cm^3
# Si number density = 18.449995 Si / 1000 Ang^3
#
#
#
# Elastic Constant Matrix: (Units=GPa)
#
#
# Indices 1 2 3 4 5 6 
#
# 1 74.1278 33.6998 57.8669 0.0000 0.0000 0.0000
# 2 33.6998 75.4600 63.6852 0.0000 0.0000 0.0000
# 3 57.8669 63.6852 158.9714 0.0000 0.0000 0.0000
# 4 0.0000 0.0000 0.0000 3.9563 0.0000 0.0000
# 5 0.0000 0.0000 0.0000 0.0000 33.5610 0.0000
# 6 0.0000 0.0000 0.0000 0.0000 0.0000 19.7986
#
#
#
# Elastic Compliance Matrix: (Units=1/GPa)
#
#
# Indices 1 2 3 4 5 6 
#
# 1 0.019666 -0.004141 -0.005500 0.000000 0.000000 0.000000
# 2 -0.004141 0.020893 -0.006863 0.000000 0.000000 0.000000
# 3 -0.005500 -0.006863 0.011042 0.000000 0.000000 0.000000
# 4 0.000000 0.000000 0.000000 0.252764 0.000000 0.000000
# 5 0.000000 0.000000 0.000000 0.000000 0.029797 0.000000
# 6 0.000000 0.000000 0.000000 0.000000 0.000000 0.050509
#
#
# Mechanical properties :
#
#
# Convention : Reuss Voigt Hill
#
# Bulk Modulus (GPa) = 53.78069 68.78478 61.28273
# Shear Modulus (GPa) = 11.79593 21.68365 16.73979
#
# Velocity S-wave (km/s) = 2.53127 3.43193 3.01542
# Velocity P-wave (km/s) = 6.14458 7.28470 6.73880
#
# Compressibility (1/GPa) = 0.01859404
#
# Stress axis : x y z
#
# Youngs Moduli (GPa) = 50.84896 47.86247 90.56727
#
# Poissons Ratio (x) = 0.19821 0.49808
# Poissons Ratio (y) = 0.21058 0.62152
# Poissons Ratio (z) = 0.27965 0.32846
#
# Static dielectric constant tensor:
#      x y z
#    x 3.329950 0.000000 0.000000 
#    y 0.000000 2.936710 0.000000 
#    z 0.000000 0.000000 4.314390 
# 
# 
# High freq. dielectric constant tensor:
#      x y z
#    x 1.725200 0.000000 0.000000 
#    y 0.000000 1.655200 0.000000 
#    z 0.000000 0.000000 1.747690 
# 
# From -- ./inp_files/67018.got.cif
#   From: 2010.03.12/outbox.cif.g09.slc.cpg/sg65_34_cif.got.tgz:67018.got - 2010.04.10 20:52:16.
