data_PCOD8267501
_publ_section_title
;
Structure prediction by ZEFSAII (Michael W. Deem and Ramdas Pophale) SiO2 
 PCOD8267501
Probable space group: C M M M
;
_chemical_formula_sum "Si O2"
_cell_formula_units_Z 88
_cell_length_a 14.865483
_cell_length_b 18.417207
_cell_length_c 19.720222
_cell_angle_alpha 90.000000
_cell_angle_beta 90.000000
_cell_angle_gamma 90.000000
_cell_volume 5399.015741
_symmetry_space_group_name_H-M "C M M M"
_symmetry_group_IT_number 65
_symmetry_cell_setting 'orthorhombic'
loop_
_space_group_symop_operation_xyz
x,y,z
-x,-y,z
x,-y,-z
-x,y,-z
-x,-y,-z
x,y,-z
-x,y,z
x,-y,z
1/2+x,1/2+y,z
1/2-x,1/2-y,z
1/2+x,1/2-y,-z
1/2-x,1/2+y,-z
1/2-x,1/2-y,-z
1/2+x,1/2+y,-z
1/2-x,1/2+y,z
1/2+x,1/2-y,z
loop_
_atom_site_type_symbol
_atom_site_label
_atom_site_fract_x
_atom_site_fract_y
_atom_site_fract_z
Si Si1 0.606668 0.081122 0.355463
Si Si2 0.103636 0.352041 0.217208
Si Si3 0.401334 0.913654 0.500000
Si Si4 0.765860 0.080579 0.144343
Si Si5 0.394733 0.228545 0.000000
Si Si6 0.396106 0.706193 0.858847
Si Si7 0.301952 0.079275 0.000000
O O1 0.500000 0.077711 0.364523
O O2 0.633047 0.136727 0.295610
O O3 0.647843 0.108335 0.428586
O O4 0.642323 0.000000 0.337192
O O5 0.165861 0.402230 0.170805
O O6 0.116809 0.268395 0.197350
O O7 0.000000 0.376319 0.205299
O O8 0.500000 0.877303 0.500000
O O9 0.410345 0.000000 0.500000
O O10 0.840030 0.138098 0.169501
O O11 0.764539 0.084773 0.063448
O O12 0.793821 0.000000 0.169083
O O13 0.356635 0.266356 0.931664
O O14 0.374563 0.143178 0.000000
O O15 0.500000 0.236796 0.000000
O O16 0.500000 0.683469 0.865834
O O17 0.351315 0.000000 0.000000
#
# Coordination Sequence:
#
# PCOD8267501 Si02
#       7
#    16  16   8  16   8  16   8
#     4   8  13  22  37  60  92 125 153 180 211 258
#     4  10  19  30  46  70  97 123 150 182 224 273
#     4   7  10  18  34  56  85 124 158 176 203 253
#     4  11  22  34  49  68  91 120 152 192 236 273
#     4  10  19  34  52  68  88 120 154 189 232 275
#     4  10  21  35  51  68  86 117 159 195 231 273
#     4  10  21  32  46  70  94 117 147 187 233 278
#
# _framework density 16.299268000000001
#
# number of rings (size 3 to 8) (size 9 to 14) (size 15 to 20)
#    0.000    2.455    1.818    2.727    0.000    2.364 
#    0.000    1.818    0.000    3.273    0.000    2.545 
#    0.000    0.000    0.000    0.000    0.000   25.273 
#
# Total GULP energy -545192.796519 kJ/mol
# GULP energy per Si atom -12390.745375 kJ/mol
# Density = 1.626217 g / cm^3
# Si number density = 16.299268 Si / 1000 Ang^3
#
#
#
# Elastic Constant Matrix: (Units=GPa)
#
#
# Indices 1 2 3 4 5 6 
#
# 1 45.6078 42.5726 30.1227 0.0000 0.0000 0.0000
# 2 42.5726 109.9232 45.8824 0.0000 0.0000 0.0000
# 3 30.1227 45.8824 110.8878 0.0000 0.0000 0.0000
# 4 0.0000 0.0000 0.0000 12.2026 0.0000 0.0000
# 5 0.0000 0.0000 0.0000 0.0000 5.5389 0.0000
# 6 0.0000 0.0000 0.0000 0.0000 0.0000 20.7981
#
#
#
# Elastic Compliance Matrix: (Units=1/GPa)
#
#
# Indices 1 2 3 4 5 6 
#
# 1 0.036421 -0.012059 -0.004904 0.000000 0.000000 0.000000
# 2 -0.012059 0.014989 -0.002926 0.000000 0.000000 0.000000
# 3 -0.004904 -0.002926 0.011561 0.000000 0.000000 0.000000
# 4 0.000000 0.000000 0.000000 0.081950 0.000000 0.000000
# 5 0.000000 0.000000 0.000000 0.000000 0.180542 0.000000
# 6 0.000000 0.000000 0.000000 0.000000 0.000000 0.048081
#
#
# Mechanical properties :
#
#
# Convention : Reuss Voigt Hill
#
# Bulk Modulus (GPa) = 43.11653 55.95270 49.53461
# Shear Modulus (GPa) = 11.87495 17.56399 14.71947
#
# Velocity S-wave (km/s) = 2.70211 3.28623 3.00838
# Velocity P-wave (km/s) = 6.02044 6.98584 6.52103
#
# Compressibility (1/GPa) = 0.02319296
#
# Stress axis : x y z
#
# Youngs Moduli (GPa) = 27.45634 66.71570 86.49622
#
# Poissons Ratio (x) = 0.80451 0.42421
# Poissons Ratio (y) = 0.33109 0.25311
# Poissons Ratio (z) = 0.13465 0.19523
#
# Static dielectric constant tensor:
#      x y z
#    x 2.702850 0.000000 0.000000 
#    y 0.000000 3.016370 0.000000 
#    z 0.000000 0.000000 3.491990 
# 
# 
# High freq. dielectric constant tensor:
#      x y z
#    x 1.585000 0.000000 0.000000 
#    y 0.000000 1.613110 0.000000 
#    z 0.000000 0.000000 1.624700 
# 
# From -- ./inp_files/62519.got.cif
#   From: 2010.03.12/outbox.cif.g09.slc.cpg/sg65_32_cif.got.tgz:62519.got - 2010.04.10 20:52:16.
