data_PCOD8267156
_publ_section_title
;
Structure prediction by ZEFSAII (Michael W. Deem and Ramdas Pophale) SiO2 
 PCOD8267156
Probable space group: C M M M
;
_chemical_formula_sum "Si O2"
_cell_formula_units_Z 80
_cell_length_a 23.351153
_cell_length_b 23.891480
_cell_length_c 9.653819
_cell_angle_alpha 90.000000
_cell_angle_beta 90.000000
_cell_angle_gamma 90.000000
_cell_volume 5385.803883
_symmetry_space_group_name_H-M "C M M M"
_symmetry_group_IT_number 65
_symmetry_cell_setting 'orthorhombic'
loop_
_space_group_symop_operation_xyz
x,y,z
-x,-y,z
x,-y,-z
-x,y,-z
-x,-y,-z
x,y,-z
-x,y,z
x,-y,z
1/2+x,1/2+y,z
1/2-x,1/2-y,z
1/2+x,1/2-y,-z
1/2-x,1/2+y,-z
1/2-x,1/2-y,-z
1/2+x,1/2+y,-z
1/2-x,1/2+y,z
1/2+x,1/2-y,z
loop_
_atom_site_type_symbol
_atom_site_label
_atom_site_fract_x
_atom_site_fract_y
_atom_site_fract_z
Si Si1 0.271291 0.838147 0.840681
Si Si2 0.752999 0.063134 0.660525
Si Si3 0.616397 0.560418 0.335948
Si Si4 0.565628 0.325056 0.662340
Si Si5 0.340881 0.730154 0.159905
O O1 0.284192 0.892925 0.748766
O O2 0.322264 0.794181 0.815371
O O3 0.211026 0.810449 0.796693
O O4 0.269238 0.856418 0.000000
O O5 0.747164 0.078974 0.500000
O O6 0.818339 0.068742 0.711972
O O7 0.730626 0.000000 0.687008
O O8 0.614374 0.558214 0.500000
O O9 0.593682 0.500000 0.278733
O O10 0.577963 0.611837 0.281976
O O11 0.580234 0.320420 0.500000
O O12 0.500000 0.310304 0.692485
O O13 0.604331 0.281120 0.744691
O O14 0.357308 0.720440 0.000000
#
# Coordination Sequence:
#
# PCOD8267156 Si02
#       5
#    16  16  16  16  16
#     4   9  17  29  45  63  83 109 143 179 213 257
#     4   9  16  26  42  64  88 113 141 173 212 256
#     4   8  14  25  39  56  81 111 143 178 212 245
#     4  10  19  29  43  63  84 109 147 187 217 251
#     4   9  18  31  44  60  83 111 143 178 219 259
#
# _framework density 14.853864
#
# number of rings (size 3 to 8) (size 9 to 14) (size 15 to 20)
#    0.000    3.000    2.000    2.400    0.000    2.000 
#    0.000    4.000    0.000    0.600    0.000    1.400 
#    0.000    0.800    0.000    8.800    0.000    6.400 
#
# Total GULP energy -495797.136263 kJ/mol
# GULP energy per Si atom -12394.928407 kJ/mol
# Density = 1.482006 g / cm^3
# Si number density = 14.853864 Si / 1000 Ang^3
#
#
#
# Elastic Constant Matrix: (Units=GPa)
#
#
# Indices 1 2 3 4 5 6 
#
# 1 62.5723 42.3288 36.2775 0.0000 0.0000 0.0000
# 2 42.3288 96.6325 54.2640 0.0000 0.0000 0.0000
# 3 36.2775 54.2640 56.4717 0.0000 0.0000 0.0000
# 4 0.0000 0.0000 0.0000 25.4389 0.0000 0.0000
# 5 0.0000 0.0000 0.0000 0.0000 20.9135 0.0000
# 6 0.0000 0.0000 0.0000 0.0000 0.0000 20.3073
#
#
#
# Elastic Compliance Matrix: (Units=1/GPa)
#
#
# Indices 1 2 3 4 5 6 
#
# 1 0.026307 -0.004417 -0.012655 0.000000 0.000000 0.000000
# 2 -0.004417 0.023219 -0.019474 0.000000 0.000000 0.000000
# 3 -0.012655 -0.019474 0.044550 0.000000 0.000000 0.000000
# 4 0.000000 0.000000 0.000000 0.039310 0.000000 0.000000
# 5 0.000000 0.000000 0.000000 0.000000 0.047816 0.000000
# 6 0.000000 0.000000 0.000000 0.000000 0.000000 0.049243
#
#
# Mechanical properties :
#
#
# Convention : Reuss Voigt Hill
#
# Bulk Modulus (GPa) = 47.65544 53.49080 50.57312
# Shear Modulus (GPa) = 16.10147 18.85233 17.47690
#
# Velocity S-wave (km/s) = 3.29598 3.56643 3.43387
# Velocity P-wave (km/s) = 6.82914 7.28346 7.05995
#
# Compressibility (1/GPa) = 0.02098396
#
# Stress axis : x y z
#
# Youngs Moduli (GPa) = 38.01341 43.06893 22.44659
#
# Poissons Ratio (x) = 0.19022 0.28407
# Poissons Ratio (y) = 0.16789 0.43712
# Poissons Ratio (z) = 0.48107 0.83871
#
# Static dielectric constant tensor:
#      x y z
#    x 2.553910 0.000000 0.000000 
#    y 0.000000 3.013260 0.000000 
#    z 0.000000 0.000000 2.666540 
# 
# 
# High freq. dielectric constant tensor:
#      x y z
#    x 1.526180 0.000000 0.000000 
#    y 0.000000 1.569560 0.000000 
#    z 0.000000 0.000000 1.552870 
# 
# From -- ./inp_files/9876.got.cif
#   From: 2010.03.12/outbox.cif.g09.slc.cpg/sg65_5_cif.got.tgz:9876.got - 2010.04.10 20:52:16.
