data_PCOD8267314
_publ_section_title
;
Structure prediction by ZEFSAII (Michael W. Deem and Ramdas Pophale) SiO2 
 PCOD8267314
Probable space group: C M M M
;
_chemical_formula_sum "Si O2"
_cell_formula_units_Z 128
_cell_length_a 24.179648
_cell_length_b 22.668752
_cell_length_c 13.443969
_cell_angle_alpha 90.000000
_cell_angle_beta 90.000000
_cell_angle_gamma 90.000000
_cell_volume 7368.941145
_symmetry_space_group_name_H-M "C M M M"
_symmetry_group_IT_number 65
_symmetry_cell_setting 'orthorhombic'
loop_
_space_group_symop_operation_xyz
x,y,z
-x,-y,z
x,-y,-z
-x,y,-z
-x,-y,-z
x,y,-z
-x,y,z
x,-y,z
1/2+x,1/2+y,z
1/2-x,1/2-y,z
1/2+x,1/2-y,-z
1/2-x,1/2+y,-z
1/2-x,1/2-y,-z
1/2+x,1/2+y,-z
1/2-x,1/2+y,z
1/2+x,1/2-y,z
loop_
_atom_site_type_symbol
_atom_site_label
_atom_site_fract_x
_atom_site_fract_y
_atom_site_fract_z
Si Si1 0.710516 0.069122 0.386656
Si Si2 0.062474 0.567238 0.883124
Si Si3 0.323162 0.568005 0.295882
Si Si4 0.337794 0.744084 0.113712
Si Si5 0.335686 0.866919 0.795014
Si Si6 0.061138 0.836422 0.887979
Si Si7 0.277206 0.371875 0.111936
Si Si8 0.059181 0.932079 0.276069
O O1 0.694235 0.082168 0.500000
O O2 0.774921 0.088088 0.371225
O O3 0.672505 0.110870 0.318125
O O4 0.701096 0.000000 0.360887
O O5 0.076360 0.500000 0.853510
O O6 0.105004 0.610550 0.830118
O O7 0.000000 0.583030 0.848977
O O8 0.068010 0.575984 0.000000
O O9 0.314978 0.500000 0.273925
O O10 0.319578 0.599089 0.188635
O O11 0.384977 0.581351 0.341028
O O12 0.332397 0.796328 0.194035
O O13 0.394047 0.711374 0.146276
O O14 0.285621 0.699156 0.120446
O O15 0.341823 0.769008 0.000000
O O16 0.285218 0.891959 0.861678
O O17 0.063203 0.895246 0.823989
O O18 0.000000 0.807239 0.880559
O O19 0.075359 0.855943 0.000000
O O20 0.290757 0.392950 0.000000
O O21 0.000000 0.918146 0.331791
O O22 0.060183 0.000000 0.243837
#
# Coordination Sequence:
#
# PCOD8267314 Si02
#       8
#    16  16  16  16  16  16  16  16
#     4   9  19  36  56  76  97 120 150 198 256 306
#     4   9  18  32  49  72 103 131 153 186 234 286
#     4   9  17  29  47  70  95 128 165 201 249 298
#     4  10  19  30  43  65  99 138 170 201 236 275
#     4  11  20  31  51  72  92 124 165 198 235 292
#     4   9  17  28  41  61  93 135 178 210 235 270
#     4  10  19  30  43  66 100 135 167 201 240 282
#     4   9  16  26  42  65  92 125 167 210 248 286
#
# _framework density 17.370203
#
# number of rings (size 3 to 8) (size 9 to 14) (size 15 to 20)
#    0.000    2.500    1.250    2.250    0.000    2.500 
#    0.000    3.750    0.000    6.750    0.000    4.375 
#    0.000    0.000    0.000    0.000    0.000    0.000 
#
# Total GULP energy -792905.117466 kJ/mol
# GULP energy per Si atom -12389.142460 kJ/mol
# Density = 1.733067 g / cm^3
# Si number density = 17.370203 Si / 1000 Ang^3
#
#
#
# Elastic Constant Matrix: (Units=GPa)
#
#
# Indices 1 2 3 4 5 6 
#
# 1 106.0438 23.0386 25.2943 0.0000 0.0000 0.0000
# 2 23.0386 46.9225 30.2139 0.0000 0.0000 0.0000
# 3 25.2943 30.2139 61.8656 0.0000 0.0000 0.0000
# 4 0.0000 0.0000 0.0000 19.7994 0.0000 0.0000
# 5 0.0000 0.0000 0.0000 0.0000 13.4216 0.0000
# 6 0.0000 0.0000 0.0000 0.0000 0.0000 22.7572
#
#
#
# Elastic Compliance Matrix: (Units=1/GPa)
#
#
# Indices 1 2 3 4 5 6 
#
# 1 0.010852 -0.003605 -0.002676 0.000000 0.000000 0.000000
# 2 -0.003605 0.032286 -0.014294 0.000000 0.000000 0.000000
# 3 -0.002676 -0.014294 0.024239 0.000000 0.000000 0.000000
# 4 0.000000 0.000000 0.000000 0.050507 0.000000 0.000000
# 5 0.000000 0.000000 0.000000 0.000000 0.074507 0.000000
# 6 0.000000 0.000000 0.000000 0.000000 0.000000 0.043942
#
#
# Mechanical properties :
#
#
# Convention : Reuss Voigt Hill
#
# Bulk Modulus (GPa) = 38.12923 41.32505 39.72714
# Shear Modulus (GPa) = 17.46887 20.28132 18.87510
#
# Velocity S-wave (km/s) = 3.17469 3.42071 3.29999
# Velocity P-wave (km/s) = 5.95288 6.28045 6.11886
#
# Compressibility (1/GPa) = 0.02622660
#
# Stress axis : x y z
#
# Youngs Moduli (GPa) = 92.15243 30.97364 41.25573
#
# Poissons Ratio (x) = 0.11165 0.11041
# Poissons Ratio (y) = 0.33219 0.58970
# Poissons Ratio (z) = 0.24663 0.44273
#
# Static dielectric constant tensor:
#      x y z
#    x 3.748580 0.000000 0.000000 
#    y 0.000000 3.112470 0.000000 
#    z 0.000000 0.000000 2.824270 
# 
# 
# High freq. dielectric constant tensor:
#      x y z
#    x 1.694190 0.000000 0.000000 
#    y 0.000000 1.656190 0.000000 
#    z 0.000000 0.000000 1.619900 
# 
# From -- ./inp_files/31299.got.cif
#   From: 2010.03.12/outbox.cif.g09.slc.cpg/sg65_16_cif.got.tgz:31299.got - 2010.04.10 20:52:16.
