data_PCOD8267891
_publ_section_title
;
Structure prediction by ZEFSAII (Michael W. Deem and Ramdas Pophale) SiO2 
 PCOD8267891
Probable space group: C M M M
;
_chemical_formula_sum "Si O2"
_cell_formula_units_Z 80
_cell_length_a 8.857925
_cell_length_b 25.916032
_cell_length_c 19.828328
_cell_angle_alpha 90.000000
_cell_angle_beta 90.000000
_cell_angle_gamma 90.000000
_cell_volume 4551.835941
_symmetry_space_group_name_H-M "C M M M"
_symmetry_group_IT_number 65
_symmetry_cell_setting 'orthorhombic'
loop_
_space_group_symop_operation_xyz
x,y,z
-x,-y,z
x,-y,-z
-x,y,-z
-x,-y,-z
x,y,-z
-x,y,z
x,-y,z
1/2+x,1/2+y,z
1/2-x,1/2-y,z
1/2+x,1/2-y,-z
1/2-x,1/2+y,-z
1/2-x,1/2-y,-z
1/2+x,1/2+y,-z
1/2-x,1/2+y,z
1/2+x,1/2-y,z
loop_
_atom_site_type_symbol
_atom_site_label
_atom_site_fract_x
_atom_site_fract_y
_atom_site_fract_z
Si Si1 0.322408 0.195344 0.500000
Si Si2 0.319754 0.303581 0.774569
Si Si3 0.675587 0.154758 0.642672
Si Si4 0.169197 0.057404 0.682985
Si Si5 0.818976 0.000000 0.076914
Si Si6 0.829337 0.909780 0.831971
O O1 0.500000 0.200485 0.500000
O O2 0.250000 0.250000 0.500000
O O3 0.267221 0.167030 0.432423
O O4 0.500000 0.300669 0.776112
O O5 0.250000 0.250000 0.802269
O O6 0.269125 0.312272 0.697247
O O7 0.258875 0.351965 0.820567
O O8 0.500000 0.167028 0.653440
O O9 0.706280 0.094103 0.650487
O O10 0.181677 0.058193 0.763419
O O11 0.000000 0.075129 0.662084
O O12 0.202646 0.000000 0.656940
O O13 0.753142 0.947181 0.111548
O O14 0.000000 0.000000 0.084623
O O15 0.764961 0.000000 0.000000
O O16 0.000000 0.899964 0.854510
#
# Coordination Sequence:
#
# PCOD8267891 Si02
#       6
#     8  16  16  16   8  16
#     4  10  22  36  49  64  87 119 150 191 241 290
#     4  10  19  31  48  70  96 125 158 199 244 284
#     4  10  20  33  48  69  94 120 156 196 240 290
#     4   9  16  29  49  69  94 126 158 194 237 278
#     4   9  14  22  42  72 101 126 155 192 232 277
#     4   8  14  25  42  66  96 126 154 191 236 276
#
# _framework density 17.575326
#
# number of rings (size 3 to 8) (size 9 to 14) (size 15 to 20)
#    0.000    2.700    1.000    3.000    0.000    3.600 
#    0.000    0.500    0.000    3.600    0.000    0.000 
#    0.000   39.200    0.000    0.000    0.000    0.800 
#
# Total GULP energy -495617.415950 kJ/mol
# GULP energy per Si atom -12390.435399 kJ/mol
# Density = 1.753532 g / cm^3
# Si number density = 17.575326 Si / 1000 Ang^3
#
#
#
# Elastic Constant Matrix: (Units=GPa)
#
#
# Indices 1 2 3 4 5 6 
#
# 1 33.0788 26.8257 19.4619 0.0000 0.0000 0.0000
# 2 26.8257 143.9625 61.6966 0.0000 0.0000 0.0000
# 3 19.4619 61.6966 96.7039 0.0000 0.0000 0.0000
# 4 0.0000 0.0000 0.0000 21.4286 0.0000 0.0000
# 5 0.0000 0.0000 0.0000 0.0000 11.9100 0.0000
# 6 0.0000 0.0000 0.0000 0.0000 0.0000 28.6011
#
#
#
# Elastic Compliance Matrix: (Units=1/GPa)
#
#
# Indices 1 2 3 4 5 6 
#
# 1 0.036796 -0.005069 -0.004171 0.000000 0.000000 0.000000
# 2 -0.005069 0.010258 -0.005525 0.000000 0.000000 0.000000
# 3 -0.004171 -0.005525 0.014705 0.000000 0.000000 0.000000
# 4 0.000000 0.000000 0.000000 0.046667 0.000000 0.000000
# 5 0.000000 0.000000 0.000000 0.000000 0.083963 0.000000
# 6 0.000000 0.000000 0.000000 0.000000 0.000000 0.034964
#
#
# Mechanical properties :
#
#
# Convention : Reuss Voigt Hill
#
# Bulk Modulus (GPa) = 31.02749 54.41264 42.72006
# Shear Modulus (GPa) = 18.68282 23.43867 21.06075
#
# Velocity S-wave (km/s) = 3.26393 3.65583 3.46542
# Velocity P-wave (km/s) = 5.64771 6.98906 6.35388
#
# Compressibility (1/GPa) = 0.03222948
#
# Stress axis : x y z
#
# Youngs Moduli (GPa) = 27.17707 97.48078 68.00365
#
# Poissons Ratio (x) = 0.49411 0.28367
# Poissons Ratio (y) = 0.13775 0.37570
# Poissons Ratio (z) = 0.11337 0.53855
#
# Static dielectric constant tensor:
#      x y z
#    x 3.078410 0.000000 0.000000 
#    y 0.000000 3.541210 0.000000 
#    z 0.000000 0.000000 3.071300 
# 
# 
# High freq. dielectric constant tensor:
#      x y z
#    x 1.648430 0.000000 0.000000 
#    y 0.000000 1.695320 0.000000 
#    z 0.000000 0.000000 1.647010 
# 
# From -- ./inp_files/49911.got.cif
#   From: 2010.03.12/outbox.cif.g09.slc.cpg/sg65_25_cif.got.tgz:49911.got - 2010.04.10 20:52:16.
