data_PCOD8267291
_publ_section_title
;
Structure prediction by ZEFSAII (Michael W. Deem and Ramdas Pophale) SiO2 
 PCOD8267291
Probable space group: C M M M
;
_chemical_formula_sum "Si O2"
_cell_formula_units_Z 120
_cell_length_a 28.190432
_cell_length_b 20.571518
_cell_length_c 13.372692
_cell_angle_alpha 90.000000
_cell_angle_beta 90.000000
_cell_angle_gamma 90.000000
_cell_volume 7755.091268
_symmetry_space_group_name_H-M "C M M M"
_symmetry_group_IT_number 65
_symmetry_cell_setting 'orthorhombic'
loop_
_space_group_symop_operation_xyz
x,y,z
-x,-y,z
x,-y,-z
-x,y,-z
-x,-y,-z
x,y,-z
-x,y,z
x,-y,z
1/2+x,1/2+y,z
1/2-x,1/2-y,z
1/2+x,1/2-y,-z
1/2-x,1/2+y,-z
1/2-x,1/2-y,-z
1/2+x,1/2+y,-z
1/2-x,1/2+y,z
1/2+x,1/2-y,z
loop_
_atom_site_type_symbol
_atom_site_label
_atom_site_fract_x
_atom_site_fract_y
_atom_site_fract_z
Si Si1 0.729698 0.922885 0.388645
Si Si2 0.945238 0.682490 0.383732
Si Si3 0.412212 0.427380 0.617482
Si Si4 0.053472 0.000000 0.118318
Si Si5 0.946482 0.190988 0.738009
Si Si6 0.875438 0.427941 0.618950
Si Si7 0.385087 0.624436 0.882321
Si Si8 0.317697 0.425546 0.267542
O O1 0.737444 0.893367 0.500000
O O2 0.677274 0.905155 0.347579
O O3 0.769125 0.895023 0.311975
O O4 0.735436 0.000000 0.395801
O O5 0.934523 0.694768 0.500000
O O6 0.930004 0.747145 0.325749
O O7 0.914202 0.622862 0.340605
O O8 0.000000 0.664636 0.366118
O O9 0.417097 0.418622 0.500000
O O10 0.429559 0.500000 0.650129
O O11 0.444335 0.373143 0.669480
O O12 0.357320 0.418086 0.646876
O O13 0.082531 0.936725 0.152616
O O14 0.000000 0.000000 0.162854
O O15 0.050420 0.000000 0.000000
O O16 0.911950 0.186410 0.834748
O O17 0.000000 0.199650 0.776886
O O18 0.876724 0.431453 0.500000
O O19 0.886963 0.500000 0.662097
O O20 0.333511 0.614401 0.831834
O O21 0.379228 0.632960 0.000000
O O22 0.309811 0.500000 0.235500
#
# Coordination Sequence:
#
# PCOD8267291 Si02
#       8
#    16  16  16   8  16  16  16  16
#     4   8  13  22  39  64  91 113 135 168 206 247
#     4   9  17  29  44  63  91 123 146 167 202 249
#     4   9  17  27  38  53  75 106 145 185 216 244
#     4   9  16  26  40  56  75 101 131 173 229 266
#     4  10  20  30  41  57  79 110 148 182 215 259
#     4   8  14  25  43  69  96 118 140 165 197 244
#     4  10  19  30  42  58  80 106 140 186 229 264
#     4   9  15  24  39  59  82 108 139 173 216 263
#
# _framework density 15.473705000000001
#
# number of rings (size 3 to 8) (size 9 to 14) (size 15 to 20)
#    0.000    3.000    0.667    2.000    0.933    3.733 
#    0.000    2.000    0.000    3.200    0.000   14.000 
#    0.000    1.600    0.000    2.933    0.000    0.133 
#
# Total GULP energy -743704.037161 kJ/mol
# GULP energy per Si atom -12395.067286 kJ/mol
# Density = 1.543849 g / cm^3
# Si number density = 15.473705 Si / 1000 Ang^3
#
#
#
# Elastic Constant Matrix: (Units=GPa)
#
#
# Indices 1 2 3 4 5 6 
#
# 1 92.6515 47.8062 41.0578 0.0000 0.0000 0.0000
# 2 47.8062 70.6303 35.6146 0.0000 0.0000 0.0000
# 3 41.0578 35.6146 71.2015 0.0000 0.0000 0.0000
# 4 0.0000 0.0000 0.0000 12.1202 0.0000 0.0000
# 5 0.0000 0.0000 0.0000 0.0000 14.6815 0.0000
# 6 0.0000 0.0000 0.0000 0.0000 0.0000 15.8412
#
#
#
# Elastic Compliance Matrix: (Units=1/GPa)
#
#
# Indices 1 2 3 4 5 6 
#
# 1 0.018216 -0.009405 -0.005800 0.000000 0.000000 0.000000
# 2 -0.009405 0.023790 -0.006476 0.000000 0.000000 0.000000
# 3 -0.005800 -0.006476 0.020628 0.000000 0.000000 0.000000
# 4 0.000000 0.000000 0.000000 0.082507 0.000000 0.000000
# 5 0.000000 0.000000 0.000000 0.000000 0.068113 0.000000
# 6 0.000000 0.000000 0.000000 0.000000 0.000000 0.063126
#
#
# Mechanical properties :
#
#
# Convention : Reuss Voigt Hill
#
# Bulk Modulus (GPa) = 51.88838 53.71562 52.80200
# Shear Modulus (GPa) = 15.32961 15.86223 15.59592
#
# Velocity S-wave (km/s) = 3.15093 3.20521 3.17819
# Velocity P-wave (km/s) = 6.84426 6.96328 6.90403
#
# Compressibility (1/GPa) = 0.01927214
#
# Stress axis : x y z
#
# Youngs Moduli (GPa) = 54.89650 42.03528 48.47704
#
# Poissons Ratio (x) = 0.39535 0.28116
# Poissons Ratio (y) = 0.51631 0.31394
# Poissons Ratio (z) = 0.31839 0.27222
#
# Static dielectric constant tensor:
#      x y z
#    x 3.073900 0.000000 0.000000 
#    y 0.000000 2.853870 0.000000 
#    z 0.000000 0.000000 2.778890 
# 
# 
# High freq. dielectric constant tensor:
#      x y z
#    x 1.589690 0.000000 0.000000 
#    y 0.000000 1.559880 0.000000 
#    z 0.000000 0.000000 1.568160 
# 
# From -- ./inp_files/47279.got.cif
#   From: 2010.03.12/outbox.cif.g09.slc.cpg/sg65_24_cif.got.tgz:47279.got - 2010.04.10 20:52:16.
