data_PCOD8267308
_publ_section_title
;
Structure prediction by ZEFSAII (Michael W. Deem and Ramdas Pophale) SiO2 
 PCOD8267308
Probable space group: C M M M
;
_chemical_formula_sum "Si O2"
_cell_formula_units_Z 80
_cell_length_a 25.722282
_cell_length_b 8.943533
_cell_length_c 22.022327
_cell_angle_alpha 90.000000
_cell_angle_beta 90.000000
_cell_angle_gamma 90.000000
_cell_volume 5066.193997
_symmetry_space_group_name_H-M "C M M M"
_symmetry_group_IT_number 65
_symmetry_cell_setting 'orthorhombic'
loop_
_space_group_symop_operation_xyz
x,y,z
-x,-y,z
x,-y,-z
-x,y,-z
-x,-y,-z
x,y,-z
-x,y,z
x,-y,z
1/2+x,1/2+y,z
1/2-x,1/2-y,z
1/2+x,1/2-y,-z
1/2-x,1/2+y,-z
1/2-x,1/2-y,-z
1/2+x,1/2+y,-z
1/2-x,1/2+y,z
1/2+x,1/2-y,z
loop_
_atom_site_type_symbol
_atom_site_label
_atom_site_fract_x
_atom_site_fract_y
_atom_site_fract_z
Si Si1 0.938961 0.174103 0.742298
Si Si2 0.802367 0.675580 0.068943
Si Si3 0.000000 0.171227 0.071837
Si Si4 0.594699 0.822787 0.138036
Si Si5 0.938209 0.331712 0.619799
Si Si6 0.062050 0.168938 0.500000
O O1 0.907624 0.260633 0.793980
O O2 0.919601 0.238696 0.678134
O O3 0.000000 0.203137 0.752427
O O4 0.925511 0.000000 0.744454
O O5 0.794608 0.500000 0.071567
O O6 0.750000 0.750000 0.094700
O O7 0.850167 0.726635 0.110586
O O8 0.813194 0.729346 0.000000
O O9 0.050728 0.252018 0.096318
O O10 0.000000 0.000000 0.094827
O O11 0.000000 0.181802 0.000000
O O12 0.587203 0.000000 0.138457
O O13 0.916150 0.500000 0.623488
O O14 0.916072 0.252679 0.559462
O O15 0.000000 0.334048 0.617054
O O16 0.000000 0.169787 0.500000
O O17 0.083192 0.000000 0.500000
#
# Coordination Sequence:
#
# PCOD8267308 Si02
#       6
#    16  16   8  16  16   8
#     4  10  19  30  43  61  88 119 153 188 226 272
#     4   9  19  35  53  72  91 114 147 187 232 280
#     4  11  23  35  47  67  93 120 151 186 227 273
#     4  11  21  33  50  69  92 120 152 188 229 276
#     4   9  16  25  38  55  78 110 150 189 226 265
#     4   9  15  23  35  53  77 107 146 189 230 263
#
# _framework density 15.790946999999999
#
# number of rings (size 3 to 8) (size 9 to 14) (size 15 to 20)
#    0.000    2.200    1.000    3.000    0.000    7.600 
#    0.000    2.000    0.000    0.000    0.000    0.000 
#    0.000    0.000    0.000    0.900    0.000   12.300 
#
# Total GULP energy -496070.839414 kJ/mol
# GULP energy per Si atom -12401.770985 kJ/mol
# Density = 1.575501 g / cm^3
# Si number density = 15.790947 Si / 1000 Ang^3
#
#
#
# Elastic Constant Matrix: (Units=GPa)
#
#
# Indices 1 2 3 4 5 6 
#
# 1 80.8317 45.1762 53.1377 0.0000 0.0000 0.0000
# 2 45.1762 106.8741 61.0342 0.0000 0.0000 0.0000
# 3 53.1377 61.0342 129.5879 0.0000 0.0000 0.0000
# 4 0.0000 0.0000 0.0000 33.1629 0.0000 0.0000
# 5 0.0000 0.0000 0.0000 0.0000 9.8030 0.0000
# 6 0.0000 0.0000 0.0000 0.0000 0.0000 19.1647
#
#
#
# Elastic Compliance Matrix: (Units=1/GPa)
#
#
# Indices 1 2 3 4 5 6 
#
# 1 0.018571 -0.004790 -0.005359 0.000000 0.000000 0.000000
# 2 -0.004790 0.014035 -0.004646 0.000000 0.000000 0.000000
# 3 -0.005359 -0.004646 0.012103 0.000000 0.000000 0.000000
# 4 0.000000 0.000000 0.000000 0.030154 0.000000 0.000000
# 5 0.000000 0.000000 0.000000 0.000000 0.102010 0.000000
# 6 0.000000 0.000000 0.000000 0.000000 0.000000 0.052179
#
#
# Mechanical properties :
#
#
# Convention : Reuss Voigt Hill
#
# Bulk Modulus (GPa) = 66.14406 70.66555 68.40481
# Shear Modulus (GPa) = 18.96221 22.95580 20.95901
#
# Velocity S-wave (km/s) = 3.46906 3.81692 3.64714
# Velocity P-wave (km/s) = 7.61735 8.01704 7.81975
#
# Compressibility (1/GPa) = 0.01511851
#
# Stress axis : x y z
#
# Youngs Moduli (GPa) = 53.84606 71.25164 82.62593
#
# Poissons Ratio (x) = 0.34126 0.44283
# Poissons Ratio (y) = 0.25790 0.38390
# Poissons Ratio (z) = 0.28858 0.33105
#
# Static dielectric constant tensor:
#      x y z
#    x 2.633270 0.000000 0.000000 
#    y 0.000000 3.186740 0.000000 
#    z 0.000000 0.000000 3.169600 
# 
# 
# High freq. dielectric constant tensor:
#      x y z
#    x 1.545430 0.000000 0.000000 
#    y 0.000000 1.625480 0.000000 
#    z 0.000000 0.000000 1.616760 
# 
# From -- ./inp_files/60059.got.cif
#   From: 2010.03.12/outbox.cif.g09.slc.cpg/sg65_31_cif.got.tgz:60059.got - 2010.04.10 20:52:16.
