data_PCOD8267232
_publ_section_title
;
Structure prediction by ZEFSAII (Michael W. Deem and Ramdas Pophale) SiO2 
 PCOD8267232
Probable space group: C M M M
;
_chemical_formula_sum "Si O2"
_cell_formula_units_Z 96
_cell_length_a 9.070595
_cell_length_b 26.670152
_cell_length_c 21.916524
_cell_angle_alpha 90.000000
_cell_angle_beta 90.000000
_cell_angle_gamma 90.000000
_cell_volume 5301.917217
_symmetry_space_group_name_H-M "C M M M"
_symmetry_group_IT_number 65
_symmetry_cell_setting 'orthorhombic'
loop_
_space_group_symop_operation_xyz
x,y,z
-x,-y,z
x,-y,-z
-x,y,-z
-x,-y,-z
x,y,-z
-x,y,z
x,-y,z
1/2+x,1/2+y,z
1/2-x,1/2-y,z
1/2+x,1/2-y,-z
1/2-x,1/2+y,-z
1/2-x,1/2-y,-z
1/2+x,1/2+y,-z
1/2-x,1/2+y,z
1/2+x,1/2-y,z
loop_
_atom_site_type_symbol
_atom_site_label
_atom_site_fract_x
_atom_site_fract_y
_atom_site_fract_z
Si Si1 0.166125 0.298007 0.275804
Si Si2 0.324808 0.500000 0.930906
Si Si3 0.826574 0.099587 0.863092
Si Si4 0.834149 0.060009 0.500000
Si Si5 0.173076 0.897518 0.277822
Si Si6 0.662535 0.057674 0.383781
Si Si7 0.833601 0.299238 0.869305
O O1 0.250000 0.250000 0.302607
O O2 0.257661 0.345209 0.299192
O O3 0.164865 0.296147 0.203112
O O4 0.000000 0.299812 0.301344
O O5 0.500000 0.500000 0.927936
O O6 0.266401 0.550452 0.898167
O O7 0.266273 0.500000 0.000000
O O8 0.788619 0.090571 0.792261
O O9 0.747362 0.149317 0.889449
O O10 0.000000 0.107678 0.872897
O O11 0.751850 0.081927 0.440166
O O12 0.000000 0.081219 0.500000
O O13 0.837258 0.000000 0.500000
O O14 0.247109 0.938884 0.320651
O O15 0.000000 0.896428 0.288765
O O16 0.500000 0.082767 0.377798
O O17 0.641698 0.000000 0.398952
O O18 0.750000 0.250000 0.895726
O O19 0.000000 0.299634 0.895303
#
# Coordination Sequence:
#
# PCOD8267232 Si02
#       7
#    16   8  16   8  16  16  16
#     4   9  16  27  43  64  94 126 158 192 237 292
#     4   9  18  34  55  75  97 132 175 212 247 295
#     4   9  18  31  49  73 100 130 167 209 252 299
#     4   9  17  31  49  67  88 121 164 203 241 287
#     4  10  19  29  45  70  99 127 160 200 246 291
#     4  10  20  32  46  66  95 129 163 200 243 289
#     4   9  16  27  46  71  99 128 158 197 248 302
#
# _framework density 18.106657999999999
#
# number of rings (size 3 to 8) (size 9 to 14) (size 15 to 20)
#    0.000    2.667    0.000    2.250    1.167    6.667 
#    0.000    0.417    0.000    1.500    0.000    0.583 
#    0.000    0.000    0.000    0.000    0.000    0.000 
#
# Total GULP energy -595063.631270 kJ/mol
# GULP energy per Si atom -12397.158985 kJ/mol
# Density = 1.806545 g / cm^3
# Si number density = 18.106658 Si / 1000 Ang^3
#
#
#
# Elastic Constant Matrix: (Units=GPa)
#
#
# Indices 1 2 3 4 5 6 
#
# 1 125.8195 49.3051 44.7500 0.0000 0.0000 0.0000
# 2 49.3051 105.9158 40.7868 0.0000 0.0000 0.0000
# 3 44.7500 40.7868 72.9356 0.0000 0.0000 0.0000
# 4 0.0000 0.0000 0.0000 3.8569 0.0000 0.0000
# 5 0.0000 0.0000 0.0000 0.0000 13.8057 0.0000
# 6 0.0000 0.0000 0.0000 0.0000 0.0000 30.9205
#
#
#
# Elastic Compliance Matrix: (Units=1/GPa)
#
#
# Indices 1 2 3 4 5 6 
#
# 1 0.010957 -0.003201 -0.004932 0.000000 0.000000 0.000000
# 2 -0.003201 0.012968 -0.005288 0.000000 0.000000 0.000000
# 3 -0.004932 -0.005288 0.019694 0.000000 0.000000 0.000000
# 4 0.000000 0.000000 0.000000 0.259276 0.000000 0.000000
# 5 0.000000 0.000000 0.000000 0.000000 0.072434 0.000000
# 6 0.000000 0.000000 0.000000 0.000000 0.000000 0.032341
#
#
# Mechanical properties :
#
#
# Convention : Reuss Voigt Hill
#
# Bulk Modulus (GPa) = 59.60899 63.81717 61.71308
# Shear Modulus (GPa) = 11.36097 21.03855 16.19976
#
# Velocity S-wave (km/s) = 2.50761 3.41240 2.99437
# Velocity P-wave (km/s) = 6.43247 7.13075 6.79059
#
# Compressibility (1/GPa) = 0.01677599
#
# Stress axis : x y z
#
# Youngs Moduli (GPa) = 91.26934 77.11379 50.77671
#
# Poissons Ratio (x) = 0.24684 0.25045
# Poissons Ratio (y) = 0.29215 0.26850
# Poissons Ratio (z) = 0.45018 0.40776
#
# Static dielectric constant tensor:
#      x y z
#    x 3.515540 0.000000 0.000000 
#    y 0.000000 3.331580 0.000000 
#    z 0.000000 0.000000 3.019070 
# 
# 
# High freq. dielectric constant tensor:
#      x y z
#    x 1.709250 0.000000 0.000000 
#    y 0.000000 1.687850 0.000000 
#    z 0.000000 0.000000 1.661930 
# 
# From -- ./inp_files/67890.got.cif
#   From: 2010.03.12/outbox.cif.g09.slc.cpg/sg65_34_cif.got.tgz:67890.got - 2010.04.10 20:52:16.
