data_PCOD8267712
_publ_section_title
;
Structure prediction by ZEFSAII (Michael W. Deem and Ramdas Pophale) SiO2 
 PCOD8267712
Probable space group: C M M M
;
_chemical_formula_sum "Si O2"
_cell_formula_units_Z 96
_cell_length_a 27.208889
_cell_length_b 9.165469
_cell_length_c 24.073216
_cell_angle_alpha 90.000000
_cell_angle_beta 90.000000
_cell_angle_gamma 90.000000
_cell_volume 6003.432257
_symmetry_space_group_name_H-M "C M M M"
_symmetry_group_IT_number 65
_symmetry_cell_setting 'orthorhombic'
loop_
_space_group_symop_operation_xyz
x,y,z
-x,-y,z
x,-y,-z
-x,y,-z
-x,-y,-z
x,y,-z
-x,y,z
x,-y,z
1/2+x,1/2+y,z
1/2-x,1/2-y,z
1/2+x,1/2-y,-z
1/2-x,1/2+y,-z
1/2-x,1/2-y,-z
1/2+x,1/2+y,-z
1/2-x,1/2+y,z
1/2+x,1/2-y,z
loop_
_atom_site_type_symbol
_atom_site_label
_atom_site_fract_x
_atom_site_fract_y
_atom_site_fract_z
Si Si1 0.555657 0.829658 0.836405
Si Si2 0.697816 0.672602 0.000000
Si Si3 0.641326 0.330318 0.109679
Si Si4 0.558464 0.839820 0.500000
Si Si5 0.887119 0.671096 0.274275
Si Si6 0.301168 0.671139 0.779668
Si Si7 0.445054 0.825447 0.618921
O O1 0.500000 0.771477 0.842268
O O2 0.589719 0.751581 0.882012
O O3 0.573927 0.794381 0.774274
O O4 0.558331 0.000000 0.848710
O O5 0.750000 0.750000 0.000000
O O6 0.666917 0.723835 0.053392
O O7 0.706961 0.500000 0.000000
O O8 0.628912 0.500000 0.107304
O O9 0.678676 0.292753 0.159185
O O10 0.500000 0.854584 0.500000
O O11 0.573737 0.762450 0.441437
O O12 0.582693 0.000000 0.500000
O O13 0.874257 0.500000 0.275630
O O14 0.837918 0.763520 0.265949
O O15 0.909541 0.727941 0.332199
O O16 0.294828 0.500000 0.769733
O O17 0.250000 0.750000 0.771804
O O18 0.500000 0.767902 0.631632
O O19 0.445959 0.000000 0.616284
#
# Coordination Sequence:
#
# PCOD8267712 Si02
#       7
#    16   8  16   8  16  16  16
#     4   9  17  29  45  65  89 117 148 179 208 242
#     4  10  20  34  51  70  89 109 138 175 215 258
#     4   9  19  33  48  67  89 112 139 171 209 256
#     4   7  10  16  28  52  86 117 142 171 206 241
#     4   9  16  26  42  64  88 114 144 176 211 249
#     4  10  19  31  46  64  86 110 137 171 213 257
#     4   8  12  19  34  58  88 118 145 173 205 243
#
# _framework density 15.990853
#
# number of rings (size 3 to 8) (size 9 to 14) (size 15 to 20)
#    0.000    3.083    0.000    2.500    0.000    3.667 
#    0.000    0.417    0.000    4.000    0.000    1.167 
#    0.000    2.000    0.000    0.000    0.000    0.000 
#
# Total GULP energy -594946.235317 kJ/mol
# GULP energy per Si atom -12394.713236 kJ/mol
# Density = 1.595446 g / cm^3
# Si number density = 15.990853 Si / 1000 Ang^3
#
#
#
# Elastic Constant Matrix: (Units=GPa)
#
#
# Indices 1 2 3 4 5 6 
#
# 1 140.5016 48.7236 75.9151 0.0000 0.0000 0.0000
# 2 48.7236 39.0971 34.7304 0.0000 0.0000 0.0000
# 3 75.9151 34.7304 139.2869 0.0000 0.0000 0.0000
# 4 0.0000 0.0000 0.0000 12.4354 0.0000 0.0000
# 5 0.0000 0.0000 0.0000 0.0000 20.3985 0.0000
# 6 0.0000 0.0000 0.0000 0.0000 0.0000 25.5584
#
#
#
# Elastic Compliance Matrix: (Units=1/GPa)
#
#
# Indices 1 2 3 4 5 6 
#
# 1 0.014294 -0.013992 -0.004302 0.000000 0.000000 0.000000
# 2 -0.013992 0.046551 -0.003981 0.000000 0.000000 0.000000
# 3 -0.004302 -0.003981 0.010517 0.000000 0.000000 0.000000
# 4 0.000000 0.000000 0.000000 0.080416 0.000000 0.000000
# 5 0.000000 0.000000 0.000000 0.000000 0.049023 0.000000
# 6 0.000000 0.000000 0.000000 0.000000 0.000000 0.039126
#
#
# Mechanical properties :
#
#
# Convention : Reuss Voigt Hill
#
# Bulk Modulus (GPa) = 37.29720 70.84708 54.07214
# Shear Modulus (GPa) = 17.04081 22.31290 19.67686
#
# Velocity S-wave (km/s) = 3.26799 3.73950 3.51166
# Velocity P-wave (km/s) = 6.13306 7.94015 7.09438
#
# Compressibility (1/GPa) = 0.02681166
#
# Stress axis : x y z
#
# Youngs Moduli (GPa) = 69.96049 21.48183 95.08726
#
# Poissons Ratio (x) = 0.30057 0.40903
# Poissons Ratio (y) = 0.97888 0.37857
# Poissons Ratio (z) = 0.30095 0.08552
#
# Static dielectric constant tensor:
#      x y z
#    x 2.963500 0.000000 0.000000 
#    y 0.000000 2.785300 0.000000 
#    z 0.000000 0.000000 3.332610 
# 
# 
# High freq. dielectric constant tensor:
#      x y z
#    x 1.600640 0.000000 0.000000 
#    y 0.000000 1.587940 0.000000 
#    z 0.000000 0.000000 1.614870 
# 
# From -- ./inp_files/71714.got.cif
#   From: 2010.03.12/outbox.cif.g09.slc.cpg/sg65_36_cif.got.tgz:71714.got - 2010.04.10 20:52:16.
