data_PCOD8267288
_publ_section_title
;
Structure prediction by ZEFSAII (Michael W. Deem and Ramdas Pophale) SiO2 
 PCOD8267288
Probable space group: C M M M
;
_chemical_formula_sum "Si O2"
_cell_formula_units_Z 112
_cell_length_a 32.061146
_cell_length_b 31.557290
_cell_length_c 8.866188
_cell_angle_alpha 90.000000
_cell_angle_beta 90.000000
_cell_angle_gamma 90.000000
_cell_volume 8970.479924
_symmetry_space_group_name_H-M "C M M M"
_symmetry_group_IT_number 65
_symmetry_cell_setting 'orthorhombic'
loop_
_space_group_symop_operation_xyz
x,y,z
-x,-y,z
x,-y,-z
-x,y,-z
-x,-y,-z
x,y,-z
-x,y,z
x,-y,z
1/2+x,1/2+y,z
1/2-x,1/2-y,z
1/2+x,1/2-y,-z
1/2-x,1/2+y,-z
1/2-x,1/2-y,-z
1/2+x,1/2+y,-z
1/2-x,1/2+y,z
1/2+x,1/2-y,z
loop_
_atom_site_type_symbol
_atom_site_label
_atom_site_fract_x
_atom_site_fract_y
_atom_site_fract_z
Si Si1 0.136323 0.384107 0.824949
Si Si2 0.222927 0.792441 0.829761
Si Si3 0.417041 0.800474 0.175100
Si Si4 0.581192 0.951163 0.672973
Si Si5 0.207480 0.338025 0.669581
Si Si6 0.000000 0.583313 0.178516
Si Si7 0.000000 0.675528 0.678294
Si Si8 0.653540 0.753470 0.669630
O O1 0.104507 0.345689 0.796447
O O2 0.120098 0.424498 0.733849
O O3 0.182260 0.372946 0.764438
O O4 0.139600 0.395444 0.000000
O O5 0.250000 0.750000 0.827999
O O6 0.247748 0.830137 0.746612
O O7 0.179049 0.784902 0.745636
O O8 0.213622 0.806759 0.000000
O O9 0.459643 0.798596 0.268371
O O10 0.387916 0.762492 0.234097
O O11 0.426361 0.793157 0.000000
O O12 0.571881 0.938698 0.500000
O O13 0.540384 0.942538 0.771494
O O14 0.593687 0.000000 0.688193
O O15 0.214425 0.354711 0.500000
O O16 0.182042 0.294741 0.668267
O O17 0.000000 0.629513 0.248806
O O18 0.000000 0.588520 0.000000
O O19 0.000000 0.670997 0.500000
O O20 0.641147 0.740436 0.500000
#
# Coordination Sequence:
#
# PCOD8267288 Si02
#       8
#    16  16  16  16  16   8   8  16
#     4  10  19  30  44  58  73  90 111 137 169 209
#     4   9  15  23  35  52  73  94 115 136 160 190
#     4  10  19  30  42  56  72  90 113 141 173 208
#     4  11  23  36  48  60  73  89 110 139 177 220
#     4   9  16  25  38  54  73  93 113 135 161 195
#     4  12  23  35  48  61  72  86 108 140 178 220
#     4  12  22  31  45  58  72  91 114 144 178 216
#     4   9  16  25  37  53  72  93 115 136 163 197
#
# _framework density 12.485397000000001
#
# number of rings (size 3 to 8) (size 9 to 14) (size 15 to 20)
#    0.000    2.000    1.429    4.071    0.000    8.286 
#    0.000    0.000    0.000    0.000    0.000    0.000 
#    0.000    0.000    0.000    0.000    0.000    0.000 
#
# Total GULP energy -694503.092774 kJ/mol
# GULP energy per Si atom -12401.840942 kJ/mol
# Density = 1.245698 g / cm^3
# Si number density = 12.485397 Si / 1000 Ang^3
#
#
#
# Elastic Constant Matrix: (Units=GPa)
#
#
# Indices 1 2 3 4 5 6 
#
# 1 70.7760 40.7033 48.3050 0.0000 0.0000 0.0000
# 2 40.7033 31.4656 28.0233 0.0000 0.0000 0.0000
# 3 48.3050 28.0233 113.8321 0.0000 0.0000 0.0000
# 4 0.0000 0.0000 0.0000 13.9674 0.0000 0.0000
# 5 0.0000 0.0000 0.0000 0.0000 24.2724 0.0000
# 6 0.0000 0.0000 0.0000 0.0000 0.0000 6.5128
#
#
#
# Elastic Compliance Matrix: (Units=1/GPa)
#
#
# Indices 1 2 3 4 5 6 
#
# 1 0.060650 -0.071129 -0.008226 0.000000 0.000000 0.000000
# 2 -0.071129 0.124125 -0.000373 0.000000 0.000000 0.000000
# 3 -0.008226 -0.000373 0.012368 0.000000 0.000000 0.000000
# 4 0.000000 0.000000 0.000000 0.071595 0.000000 0.000000
# 5 0.000000 0.000000 0.000000 0.000000 0.041199 0.000000
# 6 0.000000 0.000000 0.000000 0.000000 0.000000 0.153544
#
#
# Mechanical properties :
#
#
# Convention : Reuss Voigt Hill
#
# Bulk Modulus (GPa) = 26.53605 50.01520 38.27563
# Shear Modulus (GPa) = 7.86782 15.55334 11.71058
#
# Velocity S-wave (km/s) = 2.51303 3.53331 3.06591
# Velocity P-wave (km/s) = 5.45162 7.53602 6.57692
#
# Compressibility (1/GPa) = 0.03768459
#
# Stress axis : x y z
#
# Youngs Moduli (GPa) = 16.48802 8.05640 80.85643
#
# Poissons Ratio (x) = 0.57305 0.66515
# Poissons Ratio (y) = 1.17278 0.03018
# Poissons Ratio (z) = 0.13564 0.00301
#
# Static dielectric constant tensor:
#      x y z
#    x 2.554640 0.000000 0.000000 
#    y 0.000000 2.222160 0.000000 
#    z 0.000000 0.000000 2.789200 
# 
# 
# High freq. dielectric constant tensor:
#      x y z
#    x 1.459150 0.000000 0.000000 
#    y 0.000000 1.415130 0.000000 
#    z 0.000000 0.000000 1.499420 
# 
# From -- ./inp_files/19215.got.cif
#   From: 2010.03.12/outbox.cif.g09.slc.cpg/sg65_10_cif.got.tgz:19215.got - 2010.04.10 20:52:16.
