data_PCOD8267839
_publ_section_title
;
Structure prediction by ZEFSAII (Michael W. Deem and Ramdas Pophale) SiO2 
 PCOD8267839
Probable space group: C M M M
;
_chemical_formula_sum "Si O2"
_cell_formula_units_Z 96
_cell_length_a 22.760884
_cell_length_b 12.502546
_cell_length_c 17.558666
_cell_angle_alpha 90.000000
_cell_angle_beta 90.000000
_cell_angle_gamma 90.000000
_cell_volume 4996.652011
_symmetry_space_group_name_H-M "C M M M"
_symmetry_group_IT_number 65
_symmetry_cell_setting 'orthorhombic'
loop_
_space_group_symop_operation_xyz
x,y,z
-x,-y,z
x,-y,-z
-x,y,-z
-x,-y,-z
x,y,-z
-x,y,z
x,-y,z
1/2+x,1/2+y,z
1/2-x,1/2-y,z
1/2+x,1/2-y,-z
1/2-x,1/2+y,-z
1/2-x,1/2-y,-z
1/2+x,1/2+y,-z
1/2-x,1/2+y,z
1/2+x,1/2-y,z
loop_
_atom_site_type_symbol
_atom_site_label
_atom_site_fract_x
_atom_site_fract_y
_atom_site_fract_z
Si Si1 0.750000 0.250000 0.848379
Si Si2 0.143685 0.804830 0.584886
Si Si3 0.436772 0.500000 0.410993
Si Si4 0.066303 0.378308 0.368351
Si Si5 0.932811 0.732572 0.211424
Si Si6 0.671190 0.373512 0.262963
Si Si7 0.643120 0.123596 0.087429
O O1 0.721058 0.340880 0.796096
O O2 0.702952 0.189660 0.900380
O O3 0.170551 0.827747 0.500000
O O4 0.096607 0.893116 0.612416
O O5 0.111384 0.691198 0.581817
O O6 0.189234 0.816903 0.655066
O O7 0.500000 0.500000 0.369469
O O8 0.445855 0.500000 0.500000
O O9 0.084711 0.500000 0.381905
O O10 0.071489 0.353034 0.279272
O O11 0.000000 0.356743 0.397329
O O12 0.892264 0.833899 0.232382
O O13 0.909725 0.673171 0.136296
O O14 0.000000 0.770578 0.198256
O O15 0.669845 0.500000 0.272108
O O16 0.653441 0.000000 0.109874
O O17 0.624208 0.134526 0.000000
#
# Coordination Sequence:
#
# PCOD8267839 Si02
#       7
#     8  16   8  16  16  16  16
#     4  10  21  38  57  78 108 136 176 232 273 316
#     4  10  19  31  47  71 102 134 175 229 278 320
#     4   9  16  26  42  66  98 132 163 209 268 315
#     4   9  17  29  45  66  98 143 185 215 253 309
#     4   9  19  34  52  79 114 145 174 214 261 317
#     4  10  20  36  57  80 102 140 185 223 271 321
#     4  10  20  34  56  84 109 139 178 220 269 319
#
# _framework density 19.212865000000001
#
# number of rings (size 3 to 8) (size 9 to 14) (size 15 to 20)
#    0.000    2.417    0.833    1.750    0.000    3.667 
#    0.000    2.917    0.000    4.500    0.000    4.667 
#    0.000    0.000    0.000    0.000    0.000    0.000 
#
# Total GULP energy -594960.096611 kJ/mol
# GULP energy per Si atom -12395.002013 kJ/mol
# Density = 1.916914 g / cm^3
# Si number density = 19.212865 Si / 1000 Ang^3
#
#
#
# Elastic Constant Matrix: (Units=GPa)
#
#
# Indices 1 2 3 4 5 6 
#
# 1 53.1433 12.0708 17.7330 0.0000 0.0000 0.0000
# 2 12.0708 108.2140 23.0642 0.0000 0.0000 0.0000
# 3 17.7330 23.0642 99.2482 0.0000 0.0000 0.0000
# 4 0.0000 0.0000 0.0000 24.0775 0.0000 0.0000
# 5 0.0000 0.0000 0.0000 0.0000 17.3001 0.0000
# 6 0.0000 0.0000 0.0000 0.0000 0.0000 20.7192
#
#
#
# Elastic Compliance Matrix: (Units=1/GPa)
#
#
# Indices 1 2 3 4 5 6 
#
# 1 0.020259 -0.001566 -0.003256 0.000000 0.000000 0.000000
# 2 -0.001566 0.009844 -0.002008 0.000000 0.000000 0.000000
# 3 -0.003256 -0.002008 0.011124 0.000000 0.000000 0.000000
# 4 0.000000 0.000000 0.000000 0.041533 0.000000 0.000000
# 5 0.000000 0.000000 0.000000 0.000000 0.057803 0.000000
# 6 0.000000 0.000000 0.000000 0.000000 0.000000 0.048264
#
#
# Mechanical properties :
#
#
# Convention : Reuss Voigt Hill
#
# Bulk Modulus (GPa) = 36.27428 40.70461 38.48944
# Shear Modulus (GPa) = 23.62112 26.26853 24.94483
#
# Velocity S-wave (km/s) = 3.51015 3.70163 3.60716
# Velocity P-wave (km/s) = 5.94553 6.28502 6.11763
#
# Compressibility (1/GPa) = 0.02756775
#
# Stress axis : x y z
#
# Youngs Moduli (GPa) = 49.36045 101.58946 89.89518
#
# Poissons Ratio (x) = 0.15908 0.29269
# Poissons Ratio (y) = 0.07729 0.18049
# Poissons Ratio (z) = 0.16071 0.20397
#
# Static dielectric constant tensor:
#      x y z
#    x 3.517280 0.000000 0.000000 
#    y 0.000000 3.563090 0.000000 
#    z 0.000000 0.000000 3.504360 
# 
# 
# High freq. dielectric constant tensor:
#      x y z
#    x 1.724500 0.000000 0.000000 
#    y 0.000000 1.750370 0.000000 
#    z 0.000000 0.000000 1.749950 
# 
# From -- ./inp_files/56720.got.cif
#   From: 2010.03.12/outbox.cif.g09.slc.cpg/sg65_29_cif.got.tgz:56720.got - 2010.04.10 20:52:16.
