data_PCOD8267562
_publ_section_title
;
Structure prediction by ZEFSAII (Michael W. Deem and Ramdas Pophale) SiO2 
 PCOD8267562
Probable space group: C M M M
;
_chemical_formula_sum "Si O2"
_cell_formula_units_Z 112
_cell_length_a 9.417165
_cell_length_b 18.444380
_cell_length_c 36.123186
_cell_angle_alpha 90.000000
_cell_angle_beta 90.000000
_cell_angle_gamma 90.000000
_cell_volume 6274.372353
_symmetry_space_group_name_H-M "C M M M"
_symmetry_group_IT_number 65
_symmetry_cell_setting 'orthorhombic'
loop_
_space_group_symop_operation_xyz
x,y,z
-x,-y,z
x,-y,-z
-x,y,-z
-x,-y,-z
x,y,-z
-x,y,z
x,-y,z
1/2+x,1/2+y,z
1/2-x,1/2-y,z
1/2+x,1/2-y,-z
1/2-x,1/2+y,-z
1/2-x,1/2-y,-z
1/2+x,1/2+y,-z
1/2-x,1/2+y,z
1/2+x,1/2-y,z
loop_
_atom_site_type_symbol
_atom_site_label
_atom_site_fract_x
_atom_site_fract_y
_atom_site_fract_z
Si Si1 0.334843 0.916671 0.179847
Si Si2 0.168487 0.580903 0.541144
Si Si3 0.835894 0.083696 0.890367
Si Si4 0.831435 0.324575 0.391020
Si Si5 0.332197 0.174907 0.748431
Si Si6 0.664923 0.678099 0.041342
Si Si7 0.332160 0.918734 0.320851
O O1 0.500000 0.910023 0.170978
O O2 0.251552 0.885294 0.144385
O O3 0.291271 0.868651 0.214770
O O4 0.292452 0.000000 0.188221
O O5 0.218273 0.605119 0.500000
O O6 0.227156 0.500000 0.549938
O O7 0.224283 0.638662 0.571001
O O8 0.000000 0.578020 0.543224
O O9 0.785739 0.119506 0.928648
O O10 0.000000 0.099031 0.882152
O O11 0.801815 0.000000 0.895501
O O12 0.750000 0.250000 0.385289
O O13 0.786049 0.378358 0.358215
O O14 0.000000 0.310181 0.391275
O O15 0.500000 0.189865 0.745766
O O16 0.250000 0.250000 0.748153
O O17 0.276603 0.126982 0.714100
O O18 0.500000 0.696600 0.045416
O O19 0.750000 0.750000 0.049982
O O20 0.698560 0.648426 0.000000
O O21 0.500000 0.925173 0.318552
O O22 0.266319 0.000000 0.320378
#
# Coordination Sequence:
#
# PCOD8267562 Si02
#       7
#    16  16  16  16  16  16  16
#     4   9  18  33  51  69  91 122 158 191 225 269
#     4   8  14  26  45  68  92 120 159 202 235 269
#     4   9  18  32  50  72  96 122 154 193 234 273
#     4  10  19  30  47  71  97 124 154 192 238 283
#     4  10  20  33  50  72  97 123 152 190 234 277
#     4   9  18  32  49  69  94 124 156 190 229 274
#     4   9  17  31  52  73  91 118 160 201 231 268
#
# _framework density 17.850390999999998
#
# number of rings (size 3 to 8) (size 9 to 14) (size 15 to 20)
#    0.000    2.857    0.000    1.714    0.000    5.714 
#    0.000    4.286    0.000    3.857    0.000    5.000 
#    0.000    0.000    0.000    0.000    0.000    0.000 
#
# Total GULP energy -694290.202974 kJ/mol
# GULP energy per Si atom -12398.039339 kJ/mol
# Density = 1.780976 g / cm^3
# Si number density = 17.850391 Si / 1000 Ang^3
#
#
#
# Elastic Constant Matrix: (Units=GPa)
#
#
# Indices 1 2 3 4 5 6 
#
# 1 28.8402 39.6492 44.5746 0.0000 0.0000 0.0000
# 2 39.6492 128.8857 92.3649 0.0000 0.0000 0.0000
# 3 44.5746 92.3649 172.8083 0.0000 0.0000 0.0000
# 4 0.0000 0.0000 0.0000 19.8364 0.0000 0.0000
# 5 0.0000 0.0000 0.0000 0.0000 18.1456 0.0000
# 6 0.0000 0.0000 0.0000 0.0000 0.0000 26.9713
#
#
#
# Elastic Compliance Matrix: (Units=1/GPa)
#
#
# Indices 1 2 3 4 5 6 
#
# 1 0.070456 -0.014021 -0.010679 0.000000 0.000000 0.000000
# 2 -0.014021 0.015366 -0.004596 0.000000 0.000000 0.000000
# 3 -0.010679 -0.004596 0.010998 0.000000 0.000000 0.000000
# 4 0.000000 0.000000 0.000000 0.050412 0.000000 0.000000
# 5 0.000000 0.000000 0.000000 0.000000 0.055110 0.000000
# 6 0.000000 0.000000 0.000000 0.000000 0.000000 0.037076
#
#
# Mechanical properties :
#
#
# Convention : Reuss Voigt Hill
#
# Bulk Modulus (GPa) = 26.16006 75.96796 51.06401
# Shear Modulus (GPa) = 16.08989 23.25370 19.67179
#
# Velocity S-wave (km/s) = 3.00555 3.61321 3.32330
# Velocity P-wave (km/s) = 5.17024 7.74968 6.58745
#
# Compressibility (1/GPa) = 0.03822621
#
# Stress axis : x y z
#
# Youngs Moduli (GPa) = 14.19334 65.07815 90.92395
#
# Poissons Ratio (x) = 0.91246 0.97101
# Poissons Ratio (y) = 0.19901 0.41793
# Poissons Ratio (z) = 0.15158 0.29913
#
# Static dielectric constant tensor:
#      x y z
#    x 2.983960 0.000000 0.000000 
#    y 0.000000 3.357940 0.000000 
#    z 0.000000 0.000000 3.672620 
# 
# 
# High freq. dielectric constant tensor:
#      x y z
#    x 1.651450 0.000000 0.000000 
#    y 0.000000 1.690710 0.000000 
#    z 0.000000 0.000000 1.709520 
# 
# From -- ./inp_files/77423.got.cif
#   From: 2010.03.12/outbox.cif.g09.slc.cpg/sg65_39_cif.got.tgz:77423.got - 2010.04.10 20:52:16.
