data_PCOD8267302
_publ_section_title
;
Structure prediction by ZEFSAII (Michael W. Deem and Ramdas Pophale) SiO2 
 PCOD8267302
Probable space group: C M M M
;
_chemical_formula_sum "Si O2"
_cell_formula_units_Z 96
_cell_length_a 8.890885
_cell_length_b 25.534236
_cell_length_c 27.403648
_cell_angle_alpha 90.000000
_cell_angle_beta 90.000000
_cell_angle_gamma 90.000000
_cell_volume 6221.229766
_symmetry_space_group_name_H-M "C M M M"
_symmetry_group_IT_number 65
_symmetry_cell_setting 'orthorhombic'
loop_
_space_group_symop_operation_xyz
x,y,z
-x,-y,z
x,-y,-z
-x,y,-z
-x,-y,-z
x,y,-z
-x,y,z
x,-y,z
1/2+x,1/2+y,z
1/2-x,1/2-y,z
1/2+x,1/2-y,-z
1/2-x,1/2+y,-z
1/2-x,1/2-y,-z
1/2+x,1/2+y,-z
1/2-x,1/2+y,z
1/2+x,1/2-y,z
loop_
_atom_site_type_symbol
_atom_site_label
_atom_site_fract_x
_atom_site_fract_y
_atom_site_fract_z
Si Si1 0.321190 0.899196 0.113209
Si Si2 0.830525 0.437571 0.500000
Si Si3 0.176225 0.805102 0.056120
Si Si4 0.830996 0.562218 0.693321
Si Si5 0.823714 0.060995 0.792026
Si Si6 0.830405 0.937518 0.403064
Si Si7 0.678738 0.000000 0.945328
O O1 0.500000 0.895344 0.112486
O O2 0.251895 0.847474 0.090536
O O3 0.264320 0.904983 0.168283
O O4 0.261414 0.948682 0.082226
O O5 0.828160 0.500000 0.500000
O O6 0.747859 0.415807 0.548065
O O7 0.000000 0.416243 0.500000
O O8 0.250000 0.750000 0.069447
O O9 0.000000 0.802028 0.066835
O O10 0.209208 0.820009 0.000000
O O11 0.833185 0.500000 0.690570
O O12 0.732611 0.580641 0.739363
O O13 0.756999 0.584849 0.644016
O O14 0.000000 0.584302 0.698233
O O15 0.000000 0.071518 0.796319
O O16 0.784295 0.000000 0.799733
O O17 0.000000 0.916301 0.401537
O O18 0.828183 0.000000 0.402830
O O19 0.500000 0.000000 0.946335
O O20 0.744958 0.000000 0.000000
#
# Coordination Sequence:
#
# PCOD8267302 Si02
#       7
#    16   8  16  16  16  16   8
#     4  11  20  32  50  70  94 120 148 180 217 261
#     4   9  15  21  29  41  59  83 115 157 204 249
#     4  10  21  37  55  74  94 117 146 180 218 260
#     4   9  16  25  37  51  69  95 130 167 206 252
#     4  10  19  30  43  60  85 113 142 176 215 257
#     4   9  15  22  31  44  62  86 118 158 206 252
#     4   9  18  30  45  67  93 119 145 172 209 258
#
# _framework density 15.431032999999999
#
# number of rings (size 3 to 8) (size 9 to 14) (size 15 to 20)
#    0.000    2.333    0.833    3.250    0.000    7.333 
#    0.000    0.000    0.000    2.000    0.000    0.000 
#    0.000    0.000    0.000    0.000    0.000    0.000 
#
# Total GULP energy -595244.663684 kJ/mol
# GULP energy per Si atom -12400.930493 kJ/mol
# Density = 1.539591 g / cm^3
# Si number density = 15.431033 Si / 1000 Ang^3
#
#
#
# Elastic Constant Matrix: (Units=GPa)
#
#
# Indices 1 2 3 4 5 6 
#
# 1 103.5697 32.8596 54.2191 0.0000 0.0000 0.0000
# 2 32.8596 51.3826 42.7535 0.0000 0.0000 0.0000
# 3 54.2191 42.7535 137.4899 0.0000 0.0000 0.0000
# 4 0.0000 0.0000 0.0000 9.0935 0.0000 0.0000
# 5 0.0000 0.0000 0.0000 0.0000 32.5537 0.0000
# 6 0.0000 0.0000 0.0000 0.0000 0.0000 15.7198
#
#
#
# Elastic Compliance Matrix: (Units=1/GPa)
#
#
# Indices 1 2 3 4 5 6 
#
# 1 0.013251 -0.005566 -0.003495 0.000000 0.000000 0.000000
# 2 -0.005566 0.028593 -0.006696 0.000000 0.000000 0.000000
# 3 -0.003495 -0.006696 0.010734 0.000000 0.000000 0.000000
# 4 0.000000 0.000000 0.000000 0.109969 0.000000 0.000000
# 5 0.000000 0.000000 0.000000 0.000000 0.030718 0.000000
# 6 0.000000 0.000000 0.000000 0.000000 0.000000 0.063614
#
#
# Mechanical properties :
#
#
# Convention : Reuss Voigt Hill
#
# Bulk Modulus (GPa) = 47.47563 61.34519 54.41041
# Shear Modulus (GPa) = 16.92540 22.31406 19.61973
#
# Velocity S-wave (km/s) = 3.31545 3.80682 3.56960
# Velocity P-wave (km/s) = 6.74459 7.69177 7.23370
#
# Compressibility (1/GPa) = 0.02106344
#
# Stress axis : x y z
#
# Youngs Moduli (GPa) = 75.46727 34.97335 93.16560
#
# Poissons Ratio (x) = 0.19467 0.32557
# Poissons Ratio (y) = 0.42007 0.62386
# Poissons Ratio (z) = 0.26373 0.23419
#
# Static dielectric constant tensor:
#      x y z
#    x 3.075150 0.000000 0.000000 
#    y 0.000000 2.330510 0.000000 
#    z 0.000000 0.000000 3.131140 
# 
# 
# High freq. dielectric constant tensor:
#      x y z
#    x 1.608250 0.000000 0.000000 
#    y 0.000000 1.515050 0.000000 
#    z 0.000000 0.000000 1.605310 
# 
# From -- ./inp_files/73517.got.cif
#   From: 2010.03.12/outbox.cif.g09.slc.cpg/sg65_37_cif.got.tgz:73517.got - 2010.04.10 20:52:16.
