data_PCOD8267092
_publ_section_title
;
Structure prediction by ZEFSAII (Michael W. Deem and Ramdas Pophale) SiO2 
 PCOD8267092
Probable space group: C M M M
;
_chemical_formula_sum "Si O2"
_cell_formula_units_Z 88
_cell_length_a 18.868828
_cell_length_b 28.772410
_cell_length_c 8.685441
_cell_angle_alpha 90.000000
_cell_angle_beta 90.000000
_cell_angle_gamma 90.000000
_cell_volume 4715.340297
_symmetry_space_group_name_H-M "C M M M"
_symmetry_group_IT_number 65
_symmetry_cell_setting 'orthorhombic'
loop_
_space_group_symop_operation_xyz
x,y,z
-x,-y,z
x,-y,-z
-x,y,-z
-x,-y,-z
x,y,-z
-x,y,z
x,-y,z
1/2+x,1/2+y,z
1/2-x,1/2-y,z
1/2+x,1/2-y,-z
1/2-x,1/2+y,-z
1/2-x,1/2-y,-z
1/2+x,1/2+y,-z
1/2-x,1/2+y,z
1/2+x,1/2-y,z
loop_
_atom_site_type_symbol
_atom_site_label
_atom_site_fract_x
_atom_site_fract_y
_atom_site_fract_z
Si Si1 0.291329 0.682999 0.816988
Si Si2 0.855620 0.722083 0.816935
Si Si3 0.849808 0.085906 0.816885
Si Si4 0.233060 0.000000 0.317379
Si Si5 0.500000 0.447936 0.182299
Si Si6 0.000000 0.423676 0.317873
Si Si7 0.108424 0.500000 0.317825
Si Si8 0.500000 0.822258 0.817339
O O1 0.210218 0.690064 0.760205
O O2 0.341289 0.725284 0.758692
O O3 0.321717 0.634864 0.750765
O O4 0.292959 0.682270 0.000000
O O5 0.929754 0.702937 0.748705
O O6 0.858713 0.721210 0.000000
O O7 0.930908 0.079959 0.761727
O O8 0.803844 0.045643 0.744316
O O9 0.843351 0.082956 0.000000
O O10 0.312706 0.000000 0.250709
O O11 0.231635 0.000000 0.500000
O O12 0.500000 0.500000 0.253187
O O13 0.500000 0.452079 0.000000
O O14 0.068555 0.453171 0.263797
O O15 0.000000 0.375638 0.228759
O O16 0.000000 0.414347 0.500000
O O17 0.107976 0.500000 0.500000
O O18 0.500000 0.818533 0.000000
#
# Coordination Sequence:
#
# PCOD8267092 Si02
#       8
#    16  16  16   8   8   8   8   8
#     4   8  15  28  47  68  94 131 163 190 234 288
#     4   8  15  28  43  68 104 128 150 193 245 290
#     4  10  19  32  52  73  94 127 169 204 237 286
#     4  11  22  34  49  74 102 127 158 204 254 297
#     4   9  16  29  45  66  96 121 152 201 237 266
#     4   9  18  36  55  69  92 134 174 198 237 294
#     4   8  18  36  53  67  93 133 172 203 234 293
#     4  10  19  28  47  79 108 126 154 204 253 287
#
# _framework density 18.662490999999999
#
# number of rings (size 3 to 8) (size 9 to 14) (size 15 to 20)
#    0.000    3.000    0.909    1.909    2.545    0.727 
#    0.000    6.364    0.000    1.091    0.000    2.545 
#    0.000    0.000    0.000    0.000    0.000    0.000 
#
# Total GULP energy -545366.324213 kJ/mol
# GULP energy per Si atom -12394.689187 kJ/mol
# Density = 1.862001 g / cm^3
# Si number density = 18.662491 Si / 1000 Ang^3
#
#
#
# Elastic Constant Matrix: (Units=GPa)
#
#
# Indices 1 2 3 4 5 6 
#
# 1 202.7593 114.3467 16.3405 0.0000 0.0000 0.0000
# 2 114.3467 185.7264 13.3885 0.0000 0.0000 0.0000
# 3 16.3405 13.3885 11.4570 0.0000 0.0000 0.0000
# 4 0.0000 0.0000 0.0000 1.0334 0.0000 0.0000
# 5 0.0000 0.0000 0.0000 0.0000 9.9176 0.0000
# 6 0.0000 0.0000 0.0000 0.0000 0.0000 23.6336
#
#
#
# Elastic Compliance Matrix: (Units=1/GPa)
#
#
# Indices 1 2 3 4 5 6 
#
# 1 0.007930 -0.004441 -0.006120 0.000000 0.000000 0.000000
# 2 -0.004441 0.008367 -0.003443 0.000000 0.000000 0.000000
# 3 -0.006120 -0.003443 0.100036 0.000000 0.000000 0.000000
# 4 0.000000 0.000000 0.000000 0.967652 0.000000 0.000000
# 5 0.000000 0.000000 0.000000 0.000000 0.100831 0.000000
# 6 0.000000 0.000000 0.000000 0.000000 0.000000 0.042313
#
#
# Mechanical properties :
#
#
# Convention : Reuss Voigt Hill
#
# Bulk Modulus (GPa) = 11.32203 76.45490 43.88846
# Shear Modulus (GPa) = 3.89233 23.97473 13.93353
#
# Velocity S-wave (km/s) = 1.44574 3.58809 2.73537
# Velocity P-wave (km/s) = 2.97772 7.63033 5.79175
#
# Compressibility (1/GPa) = 0.08832339
#
# Stress axis : x y z
#
# Youngs Moduli (GPa) = 126.10940 119.52277 9.99643
#
# Poissons Ratio (x) = 0.53079 0.06118
# Poissons Ratio (y) = 0.56004 0.03442
# Poissons Ratio (z) = 0.77180 0.41155
#
# Static dielectric constant tensor:
#      x y z
#    x 4.006350 0.000000 0.000000 
#    y 0.000000 3.631990 0.000000 
#    z 0.000000 0.000000 2.806220 
# 
# 
# High freq. dielectric constant tensor:
#      x y z
#    x 1.739250 0.000000 0.000000 
#    y 0.000000 1.733090 0.000000 
#    z 0.000000 0.000000 1.662200 
# 
# From -- ./inp_files/10244.got.cif
#   From: 2010.03.12/outbox.cif.g09.slc.cpg/sg65_6_cif.got.tgz:10244.got - 2010.04.10 20:52:16.
