data_PCOD8267287
_publ_section_title
;
Structure prediction by ZEFSAII (Michael W. Deem and Ramdas Pophale) SiO2 
 PCOD8267287
Probable space group: C M M M
;
_chemical_formula_sum "Si O2"
_cell_formula_units_Z 80
_cell_length_a 23.874503
_cell_length_b 26.311470
_cell_length_c 8.973659
_cell_angle_alpha 90.000000
_cell_angle_beta 90.000000
_cell_angle_gamma 90.000000
_cell_volume 5637.012713
_symmetry_space_group_name_H-M "C M M M"
_symmetry_group_IT_number 65
_symmetry_cell_setting 'orthorhombic'
loop_
_space_group_symop_operation_xyz
x,y,z
-x,-y,z
x,-y,-z
-x,y,-z
-x,-y,-z
x,y,-z
-x,y,z
x,-y,z
1/2+x,1/2+y,z
1/2-x,1/2-y,z
1/2+x,1/2-y,-z
1/2-x,1/2+y,-z
1/2-x,1/2-y,-z
1/2+x,1/2+y,-z
1/2-x,1/2+y,z
1/2+x,1/2-y,z
loop_
_atom_site_type_symbol
_atom_site_label
_atom_site_fract_x
_atom_site_fract_y
_atom_site_fract_z
Si Si1 0.386864 0.741230 0.677976
Si Si2 0.000000 0.106806 0.823253
Si Si3 0.214804 0.699032 0.662763
Si Si4 0.681578 0.642872 0.677592
Si Si5 0.000000 0.222663 0.823177
Si Si6 0.385590 0.558173 0.176185
O O1 0.392988 0.744974 0.500000
O O2 0.344168 0.785303 0.740353
O O3 0.363453 0.685810 0.724395
O O4 0.445739 0.750831 0.757884
O O5 0.945166 0.078113 0.761610
O O6 0.000000 0.164572 0.765970
O O7 0.000000 0.104848 0.000000
O O8 0.199818 0.677255 0.500000
O O9 0.250000 0.750000 0.642396
O O10 0.256147 0.658037 0.742055
O O11 0.684153 0.638201 0.500000
O O12 0.664622 0.589623 0.749779
O O13 0.000000 0.226600 0.000000
O O14 0.378265 0.500000 0.224259
O O15 0.382297 0.565113 0.000000
#
# Coordination Sequence:
#
# PCOD8267287 Si02
#       6
#    16   8  16  16   8  16
#     4   9  16  27  42  58  76 100 130 158 192 238
#     4   9  17  29  40  49  69 103 139 170 198 230
#     4   7  12  24  41  58  74  95 122 154 194 240
#     4   9  16  27  43  59  75  95 125 166 204 234
#     4  11  19  26  39  57  80 106 133 166 199 226
#     4  10  19  30  42  54  72 103 139 170 203 239
#
# _framework density 14.191914000000001
#
# number of rings (size 3 to 8) (size 9 to 14) (size 15 to 20)
#    0.000    3.000    2.000    3.000    0.000    1.600 
#    0.000    1.500    0.000    4.800    0.000    0.000 
#    0.000    0.000    0.000    0.900    0.000   18.800 
#
# Total GULP energy -495535.701633 kJ/mol
# GULP energy per Si atom -12388.392541 kJ/mol
# Density = 1.415961 g / cm^3
# Si number density = 14.191914 Si / 1000 Ang^3
#
#
#
# Elastic Constant Matrix: (Units=GPa)
#
#
# Indices 1 2 3 4 5 6 
#
# 1 130.7738 63.0520 29.9183 0.0000 0.0000 0.0000
# 2 63.0520 65.2299 17.2160 0.0000 0.0000 0.0000
# 3 29.9183 17.2160 21.8421 0.0000 0.0000 0.0000
# 4 0.0000 0.0000 0.0000 15.3044 0.0000 0.0000
# 5 0.0000 0.0000 0.0000 0.0000 13.0741 0.0000
# 6 0.0000 0.0000 0.0000 0.0000 0.0000 23.1989
#
#
#
# Elastic Compliance Matrix: (Units=1/GPa)
#
#
# Indices 1 2 3 4 5 6 
#
# 1 0.016768 -0.012812 -0.012870 0.000000 0.000000 0.000000
# 2 -0.012812 0.029146 -0.005424 0.000000 0.000000 0.000000
# 3 -0.012870 -0.005424 0.067687 0.000000 0.000000 0.000000
# 4 0.000000 0.000000 0.000000 0.065341 0.000000 0.000000
# 5 0.000000 0.000000 0.000000 0.000000 0.076487 0.000000
# 6 0.000000 0.000000 0.000000 0.000000 0.000000 0.043106
#
#
# Mechanical properties :
#
#
# Convention : Reuss Voigt Hill
#
# Bulk Modulus (GPa) = 19.45916 48.69094 34.07505
# Shear Modulus (GPa) = 13.23182 17.49277 15.36229
#
# Velocity S-wave (km/s) = 3.05675 3.51463 3.29366
# Velocity P-wave (km/s) = 5.11855 7.13117 6.20698
#
# Compressibility (1/GPa) = 0.05138968
#
# Stress axis : x y z
#
# Youngs Moduli (GPa) = 59.63625 34.31017 14.77379
#
# Poissons Ratio (x) = 0.43957 0.19014
# Poissons Ratio (y) = 0.76404 0.08013
# Poissons Ratio (z) = 0.76753 0.18610
#
# Static dielectric constant tensor:
#      x y z
#    x 3.014620 0.000000 0.000000 
#    y 0.000000 2.628340 0.000000 
#    z 0.000000 0.000000 2.472530 
# 
# 
# High freq. dielectric constant tensor:
#      x y z
#    x 1.541920 0.000000 0.000000 
#    y 0.000000 1.502200 0.000000 
#    z 0.000000 0.000000 1.516380 
# 
# From -- ./inp_files/14511.got.cif
#   From: 2010.03.12/outbox.cif.g09.slc.cpg/sg65_8_cif.got.tgz:14511.got - 2010.04.10 20:52:16.
