data_PCOD8267190
_publ_section_title
;
Structure prediction by ZEFSAII (Michael W. Deem and Ramdas Pophale) SiO2 
 PCOD8267190
Probable space group: C M M M
;
_chemical_formula_sum "Si O2"
_cell_formula_units_Z 120
_cell_length_a 14.441750
_cell_length_b 33.275829
_cell_length_c 14.183032
_cell_angle_alpha 90.000000
_cell_angle_beta 90.000000
_cell_angle_gamma 90.000000
_cell_volume 6815.814927
_symmetry_space_group_name_H-M "C M M M"
_symmetry_group_IT_number 65
_symmetry_cell_setting 'orthorhombic'
loop_
_space_group_symop_operation_xyz
x,y,z
-x,-y,z
x,-y,-z
-x,y,-z
-x,-y,-z
x,y,-z
-x,y,z
x,-y,z
1/2+x,1/2+y,z
1/2-x,1/2-y,z
1/2+x,1/2-y,-z
1/2-x,1/2+y,-z
1/2-x,1/2-y,-z
1/2+x,1/2+y,-z
1/2-x,1/2+y,z
1/2+x,1/2-y,z
loop_
_atom_site_type_symbol
_atom_site_label
_atom_site_fract_x
_atom_site_fract_y
_atom_site_fract_z
Si Si1 0.105277 0.650100 0.108955
Si Si2 0.610156 0.423463 0.273420
Si Si3 0.391562 0.650256 0.603912
Si Si4 0.109514 0.000000 0.606413
Si Si5 0.644455 0.260447 0.396067
Si Si6 0.393731 0.307894 0.109482
Si Si7 0.210769 0.110157 0.891822
Si Si8 0.603306 0.770609 0.205168
O O1 0.178045 0.613745 0.126021
O O2 0.146147 0.687714 0.168572
O O3 0.000000 0.637363 0.138754
O O4 0.107718 0.663023 0.000000
O O5 0.500000 0.424066 0.254836
O O6 0.646845 0.383653 0.326633
O O7 0.642692 0.461000 0.336268
O O8 0.665129 0.424201 0.173926
O O9 0.346229 0.645224 0.500000
O O10 0.500000 0.643829 0.595437
O O11 0.368574 0.694396 0.643622
O O12 0.151586 0.000000 0.500000
O O13 0.000000 0.000000 0.597888
O O14 0.596694 0.256143 0.500000
O O15 0.750000 0.250000 0.406630
O O16 0.601205 0.230288 0.319431
O O17 0.500000 0.315531 0.142217
O O18 0.336812 0.347564 0.133887
O O19 0.347895 0.269695 0.164547
O O20 0.388423 0.297451 0.000000
O O21 0.190577 0.098117 0.000000
O O22 0.500000 0.770402 0.163721
#
# Coordination Sequence:
#
# PCOD8267190 Si02
#       8
#    16  16  16   8  16  16  16  16
#     4   9  19  34  48  65  90 121 163 212 256 294
#     4  10  19  31  51  78 105 132 160 192 232 284
#     4   9  17  30  47  65  87 121 164 204 241 281
#     4   9  18  34  55  81 112 139 161 189 231 282
#     4  10  21  31  39  57  86 120 159 204 247 285
#     4   9  17  28  42  65  95 123 157 201 245 291
#     4  10  20  31  46  68  95 131 165 195 237 288
#     4  10  19  29  44  61  80 117 162 207 256 297
#
# _framework density 17.606112
#
# number of rings (size 3 to 8) (size 9 to 14) (size 15 to 20)
#    0.000    2.467    0.000    2.400    3.733    6.933 
#    0.000    2.333    0.000    1.200    0.000    0.467 
#    0.000    2.667    0.000    0.000    0.000    0.000 
#
# Total GULP energy -743667.286683 kJ/mol
# GULP energy per Si atom -12394.454778 kJ/mol
# Density = 1.756604 g / cm^3
# Si number density = 17.606112 Si / 1000 Ang^3
#
#
#
# Elastic Constant Matrix: (Units=GPa)
#
#
# Indices 1 2 3 4 5 6 
#
# 1 53.6151 19.2561 26.0720 0.0000 0.0000 0.0000
# 2 19.2561 57.9017 51.5161 0.0000 0.0000 0.0000
# 3 26.0720 51.5161 104.5214 0.0000 0.0000 0.0000
# 4 0.0000 0.0000 0.0000 28.7530 0.0000 0.0000
# 5 0.0000 0.0000 0.0000 0.0000 18.0294 0.0000
# 6 0.0000 0.0000 0.0000 0.0000 0.0000 14.2398
#
#
#
# Elastic Compliance Matrix: (Units=1/GPa)
#
#
# Indices 1 2 3 4 5 6 
#
# 1 0.021810 -0.004298 -0.003322 0.000000 0.000000 0.000000
# 2 -0.004298 0.031606 -0.014506 0.000000 0.000000 0.000000
# 3 -0.003322 -0.014506 0.017546 0.000000 0.000000 0.000000
# 4 0.000000 0.000000 0.000000 0.034779 0.000000 0.000000
# 5 0.000000 0.000000 0.000000 0.000000 0.055465 0.000000
# 6 0.000000 0.000000 0.000000 0.000000 0.000000 0.070226
#
#
# Mechanical properties :
#
#
# Convention : Reuss Voigt Hill
#
# Bulk Modulus (GPa) = 37.43798 45.52520 41.48159
# Shear Modulus (GPa) = 17.56934 20.15071 18.86003
#
# Velocity S-wave (km/s) = 3.16240 3.38676 3.27650
# Velocity P-wave (km/s) = 5.88598 6.41929 6.15841
#
# Compressibility (1/GPa) = 0.02671084
#
# Stress axis : x y z
#
# Youngs Moduli (GPa) = 45.84951 31.63963 56.99395
#
# Poissons Ratio (x) = 0.13597 0.18935
# Poissons Ratio (y) = 0.19704 0.82675
# Poissons Ratio (z) = 0.15233 0.45896
#
# Static dielectric constant tensor:
#      x y z
#    x 3.103750 0.000000 0.000000 
#    y 0.000000 2.888140 0.000000 
#    z 0.000000 0.000000 3.605680 
# 
# 
# High freq. dielectric constant tensor:
#      x y z
#    x 1.654760 0.000000 0.000000 
#    y 0.000000 1.635340 0.000000 
#    z 0.000000 0.000000 1.695610 
# 
# From -- ./inp_files/41462.got.cif
#   From: 2010.03.12/outbox.cif.g09.slc.cpg/sg65_21_cif.got.tgz:41462.got - 2010.04.10 20:52:16.
