data_PCOD8267821
_publ_section_title
;
Structure prediction by ZEFSAII (Michael W. Deem and Ramdas Pophale) SiO2 
 PCOD8267821
Probable space group: C M M M
;
_chemical_formula_sum "Si O2"
_cell_formula_units_Z 104
_cell_length_a 24.366703
_cell_length_b 9.176728
_cell_length_c 26.231130
_cell_angle_alpha 90.000000
_cell_angle_beta 90.000000
_cell_angle_gamma 90.000000
_cell_volume 5865.453943
_symmetry_space_group_name_H-M "C M M M"
_symmetry_group_IT_number 65
_symmetry_cell_setting 'orthorhombic'
loop_
_space_group_symop_operation_xyz
x,y,z
-x,-y,z
x,-y,-z
-x,y,-z
-x,-y,-z
x,y,-z
-x,y,z
x,-y,z
1/2+x,1/2+y,z
1/2-x,1/2-y,z
1/2+x,1/2-y,-z
1/2-x,1/2+y,-z
1/2-x,1/2-y,-z
1/2+x,1/2+y,-z
1/2-x,1/2+y,z
1/2+x,1/2-y,z
loop_
_atom_site_type_symbol
_atom_site_label
_atom_site_fract_x
_atom_site_fract_y
_atom_site_fract_z
Si Si1 0.500000 0.669028 0.720098
Si Si2 0.088549 0.171177 0.636600
Si Si3 0.802318 0.667246 0.219074
Si Si4 0.384381 0.830817 0.131614
Si Si5 0.500000 0.327359 0.556651
Si Si6 0.500000 0.170867 0.172875
Si Si7 0.805023 0.168663 0.940324
Si Si8 0.694952 0.172422 0.335284
O O1 0.500000 0.500000 0.733987
O O2 0.553971 0.708755 0.687392
O O3 0.500000 0.756516 0.772178
O O4 0.143800 0.264656 0.633685
O O5 0.054189 0.221546 0.587131
O O6 0.102444 0.000000 0.635051
O O7 0.786072 0.500000 0.217651
O O8 0.750000 0.750000 0.195989
O O9 0.855035 0.702716 0.185197
O O10 0.814897 0.717254 0.276488
O O11 0.447394 0.783588 0.139271
O O12 0.358209 0.734923 0.087002
O O13 0.378855 0.000000 0.116359
O O14 0.500000 0.500000 0.553745
O O15 0.500000 0.257892 0.500000
O O16 0.500000 0.000000 0.183968
O O17 0.750000 0.250000 0.921693
O O18 0.798688 0.000000 0.925882
O O19 0.814294 0.192092 0.000000
O O20 0.750000 0.250000 0.355670
O O21 0.699660 0.000000 0.343421
#
# Coordination Sequence:
#
# PCOD8267821 Si02
#       8
#     8  16  16  16   8   8  16  16
#     4   9  18  31  48  72 102 135 168 203 242 285
#     4   9  17  30  49  74 101 129 166 207 245 290
#     4   9  18  30  45  68  96 126 160 197 237 282
#     4  10  20  34  51  72  99 130 164 200 239 284
#     4   8  15  30  53  77  99 126 161 204 254 300
#     4  10  21  35  50  71 102 138 172 203 234 278
#     4  10  21  37  57  79  99 120 151 195 246 296
#     4  10  19  31  47  69 100 136 169 201 242 291
#
# _framework density 17.730938999999999
#
# number of rings (size 3 to 8) (size 9 to 14) (size 15 to 20)
#    0.000    2.538    0.000    3.231    0.000    5.846 
#    0.000    1.538    0.000    3.692    0.000    0.000 
#    0.000    0.000    0.000    0.000    0.000    0.000 
#
# Total GULP energy -644855.172678 kJ/mol
# GULP energy per Si atom -12401.061013 kJ/mol
# Density = 1.769058 g / cm^3
# Si number density = 17.730939 Si / 1000 Ang^3
#
#
#
# Elastic Constant Matrix: (Units=GPa)
#
#
# Indices 1 2 3 4 5 6 
#
# 1 163.7715 66.0370 60.0486 0.0000 0.0000 0.0000
# 2 66.0370 75.2049 45.0252 0.0000 0.0000 0.0000
# 3 60.0486 45.0252 83.8941 0.0000 0.0000 0.0000
# 4 0.0000 0.0000 0.0000 17.4292 0.0000 0.0000
# 5 0.0000 0.0000 0.0000 0.0000 15.7361 0.0000
# 6 0.0000 0.0000 0.0000 0.0000 0.0000 32.4422
#
#
#
# Elastic Compliance Matrix: (Units=1/GPa)
#
#
# Indices 1 2 3 4 5 6 
#
# 1 0.010163 -0.006732 -0.003661 0.000000 0.000000 0.000000
# 2 -0.006732 0.024052 -0.008090 0.000000 0.000000 0.000000
# 3 -0.003661 -0.008090 0.018882 0.000000 0.000000 0.000000
# 4 0.000000 0.000000 0.000000 0.057375 0.000000 0.000000
# 5 0.000000 0.000000 0.000000 0.000000 0.063548 0.000000
# 6 0.000000 0.000000 0.000000 0.000000 0.000000 0.030824
#
#
# Mechanical properties :
#
#
# Convention : Reuss Voigt Hill
#
# Bulk Modulus (GPa) = 61.99392 73.89913 67.94652
# Shear Modulus (GPa) = 20.22756 23.23882 21.73319
#
# Velocity S-wave (km/s) = 3.38125 3.62420 3.50483
# Velocity P-wave (km/s) = 7.09108 7.69946 7.40152
#
# Compressibility (1/GPa) = 0.01613061
#
# Stress axis : x y z
#
# Youngs Moduli (GPa) = 98.39509 41.57697 52.96011
#
# Poissons Ratio (x) = 0.27990 0.19390
# Poissons Ratio (y) = 0.66241 0.42843
# Poissons Ratio (z) = 0.36026 0.33635
#
# Static dielectric constant tensor:
#      x y z
#    x 3.381780 0.000000 0.000000 
#    y 0.000000 3.171860 0.000000 
#    z 0.000000 0.000000 3.243100 
# 
# 
# High freq. dielectric constant tensor:
#      x y z
#    x 1.690260 0.000000 0.000000 
#    y 0.000000 1.679030 0.000000 
#    z 0.000000 0.000000 1.664960 
# 
# From -- ./inp_files/78414.got.cif
#   From: 2010.03.12/outbox.cif.g09.slc.cpg/sg65_40_cif.got.tgz:78414.got - 2010.04.10 20:52:16.
