data_PCOD8267617
_publ_section_title
;
Structure prediction by ZEFSAII (Michael W. Deem and Ramdas Pophale) SiO2 
 PCOD8267617
Probable space group: C M M M
;
_chemical_formula_sum "Si O2"
_cell_formula_units_Z 80
_cell_length_a 9.193337
_cell_length_b 19.681927
_cell_length_c 25.285460
_cell_angle_alpha 90.000000
_cell_angle_beta 90.000000
_cell_angle_gamma 90.000000
_cell_volume 4575.216564
_symmetry_space_group_name_H-M "C M M M"
_symmetry_group_IT_number 65
_symmetry_cell_setting 'orthorhombic'
loop_
_space_group_symop_operation_xyz
x,y,z
-x,-y,z
x,-y,-z
-x,y,-z
-x,-y,-z
x,y,-z
-x,y,z
x,-y,z
1/2+x,1/2+y,z
1/2-x,1/2-y,z
1/2+x,1/2-y,-z
1/2-x,1/2+y,-z
1/2-x,1/2-y,-z
1/2+x,1/2+y,-z
1/2-x,1/2+y,z
1/2+x,1/2-y,z
loop_
_atom_site_type_symbol
_atom_site_label
_atom_site_fract_x
_atom_site_fract_y
_atom_site_fract_z
Si Si1 0.165102 0.921097 0.130978
Si Si2 0.332054 0.819856 0.444200
Si Si3 0.171299 0.322168 0.329291
Si Si4 0.169584 0.317615 0.060984
Si Si5 0.666857 0.578372 0.252896
O O1 0.277121 0.880919 0.094883
O O2 0.192939 0.902761 0.191937
O O3 0.000000 0.902186 0.115273
O O4 0.194105 0.000000 0.120929
O O5 0.296786 0.860730 0.500000
O O6 0.500000 0.801075 0.442979
O O7 0.250000 0.750000 0.446547
O O8 0.293537 0.854958 0.387890
O O9 0.250000 0.250000 0.321755
O O10 0.227117 0.375530 0.286949
O O11 0.000000 0.311021 0.320724
O O12 0.250000 0.250000 0.080795
O O13 0.000000 0.306831 0.070431
O O14 0.206471 0.332613 0.000000
O O15 0.500000 0.592447 0.268681
O O16 0.706348 0.500000 0.263221
#
# Coordination Sequence:
#
# PCOD8267617 Si02
#       5
#    16  16  16  16  16
#     4   9  19  36  56  76  98 128 166 204 244 291
#     4   8  14  25  41  63  92 123 155 194 239 285
#     4  10  19  30  48  74 100 127 162 202 244 292
#     4  10  21  36  54  77 105 135 165 199 241 287
#     4   9  19  36  54  71  96 130 165 203 247 291
#
# _framework density 17.485510999999999
#
# number of rings (size 3 to 8) (size 9 to 14) (size 15 to 20)
#    0.000    2.800    0.000    2.400    0.000    4.800 
#    0.000    4.000    0.000    0.600    0.000    4.200 
#    0.000    0.000    0.000    0.000    0.000    0.000 
#
# Total GULP energy -495607.870368 kJ/mol
# GULP energy per Si atom -12390.196759 kJ/mol
# Density = 1.744571 g / cm^3
# Si number density = 17.485511 Si / 1000 Ang^3
#
#
#
# Elastic Constant Matrix: (Units=GPa)
#
#
# Indices 1 2 3 4 5 6 
#
# 1 83.1358 47.1446 57.0114 0.0000 0.0000 0.0000
# 2 47.1446 69.9695 59.9015 0.0000 0.0000 0.0000
# 3 57.0114 59.9015 103.3869 0.0000 0.0000 0.0000
# 4 0.0000 0.0000 0.0000 3.8348 0.0000 0.0000
# 5 0.0000 0.0000 0.0000 0.0000 24.6034 0.0000
# 6 0.0000 0.0000 0.0000 0.0000 0.0000 32.1523
#
#
#
# Elastic Compliance Matrix: (Units=1/GPa)
#
#
# Indices 1 2 3 4 5 6 
#
# 1 0.021716 -0.008691 -0.006939 0.000000 0.000000 0.000000
# 2 -0.008691 0.031836 -0.013653 0.000000 0.000000 0.000000
# 3 -0.006939 -0.013653 0.021410 0.000000 0.000000 0.000000
# 4 0.000000 0.000000 0.000000 0.260769 0.000000 0.000000
# 5 0.000000 0.000000 0.000000 0.000000 0.040645 0.000000
# 6 0.000000 0.000000 0.000000 0.000000 0.000000 0.031102
#
#
# Mechanical properties :
#
#
# Convention : Reuss Voigt Hill
#
# Bulk Modulus (GPa) = 60.99561 64.95637 62.97599
# Shear Modulus (GPa) = 10.60423 18.28043 14.44233
#
# Velocity S-wave (km/s) = 2.46531 3.23687 2.87707
# Velocity P-wave (km/s) = 6.56223 7.15535 6.86520
#
# Compressibility (1/GPa) = 0.01639462
#
# Stress axis : x y z
#
# Youngs Moduli (GPa) = 46.04960 31.41055 46.70788
#
# Poissons Ratio (x) = 0.27299 0.32413
# Poissons Ratio (y) = 0.40021 0.63772
# Poissons Ratio (z) = 0.31956 0.42886
#
# Static dielectric constant tensor:
#      x y z
#    x 3.229980 0.000000 0.000000 
#    y 0.000000 2.903150 0.000000 
#    z 0.000000 0.000000 3.694730 
# 
# 
# High freq. dielectric constant tensor:
#      x y z
#    x 1.682890 0.000000 0.000000 
#    y 0.000000 1.642240 0.000000 
#    z 0.000000 0.000000 1.693590 
# 
# From -- ./inp_files/72720.got.cif
#   From: 2010.03.12/outbox.cif.g09.slc.cpg/sg65_37_cif.got.tgz:72720.got - 2010.04.10 20:52:16.
