data_PCOD8267155
_publ_section_title
;
Structure prediction by ZEFSAII (Michael W. Deem and Ramdas Pophale) SiO2 
 PCOD8267155
Probable space group: C M M M
;
_chemical_formula_sum "Si O2"
_cell_formula_units_Z 104
_cell_length_a 15.272798
_cell_length_b 24.838648
_cell_length_c 17.735587
_cell_angle_alpha 90.000000
_cell_angle_beta 90.000000
_cell_angle_gamma 90.000000
_cell_volume 6728.095197
_symmetry_space_group_name_H-M "C M M M"
_symmetry_group_IT_number 65
_symmetry_cell_setting 'orthorhombic'
loop_
_space_group_symop_operation_xyz
x,y,z
-x,-y,z
x,-y,-z
-x,y,-z
-x,-y,-z
x,y,-z
-x,y,z
x,-y,z
1/2+x,1/2+y,z
1/2-x,1/2-y,z
1/2+x,1/2-y,-z
1/2-x,1/2+y,-z
1/2-x,1/2-y,-z
1/2+x,1/2+y,-z
1/2-x,1/2+y,z
1/2+x,1/2-y,z
loop_
_atom_site_type_symbol
_atom_site_label
_atom_site_fract_x
_atom_site_fract_y
_atom_site_fract_z
Si Si1 0.750000 0.250000 0.328888
Si Si2 0.895922 0.558435 0.158382
Si Si3 0.902971 0.720067 0.769387
Si Si4 0.097774 0.939695 0.410461
Si Si5 0.895878 0.335280 0.916829
Si Si6 0.748496 0.863010 0.589425
Si Si7 0.403209 0.894234 0.689147
O O1 0.834716 0.242844 0.275280
O O2 0.748735 0.197878 0.381333
O O3 0.861263 0.500000 0.130376
O O4 0.856326 0.606153 0.106600
O O5 0.869304 0.565080 0.246286
O O6 0.000000 0.561093 0.153325
O O7 0.869429 0.710128 0.855490
O O8 0.908178 0.663464 0.728063
O O9 0.000000 0.747025 0.768859
O O10 0.099582 0.939491 0.500000
O O11 0.166419 0.895348 0.380261
O O12 0.000000 0.924240 0.382040
O O13 0.122329 0.000000 0.381805
O O14 0.000000 0.339697 0.917506
O O15 0.859989 0.319719 0.000000
O O16 0.744249 0.861756 0.500000
O O17 0.663123 0.894470 0.619184
O O18 0.500000 0.910222 0.658976
#
# Coordination Sequence:
#
# PCOD8267155 Si02
#       7
#     8  16  16  16  16  16  16
#     4  10  19  30  43  60  84 110 136 170 215 264
#     4   8  13  21  34  53  77 105 135 164 194 229
#     4   8  15  28  42  55  76 107 136 159 192 244
#     4   8  15  29  46  61  78 100 128 168 218 264
#     4   8  13  22  37  56  78 104 133 164 195 229
#     4  10  19  29  43  62  81 103 136 179 222 259
#     4   8  15  27  39  52  76 110 139 160 191 243
#
# _framework density 15.45757
#
# number of rings (size 3 to 8) (size 9 to 14) (size 15 to 20)
#    0.000    3.538    0.000    2.538    0.000    1.846 
#    0.000    1.923    0.000    2.769    0.000    4.308 
#    0.000    0.000    0.000    0.000    0.000    0.000 
#
# Total GULP energy -644196.415790 kJ/mol
# GULP energy per Si atom -12388.392611 kJ/mol
# Density = 1.542239 g / cm^3
# Si number density = 15.457570 Si / 1000 Ang^3
#
#
#
# Elastic Constant Matrix: (Units=GPa)
#
#
# Indices 1 2 3 4 5 6 
#
# 1 70.1438 17.5346 35.2133 0.0000 0.0000 0.0000
# 2 17.5346 25.8236 15.7712 0.0000 0.0000 0.0000
# 3 35.2133 15.7712 80.8870 0.0000 0.0000 0.0000
# 4 0.0000 0.0000 0.0000 11.5819 0.0000 0.0000
# 5 0.0000 0.0000 0.0000 0.0000 12.4604 0.0000
# 6 0.0000 0.0000 0.0000 0.0000 0.0000 18.0858
#
#
#
# Elastic Compliance Matrix: (Units=1/GPa)
#
#
# Indices 1 2 3 4 5 6 
#
# 1 0.020076 -0.009415 -0.006904 0.000000 0.000000 0.000000
# 2 -0.009415 0.048375 -0.005333 0.000000 0.000000 0.000000
# 3 -0.006904 -0.005333 0.016408 0.000000 0.000000 0.000000
# 4 0.000000 0.000000 0.000000 0.086342 0.000000 0.000000
# 5 0.000000 0.000000 0.000000 0.000000 0.080254 0.000000
# 6 0.000000 0.000000 0.000000 0.000000 0.000000 0.055292
#
#
# Mechanical properties :
#
#
# Convention : Reuss Voigt Hill
#
# Bulk Modulus (GPa) = 24.06519 34.87697 29.47108
# Shear Modulus (GPa) = 13.73992 15.64798 14.69395
#
# Velocity S-wave (km/s) = 2.98464 3.18515 3.08652
# Velocity P-wave (km/s) = 5.24212 6.01156 5.63998
#
# Compressibility (1/GPa) = 0.04155379
#
# Stress axis : x y z
#
# Youngs Moduli (GPa) = 49.81051 20.67203 60.94439
#
# Poissons Ratio (x) = 0.19464 0.42077
# Poissons Ratio (y) = 0.46899 0.32502
# Poissons Ratio (z) = 0.34390 0.11025
#
# Static dielectric constant tensor:
#      x y z
#    x 3.061310 0.000000 0.000000 
#    y 0.000000 2.940770 0.000000 
#    z 0.000000 0.000000 3.036140 
# 
# 
# High freq. dielectric constant tensor:
#      x y z
#    x 1.562480 0.000000 0.000000 
#    y 0.000000 1.577270 0.000000 
#    z 0.000000 0.000000 1.577350 
# 
# From -- ./inp_files/53289.got.cif
#   From: 2010.03.12/outbox.cif.g09.slc.cpg/sg65_27_cif.got.tgz:53289.got - 2010.04.10 20:52:16.
