data_PCOD8267602
_publ_section_title
;
Structure prediction by ZEFSAII (Michael W. Deem and Ramdas Pophale) SiO2 
 PCOD8267602
Probable space group: C M M M
;
_chemical_formula_sum "Si O2"
_cell_formula_units_Z 96
_cell_length_a 22.719629
_cell_length_b 26.708144
_cell_length_c 8.827413
_cell_angle_alpha 90.000000
_cell_angle_beta 90.000000
_cell_angle_gamma 90.000000
_cell_volume 5356.466466
_symmetry_space_group_name_H-M "C M M M"
_symmetry_group_IT_number 65
_symmetry_cell_setting 'orthorhombic'
loop_
_space_group_symop_operation_xyz
x,y,z
-x,-y,z
x,-y,-z
-x,y,-z
-x,-y,-z
x,y,-z
-x,y,z
x,-y,z
1/2+x,1/2+y,z
1/2-x,1/2-y,z
1/2+x,1/2-y,-z
1/2-x,1/2+y,-z
1/2-x,1/2-y,-z
1/2+x,1/2+y,-z
1/2-x,1/2+y,z
1/2+x,1/2-y,z
loop_
_atom_site_type_symbol
_atom_site_label
_atom_site_fract_x
_atom_site_fract_y
_atom_site_fract_z
Si Si1 0.272592 0.557403 0.320855
Si Si2 0.336340 0.121346 0.674199
Si Si3 0.853559 0.865399 0.167366
Si Si4 0.569052 0.716357 0.675637
Si Si5 0.237421 0.304072 0.166967
Si Si6 0.433223 0.820702 0.178538
O O1 0.275230 0.564971 0.500000
O O2 0.276175 0.500000 0.270846
O O3 0.208422 0.578201 0.263505
O O4 0.329973 0.584763 0.252160
O O5 0.351997 0.112374 0.500000
O O6 0.301784 0.172768 0.701146
O O7 0.397328 0.129760 0.765044
O O8 0.902618 0.834534 0.258741
O O9 0.798793 0.830165 0.146896
O O10 0.878072 0.880046 0.000000
O O11 0.585497 0.720447 0.500000
O O12 0.500000 0.710476 0.703288
O O13 0.591362 0.767828 0.755256
O O14 0.250000 0.250000 0.230258
O O15 0.205633 0.303949 0.000000
O O16 0.500000 0.828887 0.234110
O O17 0.429076 0.817378 0.000000
#
# Coordination Sequence:
#
# PCOD8267602 Si02
#       6
#    16  16  16  16  16  16
#     4   9  19  36  55  74  98 128 162 204 255 304
#     4  10  19  30  48  72  95 123 161 203 245 291
#     4  10  19  30  48  74 101 129 162 201 245 293
#     4  10  20  33  50  73 102 136 171 203 236 281
#     4   9  17  28  42  63  94 128 157 188 232 287
#     4  10  20  33  49  70 100 137 170 200 239 287
#
# _framework density 17.922263000000001
#
# number of rings (size 3 to 8) (size 9 to 14) (size 15 to 20)
#    0.000    2.333    0.000    3.000    0.000    5.333 
#    0.000    0.000    0.000    1.000    0.000    7.000 
#    0.000    0.000    0.000    0.000    0.000    0.000 
#
# Total GULP energy -594708.891972 kJ/mol
# GULP energy per Si atom -12389.768583 kJ/mol
# Density = 1.788147 g / cm^3
# Si number density = 17.922263 Si / 1000 Ang^3
#
#
#
# Elastic Constant Matrix: (Units=GPa)
#
#
# Indices 1 2 3 4 5 6 
#
# 1 44.4707 0.2370 16.2380 0.0000 0.0000 0.0000
# 2 0.2370 53.8528 15.7174 0.0000 0.0000 0.0000
# 3 16.2380 15.7174 69.0060 0.0000 0.0000 0.0000
# 4 0.0000 0.0000 0.0000 24.4273 0.0000 0.0000
# 5 0.0000 0.0000 0.0000 0.0000 28.9037 0.0000
# 6 0.0000 0.0000 0.0000 0.0000 0.0000 26.1654
#
#
#
# Elastic Compliance Matrix: (Units=1/GPa)
#
#
# Indices 1 2 3 4 5 6 
#
# 1 0.024746 0.001704 -0.006211 0.000000 0.000000 0.000000
# 2 0.001704 0.020009 -0.004958 0.000000 0.000000 0.000000
# 3 -0.006211 -0.004958 0.017082 0.000000 0.000000 0.000000
# 4 0.000000 0.000000 0.000000 0.040938 0.000000 0.000000
# 5 0.000000 0.000000 0.000000 0.000000 0.034598 0.000000
# 6 0.000000 0.000000 0.000000 0.000000 0.000000 0.038218
#
#
# Mechanical properties :
#
#
# Convention : Reuss Voigt Hill
#
# Bulk Modulus (GPa) = 23.30691 25.74601 24.52646
# Shear Modulus (GPa) = 23.94367 24.90841 24.42604
#
# Velocity S-wave (km/s) = 3.65906 3.73205 3.69574
# Velocity P-wave (km/s) = 5.55737 5.74173 5.65030
#
# Compressibility (1/GPa) = 0.04290572
#
# Stress axis : x y z
#
# Youngs Moduli (GPa) = 40.41136 49.97810 58.53993
#
# Poissons Ratio (x) = -0.08515 0.36359
# Poissons Ratio (y) = -0.06885 0.29026
# Poissons Ratio (z) = 0.25099 0.24781
#
# Static dielectric constant tensor:
#      x y z
#    x 3.354710 0.000000 0.000000 
#    y 0.000000 3.165130 0.000000 
#    z 0.000000 0.000000 3.412370 
# 
# 
# High freq. dielectric constant tensor:
#      x y z
#    x 1.688260 0.000000 0.000000 
#    y 0.000000 1.666560 0.000000 
#    z 0.000000 0.000000 1.700130 
# 
# From -- ./inp_files/12270.got.cif
#   From: 2010.03.12/outbox.cif.g09.slc.cpg/sg65_7_cif.got.tgz:12270.got - 2010.04.10 20:52:16.
