data_PCOD8267610
_publ_section_title
;
Structure prediction by ZEFSAII (Michael W. Deem and Ramdas Pophale) SiO2 
 PCOD8267610
Probable space group: C M M M
;
_chemical_formula_sum "Si O2"
_cell_formula_units_Z 104
_cell_length_a 27.715022
_cell_length_b 23.739828
_cell_length_c 9.198245
_cell_angle_alpha 90.000000
_cell_angle_beta 90.000000
_cell_angle_gamma 90.000000
_cell_volume 6051.983967
_symmetry_space_group_name_H-M "C M M M"
_symmetry_group_IT_number 65
_symmetry_cell_setting 'orthorhombic'
loop_
_space_group_symop_operation_xyz
x,y,z
-x,-y,z
x,-y,-z
-x,y,-z
-x,-y,-z
x,y,-z
-x,y,z
x,-y,z
1/2+x,1/2+y,z
1/2-x,1/2-y,z
1/2+x,1/2-y,-z
1/2-x,1/2+y,-z
1/2-x,1/2-y,-z
1/2+x,1/2+y,-z
1/2-x,1/2+y,z
1/2+x,1/2-y,z
loop_
_atom_site_type_symbol
_atom_site_label
_atom_site_fract_x
_atom_site_fract_y
_atom_site_fract_z
Si Si1 0.182560 0.646711 0.171403
Si Si2 0.282078 0.374192 0.671648
Si Si3 0.000000 0.433160 0.664131
Si Si4 0.053059 0.067018 0.337467
Si Si5 0.358479 0.565765 0.840058
Si Si6 0.692652 0.254208 0.339127
Si Si7 0.905212 0.435081 0.830669
O O1 0.230092 0.626025 0.253319
O O2 0.169239 0.709914 0.226363
O O3 0.140078 0.603601 0.212407
O O4 0.192136 0.648443 0.000000
O O5 0.274161 0.381640 0.500000
O O6 0.311864 0.425508 0.738877
O O7 0.315327 0.319123 0.707473
O O8 0.048214 0.411800 0.744731
O O9 0.000000 0.500000 0.667329
O O10 0.000000 0.409690 0.500000
O O11 0.062368 0.090170 0.500000
O O12 0.093592 0.092947 0.231858
O O13 0.000000 0.086148 0.282751
O O14 0.056139 0.000000 0.340259
O O15 0.366453 0.500000 0.855522
O O16 0.350846 0.592732 0.000000
O O17 0.671424 0.241722 0.500000
O O18 0.750000 0.250000 0.344277
O O19 0.893140 0.500000 0.789640
O O20 0.917312 0.429820 0.000000
#
# Coordination Sequence:
#
# PCOD8267610 Si02
#       7
#    16  16   8  16  16  16  16
#     4  10  19  30  48  73  96 122 158 196 235 278
#     4  10  20  33  48  66  92 127 162 195 236 283
#     4   9  17  29  47  71  95 121 159 201 232 267
#     4   8  14  26  44  64  86 114 149 186 222 265
#     4  10  20  31  44  66  95 124 154 190 233 280
#     4   8  16  31  48  66  89 118 154 195 234 272
#     4   9  18  32  48  68  98 132 159 187 232 287
#
# _framework density 17.184448
#
# number of rings (size 3 to 8) (size 9 to 14) (size 15 to 20)
#    0.000    2.846    0.000    3.000    0.000    7.385 
#    0.000    3.077    0.000    0.000    2.000    0.000 
#    0.000    0.000    0.000    0.000    0.000    0.000 
#
# Total GULP energy -644464.241990 kJ/mol
# GULP energy per Si atom -12393.543115 kJ/mol
# Density = 1.714534 g / cm^3
# Si number density = 17.184448 Si / 1000 Ang^3
#
#
#
# Elastic Constant Matrix: (Units=GPa)
#
#
# Indices 1 2 3 4 5 6 
#
# 1 115.1138 36.5458 74.3251 0.0000 0.0000 0.0000
# 2 36.5458 40.4204 34.7116 0.0000 0.0000 0.0000
# 3 74.3251 34.7116 116.4527 0.0000 0.0000 0.0000
# 4 0.0000 0.0000 0.0000 23.4264 0.0000 0.0000
# 5 0.0000 0.0000 0.0000 0.0000 26.2862 0.0000
# 6 0.0000 0.0000 0.0000 0.0000 0.0000 10.1197
#
#
#
# Elastic Compliance Matrix: (Units=1/GPa)
#
#
# Indices 1 2 3 4 5 6 
#
# 1 0.016450 -0.007872 -0.008153 0.000000 0.000000 0.000000
# 2 -0.007872 0.037019 -0.006010 0.000000 0.000000 0.000000
# 3 -0.008153 -0.006010 0.015582 0.000000 0.000000 0.000000
# 4 0.000000 0.000000 0.000000 0.042687 0.000000 0.000000
# 5 0.000000 0.000000 0.000000 0.000000 0.038043 0.000000
# 6 0.000000 0.000000 0.000000 0.000000 0.000000 0.098817
#
#
# Mechanical properties :
#
#
# Convention : Reuss Voigt Hill
#
# Bulk Modulus (GPa) = 40.03008 62.57243 51.30125
# Shear Modulus (GPa) = 16.61160 20.39343 18.50252
#
# Velocity S-wave (km/s) = 3.11250 3.44864 3.28487
# Velocity P-wave (km/s) = 6.02178 7.23525 6.65622
#
# Compressibility (1/GPa) = 0.02498121
#
# Stress axis : x y z
#
# Youngs Moduli (GPa) = 60.78967 27.01342 64.17624
#
# Poissons Ratio (x) = 0.21265 0.52321
# Poissons Ratio (y) = 0.47853 0.38571
# Poissons Ratio (z) = 0.49560 0.16235
#
# Static dielectric constant tensor:
#      x y z
#    x 3.146490 0.000000 0.000000 
#    y 0.000000 3.281210 0.000000 
#    z 0.000000 0.000000 3.441070 
# 
# 
# High freq. dielectric constant tensor:
#      x y z
#    x 1.650790 0.000000 0.000000 
#    y 0.000000 1.628030 0.000000 
#    z 0.000000 0.000000 1.674050 
# 
# From -- ./inp_files/16982.got.cif
#   From: 2010.03.12/outbox.cif.g09.slc.cpg/sg65_9_cif.got.tgz:16982.got - 2010.04.10 20:52:16.
