data_PCOD8267369
_publ_section_title
;
Structure prediction by ZEFSAII (Michael W. Deem and Ramdas Pophale) SiO2 
 PCOD8267369
Probable space group: C M M M
;
_chemical_formula_sum "Si O2"
_cell_formula_units_Z 72
_cell_length_a 37.302494
_cell_length_b 14.479837
_cell_length_c 7.724828
_cell_angle_alpha 90.000000
_cell_angle_beta 90.000000
_cell_angle_gamma 90.000000
_cell_volume 4172.442500
_symmetry_space_group_name_H-M "C M M M"
_symmetry_group_IT_number 65
_symmetry_cell_setting 'orthorhombic'
loop_
_space_group_symop_operation_xyz
x,y,z
-x,-y,z
x,-y,-z
-x,y,-z
-x,-y,-z
x,y,-z
-x,y,z
x,-y,z
1/2+x,1/2+y,z
1/2-x,1/2-y,z
1/2+x,1/2-y,-z
1/2-x,1/2+y,-z
1/2-x,1/2-y,-z
1/2+x,1/2+y,-z
1/2-x,1/2+y,z
1/2+x,1/2-y,z
loop_
_atom_site_type_symbol
_atom_site_label
_atom_site_fract_x
_atom_site_fract_y
_atom_site_fract_z
Si Si1 0.407163 0.607843 0.202498
Si Si2 0.039682 0.891099 0.500000
Si Si3 0.802608 0.396657 0.793817
Si Si4 0.340456 0.722119 0.805654
Si Si5 0.223728 0.895457 0.698686
O O1 0.398001 0.500000 0.228766
O O2 0.440224 0.639318 0.323253
O O3 0.373234 0.665589 0.278678
O O4 0.416122 0.627452 0.000000
O O5 0.000000 0.845752 0.500000
O O6 0.036055 0.000000 0.500000
O O7 0.811744 0.500000 0.725476
O O8 0.832350 0.323539 0.722350
O O9 0.764446 0.361487 0.722697
O O10 0.801213 0.394836 0.000000
O O11 0.303718 0.664692 0.808346
O O12 0.352811 0.738918 0.000000
O O13 0.212306 0.887374 0.500000
O O14 0.221142 0.000000 0.767355
#
# Coordination Sequence:
#
# PCOD8267369 Si02
#       5
#    16   8  16  16  16
#     4   9  18  31  47  70  98 124 152 186 222 266
#     4   9  18  32  50  72  98 127 153 175 210 266
#     4   9  18  32  46  59  81 115 154 195 234 272
#     4  10  19  30  45  64  86 115 151 189 231 274
#     4  10  20  30  41  60  85 115 152 192 232 273
#
# _framework density 17.256080000000001
#
# number of rings (size 3 to 8) (size 9 to 14) (size 15 to 20)
#    0.000    2.556    0.000    2.000    1.556    6.222 
#    0.000    2.222    0.000    0.000    0.000    0.000 
#    0.000    1.778    0.000    8.667    0.000    0.222 
#
# Total GULP energy -446116.509426 kJ/mol
# GULP energy per Si atom -12392.125262 kJ/mol
# Density = 1.721680 g / cm^3
# Si number density = 17.256080 Si / 1000 Ang^3
#
#
#
# Elastic Constant Matrix: (Units=GPa)
#
#
# Indices 1 2 3 4 5 6 
#
# 1 124.0389 65.9163 34.5416 0.0000 0.0000 0.0000
# 2 65.9163 74.1320 20.6961 0.0000 0.0000 0.0000
# 3 34.5416 20.6961 51.5343 0.0000 0.0000 0.0000
# 4 0.0000 0.0000 0.0000 8.6124 0.0000 0.0000
# 5 0.0000 0.0000 0.0000 0.0000 19.8924 0.0000
# 6 0.0000 0.0000 0.0000 0.0000 0.0000 17.0483
#
#
#
# Elastic Compliance Matrix: (Units=1/GPa)
#
#
# Indices 1 2 3 4 5 6 
#
# 1 0.016741 -0.013237 -0.005905 0.000000 0.000000 0.000000
# 2 -0.013237 0.025659 -0.001433 0.000000 0.000000 0.000000
# 3 -0.005905 -0.001433 0.023938 0.000000 0.000000 0.000000
# 4 0.000000 0.000000 0.000000 0.116112 0.000000 0.000000
# 5 0.000000 0.000000 0.000000 0.000000 0.050270 0.000000
# 6 0.000000 0.000000 0.000000 0.000000 0.000000 0.058657
#
#
# Mechanical properties :
#
#
# Convention : Reuss Voigt Hill
#
# Bulk Modulus (GPa) = 39.69954 54.66814 47.18384
# Shear Modulus (GPa) = 14.66617 17.68070 16.17344
#
# Velocity S-wave (km/s) = 2.91849 3.20442 3.06479
# Velocity P-wave (km/s) = 5.86625 6.74095 6.31875
#
# Compressibility (1/GPa) = 0.02518921
#
# Stress axis : x y z
#
# Youngs Moduli (GPa) = 59.73524 38.97234 41.77530
#
# Poissons Ratio (x) = 0.51587 0.24667
# Poissons Ratio (y) = 0.79070 0.05985
# Poissons Ratio (z) = 0.35272 0.05583
#
# Static dielectric constant tensor:
#      x y z
#    x 3.193150 0.000000 0.000000 
#    y 0.000000 3.436700 0.000000 
#    z 0.000000 0.000000 3.152670 
# 
# 
# High freq. dielectric constant tensor:
#      x y z
#    x 1.630640 0.000000 0.000000 
#    y 0.000000 1.650450 0.000000 
#    z 0.000000 0.000000 1.667080 
# 
# From -- ./inp_files/7649.got.cif
#   From: 2010.03.12/outbox.cif.g09.slc.cpg/sg65_4_cif.got.tgz:7649.got - 2010.04.10 20:52:16.
