data_PCOD8267897
_publ_section_title
;
Structure prediction by ZEFSAII (Michael W. Deem and Ramdas Pophale) SiO2 
 PCOD8267897
Probable space group: C M M M
;
_chemical_formula_sum "Si O2"
_cell_formula_units_Z 64
_cell_length_a 29.417760
_cell_length_b 9.815840
_cell_length_c 11.998490
_cell_angle_alpha 90.000000
_cell_angle_beta 90.000000
_cell_angle_gamma 90.000000
_cell_volume 3464.684276
_symmetry_space_group_name_H-M "C M M M"
_symmetry_group_IT_number 65
_symmetry_cell_setting 'orthorhombic'
loop_
_space_group_symop_operation_xyz
x,y,z
-x,-y,z
x,-y,-z
-x,y,-z
-x,-y,-z
x,y,-z
-x,y,z
x,-y,z
1/2+x,1/2+y,z
1/2-x,1/2-y,z
1/2+x,1/2-y,-z
1/2-x,1/2+y,-z
1/2-x,1/2-y,-z
1/2+x,1/2+y,-z
1/2-x,1/2+y,z
1/2+x,1/2-y,z
loop_
_atom_site_type_symbol
_atom_site_label
_atom_site_fract_x
_atom_site_fract_y
_atom_site_fract_z
Si Si1 0.870401 0.648320 0.373741
Si Si2 0.053171 0.260320 0.236591
Si Si3 0.447015 0.500000 0.378192
Si Si4 0.946500 0.848464 0.000000
Si Si5 0.790713 0.155988 0.367650
O O1 0.886811 0.679674 0.500000
O O2 0.845517 0.500000 0.371104
O O3 0.914139 0.628879 0.292426
O O4 0.837034 0.767765 0.331188
O O5 0.067136 0.128531 0.306865
O O6 0.067562 0.237229 0.108520
O O7 0.000000 0.300525 0.247209
O O8 0.500000 0.500000 0.398141
O O9 0.422495 0.500000 0.500000
O O10 0.000000 0.870515 0.000000
O O11 0.924164 0.000000 0.000000
O O12 0.786987 0.151134 0.500000
O O13 0.750000 0.250000 0.319284
O O14 0.789661 0.000000 0.320395
#
# Coordination Sequence:
#
# PCOD8267897 Si02
#       5
#    16  16   8   8  16
#     4  10  21  34  48  71 105 140 172 209 257 312
#     4  10  19  31  48  70  98 134 176 216 257 303
#     4   9  16  25  41  67  97 126 159 203 249 295
#     4   9  16  30  49  69  94 129 172 223 269 303
#     4   9  17  30  50  74 101 133 168 206 250 305
#
# _framework density 18.472102
#
# number of rings (size 3 to 8) (size 9 to 14) (size 15 to 20)
#    0.000    2.500    1.250    1.500    1.750    5.000 
#    0.000    1.875    0.000    2.250    0.000    0.875 
#    0.000    0.000    0.000    0.000    0.000    0.000 
#
# Total GULP energy -396458.735175 kJ/mol
# GULP energy per Si atom -12389.335474 kJ/mol
# Density = 1.843006 g / cm^3
# Si number density = 18.472102 Si / 1000 Ang^3
#
#
#
# Elastic Constant Matrix: (Units=GPa)
#
#
# Indices 1 2 3 4 5 6 
#
# 1 91.8044 45.5068 35.8571 0.0000 0.0000 0.0000
# 2 45.5068 114.2521 26.6762 0.0000 0.0000 0.0000
# 3 35.8571 26.6762 102.7212 0.0000 0.0000 0.0000
# 4 0.0000 0.0000 0.0000 11.1590 0.0000 0.0000
# 5 0.0000 0.0000 0.0000 0.0000 7.4235 0.0000
# 6 0.0000 0.0000 0.0000 0.0000 0.0000 25.4461
#
#
#
# Elastic Compliance Matrix: (Units=1/GPa)
#
#
# Indices 1 2 3 4 5 6 
#
# 1 0.014907 -0.005027 -0.003898 0.000000 0.000000 0.000000
# 2 -0.005027 0.011013 -0.001105 0.000000 0.000000 0.000000
# 3 -0.003898 -0.001105 0.011383 0.000000 0.000000 0.000000
# 4 0.000000 0.000000 0.000000 0.089614 0.000000 0.000000
# 5 0.000000 0.000000 0.000000 0.000000 0.134707 0.000000
# 6 0.000000 0.000000 0.000000 0.000000 0.000000 0.039299
#
#
# Mechanical properties :
#
#
# Convention : Reuss Voigt Hill
#
# Bulk Modulus (GPa) = 57.99848 58.31753 58.15801
# Shear Modulus (GPa) = 15.30310 22.18824 18.74567
#
# Velocity S-wave (km/s) = 2.88139 3.46956 3.18906
# Velocity P-wave (km/s) = 6.52196 6.90576 6.71660
#
# Compressibility (1/GPa) = 0.01724183
#
# Stress axis : x y z
#
# Youngs Moduli (GPa) = 67.08106 90.80140 87.85186
#
# Poissons Ratio (x) = 0.45650 0.34246
# Poissons Ratio (y) = 0.33725 0.09708
# Poissons Ratio (z) = 0.26149 0.10034
#
# Static dielectric constant tensor:
#      x y z
#    x 3.155500 0.000000 0.000000 
#    y 0.000000 3.512890 0.000000 
#    z 0.000000 0.000000 3.302630 
# 
# 
# High freq. dielectric constant tensor:
#      x y z
#    x 1.691660 0.000000 0.000000 
#    y 0.000000 1.725950 0.000000 
#    z 0.000000 0.000000 1.673970 
# 
# From -- ./inp_files/33258.got.cif
#   From: 2010.03.12/outbox.cif.g09.slc.cpg/sg65_17_cif.got.tgz:33258.got - 2010.04.10 20:52:16.
