data_PCOD8267650
_publ_section_title
;
Structure prediction by ZEFSAII (Michael W. Deem and Ramdas Pophale) SiO2 
 PCOD8267650
Probable space group: C M M M
;
_chemical_formula_sum "Si O2"
_cell_formula_units_Z 80
_cell_length_a 21.572616
_cell_length_b 21.007011
_cell_length_c 9.982565
_cell_angle_alpha 90.000000
_cell_angle_beta 90.000000
_cell_angle_gamma 90.000000
_cell_volume 4523.860689
_symmetry_space_group_name_H-M "C M M M"
_symmetry_group_IT_number 65
_symmetry_cell_setting 'orthorhombic'
loop_
_space_group_symop_operation_xyz
x,y,z
-x,-y,z
x,-y,-z
-x,y,-z
-x,-y,-z
x,y,-z
-x,y,z
x,-y,z
1/2+x,1/2+y,z
1/2-x,1/2-y,z
1/2+x,1/2-y,-z
1/2-x,1/2+y,-z
1/2-x,1/2-y,-z
1/2+x,1/2+y,-z
1/2-x,1/2+y,z
1/2+x,1/2-y,z
loop_
_atom_site_type_symbol
_atom_site_label
_atom_site_fract_x
_atom_site_fract_y
_atom_site_fract_z
Si Si1 0.930578 0.500000 0.658528
Si Si2 0.500000 0.428281 0.840825
Si Si3 0.755918 0.926993 0.851476
Si Si4 0.677653 0.254321 0.348471
Si Si5 0.878851 0.143932 0.847140
Si Si6 0.842030 0.387227 0.651084
O O1 0.936243 0.500000 0.500000
O O2 0.895092 0.435463 0.706491
O O3 0.000000 0.500000 0.721286
O O4 0.500000 0.500000 0.780294
O O5 0.559263 0.388709 0.790533
O O6 0.500000 0.433323 0.000000
O O7 0.827856 0.911097 0.841062
O O8 0.718839 0.888344 0.741381
O O9 0.746290 0.000000 0.818632
O O10 0.730804 0.909987 0.000000
O O11 0.675040 0.281982 0.500000
O O12 0.750000 0.250000 0.304524
O O13 0.640048 0.297819 0.246507
O O14 0.640219 0.187106 0.344849
O O15 0.887137 0.168913 0.000000
O O16 0.824772 0.408169 0.500000
#
# Coordination Sequence:
#
# PCOD8267650 Si02
#       6
#     8   8  16  16  16  16
#     4   9  18  34  55  77  99 128 177 224 252 299
#     4   9  18  36  59  81 109 146 189 230 268 320
#     4  10  19  30  49  79 107 130 168 221 270 310
#     4  10  20  34  52  78 111 141 172 216 270 322
#     4  10  20  34  55  79 106 144 183 220 266 319
#     4  10  19  33  54  76 101 136 173 213 263 313
#
# _framework density 17.684010000000001
#
# number of rings (size 3 to 8) (size 9 to 14) (size 15 to 20)
#    0.000    2.200    3.000    0.600    0.000    3.600 
#    1.800    0.500    0.000    3.600    0.000    0.000 
#    0.000    0.000    0.000    0.000    0.000    0.000 
#
# Total GULP energy -495811.064787 kJ/mol
# GULP energy per Si atom -12395.276620 kJ/mol
# Density = 1.764376 g / cm^3
# Si number density = 17.684010 Si / 1000 Ang^3
#
#
#
# Elastic Constant Matrix: (Units=GPa)
#
#
# Indices 1 2 3 4 5 6 
#
# 1 105.6238 55.0313 42.3467 0.0000 0.0000 0.0000
# 2 55.0313 97.6090 47.5361 0.0000 0.0000 0.0000
# 3 42.3467 47.5361 72.6246 0.0000 0.0000 0.0000
# 4 0.0000 0.0000 0.0000 26.5790 0.0000 0.0000
# 5 0.0000 0.0000 0.0000 0.0000 15.2428 0.0000
# 6 0.0000 0.0000 0.0000 0.0000 0.0000 29.6527
#
#
#
# Elastic Compliance Matrix: (Units=1/GPa)
#
#
# Indices 1 2 3 4 5 6 
#
# 1 0.014345 -0.005892 -0.004507 0.000000 0.000000 0.000000
# 2 -0.005892 0.017459 -0.007992 0.000000 0.000000 0.000000
# 3 -0.004507 -0.007992 0.021629 0.000000 0.000000 0.000000
# 4 0.000000 0.000000 0.000000 0.037624 0.000000 0.000000
# 5 0.000000 0.000000 0.000000 0.000000 0.065605 0.000000
# 6 0.000000 0.000000 0.000000 0.000000 0.000000 0.033724
#
#
# Mechanical properties :
#
#
# Convention : Reuss Voigt Hill
#
# Bulk Modulus (GPa) = 60.06350 62.85397 61.45874
# Shear Modulus (GPa) = 21.48521 23.02445 22.25483
#
# Velocity S-wave (km/s) = 3.48940 3.61223 3.55134
# Velocity P-wave (km/s) = 7.09035 7.28132 7.18647
#
# Compressibility (1/GPa) = 0.01664905
#
# Stress axis : x y z
#
# Youngs Moduli (GPa) = 69.71247 57.27651 46.23440
#
# Poissons Ratio (x) = 0.33749 0.20840
# Poissons Ratio (y) = 0.41076 0.36951
# Poissons Ratio (z) = 0.31423 0.45776
#
# Static dielectric constant tensor:
#      x y z
#    x 3.288920 0.000000 0.000000 
#    y 0.000000 3.311360 0.000000 
#    z 0.000000 0.000000 3.163770 
# 
# 
# High freq. dielectric constant tensor:
#      x y z
#    x 1.669030 0.000000 0.000000 
#    y 0.000000 1.690970 0.000000 
#    z 0.000000 0.000000 1.665390 
# 
# From -- ./inp_files/11586.got.cif
#   From: 2010.03.12/outbox.cif.g09.slc.cpg/sg65_6_cif.got.tgz:11586.got - 2010.04.10 20:52:16.
