data_PCOD8267917
_publ_section_title
;
Structure prediction by ZEFSAII (Michael W. Deem and Ramdas Pophale) SiO2 
 PCOD8267917
Probable space group: C M M M
;
_chemical_formula_sum "Si O2"
_cell_formula_units_Z 112
_cell_length_a 16.605178
_cell_length_b 18.662276
_cell_length_c 21.294394
_cell_angle_alpha 90.000000
_cell_angle_beta 90.000000
_cell_angle_gamma 90.000000
_cell_volume 6598.928591
_symmetry_space_group_name_H-M "C M M M"
_symmetry_group_IT_number 65
_symmetry_cell_setting 'orthorhombic'
loop_
_space_group_symop_operation_xyz
x,y,z
-x,-y,z
x,-y,-z
-x,y,-z
-x,-y,-z
x,y,-z
-x,y,z
x,-y,z
1/2+x,1/2+y,z
1/2-x,1/2-y,z
1/2+x,1/2-y,-z
1/2-x,1/2+y,-z
1/2-x,1/2-y,-z
1/2+x,1/2+y,-z
1/2-x,1/2+y,z
1/2+x,1/2-y,z
loop_
_atom_site_type_symbol
_atom_site_label
_atom_site_fract_x
_atom_site_fract_y
_atom_site_fract_z
Si Si1 0.690679 0.579746 0.262002
Si Si2 0.409171 0.340237 0.832794
Si Si3 0.270729 0.332321 0.927249
Si Si4 0.088770 0.694755 0.765935
Si Si5 0.907911 0.418396 0.573997
Si Si6 0.331254 0.079626 0.839140
Si Si7 0.209491 0.321890 0.345233
O O1 0.669649 0.500000 0.285932
O O2 0.612433 0.614051 0.229368
O O3 0.758884 0.577495 0.209738
O O4 0.719506 0.625598 0.322000
O O5 0.500000 0.359466 0.852599
O O6 0.352234 0.356143 0.891985
O O7 0.399031 0.257321 0.815969
O O8 0.250000 0.250000 0.914287
O O9 0.196680 0.380073 0.902243
O O10 0.283588 0.348741 0.000000
O O11 0.096331 0.621177 0.805027
O O12 0.155589 0.703667 0.712896
O O13 0.000000 0.696931 0.735152
O O14 0.897108 0.411825 0.500000
O O15 0.888579 0.500000 0.595839
O O16 0.846299 0.362972 0.605081
O O17 0.000000 0.399541 0.593141
O O18 0.360818 0.000000 0.856702
O O19 0.250000 0.250000 0.374862
#
# Coordination Sequence:
#
# PCOD8267917 Si02
#       7
#    16  16  16  16  16  16  16
#     4   9  18  31  48  72  98 129 163 196 242 297
#     4  10  19  32  50  70  96 128 160 200 249 296
#     4  10  19  32  51  70  90 123 164 205 249 300
#     4  10  19  31  48  72 101 132 163 200 248 300
#     4   9  19  36  55  75 104 142 179 215 254 294
#     4   9  18  31  49  70  94 124 157 200 251 299
#     4  11  19  30  51  79 107 136 166 208 252 297
#
# _framework density 16.972452000000001
#
# number of rings (size 3 to 8) (size 9 to 14) (size 15 to 20)
#    0.000    2.286    2.857    1.286    0.000    2.000 
#    0.000    0.000    0.000    0.429    0.000    5.000 
#    0.000    0.000    0.000    9.429    0.000    0.000 
#
# Total GULP energy -694255.575398 kJ/mol
# GULP energy per Si atom -12397.420989 kJ/mol
# Density = 1.693382 g / cm^3
# Si number density = 16.972452 Si / 1000 Ang^3
#
#
#
# Elastic Constant Matrix: (Units=GPa)
#
#
# Indices 1 2 3 4 5 6 
#
# 1 65.8828 30.8457 29.0324 0.0000 0.0000 0.0000
# 2 30.8457 122.4048 32.1627 0.0000 0.0000 0.0000
# 3 29.0324 32.1627 56.6391 0.0000 0.0000 0.0000
# 4 0.0000 0.0000 0.0000 22.3694 0.0000 0.0000
# 5 0.0000 0.0000 0.0000 0.0000 22.1717 0.0000
# 6 0.0000 0.0000 0.0000 0.0000 0.0000 21.8908
#
#
#
# Elastic Compliance Matrix: (Units=1/GPa)
#
#
# Indices 1 2 3 4 5 6 
#
# 1 0.020399 -0.002813 -0.008859 0.000000 0.000000 0.000000
# 2 -0.002813 0.009990 -0.004231 0.000000 0.000000 0.000000
# 3 -0.008859 -0.004231 0.024599 0.000000 0.000000 0.000000
# 4 0.000000 0.000000 0.000000 0.044704 0.000000 0.000000
# 5 0.000000 0.000000 0.000000 0.000000 0.045103 0.000000
# 6 0.000000 0.000000 0.000000 0.000000 0.000000 0.045681
#
#
# Mechanical properties :
#
#
# Convention : Reuss Voigt Hill
#
# Bulk Modulus (GPa) = 43.13559 47.66759 45.40159
# Shear Modulus (GPa) = 21.73815 23.47878 22.60846
#
# Velocity S-wave (km/s) = 3.58270 3.72337 3.65371
# Velocity P-wave (km/s) = 6.52568 6.82868 6.67890
#
# Compressibility (1/GPa) = 0.02318271
#
# Stress axis : x y z
#
# Youngs Moduli (GPa) = 49.02126 100.09813 40.65138
#
# Poissons Ratio (x) = 0.28155 0.36014
# Poissons Ratio (y) = 0.13789 0.17200
# Poissons Ratio (z) = 0.43429 0.42353
#
# Static dielectric constant tensor:
#      x y z
#    x 3.096700 0.000000 0.000000 
#    y 0.000000 3.403110 0.000000 
#    z 0.000000 0.000000 2.883410 
# 
# 
# High freq. dielectric constant tensor:
#      x y z
#    x 1.643780 0.000000 0.000000 
#    y 0.000000 1.663290 0.000000 
#    z 0.000000 0.000000 1.626040 
# 
# From -- ./inp_files/63916.got.cif
#   From: 2010.03.12/outbox.cif.g09.slc.cpg/sg65_32_cif.got.tgz:63916.got - 2010.04.10 20:52:16.
