data_PCOD8267853
_publ_section_title
;
Structure prediction by ZEFSAII (Michael W. Deem and Ramdas Pophale) SiO2 
 PCOD8267853
Probable space group: C M M M
;
_chemical_formula_sum "Si O2"
_cell_formula_units_Z 88
_cell_length_a 19.328290
_cell_length_b 18.270247
_cell_length_c 14.086797
_cell_angle_alpha 90.000000
_cell_angle_beta 90.000000
_cell_angle_gamma 90.000000
_cell_volume 4974.507707
_symmetry_space_group_name_H-M "C M M M"
_symmetry_group_IT_number 65
_symmetry_cell_setting 'orthorhombic'
loop_
_space_group_symop_operation_xyz
x,y,z
-x,-y,z
x,-y,-z
-x,y,-z
-x,-y,-z
x,y,-z
-x,y,z
x,-y,z
1/2+x,1/2+y,z
1/2-x,1/2-y,z
1/2+x,1/2-y,-z
1/2-x,1/2+y,-z
1/2-x,1/2-y,-z
1/2+x,1/2+y,-z
1/2-x,1/2+y,z
1/2+x,1/2-y,z
loop_
_atom_site_type_symbol
_atom_site_label
_atom_site_fract_x
_atom_site_fract_y
_atom_site_fract_z
Si Si1 0.576691 0.085788 0.500000
Si Si2 0.684890 0.301396 0.110163
Si Si3 0.284568 0.582561 0.737872
Si Si4 0.578817 0.227613 0.236727
Si Si5 0.875771 0.581714 0.297467
Si Si6 0.321600 0.708291 0.609964
O O1 0.500000 0.122439 0.500000
O O2 0.619613 0.109190 0.592965
O O3 0.567211 0.000000 0.500000
O O4 0.750000 0.250000 0.133885
O O5 0.691992 0.377694 0.165607
O O6 0.615689 0.259923 0.143582
O O7 0.678964 0.319968 0.000000
O O8 0.314245 0.500000 0.737167
O O9 0.202464 0.581555 0.735316
O O10 0.314137 0.624892 0.646135
O O11 0.500000 0.254913 0.237732
O O12 0.581513 0.138846 0.233059
O O13 0.617299 0.253234 0.332200
O O14 0.907768 0.500000 0.285708
O O15 0.341938 0.708485 0.500000
O O16 0.250000 0.750000 0.630678
#
# Coordination Sequence:
#
# PCOD8267853 Si02
#       6
#     8  16  16  16  16  16
#     4   9  18  28  38  61 104 156 192 209 236 283
#     4  10  20  39  60  78 104 136 175 225 276 324
#     4  10  19  33  56  83 107 135 178 224 272 321
#     4  11  21  34  54  80 109 144 185 219 263 321
#     4  10  19  31  47  75 115 150 183 218 252 302
#     4  10  20  35  52  75 111 151 189 225 260 303
#
# _framework density 17.690193000000001
#
# number of rings (size 3 to 8) (size 9 to 14) (size 15 to 20)
#    0.000    1.909    3.636    1.636    2.545    2.545 
#    0.000    0.000    0.000    9.273    0.000   11.455 
#    0.000    0.000    0.000    0.000    0.000    0.000 
#
# Total GULP energy -545542.888308 kJ/mol
# GULP energy per Si atom -12398.702007 kJ/mol
# Density = 1.764993 g / cm^3
# Si number density = 17.690193 Si / 1000 Ang^3
#
#
#
# Elastic Constant Matrix: (Units=GPa)
#
#
# Indices 1 2 3 4 5 6 
#
# 1 101.1496 30.6759 29.9413 0.0000 0.0000 0.0000
# 2 30.6759 116.3560 36.3415 0.0000 0.0000 0.0000
# 3 29.9413 36.3415 94.3344 0.0000 0.0000 0.0000
# 4 0.0000 0.0000 0.0000 18.8722 0.0000 0.0000
# 5 0.0000 0.0000 0.0000 0.0000 8.9124 0.0000
# 6 0.0000 0.0000 0.0000 0.0000 0.0000 7.8138
#
#
#
# Elastic Compliance Matrix: (Units=1/GPa)
#
#
# Indices 1 2 3 4 5 6 
#
# 1 0.011355 -0.002123 -0.002786 0.000000 0.000000 0.000000
# 2 -0.002123 0.010167 -0.003243 0.000000 0.000000 0.000000
# 3 -0.002786 -0.003243 0.012734 0.000000 0.000000 0.000000
# 4 0.000000 0.000000 0.000000 0.052988 0.000000 0.000000
# 5 0.000000 0.000000 0.000000 0.000000 0.112204 0.000000
# 6 0.000000 0.000000 0.000000 0.000000 0.000000 0.127979
#
#
# Mechanical properties :
#
#
# Convention : Reuss Voigt Hill
#
# Bulk Modulus (GPa) = 55.70520 56.19528 55.95024
# Shear Modulus (GPa) = 14.29733 21.44507 17.87120
#
# Velocity S-wave (km/s) = 2.84598 3.48553 3.18186
# Velocity P-wave (km/s) = 6.50824 6.93064 6.72276
#
# Compressibility (1/GPa) = 0.01795164
#
# Stress axis : x y z
#
# Youngs Moduli (GPa) = 88.06678 98.35794 78.52937
#
# Poissons Ratio (x) = 0.20886 0.21878
# Poissons Ratio (y) = 0.18701 0.25465
# Poissons Ratio (z) = 0.24535 0.31895
#
# Static dielectric constant tensor:
#      x y z
#    x 3.128730 0.000000 0.000000 
#    y 0.000000 3.550710 0.000000 
#    z 0.000000 0.000000 3.195840 
# 
# 
# High freq. dielectric constant tensor:
#      x y z
#    x 1.666110 0.000000 0.000000 
#    y 0.000000 1.686090 0.000000 
#    z 0.000000 0.000000 1.672600 
# 
# From -- ./inp_files/42481.got.cif
#   From: 2010.03.12/outbox.cif.g09.slc.cpg/sg65_22_cif.got.tgz:42481.got - 2010.04.10 20:52:16.
