data_PCOD8267242
_publ_section_title
;
Structure prediction by ZEFSAII (Michael W. Deem and Ramdas Pophale) SiO2 
 PCOD8267242
Probable space group: C M M M
;
_chemical_formula_sum "Si O2"
_cell_formula_units_Z 96
_cell_length_a 20.382616
_cell_length_b 28.563495
_cell_length_c 9.437853
_cell_angle_alpha 90.000000
_cell_angle_beta 90.000000
_cell_angle_gamma 90.000000
_cell_volume 5494.706221
_symmetry_space_group_name_H-M "C M M M"
_symmetry_group_IT_number 65
_symmetry_cell_setting 'orthorhombic'
loop_
_space_group_symop_operation_xyz
x,y,z
-x,-y,z
x,-y,-z
-x,y,-z
-x,-y,-z
x,y,-z
-x,y,z
x,-y,z
1/2+x,1/2+y,z
1/2-x,1/2-y,z
1/2+x,1/2-y,-z
1/2-x,1/2+y,-z
1/2-x,1/2-y,-z
1/2+x,1/2+y,-z
1/2-x,1/2+y,z
1/2+x,1/2-y,z
loop_
_atom_site_type_symbol
_atom_site_label
_atom_site_fract_x
_atom_site_fract_y
_atom_site_fract_z
Si Si1 0.000000 0.053190 0.168844
Si Si2 0.927278 0.776646 0.831331
Si Si3 0.500000 0.944513 0.658338
Si Si4 0.386748 0.378374 0.168234
Si Si5 0.358821 0.944742 0.662760
Si Si6 0.262433 0.116390 0.831872
Si Si7 0.192582 0.282818 0.831462
O O1 0.064726 0.080748 0.224230
O O2 0.000000 0.000000 0.229181
O O3 0.000000 0.051889 0.000000
O O4 0.909132 0.827977 0.771110
O O5 0.876739 0.737317 0.774302
O O6 0.000000 0.762725 0.778934
O O7 0.923937 0.778578 0.000000
O O8 0.500000 0.924766 0.500000
O O9 0.430491 0.928132 0.726949
O O10 0.500000 0.000000 0.653850
O O11 0.312755 0.388029 0.219235
O O12 0.389882 0.376598 0.000000
O O13 0.351134 0.927978 0.500000
O O14 0.301665 0.925147 0.759863
O O15 0.352941 0.000000 0.670748
O O16 0.294664 0.164774 0.777301
O O17 0.267474 0.111632 0.000000
O O18 0.250000 0.250000 0.770874
O O19 0.194399 0.281932 0.000000
#
# Coordination Sequence:
#
# PCOD8267242 Si02
#       7
#     8  16   8  16  16  16  16
#     4   9  16  24  34  53  85 121 159 203 242 273
#     4   9  14  22  38  57  81 119 164 197 221 268
#     4   7  12  28  53  70  79 107 157 193 211 253
#     4   9  15  24  39  59  86 124 161 191 232 281
#     4   9  18  34  54  71  89 120 160 194 226 273
#     4  10  19  29  45  72 102 125 149 189 241 290
#     4   9  15  25  40  60  89 124 155 185 227 279
#
# _framework density 17.471361999999999
#
# number of rings (size 3 to 8) (size 9 to 14) (size 15 to 20)
#    0.000    3.000    2.500    1.000    0.000    1.000 
#    1.500    2.083    0.000    2.000    0.000    0.583 
#    0.000    3.333    0.000    0.000    0.000    0.000 
#
# Total GULP energy -594715.864444 kJ/mol
# GULP energy per Si atom -12389.913843 kJ/mol
# Density = 1.743160 g / cm^3
# Si number density = 17.471362 Si / 1000 Ang^3
#
#
#
# Elastic Constant Matrix: (Units=GPa)
#
#
# Indices 1 2 3 4 5 6 
#
# 1 186.6745 64.7689 21.9553 0.0000 0.0000 0.0000
# 2 64.7689 69.3244 14.0544 0.0000 0.0000 0.0000
# 3 21.9553 14.0544 12.9844 0.0000 0.0000 0.0000
# 4 0.0000 0.0000 0.0000 4.4299 0.0000 0.0000
# 5 0.0000 0.0000 0.0000 0.0000 12.0957 0.0000
# 6 0.0000 0.0000 0.0000 0.0000 0.0000 36.6037
#
#
#
# Elastic Compliance Matrix: (Units=1/GPa)
#
#
# Indices 1 2 3 4 5 6 
#
# 1 0.008440 -0.006396 -0.007349 0.000000 0.000000 0.000000
# 2 -0.006396 0.023327 -0.014434 0.000000 0.000000 0.000000
# 3 -0.007349 -0.014434 0.105065 0.000000 0.000000 0.000000
# 4 0.000000 0.000000 0.000000 0.225738 0.000000 0.000000
# 5 0.000000 0.000000 0.000000 0.000000 0.082674 0.000000
# 6 0.000000 0.000000 0.000000 0.000000 0.000000 0.027320
#
#
# Mechanical properties :
#
#
# Convention : Reuss Voigt Hill
#
# Bulk Modulus (GPa) = 12.42629 52.28227 32.35428
# Shear Modulus (GPa) = 8.99689 21.83950 15.41819
#
# Velocity S-wave (km/s) = 2.27171 3.53939 2.97389
# Velocity P-wave (km/s) = 3.74282 6.83320 5.50914
#
# Compressibility (1/GPa) = 0.08047456
#
# Stress axis : x y z
#
# Youngs Moduli (GPa) = 118.47838 42.86911 9.51787
#
# Poissons Ratio (x) = 0.27418 0.06995
# Poissons Ratio (y) = 0.75777 0.13738
# Poissons Ratio (z) = 0.87069 0.61878
#
# Static dielectric constant tensor:
#      x y z
#    x 3.718080 0.000000 0.000000 
#    y 0.000000 3.254080 0.000000 
#    z 0.000000 0.000000 2.500010 
# 
# 
# High freq. dielectric constant tensor:
#      x y z
#    x 1.699310 0.000000 0.000000 
#    y 0.000000 1.668780 0.000000 
#    z 0.000000 0.000000 1.590420 
# 
# From -- ./inp_files/27400.got.cif
#   From: 2010.03.12/outbox.cif.g09.slc.cpg/sg65_14_cif.got.tgz:27400.got - 2010.04.10 20:52:16.
