data_PCOD8267225
_publ_section_title
;
Structure prediction by ZEFSAII (Michael W. Deem and Ramdas Pophale) SiO2 
 PCOD8267225
Probable space group: C M M M
;
_chemical_formula_sum "Si O2"
_cell_formula_units_Z 72
_cell_length_a 9.193303
_cell_length_b 15.877719
_cell_length_c 26.284998
_cell_angle_alpha 90.000000
_cell_angle_beta 90.000000
_cell_angle_gamma 90.000000
_cell_volume 3836.786507
_symmetry_space_group_name_H-M "C M M M"
_symmetry_group_IT_number 65
_symmetry_cell_setting 'orthorhombic'
loop_
_space_group_symop_operation_xyz
x,y,z
-x,-y,z
x,-y,-z
-x,y,-z
-x,-y,-z
x,y,-z
-x,y,z
x,-y,z
1/2+x,1/2+y,z
1/2-x,1/2-y,z
1/2+x,1/2-y,-z
1/2-x,1/2+y,-z
1/2-x,1/2-y,-z
1/2+x,1/2+y,-z
1/2-x,1/2+y,z
1/2+x,1/2-y,z
loop_
_atom_site_type_symbol
_atom_site_label
_atom_site_fract_x
_atom_site_fract_y
_atom_site_fract_z
Si Si1 0.172326 0.666258 0.789947
Si Si2 0.827355 0.500000 0.731509
Si Si3 0.826923 0.500000 0.616215
Si Si4 0.673196 0.162742 0.000000
Si Si5 0.827715 0.407907 0.893859
Si Si6 0.330234 0.833963 0.559161
O O1 0.250000 0.750000 0.768574
O O2 0.229211 0.584752 0.758986
O O3 0.220391 0.655293 0.849051
O O4 0.000000 0.676952 0.783858
O O5 0.769418 0.500000 0.673877
O O6 0.000000 0.500000 0.733787
O O7 0.768353 0.415656 0.588669
O O8 0.000000 0.500000 0.613340
O O9 0.750000 0.250000 0.000000
O O10 0.731114 0.116595 0.949432
O O11 0.500000 0.172359 0.000000
O O12 0.765743 0.500000 0.880379
O O13 0.000000 0.411099 0.895676
O O14 0.297735 0.849119 0.500000
O O15 0.500000 0.821253 0.569892
O O16 0.250000 0.750000 0.579072
#
# Coordination Sequence:
#
# PCOD8267225 Si02
#       6
#    16   8   8   8  16  16
#     4  10  19  33  53  73  95 125 161 200 242 287
#     4   9  18  33  51  71  96 129 165 200 238 288
#     4   9  17  30  50  72  95 128 169 202 234 282
#     4  10  19  29  45  69  95 120 152 191 233 281
#     4   9  16  29  49  70  91 120 159 196 229 278
#     4   9  17  30  49  73 100 129 162 200 240 284
#
# _framework density 18.765703999999999
#
# number of rings (size 3 to 8) (size 9 to 14) (size 15 to 20)
#    0.000    2.667    1.111    1.333    0.000    3.556 
#    0.000    1.111    0.000    6.667    0.000    0.000 
#    0.000    0.000    0.000    0.000    0.000    0.000 
#
# Total GULP energy -446237.704187 kJ/mol
# GULP energy per Si atom -12395.491783 kJ/mol
# Density = 1.872299 g / cm^3
# Si number density = 18.765704 Si / 1000 Ang^3
#
#
#
# Elastic Constant Matrix: (Units=GPa)
#
#
# Indices 1 2 3 4 5 6 
#
# 1 19.8187 33.5639 21.2086 0.0000 0.0000 0.0000
# 2 33.5639 187.3213 77.2323 0.0000 0.0000 0.0000
# 3 21.2086 77.2323 119.7471 0.0000 0.0000 0.0000
# 4 0.0000 0.0000 0.0000 22.9240 0.0000 0.0000
# 5 0.0000 0.0000 0.0000 0.0000 11.3505 0.0000
# 6 0.0000 0.0000 0.0000 0.0000 0.0000 31.3210
#
#
#
# Elastic Compliance Matrix: (Units=1/GPa)
#
#
# Indices 1 2 3 4 5 6 
#
# 1 0.075833 -0.010966 -0.006358 0.000000 0.000000 0.000000
# 2 -0.010966 0.008858 -0.003771 0.000000 0.000000 0.000000
# 3 -0.006358 -0.003771 0.011909 0.000000 0.000000 0.000000
# 4 0.000000 0.000000 0.000000 0.043622 0.000000 0.000000
# 5 0.000000 0.000000 0.000000 0.000000 0.088102 0.000000
# 6 0.000000 0.000000 0.000000 0.000000 0.000000 0.031927
#
#
# Mechanical properties :
#
#
# Convention : Reuss Voigt Hill
#
# Bulk Modulus (GPa) = 18.37902 65.65517 42.01709
# Shear Modulus (GPa) = 15.59677 26.11124 20.85401
#
# Velocity S-wave (km/s) = 2.88606 3.73424 3.33721
# Velocity P-wave (km/s) = 4.57395 7.32499 6.10641
#
# Compressibility (1/GPa) = 0.05440987
#
# Stress axis : x y z
#
# Youngs Moduli (GPa) = 13.18685 112.89174 83.96941
#
# Poissons Ratio (x) = 1.23799 0.53389
# Poissons Ratio (y) = 0.14461 0.31664
# Poissons Ratio (z) = 0.08384 0.42570
#
# Static dielectric constant tensor:
#      x y z
#    x 2.893120 0.000000 0.000000 
#    y 0.000000 3.577580 0.000000 
#    z 0.000000 0.000000 5.281220 
# 
# 
# High freq. dielectric constant tensor:
#      x y z
#    x 1.667640 0.000000 0.000000 
#    y 0.000000 1.744720 0.000000 
#    z 0.000000 0.000000 1.733680 
# 
# From -- ./inp_files/69683.got.cif
#   From: 2010.03.12/outbox.cif.g09.slc.cpg/sg65_35_cif.got.tgz:69683.got - 2010.04.10 20:52:16.
