data_PCOD8267468
_publ_section_title
;
Structure prediction by ZEFSAII (Michael W. Deem and Ramdas Pophale) SiO2 
 PCOD8267468
Probable space group: C M M M
;
_chemical_formula_sum "Si O2"
_cell_formula_units_Z 96
_cell_length_a 9.000923
_cell_length_b 19.501298
_cell_length_c 30.955140
_cell_angle_alpha 90.000000
_cell_angle_beta 90.000000
_cell_angle_gamma 90.000000
_cell_volume 5433.545871
_symmetry_space_group_name_H-M "C M M M"
_symmetry_group_IT_number 65
_symmetry_cell_setting 'orthorhombic'
loop_
_space_group_symop_operation_xyz
x,y,z
-x,-y,z
x,-y,-z
-x,y,-z
-x,-y,-z
x,y,-z
-x,y,z
x,-y,z
1/2+x,1/2+y,z
1/2-x,1/2-y,z
1/2+x,1/2-y,-z
1/2-x,1/2+y,-z
1/2-x,1/2-y,-z
1/2+x,1/2+y,-z
1/2-x,1/2+y,z
1/2+x,1/2-y,z
loop_
_atom_site_type_symbol
_atom_site_label
_atom_site_fract_x
_atom_site_fract_y
_atom_site_fract_z
Si Si1 0.677341 0.675400 0.869395
Si Si2 0.335433 0.918535 0.708272
Si Si3 0.673421 0.920316 0.612909
Si Si4 0.674959 0.422633 0.792594
Si Si5 0.326054 0.680643 0.450529
Si Si6 0.174086 0.676634 0.953105
O O1 0.500000 0.681667 0.872023
O O2 0.750000 0.750000 0.862673
O O3 0.730967 0.626775 0.830589
O O4 0.741839 0.639380 0.913300
O O5 0.500000 0.889650 0.717404
O O6 0.280327 0.893815 0.660998
O O7 0.230439 0.892235 0.746814
O O8 0.339305 0.000000 0.707071
O O9 0.500000 0.905880 0.605009
O O10 0.771156 0.882358 0.577724
O O11 0.709789 0.000000 0.607728
O O12 0.500000 0.423774 0.790963
O O13 0.736300 0.500000 0.800473
O O14 0.281360 0.665698 0.500000
O O15 0.500000 0.689653 0.444867
O O16 0.250000 0.750000 0.433802
O O17 0.250000 0.750000 0.956428
O O18 0.000000 0.684588 0.942375
O O19 0.195223 0.639165 0.000000
#
# Coordination Sequence:
#
# PCOD8267468 Si02
#       6
#    16  16  16  16  16  16
#     4  10  19  30  46  68  94 121 150 189 233 275
#     4   8  15  29  49  72  96 123 156 193 233 278
#     4   9  18  33  53  77 103 129 160 200 244 288
#     4   9  18  32  49  69  93 123 159 194 229 274
#     4  10  21  36  53  73  99 132 168 203 241 289
#     4   9  16  26  42  64  89 117 150 187 227 273
#
# _framework density 17.668021
#
# number of rings (size 3 to 8) (size 9 to 14) (size 15 to 20)
#    0.000    2.833    0.000    3.500    0.000    4.667 
#    0.000    4.167    0.000    2.500    0.000    3.500 
#    0.000    0.000    0.000    0.000    0.000    0.000 
#
# Total GULP energy -594830.813490 kJ/mol
# GULP energy per Si atom -12392.308614 kJ/mol
# Density = 1.762781 g / cm^3
# Si number density = 17.668021 Si / 1000 Ang^3
#
#
#
# Elastic Constant Matrix: (Units=GPa)
#
#
# Indices 1 2 3 4 5 6 
#
# 1 64.8932 30.6054 51.0552 0.0000 0.0000 0.0000
# 2 30.6054 51.3293 53.3261 0.0000 0.0000 0.0000
# 3 51.0552 53.3261 144.5230 0.0000 0.0000 0.0000
# 4 0.0000 0.0000 0.0000 29.0691 0.0000 0.0000
# 5 0.0000 0.0000 0.0000 0.0000 36.2910 0.0000
# 6 0.0000 0.0000 0.0000 0.0000 0.0000 22.6635
#
#
#
# Elastic Compliance Matrix: (Units=1/GPa)
#
#
# Indices 1 2 3 4 5 6 
#
# 1 0.023539 -0.008751 -0.005087 0.000000 0.000000 0.000000
# 2 -0.008751 0.034846 -0.009766 0.000000 0.000000 0.000000
# 3 -0.005087 -0.009766 0.012320 0.000000 0.000000 0.000000
# 4 0.000000 0.000000 0.000000 0.034401 0.000000 0.000000
# 5 0.000000 0.000000 0.000000 0.000000 0.027555 0.000000
# 6 0.000000 0.000000 0.000000 0.000000 0.000000 0.044124
#
#
# Mechanical properties :
#
#
# Convention : Reuss Voigt Hill
#
# Bulk Modulus (GPa) = 42.55758 58.96875 50.76316
# Shear Modulus (GPa) = 21.56815 25.98864 23.77840
#
# Velocity S-wave (km/s) = 3.49771 3.83945 3.67255
# Velocity P-wave (km/s) = 6.36016 7.28722 6.83941
#
# Compressibility (1/GPa) = 0.02349758
#
# Stress axis : x y z
#
# Youngs Moduli (GPa) = 42.48267 28.69803 81.17047
#
# Poissons Ratio (x) = 0.25113 0.41289
# Poissons Ratio (y) = 0.37175 0.79271
# Poissons Ratio (z) = 0.21610 0.28027
#
# Static dielectric constant tensor:
#      x y z
#    x 3.296870 0.000000 0.000000 
#    y 0.000000 2.969870 0.000000 
#    z 0.000000 0.000000 3.897750 
# 
# 
# High freq. dielectric constant tensor:
#      x y z
#    x 1.686880 0.000000 0.000000 
#    y 0.000000 1.635740 0.000000 
#    z 0.000000 0.000000 1.703320 
# 
# From -- ./inp_files/73060.got.cif
#   From: 2010.03.12/outbox.cif.g09.slc.cpg/sg65_37_cif.got.tgz:73060.got - 2010.04.10 20:52:16.
