data_PCOD8267249
_publ_section_title
;
Structure prediction by ZEFSAII (Michael W. Deem and Ramdas Pophale) SiO2 
 PCOD8267249
Probable space group: C M M M
;
_chemical_formula_sum "Si O2"
_cell_formula_units_Z 128
_cell_length_a 18.475403
_cell_length_b 19.433940
_cell_length_c 20.384409
_cell_angle_alpha 90.000000
_cell_angle_beta 90.000000
_cell_angle_gamma 90.000000
_cell_volume 7319.019470
_symmetry_space_group_name_H-M "C M M M"
_symmetry_group_IT_number 65
_symmetry_cell_setting 'orthorhombic'
loop_
_space_group_symop_operation_xyz
x,y,z
-x,-y,z
x,-y,-z
-x,y,-z
-x,-y,-z
x,y,-z
-x,y,z
x,-y,z
1/2+x,1/2+y,z
1/2-x,1/2-y,z
1/2+x,1/2-y,-z
1/2-x,1/2+y,-z
1/2-x,1/2-y,-z
1/2+x,1/2+y,-z
1/2-x,1/2+y,z
1/2+x,1/2-y,z
loop_
_atom_site_type_symbol
_atom_site_label
_atom_site_fract_x
_atom_site_fract_y
_atom_site_fract_z
Si Si1 0.580856 0.647248 0.686153
Si Si2 0.418009 0.189903 0.674465
Si Si3 0.418732 0.659411 0.926908
Si Si4 0.325817 0.339444 0.193376
Si Si5 0.831641 0.079078 0.574921
Si Si6 0.206532 0.316627 0.424438
Si Si7 0.163665 0.675639 0.197016
Si Si8 0.081214 0.677011 0.071604
O O1 0.500000 0.621237 0.701368
O O2 0.581681 0.728546 0.678717
O O3 0.632095 0.625556 0.746290
O O4 0.606396 0.612063 0.619283
O O5 0.500000 0.162263 0.664306
O O6 0.368013 0.169244 0.613277
O O7 0.385013 0.155578 0.740288
O O8 0.500000 0.633163 0.909808
O O9 0.360930 0.631084 0.873958
O O10 0.418973 0.741197 0.924321
O O11 0.396381 0.634164 0.000000
O O12 0.242071 0.360177 0.201071
O O13 0.331461 0.257543 0.194328
O O14 0.857624 0.088081 0.500000
O O15 0.755417 0.116535 0.586089
O O16 0.819933 0.000000 0.593708
O O17 0.186614 0.303252 0.500000
O O18 0.250000 0.250000 0.396183
O O19 0.128676 0.645840 0.130329
O O20 0.000000 0.648995 0.079872
O O21 0.112087 0.654327 0.000000
#
# Coordination Sequence:
#
# PCOD8267249 Si02
#       8
#    16  16  16  16  16  16  16  16
#     4  10  19  30  45  66  94 126 159 195 236 285
#     4  10  19  29  46  70  96 124 157 198 240 283
#     4   8  13  21  32  47  72 107 148 194 240 283
#     4   9  16  24  36  55  79 114 152 195 238 283
#     4  10  21  36  53  73  97 127 159 192 238 289
#     4  10  19  33  53  73  96 124 156 196 235 279
#     4   9  16  23  35  54  81 113 152 197 238 279
#     4   8  13  21  31  44  69 108 151 190 231 283
#
# _framework density 17.488682000000001
#
# number of rings (size 3 to 8) (size 9 to 14) (size 15 to 20)
#    0.000    2.750    1.250    2.250    1.750    4.250 
#    0.000    4.375    0.000    0.375    0.000    1.750 
#    0.000    0.500    0.000    2.875    0.000    3.875 
#
# Total GULP energy -793317.060571 kJ/mol
# GULP energy per Si atom -12395.579071 kJ/mol
# Density = 1.744888 g / cm^3
# Si number density = 17.488682 Si / 1000 Ang^3
#
#
#
# Elastic Constant Matrix: (Units=GPa)
#
#
# Indices 1 2 3 4 5 6 
#
# 1 152.7729 21.3437 89.9149 0.0000 0.0000 0.0000
# 2 21.3437 18.6544 18.1355 0.0000 0.0000 0.0000
# 3 89.9149 18.1355 134.0605 0.0000 0.0000 0.0000
# 4 0.0000 0.0000 0.0000 5.8931 0.0000 0.0000
# 5 0.0000 0.0000 0.0000 0.0000 37.5940 0.0000
# 6 0.0000 0.0000 0.0000 0.0000 0.0000 6.8183
#
#
#
# Elastic Compliance Matrix: (Units=1/GPa)
#
#
# Indices 1 2 3 4 5 6 
#
# 1 0.011459 -0.006493 -0.006807 0.000000 0.000000 0.000000
# 2 -0.006493 0.065404 -0.004493 0.000000 0.000000 0.000000
# 3 -0.006807 -0.004493 0.012633 0.000000 0.000000 0.000000
# 4 0.000000 0.000000 0.000000 0.169689 0.000000 0.000000
# 5 0.000000 0.000000 0.000000 0.000000 0.026600 0.000000
# 6 0.000000 0.000000 0.000000 0.000000 0.000000 0.146664
#
#
# Mechanical properties :
#
#
# Convention : Reuss Voigt Hill
#
# Bulk Modulus (GPa) = 18.54967 62.69733 40.62350
# Shear Modulus (GPa) = 10.28796 21.80066 16.04431
#
# Velocity S-wave (km/s) = 2.42805 3.53449 3.03217
# Velocity P-wave (km/s) = 4.30003 7.25155 5.96134
#
# Compressibility (1/GPa) = 0.05390931
#
# Stress axis : x y z
#
# Youngs Moduli (GPa) = 87.26479 15.28961 79.15869
#
# Poissons Ratio (x) = 0.09928 0.53887
# Poissons Ratio (y) = 0.56664 0.35563
# Poissons Ratio (z) = 0.59405 0.06869
#
# Static dielectric constant tensor:
#      x y z
#    x 3.465370 0.000000 0.000000 
#    y 0.000000 2.588670 0.000000 
#    z 0.000000 0.000000 3.544670 
# 
# 
# High freq. dielectric constant tensor:
#      x y z
#    x 1.680400 0.000000 0.000000 
#    y 0.000000 1.591100 0.000000 
#    z 0.000000 0.000000 1.693800 
# 
# From -- ./inp_files/64165.got.cif
#   From: 2010.03.12/outbox.cif.g09.slc.cpg/sg65_33_cif.got.tgz:64165.got - 2010.04.10 20:52:16.
