data_PCOD8267342
_publ_section_title
;
Structure prediction by ZEFSAII (Michael W. Deem and Ramdas Pophale) SiO2 
 PCOD8267342
Probable space group: C M M M
;
_chemical_formula_sum "Si O2"
_cell_formula_units_Z 104
_cell_length_a 27.134750
_cell_length_b 9.034299
_cell_length_c 26.666973
_cell_angle_alpha 90.000000
_cell_angle_beta 90.000000
_cell_angle_gamma 90.000000
_cell_volume 6537.233623
_symmetry_space_group_name_H-M "C M M M"
_symmetry_group_IT_number 65
_symmetry_cell_setting 'orthorhombic'
loop_
_space_group_symop_operation_xyz
x,y,z
-x,-y,z
x,-y,-z
-x,y,-z
-x,-y,-z
x,y,-z
-x,y,z
x,-y,z
1/2+x,1/2+y,z
1/2-x,1/2-y,z
1/2+x,1/2-y,-z
1/2-x,1/2+y,-z
1/2-x,1/2-y,-z
1/2+x,1/2+y,-z
1/2-x,1/2+y,z
1/2+x,1/2-y,z
loop_
_atom_site_type_symbol
_atom_site_label
_atom_site_fract_x
_atom_site_fract_y
_atom_site_fract_z
Si Si1 0.109496 0.173512 0.748239
Si Si2 0.558723 0.829659 0.838591
Si Si3 0.698066 0.825395 0.700735
Si Si4 0.856877 0.673225 0.599942
Si Si5 0.802574 0.324878 0.500000
Si Si6 0.944545 0.826445 0.647058
Si Si7 0.944982 0.324556 0.946992
O O1 0.084044 0.221658 0.799401
O O2 0.160421 0.261738 0.741819
O O3 0.072827 0.215217 0.702955
O O4 0.120980 0.000000 0.749603
O O5 0.500000 0.810611 0.836399
O O6 0.579270 0.777013 0.893819
O O7 0.573084 0.000000 0.827227
O O8 0.750000 0.750000 0.710222
O O9 0.679354 0.782160 0.645239
O O10 0.703009 0.000000 0.707688
O O11 0.866761 0.500000 0.598974
O O12 0.832409 0.729148 0.548663
O O13 0.909744 0.750605 0.605884
O O14 0.794874 0.500000 0.500000
O O15 0.750000 0.250000 0.500000
O O16 0.000000 0.766591 0.640017
O O17 0.941927 0.000000 0.638060
O O18 0.948206 0.500000 0.945364
O O19 0.000000 0.258940 0.948672
O O20 0.918146 0.274935 0.000000
#
# Coordination Sequence:
#
# PCOD8267342 Si02
#       7
#    16  16  16  16   8  16  16
#     4  10  19  30  44  63  88 117 148 182 220 261
#     4   9  16  25  39  61  88 117 150 187 222 256
#     4  10  19  32  49  68  89 113 142 175 215 261
#     4   9  19  33  49  70  93 116 143 175 211 257
#     4  10  20  34  51  72  95 115 140 175 217 262
#     4   9  18  32  48  65  87 117 152 185 215 252
#     4   7  10  18  33  53  78 110 147 183 217 253
#
# _framework density 15.908868999999999
#
# number of rings (size 3 to 8) (size 9 to 14) (size 15 to 20)
#    0.000    2.923    0.000    3.231    0.000    3.077 
#    0.000    0.385    0.000    2.769    0.000    2.154 
#    0.000    0.615    0.000    1.692    0.000    2.462 
#
# Total GULP energy -644430.667337 kJ/mol
# GULP energy per Si atom -12392.897449 kJ/mol
# Density = 1.587266 g / cm^3
# Si number density = 15.908869 Si / 1000 Ang^3
#
#
#
# Elastic Constant Matrix: (Units=GPa)
#
#
# Indices 1 2 3 4 5 6 
#
# 1 106.8728 36.7736 49.8253 0.0000 0.0000 0.0000
# 2 36.7736 43.6410 30.9482 0.0000 0.0000 0.0000
# 3 49.8253 30.9482 120.6516 0.0000 0.0000 0.0000
# 4 0.0000 0.0000 0.0000 17.6006 0.0000 0.0000
# 5 0.0000 0.0000 0.0000 0.0000 13.5204 0.0000
# 6 0.0000 0.0000 0.0000 0.0000 0.0000 27.5150
#
#
#
# Elastic Compliance Matrix: (Units=1/GPa)
#
#
# Indices 1 2 3 4 5 6 
#
# 1 0.014251 -0.009577 -0.003429 0.000000 0.000000 0.000000
# 2 -0.009577 0.034445 -0.004881 0.000000 0.000000 0.000000
# 3 -0.003429 -0.004881 0.010956 0.000000 0.000000 0.000000
# 4 0.000000 0.000000 0.000000 0.056816 0.000000 0.000000
# 5 0.000000 0.000000 0.000000 0.000000 0.073962 0.000000
# 6 0.000000 0.000000 0.000000 0.000000 0.000000 0.036344
#
#
# Mechanical properties :
#
#
# Convention : Reuss Voigt Hill
#
# Bulk Modulus (GPa) = 41.87593 56.25108 49.06351
# Shear Modulus (GPa) = 18.48389 21.96842 20.22615
#
# Velocity S-wave (km/s) = 3.41231 3.72007 3.56950
# Velocity P-wave (km/s) = 6.47338 7.34077 6.92068
#
# Compressibility (1/GPa) = 0.02388006
#
# Stress axis : x y z
#
# Youngs Moduli (GPa) = 70.17259 29.03175 91.27331
#
# Poissons Ratio (x) = 0.27803 0.31293
# Poissons Ratio (y) = 0.67203 0.44547
# Poissons Ratio (z) = 0.24059 0.14169
#
# Static dielectric constant tensor:
#      x y z
#    x 2.868020 0.000000 0.000000 
#    y 0.000000 2.866410 0.000000 
#    z 0.000000 0.000000 3.349140 
# 
# 
# High freq. dielectric constant tensor:
#      x y z
#    x 1.583230 0.000000 0.000000 
#    y 0.000000 1.600360 0.000000 
#    z 0.000000 0.000000 1.613840 
# 
# From -- ./inp_files/73795.got.cif
#   From: 2010.03.12/outbox.cif.g09.slc.cpg/sg65_37_cif.got.tgz:73795.got - 2010.04.10 20:52:16.
