data_PCOD8267403
_publ_section_title
;
Structure prediction by ZEFSAII (Michael W. Deem and Ramdas Pophale) SiO2 
 PCOD8267403
Probable space group: C M M M
;
_chemical_formula_sum "Si O2"
_cell_formula_units_Z 104
_cell_length_a 8.920430
_cell_length_b 27.081401
_cell_length_c 26.234448
_cell_angle_alpha 90.000000
_cell_angle_beta 90.000000
_cell_angle_gamma 90.000000
_cell_volume 6337.658708
_symmetry_space_group_name_H-M "C M M M"
_symmetry_group_IT_number 65
_symmetry_cell_setting 'orthorhombic'
loop_
_space_group_symop_operation_xyz
x,y,z
-x,-y,z
x,-y,-z
-x,y,-z
-x,-y,-z
x,y,-z
-x,y,z
x,-y,z
1/2+x,1/2+y,z
1/2-x,1/2-y,z
1/2+x,1/2-y,-z
1/2-x,1/2+y,-z
1/2-x,1/2-y,-z
1/2+x,1/2+y,-z
1/2-x,1/2+y,z
1/2+x,1/2-y,z
loop_
_atom_site_type_symbol
_atom_site_label
_atom_site_fract_x
_atom_site_fract_y
_atom_site_fract_z
Si Si1 0.324778 0.698217 0.058312
Si Si2 0.673592 0.602061 0.698044
Si Si3 0.324917 0.149372 0.851741
Si Si4 0.331541 0.441386 0.500000
Si Si5 0.828980 0.444799 0.790098
Si Si6 0.676519 0.943249 0.602460
Si Si7 0.324371 0.699922 0.757723
O O1 0.500000 0.702434 0.069278
O O2 0.250000 0.750000 0.072572
O O3 0.251948 0.656162 0.093447
O O4 0.291418 0.683615 0.000000
O O5 0.500000 0.593373 0.686190
O O6 0.721884 0.564455 0.742266
O O7 0.767341 0.591599 0.647570
O O8 0.707136 0.657897 0.715751
O O9 0.500000 0.161336 0.855356
O O10 0.293267 0.092800 0.835845
O O11 0.251678 0.186405 0.811245
O O12 0.329886 0.500000 0.500000
O O13 0.500000 0.420370 0.500000
O O14 0.247401 0.422360 0.550366
O O15 0.801062 0.500000 0.810834
O O16 0.000000 0.437686 0.771218
O O17 0.500000 0.938901 0.597497
O O18 0.725280 0.000000 0.612841
O O19 0.500000 0.707248 0.767086
O O20 0.250000 0.750000 0.736709
#
# Coordination Sequence:
#
# PCOD8267403 Si02
#       7
#    16  16  16   8  16  16  16
#     4  10  20  33  49  69  93 119 148 184 226 272
#     4  10  20  31  45  68  94 121 154 190 228 269
#     4  10  19  31  49  70  93 121 151 185 225 269
#     4   9  17  29  45  65  90 121 156 193 231 269
#     4   9  18  32  48  67  92 122 155 188 223 265
#     4  10  19  30  45  66  94 126 157 189 226 270
#     4  10  20  33  48  67  93 122 153 188 226 271
#
# _framework density 16.409846000000002
#
# number of rings (size 3 to 8) (size 9 to 14) (size 15 to 20)
#    0.000    2.231    0.000    3.462    0.000    7.385 
#    0.000    0.000    0.000    0.462    0.000    3.769 
#    0.000    0.000    0.000    0.000    0.000    0.000 
#
# Total GULP energy -644947.544117 kJ/mol
# GULP energy per Si atom -12402.837387 kJ/mol
# Density = 1.637250 g / cm^3
# Si number density = 16.409846 Si / 1000 Ang^3
#
#
#
# Elastic Constant Matrix: (Units=GPa)
#
#
# Indices 1 2 3 4 5 6 
#
# 1 99.8638 44.7904 59.7843 0.0000 0.0000 0.0000
# 2 44.7904 92.4322 51.5965 0.0000 0.0000 0.0000
# 3 59.7843 51.5965 118.5333 0.0000 0.0000 0.0000
# 4 0.0000 0.0000 0.0000 21.3879 0.0000 0.0000
# 5 0.0000 0.0000 0.0000 0.0000 33.8877 0.0000
# 6 0.0000 0.0000 0.0000 0.0000 0.0000 23.8028
#
#
#
# Elastic Compliance Matrix: (Units=1/GPa)
#
#
# Indices 1 2 3 4 5 6 
#
# 1 0.015461 -0.004147 -0.005993 0.000000 0.000000 0.000000
# 2 -0.004147 0.015403 -0.004613 0.000000 0.000000 0.000000
# 3 -0.005993 -0.004613 0.013467 0.000000 0.000000 0.000000
# 4 0.000000 0.000000 0.000000 0.046755 0.000000 0.000000
# 5 0.000000 0.000000 0.000000 0.000000 0.029509 0.000000
# 6 0.000000 0.000000 0.000000 0.000000 0.000000 0.042012
#
#
# Mechanical properties :
#
#
# Convention : Reuss Voigt Hill
#
# Bulk Modulus (GPa) = 67.45179 69.24130 68.34654
# Shear Modulus (GPa) = 25.37330 26.12620 25.74975
#
# Velocity S-wave (km/s) = 3.93647 3.99445 3.96557
# Velocity P-wave (km/s) = 7.86478 7.97250 7.91882
#
# Compressibility (1/GPa) = 0.01482540
#
# Stress axis : x y z
#
# Youngs Moduli (GPa) = 64.67723 64.92047 74.25335
#
# Poissons Ratio (x) = 0.26921 0.44501
# Poissons Ratio (y) = 0.26820 0.34257
# Poissons Ratio (z) = 0.38762 0.29951
#
# Static dielectric constant tensor:
#      x y z
#    x 3.254350 0.000000 0.000000 
#    y 0.000000 2.986290 0.000000 
#    z 0.000000 0.000000 3.052540 
# 
# 
# High freq. dielectric constant tensor:
#      x y z
#    x 1.650900 0.000000 0.000000 
#    y 0.000000 1.608530 0.000000 
#    z 0.000000 0.000000 1.622810 
# 
# From -- ./inp_files/68267.got.cif
#   From: 2010.03.12/outbox.cif.g09.slc.cpg/sg65_35_cif.got.tgz:68267.got - 2010.04.10 20:52:16.
