data_PCOD8267452
_publ_section_title
;
Structure prediction by ZEFSAII (Michael W. Deem and Ramdas Pophale) SiO2 
 PCOD8267452
Probable space group: C M M M
;
_chemical_formula_sum "Si O2"
_cell_formula_units_Z 120
_cell_length_a 8.061968
_cell_length_b 28.120282
_cell_length_c 28.600040
_cell_angle_alpha 90.000000
_cell_angle_beta 90.000000
_cell_angle_gamma 90.000000
_cell_volume 6483.766738
_symmetry_space_group_name_H-M "C M M M"
_symmetry_group_IT_number 65
_symmetry_cell_setting 'orthorhombic'
loop_
_space_group_symop_operation_xyz
x,y,z
-x,-y,z
x,-y,-z
-x,y,-z
-x,-y,-z
x,y,-z
-x,y,z
x,-y,z
1/2+x,1/2+y,z
1/2-x,1/2-y,z
1/2+x,1/2-y,-z
1/2-x,1/2+y,-z
1/2-x,1/2-y,-z
1/2+x,1/2+y,-z
1/2-x,1/2+y,z
1/2+x,1/2-y,z
loop_
_atom_site_type_symbol
_atom_site_label
_atom_site_fract_x
_atom_site_fract_y
_atom_site_fract_z
Si Si1 0.195570 0.053003 0.139196
Si Si2 0.695566 0.801985 0.720691
Si Si3 0.303584 0.197524 0.384636
Si Si4 0.196272 0.360818 0.193639
Si Si5 0.805784 0.889912 0.051260
Si Si6 0.195019 0.303673 0.895399
Si Si7 0.000000 0.447136 0.444511
Si Si8 0.187066 0.113646 0.445546
O O1 0.241163 0.085626 0.183828
O O2 0.272323 0.076176 0.091643
O O3 0.000000 0.050152 0.134654
O O4 0.270070 0.000000 0.146060
O O5 0.500000 0.803359 0.720956
O O6 0.750000 0.750000 0.737865
O O7 0.759156 0.812684 0.668325
O O8 0.766712 0.841553 0.756719
O O9 0.500000 0.190432 0.390173
O O10 0.250000 0.250000 0.399752
O O11 0.204581 0.162831 0.418464
O O12 0.262718 0.325101 0.153517
O O13 0.000000 0.361222 0.194592
O O14 0.769730 0.834794 0.062535
O O15 0.000000 0.898471 0.049669
O O16 0.729937 0.902162 0.000000
O O17 0.250000 0.250000 0.901667
O O18 0.000000 0.307408 0.897404
O O19 0.830461 0.421947 0.426837
O O20 0.000000 0.500000 0.423108
O O21 0.000000 0.449222 0.500000
O O22 0.215779 0.124133 0.500000
O O23 0.000000 0.093017 0.437226
#
# Coordination Sequence:
#
# PCOD8267452 Si02
#       8
#    16  16  16  16  16  16   8  16
#     4   9  18  32  50  72  94 117 151 195 241 288
#     4   9  18  31  49  74 102 131 166 204 246 296
#     4  10  19  32  50  74 107 144 181 220 263 318
#     4   9  18  32  49  71  96 123 157 195 240 291
#     4   9  18  32  48  66  90 120 153 189 232 283
#     4  10  19  30  46  67  93 123 154 191 231 279
#     4   9  18  34  56  80 106 138 180 232 283 325
#     4  10  20  34  53  79 111 146 186 230 277 329
#
# _framework density 18.507759
#
# number of rings (size 3 to 8) (size 9 to 14) (size 15 to 20)
#    0.000    2.600    0.667    1.200    0.000    3.200 
#    0.000    2.667    0.000    0.800    0.000    3.733 
#    0.000    0.000    0.000    0.000    0.000    0.000 
#
# Total GULP energy -743743.646031 kJ/mol
# GULP energy per Si atom -12395.727434 kJ/mol
# Density = 1.846563 g / cm^3
# Si number density = 18.507759 Si / 1000 Ang^3
#
#
#
# Elastic Constant Matrix: (Units=GPa)
#
#
# Indices 1 2 3 4 5 6 
#
# 1 54.4221 26.3164 26.2381 0.0000 0.0000 0.0000
# 2 26.3164 148.1512 59.2745 0.0000 0.0000 0.0000
# 3 26.2381 59.2745 78.4493 0.0000 0.0000 0.0000
# 4 0.0000 0.0000 0.0000 23.2756 0.0000 0.0000
# 5 0.0000 0.0000 0.0000 0.0000 18.0000 0.0000
# 6 0.0000 0.0000 0.0000 0.0000 0.0000 24.6889
#
#
#
# Elastic Compliance Matrix: (Units=1/GPa)
#
#
# Indices 1 2 3 4 5 6 
#
# 1 0.022105 -0.001388 -0.006344 0.000000 0.000000 0.000000
# 2 -0.001388 0.009762 -0.006911 0.000000 0.000000 0.000000
# 3 -0.006344 -0.006911 0.020091 0.000000 0.000000 0.000000
# 4 0.000000 0.000000 0.000000 0.042963 0.000000 0.000000
# 5 0.000000 0.000000 0.000000 0.000000 0.055556 0.000000
# 6 0.000000 0.000000 0.000000 0.000000 0.000000 0.040504
#
#
# Mechanical properties :
#
#
# Convention : Reuss Voigt Hill
#
# Bulk Modulus (GPa) = 44.11146 56.07565 50.09355
# Shear Modulus (GPa) = 21.94667 24.47247 23.20957
#
# Velocity S-wave (km/s) = 3.44729 3.64026 3.54509
# Velocity P-wave (km/s) = 6.30324 6.93058 6.62434
#
# Compressibility (1/GPa) = 0.02266985
#
# Stress axis : x y z
#
# Youngs Moduli (GPa) = 45.23882 102.44158 49.77332
#
# Poissons Ratio (x) = 0.14221 0.31578
# Poissons Ratio (y) = 0.06280 0.34400
# Poissons Ratio (z) = 0.28701 0.70801
#
# Static dielectric constant tensor:
#      x y z
#    x 3.370670 0.000000 0.000000 
#    y 0.000000 3.516410 0.000000 
#    z 0.000000 0.000000 3.611370 
# 
# 
# High freq. dielectric constant tensor:
#      x y z
#    x 1.715290 0.000000 0.000000 
#    y 0.000000 1.707450 0.000000 
#    z 0.000000 0.000000 1.703260 
# 
# From -- ./inp_files/73905.got.cif
#   From: 2010.03.12/outbox.cif.g09.slc.cpg/sg65_37_cif.got.tgz:73905.got - 2010.04.10 20:52:16.
