data_PCOD8267365
_publ_section_title
;
Structure prediction by ZEFSAII (Michael W. Deem and Ramdas Pophale) SiO2 
 PCOD8267365
Probable space group: C M M M
;
_chemical_formula_sum "Si O2"
_cell_formula_units_Z 80
_cell_length_a 9.664211
_cell_length_b 27.432761
_cell_length_c 17.789570
_cell_angle_alpha 90.000000
_cell_angle_beta 90.000000
_cell_angle_gamma 90.000000
_cell_volume 4716.299473
_symmetry_space_group_name_H-M "C M M M"
_symmetry_group_IT_number 65
_symmetry_cell_setting 'orthorhombic'
loop_
_space_group_symop_operation_xyz
x,y,z
-x,-y,z
x,-y,-z
-x,y,-z
-x,-y,-z
x,y,-z
-x,y,z
x,-y,z
1/2+x,1/2+y,z
1/2-x,1/2-y,z
1/2+x,1/2-y,-z
1/2-x,1/2+y,-z
1/2-x,1/2-y,-z
1/2+x,1/2+y,-z
1/2-x,1/2+y,z
1/2+x,1/2-y,z
loop_
_atom_site_type_symbol
_atom_site_label
_atom_site_fract_x
_atom_site_fract_y
_atom_site_fract_z
Si Si1 0.161417 0.100843 0.347565
Si Si2 0.250000 0.750000 0.302077
Si Si3 0.339422 0.201248 0.085331
Si Si4 0.349909 0.177894 0.417183
Si Si5 0.156276 0.161641 0.206503
Si Si6 0.335856 0.500000 0.585743
O O1 0.233426 0.137952 0.403858
O O2 0.193232 0.116150 0.261177
O O3 0.000000 0.105416 0.364194
O O4 0.216377 0.046779 0.366860
O O5 0.353406 0.779343 0.355745
O O6 0.163440 0.787161 0.250788
O O7 0.500000 0.210442 0.108573
O O8 0.250000 0.250000 0.094650
O O9 0.268470 0.160814 0.138948
O O10 0.331777 0.182065 0.000000
O O11 0.325444 0.200396 0.500000
O O12 0.500000 0.152215 0.412464
O O13 0.000000 0.156074 0.174846
O O14 0.500000 0.500000 0.581803
O O15 0.276863 0.500000 0.500000
#
# Coordination Sequence:
#
# PCOD8267365 Si02
#       6
#    16   8  16  16  16   8
#     4   9  19  33  50  72  94 121 160 200 244 292
#     4  10  19  30  45  62  88 126 164 190 229 280
#     4  10  20  32  48  70  97 129 162 194 230 275
#     4  10  20  32  45  64  91 123 160 201 242 283
#     4  10  19  30  46  69  96 125 159 197 235 278
#     4   9  16  30  53  75  96 125 160 202 249 295
#
# _framework density 16.962451999999999
#
# number of rings (size 3 to 8) (size 9 to 14) (size 15 to 20)
#    0.000    2.300    1.000    2.100    0.000    6.400 
#    0.000    0.500    0.000    1.800    0.000    0.700 
#    0.000    5.600    0.000    0.000    0.000    0.000 
#
# Total GULP energy -495754.786290 kJ/mol
# GULP energy per Si atom -12393.869657 kJ/mol
# Density = 1.692384 g / cm^3
# Si number density = 16.962452 Si / 1000 Ang^3
#
#
#
# Elastic Constant Matrix: (Units=GPa)
#
#
# Indices 1 2 3 4 5 6 
#
# 1 89.3876 25.5264 52.9785 0.0000 0.0000 0.0000
# 2 25.5264 89.2953 44.6229 0.0000 0.0000 0.0000
# 3 52.9785 44.6229 112.2295 0.0000 0.0000 0.0000
# 4 0.0000 0.0000 0.0000 19.9001 0.0000 0.0000
# 5 0.0000 0.0000 0.0000 0.0000 22.1371 0.0000
# 6 0.0000 0.0000 0.0000 0.0000 0.0000 13.1283
#
#
#
# Elastic Compliance Matrix: (Units=1/GPa)
#
#
# Indices 1 2 3 4 5 6 
#
# 1 0.015600 -0.000973 -0.006977 0.000000 0.000000 0.000000
# 2 -0.000973 0.014036 -0.005122 0.000000 0.000000 0.000000
# 3 -0.006977 -0.005122 0.014240 0.000000 0.000000 0.000000
# 4 0.000000 0.000000 0.000000 0.050251 0.000000 0.000000
# 5 0.000000 0.000000 0.000000 0.000000 0.045173 0.000000
# 6 0.000000 0.000000 0.000000 0.000000 0.000000 0.076171
#
#
# Mechanical properties :
#
#
# Convention : Reuss Voigt Hill
#
# Bulk Modulus (GPa) = 56.39107 59.68533 58.03820
# Shear Modulus (GPa) = 20.19977 22.21874 21.20925
#
# Velocity S-wave (km/s) = 3.45462 3.62315 3.53989
# Velocity P-wave (km/s) = 7.01636 7.26403 7.14127
#
# Compressibility (1/GPa) = 0.01773330
#
# Stress axis : x y z
#
# Youngs Moduli (GPa) = 64.10056 71.24378 70.22236
#
# Poissons Ratio (x) = 0.06931 0.48998
# Poissons Ratio (y) = 0.06236 0.35966
# Poissons Ratio (z) = 0.44726 0.36489
#
# Static dielectric constant tensor:
#      x y z
#    x 3.145270 0.000000 0.000000 
#    y 0.000000 3.098020 0.000000 
#    z 0.000000 0.000000 3.373390 
# 
# 
# High freq. dielectric constant tensor:
#      x y z
#    x 1.654020 0.000000 0.000000 
#    y 0.000000 1.612760 0.000000 
#    z 0.000000 0.000000 1.657430 
# 
# From -- ./inp_files/50150.got.cif
#   From: 2010.03.12/outbox.cif.g09.slc.cpg/sg65_26_cif.got.tgz:50150.got - 2010.04.10 20:52:16.
