data_PCOD8267027
_publ_section_title
;
Structure prediction by ZEFSAII (Michael W. Deem and Ramdas Pophale) SiO2 
 PCOD8267027
Probable space group: C M M M
;
_chemical_formula_sum "Si O2"
_cell_formula_units_Z 104
_cell_length_a 9.180835
_cell_length_b 27.191442
_cell_length_c 26.307181
_cell_angle_alpha 90.000000
_cell_angle_beta 90.000000
_cell_angle_gamma 90.000000
_cell_volume 6567.328411
_symmetry_space_group_name_H-M "C M M M"
_symmetry_group_IT_number 65
_symmetry_cell_setting 'orthorhombic'
loop_
_space_group_symop_operation_xyz
x,y,z
-x,-y,z
x,-y,-z
-x,y,-z
-x,-y,-z
x,y,-z
-x,y,z
x,-y,z
1/2+x,1/2+y,z
1/2-x,1/2-y,z
1/2+x,1/2-y,-z
1/2-x,1/2+y,-z
1/2-x,1/2-y,-z
1/2+x,1/2+y,-z
1/2-x,1/2+y,z
1/2+x,1/2-y,z
loop_
_atom_site_type_symbol
_atom_site_label
_atom_site_fract_x
_atom_site_fract_y
_atom_site_fract_z
Si Si1 0.674377 0.802728 0.000000
Si Si2 0.670291 0.398052 0.252340
Si Si3 0.166931 0.798628 0.198849
Si Si4 0.329398 0.942945 0.653633
Si Si5 0.828454 0.849766 0.905854
Si Si6 0.672624 0.554275 0.149588
Si Si7 0.336367 0.558370 0.555784
O O1 0.750000 0.750000 0.000000
O O2 0.725960 0.832806 0.048833
O O3 0.500000 0.796782 0.000000
O O4 0.500000 0.408000 0.261802
O O5 0.700338 0.341132 0.239534
O O6 0.758651 0.411222 0.302159
O O7 0.730437 0.430778 0.205383
O O8 0.250000 0.750000 0.215357
O O9 0.209723 0.816066 0.142369
O O10 0.000000 0.784405 0.199481
O O11 0.500000 0.934625 0.654531
O O12 0.270298 0.922263 0.599827
O O13 0.287248 0.000000 0.661239
O O14 0.782034 0.906044 0.893044
O O15 0.000000 0.846077 0.920112
O O16 0.500000 0.554913 0.153211
O O17 0.732178 0.500000 0.134858
O O18 0.285795 0.577915 0.500000
O O19 0.500000 0.576883 0.567369
O O20 0.333011 0.500000 0.554922
#
# Coordination Sequence:
#
# PCOD8267027 Si02
#       7
#     8  16  16  16  16  16  16
#     4  12  24  36  51  70  91 115 144 179 223 268
#     4   9  17  29  45  65  88 115 149 183 214 255
#     4   9  18  31  48  69  90 114 143 177 219 264
#     4  10  19  27  37  59  90 120 149 182 221 260
#     4   9  18  33  51  72  95 116 144 180 216 258
#     4   8  14  27  49  72  91 116 151 185 213 246
#     4   8  14  25  40  56  76 109 152 189 220 257
#
# _framework density 15.835967
#
# number of rings (size 3 to 8) (size 9 to 14) (size 15 to 20)
#    0.000    2.923    0.000    4.385    0.000    4.308 
#    0.000    4.231    0.000    3.692    0.000    0.000 
#    0.000    0.615    0.000    2.000    0.000    2.462 
#
# Total GULP energy -644542.432483 kJ/mol
# GULP energy per Si atom -12395.046779 kJ/mol
# Density = 1.579992 g / cm^3
# Si number density = 15.835967 Si / 1000 Ang^3
#
#
#
# Elastic Constant Matrix: (Units=GPa)
#
#
# Indices 1 2 3 4 5 6 
#
# 1 71.3656 40.9673 60.6220 0.0000 0.0000 0.0000
# 2 40.9673 93.4683 50.0968 0.0000 0.0000 0.0000
# 3 60.6220 50.0968 126.5438 0.0000 0.0000 0.0000
# 4 0.0000 0.0000 0.0000 11.5814 0.0000 0.0000
# 5 0.0000 0.0000 0.0000 0.0000 19.5426 0.0000
# 6 0.0000 0.0000 0.0000 0.0000 0.0000 21.5597
#
#
#
# Elastic Compliance Matrix: (Units=1/GPa)
#
#
# Indices 1 2 3 4 5 6 
#
# 1 0.026032 -0.005999 -0.010096 0.000000 0.000000 0.000000
# 2 -0.005999 0.014963 -0.003050 0.000000 0.000000 0.000000
# 3 -0.010096 -0.003050 0.013946 0.000000 0.000000 0.000000
# 4 0.000000 0.000000 0.000000 0.086345 0.000000 0.000000
# 5 0.000000 0.000000 0.000000 0.000000 0.051170 0.000000
# 6 0.000000 0.000000 0.000000 0.000000 0.000000 0.046383
#
#
# Mechanical properties :
#
#
# Convention : Reuss Voigt Hill
#
# Bulk Modulus (GPa) = 60.05272 66.08334 63.06803
# Shear Modulus (GPa) = 17.68789 19.84952 18.76870
#
# Velocity S-wave (km/s) = 3.34570 3.54424 3.44640
# Velocity P-wave (km/s) = 7.27523 7.65306 7.46654
#
# Compressibility (1/GPa) = 0.01665204
#
# Stress axis : x y z
#
# Youngs Moduli (GPa) = 38.41409 66.83318 71.70287
#
# Poissons Ratio (x) = 0.40091 0.72393
# Poissons Ratio (y) = 0.23043 0.21868
# Poissons Ratio (z) = 0.38784 0.20383
#
# Static dielectric constant tensor:
#      x y z
#    x 2.855170 0.000000 0.000000 
#    y 0.000000 3.039660 0.000000 
#    z 0.000000 0.000000 3.113640 
# 
# 
# High freq. dielectric constant tensor:
#      x y z
#    x 1.593880 0.000000 0.000000 
#    y 0.000000 1.584810 0.000000 
#    z 0.000000 0.000000 1.606090 
# 
# From -- ./inp_files/73772.got.cif
#   From: 2010.03.12/outbox.cif.g09.slc.cpg/sg65_37_cif.got.tgz:73772.got - 2010.04.10 20:52:16.
