data_PCOD8267377
_publ_section_title
;
Structure prediction by ZEFSAII (Michael W. Deem and Ramdas Pophale) SiO2 
 PCOD8267377
Probable space group: C M M M
;
_chemical_formula_sum "Si O2"
_cell_formula_units_Z 88
_cell_length_a 27.039822
_cell_length_b 9.195050
_cell_length_c 21.493330
_cell_angle_alpha 90.000000
_cell_angle_beta 90.000000
_cell_angle_gamma 90.000000
_cell_volume 5343.940700
_symmetry_space_group_name_H-M "C M M M"
_symmetry_group_IT_number 65
_symmetry_cell_setting 'orthorhombic'
loop_
_space_group_symop_operation_xyz
x,y,z
-x,-y,z
x,-y,-z
-x,y,-z
-x,-y,-z
x,y,-z
-x,y,z
x,-y,z
1/2+x,1/2+y,z
1/2-x,1/2-y,z
1/2+x,1/2-y,-z
1/2-x,1/2+y,-z
1/2-x,1/2-y,-z
1/2+x,1/2+y,-z
1/2-x,1/2+y,z
1/2+x,1/2-y,z
loop_
_atom_site_type_symbol
_atom_site_label
_atom_site_fract_x
_atom_site_fract_y
_atom_site_fract_z
Si Si1 0.698152 0.830524 0.500000
Si Si2 0.944971 0.332032 0.303917
Si Si3 0.444242 0.672727 0.932074
Si Si4 0.846970 0.669479 0.629912
Si Si5 0.701388 0.670759 0.741226
Si Si6 0.898216 0.170143 0.192906
O O1 0.750000 0.750000 0.500000
O O2 0.665386 0.786212 0.559500
O O3 0.710337 0.000000 0.500000
O O4 0.940693 0.500000 0.285880
O O5 0.904650 0.292806 0.356993
O O6 0.935255 0.244075 0.241162
O O7 0.000000 0.294204 0.329139
O O8 0.500000 0.728300 0.920054
O O9 0.443639 0.500000 0.932532
O O10 0.409086 0.730646 0.876592
O O11 0.425666 0.729655 0.000000
O O12 0.835899 0.500000 0.642655
O O13 0.812063 0.764570 0.674027
O O14 0.710924 0.500000 0.733849
O O15 0.750000 0.750000 0.767195
O O16 0.658432 0.705924 0.790722
O O17 0.909031 0.000000 0.197426
#
# Coordination Sequence:
#
# PCOD8267377 Si02
#       6
#     8  16  16  16  16  16
#     4  10  20  32  47  65  85 111 142 178 219 258
#     4   9  17  29  45  65  90 118 144 172 210 254
#     4   8  13  22  39  64  90 112 136 171 213 251
#     4   9  18  32  47  65  89 114 142 176 213 255
#     4  10  19  30  45  65  87 112 143 179 219 258
#     4   9  17  28  44  66  88 112 145 181 214 251
#
# _framework density 16.467248000000001
#
# number of rings (size 3 to 8) (size 9 to 14) (size 15 to 20)
#    0.000    2.909    0.000    2.182    0.000    4.000 
#    0.000    0.455    0.000    3.818    0.000    2.545 
#    0.000    6.545    0.000    0.000    0.000    0.545 
#
# Total GULP energy -545426.328990 kJ/mol
# GULP energy per Si atom -12396.052932 kJ/mol
# Density = 1.642977 g / cm^3
# Si number density = 16.467248 Si / 1000 Ang^3
#
#
#
# Elastic Constant Matrix: (Units=GPa)
#
#
# Indices 1 2 3 4 5 6 
#
# 1 123.0685 37.1526 74.6470 0.0000 0.0000 0.0000
# 2 37.1526 38.1934 33.7215 0.0000 0.0000 0.0000
# 3 74.6470 33.7215 150.5516 0.0000 0.0000 0.0000
# 4 0.0000 0.0000 0.0000 16.0570 0.0000 0.0000
# 5 0.0000 0.0000 0.0000 0.0000 21.8763 0.0000
# 6 0.0000 0.0000 0.0000 0.0000 0.0000 21.5935
#
#
#
# Elastic Compliance Matrix: (Units=1/GPa)
#
#
# Indices 1 2 3 4 5 6 
#
# 1 0.013806 -0.009207 -0.004783 0.000000 0.000000 0.000000
# 2 -0.009207 0.038776 -0.004120 0.000000 0.000000 0.000000
# 3 -0.004783 -0.004120 0.009937 0.000000 0.000000 0.000000
# 4 0.000000 0.000000 0.000000 0.062278 0.000000 0.000000
# 5 0.000000 0.000000 0.000000 0.000000 0.045712 0.000000
# 6 0.000000 0.000000 0.000000 0.000000 0.000000 0.046310
#
#
# Mechanical properties :
#
#
# Convention : Reuss Voigt Hill
#
# Bulk Modulus (GPa) = 38.02499 66.98399 52.50449
# Shear Modulus (GPa) = 19.09806 22.99152 21.04479
#
# Velocity S-wave (km/s) = 3.40922 3.74063 3.57876
# Velocity P-wave (km/s) = 6.21598 7.70855 7.00215
#
# Compressibility (1/GPa) = 0.02629849
#
# Stress axis : x y z
#
# Youngs Moduli (GPa) = 72.43104 25.78883 100.63587
#
# Poissons Ratio (x) = 0.23743 0.48137
# Poissons Ratio (y) = 0.66686 0.41466
# Poissons Ratio (z) = 0.34646 0.10626
#
# Static dielectric constant tensor:
#      x y z
#    x 3.267850 0.000000 0.000000 
#    y 0.000000 2.968800 0.000000 
#    z 0.000000 0.000000 3.311630 
# 
# 
# High freq. dielectric constant tensor:
#      x y z
#    x 1.633610 0.000000 0.000000 
#    y 0.000000 1.617550 0.000000 
#    z 0.000000 0.000000 1.624690 
# 
# From -- ./inp_files/66204.got.cif
#   From: 2010.03.12/outbox.cif.g09.slc.cpg/sg65_34_cif.got.tgz:66204.got - 2010.04.10 20:52:16.
