data_PCOD8267033
_publ_section_title
;
Structure prediction by ZEFSAII (Michael W. Deem and Ramdas Pophale) SiO2 
 PCOD8267033
Probable space group: C M M M
;
_chemical_formula_sum "Si O2"
_cell_formula_units_Z 120
_cell_length_a 23.088193
_cell_length_b 25.597318
_cell_length_c 13.343713
_cell_angle_alpha 90.000000
_cell_angle_beta 90.000000
_cell_angle_gamma 90.000000
_cell_volume 7886.078583
_symmetry_space_group_name_H-M "C M M M"
_symmetry_group_IT_number 65
_symmetry_cell_setting 'orthorhombic'
loop_
_space_group_symop_operation_xyz
x,y,z
-x,-y,z
x,-y,-z
-x,y,-z
-x,-y,-z
x,y,-z
-x,y,z
x,-y,z
1/2+x,1/2+y,z
1/2-x,1/2-y,z
1/2+x,1/2-y,-z
1/2-x,1/2+y,-z
1/2-x,1/2-y,-z
1/2+x,1/2+y,-z
1/2-x,1/2+y,z
1/2+x,1/2-y,z
loop_
_atom_site_type_symbol
_atom_site_label
_atom_site_fract_x
_atom_site_fract_y
_atom_site_fract_z
Si Si1 0.279947 0.059666 0.725296
Si Si2 0.435820 0.364343 0.380756
Si Si3 0.396803 0.941317 0.617243
Si Si4 0.431435 0.249048 0.610783
Si Si5 0.565223 0.000000 0.118542
Si Si6 0.164877 0.939041 0.383286
Si Si7 0.565742 0.845550 0.257369
Si Si8 0.641266 0.900966 0.882411
O O1 0.328782 0.065898 0.640242
O O2 0.220196 0.081005 0.679246
O O3 0.297518 0.092643 0.824878
O O4 0.271739 0.000000 0.758442
O O5 0.439012 0.364427 0.500000
O O6 0.500000 0.377586 0.337837
O O7 0.415540 0.306432 0.345770
O O8 0.390538 0.407400 0.341878
O O9 0.407193 0.934155 0.500000
O O10 0.433472 0.897271 0.673747
O O11 0.416853 0.000000 0.651185
O O12 0.404064 0.241169 0.500000
O O13 0.500000 0.243835 0.602194
O O14 0.407668 0.203896 0.683389
O O15 0.601103 0.050485 0.152910
O O16 0.500000 0.000000 0.163674
O O17 0.560870 0.000000 0.000000
O O18 0.176283 0.927305 0.500000
O O19 0.152699 0.000000 0.365907
O O20 0.500000 0.835348 0.222537
O O21 0.605985 0.850964 0.158352
O O22 0.652575 0.896859 0.000000
#
# Coordination Sequence:
#
# PCOD8267033 Si02
#       8
#    16  16  16  16   8  16  16  16
#     4   9  16  27  41  57  79 109 145 173 200 245
#     4   8  14  25  42  65  93 121 141 158 190 239
#     4   9  17  27  37  50  73 106 139 173 212 249
#     4   8  14  26  42  59  82 112 143 171 199 238
#     4   9  16  26  40  56  75 101 128 161 215 269
#     4   9  16  25  41  67  95 118 139 164 193 234
#     4  10  19  27  39  58  78 103 139 178 215 257
#     4  10  19  30  42  57  78 105 136 178 224 261
#
# _framework density 15.216689000000001
#
# number of rings (size 3 to 8) (size 9 to 14) (size 15 to 20)
#    0.000    3.000    0.667    2.000    0.933    3.733 
#    0.000    2.000    0.000    3.200    0.000   14.000 
#    0.000    1.600    0.000    2.933    0.000    0.133 
#
# Total GULP energy -743666.550082 kJ/mol
# GULP energy per Si atom -12394.442501 kJ/mol
# Density = 1.518205 g / cm^3
# Si number density = 15.216689 Si / 1000 Ang^3
#
#
#
# Elastic Constant Matrix: (Units=GPa)
#
#
# Indices 1 2 3 4 5 6 
#
# 1 82.3463 42.1843 30.9045 0.0000 0.0000 0.0000
# 2 42.1843 70.9790 32.5808 0.0000 0.0000 0.0000
# 3 30.9045 32.5808 62.1843 0.0000 0.0000 0.0000
# 4 0.0000 0.0000 0.0000 11.5115 0.0000 0.0000
# 5 0.0000 0.0000 0.0000 0.0000 15.3068 0.0000
# 6 0.0000 0.0000 0.0000 0.0000 0.0000 9.9765
#
#
#
# Elastic Compliance Matrix: (Units=1/GPa)
#
#
# Indices 1 2 3 4 5 6 
#
# 1 0.018364 -0.008854 -0.004487 0.000000 0.000000 0.000000
# 2 -0.008854 0.022819 -0.007555 0.000000 0.000000 0.000000
# 3 -0.004487 -0.007555 0.022270 0.000000 0.000000 0.000000
# 4 0.000000 0.000000 0.000000 0.086869 0.000000 0.000000
# 5 0.000000 0.000000 0.000000 0.000000 0.065331 0.000000
# 6 0.000000 0.000000 0.000000 0.000000 0.000000 0.100235
#
#
# Mechanical properties :
#
#
# Convention : Reuss Voigt Hill
#
# Bulk Modulus (GPa) = 46.17075 47.42767 46.79921
# Shear Modulus (GPa) = 13.70233 14.68162 14.19197
#
# Velocity S-wave (km/s) = 3.00406 3.10955 3.05726
# Velocity P-wave (km/s) = 6.51464 6.64291 6.57909
#
# Compressibility (1/GPa) = 0.02165873
#
# Stress axis : x y z
#
# Youngs Moduli (GPa) = 54.45497 43.82312 44.90350
#
# Poissons Ratio (x) = 0.38802 0.20150
# Poissons Ratio (y) = 0.48215 0.33926
# Poissons Ratio (z) = 0.24436 0.33110
#
# Static dielectric constant tensor:
#      x y z
#    x 2.873910 0.000000 0.000000 
#    y 0.000000 2.987470 0.000000 
#    z 0.000000 0.000000 2.756420 
# 
# 
# High freq. dielectric constant tensor:
#      x y z
#    x 1.561470 0.000000 0.000000 
#    y 0.000000 1.566740 0.000000 
#    z 0.000000 0.000000 1.558260 
# 
# From -- ./inp_files/44833.got.cif
#   From: 2010.03.12/outbox.cif.g09.slc.cpg/sg65_23_cif.got.tgz:44833.got - 2010.04.10 20:52:16.
