data_PCOD8267842
_publ_section_title
;
Structure prediction by ZEFSAII (Michael W. Deem and Ramdas Pophale) SiO2 
 PCOD8267842
Probable space group: C M M M
;
_chemical_formula_sum "Si O2"
_cell_formula_units_Z 88
_cell_length_a 24.731541
_cell_length_b 13.188318
_cell_length_c 14.253332
_cell_angle_alpha 90.000000
_cell_angle_beta 90.000000
_cell_angle_gamma 90.000000
_cell_volume 4648.972629
_symmetry_space_group_name_H-M "C M M M"
_symmetry_group_IT_number 65
_symmetry_cell_setting 'orthorhombic'
loop_
_space_group_symop_operation_xyz
x,y,z
-x,-y,z
x,-y,-z
-x,y,-z
-x,-y,-z
x,y,-z
-x,y,z
x,-y,z
1/2+x,1/2+y,z
1/2-x,1/2-y,z
1/2+x,1/2-y,-z
1/2-x,1/2+y,-z
1/2-x,1/2-y,-z
1/2+x,1/2+y,-z
1/2-x,1/2+y,z
1/2+x,1/2-y,z
loop_
_atom_site_type_symbol
_atom_site_label
_atom_site_fract_x
_atom_site_fract_y
_atom_site_fract_z
Si Si1 0.563036 0.000000 0.891017
Si Si2 0.727654 0.114797 0.104372
Si Si3 0.838245 0.885012 0.788570
Si Si4 0.778186 0.880512 0.397087
Si Si5 0.875207 0.681183 0.794536
Si Si6 0.842226 0.619080 0.603497
O O1 0.586302 0.895096 0.850069
O O2 0.500000 0.000000 0.869490
O O3 0.576748 0.000000 0.000000
O O4 0.788828 0.123321 0.139166
O O5 0.687610 0.168876 0.176372
O O6 0.707863 0.000000 0.101007
O O7 0.723859 0.162476 0.000000
O O8 0.819183 0.849271 0.684874
O O9 0.885133 0.802133 0.815426
O O10 0.861743 0.000000 0.789692
O O11 0.802861 0.853588 0.500000
O O12 0.717995 0.830626 0.387309
O O13 0.768349 0.000000 0.388385
O O14 0.881981 0.661382 0.683508
O O15 0.866142 0.643401 0.500000
O O16 0.837460 0.500000 0.619143
#
# Coordination Sequence:
#
# PCOD8267842 Si02
#       6
#     8  16  16  16  16  16
#     4  11  26  46  67  87 101 125 178 244 298 338
#     4  10  19  31  47  71 104 142 181 219 264 324
#     4  10  21  32  46  76 116 151 183 216 253 321
#     4   8  14  26  42  65 108 158 195 224 248 292
#     4  12  20  34  57  77 105 143 182 225 277 326
#     4   9  16  27  46  75 109 146 188 225 266 320
#
# _framework density 18.928913999999999
#
# number of rings (size 3 to 8) (size 9 to 14) (size 15 to 20)
#    0.000    2.091    3.636    2.182    0.000    2.909 
#    0.000    1.818    0.000    1.636    0.000    1.273 
#    0.000    0.000    0.000    6.182    0.000    0.000 
#
# Total GULP energy -545160.912497 kJ/mol
# GULP energy per Si atom -12390.020739 kJ/mol
# Density = 1.888583 g / cm^3
# Si number density = 18.928914 Si / 1000 Ang^3
#
#
#
# Elastic Constant Matrix: (Units=GPa)
#
#
# Indices 1 2 3 4 5 6 
#
# 1 33.4128 43.1028 25.3997 0.0000 0.0000 0.0000
# 2 43.1028 111.2838 38.9075 0.0000 0.0000 0.0000
# 3 25.3997 38.9075 122.4624 0.0000 0.0000 0.0000
# 4 0.0000 0.0000 0.0000 -7.3035 0.0000 0.0000
# 5 0.0000 0.0000 0.0000 0.0000 10.2276 0.0000
# 6 0.0000 0.0000 0.0000 0.0000 0.0000 10.8692
#
#
#
# Elastic Compliance Matrix: (Units=1/GPa)
#
#
# Indices 1 2 3 4 5 6 
#
# 1 0.063541 -0.022503 -0.006030 0.000000 0.000000 0.000000
# 2 -0.022503 0.018078 -0.001076 0.000000 0.000000 0.000000
# 3 -0.006030 -0.001076 0.009758 0.000000 0.000000 0.000000
# 4 0.000000 0.000000 0.000000 -0.136920 0.000000 0.000000
# 5 0.000000 0.000000 0.000000 0.000000 0.097775 0.000000
# 6 0.000000 0.000000 0.000000 0.000000 0.000000 0.092003
#
#
# Mechanical properties :
#
#
# Convention : Reuss Voigt Hill
#
# Bulk Modulus (GPa) = 31.09447 53.55323 42.32385
# Shear Modulus (GPa) = 23.34569 13.40859 18.37714
#
# Velocity S-wave (km/s) = 3.51570 2.66440 3.11923
# Velocity P-wave (km/s) = 5.73958 6.14968 5.94817
#
# Compressibility (1/GPa) = 0.03216006
#
# Stress axis : x y z
#
# Youngs Moduli (GPa) = 15.73786 55.31517 102.47657
#
# Poissons Ratio (x) = 1.24475 0.61789
# Poissons Ratio (y) = 0.35415 0.11030
# Poissons Ratio (z) = 0.09489 0.05954
#
# Static dielectric constant tensor:
#      x y z
#    x 2.680660 0.000000 0.000000 
#    y 0.000000 3.877650 0.000000 
#    z 0.000000 0.000000 3.810300 
# 
# 
# High freq. dielectric constant tensor:
#      x y z
#    x 1.624790 0.000000 0.000000 
#    y 0.000000 1.766930 0.000000 
#    z 0.000000 0.000000 1.757860 
# 
# From -- ./inp_files/40235.got.cif
#   From: 2010.03.12/outbox.cif.g09.slc.cpg/sg65_21_cif.got.tgz:40235.got - 2010.04.10 20:52:16.
