data_PCOD8267631
_publ_section_title
;
Structure prediction by ZEFSAII (Michael W. Deem and Ramdas Pophale) SiO2 
 PCOD8267631
Probable space group: C M M M
;
_chemical_formula_sum "Si O2"
_cell_formula_units_Z 72
_cell_length_a 16.771461
_cell_length_b 21.569035
_cell_length_c 11.721271
_cell_angle_alpha 90.000000
_cell_angle_beta 90.000000
_cell_angle_gamma 90.000000
_cell_volume 4240.102144
_symmetry_space_group_name_H-M "C M M M"
_symmetry_group_IT_number 65
_symmetry_cell_setting 'orthorhombic'
loop_
_space_group_symop_operation_xyz
x,y,z
-x,-y,z
x,-y,-z
-x,y,-z
-x,-y,-z
x,y,-z
-x,y,z
x,-y,z
1/2+x,1/2+y,z
1/2-x,1/2-y,z
1/2+x,1/2-y,-z
1/2-x,1/2+y,-z
1/2-x,1/2-y,-z
1/2+x,1/2+y,-z
1/2-x,1/2+y,z
1/2+x,1/2-y,z
loop_
_atom_site_type_symbol
_atom_site_label
_atom_site_fract_x
_atom_site_fract_y
_atom_site_fract_z
Si Si1 0.407783 0.856438 0.500000
Si Si2 0.155345 0.380664 0.740248
Si Si3 0.305312 0.692736 0.287247
Si Si4 0.093475 0.790322 0.500000
Si Si5 0.908927 0.265379 0.870776
Si Si6 0.593201 0.000000 0.864612
O O1 0.500000 0.871728 0.500000
O O2 0.369324 0.889366 0.390709
O O3 0.391013 0.783164 0.500000
O O4 0.250050 0.366058 0.743439
O O5 0.103281 0.325215 0.792659
O O6 0.137746 0.441093 0.813162
O O7 0.250000 0.750000 0.326384
O O8 0.366552 0.678310 0.389325
O O9 0.354212 0.709230 0.173024
O O10 0.000000 0.805784 0.500000
O O11 0.000000 0.244017 0.861160
O O12 0.884928 0.281600 0.000000
O O13 0.500000 0.000000 0.830706
O O14 0.603599 0.000000 0.000000
#
# Coordination Sequence:
#
# PCOD8267631 Si02
#       6
#     8  16  16   8  16   8
#     4  11  19  30  52  76 105 137 168 205 251 306
#     4  11  22  34  52  74 104 137 174 216 254 298
#     4  10  19  30  48  75 105 135 169 208 258 311
#     4  11  18  30  52  79 110 140 167 200 254 323
#     4  10  19  31  48  72 102 134 169 212 262 312
#     4  11  24  41  57  73  99 141 186 216 246 294
#
# _framework density 16.980723000000001
#
# number of rings (size 3 to 8) (size 9 to 14) (size 15 to 20)
#    0.000    1.444    4.444    4.333    0.000    7.111 
#    0.000    1.111    0.000    0.000    0.000    3.889 
#    0.000    5.333    0.000    0.000    0.000    0.000 
#
# Total GULP energy -446477.599808 kJ/mol
# GULP energy per Si atom -12402.155550 kJ/mol
# Density = 1.694207 g / cm^3
# Si number density = 16.980723 Si / 1000 Ang^3
#
#
#
# Elastic Constant Matrix: (Units=GPa)
#
#
# Indices 1 2 3 4 5 6 
#
# 1 116.7669 45.4563 52.7737 0.0000 0.0000 0.0000
# 2 45.4563 69.9293 33.2989 0.0000 0.0000 0.0000
# 3 52.7737 33.2989 126.8725 0.0000 0.0000 0.0000
# 4 0.0000 0.0000 0.0000 -18.6708 0.0000 0.0000
# 5 0.0000 0.0000 0.0000 0.0000 30.2915 0.0000
# 6 0.0000 0.0000 0.0000 0.0000 0.0000 18.3431
#
#
#
# Elastic Compliance Matrix: (Units=1/GPa)
#
#
# Indices 1 2 3 4 5 6 
#
# 1 0.012740 -0.006581 -0.003572 0.000000 0.000000 0.000000
# 2 -0.006581 0.019742 -0.002444 0.000000 0.000000 0.000000
# 3 -0.003572 -0.002444 0.010009 0.000000 0.000000 0.000000
# 4 0.000000 0.000000 0.000000 -0.053560 0.000000 0.000000
# 5 0.000000 0.000000 0.000000 0.000000 0.033013 0.000000
# 6 0.000000 0.000000 0.000000 0.000000 0.000000 0.054516
#
#
# Mechanical properties :
#
#
# Convention : Reuss Voigt Hill
#
# Bulk Modulus (GPa) = 57.81266 64.06961 60.94113
# Shear Modulus (GPa) = 46.54611 18.12876 32.33744
#
# Velocity S-wave (km/s) = 5.24125 3.27097 4.36863
# Velocity P-wave (km/s) = 8.41115 7.21654 7.83664
#
# Compressibility (1/GPa) = 0.01729725
#
# Stress axis : x y z
#
# Youngs Moduli (GPa) = 78.49059 50.65448 99.90660
#
# Poissons Ratio (x) = 0.33334 0.35690
# Poissons Ratio (y) = 0.51651 0.24418
# Poissons Ratio (z) = 0.28039 0.12381
#
# Static dielectric constant tensor:
#      x y z
#    x 3.384300 0.000000 0.000000 
#    y 0.000000 2.869310 0.000000 
#    z 0.000000 0.000000 3.384910 
# 
# 
# High freq. dielectric constant tensor:
#      x y z
#    x 1.665320 0.000000 0.000000 
#    y 0.000000 1.595520 0.000000 
#    z 0.000000 0.000000 1.676080 
# 
# From -- ./inp_files/26379.got.cif
#   From: 2010.03.12/outbox.cif.g09.slc.cpg/sg65_14_cif.got.tgz:26379.got - 2010.04.10 20:52:16.
