data_PCOD8267801
_publ_section_title
;
Structure prediction by ZEFSAII (Michael W. Deem and Ramdas Pophale) SiO2 
 PCOD8267801
Probable space group: C M M M
;
_chemical_formula_sum "Si O2"
_cell_formula_units_Z 104
_cell_length_a 27.404342
_cell_length_b 8.854981
_cell_length_c 26.140818
_cell_angle_alpha 90.000000
_cell_angle_beta 90.000000
_cell_angle_gamma 90.000000
_cell_volume 6343.459711
_symmetry_space_group_name_H-M "C M M M"
_symmetry_group_IT_number 65
_symmetry_cell_setting 'orthorhombic'
loop_
_space_group_symop_operation_xyz
x,y,z
-x,-y,z
x,-y,-z
-x,y,-z
-x,-y,-z
x,y,-z
-x,y,z
x,-y,z
1/2+x,1/2+y,z
1/2-x,1/2-y,z
1/2+x,1/2-y,-z
1/2-x,1/2+y,-z
1/2-x,1/2-y,-z
1/2+x,1/2+y,-z
1/2-x,1/2+y,z
1/2+x,1/2-y,z
loop_
_atom_site_type_symbol
_atom_site_label
_atom_site_fract_x
_atom_site_fract_y
_atom_site_fract_z
Si Si1 0.607429 0.178212 0.300113
Si Si2 0.645675 0.326460 0.855013
Si Si3 0.699670 0.823150 0.942293
Si Si4 0.057111 0.823003 0.395829
Si Si5 0.555121 0.326365 0.209293
Si Si6 0.697973 0.678039 0.750991
Si Si7 0.557777 0.830121 0.500000
O O1 0.588296 0.235251 0.354123
O O2 0.567923 0.221752 0.257121
O O3 0.659476 0.254190 0.288931
O O4 0.614042 0.000000 0.301282
O O5 0.652842 0.500000 0.870074
O O6 0.656522 0.227087 0.904778
O O7 0.590023 0.291298 0.838755
O O8 0.681420 0.281225 0.808557
O O9 0.750000 0.750000 0.923354
O O10 0.706403 0.000000 0.939174
O O11 0.686911 0.770613 0.000000
O O12 0.075548 0.761037 0.450321
O O13 0.000000 0.789105 0.387107
O O14 0.067972 0.000000 0.392637
O O15 0.500000 0.294741 0.191579
O O16 0.562834 0.500000 0.226904
O O17 0.700410 0.500000 0.742810
O O18 0.750000 0.750000 0.739648
O O19 0.500000 0.838077 0.500000
O O20 0.579624 0.000000 0.500000
#
# Coordination Sequence:
#
# PCOD8267801 Si02
#       7
#    16  16  16  16  16  16   8
#     4  11  21  31  46  70  97 126 160 195 233 277
#     4   9  18  31  49  71  93 120 152 187 228 275
#     4  10  20  32  47  68  93 120 150 186 229 276
#     4  10  19  31  47  67  95 130 163 196 237 282
#     4   9  18  33  50  68  93 124 157 193 233 276
#     4  10  20  34  50  70  96 124 155 191 233 280
#     4   9  17  29  45  67  94 123 158 199 239 281
#
# _framework density 16.394838
#
# number of rings (size 3 to 8) (size 9 to 14) (size 15 to 20)
#    0.000    2.231    0.000    4.846    0.000    9.231 
#    0.000    0.000    0.000    0.462    0.000    3.769 
#    0.000    0.000    0.000    0.000    0.000    0.000 
#
# Total GULP energy -644910.024499 kJ/mol
# GULP energy per Si atom -12402.115856 kJ/mol
# Density = 1.635752 g / cm^3
# Si number density = 16.394838 Si / 1000 Ang^3
#
#
#
# Elastic Constant Matrix: (Units=GPa)
#
#
# Indices 1 2 3 4 5 6 
#
# 1 110.2558 44.7451 55.4211 0.0000 0.0000 0.0000
# 2 44.7451 92.5338 48.2325 0.0000 0.0000 0.0000
# 3 55.4211 48.2325 107.3782 0.0000 0.0000 0.0000
# 4 0.0000 0.0000 0.0000 31.6054 0.0000 0.0000
# 5 0.0000 0.0000 0.0000 0.0000 10.7523 0.0000
# 6 0.0000 0.0000 0.0000 0.0000 0.0000 25.6340
#
#
#
# Elastic Compliance Matrix: (Units=1/GPa)
#
#
# Indices 1 2 3 4 5 6 
#
# 1 0.013142 -0.003681 -0.005130 0.000000 0.000000 0.000000
# 2 -0.003681 0.015142 -0.004901 0.000000 0.000000 0.000000
# 3 -0.005130 -0.004901 0.014162 0.000000 0.000000 0.000000
# 4 0.000000 0.000000 0.000000 0.031640 0.000000 0.000000
# 5 0.000000 0.000000 0.000000 0.000000 0.093003 0.000000
# 6 0.000000 0.000000 0.000000 0.000000 0.000000 0.039011
#
#
# Mechanical properties :
#
#
# Convention : Reuss Voigt Hill
#
# Bulk Modulus (GPa) = 66.57087 67.44058 67.00572
# Shear Modulus (GPa) = 20.96158 24.38296 22.67227
#
# Velocity S-wave (km/s) = 3.57956 3.86065 3.72276
# Velocity P-wave (km/s) = 7.60113 7.81648 7.70956
#
# Compressibility (1/GPa) = 0.01502159
#
# Stress axis : x y z
#
# Youngs Moduli (GPa) = 76.09100 66.04249 70.61134
#
# Poissons Ratio (x) = 0.24312 0.36220
# Poissons Ratio (y) = 0.28011 0.34610
# Poissons Ratio (z) = 0.39031 0.32370
#
# Static dielectric constant tensor:
#      x y z
#    x 3.014750 0.000000 0.000000 
#    y 0.000000 3.175500 0.000000 
#    z 0.000000 0.000000 3.081520 
# 
# 
# High freq. dielectric constant tensor:
#      x y z
#    x 1.611590 0.000000 0.000000 
#    y 0.000000 1.643910 0.000000 
#    z 0.000000 0.000000 1.622570 
# 
# From -- ./inp_files/71811.got.cif
#   From: 2010.03.12/outbox.cif.g09.slc.cpg/sg65_36_cif.got.tgz:71811.got - 2010.04.10 20:52:16.
