data_PCOD8267069
_publ_section_title
;
Structure prediction by ZEFSAII (Michael W. Deem and Ramdas Pophale) SiO2 
 PCOD8267069
Probable space group: C M M M
;
_chemical_formula_sum "Si O2"
_cell_formula_units_Z 96
_cell_length_a 17.989743
_cell_length_b 27.100328
_cell_length_c 12.779182
_cell_angle_alpha 90.000000
_cell_angle_beta 90.000000
_cell_angle_gamma 90.000000
_cell_volume 6230.208223
_symmetry_space_group_name_H-M "C M M M"
_symmetry_group_IT_number 65
_symmetry_cell_setting 'orthorhombic'
loop_
_space_group_symop_operation_xyz
x,y,z
-x,-y,z
x,-y,-z
-x,y,-z
-x,-y,-z
x,y,-z
-x,y,z
x,-y,z
1/2+x,1/2+y,z
1/2-x,1/2-y,z
1/2+x,1/2-y,-z
1/2-x,1/2+y,-z
1/2-x,1/2-y,-z
1/2+x,1/2+y,-z
1/2-x,1/2+y,z
1/2+x,1/2-y,z
loop_
_atom_site_type_symbol
_atom_site_label
_atom_site_fract_x
_atom_site_fract_y
_atom_site_fract_z
Si Si1 0.415718 0.000000 0.124041
Si Si2 0.176376 0.404481 0.875404
Si Si3 0.917967 0.687213 0.875928
Si Si4 0.413498 0.702600 0.877407
Si Si5 0.414497 0.443100 0.619474
Si Si6 0.912534 0.945345 0.000000
Si Si7 0.341123 0.391770 0.806746
O O1 0.371769 0.048584 0.162304
O O2 0.500000 0.000000 0.169781
O O3 0.420338 0.000000 0.000000
O O4 0.136835 0.354824 0.834116
O O5 0.255541 0.405329 0.820489
O O6 0.187335 0.404693 0.000000
O O7 0.890867 0.741877 0.843202
O O8 0.000000 0.677159 0.829423
O O9 0.922732 0.684350 0.000000
O O10 0.500000 0.692389 0.850929
O O11 0.358769 0.666513 0.813963
O O12 0.399397 0.694453 0.000000
O O13 0.390799 0.433421 0.500000
O O14 0.500000 0.428382 0.636604
O O15 0.402467 0.500000 0.649467
O O16 0.363368 0.409717 0.692168
O O17 0.888974 0.917938 0.104422
O O18 0.000000 0.948412 0.000000
O O19 0.876937 0.000000 0.000000
#
# Coordination Sequence:
#
# PCOD8267069 Si02
#       7
#     8  16  16  16  16   8  16
#     4   9  18  30  44  58  85 128 165 191 220 268
#     4  10  19  28  41  65  95 125 154 192 232 271
#     4   8  15  28  44  59  85 127 168 193 217 266
#     4   9  16  27  42  62  90 125 159 188 219 269
#     4   9  19  35  51  64  83 119 165 202 225 259
#     4  11  22  30  40  59  92 134 154 166 211 286
#     4  12  20  28  44  68  97 121 145 190 233 279
#
# _framework density 15.408794
#
# number of rings (size 3 to 8) (size 9 to 14) (size 15 to 20)
#    0.000    2.333    1.667    4.000    2.333    4.000 
#    0.000    2.500    0.000    0.000    0.000    2.333 
#    0.000    4.667    0.000    0.000    0.000    0.000 
#
# Total GULP energy -595110.439444 kJ/mol
# GULP energy per Si atom -12398.134155 kJ/mol
# Density = 1.537372 g / cm^3
# Si number density = 15.408794 Si / 1000 Ang^3
#
#
#
# Elastic Constant Matrix: (Units=GPa)
#
#
# Indices 1 2 3 4 5 6 
#
# 1 100.8771 60.3876 29.5690 0.0000 0.0000 0.0000
# 2 60.3876 121.5128 31.8212 0.0000 0.0000 0.0000
# 3 29.5690 31.8212 47.3014 0.0000 0.0000 0.0000
# 4 0.0000 0.0000 0.0000 15.6166 0.0000 0.0000
# 5 0.0000 0.0000 0.0000 0.0000 15.2475 0.0000
# 6 0.0000 0.0000 0.0000 0.0000 0.0000 7.6683
#
#
#
# Elastic Compliance Matrix: (Units=1/GPa)
#
#
# Indices 1 2 3 4 5 6 
#
# 1 0.015149 -0.006128 -0.005347 0.000000 0.000000 0.000000
# 2 -0.006128 0.012468 -0.004557 0.000000 0.000000 0.000000
# 3 -0.005347 -0.004557 0.027549 0.000000 0.000000 0.000000
# 4 0.000000 0.000000 0.000000 0.064034 0.000000 0.000000
# 5 0.000000 0.000000 0.000000 0.000000 0.065585 0.000000
# 6 0.000000 0.000000 0.000000 0.000000 0.000000 0.130406
#
#
# Mechanical properties :
#
#
# Convention : Reuss Voigt Hill
#
# Bulk Modulus (GPa) = 43.28684 57.02744 50.15714
# Shear Modulus (GPa) = 14.08618 17.56739 15.82679
#
# Velocity S-wave (km/s) = 3.02680 3.38018 3.20836
# Velocity P-wave (km/s) = 6.35363 7.23355 6.80782
#
# Compressibility (1/GPa) = 0.02310171
#
# Stress axis : x y z
#
# Youngs Moduli (GPa) = 66.01139 80.20230 36.29845
#
# Poissons Ratio (x) = 0.49149 0.19410
# Poissons Ratio (y) = 0.40453 0.16542
# Poissons Ratio (z) = 0.35298 0.36549
#
# Static dielectric constant tensor:
#      x y z
#    x 2.992740 0.000000 0.000000 
#    y 0.000000 3.257800 0.000000 
#    z 0.000000 0.000000 2.549280 
# 
# 
# High freq. dielectric constant tensor:
#      x y z
#    x 1.590770 0.000000 0.000000 
#    y 0.000000 1.606440 0.000000 
#    z 0.000000 0.000000 1.524030 
# 
# From -- ./inp_files/27433.got.cif
#   From: 2010.03.12/outbox.cif.g09.slc.cpg/sg65_14_cif.got.tgz:27433.got - 2010.04.10 20:52:16.
