data_PCOD8267951
_publ_section_title
;
Structure prediction by ZEFSAII (Michael W. Deem and Ramdas Pophale) SiO2 
 PCOD8267951
Probable space group: C M M M
;
_chemical_formula_sum "Si O2"
_cell_formula_units_Z 88
_cell_length_a 18.449656
_cell_length_b 9.273450
_cell_length_c 28.663881
_cell_angle_alpha 90.000000
_cell_angle_beta 90.000000
_cell_angle_gamma 90.000000
_cell_volume 4904.159651
_symmetry_space_group_name_H-M "C M M M"
_symmetry_group_IT_number 65
_symmetry_cell_setting 'orthorhombic'
loop_
_space_group_symop_operation_xyz
x,y,z
-x,-y,z
x,-y,-z
-x,y,-z
-x,-y,-z
x,y,-z
-x,y,z
x,-y,z
1/2+x,1/2+y,z
1/2-x,1/2-y,z
1/2+x,1/2-y,-z
1/2-x,1/2+y,-z
1/2-x,1/2-y,-z
1/2+x,1/2+y,-z
1/2-x,1/2+y,z
1/2+x,1/2-y,z
loop_
_atom_site_type_symbol
_atom_site_label
_atom_site_fract_x
_atom_site_fract_y
_atom_site_fract_z
Si Si1 0.673763 0.671345 0.224653
Si Si2 0.822921 0.831656 0.052688
Si Si3 0.177227 0.164514 0.500000
Si Si4 0.080584 0.170852 0.862959
Si Si5 0.080977 0.171089 0.686818
Si Si6 0.325979 0.669077 0.600860
O O1 0.686117 0.500000 0.224261
O O2 0.750000 0.750000 0.226129
O O3 0.630650 0.726017 0.179139
O O4 0.627666 0.722832 0.269164
O O5 0.750000 0.750000 0.066248
O O6 0.885733 0.779626 0.087656
O O7 0.806826 0.000000 0.058764
O O8 0.847876 0.794839 0.000000
O O9 0.250000 0.250000 0.500000
O O10 0.137029 0.198205 0.450627
O O11 0.201071 0.000000 0.500000
O O12 0.000000 0.238005 0.858700
O O13 0.075054 0.000000 0.860397
O O14 0.118421 0.228425 0.639450
O O15 0.000000 0.236719 0.690100
O O16 0.076020 0.000000 0.686347
O O17 0.311001 0.500000 0.608665
O O18 0.250000 0.750000 0.606239
#
# Coordination Sequence:
#
# PCOD8267951 Si02
#       6
#    16  16   8  16  16  16
#     4  10  19  31  49  69  88 113 145 180 216 256
#     4   9  17  29  46  67  90 117 148 182 218 255
#     4   8  14  24  39  61  85 109 139 174 212 250
#     4   9  17  29  46  68  91 115 146 182 217 255
#     4   9  17  29  45  65  88 114 144 177 214 256
#     4   9  16  27  44  64  86 112 143 178 213 252
#
# _framework density 17.943950000000001
#
# number of rings (size 3 to 8) (size 9 to 14) (size 15 to 20)
#    0.000    2.909    0.000    1.636    0.000    2.545 
#    0.000    2.273    0.000    8.182    0.000    2.545 
#    0.000    7.273    0.000    0.000    0.000    0.000 
#
# Total GULP energy -545288.634013 kJ/mol
# GULP energy per Si atom -12392.923500 kJ/mol
# Density = 1.790311 g / cm^3
# Si number density = 17.943950 Si / 1000 Ang^3
#
#
#
# Elastic Constant Matrix: (Units=GPa)
#
#
# Indices 1 2 3 4 5 6 
#
# 1 159.1738 26.2053 101.0938 0.0000 0.0000 0.0000
# 2 26.2053 19.2116 23.2043 0.0000 0.0000 0.0000
# 3 101.0938 23.2043 176.3858 0.0000 0.0000 0.0000
# 4 0.0000 0.0000 0.0000 13.8246 0.0000 0.0000
# 5 0.0000 0.0000 0.0000 0.0000 22.0908 0.0000
# 6 0.0000 0.0000 0.0000 0.0000 0.0000 21.8473
#
#
#
# Elastic Compliance Matrix: (Units=1/GPa)
#
#
# Indices 1 2 3 4 5 6 
#
# 1 0.010998 -0.008784 -0.005148 0.000000 0.000000 0.000000
# 2 -0.008784 0.068901 -0.004030 0.000000 0.000000 0.000000
# 3 -0.005148 -0.004030 0.009150 0.000000 0.000000 0.000000
# 4 0.000000 0.000000 0.000000 0.072335 0.000000 0.000000
# 5 0.000000 0.000000 0.000000 0.000000 0.045268 0.000000
# 6 0.000000 0.000000 0.000000 0.000000 0.000000 0.045772
#
#
# Mechanical properties :
#
#
# Convention : Reuss Voigt Hill
#
# Bulk Modulus (GPa) = 18.82326 72.86422 45.84374
# Shear Modulus (GPa) = 16.33689 25.17039 20.75364
#
# Velocity S-wave (km/s) = 3.02062 3.74936 3.40454
# Velocity P-wave (km/s) = 4.76218 7.70962 6.40768
#
# Compressibility (1/GPa) = 0.05312576
#
# Stress axis : x y z
#
# Youngs Moduli (GPa) = 90.92501 14.51357 109.29007
#
# Poissons Ratio (x) = 0.12749 0.56261
# Poissons Ratio (y) = 0.79869 0.44041
# Poissons Ratio (z) = 0.46807 0.05849
#
# Static dielectric constant tensor:
#      x y z
#    x 3.302650 0.000000 0.000000 
#    y 0.000000 2.928070 0.000000 
#    z 0.000000 0.000000 3.901610 
# 
# 
# High freq. dielectric constant tensor:
#      x y z
#    x 1.682090 0.000000 0.000000 
#    y 0.000000 1.648300 0.000000 
#    z 0.000000 0.000000 1.722100 
# 
# From -- ./inp_files/74244.got.cif
#   From: 2010.03.12/outbox.cif.g09.slc.cpg/sg65_38_cif.got.tgz:74244.got - 2010.04.10 20:52:16.
