data_PCOD8267331
_publ_section_title
;
Structure prediction by ZEFSAII (Michael W. Deem and Ramdas Pophale) SiO2 
 PCOD8267331
Probable space group: C M M M
;
_chemical_formula_sum "Si O2"
_cell_formula_units_Z 96
_cell_length_a 8.903875
_cell_length_b 27.650232
_cell_length_c 23.981136
_cell_angle_alpha 90.000000
_cell_angle_beta 90.000000
_cell_angle_gamma 90.000000
_cell_volume 5904.016819
_symmetry_space_group_name_H-M "C M M M"
_symmetry_group_IT_number 65
_symmetry_cell_setting 'orthorhombic'
loop_
_space_group_symop_operation_xyz
x,y,z
-x,-y,z
x,-y,-z
-x,y,-z
-x,-y,-z
x,y,-z
-x,y,z
x,-y,z
1/2+x,1/2+y,z
1/2-x,1/2-y,z
1/2+x,1/2-y,-z
1/2-x,1/2+y,-z
1/2-x,1/2-y,-z
1/2+x,1/2+y,-z
1/2-x,1/2+y,z
1/2+x,1/2-y,z
loop_
_atom_site_type_symbol
_atom_site_label
_atom_site_fract_x
_atom_site_fract_y
_atom_site_fract_z
Si Si1 0.676564 0.642517 0.831743
Si Si2 0.678795 0.054724 0.561294
Si Si3 0.175264 0.200496 0.937901
Si Si4 0.322570 0.055182 0.220738
Si Si5 0.322324 0.199294 0.732542
Si Si6 0.676651 0.893604 0.668550
O O1 0.500000 0.643758 0.819590
O O2 0.716030 0.657946 0.894862
O O3 0.739452 0.588336 0.824718
O O4 0.756833 0.680104 0.790527
O O5 0.736887 0.071467 0.500000
O O6 0.500000 0.056648 0.561935
O O7 0.747724 0.089690 0.609337
O O8 0.732278 0.000000 0.573350
O O9 0.250000 0.250000 0.917560
O O10 0.000000 0.210535 0.938076
O O11 0.231551 0.185637 0.000000
O O12 0.500000 0.063246 0.214856
O O13 0.266484 0.071133 0.282131
O O14 0.276142 0.000000 0.209997
O O15 0.500000 0.204869 0.739376
O O16 0.250000 0.250000 0.715665
O O17 0.280276 0.161660 0.683045
O O18 0.500000 0.899452 0.664128
#
# Coordination Sequence:
#
# PCOD8267331 Si02
#       6
#    16  16  16  16  16  16
#     4  10  19  30  46  67  90 114 141 176 214 255
#     4   8  12  18  32  56  83 108 135 170 211 253
#     4   9  18  31  46  65  88 113 140 171 210 255
#     4   9  17  29  45  64  88 118 148 178 213 254
#     4  10  19  30  44  62  86 115 145 177 214 257
#     4   8  14  24  38  57  82 112 142 172 211 255
#
# _framework density 16.260117000000001
#
# number of rings (size 3 to 8) (size 9 to 14) (size 15 to 20)
#    0.000    3.000    0.000    3.500    0.000    5.000 
#    0.000    0.000    0.000    1.000    0.000    3.500 
#    0.000   16.000    0.000   53.500    0.000   49.000 
#
# Total GULP energy -594929.721241 kJ/mol
# GULP energy per Si atom -12394.369193 kJ/mol
# Density = 1.622311 g / cm^3
# Si number density = 16.260117 Si / 1000 Ang^3
#
#
#
# Elastic Constant Matrix: (Units=GPa)
#
#
# Indices 1 2 3 4 5 6 
#
# 1 40.9645 40.7038 34.3987 0.0000 0.0000 0.0000
# 2 40.7038 139.1014 81.3517 0.0000 0.0000 0.0000
# 3 34.3987 81.3517 126.5585 0.0000 0.0000 0.0000
# 4 0.0000 0.0000 0.0000 25.4088 0.0000 0.0000
# 5 0.0000 0.0000 0.0000 0.0000 12.5213 0.0000
# 6 0.0000 0.0000 0.0000 0.0000 0.0000 25.4343
#
#
#
# Elastic Compliance Matrix: (Units=1/GPa)
#
#
# Indices 1 2 3 4 5 6 
#
# 1 0.036189 -0.007751 -0.004854 0.000000 0.000000 0.000000
# 2 -0.007751 0.013180 -0.006365 0.000000 0.000000 0.000000
# 3 -0.004854 -0.006365 0.013312 0.000000 0.000000 0.000000
# 4 0.000000 0.000000 0.000000 0.039356 0.000000 0.000000
# 5 0.000000 0.000000 0.000000 0.000000 0.079864 0.000000
# 6 0.000000 0.000000 0.000000 0.000000 0.000000 0.039317
#
#
# Mechanical properties :
#
#
# Convention : Reuss Voigt Hill
#
# Bulk Modulus (GPa) = 40.41884 68.83697 54.62791
# Shear Modulus (GPa) = 18.69825 22.68423 20.69124
#
# Velocity S-wave (km/s) = 3.39476 3.73913 3.57110
# Velocity P-wave (km/s) = 6.34646 7.81462 7.11849
#
# Compressibility (1/GPa) = 0.02474093
#
# Stress axis : x y z
#
# Youngs Moduli (GPa) = 27.63287 75.87462 75.11831
#
# Poissons Ratio (x) = 0.58809 0.36462
# Poissons Ratio (y) = 0.21418 0.47814
# Poissons Ratio (z) = 0.13413 0.48296
#
# Static dielectric constant tensor:
#      x y z
#    x 2.831540 0.000000 0.000000 
#    y 0.000000 3.122180 0.000000 
#    z 0.000000 0.000000 3.403200 
# 
# 
# High freq. dielectric constant tensor:
#      x y z
#    x 1.600180 0.000000 0.000000 
#    y 0.000000 1.617470 0.000000 
#    z 0.000000 0.000000 1.620090 
# 
# From -- ./inp_files/68032.got.cif
#   From: 2010.03.12/outbox.cif.g09.slc.cpg/sg65_35_cif.got.tgz:68032.got - 2010.04.10 20:52:16.
