data_PCOD8267504
_publ_section_title
;
Structure prediction by ZEFSAII (Michael W. Deem and Ramdas Pophale) SiO2 
 PCOD8267504
Probable space group: C M M M
;
_chemical_formula_sum "Si O2"
_cell_formula_units_Z 96
_cell_length_a 8.902050
_cell_length_b 27.036672
_cell_length_c 23.711493
_cell_angle_alpha 90.000000
_cell_angle_beta 90.000000
_cell_angle_gamma 90.000000
_cell_volume 5706.924958
_symmetry_space_group_name_H-M "C M M M"
_symmetry_group_IT_number 65
_symmetry_cell_setting 'orthorhombic'
loop_
_space_group_symop_operation_xyz
x,y,z
-x,-y,z
x,-y,-z
-x,y,-z
-x,-y,-z
x,y,-z
-x,y,z
x,-y,z
1/2+x,1/2+y,z
1/2-x,1/2-y,z
1/2+x,1/2-y,-z
1/2-x,1/2+y,-z
1/2-x,1/2-y,-z
1/2+x,1/2+y,-z
1/2-x,1/2+y,z
1/2+x,1/2-y,z
loop_
_atom_site_type_symbol
_atom_site_label
_atom_site_fract_x
_atom_site_fract_y
_atom_site_fract_z
Si Si1 0.674056 0.391741 0.275251
Si Si2 0.324342 0.145740 0.105718
Si Si3 0.828347 0.441093 0.378258
Si Si4 0.324847 0.802116 0.222040
Si Si5 0.322083 0.303734 0.000000
Si Si6 0.174807 0.943367 0.160291
Si Si7 0.322700 0.053860 0.500000
O O1 0.500000 0.378400 0.276267
O O2 0.718370 0.416728 0.333615
O O3 0.763969 0.340963 0.267521
O O4 0.712464 0.429677 0.224843
O O5 0.500000 0.146604 0.090787
O O6 0.285358 0.179786 0.159196
O O7 0.273653 0.089603 0.117969
O O8 0.228563 0.166241 0.054449
O O9 0.809063 0.500000 0.377488
O O10 0.780159 0.419676 0.440574
O O11 0.000000 0.426716 0.363879
O O12 0.500000 0.796477 0.231042
O O13 0.250000 0.750000 0.233637
O O14 0.250000 0.250000 0.000000
O O15 0.500000 0.297776 0.000000
O O16 0.000000 0.934188 0.147194
O O17 0.220687 0.000000 0.150215
O O18 0.500000 0.046145 0.500000
O O19 0.244955 0.000000 0.500000
#
# Coordination Sequence:
#
# PCOD8267504 Si02
#       7
#    16  16  16  16   8  16   8
#     4  10  19  30  46  70  99 129 161 197 238 285
#     4  10  21  36  54  77 102 127 159 197 237 283
#     4   9  16  27  44  66  94 128 165 202 238 279
#     4  10  20  34  52  73  97 125 156 194 240 286
#     4  12  24  38  57  78 101 128 158 195 239 287
#     4   9  18  33  51  71  99 134 166 197 237 283
#     4   7  12  24  41  61  88 125 164 199 237 279
#
# _framework density 16.821669
#
# number of rings (size 3 to 8) (size 9 to 14) (size 15 to 20)
#    0.000    2.417    0.000    4.250    0.000    5.333 
#    0.000    0.833    0.000    4.000    0.000    0.583 
#    0.000    0.000    0.000    0.000    0.000    0.000 
#
# Total GULP energy -595115.680734 kJ/mol
# GULP energy per Si atom -12398.243349 kJ/mol
# Density = 1.678338 g / cm^3
# Si number density = 16.821669 Si / 1000 Ang^3
#
#
#
# Elastic Constant Matrix: (Units=GPa)
#
#
# Indices 1 2 3 4 5 6 
#
# 1 73.3021 40.2734 44.8208 0.0000 0.0000 0.0000
# 2 40.2734 98.4866 43.9191 0.0000 0.0000 0.0000
# 3 44.8208 43.9191 106.9759 0.0000 0.0000 0.0000
# 4 0.0000 0.0000 0.0000 11.0205 0.0000 0.0000
# 5 0.0000 0.0000 0.0000 0.0000 27.4651 0.0000
# 6 0.0000 0.0000 0.0000 0.0000 0.0000 31.1440
#
#
#
# Elastic Compliance Matrix: (Units=1/GPa)
#
#
# Indices 1 2 3 4 5 6 
#
# 1 0.020586 -0.005596 -0.006327 0.000000 0.000000 0.000000
# 2 -0.005596 0.013951 -0.003383 0.000000 0.000000 0.000000
# 3 -0.006327 -0.003383 0.013388 0.000000 0.000000 0.000000
# 4 0.000000 0.000000 0.000000 0.090740 0.000000 0.000000
# 5 0.000000 0.000000 0.000000 0.000000 0.036410 0.000000
# 6 0.000000 0.000000 0.000000 0.000000 0.000000 0.032109
#
#
# Mechanical properties :
#
#
# Convention : Reuss Voigt Hill
#
# Bulk Modulus (GPa) = 57.76605 59.64347 58.70476
# Shear Modulus (GPa) = 20.52825 23.90933 22.21879
#
# Velocity S-wave (km/s) = 3.49713 3.77416 3.63828
# Velocity P-wave (km/s) = 7.12190 7.38415 7.25421
#
# Compressibility (1/GPa) = 0.01731120
#
# Stress axis : x y z
#
# Youngs Moduli (GPa) = 48.57702 71.68148 74.69513
#
# Poissons Ratio (x) = 0.40115 0.47263
# Poissons Ratio (y) = 0.27185 0.25267
# Poissons Ratio (z) = 0.30737 0.24248
#
# Static dielectric constant tensor:
#      x y z
#    x 3.136560 0.000000 0.000000 
#    y 0.000000 3.066660 0.000000 
#    z 0.000000 0.000000 3.266330 
# 
# 
# High freq. dielectric constant tensor:
#      x y z
#    x 1.651000 0.000000 0.000000 
#    y 0.000000 1.632000 0.000000 
#    z 0.000000 0.000000 1.644290 
# 
# From -- ./inp_files/67899.got.cif
#   From: 2010.03.12/outbox.cif.g09.slc.cpg/sg65_34_cif.got.tgz:67899.got - 2010.04.10 20:52:16.
