data_PCOD8267315
_publ_section_title
;
Structure prediction by ZEFSAII (Michael W. Deem and Ramdas Pophale) SiO2 
 PCOD8267315
Probable space group: C M M M
;
_chemical_formula_sum "Si O2"
_cell_formula_units_Z 72
_cell_length_a 22.552460
_cell_length_b 22.994968
_cell_length_c 9.336736
_cell_angle_alpha 90.000000
_cell_angle_beta 90.000000
_cell_angle_gamma 90.000000
_cell_volume 4841.966829
_symmetry_space_group_name_H-M "C M M M"
_symmetry_group_IT_number 65
_symmetry_cell_setting 'orthorhombic'
loop_
_space_group_symop_operation_xyz
x,y,z
-x,-y,z
x,-y,-z
-x,y,-z
-x,-y,-z
x,y,-z
-x,y,z
x,-y,z
1/2+x,1/2+y,z
1/2-x,1/2-y,z
1/2+x,1/2-y,-z
1/2-x,1/2+y,-z
1/2-x,1/2-y,-z
1/2+x,1/2+y,-z
1/2-x,1/2+y,z
1/2+x,1/2-y,z
loop_
_atom_site_type_symbol
_atom_site_label
_atom_site_fract_x
_atom_site_fract_y
_atom_site_fract_z
Si Si1 0.233202 0.065342 0.665786
Si Si2 0.107768 0.875314 0.667277
Si Si3 0.500000 0.431232 0.165786
Si Si4 0.715898 0.837855 0.839763
Si Si5 0.157754 0.223298 0.161804
O O1 0.248417 0.066652 0.500000
O O2 0.167300 0.088464 0.694675
O O3 0.283149 0.105182 0.740598
O O4 0.237433 0.000000 0.727232
O O5 0.091288 0.872032 0.500000
O O6 0.114166 0.809604 0.728311
O O7 0.057405 0.907452 0.754911
O O8 0.500000 0.500000 0.178994
O O9 0.500000 0.411427 0.000000
O O10 0.779246 0.807629 0.835231
O O11 0.666576 0.790591 0.788826
O O12 0.700883 0.858338 0.000000
O O13 0.131888 0.220777 0.000000
#
# Coordination Sequence:
#
# PCOD8267315 Si02
#       5
#    16  16   8  16  16
#     4   9  17  27  38  55  80 107 133 163 199 237
#     4  10  19  30  44  59  76 101 134 171 207 240
#     4  11  23  35  45  57  75 103 138 173 208 241
#     4   8  14  24  39  57  76 100 128 159 193 232
#     4   8  14  26  41  57  77  98 125 161 199 237
#
# _framework density 14.86999
#
# number of rings (size 3 to 8) (size 9 to 14) (size 15 to 20)
#    0.000    3.000    0.000    3.000    0.000    4.000 
#    0.000    4.444    0.000    0.000    0.000    0.000 
#    0.000    0.000    0.000    1.000    0.000   18.667 
#
# Total GULP energy -446157.470696 kJ/mol
# GULP energy per Si atom -12393.263075 kJ/mol
# Density = 1.483615 g / cm^3
# Si number density = 14.869990 Si / 1000 Ang^3
#
#
#
# Elastic Constant Matrix: (Units=GPa)
#
#
# Indices 1 2 3 4 5 6 
#
# 1 28.3516 37.1112 35.0103 0.0000 0.0000 0.0000
# 2 37.1112 123.4100 68.0765 0.0000 0.0000 0.0000
# 3 35.0103 68.0765 94.8443 0.0000 0.0000 0.0000
# 4 0.0000 0.0000 0.0000 27.9689 0.0000 0.0000
# 5 0.0000 0.0000 0.0000 0.0000 19.0736 0.0000
# 6 0.0000 0.0000 0.0000 0.0000 0.0000 22.3629
#
#
#
# Elastic Compliance Matrix: (Units=1/GPa)
#
#
# Indices 1 2 3 4 5 6 
#
# 1 0.074062 -0.011904 -0.018794 0.000000 0.000000 0.000000
# 2 -0.011904 0.015328 -0.006608 0.000000 0.000000 0.000000
# 3 -0.018794 -0.006608 0.022224 0.000000 0.000000 0.000000
# 4 0.000000 0.000000 0.000000 0.035754 0.000000 0.000000
# 5 0.000000 0.000000 0.000000 0.000000 0.052429 0.000000
# 6 0.000000 0.000000 0.000000 0.000000 0.000000 0.044717
#
#
# Mechanical properties :
#
#
# Convention : Reuss Voigt Hill
#
# Bulk Modulus (GPa) = 27.02597 58.55579 42.79088
# Shear Modulus (GPa) = 15.08483 20.97493 18.02988
#
# Velocity S-wave (km/s) = 3.18850 3.75981 3.48588
# Velocity P-wave (km/s) = 5.63646 7.63624 6.71125
#
# Compressibility (1/GPa) = 0.03700145
#
# Stress axis : x y z
#
# Youngs Moduli (GPa) = 13.50226 65.24127 44.99628
#
# Poissons Ratio (x) = 0.77663 0.84568
# Poissons Ratio (y) = 0.16073 0.29732
# Poissons Ratio (z) = 0.25377 0.43109
#
# Static dielectric constant tensor:
#      x y z
#    x 2.547020 0.000000 0.000000 
#    y 0.000000 3.218160 0.000000 
#    z 0.000000 0.000000 3.023220 
# 
# 
# High freq. dielectric constant tensor:
#      x y z
#    x 1.512200 0.000000 0.000000 
#    y 0.000000 1.570360 0.000000 
#    z 0.000000 0.000000 1.576660 
# 
# From -- ./inp_files/9481.got.cif
#   From: 2010.03.12/outbox.cif.g09.slc.cpg/sg65_5_cif.got.tgz:9481.got - 2010.04.10 20:52:16.
