data_PCOD8267958
_publ_section_title
;
Structure prediction by ZEFSAII (Michael W. Deem and Ramdas Pophale) SiO2 
 PCOD8267958
Probable space group: C M M M
;
_chemical_formula_sum "Si O2"
_cell_formula_units_Z 88
_cell_length_a 18.187117
_cell_length_b 9.082491
_cell_length_c 29.103320
_cell_angle_alpha 90.000000
_cell_angle_beta 90.000000
_cell_angle_gamma 90.000000
_cell_volume 4807.412312
_symmetry_space_group_name_H-M "C M M M"
_symmetry_group_IT_number 65
_symmetry_cell_setting 'orthorhombic'
loop_
_space_group_symop_operation_xyz
x,y,z
-x,-y,z
x,-y,-z
-x,y,-z
-x,-y,-z
x,y,-z
-x,y,z
x,-y,z
1/2+x,1/2+y,z
1/2-x,1/2-y,z
1/2+x,1/2-y,-z
1/2-x,1/2+y,-z
1/2-x,1/2-y,-z
1/2+x,1/2+y,-z
1/2-x,1/2+y,z
1/2+x,1/2-y,z
loop_
_atom_site_type_symbol
_atom_site_label
_atom_site_fract_x
_atom_site_fract_y
_atom_site_fract_z
Si Si1 0.328335 0.825165 0.822610
Si Si2 0.328305 0.826426 0.647764
Si Si3 0.417511 0.825313 0.088709
Si Si4 0.917925 0.675027 0.734323
Si Si5 0.172982 0.671227 0.548523
Si Si6 0.171432 0.324994 0.000000
O O1 0.250000 0.750000 0.825412
O O2 0.376311 0.770407 0.865694
O O3 0.369252 0.769218 0.776838
O O4 0.317980 0.000000 0.822835
O O5 0.250000 0.750000 0.653604
O O6 0.382803 0.766158 0.686851
O O7 0.365349 0.788400 0.597435
O O8 0.315991 0.000000 0.653709
O O9 0.500000 0.759196 0.087904
O O10 0.422091 0.000000 0.088274
O O11 0.373184 0.769271 0.044394
O O12 0.921594 0.500000 0.734576
O O13 0.000000 0.740572 0.738640
O O14 0.129940 0.710874 0.500000
O O15 0.190195 0.500000 0.549091
O O16 0.250000 0.750000 0.547440
O O17 0.250000 0.250000 0.000000
O O18 0.181703 0.500000 0.000000
#
# Coordination Sequence:
#
# PCOD8267958 Si02
#       6
#    16  16  16  16  16   8
#     4  10  19  31  49  70  91 115 144 181 220 258
#     4   9  16  26  42  62  83 108 138 174 212 250
#     4   9  17  30  49  71  92 118 154 188 216 253
#     4   9  17  29  45  64  85 112 146 178 209 251
#     4   8  13  21  34  54  79 104 131 165 205 247
#     4  10  19  31  49  71  95 122 152 188 224 258
#
# _framework density 18.305066
#
# number of rings (size 3 to 8) (size 9 to 14) (size 15 to 20)
#    0.000    2.909    0.000    1.909    0.000    3.273 
#    0.000    0.000    0.000    6.545    0.000    3.818 
#    0.000    0.000    0.000   29.455    0.000   13.818 
#
# Total GULP energy -545108.668174 kJ/mol
# GULP energy per Si atom -12388.833368 kJ/mol
# Density = 1.826340 g / cm^3
# Si number density = 18.305066 Si / 1000 Ang^3
#
#
#
# Elastic Constant Matrix: (Units=GPa)
#
#
# Indices 1 2 3 4 5 6 
#
# 1 148.1452 19.2231 95.9480 0.0000 0.0000 0.0000
# 2 19.2231 12.7124 18.9868 0.0000 0.0000 0.0000
# 3 95.9480 18.9868 219.3673 0.0000 0.0000 0.0000
# 4 0.0000 0.0000 0.0000 11.3749 0.0000 0.0000
# 5 0.0000 0.0000 0.0000 0.0000 26.0831 0.0000
# 6 0.0000 0.0000 0.0000 0.0000 0.0000 21.0335
#
#
#
# Elastic Compliance Matrix: (Units=1/GPa)
#
#
# Indices 1 2 3 4 5 6 
#
# 1 0.010481 -0.010339 -0.003689 0.000000 0.000000 0.000000
# 2 -0.010339 0.100541 -0.004180 0.000000 0.000000 0.000000
# 3 -0.003689 -0.004180 0.006534 0.000000 0.000000 0.000000
# 4 0.000000 0.000000 0.000000 0.087913 0.000000 0.000000
# 5 0.000000 0.000000 0.000000 0.000000 0.038339 0.000000
# 6 0.000000 0.000000 0.000000 0.000000 0.000000 0.047543
#
#
# Mechanical properties :
#
#
# Convention : Reuss Voigt Hill
#
# Bulk Modulus (GPa) = 12.32448 72.06008 42.19228
# Shear Modulus (GPa) = 14.09190 28.10277 21.09734
#
# Velocity S-wave (km/s) = 2.77760 3.92247 3.39859
# Velocity P-wave (km/s) = 4.12725 7.74377 6.20485
#
# Compressibility (1/GPa) = 0.08113935
#
# Stress axis : x y z
#
# Youngs Moduli (GPa) = 95.40877 9.94623 153.04363
#
# Poissons Ratio (x) = 0.10283 0.56465
# Poissons Ratio (y) = 0.98641 0.63973
# Poissons Ratio (z) = 0.35201 0.04158
#
# Static dielectric constant tensor:
#      x y z
#    x 3.238320 0.000000 0.000000 
#    y 0.000000 2.927910 0.000000 
#    z 0.000000 0.000000 4.209080 
# 
# 
# High freq. dielectric constant tensor:
#      x y z
#    x 1.687270 0.000000 0.000000 
#    y 0.000000 1.661590 0.000000 
#    z 0.000000 0.000000 1.745280 
# 
# From -- ./inp_files/74233.got.cif
#   From: 2010.03.12/outbox.cif.g09.slc.cpg/sg65_38_cif.got.tgz:74233.got - 2010.04.10 20:52:16.
