data_PCOD8267818
_publ_section_title
;
Structure prediction by ZEFSAII (Michael W. Deem and Ramdas Pophale) SiO2 
 PCOD8267818
Probable space group: C M M M
;
_chemical_formula_sum "Si O2"
_cell_formula_units_Z 96
_cell_length_a 8.861228
_cell_length_b 27.089790
_cell_length_c 23.553572
_cell_angle_alpha 90.000000
_cell_angle_beta 90.000000
_cell_angle_gamma 90.000000
_cell_volume 5654.006828
_symmetry_space_group_name_H-M "C M M M"
_symmetry_group_IT_number 65
_symmetry_cell_setting 'orthorhombic'
loop_
_space_group_symop_operation_xyz
x,y,z
-x,-y,z
x,-y,-z
-x,y,-z
-x,-y,-z
x,y,-z
-x,y,z
x,-y,z
1/2+x,1/2+y,z
1/2-x,1/2-y,z
1/2+x,1/2-y,-z
1/2-x,1/2+y,-z
1/2-x,1/2-y,-z
1/2+x,1/2+y,-z
1/2-x,1/2+y,z
1/2+x,1/2-y,z
loop_
_atom_site_type_symbol
_atom_site_label
_atom_site_fract_x
_atom_site_fract_y
_atom_site_fract_z
Si Si1 0.825046 0.058206 0.115006
Si Si2 0.673862 0.444424 0.326819
Si Si3 0.170203 0.558585 0.000000
Si Si4 0.172971 0.850288 0.605886
Si Si5 0.175709 0.198178 0.275090
Si Si6 0.323942 0.803316 0.500000
Si Si7 0.678009 0.895460 0.776485
O O1 0.731880 0.085641 0.163083
O O2 0.000000 0.072588 0.118990
O O3 0.801337 0.000000 0.122206
O O4 0.759882 0.077329 0.055178
O O5 0.500000 0.435960 0.308597
O O6 0.702588 0.500000 0.348696
O O7 0.714166 0.406742 0.377558
O O8 0.773824 0.434572 0.271570
O O9 0.165618 0.500000 0.000000
O O10 0.000000 0.579999 0.000000
O O11 0.204946 0.815082 0.659284
O O12 0.280132 0.834299 0.555206
O O13 0.000000 0.845947 0.585854
O O14 0.250000 0.250000 0.260680
O O15 0.249413 0.157648 0.234640
O O16 0.000000 0.200558 0.261352
O O17 0.500000 0.794544 0.500000
O O18 0.250000 0.750000 0.500000
O O19 0.500000 0.890144 0.776113
#
# Coordination Sequence:
#
# PCOD8267818 Si02
#       7
#    16  16   8  16  16   8  16
#     4  10  19  31  47  68  98 135 171 206 245 290
#     4   9  18  34  54  74  98 130 165 201 242 288
#     4   9  17  29  45  67  96 129 166 207 249 293
#     4   9  19  35  54  75  99 126 159 197 238 289
#     4  10  20  35  54  75  99 127 159 199 247 296
#     4  12  24  36  53  74  97 125 158 199 245 292
#     4  11  21  31  47  73 102 132 166 203 244 290
#
# _framework density 16.979109000000001
#
# number of rings (size 3 to 8) (size 9 to 14) (size 15 to 20)
#    0.000    2.083    0.000    5.500    0.000    9.000 
#    0.000    0.417    0.000    2.500    0.000    0.583 
#    0.000    0.000    0.000    0.000    0.000    0.000 
#
# Total GULP energy -595330.937199 kJ/mol
# GULP energy per Si atom -12402.727858 kJ/mol
# Density = 1.694046 g / cm^3
# Si number density = 16.979109 Si / 1000 Ang^3
#
#
#
# Elastic Constant Matrix: (Units=GPa)
#
#
# Indices 1 2 3 4 5 6 
#
# 1 127.0355 50.4839 58.4183 0.0000 0.0000 0.0000
# 2 50.4839 108.6079 46.9494 0.0000 0.0000 0.0000
# 3 58.4183 46.9494 105.3351 0.0000 0.0000 0.0000
# 4 0.0000 0.0000 0.0000 23.8337 0.0000 0.0000
# 5 0.0000 0.0000 0.0000 0.0000 31.3347 0.0000
# 6 0.0000 0.0000 0.0000 0.0000 0.0000 27.1353
#
#
#
# Elastic Compliance Matrix: (Units=1/GPa)
#
#
# Indices 1 2 3 4 5 6 
#
# 1 0.011387 -0.003175 -0.004900 0.000000 0.000000 0.000000
# 2 -0.003175 0.012290 -0.003717 0.000000 0.000000 0.000000
# 3 -0.004900 -0.003717 0.013868 0.000000 0.000000 0.000000
# 4 0.000000 0.000000 0.000000 0.041957 0.000000 0.000000
# 5 0.000000 0.000000 0.000000 0.000000 0.031914 0.000000
# 6 0.000000 0.000000 0.000000 0.000000 0.000000 0.036852
#
#
# Mechanical properties :
#
#
# Convention : Reuss Voigt Hill
#
# Bulk Modulus (GPa) = 71.62902 72.52020 72.07461
# Shear Modulus (GPa) = 28.32779 28.80254 28.56517
#
# Velocity S-wave (km/s) = 4.08903 4.12315 4.10612
# Velocity P-wave (km/s) = 8.03565 8.09143 8.06359
#
# Compressibility (1/GPa) = 0.01396082
#
# Stress axis : x y z
#
# Youngs Moduli (GPa) = 87.82137 81.36711 72.10927
#
# Poissons Ratio (x) = 0.25831 0.35334
# Poissons Ratio (y) = 0.27880 0.26804
# Poissons Ratio (z) = 0.43033 0.30246
#
# Static dielectric constant tensor:
#      x y z
#    x 3.282910 0.000000 0.000000 
#    y 0.000000 3.164910 0.000000 
#    z 0.000000 0.000000 3.114560 
# 
# 
# High freq. dielectric constant tensor:
#      x y z
#    x 1.667270 0.000000 0.000000 
#    y 0.000000 1.642190 0.000000 
#    z 0.000000 0.000000 1.645520 
# 
# From -- ./inp_files/68078.got.cif
#   From: 2010.03.12/outbox.cif.g09.slc.cpg/sg65_35_cif.got.tgz:68078.got - 2010.04.10 20:52:16.
