data_PCOD8267825
_publ_section_title
;
Structure prediction by ZEFSAII (Michael W. Deem and Ramdas Pophale) SiO2 
 PCOD8267825
Probable space group: C M M M
;
_chemical_formula_sum "Si O2"
_cell_formula_units_Z 80
_cell_length_a 27.598118
_cell_length_b 14.536661
_cell_length_c 11.699407
_cell_angle_alpha 90.000000
_cell_angle_beta 90.000000
_cell_angle_gamma 90.000000
_cell_volume 4693.620579
_symmetry_space_group_name_H-M "C M M M"
_symmetry_group_IT_number 65
_symmetry_cell_setting 'orthorhombic'
loop_
_space_group_symop_operation_xyz
x,y,z
-x,-y,z
x,-y,-z
-x,y,-z
-x,-y,-z
x,y,-z
-x,y,z
x,-y,z
1/2+x,1/2+y,z
1/2-x,1/2-y,z
1/2+x,1/2-y,-z
1/2-x,1/2+y,-z
1/2-x,1/2-y,-z
1/2+x,1/2+y,-z
1/2-x,1/2+y,z
1/2+x,1/2-y,z
loop_
_atom_site_type_symbol
_atom_site_label
_atom_site_fract_x
_atom_site_fract_y
_atom_site_fract_z
Si Si1 0.092252 0.608636 0.500000
Si Si2 0.360940 0.794068 0.134522
Si Si3 0.821286 0.900741 0.130835
Si Si4 0.231260 0.348515 0.746375
Si Si5 0.799775 0.391621 0.500000
Si Si6 0.944306 0.393033 0.743149
O O1 0.095512 0.500000 0.500000
O O2 0.146301 0.651843 0.500000
O O3 0.063938 0.641059 0.612992
O O4 0.354063 0.686215 0.171388
O O5 0.321911 0.860427 0.197768
O O6 0.413622 0.828635 0.172459
O O7 0.355378 0.807054 0.000000
O O8 0.771603 0.915584 0.201966
O O9 0.849012 0.000000 0.144238
O O10 0.806452 0.883522 0.000000
O O11 0.250000 0.250000 0.783846
O O12 0.229552 0.359183 0.610354
O O13 0.804086 0.500000 0.500000
O O14 0.929287 0.500000 0.757587
O O15 0.000000 0.378470 0.776116
#
# Coordination Sequence:
#
# PCOD8267825 Si02
#       6
#     8  16  16  16   8  16
#     4   9  17  31  50  70  93 124 161 195 232 283
#     4  10  20  33  49  71  99 128 160 199 241 285
#     4   9  18  33  52  71  94 128 167 202 235 278
#     4  10  19  31  47  69  97 129 161 197 236 282
#     4  11  19  28  45  67  96 129 160 196 236 276
#     4  10  20  34  52  73  97 126 159 196 240 289
#
# _framework density 17.044412000000001
#
# number of rings (size 3 to 8) (size 9 to 14) (size 15 to 20)
#    0.000    2.200    2.000    1.800    0.000    5.200 
#    0.000    1.000    0.000    0.600    0.000    2.800 
#    0.000    1.600    0.000    0.000    0.000    0.000 
#
# Total GULP energy -495771.994760 kJ/mol
# GULP energy per Si atom -12394.299869 kJ/mol
# Density = 1.700562 g / cm^3
# Si number density = 17.044412 Si / 1000 Ang^3
#
#
#
# Elastic Constant Matrix: (Units=GPa)
#
#
# Indices 1 2 3 4 5 6 
#
# 1 86.3322 37.2798 33.6737 0.0000 0.0000 0.0000
# 2 37.2798 74.9697 28.0003 0.0000 0.0000 0.0000
# 3 33.6737 28.0003 94.4950 0.0000 0.0000 0.0000
# 4 0.0000 0.0000 0.0000 19.9008 0.0000 0.0000
# 5 0.0000 0.0000 0.0000 0.0000 24.5775 0.0000
# 6 0.0000 0.0000 0.0000 0.0000 0.0000 19.1643
#
#
#
# Elastic Compliance Matrix: (Units=1/GPa)
#
#
# Indices 1 2 3 4 5 6 
#
# 1 0.015835 -0.006484 -0.003721 0.000000 0.000000 0.000000
# 2 -0.006484 0.017654 -0.002920 0.000000 0.000000 0.000000
# 3 -0.003721 -0.002920 0.012774 0.000000 0.000000 0.000000
# 4 0.000000 0.000000 0.000000 0.050249 0.000000 0.000000
# 5 0.000000 0.000000 0.000000 0.000000 0.040688 0.000000
# 6 0.000000 0.000000 0.000000 0.000000 0.000000 0.052180
#
#
# Mechanical properties :
#
#
# Convention : Reuss Voigt Hill
#
# Bulk Modulus (GPa) = 49.97353 50.41162 50.19257
# Shear Modulus (GPa) = 22.49195 23.18473 22.83834
#
# Velocity S-wave (km/s) = 3.63658 3.69216 3.66448
# Velocity P-wave (km/s) = 6.85684 6.91498 6.88597
#
# Compressibility (1/GPa) = 0.02001060
#
# Stress axis : x y z
#
# Youngs Moduli (GPa) = 63.15270 56.64502 78.28354
#
# Poissons Ratio (x) = 0.36729 0.29132
# Poissons Ratio (y) = 0.40949 0.22862
# Poissons Ratio (z) = 0.23502 0.16543
#
# Static dielectric constant tensor:
#      x y z
#    x 3.078610 0.000000 0.000000 
#    y 0.000000 3.138400 0.000000 
#    z 0.000000 0.000000 3.168360 
# 
# 
# High freq. dielectric constant tensor:
#      x y z
#    x 1.635820 0.000000 0.000000 
#    y 0.000000 1.642460 0.000000 
#    z 0.000000 0.000000 1.663970 
# 
# From -- ./inp_files/24707.got.cif
#   From: 2010.03.12/outbox.cif.g09.slc.cpg/sg65_13_cif.got.tgz:24707.got - 2010.04.10 20:52:16.
