data_PCOD8267404
_publ_section_title
;
Structure prediction by ZEFSAII (Michael W. Deem and Ramdas Pophale) SiO2 
 PCOD8267404
Probable space group: C M M M
;
_chemical_formula_sum "Si O2"
_cell_formula_units_Z 120
_cell_length_a 23.782420
_cell_length_b 21.271205
_cell_length_c 14.794029
_cell_angle_alpha 90.000000
_cell_angle_beta 90.000000
_cell_angle_gamma 90.000000
_cell_volume 7484.014208
_symmetry_space_group_name_H-M "C M M M"
_symmetry_group_IT_number 65
_symmetry_cell_setting 'orthorhombic'
loop_
_space_group_symop_operation_xyz
x,y,z
-x,-y,z
x,-y,-z
-x,y,-z
-x,-y,-z
x,y,-z
-x,y,z
x,-y,z
1/2+x,1/2+y,z
1/2-x,1/2-y,z
1/2+x,1/2-y,-z
1/2-x,1/2+y,-z
1/2-x,1/2-y,-z
1/2+x,1/2+y,-z
1/2-x,1/2+y,z
1/2+x,1/2-y,z
loop_
_atom_site_type_symbol
_atom_site_label
_atom_site_fract_x
_atom_site_fract_y
_atom_site_fract_z
Si Si1 0.366251 0.617395 0.897533
Si Si2 0.559773 0.875916 0.605426
Si Si3 0.781878 0.660637 0.743671
Si Si4 0.327556 0.929578 0.605669
Si Si5 0.435336 0.270150 0.604619
Si Si6 0.157509 0.211759 0.746497
Si Si7 0.740460 0.071528 0.101188
Si Si8 0.436439 0.500000 0.892530
O O1 0.367934 0.681114 0.837909
O O2 0.306271 0.584518 0.895358
O O3 0.408138 0.564469 0.856704
O O4 0.382653 0.636948 0.000000
O O5 0.554254 0.888462 0.500000
O O6 0.500000 0.894057 0.651643
O O7 0.609200 0.919492 0.644323
O O8 0.573005 0.803252 0.622643
O O9 0.787816 0.619845 0.653664
O O10 0.829562 0.714035 0.754779
O O11 0.718414 0.682664 0.729100
O O12 0.791758 0.618172 0.832019
O O13 0.324991 0.914447 0.500000
O O14 0.307713 0.000000 0.627186
O O15 0.423163 0.287316 0.500000
O O16 0.500000 0.289957 0.629131
O O17 0.388051 0.303449 0.667418
O O18 0.729143 0.000000 0.131249
O O19 0.717561 0.083496 0.000000
O O20 0.500000 0.500000 0.857717
O O21 0.430939 0.500000 0.000000
#
# Coordination Sequence:
#
# PCOD8267404 Si02
#       8
#    16  16  16  16  16  16  16   8
#     4   9  17  30  47  69  95 122 151 187 236 287
#     4   8  14  26  44  64  86 114 149 189 230 270
#     4  10  20  31  43  68 100 125 155 194 232 280
#     4  10  19  30  45  66  95 127 155 190 238 284
#     4   9  17  31  50  68  89 120 159 198 228 264
#     4  10  20  31  47  70  95 127 158 188 237 286
#     4   9  16  29  49  66  86 124 165 193 225 270
#     4   9  16  28  48  72  95 117 147 191 239 284
#
# _framework density 16.034175999999999
#
# number of rings (size 3 to 8) (size 9 to 14) (size 15 to 20)
#    0.000    2.733    2.000    1.200    0.000    1.867 
#    0.000    5.333    0.000    0.000    0.000    0.000 
#    0.000    2.133    0.000    4.533    0.000    0.133 
#
# Total GULP energy -743398.706221 kJ/mol
# GULP energy per Si atom -12389.978437 kJ/mol
# Density = 1.599768 g / cm^3
# Si number density = 16.034176 Si / 1000 Ang^3
#
#
#
# Elastic Constant Matrix: (Units=GPa)
#
#
# Indices 1 2 3 4 5 6 
#
# 1 62.6292 31.7119 42.0156 0.0000 0.0000 0.0000
# 2 31.7119 85.1606 53.3759 0.0000 0.0000 0.0000
# 3 42.0156 53.3759 80.0229 0.0000 0.0000 0.0000
# 4 0.0000 0.0000 0.0000 26.0392 0.0000 0.0000
# 5 0.0000 0.0000 0.0000 0.0000 17.4658 0.0000
# 6 0.0000 0.0000 0.0000 0.0000 0.0000 13.2410
#
#
#
# Elastic Compliance Matrix: (Units=1/GPa)
#
#
# Indices 1 2 3 4 5 6 
#
# 1 0.024817 -0.001846 -0.011799 0.000000 0.000000 0.000000
# 2 -0.001846 0.020316 -0.012581 0.000000 0.000000 0.000000
# 3 -0.011799 -0.012581 0.027083 0.000000 0.000000 0.000000
# 4 0.000000 0.000000 0.000000 0.038404 0.000000 0.000000
# 5 0.000000 0.000000 0.000000 0.000000 0.057255 0.000000
# 6 0.000000 0.000000 0.000000 0.000000 0.000000 0.075523
#
#
# Mechanical properties :
#
#
# Convention : Reuss Voigt Hill
#
# Bulk Modulus (GPa) = 50.59869 53.55770 52.07820
# Shear Modulus (GPa) = 16.53237 18.06314 17.29775
#
# Velocity S-wave (km/s) = 3.21451 3.36004 3.28808
# Velocity P-wave (km/s) = 6.73816 6.96619 6.85312
#
# Compressibility (1/GPa) = 0.01976336
#
# Stress axis : x y z
#
# Youngs Moduli (GPa) = 40.29481 49.22337 36.92366
#
# Poissons Ratio (x) = 0.09089 0.43564
# Poissons Ratio (y) = 0.07440 0.46454
# Poissons Ratio (z) = 0.47542 0.61929
#
# Static dielectric constant tensor:
#      x y z
#    x 3.048460 0.000000 0.000000 
#    y 0.000000 3.037540 0.000000 
#    z 0.000000 0.000000 2.948550 
# 
# 
# High freq. dielectric constant tensor:
#      x y z
#    x 1.610240 0.000000 0.000000 
#    y 0.000000 1.610280 0.000000 
#    z 0.000000 0.000000 1.592210 
# 
# From -- ./inp_files/46104.got.cif
#   From: 2010.03.12/outbox.cif.g09.slc.cpg/sg65_24_cif.got.tgz:46104.got - 2010.04.10 20:52:16.
