data_PCOD8267886
_publ_section_title
;
Structure prediction by ZEFSAII (Michael W. Deem and Ramdas Pophale) SiO2 
 PCOD8267886
Probable space group: C M M M
;
_chemical_formula_sum "Si O2"
_cell_formula_units_Z 80
_cell_length_a 16.870974
_cell_length_b 15.122611
_cell_length_c 18.719714
_cell_angle_alpha 90.000000
_cell_angle_beta 90.000000
_cell_angle_gamma 90.000000
_cell_volume 4776.020105
_symmetry_space_group_name_H-M "C M M M"
_symmetry_group_IT_number 65
_symmetry_cell_setting 'orthorhombic'
loop_
_space_group_symop_operation_xyz
x,y,z
-x,-y,z
x,-y,-z
-x,y,-z
-x,-y,-z
x,y,-z
-x,y,z
x,-y,z
1/2+x,1/2+y,z
1/2-x,1/2-y,z
1/2+x,1/2-y,-z
1/2-x,1/2+y,-z
1/2-x,1/2-y,-z
1/2+x,1/2+y,-z
1/2-x,1/2+y,z
1/2+x,1/2-y,z
loop_
_atom_site_type_symbol
_atom_site_label
_atom_site_fract_x
_atom_site_fract_y
_atom_site_fract_z
Si Si1 0.213044 0.598241 0.244858
Si Si2 0.812033 0.180243 0.371961
Si Si3 0.638914 0.399296 0.846787
Si Si4 0.910305 0.897287 0.500000
Si Si5 0.411993 0.604090 0.000000
Si Si6 0.588664 0.754527 0.748014
O O1 0.177349 0.500000 0.254228
O O2 0.262725 0.620100 0.316420
O O3 0.269966 0.602953 0.176480
O O4 0.144096 0.666278 0.224610
O O5 0.750000 0.250000 0.406642
O O6 0.856979 0.125516 0.431843
O O7 0.881900 0.230428 0.330766
O O8 0.604958 0.500000 0.837671
O O9 0.589027 0.331365 0.798775
O O10 0.634351 0.366170 0.928716
O O11 0.000000 0.853892 0.500000
O O12 0.924214 0.000000 0.500000
O O13 0.419574 0.500000 0.000000
O O14 0.500000 0.646549 0.000000
O O15 0.500000 0.791184 0.742870
#
# Coordination Sequence:
#
# PCOD8267886 Si02
#       6
#    16  16  16   8   8  16
#     4   9  18  33  50  67  90 122 158 191 225 269
#     4   9  18  33  50  66  88 120 155 188 223 266
#     4   9  17  30  48  69  94 122 151 185 228 278
#     4  11  21  30  44  70  99 121 144 178 224 277
#     4   9  16  26  43  70  98 120 147 187 232 272
#     4  10  19  31  48  70  94 120 153 192 231 269
#
# _framework density 16.750349
#
# number of rings (size 3 to 8) (size 9 to 14) (size 15 to 20)
#    0.000    2.600    0.000    3.900    0.000    2.400 
#    0.000    2.000    0.000    0.000    0.000    0.000 
#    0.000   20.800    0.000    0.000    0.000    0.000 
#
# Total GULP energy -495691.627031 kJ/mol
# GULP energy per Si atom -12392.290676 kJ/mol
# Density = 1.671222 g / cm^3
# Si number density = 16.750349 Si / 1000 Ang^3
#
#
#
# Elastic Constant Matrix: (Units=GPa)
#
#
# Indices 1 2 3 4 5 6 
#
# 1 113.6250 48.2929 51.6415 0.0000 0.0000 0.0000
# 2 48.2929 83.0426 30.9402 0.0000 0.0000 0.0000
# 3 51.6415 30.9402 95.9129 0.0000 0.0000 0.0000
# 4 0.0000 0.0000 0.0000 18.8033 0.0000 0.0000
# 5 0.0000 0.0000 0.0000 0.0000 24.0647 0.0000
# 6 0.0000 0.0000 0.0000 0.0000 0.0000 21.0874
#
#
#
# Elastic Compliance Matrix: (Units=1/GPa)
#
#
# Indices 1 2 3 4 5 6 
#
# 1 0.013865 -0.006003 -0.005529 0.000000 0.000000 0.000000
# 2 -0.006003 0.016286 -0.002021 0.000000 0.000000 0.000000
# 3 -0.005529 -0.002021 0.014055 0.000000 0.000000 0.000000
# 4 0.000000 0.000000 0.000000 0.053182 0.000000 0.000000
# 5 0.000000 0.000000 0.000000 0.000000 0.041555 0.000000
# 6 0.000000 0.000000 0.000000 0.000000 0.000000 0.047422
#
#
# Mechanical properties :
#
#
# Convention : Reuss Voigt Hill
#
# Bulk Modulus (GPa) = 58.48096 61.59217 60.03656
# Shear Modulus (GPa) = 22.81319 23.57150 23.19234
#
# Velocity S-wave (km/s) = 3.69447 3.75537 3.72504
# Velocity P-wave (km/s) = 7.29300 7.46018 7.37706
#
# Compressibility (1/GPa) = 0.01709958
#
# Stress axis : x y z
#
# Youngs Moduli (GPa) = 72.12336 61.40112 71.14915
#
# Poissons Ratio (x) = 0.36861 0.39336
# Poissons Ratio (y) = 0.43298 0.14383
# Poissons Ratio (z) = 0.39875 0.12412
#
# Static dielectric constant tensor:
#      x y z
#    x 3.133330 0.000000 0.000000 
#    y 0.000000 3.136450 0.000000 
#    z 0.000000 0.000000 3.153460 
# 
# 
# High freq. dielectric constant tensor:
#      x y z
#    x 1.641530 0.000000 0.000000 
#    y 0.000000 1.634590 0.000000 
#    z 0.000000 0.000000 1.639030 
# 
# From -- ./inp_files/52907.got.cif
#   From: 2010.03.12/outbox.cif.g09.slc.cpg/sg65_27_cif.got.tgz:52907.got - 2010.04.10 20:52:16.
