data_PCOD8267221
_publ_section_title
;
Structure prediction by ZEFSAII (Michael W. Deem and Ramdas Pophale) SiO2 
 PCOD8267221
Probable space group: C M M M
;
_chemical_formula_sum "Si O2"
_cell_formula_units_Z 112
_cell_length_a 28.879780
_cell_length_b 16.875670
_cell_length_c 13.951928
_cell_angle_alpha 90.000000
_cell_angle_beta 90.000000
_cell_angle_gamma 90.000000
_cell_volume 6799.690276
_symmetry_space_group_name_H-M "C M M M"
_symmetry_group_IT_number 65
_symmetry_cell_setting 'orthorhombic'
loop_
_space_group_symop_operation_xyz
x,y,z
-x,-y,z
x,-y,-z
-x,y,-z
-x,-y,-z
x,y,-z
-x,y,z
x,-y,z
1/2+x,1/2+y,z
1/2-x,1/2-y,z
1/2+x,1/2-y,-z
1/2-x,1/2+y,-z
1/2-x,1/2-y,-z
1/2+x,1/2+y,-z
1/2-x,1/2+y,z
1/2+x,1/2-y,z
loop_
_atom_site_type_symbol
_atom_site_label
_atom_site_fract_x
_atom_site_fract_y
_atom_site_fract_z
Si Si1 0.319738 0.836635 0.610787
Si Si2 0.551023 0.410142 0.386393
Si Si3 0.267855 0.408813 0.298003
Si Si4 0.862851 0.407332 0.214312
Si Si5 0.550498 0.905686 0.107613
Si Si6 0.726160 0.906676 0.894494
Si Si7 0.353817 0.660159 0.611623
O O1 0.326931 0.858469 0.500000
O O2 0.266371 0.852583 0.639956
O O3 0.354004 0.890322 0.673952
O O4 0.334932 0.747284 0.632770
O O5 0.549619 0.408236 0.500000
O O6 0.500000 0.381604 0.348120
O O7 0.560431 0.500000 0.351088
O O8 0.593326 0.353563 0.350759
O O9 0.251573 0.500000 0.311798
O O10 0.265423 0.385897 0.184638
O O11 0.320300 0.399814 0.332312
O O12 0.865024 0.500000 0.198374
O O13 0.911402 0.369437 0.179897
O O14 0.821891 0.371848 0.148023
O O15 0.500000 0.872983 0.138239
O O16 0.549965 0.000000 0.111797
O O17 0.562561 0.877984 0.000000
O O18 0.721709 0.000000 0.906736
O O19 0.736874 0.869201 0.000000
O O20 0.350829 0.639122 0.500000
#
# Coordination Sequence:
#
# PCOD8267221 Si02
#       7
#    16  16  16  16  16  16  16
#     4  10  20  31  41  57  85 120 151 178 210 249
#     4   8  14  26  45  67  87 106 133 174 220 259
#     4  10  19  29  45  67  87 112 147 182 212 250
#     4   9  16  26  42  60  78 107 146 184 217 253
#     4   8  13  22  39  63  85 102 128 175 231 275
#     4   8  14  25  41  61  83 105 132 169 211 253
#     4  10  19  30  44  62  88 119 145 174 217 264
#
# _framework density 16.471339
#
# number of rings (size 3 to 8) (size 9 to 14) (size 15 to 20)
#    0.000    3.000    0.000    3.857    0.000    5.429 
#    0.000    0.714    0.000    9.000    0.000    2.000 
#    0.000    0.571    0.000    5.286    0.000    0.714 
#
# Total GULP energy -693794.322905 kJ/mol
# GULP energy per Si atom -12389.184338 kJ/mol
# Density = 1.643385 g / cm^3
# Si number density = 16.471339 Si / 1000 Ang^3
#
#
#
# Elastic Constant Matrix: (Units=GPa)
#
#
# Indices 1 2 3 4 5 6 
#
# 1 137.1311 30.0562 46.3010 0.0000 0.0000 0.0000
# 2 30.0562 32.4483 13.4341 0.0000 0.0000 0.0000
# 3 46.3010 13.4341 84.4607 0.0000 0.0000 0.0000
# 4 0.0000 0.0000 0.0000 5.5016 0.0000 0.0000
# 5 0.0000 0.0000 0.0000 0.0000 22.6157 0.0000
# 6 0.0000 0.0000 0.0000 0.0000 0.0000 17.2436
#
#
#
# Elastic Compliance Matrix: (Units=1/GPa)
#
#
# Indices 1 2 3 4 5 6 
#
# 1 0.010553 -0.007900 -0.004528 0.000000 0.000000 0.000000
# 2 -0.007900 0.038905 -0.001857 0.000000 0.000000 0.000000
# 3 -0.004528 -0.001857 0.014618 0.000000 0.000000 0.000000
# 4 0.000000 0.000000 0.000000 0.181764 0.000000 0.000000
# 5 0.000000 0.000000 0.000000 0.000000 0.044217 0.000000
# 6 0.000000 0.000000 0.000000 0.000000 0.000000 0.057993
#
#
# Mechanical properties :
#
#
# Convention : Reuss Voigt Hill
#
# Bulk Modulus (GPa) = 28.16602 48.18029 38.17316
# Shear Modulus (GPa) = 12.87151 20.02210 16.44681
#
# Velocity S-wave (km/s) = 2.79847 3.49029 3.16335
# Velocity P-wave (km/s) = 5.25158 6.74962 6.04716
#
# Compressibility (1/GPa) = 0.03550377
#
# Stress axis : x y z
#
# Youngs Moduli (GPa) = 94.76172 25.70376 68.41003
#
# Poissons Ratio (x) = 0.20306 0.30979
# Poissons Ratio (y) = 0.74861 0.12706
# Poissons Ratio (z) = 0.42912 0.04774
#
# Static dielectric constant tensor:
#      x y z
#    x 3.487820 0.000000 0.000000 
#    y 0.000000 2.782190 0.000000 
#    z 0.000000 0.000000 3.090790 
# 
# 
# High freq. dielectric constant tensor:
#      x y z
#    x 1.635730 0.000000 0.000000 
#    y 0.000000 1.594400 0.000000 
#    z 0.000000 0.000000 1.615480 
# 
# From -- ./inp_files/47036.got.cif
#   From: 2010.03.12/outbox.cif.g09.slc.cpg/sg65_24_cif.got.tgz:47036.got - 2010.04.10 20:52:16.
