data_PCOD8267556
_publ_section_title
;
Structure prediction by ZEFSAII (Michael W. Deem and Ramdas Pophale) SiO2 
 PCOD8267556
Probable space group: C M M M
;
_chemical_formula_sum "Si O2"
_cell_formula_units_Z 96
_cell_length_a 17.641846
_cell_length_b 25.534125
_cell_length_c 11.766952
_cell_angle_alpha 90.000000
_cell_angle_beta 90.000000
_cell_angle_gamma 90.000000
_cell_volume 5300.648289
_symmetry_space_group_name_H-M "C M M M"
_symmetry_group_IT_number 65
_symmetry_cell_setting 'orthorhombic'
loop_
_space_group_symop_operation_xyz
x,y,z
-x,-y,z
x,-y,-z
-x,y,-z
-x,-y,-z
x,y,-z
-x,y,z
x,-y,z
1/2+x,1/2+y,z
1/2-x,1/2-y,z
1/2+x,1/2-y,-z
1/2-x,1/2+y,-z
1/2-x,1/2-y,-z
1/2+x,1/2+y,-z
1/2-x,1/2+y,z
1/2+x,1/2-y,z
loop_
_atom_site_type_symbol
_atom_site_label
_atom_site_fract_x
_atom_site_fract_y
_atom_site_fract_z
Si Si1 0.410300 0.784219 0.000000
Si Si2 0.705429 0.559482 0.630079
Si Si3 0.590537 0.250499 0.760326
Si Si4 0.086591 0.346938 0.376361
Si Si5 0.591058 0.094495 0.000000
Si Si6 0.086802 0.147381 0.368653
Si Si7 0.357320 0.940448 0.758791
O O1 0.378446 0.754365 0.110906
O O2 0.386043 0.844773 0.000000
O O3 0.500000 0.781982 0.000000
O O4 0.733145 0.569009 0.500000
O O5 0.677444 0.500000 0.645272
O O6 0.634740 0.596081 0.660905
O O7 0.771889 0.572556 0.719047
O O8 0.500000 0.248170 0.758209
O O9 0.625260 0.200944 0.691812
O O10 0.619262 0.304419 0.705243
O O11 0.126268 0.352714 0.500000
O O12 0.088261 0.401150 0.308005
O O13 0.000000 0.331868 0.394129
O O14 0.630282 0.067072 0.107495
O O15 0.500000 0.085882 0.000000
O O16 0.094098 0.163576 0.500000
O O17 0.000000 0.134827 0.336862
O O18 0.378027 0.000000 0.724985
#
# Coordination Sequence:
#
# PCOD8267556 Si02
#       7
#     8  16  16  16   8  16  16
#     4   9  16  29  51  73  98 134 171 211 258 303
#     4   9  19  36  55  76 106 142 175 209 259 319
#     4   9  16  29  49  75 105 134 168 212 262 311
#     4  10  19  30  47  71 100 135 173 213 257 308
#     4  11  21  36  56  78 100 134 185 230 261 297
#     4   9  17  31  55  84 108 132 169 216 259 308
#     4  11  22  35  51  71 101 139 175 216 264 310
#
# _framework density 18.110993000000001
#
# number of rings (size 3 to 8) (size 9 to 14) (size 15 to 20)
#    0.000    2.333    1.667    1.750    0.000    5.000 
#    0.000    4.167    0.000    4.000    0.000    0.000 
#    0.000    6.000    0.000    0.000    0.000    0.000 
#
# Total GULP energy -595046.418817 kJ/mol
# GULP energy per Si atom -12396.800392 kJ/mol
# Density = 1.806977 g / cm^3
# Si number density = 18.110993 Si / 1000 Ang^3
#
#
#
# Elastic Constant Matrix: (Units=GPa)
#
#
# Indices 1 2 3 4 5 6 
#
# 1 50.4759 42.5225 35.2763 0.0000 0.0000 0.0000
# 2 42.5225 125.5382 64.0058 0.0000 0.0000 0.0000
# 3 35.2763 64.0058 136.5662 0.0000 0.0000 0.0000
# 4 0.0000 0.0000 0.0000 29.2062 0.0000 0.0000
# 5 0.0000 0.0000 0.0000 0.0000 21.0585 0.0000
# 6 0.0000 0.0000 0.0000 0.0000 0.0000 11.4635
#
#
#
# Elastic Compliance Matrix: (Units=1/GPa)
#
#
# Indices 1 2 3 4 5 6 
#
# 1 0.029160 -0.007932 -0.003815 0.000000 0.000000 0.000000
# 2 -0.007932 0.012625 -0.003868 0.000000 0.000000 0.000000
# 3 -0.003815 -0.003868 0.010121 0.000000 0.000000 0.000000
# 4 0.000000 0.000000 0.000000 0.034239 0.000000 0.000000
# 5 0.000000 0.000000 0.000000 0.000000 0.047487 0.000000
# 6 0.000000 0.000000 0.000000 0.000000 0.000000 0.087234
#
#
# Mechanical properties :
#
#
# Convention : Reuss Voigt Hill
#
# Bulk Modulus (GPa) = 48.36638 66.24328 57.30483
# Shear Modulus (GPa) = 19.30609 23.73067 21.51838
#
# Velocity S-wave (km/s) = 3.26849 3.62372 3.45068
# Velocity P-wave (km/s) = 6.40371 7.35963 6.89825
#
# Compressibility (1/GPa) = 0.02067552
#
# Stress axis : x y z
#
# Youngs Moduli (GPa) = 34.29403 79.21072 98.80819
#
# Poissons Ratio (x) = 0.62831 0.37691
# Poissons Ratio (y) = 0.27202 0.38218
# Poissons Ratio (z) = 0.13082 0.30638
#
# Static dielectric constant tensor:
#      x y z
#    x 2.933290 0.000000 0.000000 
#    y 0.000000 3.412980 0.000000 
#    z 0.000000 0.000000 3.649100 
# 
# 
# High freq. dielectric constant tensor:
#      x y z
#    x 1.657340 0.000000 0.000000 
#    y 0.000000 1.709730 0.000000 
#    z 0.000000 0.000000 1.706950 
# 
# From -- ./inp_files/27431.got.cif
#   From: 2010.03.12/outbox.cif.g09.slc.cpg/sg65_14_cif.got.tgz:27431.got - 2010.04.10 20:52:16.
