data_PCOD8267002
_publ_section_title
;
Structure prediction by ZEFSAII (Michael W. Deem and Ramdas Pophale) SiO2 
 PCOD8267002
Probable space group: C M M M
;
_chemical_formula_sum "Si O2"
_cell_formula_units_Z 88
_cell_length_a 29.146399
_cell_length_b 14.232803
_cell_length_c 11.599814
_cell_angle_alpha 90.000000
_cell_angle_beta 90.000000
_cell_angle_gamma 90.000000
_cell_volume 4812.008320
_symmetry_space_group_name_H-M "C M M M"
_symmetry_group_IT_number 65
_symmetry_cell_setting 'orthorhombic'
loop_
_space_group_symop_operation_xyz
x,y,z
-x,-y,z
x,-y,-z
-x,y,-z
-x,-y,-z
x,y,-z
-x,y,z
x,-y,z
1/2+x,1/2+y,z
1/2-x,1/2-y,z
1/2+x,1/2-y,-z
1/2-x,1/2+y,-z
1/2-x,1/2-y,-z
1/2+x,1/2+y,-z
1/2-x,1/2+y,z
1/2+x,1/2-y,z
loop_
_atom_site_type_symbol
_atom_site_label
_atom_site_fract_x
_atom_site_fract_y
_atom_site_fract_z
Si Si1 0.205136 0.388296 0.746499
Si Si2 0.679329 0.890583 0.500000
Si Si3 0.297132 0.606527 0.132897
Si Si4 0.367820 0.235485 0.865563
Si Si5 0.448190 0.749468 0.309318
Si Si6 0.445508 0.394330 0.500000
Si Si7 0.427640 0.890156 0.500000
O O1 0.200450 0.500000 0.750938
O O2 0.201512 0.347848 0.616093
O O3 0.253954 0.354660 0.795282
O O4 0.163495 0.350177 0.823284
O O5 0.625964 0.868346 0.500000
O O6 0.689307 0.000000 0.500000
O O7 0.309164 0.500000 0.167181
O O8 0.341667 0.667413 0.161268
O O9 0.282838 0.614978 0.000000
O O10 0.416305 0.237335 0.801285
O O11 0.378198 0.222697 0.000000
O O12 0.500000 0.730254 0.265755
O O13 0.429384 0.662045 0.386108
O O14 0.448992 0.843945 0.385931
O O15 0.424722 0.500000 0.500000
O O16 0.500000 0.397403 0.500000
O O17 0.439376 0.000000 0.500000
#
# Coordination Sequence:
#
# PCOD8267002 Si02
#       7
#    16   8  16  16  16   8   8
#     4  10  19  34  55  79 107 137 174 218 264 317
#     4   9  17  30  52  78 105 137 168 206 261 315
#     4   9  19  36  56  76 100 135 179 221 259 308
#     4  11  22  35  53  76 106 144 183 220 260 309
#     4  10  21  35  54  81 108 137 177 220 266 318
#     4   8  16  34  58  79  99 126 166 219 271 316
#     4  10  18  35  58  79 105 139 177 217 263 317
#
# _framework density 18.287583000000001
#
# number of rings (size 3 to 8) (size 9 to 14) (size 15 to 20)
#    0.000    2.273    1.818    1.909    0.000    4.364 
#    0.000    3.636    0.000    1.091    0.000    7.636 
#    0.000    0.000    0.000    0.000    0.000    0.000 
#
# Total GULP energy -545591.676635 kJ/mol
# GULP energy per Si atom -12399.810833 kJ/mol
# Density = 1.824596 g / cm^3
# Si number density = 18.287583 Si / 1000 Ang^3
#
#
#
# Elastic Constant Matrix: (Units=GPa)
#
#
# Indices 1 2 3 4 5 6 
#
# 1 97.5054 32.1173 71.4674 0.0000 0.0000 0.0000
# 2 32.1173 66.0917 30.9887 0.0000 0.0000 0.0000
# 3 71.4674 30.9887 123.3123 0.0000 0.0000 0.0000
# 4 0.0000 0.0000 0.0000 17.6451 0.0000 0.0000
# 5 0.0000 0.0000 0.0000 0.0000 26.6587 0.0000
# 6 0.0000 0.0000 0.0000 0.0000 0.0000 22.4143
#
#
#
# Elastic Compliance Matrix: (Units=1/GPa)
#
#
# Indices 1 2 3 4 5 6 
#
# 1 0.018994 -0.004612 -0.009849 0.000000 0.000000 0.000000
# 2 -0.004612 0.018271 -0.001919 0.000000 0.000000 0.000000
# 3 -0.009849 -0.001919 0.014300 0.000000 0.000000 0.000000
# 4 0.000000 0.000000 0.000000 0.056673 0.000000 0.000000
# 5 0.000000 0.000000 0.000000 0.000000 0.037511 0.000000
# 6 0.000000 0.000000 0.000000 0.000000 0.000000 0.044614
#
#
# Mechanical properties :
#
#
# Convention : Reuss Voigt Hill
#
# Bulk Modulus (GPa) = 53.17627 61.78400 57.48013
# Shear Modulus (GPa) = 21.79668 23.49934 22.64801
#
# Velocity S-wave (km/s) = 3.45611 3.58856 3.52296
# Velocity P-wave (km/s) = 6.71321 7.14342 6.93165
#
# Compressibility (1/GPa) = 0.01880538
#
# Stress axis : x y z
#
# Youngs Moduli (GPa) = 52.64781 54.73047 69.93042
#
# Poissons Ratio (x) = 0.25242 0.68876
# Poissons Ratio (y) = 0.24282 0.13417
# Poissons Ratio (z) = 0.51854 0.10501
#
# Static dielectric constant tensor:
#      x y z
#    x 3.222260 0.000000 0.000000 
#    y 0.000000 3.472010 0.000000 
#    z 0.000000 0.000000 3.522180 
# 
# 
# High freq. dielectric constant tensor:
#      x y z
#    x 1.697440 0.000000 0.000000 
#    y 0.000000 1.708640 0.000000 
#    z 0.000000 0.000000 1.705570 
# 
# From -- ./inp_files/32255.got.cif
#   From: 2010.03.12/outbox.cif.g09.slc.cpg/sg65_17_cif.got.tgz:32255.got - 2010.04.10 20:52:16.
