data_PCOD8267167
_publ_section_title
;
Structure prediction by ZEFSAII (Michael W. Deem and Ramdas Pophale) SiO2 
 PCOD8267167
Probable space group: C M M M
;
_chemical_formula_sum "Si O2"
_cell_formula_units_Z 92
_cell_length_a 18.269379
_cell_length_b 25.589828
_cell_length_c 12.395744
_cell_angle_alpha 90.000000
_cell_angle_beta 90.000000
_cell_angle_gamma 90.000000
_cell_volume 5795.137578
_symmetry_space_group_name_H-M "C M M M"
_symmetry_group_IT_number 65
_symmetry_cell_setting 'orthorhombic'
loop_
_space_group_symop_operation_xyz
x,y,z
-x,-y,z
x,-y,-z
-x,y,-z
-x,-y,-z
x,y,-z
-x,y,z
x,-y,z
1/2+x,1/2+y,z
1/2-x,1/2-y,z
1/2+x,1/2-y,-z
1/2-x,1/2+y,-z
1/2-x,1/2-y,-z
1/2+x,1/2+y,-z
1/2-x,1/2+y,z
1/2+x,1/2-y,z
loop_
_atom_site_type_symbol
_atom_site_label
_atom_site_fract_x
_atom_site_fract_y
_atom_site_fract_z
Si Si1 0.330953 0.305666 0.127799
Si Si2 0.666185 0.810938 0.872298
Si Si3 0.818120 0.500000 0.500000
Si Si4 0.914857 0.604902 0.265653
Si Si5 0.678005 0.500000 0.871830
Si Si6 0.417978 0.098693 0.500000
Si Si7 0.418236 0.596516 0.128582
Si Si8 0.179753 0.500000 0.733833
O O1 0.356848 0.247883 0.163159
O O2 0.249341 0.319650 0.168326
O O3 0.387204 0.348569 0.173819
O O4 0.328452 0.307544 0.000000
O O5 0.613106 0.852049 0.817165
O O6 0.659113 0.818540 0.000000
O O7 0.868154 0.549382 0.500000
O O8 0.777137 0.500000 0.616500
O O9 0.904035 0.629297 0.387170
O O10 0.870803 0.550931 0.251611
O O11 0.000000 0.593711 0.241283
O O12 0.633815 0.550363 0.829751
O O13 0.759238 0.500000 0.825450
O O14 0.685423 0.500000 0.000000
O O15 0.500000 0.077000 0.500000
O O16 0.500000 0.588406 0.174487
O O17 0.420062 0.596600 0.000000
#
# Coordination Sequence:
#
# PCOD8267167 Si02
#       8
#    16  16   4  16   8   8  16   8
#     4   8  15  28  44  60  83 118 152 178 207 248
#     4   9  17  29  44  63  88 117 147 177 212 255
#     4   8  15  28  46  64  77 100 146 192 210 228
#     4  10  19  30  45  64  87 114 145 180 213 249
#     4  10  19  29  43  65  93 118 135 163 217 274
#     4   8  15  28  44  61  81 108 141 178 220 253
#     4   9  16  26  41  62  87 113 144 180 213 248
#     4  10  19  31  46  63  86 115 146 176 210 253
#
# _framework density 15.875377
#
# number of rings (size 3 to 8) (size 9 to 14) (size 15 to 20)
#    0.000    2.957    0.000    2.739    0.000    6.261 
#    0.000    1.739    0.000    3.652    0.000    2.435 
#    0.000    0.000    0.000    0.000    0.000    0.000 
#
# Total GULP energy -569872.568454 kJ/mol
# GULP energy per Si atom -12388.534097 kJ/mol
# Density = 1.583924 g / cm^3
# Si number density = 15.875377 Si / 1000 Ang^3
#
#
#
# Elastic Constant Matrix: (Units=GPa)
#
#
# Indices 1 2 3 4 5 6 
#
# 1 104.2475 61.1069 34.4487 0.0000 0.0000 0.0000
# 2 61.1069 113.4413 35.6217 0.0000 0.0000 0.0000
# 3 34.4487 35.6217 48.1486 0.0000 0.0000 0.0000
# 4 0.0000 0.0000 0.0000 10.5936 0.0000 0.0000
# 5 0.0000 0.0000 0.0000 0.0000 10.7555 0.0000
# 6 0.0000 0.0000 0.0000 0.0000 0.0000 26.8880
#
#
#
# Elastic Compliance Matrix: (Units=1/GPa)
#
#
# Indices 1 2 3 4 5 6 
#
# 1 0.015377 -0.006290 -0.006349 0.000000 0.000000 0.000000
# 2 -0.006290 0.014055 -0.005898 0.000000 0.000000 0.000000
# 3 -0.006349 -0.005898 0.029675 0.000000 0.000000 0.000000
# 4 0.000000 0.000000 0.000000 0.094396 0.000000 0.000000
# 5 0.000000 0.000000 0.000000 0.000000 0.092976 0.000000
# 6 0.000000 0.000000 0.000000 0.000000 0.000000 0.037191
#
#
# Mechanical properties :
#
#
# Convention : Reuss Voigt Hill
#
# Bulk Modulus (GPa) = 45.38409 58.68799 52.03604
# Shear Modulus (GPa) = 15.23974 18.62477 16.93225
#
# Velocity S-wave (km/s) = 3.10168 3.42890 3.26939
# Velocity P-wave (km/s) = 6.44027 7.26117 6.86300
#
# Compressibility (1/GPa) = 0.02203415
#
# Stress axis : x y z
#
# Youngs Moduli (GPa) = 65.03094 71.14731 33.69827
#
# Poissons Ratio (x) = 0.44749 0.21394
# Poissons Ratio (y) = 0.40902 0.19877
# Poissons Ratio (z) = 0.41286 0.41966
#
# Static dielectric constant tensor:
#      x y z
#    x 3.068890 0.000000 0.000000 
#    y 0.000000 3.154420 0.000000 
#    z 0.000000 0.000000 2.984250 
# 
# 
# High freq. dielectric constant tensor:
#      x y z
#    x 1.607530 0.000000 0.000000 
#    y 0.000000 1.612700 0.000000 
#    z 0.000000 0.000000 1.566960 
# 
# From -- ./inp_files/27446.got.cif
#   From: 2010.03.12/outbox.cif.g09.slc.cpg/sg65_14_cif.got.tgz:27446.got - 2010.04.10 20:52:16.
