data_PCOD8267484
_publ_section_title
;
Structure prediction by ZEFSAII (Michael W. Deem and Ramdas Pophale) SiO2 
 PCOD8267484
Probable space group: C M M M
;
_chemical_formula_sum "Si O2"
_cell_formula_units_Z 88
_cell_length_a 19.059196
_cell_length_b 9.167158
_cell_length_c 28.440438
_cell_angle_alpha 90.000000
_cell_angle_beta 90.000000
_cell_angle_gamma 90.000000
_cell_volume 4969.075248
_symmetry_space_group_name_H-M "C M M M"
_symmetry_group_IT_number 65
_symmetry_cell_setting 'orthorhombic'
loop_
_space_group_symop_operation_xyz
x,y,z
-x,-y,z
x,-y,-z
-x,y,-z
-x,-y,-z
x,y,-z
-x,y,z
x,-y,z
1/2+x,1/2+y,z
1/2-x,1/2-y,z
1/2+x,1/2-y,-z
1/2-x,1/2+y,-z
1/2-x,1/2-y,-z
1/2+x,1/2+y,-z
1/2-x,1/2+y,z
1/2+x,1/2-y,z
loop_
_atom_site_type_symbol
_atom_site_label
_atom_site_fract_x
_atom_site_fract_y
_atom_site_fract_z
Si Si1 0.582493 0.333732 0.324752
Si Si2 0.175590 0.329098 0.398140
Si Si3 0.678931 0.833524 0.500000
Si Si4 0.078306 0.826870 0.947727
Si Si5 0.824381 0.174002 0.864036
Si Si6 0.077630 0.827246 0.219469
O O1 0.500000 0.318994 0.332983
O O2 0.606826 0.500000 0.333308
O O3 0.621254 0.227806 0.360225
O O4 0.602039 0.282770 0.271863
O O5 0.187676 0.500000 0.389851
O O6 0.250000 0.250000 0.392460
O O7 0.140597 0.297982 0.450234
O O8 0.750000 0.750000 0.500000
O O9 0.701195 0.000000 0.500000
O O10 0.133695 0.768304 0.909770
O O11 0.000000 0.768008 0.936028
O O12 0.076523 0.000000 0.945614
O O13 0.101043 0.774483 0.000000
O O14 0.750000 0.250000 0.863865
O O15 0.866513 0.230588 0.818301
O O16 0.815288 0.000000 0.864126
O O17 0.000000 0.762349 0.208615
O O18 0.072143 0.000000 0.216264
#
# Coordination Sequence:
#
# PCOD8267484 Si02
#       6
#    16  16   8  16  16  16
#     4   9  18  33  51  71  96 124 156 196 240 284
#     4  10  19  32  51  73  97 125 159 196 235 280
#     4   8  16  30  47  68  93 123 157 193 231 274
#     4   8  14  26  46  70  91 115 155 200 230 260
#     4  10  19  30  46  69  96 123 151 187 233 279
#     4   8  15  30  51  69  86 117 160 197 227 267
#
# _framework density 17.709531999999999
#
# number of rings (size 3 to 8) (size 9 to 14) (size 15 to 20)
#    0.000    3.091    0.000    2.727    0.000    4.364 
#    0.000    3.182    0.000    6.000    0.000    1.273 
#    0.000    0.000    0.000    0.000    0.000    0.000 
#
# Total GULP energy -545185.547376 kJ/mol
# GULP energy per Si atom -12390.580622 kJ/mol
# Density = 1.766922 g / cm^3
# Si number density = 17.709532 Si / 1000 Ang^3
#
#
#
# Elastic Constant Matrix: (Units=GPa)
#
#
# Indices 1 2 3 4 5 6 
#
# 1 104.5746 34.8378 93.2526 0.0000 0.0000 0.0000
# 2 34.8378 43.3575 46.2081 0.0000 0.0000 0.0000
# 3 93.2526 46.2081 178.1176 0.0000 0.0000 0.0000
# 4 0.0000 0.0000 0.0000 17.8522 0.0000 0.0000
# 5 0.0000 0.0000 0.0000 0.0000 27.3576 0.0000
# 6 0.0000 0.0000 0.0000 0.0000 0.0000 29.3093
#
#
#
# Elastic Compliance Matrix: (Units=1/GPa)
#
#
# Indices 1 2 3 4 5 6 
#
# 1 0.019179 -0.006509 -0.008353 0.000000 0.000000 0.000000
# 2 -0.006509 0.034086 -0.005435 0.000000 0.000000 0.000000
# 3 -0.008353 -0.005435 0.011397 0.000000 0.000000 0.000000
# 4 0.000000 0.000000 0.000000 0.056015 0.000000 0.000000
# 5 0.000000 0.000000 0.000000 0.000000 0.036553 0.000000
# 6 0.000000 0.000000 0.000000 0.000000 0.000000 0.034119
#
#
# Mechanical properties :
#
#
# Convention : Reuss Voigt Hill
#
# Bulk Modulus (GPa) = 41.54604 74.96074 58.25339
# Shear Modulus (GPa) = 20.83624 25.02057 22.92841
#
# Velocity S-wave (km/s) = 3.43382 3.76284 3.60209
# Velocity P-wave (km/s) = 6.26355 7.82933 7.08980
#
# Compressibility (1/GPa) = 0.02406968
#
# Stress axis : x y z
#
# Youngs Moduli (GPa) = 52.13987 29.33722 87.74010
#
# Poissons Ratio (x) = 0.19095 0.73286
# Poissons Ratio (y) = 0.33936 0.47689
# Poissons Ratio (z) = 0.43551 0.15946
#
# Static dielectric constant tensor:
#      x y z
#    x 3.160290 0.000000 0.000000 
#    y 0.000000 2.901480 0.000000 
#    z 0.000000 0.000000 3.946580 
# 
# 
# High freq. dielectric constant tensor:
#      x y z
#    x 1.668590 0.000000 0.000000 
#    y 0.000000 1.645920 0.000000 
#    z 0.000000 0.000000 1.707340 
# 
# From -- ./inp_files/75393.got.cif
#   From: 2010.03.12/outbox.cif.g09.slc.cpg/sg65_38_cif.got.tgz:75393.got - 2010.04.10 20:52:16.
