data_PCOD8267873
_publ_section_title
;
Structure prediction by ZEFSAII (Michael W. Deem and Ramdas Pophale) SiO2 
 PCOD8267873
Probable space group: C M M M
;
_chemical_formula_sum "Si O2"
_cell_formula_units_Z 112
_cell_length_a 19.389316
_cell_length_b 25.550063
_cell_length_c 14.136925
_cell_angle_alpha 90.000000
_cell_angle_beta 90.000000
_cell_angle_gamma 90.000000
_cell_volume 7003.407839
_symmetry_space_group_name_H-M "C M M M"
_symmetry_group_IT_number 65
_symmetry_cell_setting 'orthorhombic'
loop_
_space_group_symop_operation_xyz
x,y,z
-x,-y,z
x,-y,-z
-x,y,-z
-x,-y,-z
x,y,-z
-x,y,z
x,-y,z
1/2+x,1/2+y,z
1/2-x,1/2-y,z
1/2+x,1/2-y,-z
1/2-x,1/2+y,-z
1/2-x,1/2-y,-z
1/2+x,1/2+y,-z
1/2-x,1/2+y,z
1/2+x,1/2-y,z
loop_
_atom_site_type_symbol
_atom_site_label
_atom_site_fract_x
_atom_site_fract_y
_atom_site_fract_z
Si Si1 0.175477 0.852374 0.610182
Si Si2 0.420328 0.222612 0.107459
Si Si3 0.577181 0.442102 0.612395
Si Si4 0.333949 0.851384 0.609054
Si Si5 0.081615 0.396781 0.897887
Si Si6 0.418765 0.940585 0.702923
Si Si7 0.330569 0.250567 0.273653
O O1 0.160556 0.843909 0.500000
O O2 0.130849 0.899978 0.653388
O O3 0.254884 0.866325 0.629037
O O4 0.151879 0.799509 0.660629
O O5 0.500000 0.228537 0.137065
O O6 0.395179 0.162844 0.118172
O O7 0.373319 0.257083 0.176910
O O8 0.409299 0.242096 0.000000
O O9 0.581135 0.442611 0.500000
O O10 0.500000 0.427044 0.645471
O O11 0.596618 0.500000 0.650760
O O12 0.345091 0.836123 0.500000
O O13 0.380430 0.901555 0.632379
O O14 0.355257 0.801605 0.671809
O O15 0.108159 0.431856 0.810716
O O16 0.000000 0.399014 0.903075
O O17 0.110907 0.416931 0.000000
O O18 0.500000 0.929119 0.695930
O O19 0.401728 0.000000 0.673137
O O20 0.250000 0.250000 0.248954
#
# Coordination Sequence:
#
# PCOD8267873 Si02
#       7
#    16  16  16  16  16  16  16
#     4   9  18  31  47  68  92 119 154 188 220 268
#     4   9  17  30  49  70  92 120 151 184 227 281
#     4   8  14  26  44  65  89 113 137 174 223 266
#     4  10  20  33  46  60  87 127 161 190 229 270
#     4   8  14  27  47  67  86 111 145 187 236 282
#     4  10  20  32  46  66  91 119 158 203 236 269
#     4  10  19  31  48  69  93 119 152 190 229 267
#
# _framework density 15.992214000000001
#
# number of rings (size 3 to 8) (size 9 to 14) (size 15 to 20)
#    0.000    2.857    1.429    1.714    0.000    4.000 
#    0.000    3.571    0.000    2.571    0.000    0.000 
#    0.000    0.571    0.000    3.143    0.000    0.143 
#
# Total GULP energy -694182.204171 kJ/mol
# GULP energy per Si atom -12396.110789 kJ/mol
# Density = 1.595582 g / cm^3
# Si number density = 15.992214 Si / 1000 Ang^3
#
#
#
# Elastic Constant Matrix: (Units=GPa)
#
#
# Indices 1 2 3 4 5 6 
#
# 1 60.4005 53.1522 37.2016 0.0000 0.0000 0.0000
# 2 53.1522 97.2815 35.5900 0.0000 0.0000 0.0000
# 3 37.2016 35.5900 68.5947 0.0000 0.0000 0.0000
# 4 0.0000 0.0000 0.0000 17.9047 0.0000 0.0000
# 5 0.0000 0.0000 0.0000 0.0000 23.4060 0.0000
# 6 0.0000 0.0000 0.0000 0.0000 0.0000 27.2827
#
#
#
# Elastic Compliance Matrix: (Units=1/GPa)
#
#
# Indices 1 2 3 4 5 6 
#
# 1 0.038931 -0.016720 -0.012439 0.000000 0.000000 0.000000
# 2 -0.016720 0.019869 -0.001241 0.000000 0.000000 0.000000
# 3 -0.012439 -0.001241 0.021968 0.000000 0.000000 0.000000
# 4 0.000000 0.000000 0.000000 0.055851 0.000000 0.000000
# 5 0.000000 0.000000 0.000000 0.000000 0.042724 0.000000
# 6 0.000000 0.000000 0.000000 0.000000 0.000000 0.036653
#
#
# Mechanical properties :
#
#
# Convention : Reuss Voigt Hill
#
# Bulk Modulus (GPa) = 50.07845 53.12934 51.60389
# Shear Modulus (GPa) = 17.63963 20.40753 19.02358
#
# Velocity S-wave (km/s) = 3.32477 3.57612 3.45273
# Velocity P-wave (km/s) = 6.79125 7.09546 6.94502
#
# Compressibility (1/GPa) = 0.01996867
#
# Stress axis : x y z
#
# Youngs Moduli (GPa) = 25.68640 50.32971 45.52053
#
# Poissons Ratio (x) = 0.84153 0.56621
# Poissons Ratio (y) = 0.42949 0.05648
# Poissons Ratio (z) = 0.31950 0.06245
#
# Static dielectric constant tensor:
#      x y z
#    x 2.902410 0.000000 0.000000 
#    y 0.000000 3.074930 0.000000 
#    z 0.000000 0.000000 3.092090 
# 
# 
# High freq. dielectric constant tensor:
#      x y z
#    x 1.594880 0.000000 0.000000 
#    y 0.000000 1.607540 0.000000 
#    z 0.000000 0.000000 1.600250 
# 
# From -- ./inp_files/29352.got.cif
#   From: 2010.03.12/outbox.cif.g09.slc.cpg/sg65_15_cif.got.tgz:29352.got - 2010.04.10 20:52:16.
