data_PCOD8267012
_publ_section_title
;
Structure prediction by ZEFSAII (Michael W. Deem and Ramdas Pophale) SiO2 
 PCOD8267012
Probable space group: C M M M
;
_chemical_formula_sum "Si O2"
_cell_formula_units_Z 72
_cell_length_a 23.592454
_cell_length_b 8.965579
_cell_length_c 17.954298
_cell_angle_alpha 90.000000
_cell_angle_beta 90.000000
_cell_angle_gamma 90.000000
_cell_volume 3797.693295
_symmetry_space_group_name_H-M "C M M M"
_symmetry_group_IT_number 65
_symmetry_cell_setting 'orthorhombic'
loop_
_space_group_symop_operation_xyz
x,y,z
-x,-y,z
x,-y,-z
-x,y,-z
-x,-y,-z
x,y,-z
-x,y,z
x,-y,z
1/2+x,1/2+y,z
1/2-x,1/2-y,z
1/2+x,1/2-y,-z
1/2-x,1/2+y,-z
1/2-x,1/2-y,-z
1/2+x,1/2+y,-z
1/2-x,1/2+y,z
1/2+x,1/2-y,z
loop_
_atom_site_type_symbol
_atom_site_label
_atom_site_fract_x
_atom_site_fract_y
_atom_site_fract_z
Si Si1 0.106364 0.671031 0.084832
Si Si2 0.000000 0.676959 0.309912
Si Si3 0.500000 0.324768 0.149471
Si Si4 0.688390 0.178077 0.500000
Si Si5 0.378470 0.823233 0.355843
Si Si6 0.310162 0.825421 0.213678
O O1 0.087829 0.500000 0.100154
O O2 0.054310 0.778369 0.101832
O O3 0.159062 0.715430 0.136693
O O4 0.126046 0.693893 0.000000
O O5 0.000000 0.744725 0.228331
O O6 0.055914 0.730617 0.354831
O O7 0.000000 0.500000 0.299445
O O8 0.500000 0.500000 0.162237
O O9 0.750000 0.250000 0.500000
O O10 0.653697 0.237798 0.428536
O O11 0.694593 0.000000 0.500000
O O12 0.347405 0.761886 0.282116
O O13 0.376962 0.000000 0.356623
O O14 0.250000 0.750000 0.214535
O O15 0.300990 0.000000 0.222961
#
# Coordination Sequence:
#
# PCOD8267012 Si02
#       6
#    16   8   8   8  16  16
#     4  10  21  38  59  79 105 147 191 224 268 335
#     4  10  18  36  61  80 107 147 184 227 272 328
#     4  12  23  35  55  86 116 140 176 232 285 330
#     4  10  20  35  55  85 115 146 183 222 270 321
#     4   9  18  33  57  83 109 141 184 226 267 323
#     4  10  20  35  54  78 107 144 186 227 270 322
#
# _framework density 18.958877999999999
#
# number of rings (size 3 to 8) (size 9 to 14) (size 15 to 20)
#    0.000    2.000    2.222    2.000    0.000    3.556 
#    0.000    3.333    0.000    0.000    0.000    1.556 
#    0.000    0.000    0.000    0.000    0.000    0.000 
#
# Total GULP energy -446436.726279 kJ/mol
# GULP energy per Si atom -12401.020174 kJ/mol
# Density = 1.891573 g / cm^3
# Si number density = 18.958878 Si / 1000 Ang^3
#
#
#
# Elastic Constant Matrix: (Units=GPa)
#
#
# Indices 1 2 3 4 5 6 
#
# 1 191.6519 37.9781 92.0855 0.0000 0.0000 0.0000
# 2 37.9781 33.8901 25.0399 0.0000 0.0000 0.0000
# 3 92.0855 25.0399 164.0886 0.0000 0.0000 0.0000
# 4 0.0000 0.0000 0.0000 12.8352 0.0000 0.0000
# 5 0.0000 0.0000 0.0000 0.0000 36.5797 0.0000
# 6 0.0000 0.0000 0.0000 0.0000 0.0000 30.0948
#
#
#
# Elastic Compliance Matrix: (Units=1/GPa)
#
#
# Indices 1 2 3 4 5 6 
#
# 1 0.008269 -0.006579 -0.003636 0.000000 0.000000 0.000000
# 2 -0.006579 0.038492 -0.002182 0.000000 0.000000 0.000000
# 3 -0.003636 -0.002182 0.008468 0.000000 0.000000 0.000000
# 4 0.000000 0.000000 0.000000 0.077911 0.000000 0.000000
# 5 0.000000 0.000000 0.000000 0.000000 0.027338 0.000000
# 6 0.000000 0.000000 0.000000 0.000000 0.000000 0.033228
#
#
# Mechanical properties :
#
#
# Convention : Reuss Voigt Hill
#
# Bulk Modulus (GPa) = 32.85796 77.75973 55.30884
# Shear Modulus (GPa) = 21.86798 31.53707 26.70252
#
# Velocity S-wave (km/s) = 3.39992 4.08296 3.75700
# Velocity P-wave (km/s) = 5.72551 7.95810 6.93227
#
# Compressibility (1/GPa) = 0.03043403
#
# Stress axis : x y z
#
# Youngs Moduli (GPa) = 120.93627 25.97936 118.09319
#
# Poissons Ratio (x) = 0.17093 0.42943
# Poissons Ratio (y) = 0.79570 0.25762
# Poissons Ratio (z) = 0.43977 0.05667
#
# Static dielectric constant tensor:
#      x y z
#    x 3.646280 0.000000 0.000000 
#    y 0.000000 3.145220 0.000000 
#    z 0.000000 0.000000 3.812190 
# 
# 
# High freq. dielectric constant tensor:
#      x y z
#    x 1.747530 0.000000 0.000000 
#    y 0.000000 1.700020 0.000000 
#    z 0.000000 0.000000 1.747740 
# 
# From -- ./inp_files/56508.got.cif
#   From: 2010.03.12/outbox.cif.g09.slc.cpg/sg65_29_cif.got.tgz:56508.got - 2010.04.10 20:52:16.
