data_PCOD8267901
_publ_section_title
;
Structure prediction by ZEFSAII (Michael W. Deem and Ramdas Pophale) SiO2 
 PCOD8267901
Probable space group: C M M M
;
_chemical_formula_sum "Si O2"
_cell_formula_units_Z 120
_cell_length_a 18.078554
_cell_length_b 17.498992
_cell_length_c 21.325646
_cell_angle_alpha 90.000000
_cell_angle_beta 90.000000
_cell_angle_gamma 90.000000
_cell_volume 6746.506128
_symmetry_space_group_name_H-M "C M M M"
_symmetry_group_IT_number 65
_symmetry_cell_setting 'orthorhombic'
loop_
_space_group_symop_operation_xyz
x,y,z
-x,-y,z
x,-y,-z
-x,y,-z
-x,-y,-z
x,y,-z
-x,y,z
x,-y,z
1/2+x,1/2+y,z
1/2-x,1/2-y,z
1/2+x,1/2-y,-z
1/2-x,1/2+y,-z
1/2-x,1/2-y,-z
1/2+x,1/2+y,-z
1/2-x,1/2+y,z
1/2+x,1/2-y,z
loop_
_atom_site_type_symbol
_atom_site_label
_atom_site_fract_x
_atom_site_fract_y
_atom_site_fract_z
Si Si1 0.649170 0.836595 0.621237
Si Si2 0.915761 0.188600 0.571889
Si Si3 0.284481 0.412855 0.572347
Si Si4 0.584620 0.912492 0.500000
Si Si5 0.084980 0.412540 0.257796
Si Si6 0.664408 0.088699 0.871162
Si Si7 0.207655 0.171016 0.930119
Si Si8 0.581220 0.772317 0.926158
O O1 0.630571 0.747693 0.613853
O O2 0.736543 0.856897 0.617479
O O3 0.614698 0.881275 0.564176
O O4 0.613006 0.860427 0.686277
O O5 0.916094 0.217706 0.500000
O O6 0.871165 0.109151 0.577965
O O7 0.000000 0.177719 0.595928
O O8 0.257913 0.402947 0.500000
O O9 0.275533 0.500000 0.594733
O O10 0.500000 0.892055 0.500000
O O11 0.604611 0.000000 0.500000
O O12 0.089553 0.500000 0.279610
O O13 0.140455 0.397358 0.200299
O O14 0.000000 0.391734 0.239785
O O15 0.750531 0.112374 0.883094
O O16 0.614440 0.143729 0.913475
O O17 0.652166 0.000000 0.890043
O O18 0.250000 0.250000 0.937686
O O19 0.128778 0.199105 0.901025
O O20 0.200411 0.133618 0.000000
O O21 0.500000 0.766862 0.895397
O O22 0.577222 0.763802 0.000000
#
# Coordination Sequence:
#
# PCOD8267901 Si02
#       8
#    16  16  16   8  16  16  16  16
#     4  12  20  33  53  72  97 125 164 211 254 300
#     4  10  20  34  52  74 100 128 158 197 246 295
#     4  10  20  34  52  74 100 128 158 196 244 301
#     4  11  20  28  45  72  96 120 155 199 248 306
#     4  10  21  34  47  68 103 141 168 198 250 310
#     4  10  19  31  48  71 100 133 168 208 250 293
#     4   8  15  29  48  71 100 133 168 203 241 287
#     4   9  17  30  50  75 103 135 168 204 249 297
#
# _framework density 17.786984
#
# number of rings (size 3 to 8) (size 9 to 14) (size 15 to 20)
#    0.000    2.067    1.333    4.400    0.000    4.267 
#    0.000    6.000    0.000    0.400    0.000    1.867 
#    0.000    1.067    0.000    0.000    0.000    0.000 
#
# Total GULP energy -743540.669510 kJ/mol
# GULP energy per Si atom -12392.344492 kJ/mol
# Density = 1.774650 g / cm^3
# Si number density = 17.786984 Si / 1000 Ang^3
#
#
#
# Elastic Constant Matrix: (Units=GPa)
#
#
# Indices 1 2 3 4 5 6 
#
# 1 130.5083 53.5378 29.7105 0.0000 0.0000 0.0000
# 2 53.5378 60.4734 28.7586 0.0000 0.0000 0.0000
# 3 29.7105 28.7586 57.7957 0.0000 0.0000 0.0000
# 4 0.0000 0.0000 0.0000 17.7228 0.0000 0.0000
# 5 0.0000 0.0000 0.0000 0.0000 15.5273 0.0000
# 6 0.0000 0.0000 0.0000 0.0000 0.0000 29.0031
#
#
#
# Elastic Compliance Matrix: (Units=1/GPa)
#
#
# Indices 1 2 3 4 5 6 
#
# 1 0.012092 -0.010151 -0.001165 0.000000 0.000000 0.000000
# 2 -0.010151 0.030184 -0.009801 0.000000 0.000000 0.000000
# 3 -0.001165 -0.009801 0.022778 0.000000 0.000000 0.000000
# 4 0.000000 0.000000 0.000000 0.056424 0.000000 0.000000
# 5 0.000000 0.000000 0.000000 0.000000 0.064403 0.000000
# 6 0.000000 0.000000 0.000000 0.000000 0.000000 0.034479
#
#
# Mechanical properties :
#
#
# Convention : Reuss Voigt Hill
#
# Bulk Modulus (GPa) = 43.82127 52.53236 48.17681
# Shear Modulus (GPa) = 18.50481 21.56869 20.03675
#
# Velocity S-wave (km/s) = 3.22896 3.48603 3.35995
# Velocity P-wave (km/s) = 6.21222 6.76768 6.49589
#
# Compressibility (1/GPa) = 0.02281997
#
# Stress axis : x y z
#
# Youngs Moduli (GPa) = 82.70125 33.13020 43.90193
#
# Poissons Ratio (x) = 0.33630 0.05114
# Poissons Ratio (y) = 0.83950 0.43028
# Poissons Ratio (z) = 0.09633 0.32471
#
# Static dielectric constant tensor:
#      x y z
#    x 4.034150 0.000000 0.000000 
#    y 0.000000 3.268910 0.000000 
#    z 0.000000 0.000000 2.963350 
# 
# 
# High freq. dielectric constant tensor:
#      x y z
#    x 1.698020 0.000000 0.000000 
#    y 0.000000 1.673950 0.000000 
#    z 0.000000 0.000000 1.653150 
# 
# From -- ./inp_files/54985.got.cif
#   From: 2010.03.12/outbox.cif.g09.slc.cpg/sg65_28_cif.got.tgz:54985.got - 2010.04.10 20:52:16.
