data_PCOD8267996
_publ_section_title
;
Structure prediction by ZEFSAII (Michael W. Deem and Ramdas Pophale) SiO2 
 PCOD8267996
Probable space group: C M M M
;
_chemical_formula_sum "Si O2"
_cell_formula_units_Z 64
_cell_length_a 8.932278
_cell_length_b 19.673313
_cell_length_c 21.698204
_cell_angle_alpha 90.000000
_cell_angle_beta 90.000000
_cell_angle_gamma 90.000000
_cell_volume 3812.971163
_symmetry_space_group_name_H-M "C M M M"
_symmetry_group_IT_number 65
_symmetry_cell_setting 'orthorhombic'
loop_
_space_group_symop_operation_xyz
x,y,z
-x,-y,z
x,-y,-z
-x,y,-z
-x,-y,-z
x,y,-z
-x,y,z
x,-y,z
1/2+x,1/2+y,z
1/2-x,1/2-y,z
1/2+x,1/2-y,-z
1/2-x,1/2+y,-z
1/2-x,1/2-y,-z
1/2+x,1/2+y,-z
1/2-x,1/2+y,z
1/2+x,1/2-y,z
loop_
_atom_site_type_symbol
_atom_site_label
_atom_site_fract_x
_atom_site_fract_y
_atom_site_fract_z
Si Si1 0.177230 0.500000 0.070990
Si Si2 0.323823 0.180188 0.742758
Si Si3 0.823969 0.680029 0.602304
Si Si4 0.832173 0.075053 0.830045
Si Si5 0.322249 0.076415 0.500000
O O1 0.248233 0.432620 0.103577
O O2 0.000000 0.500000 0.079916
O O3 0.224352 0.500000 0.000000
O O4 0.500000 0.186496 0.750374
O O5 0.250000 0.250000 0.764947
O O6 0.277600 0.163716 0.672472
O O7 0.264366 0.120909 0.785418
O O8 0.750000 0.750000 0.579425
O O9 0.766973 0.617359 0.560471
O O10 0.000000 0.689980 0.595276
O O11 0.000000 0.104586 0.839478
O O12 0.840400 0.000000 0.799375
O O13 0.500000 0.071247 0.500000
O O14 0.253498 0.000000 0.500000
#
# Coordination Sequence:
#
# PCOD8267996 Si02
#       5
#     8  16  16  16   8
#     4   9  17  31  53  79 105 134 169 204 239 285
#     4  10  19  31  49  72 100 131 169 212 257 305
#     4   9  18  31  49  70  91 125 164 204 249 300
#     4   9  19  32  49  74 103 134 168 204 246 291
#     4   9  17  30  47  69  96 123 160 206 252 299
#
# _framework density 16.784811000000001
#
# number of rings (size 3 to 8) (size 9 to 14) (size 15 to 20)
#    0.750    2.000    0.000    1.875    0.000    3.000 
#    0.000    2.500    0.000    2.250    0.000    0.000 
#    0.000    0.000    0.000    0.000    0.000    0.000 
#
# Total GULP energy -396601.737700 kJ/mol
# GULP energy per Si atom -12393.804303 kJ/mol
# Density = 1.674661 g / cm^3
# Si number density = 16.784811 Si / 1000 Ang^3
#
#
#
# Elastic Constant Matrix: (Units=GPa)
#
#
# Indices 1 2 3 4 5 6 
#
# 1 66.8429 34.8106 39.0463 0.0000 0.0000 0.0000
# 2 34.8106 111.5812 69.1717 0.0000 0.0000 0.0000
# 3 39.0463 69.1717 111.2862 0.0000 0.0000 0.0000
# 4 0.0000 0.0000 0.0000 -8.5022 0.0000 0.0000
# 5 0.0000 0.0000 0.0000 0.0000 18.7808 0.0000
# 6 0.0000 0.0000 0.0000 0.0000 0.0000 29.8208
#
#
#
# Elastic Compliance Matrix: (Units=1/GPa)
#
#
# Indices 1 2 3 4 5 6 
#
# 1 0.019409 -0.002983 -0.004956 0.000000 0.000000 0.000000
# 2 -0.002983 0.015039 -0.008301 0.000000 0.000000 0.000000
# 3 -0.004956 -0.008301 0.015884 0.000000 0.000000 0.000000
# 4 0.000000 0.000000 0.000000 -0.117616 0.000000 0.000000
# 5 0.000000 0.000000 0.000000 0.000000 0.053246 0.000000
# 6 0.000000 0.000000 0.000000 0.000000 0.000000 0.033534
#
#
# Mechanical properties :
#
#
# Convention : Reuss Voigt Hill
#
# Bulk Modulus (GPa) = 56.01464 63.97418 59.99441
# Shear Modulus (GPa) = 86.31879 17.79866 52.05873
#
# Velocity S-wave (km/s) = 7.17902 3.25992 5.57519
# Velocity P-wave (km/s) = 10.10755 7.23647 8.79002
#
# Compressibility (1/GPa) = 0.01785248
#
# Stress axis : x y z
#
# Youngs Moduli (GPa) = 51.52299 66.49570 62.95566
#
# Poissons Ratio (x) = 0.19835 0.31200
# Poissons Ratio (y) = 0.15369 0.52259
# Poissons Ratio (z) = 0.25534 0.55197
#
# Static dielectric constant tensor:
#      x y z
#    x 3.111620 0.000000 0.000000 
#    y 0.000000 3.195100 0.000000 
#    z 0.000000 0.000000 3.110850 
# 
# 
# High freq. dielectric constant tensor:
#      x y z
#    x 1.648130 0.000000 0.000000 
#    y 0.000000 1.633270 0.000000 
#    z 0.000000 0.000000 1.638200 
# 
# From -- ./inp_files/67198.got.cif
#   From: 2010.03.12/outbox.cif.g09.slc.cpg/sg65_34_cif.got.tgz:67198.got - 2010.04.10 20:52:16.
