data_PCOD8267952
_publ_section_title
;
Structure prediction by ZEFSAII (Michael W. Deem and Ramdas Pophale) SiO2 
 PCOD8267952
Probable space group: C M M M
;
_chemical_formula_sum "Si O2"
_cell_formula_units_Z 80
_cell_length_a 18.978228
_cell_length_b 9.248209
_cell_length_c 26.007214
_cell_angle_alpha 90.000000
_cell_angle_beta 90.000000
_cell_angle_gamma 90.000000
_cell_volume 4564.646256
_symmetry_space_group_name_H-M "C M M M"
_symmetry_group_IT_number 65
_symmetry_cell_setting 'orthorhombic'
loop_
_space_group_symop_operation_xyz
x,y,z
-x,-y,z
x,-y,-z
-x,y,-z
-x,-y,-z
x,y,-z
-x,y,z
x,-y,z
1/2+x,1/2+y,z
1/2-x,1/2-y,z
1/2+x,1/2-y,-z
1/2-x,1/2+y,-z
1/2-x,1/2-y,-z
1/2+x,1/2+y,-z
1/2-x,1/2+y,z
1/2+x,1/2-y,z
loop_
_atom_site_type_symbol
_atom_site_label
_atom_site_fract_x
_atom_site_fract_y
_atom_site_fract_z
Si Si1 0.179136 0.330866 0.698441
Si Si2 0.178204 0.331151 0.814571
Si Si3 0.921618 0.326844 0.609894
Si Si4 0.420723 0.171156 0.095017
Si Si5 0.825367 0.327879 0.000000
Si Si6 0.415913 0.159217 0.500000
O O1 0.191821 0.500000 0.691112
O O2 0.250000 0.250000 0.685393
O O3 0.153711 0.296170 0.756409
O O4 0.123381 0.269114 0.657653
O O5 0.193664 0.500000 0.822312
O O6 0.250000 0.250000 0.829080
O O7 0.115191 0.278589 0.851589
O O8 0.921328 0.500000 0.607503
O O9 0.893079 0.265218 0.554247
O O10 0.000000 0.268687 0.619786
O O11 0.500000 0.237471 0.091004
O O12 0.370740 0.224649 0.048929
O O13 0.427097 0.000000 0.092643
O O14 0.750000 0.250000 0.000000
O O15 0.812893 0.500000 0.000000
O O16 0.500000 0.147067 0.500000
O O17 0.382093 0.000000 0.500000
#
# Coordination Sequence:
#
# PCOD8267952 Si02
#       6
#    16  16  16  16   8   8
#     4   9  17  28  42  61  85 111 137 168 207 248
#     4   9  17  29  45  63  84 112 142 171 205 247
#     4   8  13  22  38  59  80 103 135 173 208 242
#     4   9  17  29  46  68  90 111 140 178 214 245
#     4  10  19  31  49  69  89 116 146 174 206 248
#     4   7  10  18  33  54  79 103 128 165 210 246
#
# _framework density 17.526002999999999
#
# number of rings (size 3 to 8) (size 9 to 14) (size 15 to 20)
#    0.000    3.300    0.000    2.100    0.000    2.000 
#    0.000    4.500    0.000    3.600    0.000    5.600 
#    0.000    2.400    0.000    0.000    0.000    0.000 
#
# Total GULP energy -495578.251627 kJ/mol
# GULP energy per Si atom -12389.456291 kJ/mol
# Density = 1.748611 g / cm^3
# Si number density = 17.526003 Si / 1000 Ang^3
#
#
#
# Elastic Constant Matrix: (Units=GPa)
#
#
# Indices 1 2 3 4 5 6 
#
# 1 138.3149 23.4016 106.4062 0.0000 0.0000 0.0000
# 2 23.4016 13.8985 20.9422 0.0000 0.0000 0.0000
# 3 106.4062 20.9422 171.7861 0.0000 0.0000 0.0000
# 4 0.0000 0.0000 0.0000 10.6125 0.0000 0.0000
# 5 0.0000 0.0000 0.0000 0.0000 31.4784 0.0000
# 6 0.0000 0.0000 0.0000 0.0000 0.0000 20.7451
#
#
#
# Elastic Compliance Matrix: (Units=1/GPa)
#
#
# Indices 1 2 3 4 5 6 
#
# 1 0.015919 -0.014634 -0.008076 0.000000 0.000000 0.000000
# 2 -0.014634 0.101594 -0.003321 0.000000 0.000000 0.000000
# 3 -0.008076 -0.003321 0.011229 0.000000 0.000000 0.000000
# 4 0.000000 0.000000 0.000000 0.094229 0.000000 0.000000
# 5 0.000000 0.000000 0.000000 0.000000 0.031768 0.000000
# 6 0.000000 0.000000 0.000000 0.000000 0.000000 0.048204
#
#
# Mechanical properties :
#
#
# Convention : Reuss Voigt Hill
#
# Bulk Modulus (GPa) = 13.04134 69.49995 41.27065
# Shear Modulus (GPa) = 13.13838 24.11716 18.62777
#
# Velocity S-wave (km/s) = 2.74095 3.71358 3.26370
# Velocity P-wave (km/s) = 4.18023 7.62424 6.14831
#
# Compressibility (1/GPa) = 0.07667925
#
# Stress axis : x y z
#
# Youngs Moduli (GPa) = 62.81776 9.84311 89.05813
#
# Poissons Ratio (x) = 0.14405 0.71927
# Poissons Ratio (y) = 0.91929 0.29573
# Poissons Ratio (z) = 0.50734 0.03269
#
# Static dielectric constant tensor:
#      x y z
#    x 3.313700 0.000000 0.000000 
#    y 0.000000 2.727430 0.000000 
#    z 0.000000 0.000000 3.752700 
# 
# 
# High freq. dielectric constant tensor:
#      x y z
#    x 1.664900 0.000000 0.000000 
#    y 0.000000 1.614830 0.000000 
#    z 0.000000 0.000000 1.703310 
# 
# From -- ./inp_files/75055.got.cif
#   From: 2010.03.12/outbox.cif.g09.slc.cpg/sg65_38_cif.got.tgz:75055.got - 2010.04.10 20:52:16.
