data_PCOD8267150
_publ_section_title
;
Structure prediction by ZEFSAII (Michael W. Deem and Ramdas Pophale) SiO2 
 PCOD8267150
Probable space group: C M M M
;
_chemical_formula_sum "Si O2"
_cell_formula_units_Z 72
_cell_length_a 8.698505
_cell_length_b 24.141763
_cell_length_c 20.324972
_cell_angle_alpha 90.000000
_cell_angle_beta 90.000000
_cell_angle_gamma 90.000000
_cell_volume 4268.188148
_symmetry_space_group_name_H-M "C M M M"
_symmetry_group_IT_number 65
_symmetry_cell_setting 'orthorhombic'
loop_
_space_group_symop_operation_xyz
x,y,z
-x,-y,z
x,-y,-z
-x,y,-z
-x,-y,-z
x,y,-z
-x,y,z
x,-y,z
1/2+x,1/2+y,z
1/2-x,1/2-y,z
1/2+x,1/2-y,-z
1/2-x,1/2+y,-z
1/2-x,1/2-y,-z
1/2+x,1/2+y,-z
1/2-x,1/2+y,z
1/2+x,1/2-y,z
loop_
_atom_site_type_symbol
_atom_site_label
_atom_site_fract_x
_atom_site_fract_y
_atom_site_fract_z
Si Si1 0.317572 0.689264 0.000000
Si Si2 0.172973 0.933785 0.500000
Si Si3 0.319438 0.435940 0.767403
Si Si4 0.170553 0.565162 0.368869
Si Si5 0.665112 0.000000 0.075029
Si Si6 0.316482 0.115463 0.113908
O O1 0.250000 0.750000 0.000000
O O2 0.260720 0.661176 0.932269
O O3 0.500000 0.690774 0.000000
O O4 0.256637 0.909574 0.435235
O O5 0.000000 0.911255 0.500000
O O6 0.174501 0.000000 0.500000
O O7 0.500000 0.431099 0.777341
O O8 0.265000 0.500000 0.784337
O O9 0.278158 0.420583 0.692828
O O10 0.236144 0.386909 0.809982
O O11 0.159099 0.500000 0.377881
O O12 0.000000 0.590122 0.358064
O O13 0.754735 0.056217 0.091200
O O14 0.500000 0.000000 0.113334
O O15 0.625964 0.000000 0.000000
O O16 0.500000 0.121033 0.106104
#
# Coordination Sequence:
#
# PCOD8267150 Si02
#       6
#     8   8  16  16   8  16
#     4  12  26  43  58  75  95 123 161 201 242 290
#     4   9  15  23  35  51  75 111 154 199 238 273
#     4  10  19  29  42  66  97 125 156 197 242 286
#     4   9  16  25  37  54  79 116 159 197 233 279
#     4   9  16  28  48  74  98 121 150 185 234 288
#     4  11  20  34  54  75  98 127 158 196 242 291
#
# _framework density 16.868984000000001
#
# number of rings (size 3 to 8) (size 9 to 14) (size 15 to 20)
#    0.000    2.000    2.222    3.333    0.000    4.889 
#    0.000    0.556    0.000    0.000    0.000    0.000 
#    0.000    0.000    0.000    1.000    0.000   14.111 
#
# Total GULP energy -445991.318077 kJ/mol
# GULP energy per Si atom -12388.647724 kJ/mol
# Density = 1.683059 g / cm^3
# Si number density = 16.868984 Si / 1000 Ang^3
#
#
#
# Elastic Constant Matrix: (Units=GPa)
#
#
# Indices 1 2 3 4 5 6 
#
# 1 108.6462 28.0025 45.1014 0.0000 0.0000 0.0000
# 2 28.0025 64.2197 39.0524 0.0000 0.0000 0.0000
# 3 45.1014 39.0524 124.2997 0.0000 0.0000 0.0000
# 4 0.0000 0.0000 0.0000 5.6779 0.0000 0.0000
# 5 0.0000 0.0000 0.0000 0.0000 33.6822 0.0000
# 6 0.0000 0.0000 0.0000 0.0000 0.0000 16.4023
#
#
#
# Elastic Compliance Matrix: (Units=1/GPa)
#
#
# Indices 1 2 3 4 5 6 
#
# 1 0.011287 -0.003005 -0.003151 0.000000 0.000000 0.000000
# 2 -0.003005 0.020049 -0.005209 0.000000 0.000000 0.000000
# 3 -0.003151 -0.005209 0.010825 0.000000 0.000000 0.000000
# 4 0.000000 0.000000 0.000000 0.176121 0.000000 0.000000
# 5 0.000000 0.000000 0.000000 0.000000 0.029689 0.000000
# 6 0.000000 0.000000 0.000000 0.000000 0.000000 0.060967
#
#
# Mechanical properties :
#
#
# Convention : Reuss Voigt Hill
#
# Bulk Modulus (GPa) = 51.46435 57.94202 54.70319
# Shear Modulus (GPa) = 14.78652 23.48644 19.13648
#
# Velocity S-wave (km/s) = 2.96387 3.73538 3.37177
# Velocity P-wave (km/s) = 6.50286 7.28196 6.90341
#
# Compressibility (1/GPa) = 0.01943093
#
# Stress axis : x y z
#
# Youngs Moduli (GPa) = 88.59822 49.87684 92.37952
#
# Poissons Ratio (x) = 0.14990 0.29110
# Poissons Ratio (y) = 0.26627 0.48117
# Poissons Ratio (z) = 0.27919 0.25979
#
# Static dielectric constant tensor:
#      x y z
#    x 3.292050 0.000000 0.000000 
#    y 0.000000 2.631670 0.000000 
#    z 0.000000 0.000000 3.424500 
# 
# 
# High freq. dielectric constant tensor:
#      x y z
#    x 1.661890 0.000000 0.000000 
#    y 0.000000 1.567800 0.000000 
#    z 0.000000 0.000000 1.667370 
# 
# From -- ./inp_files/59413.got.cif
#   From: 2010.03.12/outbox.cif.g09.slc.cpg/sg65_30_cif.got.tgz:59413.got - 2010.04.10 20:52:16.
