data_PCOD8267864
_publ_section_title
;
Structure prediction by ZEFSAII (Michael W. Deem and Ramdas Pophale) SiO2 
 PCOD8267864
Probable space group: C M M M
;
_chemical_formula_sum "Si O2"
_cell_formula_units_Z 104
_cell_length_a 24.078570
_cell_length_b 27.495475
_cell_length_c 9.250848
_cell_angle_alpha 90.000000
_cell_angle_beta 90.000000
_cell_angle_gamma 90.000000
_cell_volume 6124.539825
_symmetry_space_group_name_H-M "C M M M"
_symmetry_group_IT_number 65
_symmetry_cell_setting 'orthorhombic'
loop_
_space_group_symop_operation_xyz
x,y,z
-x,-y,z
x,-y,-z
-x,y,-z
-x,-y,-z
x,y,-z
-x,y,z
x,-y,z
1/2+x,1/2+y,z
1/2-x,1/2-y,z
1/2+x,1/2-y,-z
1/2-x,1/2+y,-z
1/2-x,1/2-y,-z
1/2+x,1/2+y,-z
1/2-x,1/2+y,z
1/2+x,1/2-y,z
loop_
_atom_site_type_symbol
_atom_site_label
_atom_site_fract_x
_atom_site_fract_y
_atom_site_fract_z
Si Si1 0.065488 0.643139 0.339455
Si Si2 0.065885 0.000000 0.663445
Si Si3 0.635433 0.211149 0.168604
Si Si4 0.652052 0.323211 0.167439
Si Si5 0.933924 0.553568 0.838255
Si Si6 0.063935 0.095265 0.831158
Si Si7 0.258354 0.807348 0.336860
O O1 0.090632 0.649491 0.500000
O O2 0.080243 0.689027 0.239304
O O3 0.090623 0.593703 0.270533
O O4 0.000000 0.639778 0.346894
O O5 0.086768 0.048393 0.745065
O O6 0.089136 0.000000 0.500000
O O7 0.000000 0.000000 0.665258
O O8 0.632765 0.268425 0.199201
O O9 0.686643 0.182948 0.243739
O O10 0.638028 0.199751 0.000000
O O11 0.601862 0.358785 0.212524
O O12 0.706451 0.334793 0.262516
O O13 0.668140 0.329737 0.000000
O O14 0.913894 0.500000 0.787749
O O15 0.000000 0.555607 0.838628
O O16 0.911961 0.564458 0.000000
O O17 0.000000 0.107556 0.790177
O O18 0.068897 0.083283 0.000000
O O19 0.265024 0.827214 0.500000
O O20 0.250000 0.750000 0.336806
#
# Coordination Sequence:
#
# PCOD8267864 Si02
#       7
#    16   8  16  16  16  16  16
#     4  10  20  31  43  64  95 127 157 189 230 281
#     4   9  17  29  45  67  95 125 159 197 234 277
#     4  10  19  31  48  68  93 125 160 198 236 277
#     4   9  18  31  48  71  95 121 158 199 235 276
#     4   8  14  26  44  64  85 111 147 189 227 265
#     4   9  17  30  48  70  97 128 160 195 237 283
#     4   9  17  30  48  68  91 119 153 193 234 276
#
# _framework density 16.980867
#
# number of rings (size 3 to 8) (size 9 to 14) (size 15 to 20)
#    0.000    2.846    0.000    2.077    0.000    5.846 
#    0.000    3.077    0.000    1.846    2.000    0.000 
#    0.000    0.000    0.000    0.000    0.000    0.000 
#
# Total GULP energy -644630.614275 kJ/mol
# GULP energy per Si atom -12396.742582 kJ/mol
# Density = 1.694222 g / cm^3
# Si number density = 16.980867 Si / 1000 Ang^3
#
#
#
# Elastic Constant Matrix: (Units=GPa)
#
#
# Indices 1 2 3 4 5 6 
#
# 1 50.6517 42.0436 37.6542 0.0000 0.0000 0.0000
# 2 42.0436 96.3833 61.7259 0.0000 0.0000 0.0000
# 3 37.6542 61.7259 112.7473 0.0000 0.0000 0.0000
# 4 0.0000 0.0000 0.0000 23.5917 0.0000 0.0000
# 5 0.0000 0.0000 0.0000 0.0000 24.8144 0.0000
# 6 0.0000 0.0000 0.0000 0.0000 0.0000 10.1330
#
#
#
# Elastic Compliance Matrix: (Units=1/GPa)
#
#
# Indices 1 2 3 4 5 6 
#
# 1 0.032531 -0.011138 -0.004767 0.000000 0.000000 0.000000
# 2 -0.011138 0.019790 -0.007115 0.000000 0.000000 0.000000
# 3 -0.004767 -0.007115 0.014357 0.000000 0.000000 0.000000
# 4 0.000000 0.000000 0.000000 0.042388 0.000000 0.000000
# 5 0.000000 0.000000 0.000000 0.000000 0.040299 0.000000
# 6 0.000000 0.000000 0.000000 0.000000 0.000000 0.098688
#
#
# Mechanical properties :
#
#
# Convention : Reuss Voigt Hill
#
# Bulk Modulus (GPa) = 48.45187 60.29219 54.37203
# Shear Modulus (GPa) = 16.61287 19.59838 18.10562
#
# Velocity S-wave (km/s) = 3.13122 3.40096 3.26887
# Velocity P-wave (km/s) = 6.45506 7.14178 6.80709
#
# Compressibility (1/GPa) = 0.02063904
#
# Stress axis : x y z
#
# Youngs Moduli (GPa) = 30.73964 50.53008 69.65442
#
# Poissons Ratio (x) = 0.56279 0.33203
# Poissons Ratio (y) = 0.34237 0.49558
# Poissons Ratio (z) = 0.14653 0.35952
#
# Static dielectric constant tensor:
#      x y z
#    x 2.956370 0.000000 0.000000 
#    y 0.000000 3.165810 0.000000 
#    z 0.000000 0.000000 3.417900 
# 
# 
# High freq. dielectric constant tensor:
#      x y z
#    x 1.622030 0.000000 0.000000 
#    y 0.000000 1.641090 0.000000 
#    z 0.000000 0.000000 1.665780 
# 
# From -- ./inp_files/16769.got.cif
#   From: 2010.03.12/outbox.cif.g09.slc.cpg/sg65_9_cif.got.tgz:16769.got - 2010.04.10 20:52:16.
