data_PCOD8267693
_publ_section_title
;
Structure prediction by ZEFSAII (Michael W. Deem and Ramdas Pophale) SiO2 
 PCOD8267693
Probable space group: C M M M
;
_chemical_formula_sum "Si O2"
_cell_formula_units_Z 88
_cell_length_a 19.190893
_cell_length_b 7.671025
_cell_length_c 32.165074
_cell_angle_alpha 90.000000
_cell_angle_beta 90.000000
_cell_angle_gamma 90.000000
_cell_volume 4735.143413
_symmetry_space_group_name_H-M "C M M M"
_symmetry_group_IT_number 65
_symmetry_cell_setting 'orthorhombic'
loop_
_space_group_symop_operation_xyz
x,y,z
-x,-y,z
x,-y,-z
-x,y,-z
-x,-y,-z
x,y,-z
-x,y,z
x,-y,z
1/2+x,1/2+y,z
1/2-x,1/2-y,z
1/2+x,1/2-y,-z
1/2-x,1/2+y,-z
1/2-x,1/2-y,-z
1/2+x,1/2+y,-z
1/2-x,1/2+y,z
1/2+x,1/2-y,z
loop_
_atom_site_type_symbol
_atom_site_label
_atom_site_fract_x
_atom_site_fract_y
_atom_site_fract_z
Si Si1 0.082882 0.806457 0.166891
Si Si2 0.830623 0.795132 0.000000
Si Si3 0.577750 0.292950 0.925138
Si Si4 0.917553 0.500000 0.682425
Si Si5 0.081751 0.799485 0.378651
Si Si6 0.583366 0.000000 0.224555
Si Si7 0.173041 0.203976 0.454228
O O1 0.104700 0.739818 0.120855
O O2 0.111951 0.671869 0.201084
O O3 0.000000 0.814979 0.168463
O O4 0.113266 0.000000 0.176279
O O5 0.750000 0.750000 0.000000
O O6 0.868447 0.716118 0.040878
O O7 0.840619 0.000000 0.000000
O O8 0.500000 0.217514 0.933610
O O9 0.574137 0.500000 0.927598
O O10 0.892921 0.675872 0.658964
O O11 0.885843 0.500000 0.728791
O O12 0.000000 0.500000 0.685526
O O13 0.118108 0.726985 0.420466
O O14 0.000000 0.782008 0.386294
O O15 0.102598 0.000000 0.368361
O O16 0.500000 0.000000 0.224554
O O17 0.159762 0.289255 0.500000
O O18 0.250000 0.250000 0.438234
O O19 0.163818 0.000000 0.458264
#
# Coordination Sequence:
#
# PCOD8267693 Si02
#       7
#    16   8  16   8  16   8  16
#     4   8  14  25  42  66  93 119 152 193 236 281
#     4  10  19  31  45  65  97 124 156 192 226 280
#     4   8  14  27  48  68  88 121 160 194 229 270
#     4   9  18  30  45  68  98 130 160 192 238 292
#     4   9  18  32  48  68  98 132 165 197 235 285
#     4   9  16  26  42  68  98 122 148 191 243 288
#     4   9  18  31  48  71  97 125 161 202 242 282
#
# _framework density 18.584443
#
# number of rings (size 3 to 8) (size 9 to 14) (size 15 to 20)
#    0.000    3.273    0.000    1.364    1.273    2.182 
#    1.636    5.455    0.000    2.182    0.000    1.273 
#    0.000    0.000    0.000    0.000    0.000    0.000 
#
# Total GULP energy -545276.871741 kJ/mol
# GULP energy per Si atom -12392.656176 kJ/mol
# Density = 1.854214 g / cm^3
# Si number density = 18.584443 Si / 1000 Ang^3
#
#
#
# Elastic Constant Matrix: (Units=GPa)
#
#
# Indices 1 2 3 4 5 6 
#
# 1 54.0363 20.9595 55.6048 0.0000 0.0000 0.0000
# 2 20.9595 78.2073 67.7577 0.0000 0.0000 0.0000
# 3 55.6048 67.7577 184.3993 0.0000 0.0000 0.0000
# 4 0.0000 0.0000 0.0000 21.1014 0.0000 0.0000
# 5 0.0000 0.0000 0.0000 0.0000 6.8012 0.0000
# 6 0.0000 0.0000 0.0000 0.0000 0.0000 14.9349
#
#
#
# Elastic Compliance Matrix: (Units=1/GPa)
#
#
# Indices 1 2 3 4 5 6 
#
# 1 0.026836 -0.000266 -0.007995 0.000000 0.000000 0.000000
# 2 -0.000266 0.018761 -0.006814 0.000000 0.000000 0.000000
# 3 -0.007995 -0.006814 0.010337 0.000000 0.000000 0.000000
# 4 0.000000 0.000000 0.000000 0.047390 0.000000 0.000000
# 5 0.000000 0.000000 0.000000 0.000000 0.147034 0.000000
# 6 0.000000 0.000000 0.000000 0.000000 0.000000 0.066957
#
#
# Mechanical properties :
#
#
# Convention : Reuss Voigt Hill
#
# Bulk Modulus (GPa) = 38.77996 67.25409 53.01703
# Shear Modulus (GPa) = 14.04264 20.05556 17.04910
#
# Velocity S-wave (km/s) = 2.75182 3.28862 3.03212
# Velocity P-wave (km/s) = 5.56856 7.11948 6.39124
#
# Compressibility (1/GPa) = 0.02578651
#
# Stress axis : x y z
#
# Youngs Moduli (GPa) = 37.26371 53.30222 96.73575
#
# Poissons Ratio (x) = 0.01415 0.77337
# Poissons Ratio (y) = 0.00989 0.65912
# Poissons Ratio (z) = 0.29791 0.36318
#
# Static dielectric constant tensor:
#      x y z
#    x 4.468960 0.000000 0.000000 
#    y 0.000000 3.463640 0.000000 
#    z 0.000000 0.000000 3.884000 
# 
# 
# High freq. dielectric constant tensor:
#      x y z
#    x 1.665350 0.000000 0.000000 
#    y 0.000000 1.716760 0.000000 
#    z 0.000000 0.000000 1.724960 
# 
# From -- ./inp_files/77989.got.cif
#   From: 2010.03.12/outbox.cif.g09.slc.cpg/sg65_39_cif.got.tgz:77989.got - 2010.04.10 20:52:16.
