data_PCOD8267125
_publ_section_title
;
Structure prediction by ZEFSAII (Michael W. Deem and Ramdas Pophale) SiO2 
 PCOD8267125
Probable space group: C M M M
;
_chemical_formula_sum "Si O2"
_cell_formula_units_Z 88
_cell_length_a 26.604271
_cell_length_b 15.544287
_cell_length_c 14.113945
_cell_angle_alpha 90.000000
_cell_angle_beta 90.000000
_cell_angle_gamma 90.000000
_cell_volume 5836.743253
_symmetry_space_group_name_H-M "C M M M"
_symmetry_group_IT_number 65
_symmetry_cell_setting 'orthorhombic'
loop_
_space_group_symop_operation_xyz
x,y,z
-x,-y,z
x,-y,-z
-x,y,-z
-x,-y,-z
x,y,-z
-x,y,z
x,-y,z
1/2+x,1/2+y,z
1/2-x,1/2-y,z
1/2+x,1/2-y,-z
1/2-x,1/2+y,-z
1/2-x,1/2-y,-z
1/2+x,1/2+y,-z
1/2-x,1/2+y,z
1/2+x,1/2-y,z
loop_
_atom_site_type_symbol
_atom_site_label
_atom_site_fract_x
_atom_site_fract_y
_atom_site_fract_z
Si Si1 0.272216 0.661809 0.387448
Si Si2 0.059580 0.403880 0.103762
Si Si3 0.113363 0.831845 0.387546
Si Si4 0.058533 0.672015 0.296410
Si Si5 0.556271 0.500000 0.612671
Si Si6 0.210323 0.500000 0.612984
Si Si7 0.595800 0.000000 0.387762
O O1 0.268853 0.661636 0.500000
O O2 0.250000 0.750000 0.345684
O O3 0.329633 0.653343 0.354821
O O4 0.239254 0.583427 0.346516
O O5 0.081365 0.500000 0.121482
O O6 0.077004 0.340244 0.187504
O O7 0.000000 0.409959 0.106281
O O8 0.077546 0.369889 0.000000
O O9 0.108775 0.820744 0.500000
O O10 0.091939 0.746421 0.340724
O O11 0.083336 0.914525 0.349529
O O12 0.066623 0.583679 0.352348
O O13 0.000000 0.697703 0.303222
O O14 0.500000 0.500000 0.652758
O O15 0.557352 0.500000 0.500000
O O16 0.211705 0.500000 0.500000
O O17 0.153218 0.500000 0.650085
O O18 0.595168 0.000000 0.500000
#
# Coordination Sequence:
#
# PCOD8267125 Si02
#       7
#    16  16  16  16   8   8   8
#     4   9  16  27  41  55  73 102 141 181 215 239
#     4   8  14  27  45  61  80 109 144 179 208 237
#     4  10  19  29  42  60  83 113 149 182 210 246
#     4  11  20  29  41  62  91 121 144 165 202 255
#     4   9  17  29  41  53  74 109 150 183 203 224
#     4   9  17  29  43  56  75 108 148 188 220 240
#     4  11  21  29  38  59  93 125 147 165 197 256
#
# _framework density 15.076900999999999
#
# number of rings (size 3 to 8) (size 9 to 14) (size 15 to 20)
#    0.000    2.455    0.909    3.545    0.000    7.636 
#    0.000    0.000    0.000    0.000    0.000    0.636 
#    0.000   11.636    0.000    0.000    0.000    0.000 
#
# Total GULP energy -545445.131295 kJ/mol
# GULP energy per Si atom -12396.480257 kJ/mol
# Density = 1.504258 g / cm^3
# Si number density = 15.076901 Si / 1000 Ang^3
#
#
#
# Elastic Constant Matrix: (Units=GPa)
#
#
# Indices 1 2 3 4 5 6 
#
# 1 66.3800 17.6087 11.2942 0.0000 0.0000 0.0000
# 2 17.6087 86.0158 14.0715 0.0000 0.0000 0.0000
# 3 11.2942 14.0715 49.1277 0.0000 0.0000 0.0000
# 4 0.0000 0.0000 0.0000 3.1399 0.0000 0.0000
# 5 0.0000 0.0000 0.0000 0.0000 4.5911 0.0000
# 6 0.0000 0.0000 0.0000 0.0000 0.0000 27.1353
#
#
#
# Elastic Compliance Matrix: (Units=1/GPa)
#
#
# Indices 1 2 3 4 5 6 
#
# 1 0.016323 -0.002862 -0.002933 0.000000 0.000000 0.000000
# 2 -0.002862 0.012699 -0.002979 0.000000 0.000000 0.000000
# 3 -0.002933 -0.002979 0.021883 0.000000 0.000000 0.000000
# 4 0.000000 0.000000 0.000000 0.318477 0.000000 0.000000
# 5 0.000000 0.000000 0.000000 0.000000 0.217810 0.000000
# 6 0.000000 0.000000 0.000000 0.000000 0.000000 0.036852
#
#
# Mechanical properties :
#
#
# Convention : Reuss Voigt Hill
#
# Bulk Modulus (GPa) = 29.97910 31.94137 30.96023
# Shear Modulus (GPa) = 7.66035 17.54322 12.60179
#
# Velocity S-wave (km/s) = 2.25652 3.41483 2.89422
# Velocity P-wave (km/s) = 5.16880 6.06463 5.63455
#
# Compressibility (1/GPa) = 0.03335658
#
# Stress axis : x y z
#
# Youngs Moduli (GPa) = 61.26353 78.74625 45.69807
#
# Poissons Ratio (x) = 0.22535 0.13403
# Poissons Ratio (y) = 0.17532 0.13615
# Poissons Ratio (z) = 0.17968 0.23462
#
# Static dielectric constant tensor:
#      x y z
#    x 2.957220 0.000000 0.000000 
#    y 0.000000 3.099440 0.000000 
#    z 0.000000 0.000000 2.758390 
# 
# 
# High freq. dielectric constant tensor:
#      x y z
#    x 1.575260 0.000000 0.000000 
#    y 0.000000 1.583230 0.000000 
#    z 0.000000 0.000000 1.523160 
# 
# From -- ./inp_files/46932.got.cif
#   From: 2010.03.12/outbox.cif.g09.slc.cpg/sg65_24_cif.got.tgz:46932.got - 2010.04.10 20:52:16.
