data_PCOD8267814
_publ_section_title
;
Structure prediction by ZEFSAII (Michael W. Deem and Ramdas Pophale) SiO2 
 PCOD8267814
Probable space group: C M M M
;
_chemical_formula_sum "Si O2"
_cell_formula_units_Z 120
_cell_length_a 30.793586
_cell_length_b 14.464026
_cell_length_c 15.212334
_cell_angle_alpha 90.000000
_cell_angle_beta 90.000000
_cell_angle_gamma 90.000000
_cell_volume 6775.561828
_symmetry_space_group_name_H-M "C M M M"
_symmetry_group_IT_number 65
_symmetry_cell_setting 'orthorhombic'
loop_
_space_group_symop_operation_xyz
x,y,z
-x,-y,z
x,-y,-z
-x,y,-z
-x,-y,-z
x,y,-z
-x,y,z
x,-y,z
1/2+x,1/2+y,z
1/2-x,1/2-y,z
1/2+x,1/2-y,-z
1/2-x,1/2+y,-z
1/2-x,1/2-y,-z
1/2+x,1/2+y,-z
1/2-x,1/2+y,z
1/2+x,1/2-y,z
loop_
_atom_site_type_symbol
_atom_site_label
_atom_site_fract_x
_atom_site_fract_y
_atom_site_fract_z
Si Si1 0.198905 0.757574 0.098806
Si Si2 0.119364 0.893298 0.597995
Si Si3 0.868026 0.397366 0.102154
Si Si4 0.051324 0.601771 0.500000
Si Si5 0.577267 0.601437 0.098870
Si Si6 0.550387 0.753138 0.639801
Si Si7 0.548226 0.787318 0.840174
Si Si8 0.841059 0.104042 0.776746
O O1 0.250000 0.750000 0.093136
O O2 0.172064 0.667640 0.133798
O O3 0.193804 0.835991 0.171929
O O4 0.181716 0.783161 0.000000
O O5 0.139725 0.878549 0.500000
O O6 0.075013 0.836979 0.605858
O O7 0.152655 0.862255 0.675337
O O8 0.106979 0.000000 0.613624
O O9 0.865353 0.500000 0.146896
O O10 0.915183 0.352181 0.118432
O O11 0.862608 0.411640 0.000000
O O12 0.073162 0.500000 0.500000
O O13 0.066578 0.657209 0.413831
O O14 0.000000 0.590820 0.500000
O O15 0.554824 0.500000 0.112042
O O16 0.544685 0.686521 0.113634
O O17 0.614460 0.614273 0.170294
O O18 0.596446 0.607502 0.000000
O O19 0.500000 0.732748 0.623091
O O20 0.561214 0.774509 0.739643
O O21 0.500000 0.832355 0.850018
O O22 0.823475 0.000000 0.777594
#
# Coordination Sequence:
#
# PCOD8267814 Si02
#       8
#    16  16  16   8  16  16  16  16
#     4  10  20  35  58  85 110 138 173 215 269 330
#     4  10  19  31  50  75 103 137 174 211 259 323
#     4  10  21  37  53  71 102 138 174 221 268 309
#     4   9  18  32  47  63  87 119 159 216 282 331
#     4  10  19  31  49  72 101 140 180 218 266 317
#     4  10  19  31  47  68  96 130 171 224 277 318
#     4  11  22  34  51  73 101 142 189 228 263 316
#     4  10  19  33  53  79 110 140 170 212 265 323
#
# _framework density 17.710709000000001
#
# number of rings (size 3 to 8) (size 9 to 14) (size 15 to 20)
#    0.000    1.933    3.333    0.800    0.000    3.733 
#    0.000    6.000    0.000    0.400    0.000    0.000 
#    0.000    0.000    0.000    0.000    0.000    0.000 
#
# Total GULP energy -743468.954009 kJ/mol
# GULP energy per Si atom -12391.149233 kJ/mol
# Density = 1.767040 g / cm^3
# Si number density = 17.710709 Si / 1000 Ang^3
#
#
#
# Elastic Constant Matrix: (Units=GPa)
#
#
# Indices 1 2 3 4 5 6 
#
# 1 65.0623 38.2849 18.5104 0.0000 0.0000 0.0000
# 2 38.2849 106.7703 40.3635 0.0000 0.0000 0.0000
# 3 18.5104 40.3635 104.8483 0.0000 0.0000 0.0000
# 4 0.0000 0.0000 0.0000 21.6732 0.0000 0.0000
# 5 0.0000 0.0000 0.0000 0.0000 25.6022 0.0000
# 6 0.0000 0.0000 0.0000 0.0000 0.0000 13.5174
#
#
#
# Elastic Compliance Matrix: (Units=1/GPa)
#
#
# Indices 1 2 3 4 5 6 
#
# 1 0.019549 -0.006677 -0.000881 0.000000 0.000000 0.000000
# 2 -0.006677 0.013241 -0.003919 0.000000 0.000000 0.000000
# 3 -0.000881 -0.003919 0.011202 0.000000 0.000000 0.000000
# 4 0.000000 0.000000 0.000000 0.046140 0.000000 0.000000
# 5 0.000000 0.000000 0.000000 0.000000 0.039059 0.000000
# 6 0.000000 0.000000 0.000000 0.000000 0.000000 0.073979
#
#
# Mechanical properties :
#
#
# Convention : Reuss Voigt Hill
#
# Bulk Modulus (GPa) = 47.52983 52.33315 49.93149
# Shear Modulus (GPa) = 21.44666 24.12672 22.78669
#
# Velocity S-wave (km/s) = 3.48364 3.69489 3.59082
# Velocity P-wave (km/s) = 6.56323 6.91491 6.74137
#
# Compressibility (1/GPa) = 0.02103942
#
# Stress axis : x y z
#
# Youngs Moduli (GPa) = 51.15246 75.52018 89.27179
#
# Poissons Ratio (x) = 0.50424 0.07864
# Poissons Ratio (y) = 0.34154 0.34984
# Poissons Ratio (z) = 0.04506 0.29595
#
# Static dielectric constant tensor:
#      x y z
#    x 2.888870 0.000000 0.000000 
#    y 0.000000 3.634560 0.000000 
#    z 0.000000 0.000000 3.628060 
# 
# 
# High freq. dielectric constant tensor:
#      x y z
#    x 1.641630 0.000000 0.000000 
#    y 0.000000 1.688640 0.000000 
#    z 0.000000 0.000000 1.691210 
# 
# From -- ./inp_files/48084.got.cif
#   From: 2010.03.12/outbox.cif.g09.slc.cpg/sg65_25_cif.got.tgz:48084.got - 2010.04.10 20:52:16.
