data_PCOD8267188
_publ_section_title
;
Structure prediction by ZEFSAII (Michael W. Deem and Ramdas Pophale) SiO2 
 PCOD8267188
Probable space group: C M M M
;
_chemical_formula_sum "Si O2"
_cell_formula_units_Z 96
_cell_length_a 9.051137
_cell_length_b 26.885859
_cell_length_c 23.585036
_cell_angle_alpha 90.000000
_cell_angle_beta 90.000000
_cell_angle_gamma 90.000000
_cell_volume 5739.361745
_symmetry_space_group_name_H-M "C M M M"
_symmetry_group_IT_number 65
_symmetry_cell_setting 'orthorhombic'
loop_
_space_group_symop_operation_xyz
x,y,z
-x,-y,z
x,-y,-z
-x,y,-z
-x,-y,-z
x,y,-z
-x,y,z
x,-y,z
1/2+x,1/2+y,z
1/2-x,1/2-y,z
1/2+x,1/2-y,-z
1/2-x,1/2+y,-z
1/2-x,1/2-y,-z
1/2+x,1/2+y,-z
1/2-x,1/2+y,z
1/2+x,1/2-y,z
loop_
_atom_site_type_symbol
_atom_site_label
_atom_site_fract_x
_atom_site_fract_y
_atom_site_fract_z
Si Si1 0.173003 0.557301 0.387935
Si Si2 0.174052 0.352300 0.116980
Si Si3 0.171531 0.943141 0.164631
Si Si4 0.168089 0.898685 0.716585
Si Si5 0.170859 0.799350 0.219210
Si Si6 0.333269 0.559123 0.500000
Si Si7 0.828078 0.302537 0.000000
O O1 0.217491 0.500000 0.377438
O O2 0.223088 0.589484 0.334533
O O3 0.251591 0.579023 0.443936
O O4 0.000000 0.563404 0.396855
O O5 0.230927 0.408803 0.123686
O O6 0.253691 0.315994 0.160941
O O7 0.000000 0.350583 0.127998
O O8 0.218209 0.334514 0.054520
O O9 0.212547 0.932942 0.230054
O O10 0.000000 0.929733 0.155114
O O11 0.206843 0.000000 0.149512
O O12 0.188822 0.841078 0.732695
O O13 0.000000 0.909927 0.697952
O O14 0.250000 0.750000 0.242370
O O15 0.000000 0.788538 0.206312
O O16 0.327449 0.500000 0.500000
O O17 0.500000 0.579401 0.500000
O O18 0.750000 0.250000 0.000000
O O19 0.000000 0.291079 0.000000
#
# Coordination Sequence:
#
# PCOD8267188 Si02
#       7
#    16  16  16  16  16   8   8
#     4  10  19  29  43  67  98 127 158 197 234 270
#     4  10  20  34  51  72  97 124 157 194 236 287
#     4   9  18  33  51  71  97 128 161 197 235 277
#     4   9  18  31  47  68  94 124 157 191 230 279
#     4  10  20  34  51  72  97 124 155 194 240 286
#     4   9  17  29  45  63  88 127 166 195 231 277
#     4  10  22  36  51  72  95 121 154 195 241 288
#
# _framework density 16.726599
#
# number of rings (size 3 to 8) (size 9 to 14) (size 15 to 20)
#    0.000    2.417    0.000    3.750    0.000    9.000 
#    0.000    0.417    0.000    2.500    0.000    0.583 
#    0.000    0.000    0.000    0.000    0.000    0.000 
#
# Total GULP energy -595323.286822 kJ/mol
# GULP energy per Si atom -12402.568475 kJ/mol
# Density = 1.668853 g / cm^3
# Si number density = 16.726599 Si / 1000 Ang^3
#
#
#
# Elastic Constant Matrix: (Units=GPa)
#
#
# Indices 1 2 3 4 5 6 
#
# 1 97.0245 48.3765 61.2576 0.0000 0.0000 0.0000
# 2 48.3765 89.9204 47.7111 0.0000 0.0000 0.0000
# 3 61.2576 47.7111 116.3927 0.0000 0.0000 0.0000
# 4 0.0000 0.0000 0.0000 16.8687 0.0000 0.0000
# 5 0.0000 0.0000 0.0000 0.0000 30.6238 0.0000
# 6 0.0000 0.0000 0.0000 0.0000 0.0000 30.7639
#
#
#
# Elastic Compliance Matrix: (Units=1/GPa)
#
#
# Indices 1 2 3 4 5 6 
#
# 1 0.017516 -0.005792 -0.006844 0.000000 0.000000 0.000000
# 2 -0.005792 0.016127 -0.003563 0.000000 0.000000 0.000000
# 3 -0.006844 -0.003563 0.013654 0.000000 0.000000 0.000000
# 4 0.000000 0.000000 0.000000 0.059281 0.000000 0.000000
# 5 0.000000 0.000000 0.000000 0.000000 0.032654 0.000000
# 6 0.000000 0.000000 0.000000 0.000000 0.000000 0.032506
#
#
# Mechanical properties :
#
#
# Convention : Reuss Voigt Hill
#
# Bulk Modulus (GPa) = 67.11586 68.66977 67.89281
# Shear Modulus (GPa) = 23.91173 25.38411 24.64792
#
# Velocity S-wave (km/s) = 3.78506 3.89985 3.84288
# Velocity P-wave (km/s) = 7.70159 7.83721 7.76970
#
# Compressibility (1/GPa) = 0.01489961
#
# Stress axis : x y z
#
# Youngs Moduli (GPa) = 57.09147 62.00732 73.23762
#
# Poissons Ratio (x) = 0.35913 0.50127
# Poissons Ratio (y) = 0.33066 0.26091
# Poissons Ratio (z) = 0.39076 0.22090
#
# Static dielectric constant tensor:
#      x y z
#    x 3.213340 0.000000 0.000000 
#    y 0.000000 3.166490 0.000000 
#    z 0.000000 0.000000 3.067780 
# 
# 
# High freq. dielectric constant tensor:
#      x y z
#    x 1.655860 0.000000 0.000000 
#    y 0.000000 1.629090 0.000000 
#    z 0.000000 0.000000 1.634350 
# 
# From -- ./inp_files/68122.got.cif
#   From: 2010.03.12/outbox.cif.g09.slc.cpg/sg65_35_cif.got.tgz:68122.got - 2010.04.10 20:52:16.
