data_PCOD8267859
_publ_section_title
;
Structure prediction by ZEFSAII (Michael W. Deem and Ramdas Pophale) SiO2 
 PCOD8267859
Probable space group: C M M M
;
_chemical_formula_sum "Si O2"
_cell_formula_units_Z 88
_cell_length_a 9.705699
_cell_length_b 18.062923
_cell_length_c 28.671738
_cell_angle_alpha 90.000000
_cell_angle_beta 90.000000
_cell_angle_gamma 90.000000
_cell_volume 5026.536825
_symmetry_space_group_name_H-M "C M M M"
_symmetry_group_IT_number 65
_symmetry_cell_setting 'orthorhombic'
loop_
_space_group_symop_operation_xyz
x,y,z
-x,-y,z
x,-y,-z
-x,y,-z
-x,-y,-z
x,y,-z
-x,y,z
x,-y,z
1/2+x,1/2+y,z
1/2-x,1/2-y,z
1/2+x,1/2-y,-z
1/2-x,1/2+y,-z
1/2-x,1/2-y,-z
1/2+x,1/2+y,-z
1/2-x,1/2+y,z
1/2+x,1/2-y,z
loop_
_atom_site_type_symbol
_atom_site_label
_atom_site_fract_x
_atom_site_fract_y
_atom_site_fract_z
Si Si1 0.836576 0.176497 0.821883
Si Si2 0.662383 0.417750 0.089008
Si Si3 0.653233 0.588235 0.632152
Si Si4 0.663674 0.417843 0.265435
Si Si5 0.835760 0.824654 0.000000
Si Si6 0.845703 0.588052 0.551570
O O1 0.750000 0.250000 0.829142
O O2 0.793679 0.121652 0.863298
O O3 0.786152 0.139139 0.773760
O O4 0.000000 0.193627 0.822094
O O5 0.500000 0.425511 0.086520
O O6 0.728675 0.500000 0.087525
O O7 0.713185 0.370488 0.045038
O O8 0.500000 0.620361 0.624587
O O9 0.649194 0.500000 0.629221
O O10 0.711544 0.610724 0.683352
O O11 0.748753 0.622674 0.591596
O O12 0.500000 0.423598 0.265073
O O13 0.724289 0.500000 0.255182
O O14 0.750000 0.750000 0.000000
O O15 0.000000 0.808545 0.000000
O O16 0.793481 0.612330 0.500000
O O17 0.844504 0.500000 0.554967
O O18 0.000000 0.617741 0.559859
#
# Coordination Sequence:
#
# PCOD8267859 Si02
#       6
#    16  16  16  16   8  16
#     4  10  19  31  48  68  91 118 148 185 228 273
#     4   9  17  30  50  73  93 120 161 199 226 260
#     4   8  13  21  34  52  72  96 132 176 213 245
#     4   8  14  26  44  63  82 109 147 185 218 258
#     4  10  19  31  49  73 101 128 156 194 234 272
#     4   8  13  20  29  44  71 106 137 163 199 252
#
# _framework density 17.507083999999999
#
# number of rings (size 3 to 8) (size 9 to 14) (size 15 to 20)
#    0.000    3.273    0.000    3.000    0.000    3.636 
#    0.000    2.727    0.000    5.455    0.000    0.000 
#    0.000    0.727    0.000    1.636    0.000    4.364 
#
# Total GULP energy -545291.379266 kJ/mol
# GULP energy per Si atom -12392.985892 kJ/mol
# Density = 1.746724 g / cm^3
# Si number density = 17.507084 Si / 1000 Ang^3
#
#
#
# Elastic Constant Matrix: (Units=GPa)
#
#
# Indices 1 2 3 4 5 6 
#
# 1 45.5978 33.2626 50.8767 0.0000 0.0000 0.0000
# 2 33.2626 93.8856 61.2214 0.0000 0.0000 0.0000
# 3 50.8767 61.2214 175.4787 0.0000 0.0000 0.0000
# 4 0.0000 0.0000 0.0000 -7.6622 0.0000 0.0000
# 5 0.0000 0.0000 0.0000 0.0000 11.1840 0.0000
# 6 0.0000 0.0000 0.0000 0.0000 0.0000 17.4458
#
#
#
# Elastic Compliance Matrix: (Units=1/GPa)
#
#
# Indices 1 2 3 4 5 6 
#
# 1 0.036325 -0.007770 -0.007821 0.000000 0.000000 0.000000
# 2 -0.007770 0.015450 -0.003138 0.000000 0.000000 0.000000
# 3 -0.007821 -0.003138 0.009061 0.000000 0.000000 0.000000
# 4 0.000000 0.000000 0.000000 -0.130511 0.000000 0.000000
# 5 0.000000 0.000000 0.000000 0.000000 0.089414 0.000000
# 6 0.000000 0.000000 0.000000 0.000000 0.000000 0.057320
#
#
# Mechanical properties :
#
#
# Convention : Reuss Voigt Hill
#
# Bulk Modulus (GPa) = 42.77246 67.29816 55.03531
# Shear Modulus (GPa) = 40.88010 15.50027 28.19019
#
# Velocity S-wave (km/s) = 4.83749 2.97875 4.01710
# Velocity P-wave (km/s) = 7.46232 7.09609 7.28151
#
# Compressibility (1/GPa) = 0.02337953
#
# Stress axis : x y z
#
# Youngs Moduli (GPa) = 27.52905 64.72537 110.36393
#
# Poissons Ratio (x) = 0.50289 0.86317
# Poissons Ratio (y) = 0.21389 0.34627
# Poissons Ratio (z) = 0.21531 0.20308
#
# Static dielectric constant tensor:
#      x y z
#    x 3.001860 0.000000 0.000000 
#    y 0.000000 2.987710 0.000000 
#    z 0.000000 0.000000 3.775600 
# 
# 
# High freq. dielectric constant tensor:
#      x y z
#    x 1.632830 0.000000 0.000000 
#    y 0.000000 1.639230 0.000000 
#    z 0.000000 0.000000 1.700260 
# 
# From -- ./inp_files/69787.got.cif
#   From: 2010.03.12/outbox.cif.g09.slc.cpg/sg65_35_cif.got.tgz:69787.got - 2010.04.10 20:52:16.
