data_PCOD8267240
_publ_section_title
;
Structure prediction by ZEFSAII (Michael W. Deem and Ramdas Pophale) SiO2 
 PCOD8267240
Probable space group: C M M M
;
_chemical_formula_sum "Si O2"
_cell_formula_units_Z 104
_cell_length_a 30.079407
_cell_length_b 21.927968
_cell_length_c 9.460547
_cell_angle_alpha 90.000000
_cell_angle_beta 90.000000
_cell_angle_gamma 90.000000
_cell_volume 6239.990184
_symmetry_space_group_name_H-M "C M M M"
_symmetry_group_IT_number 65
_symmetry_cell_setting 'orthorhombic'
loop_
_space_group_symop_operation_xyz
x,y,z
-x,-y,z
x,-y,-z
-x,y,-z
-x,-y,-z
x,y,-z
-x,y,z
x,-y,z
1/2+x,1/2+y,z
1/2-x,1/2-y,z
1/2+x,1/2-y,-z
1/2-x,1/2+y,-z
1/2-x,1/2-y,-z
1/2+x,1/2+y,-z
1/2-x,1/2+y,z
1/2+x,1/2-y,z
loop_
_atom_site_type_symbol
_atom_site_label
_atom_site_fract_x
_atom_site_fract_y
_atom_site_fract_z
Si Si1 0.294579 0.832818 0.660105
Si Si2 0.301974 0.311925 0.341389
Si Si3 0.051263 0.571251 0.336933
Si Si4 0.380387 0.710785 0.160680
Si Si5 0.053097 0.000000 0.659558
Si Si6 0.949376 0.111255 0.839156
Si Si7 0.621971 0.849795 0.168139
O O1 0.303694 0.855664 0.500000
O O2 0.297746 0.760496 0.667414
O O3 0.243434 0.846686 0.706167
O O4 0.329578 0.865910 0.764928
O O5 0.313540 0.332248 0.500000
O O6 0.342933 0.328654 0.241233
O O7 0.061348 0.587872 0.500000
O O8 0.059997 0.500000 0.310360
O O9 0.083529 0.608828 0.234614
O O10 0.000000 0.587251 0.300674
O O11 0.426308 0.676034 0.184659
O O12 0.388315 0.779977 0.211776
O O13 0.364479 0.712015 0.000000
O O14 0.071703 0.940203 0.738296
O O15 0.070819 0.000000 0.500000
O O16 0.000000 0.000000 0.667950
O O17 0.000000 0.123249 0.798337
O O18 0.944167 0.088351 0.000000
O O19 0.623325 0.860485 0.000000
#
# Coordination Sequence:
#
# PCOD8267240 Si02
#       7
#    16  16  16  16   8  16  16
#     4   8  14  26  43  63  89 121 154 185 220 266
#     4   8  14  25  42  63  88 120 155 188 221 262
#     4   9  19  36  54  69  88 120 162 201 237 283
#     4   9  18  29  42  66  98 127 153 185 229 279
#     4   9  17  29  45  65  85 105 141 193 231 251
#     4   9  17  30  46  62  85 121 158 184 215 268
#     4  10  19  29  45  72 100 123 150 188 234 278
#
# _framework density 16.666692999999999
#
# number of rings (size 3 to 8) (size 9 to 14) (size 15 to 20)
#    0.000    3.154    0.000    2.077    0.000    4.000 
#    0.000    5.385    0.000    1.846    2.000    0.000 
#    0.000    0.000    0.000    0.000    0.000    0.000 
#
# Total GULP energy -644416.982959 kJ/mol
# GULP energy per Si atom -12392.634288 kJ/mol
# Density = 1.662876 g / cm^3
# Si number density = 16.666693 Si / 1000 Ang^3
#
#
#
# Elastic Constant Matrix: (Units=GPa)
#
#
# Indices 1 2 3 4 5 6 
#
# 1 107.6761 43.7885 65.6858 0.0000 0.0000 0.0000
# 2 43.7885 54.4208 41.4959 0.0000 0.0000 0.0000
# 3 65.6858 41.4959 95.7614 0.0000 0.0000 0.0000
# 4 0.0000 0.0000 0.0000 18.0749 0.0000 0.0000
# 5 0.0000 0.0000 0.0000 0.0000 29.4365 0.0000
# 6 0.0000 0.0000 0.0000 0.0000 0.0000 11.8693
#
#
#
# Elastic Compliance Matrix: (Units=1/GPa)
#
#
# Indices 1 2 3 4 5 6 
#
# 1 0.017802 -0.007487 -0.008966 0.000000 0.000000 0.000000
# 2 -0.007487 0.030591 -0.008121 0.000000 0.000000 0.000000
# 3 -0.008966 -0.008121 0.020112 0.000000 0.000000 0.000000
# 4 0.000000 0.000000 0.000000 0.055325 0.000000 0.000000
# 5 0.000000 0.000000 0.000000 0.000000 0.033971 0.000000
# 6 0.000000 0.000000 0.000000 0.000000 0.000000 0.084251
#
#
# Mechanical properties :
#
#
# Convention : Reuss Voigt Hill
#
# Bulk Modulus (GPa) = 51.66049 62.19983 56.93016
# Shear Modulus (GPa) = 16.79811 19.00202 17.90007
#
# Velocity S-wave (km/s) = 3.17816 3.38023 3.28075
# Velocity P-wave (km/s) = 6.67317 7.25503 6.97017
#
# Compressibility (1/GPa) = 0.01935715
#
# Stress axis : x y z
#
# Youngs Moduli (GPa) = 56.17497 32.68901 49.72177
#
# Poissons Ratio (x) = 0.24473 0.44583
# Poissons Ratio (y) = 0.42056 0.40377
# Poissons Ratio (z) = 0.50369 0.26546
#
# Static dielectric constant tensor:
#      x y z
#    x 3.412100 0.000000 0.000000 
#    y 0.000000 2.820510 0.000000 
#    z 0.000000 0.000000 3.232910 
# 
# 
# High freq. dielectric constant tensor:
#      x y z
#    x 1.639860 0.000000 0.000000 
#    y 0.000000 1.602710 0.000000 
#    z 0.000000 0.000000 1.644840 
# 
# From -- ./inp_files/14799.got.cif
#   From: 2010.03.12/outbox.cif.g09.slc.cpg/sg65_8_cif.got.tgz:14799.got - 2010.04.10 20:52:16.
