data_PCOD8267057
_publ_section_title
;
Structure prediction by ZEFSAII (Michael W. Deem and Ramdas Pophale) SiO2 
 PCOD8267057
Probable space group: C M M M
;
_chemical_formula_sum "Si O2"
_cell_formula_units_Z 104
_cell_length_a 27.049510
_cell_length_b 9.071913
_cell_length_c 26.207144
_cell_angle_alpha 90.000000
_cell_angle_beta 90.000000
_cell_angle_gamma 90.000000
_cell_volume 6430.992069
_symmetry_space_group_name_H-M "C M M M"
_symmetry_group_IT_number 65
_symmetry_cell_setting 'orthorhombic'
loop_
_space_group_symop_operation_xyz
x,y,z
-x,-y,z
x,-y,-z
-x,y,-z
-x,-y,-z
x,y,-z
-x,y,z
x,-y,z
1/2+x,1/2+y,z
1/2-x,1/2-y,z
1/2+x,1/2-y,-z
1/2-x,1/2+y,-z
1/2-x,1/2-y,-z
1/2+x,1/2+y,-z
1/2-x,1/2+y,z
1/2+x,1/2-y,z
loop_
_atom_site_type_symbol
_atom_site_label
_atom_site_fract_x
_atom_site_fract_y
_atom_site_fract_z
Si Si1 0.602546 0.832005 0.706257
Si Si2 0.299310 0.828701 0.646681
Si Si3 0.353585 0.330370 0.441656
Si Si4 0.943633 0.670464 0.399978
Si Si5 0.943067 0.172713 0.799185
Si Si6 0.058808 0.666194 0.099365
Si Si7 0.440997 0.333426 0.000000
O O1 0.658851 0.803727 0.689243
O O2 0.566231 0.795446 0.659390
O O3 0.590163 0.722831 0.751987
O O4 0.594877 0.000000 0.724540
O O5 0.250000 0.750000 0.666808
O O6 0.315525 0.760604 0.592696
O O7 0.288970 0.000000 0.637509
O O8 0.336948 0.311974 0.500000
O O9 0.352661 0.500000 0.424460
O O10 0.409290 0.270127 0.435526
O O11 0.931013 0.500000 0.411106
O O12 0.000000 0.708483 0.413221
O O13 0.922733 0.252304 0.849761
O O14 0.000000 0.216032 0.788612
O O15 0.937023 0.000000 0.807577
O O16 0.079480 0.500000 0.099162
O O17 0.000000 0.666897 0.097481
O O18 0.079833 0.750922 0.049979
O O19 0.420869 0.500000 0.000000
O O20 0.500000 0.332248 0.000000
#
# Coordination Sequence:
#
# PCOD8267057 Si02
#       7
#    16  16  16  16  16  16   8
#     4   9  18  32  48  66  88 114 144 178 217 263
#     4  10  21  37  56  74  91 113 142 177 220 270
#     4  10  21  35  50  70  95 120 147 180 217 259
#     4   9  18  32  49  68  91 121 154 185 219 260
#     4  10  19  28  40  62  90 119 152 188 224 259
#     4   9  16  25  37  53  76 111 153 191 226 264
#     4   9  15  23  35  51  75 107 146 193 234 265
#
# _framework density 16.171689000000001
#
# number of rings (size 3 to 8) (size 9 to 14) (size 15 to 20)
#    0.000    2.538    0.000    3.462    0.000    9.538 
#    0.000    1.538    0.000    0.000    0.000    0.000 
#    0.000    0.000    0.000    0.692    0.000    9.462 
#
# Total GULP energy -644890.409202 kJ/mol
# GULP energy per Si atom -12401.738639 kJ/mol
# Density = 1.613488 g / cm^3
# Si number density = 16.171689 Si / 1000 Ang^3
#
#
#
# Elastic Constant Matrix: (Units=GPa)
#
#
# Indices 1 2 3 4 5 6 
#
# 1 52.5937 32.3868 21.5843 0.0000 0.0000 0.0000
# 2 32.3868 116.5454 56.3547 0.0000 0.0000 0.0000
# 3 21.5843 56.3547 91.3244 0.0000 0.0000 0.0000
# 4 0.0000 0.0000 0.0000 32.9721 0.0000 0.0000
# 5 0.0000 0.0000 0.0000 0.0000 10.0697 0.0000
# 6 0.0000 0.0000 0.0000 0.0000 0.0000 23.7643
#
#
#
# Elastic Compliance Matrix: (Units=1/GPa)
#
#
# Indices 1 2 3 4 5 6 
#
# 1 0.023231 -0.005417 -0.002148 0.000000 0.000000 0.000000
# 2 -0.005417 0.013493 -0.007046 0.000000 0.000000 0.000000
# 3 -0.002148 -0.007046 0.015805 0.000000 0.000000 0.000000
# 4 0.000000 0.000000 0.000000 0.030329 0.000000 0.000000
# 5 0.000000 0.000000 0.000000 0.000000 0.099308 0.000000
# 6 0.000000 0.000000 0.000000 0.000000 0.000000 0.042080
#
#
# Mechanical properties :
#
#
# Convention : Reuss Voigt Hill
#
# Bulk Modulus (GPa) = 42.90425 53.45725 48.18075
# Shear Modulus (GPa) = 19.13976 23.37038 21.25507
#
# Velocity S-wave (km/s) = 3.44399 3.80563 3.62931
# Velocity P-wave (km/s) = 6.51174 7.24142 6.88625
#
# Compressibility (1/GPa) = 0.02330772
#
# Stress axis : x y z
#
# Youngs Moduli (GPa) = 43.04602 74.11443 63.26941
#
# Poissons Ratio (x) = 0.40149 0.13589
# Poissons Ratio (y) = 0.23319 0.44578
# Poissons Ratio (z) = 0.09245 0.52219
#
# Static dielectric constant tensor:
#      x y z
#    x 2.798600 0.000000 0.000000 
#    y 0.000000 3.192540 0.000000 
#    z 0.000000 0.000000 3.002120 
# 
# 
# High freq. dielectric constant tensor:
#      x y z
#    x 1.576390 0.000000 0.000000 
#    y 0.000000 1.637740 0.000000 
#    z 0.000000 0.000000 1.617130 
# 
# From -- ./inp_files/68153.got.cif
#   From: 2010.03.12/outbox.cif.g09.slc.cpg/sg65_35_cif.got.tgz:68153.got - 2010.04.10 20:52:16.
