data_PCOD8267727
_publ_section_title
;
Structure prediction by ZEFSAII (Michael W. Deem and Ramdas Pophale) SiO2 
 PCOD8267727
Probable space group: C M M M
;
_chemical_formula_sum "Si O2"
_cell_formula_units_Z 96
_cell_length_a 14.092910
_cell_length_b 30.150723
_cell_length_c 14.086196
_cell_angle_alpha 90.000000
_cell_angle_beta 90.000000
_cell_angle_gamma 90.000000
_cell_volume 5985.385625
_symmetry_space_group_name_H-M "C M M M"
_symmetry_group_IT_number 65
_symmetry_cell_setting 'orthorhombic'
loop_
_space_group_symop_operation_xyz
x,y,z
-x,-y,z
x,-y,-z
-x,y,-z
-x,-y,-z
x,y,-z
-x,y,z
x,-y,z
1/2+x,1/2+y,z
1/2-x,1/2-y,z
1/2+x,1/2-y,-z
1/2-x,1/2+y,-z
1/2-x,1/2-y,-z
1/2+x,1/2+y,-z
1/2-x,1/2+y,z
1/2+x,1/2-y,z
loop_
_atom_site_type_symbol
_atom_site_label
_atom_site_fract_x
_atom_site_fract_y
_atom_site_fract_z
Si Si1 0.891572 0.131635 0.390733
Si Si2 0.610082 0.451675 0.281754
Si Si3 0.851470 0.770382 0.604927
Si Si4 0.224767 0.812559 0.112009
Si Si5 0.392220 0.398015 0.893455
Si Si6 0.106217 0.265764 0.802809
O O1 0.884127 0.120108 0.500000
O O2 0.842900 0.089443 0.338709
O O3 0.840275 0.177891 0.365494
O O4 0.000000 0.137483 0.356698
O O5 0.500000 0.454233 0.310250
O O6 0.656928 0.500000 0.303881
O O7 0.623392 0.441451 0.170415
O O8 0.903220 0.767225 0.500000
O O9 0.750000 0.750000 0.592627
O O10 0.902523 0.743693 0.689432
O O11 0.180404 0.859833 0.138536
O O12 0.147192 0.776222 0.141167
O O13 0.322401 0.806348 0.172197
O O14 0.245918 0.808369 0.000000
O O15 0.500000 0.379827 0.882232
O O16 0.371502 0.413319 0.000000
O O17 0.000000 0.276846 0.839006
#
# Coordination Sequence:
#
# PCOD8267727 Si02
#       6
#    16  16  16  16  16  16
#     4   9  17  28  42  60  84 117 152 182 216 262
#     4   9  17  27  41  63  88 115 148 184 220 262
#     4  10  19  31  46  65  89 119 157 194 226 266
#     4  10  20  32  44  63  88 118 157 192 224 270
#     4   9  17  29  45  62  84 117 151 184 221 262
#     4  11  20  30  45  64  88 118 151 192 234 267
#
# _framework density 16.039066999999999
#
# number of rings (size 3 to 8) (size 9 to 14) (size 15 to 20)
#    0.000    2.333    1.667    3.000    0.000    5.000 
#    0.000    3.333    0.000    0.000    0.000    0.000 
#    0.000    0.667    0.000    3.667    0.000    9.500 
#
# Total GULP energy -594681.593077 kJ/mol
# GULP energy per Si atom -12389.199856 kJ/mol
# Density = 1.600256 g / cm^3
# Si number density = 16.039067 Si / 1000 Ang^3
#
#
#
# Elastic Constant Matrix: (Units=GPa)
#
#
# Indices 1 2 3 4 5 6 
#
# 1 71.4368 34.2952 18.0698 0.0000 0.0000 0.0000
# 2 34.2952 99.6405 34.6729 0.0000 0.0000 0.0000
# 3 18.0698 34.6729 71.9370 0.0000 0.0000 0.0000
# 4 0.0000 0.0000 0.0000 17.9444 0.0000 0.0000
# 5 0.0000 0.0000 0.0000 0.0000 -17.2620 0.0000
# 6 0.0000 0.0000 0.0000 0.0000 0.0000 15.9680
#
#
#
# Elastic Compliance Matrix: (Units=1/GPa)
#
#
# Indices 1 2 3 4 5 6 
#
# 1 0.016948 -0.005229 -0.001737 0.000000 0.000000 0.000000
# 2 -0.005229 0.013672 -0.005276 0.000000 0.000000 0.000000
# 3 -0.001737 -0.005276 0.016880 0.000000 0.000000 0.000000
# 4 0.000000 0.000000 0.000000 0.055728 0.000000 0.000000
# 5 0.000000 0.000000 0.000000 0.000000 -0.057931 0.000000
# 6 0.000000 0.000000 0.000000 0.000000 0.000000 0.062625
#
#
# Mechanical properties :
#
#
# Convention : Reuss Voigt Hill
#
# Bulk Modulus (GPa) = 43.44764 46.34335 44.89550
# Shear Modulus (GPa) = 35.69417 13.72850 24.71133
#
# Velocity S-wave (km/s) = 4.72259 2.92882 3.92943
# Velocity P-wave (km/s) = 7.54218 6.35563 6.97419
#
# Compressibility (1/GPa) = 0.02301621
#
# Stress axis : x y z
#
# Youngs Moduli (GPa) = 59.00402 73.14303 59.24021
#
# Poissons Ratio (x) = 0.38246 0.10289
# Poissons Ratio (y) = 0.30853 0.31257
# Poissons Ratio (z) = 0.10248 0.38592
#
# Static dielectric constant tensor:
#      x y z
#    x 2.826010 0.000000 0.000000 
#    y 0.000000 3.092700 0.000000 
#    z 0.000000 0.000000 3.488000 
# 
# 
# High freq. dielectric constant tensor:
#      x y z
#    x 1.566100 0.000000 0.000000 
#    y 0.000000 1.598020 0.000000 
#    z 0.000000 0.000000 1.639780 
# 
# From -- ./inp_files/41243.got.cif
#   From: 2010.03.12/outbox.cif.g09.slc.cpg/sg65_21_cif.got.tgz:41243.got - 2010.04.10 20:52:16.
