data_PCOD8267651
_publ_section_title
;
Structure prediction by ZEFSAII (Michael W. Deem and Ramdas Pophale) SiO2 
 PCOD8267651
Probable space group: C M M M
;
_chemical_formula_sum "Si O2"
_cell_formula_units_Z 56
_cell_length_a 10.003018
_cell_length_b 26.920770
_cell_length_c 9.686133
_cell_angle_alpha 90.000000
_cell_angle_beta 90.000000
_cell_angle_gamma 90.000000
_cell_volume 2608.368555
_symmetry_space_group_name_H-M "C M M M"
_symmetry_group_IT_number 65
_symmetry_cell_setting 'orthorhombic'
loop_
_space_group_symop_operation_xyz
x,y,z
-x,-y,z
x,-y,-z
-x,y,-z
-x,-y,-z
x,y,-z
-x,y,z
x,-y,z
1/2+x,1/2+y,z
1/2-x,1/2-y,z
1/2+x,1/2-y,-z
1/2-x,1/2+y,-z
1/2-x,1/2-y,-z
1/2+x,1/2+y,-z
1/2-x,1/2+y,z
1/2+x,1/2-y,z
loop_
_atom_site_type_symbol
_atom_site_label
_atom_site_fract_x
_atom_site_fract_y
_atom_site_fract_z
Si Si1 0.500000 0.323631 0.746990
Si Si2 0.500000 0.429018 0.346395
Si Si3 0.000000 0.286139 0.658336
Si Si4 0.791670 0.661477 0.846136
Si Si5 0.757086 0.053371 0.155624
O O1 0.500000 0.369294 0.640946
O O2 0.500000 0.273164 0.660659
O O3 0.367039 0.328226 0.840396
O O4 0.500000 0.451152 0.500000
O O5 0.626703 0.449504 0.266438
O O6 0.867445 0.305744 0.733608
O O7 0.000000 0.304252 0.500000
O O8 0.829246 0.603289 0.816608
O O9 0.840418 0.676262 0.000000
O O10 0.677871 0.000000 0.168086
O O11 0.815924 0.058442 0.000000
#
# Coordination Sequence:
#
# PCOD8267651 Si02
#       5
#     8   8   8  16  16
#     4  10  22  39  63  88 116 152 195 240 292 346
#     4  10  19  30  49  82 118 148 184 231 283 343
#     4  12  26  41  58  83 120 163 198 234 289 351
#     4  10  22  40  63  90 117 149 195 246 290 339
#     4   9  18  34  55  79 110 148 188 233 287 343
#
# _framework density 21.469359000000001
#
# number of rings (size 3 to 8) (size 9 to 14) (size 15 to 20)
#    0.000    2.000    0.000    3.000    0.000   16.000 
#    0.000    0.714    0.000    4.286    0.000    0.000 
#    0.000    0.000    0.000    0.000    0.000    0.000 
#
# Total GULP energy -346910.131590 kJ/mol
# GULP energy per Si atom -12389.647557 kJ/mol
# Density = 2.142049 g / cm^3
# Si number density = 21.469359 Si / 1000 Ang^3
#
#
#
# Elastic Constant Matrix: (Units=GPa)
#
#
# Indices 1 2 3 4 5 6 
#
# 1 76.4136 29.9871 23.5618 0.0000 0.0000 0.0000
# 2 29.9871 165.4528 36.5651 0.0000 0.0000 0.0000
# 3 23.5618 36.5651 131.3315 0.0000 0.0000 0.0000
# 4 0.0000 0.0000 0.0000 14.5665 0.0000 0.0000
# 5 0.0000 0.0000 0.0000 0.0000 23.3128 0.0000
# 6 0.0000 0.0000 0.0000 0.0000 0.0000 137.7493
#
#
#
# Elastic Compliance Matrix: (Units=1/GPa)
#
#
# Indices 1 2 3 4 5 6 
#
# 1 0.014566 -0.002198 -0.002001 0.000000 0.000000 0.000000
# 2 -0.002198 0.006772 -0.001491 0.000000 0.000000 0.000000
# 3 -0.002001 -0.001491 0.008389 0.000000 0.000000 0.000000
# 4 0.000000 0.000000 0.000000 0.068651 0.000000 0.000000
# 5 0.000000 0.000000 0.000000 0.000000 0.042895 0.000000
# 6 0.000000 0.000000 0.000000 0.000000 0.000000 0.007260
#
#
# Mechanical properties :
#
#
# Convention : Reuss Voigt Hill
#
# Bulk Modulus (GPa) = 54.50724 61.49175 57.99949
# Shear Modulus (GPa) = 30.11543 53.99797 42.05670
#
# Velocity S-wave (km/s) = 3.74935 5.02054 4.43077
# Velocity P-wave (km/s) = 6.64733 7.89376 7.29721
#
# Compressibility (1/GPa) = 0.01834619
#
# Stress axis : x y z
#
# Youngs Moduli (GPa) = 68.65179 147.66951 119.21017
#
# Poissons Ratio (x) = 0.32454 0.23859
# Poissons Ratio (y) = 0.15088 0.17776
# Poissons Ratio (z) = 0.13740 0.22019
#
# Static dielectric constant tensor:
#      x y z
#    x 3.431270 0.000000 0.000000 
#    y 0.000000 4.409170 0.000000 
#    z 0.000000 0.000000 3.652490 
# 
# 
# High freq. dielectric constant tensor:
#      x y z
#    x 1.799370 0.000000 0.000000 
#    y 0.000000 1.874460 0.000000 
#    z 0.000000 0.000000 1.835080 
# 
# From -- ./inp_files/4486.got.cif
#   From: 2010.03.12/outbox.cif.g09.slc.cpg/sg65_3_cif.got.tgz:4486.got - 2010.04.10 20:52:16.
