data_PCOD8267888
_publ_section_title
;
Structure prediction by ZEFSAII (Michael W. Deem and Ramdas Pophale) SiO2 
 PCOD8267888
Probable space group: C M M M
;
_chemical_formula_sum "Si O2"
_cell_formula_units_Z 80
_cell_length_a 18.342925
_cell_length_b 9.245135
_cell_length_c 26.088104
_cell_angle_alpha 90.000000
_cell_angle_beta 90.000000
_cell_angle_gamma 90.000000
_cell_volume 4424.094191
_symmetry_space_group_name_H-M "C M M M"
_symmetry_group_IT_number 65
_symmetry_cell_setting 'orthorhombic'
loop_
_space_group_symop_operation_xyz
x,y,z
-x,-y,z
x,-y,-z
-x,y,-z
-x,-y,-z
x,y,-z
-x,y,z
x,-y,z
1/2+x,1/2+y,z
1/2-x,1/2-y,z
1/2+x,1/2-y,-z
1/2-x,1/2+y,-z
1/2-x,1/2-y,-z
1/2+x,1/2+y,-z
1/2-x,1/2+y,z
1/2+x,1/2-y,z
loop_
_atom_site_type_symbol
_atom_site_label
_atom_site_fract_x
_atom_site_fract_y
_atom_site_fract_z
Si Si1 0.081378 0.828729 0.000000
Si Si2 0.086805 0.161298 0.694566
Si Si3 0.826196 0.171986 0.902731
Si Si4 0.918891 0.828041 0.192852
Si Si5 0.086901 0.163529 0.500000
Si Si6 0.586994 0.162869 0.598274
O O1 0.123448 0.775899 0.949537
O O2 0.000000 0.761851 0.000000
O O3 0.075943 0.000000 0.000000
O O4 0.110122 0.220351 0.750857
O O5 0.117718 0.266808 0.650663
O O6 0.000000 0.155114 0.692409
O O7 0.117998 0.000000 0.684941
O O8 0.750000 0.250000 0.908821
O O9 0.863786 0.227999 0.850438
O O10 0.814736 0.000000 0.902871
O O11 0.000000 0.764699 0.182414
O O12 0.923866 0.000000 0.191440
O O13 0.116675 0.245688 0.449826
O O14 0.000000 0.162991 0.500000
O O15 0.117051 0.000000 0.500000
O O16 0.500000 0.163415 0.598426
O O17 0.617027 0.000000 0.594121
#
# Coordination Sequence:
#
# PCOD8267888 Si02
#       6
#     8  16  16  16   8  16
#     4   9  17  30  51  75  94 119 160 200 226 259
#     4   8  13  22  36  52  69  93 131 177 218 256
#     4  10  19  31  48  70  96 123 151 187 231 276
#     4   8  14  26  45  65  83 110 152 194 225 261
#     4   9  15  21  29  41  61  95 138 177 210 251
#     4   9  15  21  29  44  68  97 129 168 216 266
#
# _framework density 18.082798
#
# number of rings (size 3 to 8) (size 9 to 14) (size 15 to 20)
#    0.000    3.200    0.000    3.000    0.000    6.000 
#    0.000    1.000    0.000    4.200    0.000    0.000 
#    0.000    0.000    0.000    0.900    0.000   11.800 
#
# Total GULP energy -495793.165778 kJ/mol
# GULP energy per Si atom -12394.829144 kJ/mol
# Density = 1.804164 g / cm^3
# Si number density = 18.082798 Si / 1000 Ang^3
#
#
#
# Elastic Constant Matrix: (Units=GPa)
#
#
# Indices 1 2 3 4 5 6 
#
# 1 69.7311 26.1378 55.1578 0.0000 0.0000 0.0000
# 2 26.1378 83.8070 66.0435 0.0000 0.0000 0.0000
# 3 55.1578 66.0435 195.3811 0.0000 0.0000 0.0000
# 4 0.0000 0.0000 0.0000 12.9503 0.0000 0.0000
# 5 0.0000 0.0000 0.0000 0.0000 2.1052 0.0000
# 6 0.0000 0.0000 0.0000 0.0000 0.0000 13.8626
#
#
#
# Elastic Compliance Matrix: (Units=1/GPa)
#
#
# Indices 1 2 3 4 5 6 
#
# 1 0.018781 -0.002289 -0.004528 0.000000 0.000000 0.000000
# 2 -0.002289 0.016544 -0.004946 0.000000 0.000000 0.000000
# 3 -0.004528 -0.004946 0.008068 0.000000 0.000000 0.000000
# 4 0.000000 0.000000 0.000000 0.077218 0.000000 0.000000
# 5 0.000000 0.000000 0.000000 0.000000 0.475019 0.000000
# 6 0.000000 0.000000 0.000000 0.000000 0.000000 0.072137
#
#
# Mechanical properties :
#
#
# Convention : Reuss Voigt Hill
#
# Bulk Modulus (GPa) = 50.33595 71.51083 60.92339
# Shear Modulus (GPa) = 7.16420 19.22230 13.19325
#
# Velocity S-wave (km/s) = 1.99261 3.26393 2.70405
# Velocity P-wave (km/s) = 5.76114 7.33734 6.59649
#
# Compressibility (1/GPa) = 0.01986652
#
# Stress axis : x y z
#
# Youngs Moduli (GPa) = 53.24636 60.44601 123.93989
#
# Poissons Ratio (x) = 0.13835 0.56123
# Poissons Ratio (y) = 0.12187 0.61301
# Poissons Ratio (z) = 0.24111 0.29897
#
# Static dielectric constant tensor:
#      x y z
#    x 2.834940 0.000000 0.000000 
#    y 0.000000 3.136860 0.000000 
#    z 0.000000 0.000000 3.820130 
# 
# 
# High freq. dielectric constant tensor:
#      x y z
#    x 1.638940 0.000000 0.000000 
#    y 0.000000 1.669200 0.000000 
#    z 0.000000 0.000000 1.724620 
# 
# From -- ./inp_files/67319.got.cif
#   From: 2010.03.12/outbox.cif.g09.slc.cpg/sg65_34_cif.got.tgz:67319.got - 2010.04.10 20:52:16.
