data_PCOD8267701
_publ_section_title
;
Structure prediction by ZEFSAII (Michael W. Deem and Ramdas Pophale) SiO2 
 PCOD8267701
Probable space group: C M M M
;
_chemical_formula_sum "Si O2"
_cell_formula_units_Z 104
_cell_length_a 27.394838
_cell_length_b 8.949429
_cell_length_c 27.109710
_cell_angle_alpha 90.000000
_cell_angle_beta 90.000000
_cell_angle_gamma 90.000000
_cell_volume 6646.437655
_symmetry_space_group_name_H-M "C M M M"
_symmetry_group_IT_number 65
_symmetry_cell_setting 'orthorhombic'
loop_
_space_group_symop_operation_xyz
x,y,z
-x,-y,z
x,-y,-z
-x,y,-z
-x,-y,-z
x,y,-z
-x,y,z
x,-y,z
1/2+x,1/2+y,z
1/2-x,1/2-y,z
1/2+x,1/2-y,-z
1/2-x,1/2+y,-z
1/2-x,1/2-y,-z
1/2+x,1/2+y,-z
1/2-x,1/2+y,z
1/2+x,1/2-y,z
loop_
_atom_site_type_symbol
_atom_site_label
_atom_site_fract_x
_atom_site_fract_y
_atom_site_fract_z
Si Si1 0.608901 0.676701 0.299889
Si Si2 0.353827 0.824547 0.553854
Si Si3 0.801242 0.678051 0.650856
Si Si4 0.055174 0.327221 0.614802
Si Si5 0.553773 0.178203 0.000000
Si Si6 0.054885 0.175916 0.202276
Si Si7 0.058311 0.667679 0.105318
O O1 0.617681 0.500000 0.303208
O O2 0.659190 0.763177 0.310138
O O3 0.567332 0.723818 0.338660
O O4 0.590059 0.728286 0.246312
O O5 0.343096 0.750736 0.500000
O O6 0.316576 0.766144 0.595802
O O7 0.409245 0.784974 0.569557
O O8 0.347450 0.000000 0.549199
O O9 0.798450 0.500000 0.654067
O O10 0.750000 0.750000 0.664956
O O11 0.063414 0.500000 0.630191
O O12 0.000000 0.297115 0.597479
O O13 0.579798 0.225794 0.948051
O O14 0.500000 0.250493 0.000000
O O15 0.549242 0.000000 0.000000
O O16 0.077426 0.232088 0.150481
O O17 0.000000 0.240817 0.210350
O O18 0.052314 0.000000 0.200542
O O19 0.076398 0.500000 0.115744
O O20 0.000000 0.673597 0.101655
#
# Coordination Sequence:
#
# PCOD8267701 Si02
#       7
#    16  16  16  16   8  16  16
#     4  10  19  31  46  62  83 112 142 174 212 251
#     4   8  15  28  45  66  90 112 135 165 201 243
#     4  10  20  34  51  69  86 105 132 166 206 254
#     4   9  17  28  43  64  88 114 144 175 205 241
#     4   7  10  18  31  47  69  99 138 179 212 241
#     4   9  17  27  38  56  83 112 142 175 210 246
#     4   8  13  21  34  51  72 103 142 179 211 242
#
# _framework density 15.64748
#
# number of rings (size 3 to 8) (size 9 to 14) (size 15 to 20)
#    0.000    3.154    0.000    3.231    0.000    2.769 
#    0.000    3.462    0.000   13.385    0.000    4.308 
#    0.000    0.000    0.000    0.692    0.000    9.000 
#
# Total GULP energy -644293.647106 kJ/mol
# GULP energy per Si atom -12390.262444 kJ/mol
# Density = 1.561187 g / cm^3
# Si number density = 15.647480 Si / 1000 Ang^3
#
#
#
# Elastic Constant Matrix: (Units=GPa)
#
#
# Indices 1 2 3 4 5 6 
#
# 1 73.7645 22.8176 37.9368 0.0000 0.0000 0.0000
# 2 22.8176 35.0648 29.7584 0.0000 0.0000 0.0000
# 3 37.9368 29.7584 139.6061 0.0000 0.0000 0.0000
# 4 0.0000 0.0000 0.0000 16.2847 0.0000 0.0000
# 5 0.0000 0.0000 0.0000 0.0000 10.9999 0.0000
# 6 0.0000 0.0000 0.0000 0.0000 0.0000 17.7501
#
#
#
# Elastic Compliance Matrix: (Units=1/GPa)
#
#
# Indices 1 2 3 4 5 6 
#
# 1 0.017889 -0.009175 -0.002905 0.000000 0.000000 0.000000
# 2 -0.009175 0.039523 -0.005931 0.000000 0.000000 0.000000
# 3 -0.002905 -0.005931 0.009217 0.000000 0.000000 0.000000
# 4 0.000000 0.000000 0.000000 0.061407 0.000000 0.000000
# 5 0.000000 0.000000 0.000000 0.000000 0.090910 0.000000
# 6 0.000000 0.000000 0.000000 0.000000 0.000000 0.056338
#
#
# Mechanical properties :
#
#
# Convention : Reuss Voigt Hill
#
# Bulk Modulus (GPa) = 32.67449 47.71788 40.19619
# Shear Modulus (GPa) = 15.55164 19.53512 17.54338
#
# Velocity S-wave (km/s) = 3.15600 3.53718 3.35201
# Velocity P-wave (km/s) = 5.84871 6.87342 6.38167
#
# Compressibility (1/GPa) = 0.03060492
#
# Stress axis : x y z
#
# Youngs Moduli (GPa) = 55.90010 25.30170 108.49654
#
# Poissons Ratio (x) = 0.23215 0.31523
# Poissons Ratio (y) = 0.51289 0.64354
# Poissons Ratio (z) = 0.16241 0.15008
#
# Static dielectric constant tensor:
#      x y z
#    x 2.720860 0.000000 0.000000 
#    y 0.000000 2.814770 0.000000 
#    z 0.000000 0.000000 3.370770 
# 
# 
# High freq. dielectric constant tensor:
#      x y z
#    x 1.556820 0.000000 0.000000 
#    y 0.000000 1.584470 0.000000 
#    z 0.000000 0.000000 1.605580 
# 
# From -- ./inp_files/75970.got.cif
#   From: 2010.03.12/outbox.cif.g09.slc.cpg/sg65_38_cif.got.tgz:75970.got - 2010.04.10 20:52:16.
