data_PCOD8267769
_publ_section_title
;
Structure prediction by ZEFSAII (Michael W. Deem and Ramdas Pophale) SiO2 
 PCOD8267769
Probable space group: C M M M
;
_chemical_formula_sum "Si O2"
_cell_formula_units_Z 104
_cell_length_a 26.872207
_cell_length_b 9.397441
_cell_length_c 26.400690
_cell_angle_alpha 90.000000
_cell_angle_beta 90.000000
_cell_angle_gamma 90.000000
_cell_volume 6666.965713
_symmetry_space_group_name_H-M "C M M M"
_symmetry_group_IT_number 65
_symmetry_cell_setting 'orthorhombic'
loop_
_space_group_symop_operation_xyz
x,y,z
-x,-y,z
x,-y,-z
-x,y,-z
-x,-y,-z
x,y,-z
-x,y,z
x,-y,z
1/2+x,1/2+y,z
1/2-x,1/2-y,z
1/2+x,1/2-y,-z
1/2-x,1/2+y,-z
1/2-x,1/2-y,-z
1/2+x,1/2+y,-z
1/2-x,1/2+y,z
1/2+x,1/2-y,z
loop_
_atom_site_type_symbol
_atom_site_label
_atom_site_fract_x
_atom_site_fract_y
_atom_site_fract_z
Si Si1 0.113176 0.165167 0.748905
Si Si2 0.556920 0.666100 0.850188
Si Si3 0.699131 0.832960 0.702157
Si Si4 0.858616 0.664205 0.600412
Si Si5 0.801342 0.332481 0.500000
Si Si6 0.943570 0.835108 0.647167
Si Si7 0.940867 0.339473 0.944456
O O1 0.088051 0.211424 0.801259
O O2 0.160578 0.266477 0.742070
O O3 0.073406 0.193340 0.704618
O O4 0.129806 0.000000 0.749155
O O5 0.500000 0.713649 0.841093
O O6 0.560373 0.500000 0.860293
O O7 0.580626 0.741628 0.899572
O O8 0.750000 0.750000 0.709388
O O9 0.679901 0.804840 0.645485
O O10 0.706287 0.000000 0.713232
O O11 0.873760 0.500000 0.598405
O O12 0.832724 0.714234 0.548870
O O13 0.909340 0.751261 0.607528
O O14 0.789847 0.500000 0.500000
O O15 0.750000 0.250000 0.500000
O O16 0.000000 0.780522 0.641623
O O17 0.939281 0.000000 0.633371
O O18 0.922828 0.500000 0.934601
O O19 0.000000 0.330991 0.944110
O O20 0.921644 0.287929 0.000000
#
# Coordination Sequence:
#
# PCOD8267769 Si02
#       7
#    16  16  16  16   8  16  16
#     4   9  17  29  44  63  88 115 143 177 216 256
#     4   9  16  25  39  60  85 113 145 180 215 250
#     4  10  19  31  47  66  87 111 140 173 212 258
#     4   9  19  33  48  68  91 114 142 175 212 258
#     4  10  20  34  51  70  91 113 140 177 221 264
#     4   9  17  30  48  67  88 117 150 180 211 250
#     4   8  14  24  36  51  76 112 149 181 214 251
#
# _framework density 15.599301000000001
#
# number of rings (size 3 to 8) (size 9 to 14) (size 15 to 20)
#    0.000    2.923    0.000    1.846    0.000    4.308 
#    0.000    1.923    0.000    5.077    0.000    0.000 
#    0.000    0.615    0.000    2.000    0.000    2.923 
#
# Total GULP energy -644739.968661 kJ/mol
# GULP energy per Si atom -12398.845551 kJ/mol
# Density = 1.556380 g / cm^3
# Si number density = 15.599301 Si / 1000 Ang^3
#
#
#
# Elastic Constant Matrix: (Units=GPa)
#
#
# Indices 1 2 3 4 5 6 
#
# 1 111.7660 60.1311 60.7714 0.0000 0.0000 0.0000
# 2 60.1311 68.7817 56.3384 0.0000 0.0000 0.0000
# 3 60.7714 56.3384 132.5227 0.0000 0.0000 0.0000
# 4 0.0000 0.0000 0.0000 27.0176 0.0000 0.0000
# 5 0.0000 0.0000 0.0000 0.0000 15.2854 0.0000
# 6 0.0000 0.0000 0.0000 0.0000 0.0000 26.9557
#
#
#
# Elastic Compliance Matrix: (Units=1/GPa)
#
#
# Indices 1 2 3 4 5 6 
#
# 1 0.017343 -0.013267 -0.002313 0.000000 0.000000 0.000000
# 2 -0.013267 0.032455 -0.007714 0.000000 0.000000 0.000000
# 3 -0.002313 -0.007714 0.011886 0.000000 0.000000 0.000000
# 4 0.000000 0.000000 0.000000 0.037013 0.000000 0.000000
# 5 0.000000 0.000000 0.000000 0.000000 0.065422 0.000000
# 6 0.000000 0.000000 0.000000 0.000000 0.000000 0.037098
#
#
# Mechanical properties :
#
#
# Convention : Reuss Voigt Hill
#
# Bulk Modulus (GPa) = 66.23909 74.17246 70.20577
# Shear Modulus (GPa) = 19.77572 22.90705 21.34138
#
# Velocity S-wave (km/s) = 3.56438 3.83621 3.70279
# Velocity P-wave (km/s) = 7.71329 8.20206 7.96143
#
# Compressibility (1/GPa) = 0.01509683
#
# Stress axis : x y z
#
# Youngs Moduli (GPa) = 57.66153 30.81158 84.13528
#
# Poissons Ratio (x) = 0.40878 0.19458
# Poissons Ratio (y) = 0.76500 0.64898
# Poissons Ratio (z) = 0.13335 0.23767
#
# Static dielectric constant tensor:
#      x y z
#    x 2.789430 0.000000 0.000000 
#    y 0.000000 3.005600 0.000000 
#    z 0.000000 0.000000 3.158530 
# 
# 
# High freq. dielectric constant tensor:
#      x y z
#    x 1.571400 0.000000 0.000000 
#    y 0.000000 1.600620 0.000000 
#    z 0.000000 0.000000 1.595950 
# 
# From -- ./inp_files/75787.got.cif
#   From: 2010.03.12/outbox.cif.g09.slc.cpg/sg65_38_cif.got.tgz:75787.got - 2010.04.10 20:52:16.
