data_PCOD8267583
_publ_section_title
;
Structure prediction by ZEFSAII (Michael W. Deem and Ramdas Pophale) SiO2 
 PCOD8267583
Probable space group: C M M M
;
_chemical_formula_sum "Si O2"
_cell_formula_units_Z 96
_cell_length_a 29.864215
_cell_length_b 18.919379
_cell_length_c 9.491599
_cell_angle_alpha 90.000000
_cell_angle_beta 90.000000
_cell_angle_gamma 90.000000
_cell_volume 5362.871151
_symmetry_space_group_name_H-M "C M M M"
_symmetry_group_IT_number 65
_symmetry_cell_setting 'orthorhombic'
loop_
_space_group_symop_operation_xyz
x,y,z
-x,-y,z
x,-y,-z
-x,y,-z
-x,-y,-z
x,y,-z
-x,y,z
x,-y,z
1/2+x,1/2+y,z
1/2-x,1/2-y,z
1/2+x,1/2-y,-z
1/2-x,1/2+y,-z
1/2-x,1/2-y,-z
1/2+x,1/2+y,-z
1/2-x,1/2+y,z
1/2+x,1/2-y,z
loop_
_atom_site_type_symbol
_atom_site_label
_atom_site_fract_x
_atom_site_fract_y
_atom_site_fract_z
Si Si1 0.451678 0.078875 0.667657
Si Si2 0.449936 0.419588 0.332883
Si Si3 0.630591 0.837376 0.661433
Si Si4 0.700231 0.080481 0.159329
Si Si5 0.778566 0.182240 0.840257
Si Si6 0.133074 0.173805 0.662138
O O1 0.451017 0.081010 0.500000
O O2 0.500000 0.105757 0.722223
O O3 0.413187 0.127575 0.730385
O O4 0.442760 0.000000 0.722276
O O5 0.450117 0.414412 0.500000
O O6 0.500000 0.396210 0.278832
O O7 0.440489 0.500000 0.284053
O O8 0.409402 0.370207 0.275109
O O9 0.638348 0.859905 0.500000
O O10 0.672683 0.864841 0.747111
O O11 0.621151 0.755353 0.675908
O O12 0.750436 0.110012 0.163952
O O13 0.698987 0.000000 0.218332
O O14 0.681763 0.081969 0.000000
O O15 0.750000 0.250000 0.781397
O O16 0.821696 0.162192 0.748830
O O17 0.793536 0.200640 0.000000
O O18 0.142184 0.152183 0.500000
#
# Coordination Sequence:
#
# PCOD8267583 Si02
#       6
#    16  16  16  16  16  16
#     4   8  14  25  41  62  90 123 155 188 231 282
#     4   8  15  30  51  75 107 144 176 209 256 313
#     4  10  19  30  47  73 102 128 158 202 252 296
#     4  10  21  36  53  72  94 126 169 207 242 296
#     4  10  20  36  54  70  95 135 171 203 254 313
#     4  10  20  31  50  80 105 129 167 213 254 296
#
# _framework density 17.900859000000001
#
# number of rings (size 3 to 8) (size 9 to 14) (size 15 to 20)
#    0.000    2.667    1.667    1.500    0.000    3.333 
#    0.000    3.333    0.000    1.000    0.000    5.833 
#    0.000    0.000    0.000    0.000    0.000    0.000 
#
# Total GULP energy -594822.033780 kJ/mol
# GULP energy per Si atom -12392.125704 kJ/mol
# Density = 1.786012 g / cm^3
# Si number density = 17.900859 Si / 1000 Ang^3
#
#
#
# Elastic Constant Matrix: (Units=GPa)
#
#
# Indices 1 2 3 4 5 6 
#
# 1 144.7783 59.5303 45.2203 0.0000 0.0000 0.0000
# 2 59.5303 82.3703 27.9572 0.0000 0.0000 0.0000
# 3 45.2203 27.9572 40.5377 0.0000 0.0000 0.0000
# 4 0.0000 0.0000 0.0000 16.9768 0.0000 0.0000
# 5 0.0000 0.0000 0.0000 0.0000 -7.6338 0.0000
# 6 0.0000 0.0000 0.0000 0.0000 0.0000 31.6525
#
#
#
# Elastic Compliance Matrix: (Units=1/GPa)
#
#
# Indices 1 2 3 4 5 6 
#
# 1 0.012255 -0.005506 -0.009873 0.000000 0.000000 0.000000
# 2 -0.005506 0.018324 -0.006496 0.000000 0.000000 0.000000
# 3 -0.009873 -0.006496 0.040162 0.000000 0.000000 0.000000
# 4 0.000000 0.000000 0.000000 0.058904 0.000000 0.000000
# 5 0.000000 0.000000 0.000000 0.000000 -0.130996 0.000000
# 6 0.000000 0.000000 0.000000 0.000000 0.000000 0.031593
#
#
# Mechanical properties :
#
#
# Convention : Reuss Voigt Hill
#
# Bulk Modulus (GPa) = 37.04875 59.23353 48.14114
# Shear Modulus (GPa) = 60.24946 17.19766 38.72356
#
# Velocity S-wave (km/s) = 5.80779 3.10291 4.65609
# Velocity P-wave (km/s) = 8.10650 6.78225 7.47377
#
# Compressibility (1/GPa) = 0.02699147
#
# Stress axis : x y z
#
# Youngs Moduli (GPa) = 81.60066 54.57316 24.89911
#
# Poissons Ratio (x) = 0.30046 0.24584
# Poissons Ratio (y) = 0.44926 0.16174
# Poissons Ratio (z) = 0.80567 0.35449
#
# Static dielectric constant tensor:
#      x y z
#    x 3.628440 0.000000 0.000000 
#    y 0.000000 3.433960 0.000000 
#    z 0.000000 0.000000 2.974050 
# 
# 
# High freq. dielectric constant tensor:
#      x y z
#    x 1.701830 0.000000 0.000000 
#    y 0.000000 1.696300 0.000000 
#    z 0.000000 0.000000 1.646700 
# 
# From -- ./inp_files/12246.got.cif
#   From: 2010.03.12/outbox.cif.g09.slc.cpg/sg65_7_cif.got.tgz:12246.got - 2010.04.10 20:52:16.
