data_PCOD8267869
_publ_section_title
;
Structure prediction by ZEFSAII (Michael W. Deem and Ramdas Pophale) SiO2 
 PCOD8267869
Probable space group: C M M M
;
_chemical_formula_sum "Si O2"
_cell_formula_units_Z 88
_cell_length_a 18.115299
_cell_length_b 19.824188
_cell_length_c 14.029486
_cell_angle_alpha 90.000000
_cell_angle_beta 90.000000
_cell_angle_gamma 90.000000
_cell_volume 5038.284347
_symmetry_space_group_name_H-M "C M M M"
_symmetry_group_IT_number 65
_symmetry_cell_setting 'orthorhombic'
loop_
_space_group_symop_operation_xyz
x,y,z
-x,-y,z
x,-y,-z
-x,y,-z
-x,-y,-z
x,y,-z
-x,y,z
x,-y,z
1/2+x,1/2+y,z
1/2-x,1/2-y,z
1/2+x,1/2-y,-z
1/2-x,1/2+y,-z
1/2-x,1/2-y,-z
1/2+x,1/2+y,-z
1/2-x,1/2+y,z
1/2+x,1/2-y,z
loop_
_atom_site_type_symbol
_atom_site_label
_atom_site_fract_x
_atom_site_fract_y
_atom_site_fract_z
Si Si1 0.221312 0.681361 0.725357
Si Si2 0.583744 0.422973 0.233995
Si Si3 0.837206 0.178167 0.892970
Si Si4 0.413516 0.923998 0.000000
Si Si5 0.801114 0.921978 0.391454
Si Si6 0.087645 0.685356 0.154897
O O1 0.250000 0.750000 0.674208
O O2 0.264946 0.678404 0.826433
O O3 0.233895 0.619565 0.654004
O O4 0.133496 0.680598 0.746140
O O5 0.500000 0.406913 0.258577
O O6 0.597223 0.500000 0.205174
O O7 0.608558 0.379961 0.143652
O O8 0.626383 0.403978 0.330884
O O9 0.883866 0.247201 0.896600
O O10 0.810564 0.161473 0.000000
O O11 0.391570 0.880855 0.093197
O O12 0.500000 0.933710 0.000000
O O13 0.377163 0.000000 0.000000
O O14 0.815714 0.900262 0.500000
O O15 0.779427 0.000000 0.384221
O O16 0.000000 0.690001 0.175008
#
# Coordination Sequence:
#
# PCOD8267869 Si02
#       6
#    16  16  16   8  16  16
#     4   9  20  33  50  73  99 127 161 203 242 290
#     4   9  18  31  47  72 103 130 163 203 237 279
#     4  10  19  31  48  69 100 138 168 195 232 285
#     4   9  18  30  43  64  91 119 157 204 245 278
#     4   9  18  34  54  73  95 125 161 201 248 300
#     4  10  19  31  49  70  94 127 166 202 241 286
#
# _framework density 17.466263000000001
#
# number of rings (size 3 to 8) (size 9 to 14) (size 15 to 20)
#    0.000    2.636    0.909    0.545    1.273    4.000 
#    0.000    2.727    0.000    0.545    0.000    1.273 
#    0.000    0.000    0.000    0.000    0.000    0.000 
#
# Total GULP energy -545354.006854 kJ/mol
# GULP energy per Si atom -12394.409247 kJ/mol
# Density = 1.742651 g / cm^3
# Si number density = 17.466263 Si / 1000 Ang^3
#
#
#
# Elastic Constant Matrix: (Units=GPa)
#
#
# Indices 1 2 3 4 5 6 
#
# 1 70.8395 31.3814 21.1501 0.0000 0.0000 0.0000
# 2 31.3814 85.5757 45.6192 0.0000 0.0000 0.0000
# 3 21.1501 45.6192 74.9591 0.0000 0.0000 0.0000
# 4 0.0000 0.0000 0.0000 21.8909 0.0000 0.0000
# 5 0.0000 0.0000 0.0000 0.0000 10.9882 0.0000
# 6 0.0000 0.0000 0.0000 0.0000 0.0000 25.4829
#
#
#
# Elastic Compliance Matrix: (Units=1/GPa)
#
#
# Indices 1 2 3 4 5 6 
#
# 1 0.016965 -0.005432 -0.001481 0.000000 0.000000 0.000000
# 2 -0.005432 0.019036 -0.010053 0.000000 0.000000 0.000000
# 3 -0.001481 -0.010053 0.019876 0.000000 0.000000 0.000000
# 4 0.000000 0.000000 0.000000 0.045681 0.000000 0.000000
# 5 0.000000 0.000000 0.000000 0.000000 0.091007 0.000000
# 6 0.000000 0.000000 0.000000 0.000000 0.000000 0.039242
#
#
# Mechanical properties :
#
#
# Convention : Reuss Voigt Hill
#
# Bulk Modulus (GPa) = 45.56483 47.51951 46.54217
# Shear Modulus (GPa) = 18.31140 20.55397 19.43269
#
# Velocity S-wave (km/s) = 3.24139 3.43415 3.33916
# Velocity P-wave (km/s) = 6.33662 6.55668 6.44759
#
# Compressibility (1/GPa) = 0.02194675
#
# Stress axis : x y z
#
# Youngs Moduli (GPa) = 58.94569 52.53115 50.31078
#
# Poissons Ratio (x) = 0.28533 0.07452
# Poissons Ratio (y) = 0.32017 0.50576
# Poissons Ratio (z) = 0.08731 0.52808
#
# Static dielectric constant tensor:
#      x y z
#    x 3.191910 0.000000 0.000000 
#    y 0.000000 3.579450 0.000000 
#    z 0.000000 0.000000 3.060400 
# 
# 
# High freq. dielectric constant tensor:
#      x y z
#    x 1.666310 0.000000 0.000000 
#    y 0.000000 1.686620 0.000000 
#    z 0.000000 0.000000 1.648190 
# 
# From -- ./inp_files/42519.got.cif
#   From: 2010.03.12/outbox.cif.g09.slc.cpg/sg65_22_cif.got.tgz:42519.got - 2010.04.10 20:52:16.
