data_PCOD8267593
_publ_section_title
;
Structure prediction by ZEFSAII (Michael W. Deem and Ramdas Pophale) SiO2 
 PCOD8267593
Probable space group: C M M M
;
_chemical_formula_sum "Si O2"
_cell_formula_units_Z 96
_cell_length_a 23.709427
_cell_length_b 8.886678
_cell_length_c 25.898959
_cell_angle_alpha 90.000000
_cell_angle_beta 90.000000
_cell_angle_gamma 90.000000
_cell_volume 5456.859985
_symmetry_space_group_name_H-M "C M M M"
_symmetry_group_IT_number 65
_symmetry_cell_setting 'orthorhombic'
loop_
_space_group_symop_operation_xyz
x,y,z
-x,-y,z
x,-y,-z
-x,y,-z
-x,-y,-z
x,y,-z
-x,y,z
x,-y,z
1/2+x,1/2+y,z
1/2-x,1/2-y,z
1/2+x,1/2-y,-z
1/2-x,1/2+y,-z
1/2-x,1/2-y,-z
1/2+x,1/2+y,-z
1/2-x,1/2+y,z
1/2+x,1/2-y,z
loop_
_atom_site_type_symbol
_atom_site_label
_atom_site_fract_x
_atom_site_fract_y
_atom_site_fract_z
Si Si1 0.500000 0.820395 0.591828
Si Si2 0.189848 0.175894 0.945556
Si Si3 0.810021 0.676580 0.357464
Si Si4 0.119760 0.675292 0.744795
Si Si5 0.810985 0.177014 0.833623
Si Si6 0.500000 0.821967 0.291694
Si Si7 0.613676 0.327585 0.441075
O O1 0.500000 0.757911 0.650309
O O2 0.554860 0.759142 0.563331
O O3 0.500000 0.000000 0.589225
O O4 0.250000 0.250000 0.947476
O O5 0.162270 0.221354 0.890347
O O6 0.200029 0.000000 0.944782
O O7 0.157192 0.219942 0.000000
O O8 0.803044 0.500000 0.367077
O O9 0.750000 0.750000 0.346849
O O10 0.848293 0.711107 0.308060
O O11 0.838253 0.749257 0.407396
O O12 0.123208 0.500000 0.758376
O O13 0.145270 0.767482 0.791622
O O14 0.055460 0.732090 0.738703
O O15 0.750000 0.250000 0.824672
O O16 0.802912 0.000000 0.827566
O O17 0.500000 0.000000 0.296704
O O18 0.634308 0.318805 0.500000
O O19 0.605809 0.500000 0.423320
#
# Coordination Sequence:
#
# PCOD8267593 Si02
#       7
#     8  16  16  16  16   8  16
#     4  11  20  38  63  86 108 135 173 213 259 313
#     4   8  14  25  41  63  95 134 172 210 250 293
#     4  11  23  39  59  80 105 139 176 213 257 313
#     4  10  20  36  56  77 103 133 168 211 257 307
#     4  10  19  30  47  74 106 139 175 211 252 304
#     4   9  18  36  58  79 101 129 166 208 255 305
#     4  11  24  40  58  83 112 139 171 213 260 309
#
# _framework density 17.592535999999999
#
# number of rings (size 3 to 8) (size 9 to 14) (size 15 to 20)
#    0.000    2.000    1.667    2.500    0.000    6.000 
#    0.000    0.417    0.000    0.000    0.000    0.583 
#    0.000    4.667    0.000    0.000    0.000    0.000 
#
# Total GULP energy -594875.319447 kJ/mol
# GULP energy per Si atom -12393.235822 kJ/mol
# Density = 1.755249 g / cm^3
# Si number density = 17.592536 Si / 1000 Ang^3
#
#
#
# Elastic Constant Matrix: (Units=GPa)
#
#
# Indices 1 2 3 4 5 6 
#
# 1 108.3681 42.9621 50.7882 0.0000 0.0000 0.0000
# 2 42.9621 77.0172 55.3789 0.0000 0.0000 0.0000
# 3 50.7882 55.3789 139.3441 0.0000 0.0000 0.0000
# 4 0.0000 0.0000 0.0000 20.5119 0.0000 0.0000
# 5 0.0000 0.0000 0.0000 0.0000 -140.6374 0.0000
# 6 0.0000 0.0000 0.0000 0.0000 0.0000 26.2066
#
#
#
# Elastic Compliance Matrix: (Units=1/GPa)
#
#
# Indices 1 2 3 4 5 6 
#
# 1 0.012434 -0.005149 -0.002486 0.000000 0.000000 0.000000
# 2 -0.005149 0.020311 -0.006196 0.000000 0.000000 0.000000
# 3 -0.002486 -0.006196 0.010545 0.000000 0.000000 0.000000
# 4 0.000000 0.000000 0.000000 0.048752 0.000000 0.000000
# 5 0.000000 0.000000 0.000000 0.000000 -0.007110 0.000000
# 6 0.000000 0.000000 0.000000 0.000000 0.000000 0.038158
#
#
# Mechanical properties :
#
#
# Convention : Reuss Voigt Hill
#
# Bulk Modulus (GPa) = 63.97988 69.22090 66.60039
# Shear Modulus (GPa) = 32.05964 -7.07709 12.49127
#
# Velocity S-wave (km/s) = 4.27352 -2.00786 2.66753
# Velocity P-wave (km/s) = 7.79726 5.83582 6.88673
#
# Compressibility (1/GPa) = 0.01562991
#
# Stress axis : x y z
#
# Youngs Moduli (GPa) = 80.42509 49.23437 94.83385
#
# Poissons Ratio (x) = 0.25349 0.23573
# Poissons Ratio (y) = 0.41408 0.58755
# Poissons Ratio (z) = 0.19992 0.30503
#
# Static dielectric constant tensor:
#      x y z
#    x 3.106350 0.000000 0.000000 
#    y 0.000000 3.307070 0.000000 
#    z 0.000000 0.000000 3.814960 
# 
# 
# High freq. dielectric constant tensor:
#      x y z
#    x 1.651000 0.000000 0.000000 
#    y 0.000000 1.684650 0.000000 
#    z 0.000000 0.000000 1.697680 
# 
# From -- ./inp_files/71441.got.cif
#   From: 2010.03.12/outbox.cif.g09.slc.cpg/sg65_36_cif.got.tgz:71441.got - 2010.04.10 20:52:16.
