data_PCOD8267180
_publ_section_title
;
Structure prediction by ZEFSAII (Michael W. Deem and Ramdas Pophale) SiO2 
 PCOD8267180
Probable space group: C M M M
;
_chemical_formula_sum "Si O2"
_cell_formula_units_Z 88
_cell_length_a 25.146757
_cell_length_b 19.921908
_cell_length_c 9.303705
_cell_angle_alpha 90.000000
_cell_angle_beta 90.000000
_cell_angle_gamma 90.000000
_cell_volume 4660.889928
_symmetry_space_group_name_H-M "C M M M"
_symmetry_group_IT_number 65
_symmetry_cell_setting 'orthorhombic'
loop_
_space_group_symop_operation_xyz
x,y,z
-x,-y,z
x,-y,-z
-x,y,-z
-x,-y,-z
x,y,-z
-x,y,z
x,-y,z
1/2+x,1/2+y,z
1/2-x,1/2-y,z
1/2+x,1/2-y,-z
1/2-x,1/2+y,-z
1/2-x,1/2-y,-z
1/2+x,1/2+y,-z
1/2-x,1/2+y,z
1/2+x,1/2-y,z
loop_
_atom_site_type_symbol
_atom_site_label
_atom_site_fract_x
_atom_site_fract_y
_atom_site_fract_z
Si Si1 0.294216 0.698353 0.334928
Si Si2 0.837059 0.075560 0.833003
Si Si3 0.410285 0.246868 0.340787
Si Si4 0.559043 0.393979 0.335337
Si Si5 0.561965 0.122425 0.841891
Si Si6 0.436361 0.000000 0.660237
O O1 0.281705 0.678705 0.500000
O O2 0.250000 0.750000 0.273845
O O3 0.297981 0.628920 0.244894
O O4 0.348539 0.738437 0.321510
O O5 0.896623 0.075018 0.767983
O O6 0.813902 0.000000 0.814434
O O7 0.841006 0.095430 0.000000
O O8 0.421750 0.217481 0.500000
O O9 0.443670 0.314051 0.316492
O O10 0.428463 0.195201 0.221840
O O11 0.574504 0.411856 0.500000
O O12 0.500000 0.422284 0.298188
O O13 0.500000 0.108346 0.855451
O O14 0.587039 0.065196 0.740903
O O15 0.588275 0.118626 0.000000
O O16 0.500000 0.000000 0.656144
O O17 0.412924 0.000000 0.500000
#
# Coordination Sequence:
#
# PCOD8267180 Si02
#       6
#    16  16  16  16  16   8
#     4   9  19  37  60  81 100 127 171 221 265 312
#     4  10  21  35  52  78 111 144 177 214 262 320
#     4   9  17  30  49  72  97 125 161 207 254 301
#     4   9  18  32  50  74 105 142 183 221 254 295
#     4  10  19  29  43  66  97 130 163 199 241 295
#     4   9  17  29  45  63  85 121 165 203 241 285
#
# _framework density 18.880514000000002
#
# number of rings (size 3 to 8) (size 9 to 14) (size 15 to 20)
#    0.000    2.636    0.000    3.000    0.000    8.364 
#    0.000    1.818    2.000    0.000    0.000    0.000 
#    0.000    0.000    0.000    0.000    0.000    0.000 
#
# Total GULP energy -545428.754260 kJ/mol
# GULP energy per Si atom -12396.108051 kJ/mol
# Density = 1.883754 g / cm^3
# Si number density = 18.880514 Si / 1000 Ang^3
#
#
#
# Elastic Constant Matrix: (Units=GPa)
#
#
# Indices 1 2 3 4 5 6 
#
# 1 55.8436 23.1572 19.0161 0.0000 0.0000 0.0000
# 2 23.1572 106.3613 66.5069 0.0000 0.0000 0.0000
# 3 19.0161 66.5069 137.5341 0.0000 0.0000 0.0000
# 4 0.0000 0.0000 0.0000 30.1666 0.0000 0.0000
# 5 0.0000 0.0000 0.0000 0.0000 17.6588 0.0000
# 6 0.0000 0.0000 0.0000 0.0000 0.0000 10.3928
#
#
#
# Elastic Compliance Matrix: (Units=1/GPa)
#
#
# Indices 1 2 3 4 5 6 
#
# 1 0.019768 -0.003720 -0.000935 0.000000 0.000000 0.000000
# 2 -0.003720 0.014177 -0.006341 0.000000 0.000000 0.000000
# 3 -0.000935 -0.006341 0.010467 0.000000 0.000000 0.000000
# 4 0.000000 0.000000 0.000000 0.033149 0.000000 0.000000
# 5 0.000000 0.000000 0.000000 0.000000 0.056629 0.000000
# 6 0.000000 0.000000 0.000000 0.000000 0.000000 0.096220
#
#
# Mechanical properties :
#
#
# Convention : Reuss Voigt Hill
#
# Bulk Modulus (GPa) = 44.60166 57.45547 51.02857
# Shear Modulus (GPa) = 19.24012 24.38091 21.81051
#
# Velocity S-wave (km/s) = 3.19571 3.59740 3.40249
# Velocity P-wave (km/s) = 6.10665 6.91030 6.52087
#
# Compressibility (1/GPa) = 0.02242069
#
# Stress axis : x y z
#
# Youngs Moduli (GPa) = 50.58729 70.53777 95.54281
#
# Poissons Ratio (x) = 0.26237 0.08929
# Poissons Ratio (y) = 0.18816 0.60585
# Poissons Ratio (z) = 0.04728 0.44729
#
# Static dielectric constant tensor:
#      x y z
#    x 3.265350 0.000000 0.000000 
#    y 0.000000 3.440250 0.000000 
#    z 0.000000 0.000000 3.600970 
# 
# 
# High freq. dielectric constant tensor:
#      x y z
#    x 1.693340 0.000000 0.000000 
#    y 0.000000 1.738730 0.000000 
#    z 0.000000 0.000000 1.736540 
# 
# From -- ./inp_files/13984.got.cif
#   From: 2010.03.12/outbox.cif.g09.slc.cpg/sg65_7_cif.got.tgz:13984.got - 2010.04.10 20:52:16.
