data_PCOD8267654
_publ_section_title
;
Structure prediction by ZEFSAII (Michael W. Deem and Ramdas Pophale) SiO2 
 PCOD8267654
Probable space group: C M M M
;
_chemical_formula_sum "Si O2"
_cell_formula_units_Z 88
_cell_length_a 17.799678
_cell_length_b 10.351001
_cell_length_c 25.506530
_cell_angle_alpha 90.000000
_cell_angle_beta 90.000000
_cell_angle_gamma 90.000000
_cell_volume 4699.437478
_symmetry_space_group_name_H-M "C M M M"
_symmetry_group_IT_number 65
_symmetry_cell_setting 'orthorhombic'
loop_
_space_group_symop_operation_xyz
x,y,z
-x,-y,z
x,-y,-z
-x,y,-z
-x,-y,-z
x,y,-z
-x,y,z
x,-y,z
1/2+x,1/2+y,z
1/2-x,1/2-y,z
1/2+x,1/2-y,-z
1/2-x,1/2+y,-z
1/2-x,1/2-y,-z
1/2+x,1/2+y,-z
1/2-x,1/2+y,z
1/2+x,1/2-y,z
loop_
_atom_site_type_symbol
_atom_site_label
_atom_site_fract_x
_atom_site_fract_y
_atom_site_fract_z
Si Si1 0.589206 0.000000 0.882156
Si Si2 0.589502 0.254129 0.059032
Si Si3 0.337748 0.753324 0.702711
Si Si4 0.588835 0.500000 0.121366
Si Si5 0.841530 0.000000 0.765974
Si Si6 0.182134 0.350171 0.500000
Si Si7 0.413312 0.148390 0.397374
Si Si8 0.333734 0.000000 0.229174
O O1 0.618713 0.875871 0.913655
O O2 0.500000 0.000000 0.876814
O O3 0.623357 0.000000 0.824967
O O4 0.500000 0.256144 0.057811
O O5 0.621779 0.374206 0.092185
O O6 0.621383 0.261278 0.000000
O O7 0.250000 0.750000 0.688770
O O8 0.363506 0.624664 0.732256
O O9 0.383259 0.760462 0.648763
O O10 0.358602 0.874023 0.739047
O O11 0.500000 0.500000 0.117010
O O12 0.610433 0.500000 0.181690
O O13 0.754650 0.000000 0.781830
O O14 0.210110 0.500000 0.500000
O O15 0.250000 0.250000 0.500000
O O16 0.131828 0.320249 0.449716
O O17 0.500000 0.179508 0.408219
O O18 0.401479 0.000000 0.380482
#
# Coordination Sequence:
#
# PCOD8267654 Si02
#       8
#     8  16  16   8   8   8  16   8
#     4  10  19  30  50  76  99 127 168 219 268 317
#     4   9  17  30  49  73  99 128 166 214 265 319
#     4  10  20  36  55  78 107 144 188 223 267 331
#     4  10  19  32  50  72  97 131 174 213 260 323
#     4  10  22  35  53  76 107 144 176 223 271 319
#     4  10  21  39  63  89 117 154 194 230 270 324
#     4  10  20  36  60  88 115 146 187 235 279 319
#     4  10  20  35  53  74 105 142 178 219 267 327
#
# _framework density 18.725646000000001
#
# number of rings (size 3 to 8) (size 9 to 14) (size 15 to 20)
#    0.000    2.182    0.909    2.455    0.000    4.727 
#    1.636    0.000    0.000    3.818    0.000    0.000 
#    0.000    0.000    0.000    0.000    0.000    0.000 
#
# Total GULP energy -545727.806013 kJ/mol
# GULP energy per Si atom -12402.904682 kJ/mol
# Density = 1.868303 g / cm^3
# Si number density = 18.725646 Si / 1000 Ang^3
#
#
#
# Elastic Constant Matrix: (Units=GPa)
#
#
# Indices 1 2 3 4 5 6 
#
# 1 57.9297 44.8026 54.7428 0.0000 0.0000 0.0000
# 2 44.8026 168.5649 89.6710 0.0000 0.0000 0.0000
# 3 54.7428 89.6710 166.3760 0.0000 0.0000 0.0000
# 4 0.0000 0.0000 0.0000 26.6681 0.0000 0.0000
# 5 0.0000 0.0000 0.0000 0.0000 124.9244 0.0000
# 6 0.0000 0.0000 0.0000 0.0000 0.0000 11.1398
#
#
#
# Elastic Compliance Matrix: (Units=1/GPa)
#
#
# Indices 1 2 3 4 5 6 
#
# 1 0.026336 -0.003351 -0.006859 0.000000 0.000000 0.000000
# 2 -0.003351 0.008743 -0.003610 0.000000 0.000000 0.000000
# 3 -0.006859 -0.003610 0.010213 0.000000 0.000000 0.000000
# 4 0.000000 0.000000 0.000000 0.037498 0.000000 0.000000
# 5 0.000000 0.000000 0.000000 0.000000 0.008005 0.000000
# 6 0.000000 0.000000 0.000000 0.000000 0.000000 0.089768
#
#
# Mechanical properties :
#
#
# Convention : Reuss Voigt Hill
#
# Bulk Modulus (GPa) = 56.65025 85.70037 71.17531
# Shear Modulus (GPa) = 23.35500 46.12342 34.73921
#
# Velocity S-wave (km/s) = 3.53543 4.96836 4.31184
# Velocity P-wave (km/s) = 6.85450 8.87572 7.92977
#
# Compressibility (1/GPa) = 0.01765217
#
# Stress axis : x y z
#
# Youngs Moduli (GPa) = 37.97125 114.37249 97.91459
#
# Poissons Ratio (x) = 0.38324 0.67162
# Poissons Ratio (y) = 0.12723 0.35346
# Poissons Ratio (z) = 0.26046 0.41287
#
# Static dielectric constant tensor:
#      x y z
#    x 3.139480 0.000000 0.000000 
#    y 0.000000 3.849360 0.000000 
#    z 0.000000 0.000000 3.473440 
# 
# 
# High freq. dielectric constant tensor:
#      x y z
#    x 1.699460 0.000000 0.000000 
#    y 0.000000 1.734510 0.000000 
#    z 0.000000 0.000000 1.742810 
# 
# From -- ./inp_files/71140.got.cif
#   From: 2010.03.12/outbox.cif.g09.slc.cpg/sg65_36_cif.got.tgz:71140.got - 2010.04.10 20:52:16.
