data_PCOD8267646
_publ_section_title
;
Structure prediction by ZEFSAII (Michael W. Deem and Ramdas Pophale) SiO2 
 PCOD8267646
Probable space group: C M M M
;
_chemical_formula_sum "Si O2"
_cell_formula_units_Z 112
_cell_length_a 18.258682
_cell_length_b 18.720495
_cell_length_c 17.878651
_cell_angle_alpha 90.000000
_cell_angle_beta 90.000000
_cell_angle_gamma 90.000000
_cell_volume 6111.129680
_symmetry_space_group_name_H-M "C M M M"
_symmetry_group_IT_number 65
_symmetry_cell_setting 'orthorhombic'
loop_
_space_group_symop_operation_xyz
x,y,z
-x,-y,z
x,-y,-z
-x,y,-z
-x,-y,-z
x,y,-z
-x,y,z
x,-y,z
1/2+x,1/2+y,z
1/2-x,1/2-y,z
1/2+x,1/2-y,-z
1/2-x,1/2+y,-z
1/2-x,1/2-y,-z
1/2+x,1/2+y,-z
1/2-x,1/2+y,z
1/2+x,1/2-y,z
loop_
_atom_site_type_symbol
_atom_site_label
_atom_site_fract_x
_atom_site_fract_y
_atom_site_fract_z
Si Si1 0.583108 0.658742 0.299447
Si Si2 0.417503 0.210674 0.192921
Si Si3 0.188950 0.918931 0.200505
Si Si4 0.842263 0.419580 0.268900
Si Si5 0.914486 0.368656 0.416057
Si Si6 0.178774 0.202745 0.083472
Si Si7 0.172033 0.225387 0.583335
O O1 0.500000 0.638557 0.320441
O O2 0.588761 0.737792 0.264346
O O3 0.613338 0.599464 0.242607
O O4 0.635897 0.659894 0.371660
O O5 0.500000 0.194709 0.170373
O O6 0.381908 0.135299 0.213757
O O7 0.382688 0.248918 0.121737
O O8 0.255469 0.906473 0.258889
O O9 0.196936 0.869502 0.127935
O O10 0.185645 0.000000 0.171969
O O11 0.862603 0.500000 0.243553
O O12 0.866197 0.411460 0.355618
O O13 0.904231 0.401398 0.500000
O O14 0.887913 0.287577 0.417018
O O15 0.000000 0.370859 0.392485
O O16 0.250000 0.250000 0.080210
O O17 0.152499 0.182039 0.000000
O O18 0.188328 0.197009 0.500000
O O19 0.250000 0.250000 0.619406
#
# Coordination Sequence:
#
# PCOD8267646 Si02
#       7
#    16  16  16  16  16  16  16
#     4  10  20  33  55  80 106 145 185 230 284 334
#     4  10  20  34  54  83 112 143 183 227 273 327
#     4  10  22  38  58  85 114 145 183 231 278 329
#     4  11  21  34  53  78 110 153 193 229 280 335
#     4  10  20  33  49  73 108 147 189 238 286 331
#     4  10  20  37  62  87 111 145 182 223 275 333
#     4  10  19  30  49  77 107 142 186 239 292 336
#
# _framework density 18.327216
#
# number of rings (size 3 to 8) (size 9 to 14) (size 15 to 20)
#    0.000    1.857    2.857    1.714    0.000    3.143 
#    0.000    0.714    0.000    1.714    0.000    6.000 
#    0.000    0.000    0.000    0.000    0.000    0.000 
#
# Total GULP energy -694298.638881 kJ/mol
# GULP energy per Si atom -12398.189980 kJ/mol
# Density = 1.828550 g / cm^3
# Si number density = 18.327216 Si / 1000 Ang^3
#
#
#
# Elastic Constant Matrix: (Units=GPa)
#
#
# Indices 1 2 3 4 5 6 
#
# 1 113.4212 33.4555 51.4923 0.0000 0.0000 0.0000
# 2 33.4555 97.2843 43.9221 0.0000 0.0000 0.0000
# 3 51.4923 43.9221 114.3609 0.0000 0.0000 0.0000
# 4 0.0000 0.0000 0.0000 14.3588 0.0000 0.0000
# 5 0.0000 0.0000 0.0000 0.0000 21.2567 0.0000
# 6 0.0000 0.0000 0.0000 0.0000 0.0000 20.0943
#
#
#
# Elastic Compliance Matrix: (Units=1/GPa)
#
#
# Indices 1 2 3 4 5 6 
#
# 1 0.011375 -0.001935 -0.004379 0.000000 0.000000 0.000000
# 2 -0.001935 0.012765 -0.004031 0.000000 0.000000 0.000000
# 3 -0.004379 -0.004031 0.012264 0.000000 0.000000 0.000000
# 4 0.000000 0.000000 0.000000 0.069644 0.000000 0.000000
# 5 0.000000 0.000000 0.000000 0.000000 0.047044 0.000000
# 6 0.000000 0.000000 0.000000 0.000000 0.000000 0.049765
#
#
# Mechanical properties :
#
#
# Convention : Reuss Voigt Hill
#
# Bulk Modulus (GPa) = 63.63672 64.75622 64.19647
# Shear Modulus (GPa) = 21.85459 24.22174 23.03817
#
# Velocity S-wave (km/s) = 3.45696 3.63936 3.54933
# Velocity P-wave (km/s) = 7.12264 7.28492 7.20423
#
# Compressibility (1/GPa) = 0.01571420
#
# Stress axis : x y z
#
# Youngs Moduli (GPa) = 87.90932 78.34176 81.53918
#
# Poissons Ratio (x) = 0.15159 0.35704
# Poissons Ratio (y) = 0.17011 0.32870
# Poissons Ratio (z) = 0.38493 0.31581
#
# Static dielectric constant tensor:
#      x y z
#    x 3.492840 0.000000 0.000000 
#    y 0.000000 3.158060 0.000000 
#    z 0.000000 0.000000 3.506890 
# 
# 
# High freq. dielectric constant tensor:
#      x y z
#    x 1.721700 0.000000 0.000000 
#    y 0.000000 1.689040 0.000000 
#    z 0.000000 0.000000 1.701130 
# 
# From -- ./inp_files/56067.got.cif
#   From: 2010.03.12/outbox.cif.g09.slc.cpg/sg65_29_cif.got.tgz:56067.got - 2010.04.10 20:52:16.
