data_PCOD8267488
_publ_section_title
;
Structure prediction by ZEFSAII (Michael W. Deem and Ramdas Pophale) SiO2 
 PCOD8267488
Probable space group: C M M M
;
_chemical_formula_sum "Si O2"
_cell_formula_units_Z 80
_cell_length_a 9.114780
_cell_length_b 19.166944
_cell_length_c 25.371693
_cell_angle_alpha 90.000000
_cell_angle_beta 90.000000
_cell_angle_gamma 90.000000
_cell_volume 4432.497634
_symmetry_space_group_name_H-M "C M M M"
_symmetry_group_IT_number 65
_symmetry_cell_setting 'orthorhombic'
loop_
_space_group_symop_operation_xyz
x,y,z
-x,-y,z
x,-y,-z
-x,y,-z
-x,-y,-z
x,y,-z
-x,y,z
x,-y,z
1/2+x,1/2+y,z
1/2-x,1/2-y,z
1/2+x,1/2-y,-z
1/2-x,1/2+y,-z
1/2-x,1/2-y,-z
1/2+x,1/2+y,-z
1/2-x,1/2+y,z
1/2+x,1/2-y,z
loop_
_atom_site_type_symbol
_atom_site_label
_atom_site_fract_x
_atom_site_fract_y
_atom_site_fract_z
Si Si1 0.326069 0.077374 0.745222
Si Si2 0.825023 0.675563 0.651932
Si Si3 0.671494 0.679968 0.060450
Si Si4 0.674158 0.922122 0.441327
Si Si5 0.834018 0.582187 0.137133
O O1 0.500000 0.072199 0.742191
O O2 0.268141 0.133166 0.702981
O O3 0.279963 0.101761 0.803860
O O4 0.261667 0.000000 0.732840
O O5 0.750000 0.750000 0.652278
O O6 0.766938 0.633769 0.600680
O O7 0.000000 0.684258 0.651845
O O8 0.500000 0.690226 0.068236
O O9 0.750000 0.750000 0.080145
O O10 0.725417 0.615945 0.095322
O O11 0.712578 0.663711 0.000000
O O12 0.727373 0.900320 0.500000
O O13 0.500000 0.923662 0.439065
O O14 0.732688 0.000000 0.427618
O O15 0.826801 0.500000 0.129054
O O16 0.000000 0.609027 0.127787
#
# Coordination Sequence:
#
# PCOD8267488 Si02
#       5
#    16  16  16  16  16
#     4   8  15  30  51  71  91 121 162 200 232 273
#     4  10  19  30  46  69  97 126 155 192 238 283
#     4  10  21  36  53  73  99 131 165 200 239 286
#     4   8  14  26  46  70  91 116 158 204 236 269
#     4   9  18  33  53  76 100 126 159 200 244 290
#
# _framework density 18.048514999999998
#
# number of rings (size 3 to 8) (size 9 to 14) (size 15 to 20)
#    0.000    3.000    0.000    3.000    0.000    5.600 
#    0.000    5.000    0.000    3.600    0.000    1.400 
#    0.000    0.000    0.000    0.000    0.000    0.000 
#
# Total GULP energy -495866.368130 kJ/mol
# GULP energy per Si atom -12396.659203 kJ/mol
# Density = 1.800744 g / cm^3
# Si number density = 18.048515 Si / 1000 Ang^3
#
#
#
# Elastic Constant Matrix: (Units=GPa)
#
#
# Indices 1 2 3 4 5 6 
#
# 1 37.6469 33.4049 37.0062 0.0000 0.0000 0.0000
# 2 33.4049 116.1035 84.0647 0.0000 0.0000 0.0000
# 3 37.0062 84.0647 133.3082 0.0000 0.0000 0.0000
# 4 0.0000 0.0000 0.0000 25.0185 0.0000 0.0000
# 5 0.0000 0.0000 0.0000 0.0000 14.6840 0.0000
# 6 0.0000 0.0000 0.0000 0.0000 0.0000 31.6957
#
#
#
# Elastic Compliance Matrix: (Units=1/GPa)
#
#
# Indices 1 2 3 4 5 6 
#
# 1 0.038809 -0.006193 -0.006868 0.000000 0.000000 0.000000
# 2 -0.006193 0.016838 -0.008899 0.000000 0.000000 0.000000
# 3 -0.006868 -0.008899 0.015020 0.000000 0.000000 0.000000
# 4 0.000000 0.000000 0.000000 0.039970 0.000000 0.000000
# 5 0.000000 0.000000 0.000000 0.000000 0.068101 0.000000
# 6 0.000000 0.000000 0.000000 0.000000 0.000000 0.031550
#
#
# Mechanical properties :
#
#
# Convention : Reuss Voigt Hill
#
# Bulk Modulus (GPa) = 37.38791 66.22337 51.80564
# Shear Modulus (GPa) = 19.00241 23.11849 21.06045
#
# Velocity S-wave (km/s) = 3.24829 3.58286 3.41967
# Velocity P-wave (km/s) = 5.90158 7.34080 6.66018
#
# Compressibility (1/GPa) = 0.02674661
#
# Stress axis : x y z
#
# Youngs Moduli (GPa) = 25.76721 59.38858 66.57946
#
# Poissons Ratio (x) = 0.36782 0.45725
# Poissons Ratio (y) = 0.15959 0.59249
# Poissons Ratio (z) = 0.17696 0.52850
#
# Static dielectric constant tensor:
#      x y z
#    x 2.901950 0.000000 0.000000 
#    y 0.000000 3.361350 0.000000 
#    z 0.000000 0.000000 3.698920 
# 
# 
# High freq. dielectric constant tensor:
#      x y z
#    x 1.652410 0.000000 0.000000 
#    y 0.000000 1.698710 0.000000 
#    z 0.000000 0.000000 1.712180 
# 
# From -- ./inp_files/72748.got.cif
#   From: 2010.03.12/outbox.cif.g09.slc.cpg/sg65_37_cif.got.tgz:72748.got - 2010.04.10 20:52:16.
