data_PCOD8267781
_publ_section_title
;
Structure prediction by ZEFSAII (Michael W. Deem and Ramdas Pophale) SiO2 
 PCOD8267781
Probable space group: C M M M
;
_chemical_formula_sum "Si O2"
_cell_formula_units_Z 72
_cell_length_a 9.510035
_cell_length_b 18.718626
_cell_length_c 23.427183
_cell_angle_alpha 90.000000
_cell_angle_beta 90.000000
_cell_angle_gamma 90.000000
_cell_volume 4170.385025
_symmetry_space_group_name_H-M "C M M M"
_symmetry_group_IT_number 65
_symmetry_cell_setting 'orthorhombic'
loop_
_space_group_symop_operation_xyz
x,y,z
-x,-y,z
x,-y,-z
-x,y,-z
-x,-y,-z
x,y,-z
-x,y,z
x,-y,z
1/2+x,1/2+y,z
1/2-x,1/2-y,z
1/2+x,1/2-y,-z
1/2-x,1/2+y,-z
1/2-x,1/2-y,-z
1/2+x,1/2+y,-z
1/2-x,1/2+y,z
1/2+x,1/2-y,z
loop_
_atom_site_type_symbol
_atom_site_label
_atom_site_fract_x
_atom_site_fract_y
_atom_site_fract_z
Si Si1 0.842223 0.084947 0.936725
Si Si2 0.166813 0.079274 0.396451
Si Si3 0.832332 0.823198 0.500000
Si Si4 0.158367 0.414636 0.833051
Si Si5 0.343122 0.585016 0.270803
O O1 0.735570 0.115800 0.889509
O O2 0.000000 0.112159 0.923206
O O3 0.840763 0.000000 0.934537
O O4 0.795305 0.110823 0.000000
O O5 0.219901 0.133502 0.444514
O O6 0.212834 0.107717 0.333695
O O7 0.000000 0.073510 0.398111
O O8 0.229731 0.000000 0.408188
O O9 0.750000 0.750000 0.500000
O O10 0.000000 0.810642 0.500000
O O11 0.159582 0.500000 0.833061
O O12 0.237985 0.384602 0.777136
O O13 0.000000 0.384957 0.832590
O O14 0.500000 0.615529 0.259423
O O15 0.349241 0.500000 0.268090
#
# Coordination Sequence:
#
# PCOD8267781 Si02
#       5
#    16  16   8  16  16
#     4   8  13  20  28  37  52  80 119 158 192 227
#     4   8  14  26  46  67  82 104 143 183 210 239
#     4  10  19  31  47  67  91 114 138 170 210 256
#     4   9  15  20  27  42  64  88 114 149 196 243
#     4   8  13  22  36  52  68  88 120 162 202 235
#
# _framework density 17.264593000000001
#
# number of rings (size 3 to 8) (size 9 to 14) (size 15 to 20)
#    0.000    3.556    0.000    3.000    0.000    4.444 
#    0.000    3.333    0.000    2.667    0.000    0.000 
#    0.000    0.000    0.000    0.000    0.000    1.111 
#
# Total GULP energy -446092.313936 kJ/mol
# GULP energy per Si atom -12391.453165 kJ/mol
# Density = 1.722530 g / cm^3
# Si number density = 17.264593 Si / 1000 Ang^3
#
#
#
# Elastic Constant Matrix: (Units=GPa)
#
#
# Indices 1 2 3 4 5 6 
#
# 1 97.6148 21.7000 86.0570 0.0000 0.0000 0.0000
# 2 21.7000 33.6934 37.7401 0.0000 0.0000 0.0000
# 3 86.0570 37.7401 192.0440 0.0000 0.0000 0.0000
# 4 0.0000 0.0000 0.0000 0.9287 0.0000 0.0000
# 5 0.0000 0.0000 0.0000 0.0000 15.0040 0.0000
# 6 0.0000 0.0000 0.0000 0.0000 0.0000 10.6891
#
#
#
# Elastic Compliance Matrix: (Units=1/GPa)
#
#
# Indices 1 2 3 4 5 6 
#
# 1 0.017188 -0.003132 -0.007087 0.000000 0.000000 0.000000
# 2 -0.003132 0.038627 -0.006187 0.000000 0.000000 0.000000
# 3 -0.007087 -0.006187 0.009599 0.000000 0.000000 0.000000
# 4 0.000000 0.000000 0.000000 1.076816 0.000000 0.000000
# 5 0.000000 0.000000 0.000000 0.000000 0.066649 0.000000
# 6 0.000000 0.000000 0.000000 0.000000 0.000000 0.093553
#
#
# Mechanical properties :
#
#
# Convention : Reuss Voigt Hill
#
# Bulk Modulus (GPa) = 30.67332 68.26070 49.46701
# Shear Modulus (GPa) = 3.71440 17.18137 10.44789
#
# Velocity S-wave (km/s) = 1.46838 3.15807 2.46267
# Velocity P-wave (km/s) = 4.54753 7.27473 6.06637
#
# Compressibility (1/GPa) = 0.03260162
#
# Stress axis : x y z
#
# Youngs Moduli (GPa) = 58.17915 25.88855 104.18058
#
# Poissons Ratio (x) = 0.08109 0.73830
# Poissons Ratio (y) = 0.18222 0.64461
# Poissons Ratio (z) = 0.41230 0.16018
#
# Static dielectric constant tensor:
#      x y z
#    x 3.153810 0.000000 0.000000 
#    y 0.000000 2.529600 0.000000 
#    z 0.000000 0.000000 3.794900 
# 
# 
# High freq. dielectric constant tensor:
#      x y z
#    x 1.643840 0.000000 0.000000 
#    y 0.000000 1.581140 0.000000 
#    z 0.000000 0.000000 1.690490 
# 
# From -- ./inp_files/67250.got.cif
#   From: 2010.03.12/outbox.cif.g09.slc.cpg/sg65_34_cif.got.tgz:67250.got - 2010.04.10 20:52:16.
