data_PCOD8267126
_publ_section_title
;
Structure prediction by ZEFSAII (Michael W. Deem and Ramdas Pophale) SiO2 
 PCOD8267126
Probable space group: C M M M
;
_chemical_formula_sum "Si O2"
_cell_formula_units_Z 88
_cell_length_a 17.839622
_cell_length_b 22.688470
_cell_length_c 14.450050
_cell_angle_alpha 90.000000
_cell_angle_beta 90.000000
_cell_angle_gamma 90.000000
_cell_volume 5848.711615
_symmetry_space_group_name_H-M "C M M M"
_symmetry_group_IT_number 65
_symmetry_cell_setting 'orthorhombic'
loop_
_space_group_symop_operation_xyz
x,y,z
-x,-y,z
x,-y,-z
-x,y,-z
-x,-y,-z
x,y,-z
-x,y,z
x,-y,z
1/2+x,1/2+y,z
1/2-x,1/2-y,z
1/2+x,1/2-y,-z
1/2-x,1/2+y,-z
1/2-x,1/2-y,-z
1/2+x,1/2+y,-z
1/2-x,1/2+y,z
1/2+x,1/2-y,z
loop_
_atom_site_type_symbol
_atom_site_label
_atom_site_fract_x
_atom_site_fract_y
_atom_site_fract_z
Si Si1 0.500000 0.566784 0.889483
Si Si2 0.356790 0.635427 0.890577
Si Si3 0.911488 0.565865 0.601307
Si Si4 0.913096 0.739340 0.894444
Si Si5 0.412485 0.877356 0.786994
Si Si6 0.285256 0.066900 0.893586
O O1 0.500000 0.500000 0.853409
O O2 0.426671 0.599254 0.848660
O O3 0.500000 0.569440 0.000000
O O4 0.363566 0.704394 0.865338
O O5 0.279007 0.609437 0.850502
O O6 0.357807 0.626566 0.000000
O O7 0.880090 0.585503 0.500000
O O8 0.881040 0.500000 0.626004
O O9 0.888894 0.613800 0.679386
O O10 0.000000 0.562478 0.596022
O O11 0.892748 0.688171 0.821958
O O12 0.000000 0.757473 0.888042
O O13 0.894411 0.719244 0.000000
O O14 0.500000 0.891443 0.803720
O O15 0.364737 0.924063 0.844660
O O16 0.258212 0.000000 0.880085
O O17 0.298005 0.082328 0.000000
#
# Coordination Sequence:
#
# PCOD8267126 Si02
#       6
#     8  16  16  16  16  16
#     4   9  14  22  40  60  76 102 138 177 226 262
#     4   9  16  27  41  57  79 108 142 181 216 243
#     4   8  14  26  44  63  80 100 133 176 214 247
#     4   9  16  27  42  60  83 111 146 178 200 238
#     4  10  19  29  42  60  84 115 143 165 199 243
#     4  10  20  30  39  57  85 113 145 181 208 238
#
# _framework density 15.046048000000001
#
# number of rings (size 3 to 8) (size 9 to 14) (size 15 to 20)
#    0.000    2.818    0.909    2.182    0.000    5.091 
#    0.000    3.636    0.000    0.000    0.000    2.545 
#    0.000    0.000    0.000    0.182    0.000   10.091 
#
# Total GULP energy -545309.044640 kJ/mol
# GULP energy per Si atom -12393.387378 kJ/mol
# Density = 1.501180 g / cm^3
# Si number density = 15.046048 Si / 1000 Ang^3
#
#
#
# Elastic Constant Matrix: (Units=GPa)
#
#
# Indices 1 2 3 4 5 6 
#
# 1 62.6676 35.5577 31.8845 0.0000 0.0000 0.0000
# 2 35.5577 93.1812 58.6996 0.0000 0.0000 0.0000
# 3 31.8845 58.6996 74.8593 0.0000 0.0000 0.0000
# 4 0.0000 0.0000 0.0000 4.4753 0.0000 0.0000
# 5 0.0000 0.0000 0.0000 0.0000 6.1001 0.0000
# 6 0.0000 0.0000 0.0000 0.0000 0.0000 24.2926
#
#
#
# Elastic Compliance Matrix: (Units=1/GPa)
#
#
# Indices 1 2 3 4 5 6 
#
# 1 0.021402 -0.004791 -0.005359 0.000000 0.000000 0.000000
# 2 -0.004791 0.022280 -0.015430 0.000000 0.000000 0.000000
# 3 -0.005359 -0.015430 0.027740 0.000000 0.000000 0.000000
# 4 0.000000 0.000000 0.000000 0.223447 0.000000 0.000000
# 5 0.000000 0.000000 0.000000 0.000000 0.163933 0.000000
# 6 0.000000 0.000000 0.000000 0.000000 0.000000 0.041165
#
#
# Mechanical properties :
#
#
# Convention : Reuss Voigt Hill
#
# Bulk Modulus (GPa) = 49.35233 53.66575 51.50904
# Shear Modulus (GPa) = 8.96249 13.94468 11.45359
#
# Velocity S-wave (km/s) = 2.44328 3.04764 2.76204
# Velocity P-wave (km/s) = 6.38996 6.93753 6.66936
#
# Compressibility (1/GPa) = 0.02026247
#
# Stress axis : x y z
#
# Youngs Moduli (GPa) = 46.72398 44.88293 36.04919
#
# Poissons Ratio (x) = 0.21505 0.19318
# Poissons Ratio (y) = 0.22387 0.55623
# Poissons Ratio (z) = 0.25038 0.69254
#
# Static dielectric constant tensor:
#      x y z
#    x 2.871690 0.000000 0.000000 
#    y 0.000000 2.954110 0.000000 
#    z 0.000000 0.000000 2.804740 
# 
# 
# High freq. dielectric constant tensor:
#      x y z
#    x 1.563910 0.000000 0.000000 
#    y 0.000000 1.580720 0.000000 
#    z 0.000000 0.000000 1.523410 
# 
# From -- ./inp_files/40588.got.cif
#   From: 2010.03.12/outbox.cif.g09.slc.cpg/sg65_21_cif.got.tgz:40588.got - 2010.04.10 20:52:16.
