data_PCOD8267213
_publ_section_title
;
Structure prediction by ZEFSAII (Michael W. Deem and Ramdas Pophale) SiO2 
 PCOD8267213
Probable space group: C M M M
;
_chemical_formula_sum "Si O2"
_cell_formula_units_Z 72
_cell_length_a 30.809764
_cell_length_b 14.428547
_cell_length_c 9.790669
_cell_angle_alpha 90.000000
_cell_angle_beta 90.000000
_cell_angle_gamma 90.000000
_cell_volume 4352.345250
_symmetry_space_group_name_H-M "C M M M"
_symmetry_group_IT_number 65
_symmetry_cell_setting 'orthorhombic'
loop_
_space_group_symop_operation_xyz
x,y,z
-x,-y,z
x,-y,-z
-x,y,-z
-x,-y,-z
x,y,-z
-x,y,z
x,-y,z
1/2+x,1/2+y,z
1/2-x,1/2-y,z
1/2+x,1/2-y,-z
1/2-x,1/2+y,-z
1/2-x,1/2-y,-z
1/2+x,1/2+y,-z
1/2-x,1/2+y,z
1/2+x,1/2-y,z
loop_
_atom_site_type_symbol
_atom_site_label
_atom_site_fract_x
_atom_site_fract_y
_atom_site_fract_z
Si Si1 0.825953 0.500000 0.843484
Si Si2 0.451840 0.164302 0.153369
Si Si3 0.140665 0.702047 0.153523
Si Si4 0.242033 0.000000 0.343721
Si Si5 0.049995 0.500000 0.648334
Si Si6 0.206813 0.197595 0.342117
O O1 0.853883 0.592365 0.810587
O O2 0.783572 0.500000 0.751139
O O3 0.810554 0.500000 0.000000
O O4 0.500000 0.208765 0.183165
O O5 0.410426 0.233020 0.163352
O O6 0.438718 0.089101 0.264127
O O7 0.452583 0.121116 0.000000
O O8 0.166255 0.766887 0.256600
O O9 0.157858 0.720203 0.000000
O O10 0.212122 0.911266 0.314579
O O11 0.258756 0.000000 0.500000
O O12 0.074492 0.500000 0.500000
O O13 0.000000 0.500000 0.616050
O O14 0.197564 0.219972 0.500000
O O15 0.250000 0.250000 0.292331
#
# Coordination Sequence:
#
# PCOD8267213 Si02
#       6
#     8  16  16   8   8  16
#     4  10  19  29  44  69  99 128 160 197 236 274
#     4   9  17  30  46  63  90 129 165 198 240 289
#     4  10  20  32  48  72  99 127 164 203 239 283
#     4  10  20  35  51  69  95 127 161 193 232 288
#     4   9  16  25  39  62  91 123 161 202 237 274
#     4  10  20  34  52  72  96 126 160 196 239 289
#
# _framework density 16.542805000000001
#
# number of rings (size 3 to 8) (size 9 to 14) (size 15 to 20)
#    0.000    2.333    2.222    1.000    0.000    5.333 
#    0.000    1.111    0.000    0.000    0.000    0.778 
#    0.000    6.222    0.000    0.000    0.000    0.000 
#
# Total GULP energy -445995.481913 kJ/mol
# GULP energy per Si atom -12388.763386 kJ/mol
# Density = 1.650515 g / cm^3
# Si number density = 16.542805 Si / 1000 Ang^3
#
#
#
# Elastic Constant Matrix: (Units=GPa)
#
#
# Indices 1 2 3 4 5 6 
#
# 1 130.1264 42.2774 60.4982 0.0000 0.0000 0.0000
# 2 42.2774 76.3008 29.7119 0.0000 0.0000 0.0000
# 3 60.4982 29.7119 82.0569 0.0000 0.0000 0.0000
# 4 0.0000 0.0000 0.0000 31.5432 0.0000 0.0000
# 5 0.0000 0.0000 0.0000 0.0000 17.7587 0.0000
# 6 0.0000 0.0000 0.0000 0.0000 0.0000 16.2184
#
#
#
# Elastic Compliance Matrix: (Units=1/GPa)
#
#
# Indices 1 2 3 4 5 6 
#
# 1 0.012628 -0.003925 -0.007889 0.000000 0.000000 0.000000
# 2 -0.003925 0.016477 -0.003073 0.000000 0.000000 0.000000
# 3 -0.007889 -0.003073 0.019115 0.000000 0.000000 0.000000
# 4 0.000000 0.000000 0.000000 0.031703 0.000000 0.000000
# 5 0.000000 0.000000 0.000000 0.000000 0.056310 0.000000
# 6 0.000000 0.000000 0.000000 0.000000 0.000000 0.061658
#
#
# Mechanical properties :
#
#
# Convention : Reuss Voigt Hill
#
# Bulk Modulus (GPa) = 54.20709 61.49546 57.85128
# Shear Modulus (GPa) = 21.38457 23.50384 22.44420
#
# Velocity S-wave (km/s) = 3.59929 3.77342 3.68738
# Velocity P-wave (km/s) = 7.07899 7.49928 7.29216
#
# Compressibility (1/GPa) = 0.01844777
#
# Stress axis : x y z
#
# Youngs Moduli (GPa) = 79.19104 60.68990 52.31378
#
# Poissons Ratio (x) = 0.23820 0.41270
# Poissons Ratio (y) = 0.31082 0.16073
# Poissons Ratio (z) = 0.62473 0.18647
#
# Static dielectric constant tensor:
#      x y z
#    x 3.168180 0.000000 0.000000 
#    y 0.000000 2.828330 0.000000 
#    z 0.000000 0.000000 3.383890 
# 
# 
# High freq. dielectric constant tensor:
#      x y z
#    x 1.639360 0.000000 0.000000 
#    y 0.000000 1.586230 0.000000 
#    z 0.000000 0.000000 1.649210 
# 
# From -- ./inp_files/18049.got.cif
#   From: 2010.03.12/outbox.cif.g09.slc.cpg/sg65_10_cif.got.tgz:18049.got - 2010.04.10 20:52:16.
