data_PCOD8267492
_publ_section_title
;
Structure prediction by ZEFSAII (Michael W. Deem and Ramdas Pophale) SiO2 
 PCOD8267492
Probable space group: C M M M
;
_chemical_formula_sum "Si O2"
_cell_formula_units_Z 88
_cell_length_a 25.559860
_cell_length_b 20.223612
_cell_length_c 9.273238
_cell_angle_alpha 90.000000
_cell_angle_beta 90.000000
_cell_angle_gamma 90.000000
_cell_volume 4793.454413
_symmetry_space_group_name_H-M "C M M M"
_symmetry_group_IT_number 65
_symmetry_cell_setting 'orthorhombic'
loop_
_space_group_symop_operation_xyz
x,y,z
-x,-y,z
x,-y,-z
-x,y,-z
-x,-y,-z
x,y,-z
-x,y,z
x,-y,z
1/2+x,1/2+y,z
1/2-x,1/2-y,z
1/2+x,1/2-y,-z
1/2-x,1/2+y,-z
1/2-x,1/2-y,-z
1/2+x,1/2+y,-z
1/2-x,1/2+y,z
1/2+x,1/2-y,z
loop_
_atom_site_type_symbol
_atom_site_label
_atom_site_fract_x
_atom_site_fract_y
_atom_site_fract_z
Si Si1 0.803400 0.287106 0.668316
Si Si2 0.658329 0.927623 0.333068
Si Si3 0.062654 0.000000 0.162441
Si Si4 0.902647 0.756303 0.165829
Si Si5 0.558435 0.111641 0.164857
Si Si6 0.560412 0.622315 0.340343
O O1 0.816861 0.278055 0.500000
O O2 0.750000 0.250000 0.707521
O O3 0.803399 0.366110 0.709711
O O4 0.845693 0.250765 0.765317
O O5 0.645225 0.922110 0.500000
O O6 0.602324 0.925225 0.255880
O O7 0.684043 0.000000 0.297357
O O8 0.085720 0.936594 0.246753
O O9 0.000000 0.000000 0.157388
O O10 0.085077 0.000000 0.000000
O O11 0.935967 0.690104 0.180861
O O12 0.934134 0.810241 0.254290
O O13 0.896604 0.778115 0.000000
O O14 0.500000 0.091902 0.217714
O O15 0.566323 0.090017 0.000000
O O16 0.586719 0.626214 0.500000
O O17 0.500000 0.606310 0.360820
#
# Coordination Sequence:
#
# PCOD8267492 Si02
#       6
#    16  16   8  16  16  16
#     4   9  18  34  55  74  94 124 162 207 255 307
#     4   9  18  32  50  73  99 127 162 203 247 297
#     4   9  17  29  45  65  91 127 167 203 243 291
#     4  10  19  31  49  72  97 127 163 206 251 297
#     4   9  18  31  46  68 100 135 169 201 235 283
#     4  10  19  30  46  69  98 131 167 205 245 295
#
# _framework density 18.358367000000001
#
# number of rings (size 3 to 8) (size 9 to 14) (size 15 to 20)
#    0.000    2.636    0.000    1.909    0.000    5.091 
#    0.000    1.818    2.000    0.000    0.000    0.000 
#    0.000    0.000    0.000    0.000    0.000    0.000 
#
# Total GULP energy -545331.739627 kJ/mol
# GULP energy per Si atom -12393.903173 kJ/mol
# Density = 1.831658 g / cm^3
# Si number density = 18.358367 Si / 1000 Ang^3
#
#
#
# Elastic Constant Matrix: (Units=GPa)
#
#
# Indices 1 2 3 4 5 6 
#
# 1 64.9657 28.8495 19.4081 0.0000 0.0000 0.0000
# 2 28.8495 105.3372 37.2714 0.0000 0.0000 0.0000
# 3 19.4081 37.2714 90.8995 0.0000 0.0000 0.0000
# 4 0.0000 0.0000 0.0000 27.7998 0.0000 0.0000
# 5 0.0000 0.0000 0.0000 0.0000 23.6849 0.0000
# 6 0.0000 0.0000 0.0000 0.0000 0.0000 18.0251
#
#
#
# Elastic Compliance Matrix: (Units=1/GPa)
#
#
# Indices 1 2 3 4 5 6 
#
# 1 0.017865 -0.004144 -0.002115 0.000000 0.000000 0.000000
# 2 -0.004144 0.012066 -0.004062 0.000000 0.000000 0.000000
# 3 -0.002115 -0.004062 0.013118 0.000000 0.000000 0.000000
# 4 0.000000 0.000000 0.000000 0.035972 0.000000 0.000000
# 5 0.000000 0.000000 0.000000 0.000000 0.042221 0.000000
# 6 0.000000 0.000000 0.000000 0.000000 0.000000 0.055478
#
#
# Mechanical properties :
#
#
# Convention : Reuss Voigt Hill
#
# Bulk Modulus (GPa) = 44.63205 48.02892 46.33048
# Shear Modulus (GPa) = 24.41022 25.61353 25.01188
#
# Velocity S-wave (km/s) = 3.65039 3.73929 3.69511
# Velocity P-wave (km/s) = 6.49088 6.69789 6.59519
#
# Compressibility (1/GPa) = 0.02240542
#
# Stress axis : x y z
#
# Youngs Moduli (GPa) = 55.97529 82.87887 76.22845
#
# Poissons Ratio (x) = 0.34349 0.16123
# Poissons Ratio (y) = 0.23199 0.30967
# Poissons Ratio (z) = 0.11839 0.33669
#
# Static dielectric constant tensor:
#      x y z
#    x 3.003920 0.000000 0.000000 
#    y 0.000000 3.627110 0.000000 
#    z 0.000000 0.000000 3.576180 
# 
# 
# High freq. dielectric constant tensor:
#      x y z
#    x 1.664720 0.000000 0.000000 
#    y 0.000000 1.723920 0.000000 
#    z 0.000000 0.000000 1.720470 
# 
# From -- ./inp_files/11788.got.cif
#   From: 2010.03.12/outbox.cif.g09.slc.cpg/sg65_6_cif.got.tgz:11788.got - 2010.04.10 20:52:16.
