data_PCOD8267679
_publ_section_title
;
Structure prediction by ZEFSAII (Michael W. Deem and Ramdas Pophale) SiO2 
 PCOD8267679
Probable space group: C M M M
;
_chemical_formula_sum "Si O2"
_cell_formula_units_Z 72
_cell_length_a 8.150164
_cell_length_b 30.593107
_cell_length_c 19.112157
_cell_angle_alpha 90.000000
_cell_angle_beta 90.000000
_cell_angle_gamma 90.000000
_cell_volume 4765.403043
_symmetry_space_group_name_H-M "C M M M"
_symmetry_group_IT_number 65
_symmetry_cell_setting 'orthorhombic'
loop_
_space_group_symop_operation_xyz
x,y,z
-x,-y,z
x,-y,-z
-x,y,-z
-x,-y,-z
x,y,-z
-x,y,z
x,-y,z
1/2+x,1/2+y,z
1/2-x,1/2-y,z
1/2+x,1/2-y,-z
1/2-x,1/2+y,-z
1/2-x,1/2-y,-z
1/2+x,1/2+y,-z
1/2-x,1/2+y,z
1/2+x,1/2-y,z
loop_
_atom_site_type_symbol
_atom_site_label
_atom_site_fract_x
_atom_site_fract_y
_atom_site_fract_z
Si Si1 0.317841 0.551891 0.838264
Si Si2 0.682883 0.795134 0.582927
Si Si3 0.811907 0.113446 0.420199
Si Si4 0.187523 0.450908 0.691937
Si Si5 0.000000 0.552093 0.079697
O O1 0.500000 0.568446 0.862866
O O2 0.311011 0.500000 0.843555
O O3 0.294266 0.566062 0.757452
O O4 0.167690 0.570999 0.884891
O O5 0.686936 0.790597 0.500000
O O6 0.500000 0.802857 0.610860
O O7 0.750000 0.750000 0.616343
O O8 0.790450 0.836709 0.606652
O O9 0.748417 0.109536 0.500000
O O10 0.707053 0.080392 0.374214
O O11 0.000000 0.099939 0.414120
O O12 0.240799 0.500000 0.670073
O O13 0.000000 0.450683 0.716949
O O14 0.000000 0.500000 0.085129
O O15 0.000000 0.568214 0.000000
#
# Coordination Sequence:
#
# PCOD8267679 Si02
#       5
#    16  16  16  16   8
#     4   9  16  27  42  58  78 106 138 170 206 250
#     4   9  16  27  43  60  78 100 126 162 210 259
#     4  10  20  31  42  59  81 104 138 183 221 257
#     4  10  19  31  45  58  77 108 145 183 219 257
#     4   9  16  26  40  60  83 103 131 171 208 244
#
# _framework density 15.1089
#
# number of rings (size 3 to 8) (size 9 to 14) (size 15 to 20)
#    0.000    2.556    1.111    2.000    0.000    6.222 
#    0.000    4.444    0.000    0.000    0.000    0.000 
#    0.000    0.000    0.000    0.000    0.000    1.111 
#
# Total GULP energy -446203.151917 kJ/mol
# GULP energy per Si atom -12394.531998 kJ/mol
# Density = 1.507451 g / cm^3
# Si number density = 15.108900 Si / 1000 Ang^3
#
#
#
# Elastic Constant Matrix: (Units=GPa)
#
#
# Indices 1 2 3 4 5 6 
#
# 1 95.9568 17.2943 37.1767 0.0000 0.0000 0.0000
# 2 17.2943 55.5333 31.1163 0.0000 0.0000 0.0000
# 3 37.1767 31.1163 65.7996 0.0000 0.0000 0.0000
# 4 0.0000 0.0000 0.0000 0.0905 0.0000 0.0000
# 5 0.0000 0.0000 0.0000 0.0000 18.9980 0.0000
# 6 0.0000 0.0000 0.0000 0.0000 0.0000 18.9611
#
#
#
# Elastic Compliance Matrix: (Units=1/GPa)
#
#
# Indices 1 2 3 4 5 6 
#
# 1 0.013342 0.000094 -0.007583 0.000000 0.000000 0.000000
# 2 0.000094 0.024499 -0.011638 0.000000 0.000000 0.000000
# 3 -0.007583 -0.011638 0.024986 0.000000 0.000000 0.000000
# 4 0.000000 0.000000 0.000000 11.049092 0.000000 0.000000
# 5 0.000000 0.000000 0.000000 0.000000 0.052637 0.000000
# 6 0.000000 0.000000 0.000000 0.000000 0.000000 0.052739
#
#
# Mechanical properties :
#
#
# Convention : Reuss Voigt Hill
#
# Bulk Modulus (GPa) = 40.69645 43.16270 41.92958
# Shear Modulus (GPa) = 0.44390 16.39009 8.41700
#
# Velocity S-wave (km/s) = 0.54262 3.29720 2.36283
# Velocity P-wave (km/s) = 5.23321 6.56697 5.93766
#
# Compressibility (1/GPa) = 0.02457217
#
# Stress axis : x y z
#
# Youngs Moduli (GPa) = 74.94994 40.81746 40.02302
#
# Poissons Ratio (x) = -0.00382 0.30348
# Poissons Ratio (y) = -0.00702 0.46581
# Poissons Ratio (z) = 0.56832 0.47505
#
# Static dielectric constant tensor:
#      x y z
#    x 3.154240 0.000000 0.000000 
#    y 0.000000 2.653690 0.000000 
#    z 0.000000 0.000000 2.653780 
# 
# 
# High freq. dielectric constant tensor:
#      x y z
#    x 1.600930 0.000000 0.000000 
#    y 0.000000 1.533410 0.000000 
#    z 0.000000 0.000000 1.539600 
# 
# From -- ./inp_files/56444.got.cif
#   From: 2010.03.12/outbox.cif.g09.slc.cpg/sg65_29_cif.got.tgz:56444.got - 2010.04.10 20:52:16.
