data_PCOD8267493
_publ_section_title
;
Structure prediction by ZEFSAII (Michael W. Deem and Ramdas Pophale) SiO2 
 PCOD8267493
Probable space group: C M M M
;
_chemical_formula_sum "Si O2"
_cell_formula_units_Z 48
_cell_length_a 37.945807
_cell_length_b 9.069388
_cell_length_c 7.630935
_cell_angle_alpha 90.000000
_cell_angle_beta 90.000000
_cell_angle_gamma 90.000000
_cell_volume 2626.150008
_symmetry_space_group_name_H-M "C M M M"
_symmetry_group_IT_number 65
_symmetry_cell_setting 'orthorhombic'
loop_
_space_group_symop_operation_xyz
x,y,z
-x,-y,z
x,-y,-z
-x,y,-z
-x,-y,-z
x,y,-z
-x,y,z
x,-y,z
1/2+x,1/2+y,z
1/2-x,1/2-y,z
1/2+x,1/2-y,-z
1/2-x,1/2+y,-z
1/2-x,1/2-y,-z
1/2+x,1/2+y,-z
1/2-x,1/2+y,z
1/2+x,1/2-y,z
loop_
_atom_site_type_symbol
_atom_site_label
_atom_site_fract_x
_atom_site_fract_y
_atom_site_fract_z
Si Si1 0.287612 0.175777 0.000000
Si Si2 0.540771 0.672939 0.000000
Si Si3 0.083505 0.671645 0.702770
Si Si4 0.337257 0.175127 0.692691
O O1 0.250000 0.250000 0.000000
O O2 0.308883 0.234371 0.831022
O O3 0.283648 0.000000 0.000000
O O4 0.557367 0.737579 0.176285
O O5 0.547033 0.500000 0.000000
O O6 0.500000 0.715687 0.000000
O O7 0.073901 0.700685 0.500000
O O8 0.079657 0.500000 0.748926
O O9 0.123332 0.726687 0.742410
O O10 0.326829 0.235586 0.500000
O O11 0.337295 0.000000 0.690589
#
# Coordination Sequence:
#
# PCOD8267493 Si02
#       4
#     8   8  16  16
#     4  10  19  30  46  69  99 132 161 193 237 291
#     4  11  24  37  49  72 110 149 172 193 243 315
#     4   9  18  35  60  83  98 122 171 227 264 293
#     4   8  15  30  52  74  94 121 160 205 252 296
#
# _framework density 18.277706999999999
#
# number of rings (size 3 to 8) (size 9 to 14) (size 15 to 20)
#    0.000    2.833    0.000    3.500    0.000    6.000 
#    0.000    6.667    0.000    2.000    0.000    0.000 
#    0.000    0.000    0.000    0.000    0.000    0.000 
#
# Total GULP energy -297536.175378 kJ/mol
# GULP energy per Si atom -12397.340641 kJ/mol
# Density = 1.823611 g / cm^3
# Si number density = 18.277707 Si / 1000 Ang^3
#
#
#
# Elastic Constant Matrix: (Units=GPa)
#
#
# Indices 1 2 3 4 5 6 
#
# 1 163.2701 54.7419 111.9854 0.0000 0.0000 0.0000
# 2 54.7419 40.5524 47.3741 0.0000 0.0000 0.0000
# 3 111.9854 47.3741 154.1754 0.0000 0.0000 0.0000
# 4 0.0000 0.0000 0.0000 12.3129 0.0000 0.0000
# 5 0.0000 0.0000 0.0000 0.0000 16.5997 0.0000
# 6 0.0000 0.0000 0.0000 0.0000 0.0000 30.6597
#
#
#
# Elastic Compliance Matrix: (Units=1/GPa)
#
#
# Indices 1 2 3 4 5 6 
#
# 1 0.015145 -0.011845 -0.007361 0.000000 0.000000 0.000000
# 2 -0.011845 0.047733 -0.006063 0.000000 0.000000 0.000000
# 3 -0.007361 -0.006063 0.013696 0.000000 0.000000 0.000000
# 4 0.000000 0.000000 0.000000 0.081215 0.000000 0.000000
# 5 0.000000 0.000000 0.000000 0.000000 0.060242 0.000000
# 6 0.000000 0.000000 0.000000 0.000000 0.000000 0.032616
#
#
# Mechanical properties :
#
#
# Convention : Reuss Voigt Hill
#
# Bulk Modulus (GPa) = 38.41018 87.35564 62.88291
# Shear Modulus (GPa) = 16.13610 21.50756 18.82183
#
# Velocity S-wave (km/s) = 2.97447 3.43404 3.21248
# Velocity P-wave (km/s) = 5.73210 7.97627 6.94542
#
# Compressibility (1/GPa) = 0.02603477
#
# Stress axis : x y z
#
# Youngs Moduli (GPa) = 66.02755 20.95001 73.01513
#
# Poissons Ratio (x) = 0.24816 0.53746
# Poissons Ratio (y) = 0.78212 0.44270
# Poissons Ratio (z) = 0.48603 0.12702
#
# Static dielectric constant tensor:
#      x y z
#    x 3.397920 0.000000 0.000000 
#    y 0.000000 2.953600 0.000000 
#    z 0.000000 0.000000 3.859480 
# 
# 
# High freq. dielectric constant tensor:
#      x y z
#    x 1.709140 0.000000 0.000000 
#    y 0.000000 1.666100 0.000000 
#    z 0.000000 0.000000 1.727140 
# 
# From -- ./inp_files/3090.got.cif
#   From: 2010.03.12/outbox.cif.g09.slc.cpg/sg65_2_cif.got.tgz:3090.got - 2010.04.10 20:52:16.
