data_PCOD8267770
_publ_section_title
;
Structure prediction by ZEFSAII (Michael W. Deem and Ramdas Pophale) SiO2 
 PCOD8267770
Probable space group: C M M M
;
_chemical_formula_sum "Si O2"
_cell_formula_units_Z 104
_cell_length_a 27.291724
_cell_length_b 9.201863
_cell_length_c 26.439586
_cell_angle_alpha 90.000000
_cell_angle_beta 90.000000
_cell_angle_gamma 90.000000
_cell_volume 6639.897638
_symmetry_space_group_name_H-M "C M M M"
_symmetry_group_IT_number 65
_symmetry_cell_setting 'orthorhombic'
loop_
_space_group_symop_operation_xyz
x,y,z
-x,-y,z
x,-y,-z
-x,y,-z
-x,-y,-z
x,y,-z
-x,y,z
x,-y,z
1/2+x,1/2+y,z
1/2-x,1/2-y,z
1/2+x,1/2-y,-z
1/2-x,1/2+y,-z
1/2-x,1/2-y,-z
1/2+x,1/2+y,-z
1/2-x,1/2+y,z
1/2+x,1/2-y,z
loop_
_atom_site_type_symbol
_atom_site_label
_atom_site_fract_x
_atom_site_fract_y
_atom_site_fract_z
Si Si1 0.612840 0.670389 0.294002
Si Si2 0.360781 0.832424 0.556432
Si Si3 0.801229 0.672668 0.653413
Si Si4 0.055015 0.168820 0.605633
Si Si5 0.558570 0.338299 0.000000
Si Si6 0.056863 0.329600 0.207579
Si Si7 0.058081 0.660192 0.094226
O O1 0.625392 0.500000 0.288988
O O2 0.661844 0.760950 0.305475
O O3 0.573515 0.699994 0.337860
O O4 0.590234 0.729329 0.242409
O O5 0.340821 0.799001 0.500000
O O6 0.319593 0.786066 0.596888
O O7 0.411175 0.747099 0.564655
O O8 0.373865 0.000000 0.563622
O O9 0.796538 0.500000 0.661106
O O10 0.750000 0.750000 0.662140
O O11 0.000000 0.230196 0.601121
O O12 0.056731 0.000000 0.592870
O O13 0.579719 0.263501 0.050679
O O14 0.579244 0.500000 0.000000
O O15 0.500000 0.334722 0.000000
O O16 0.066744 0.500000 0.217551
O O17 0.072020 0.285864 0.150382
O O18 0.000000 0.293589 0.217542
O O19 0.079966 0.500000 0.084973
O O20 0.000000 0.652983 0.089943
#
# Coordination Sequence:
#
# PCOD8267770 Si02
#       7
#    16  16  16  16   8  16  16
#     4  10  19  31  47  66  88 114 144 179 218 260
#     4   9  19  34  49  67  90 113 139 172 209 251
#     4  10  20  35  53  70  88 110 137 171 213 262
#     4   9  18  31  45  63  88 117 147 176 208 248
#     4   9  15  21  31  49  73 103 144 191 228 255
#     4   9  17  28  42  62  88 118 152 187 222 260
#     4   8  14  24  36  50  73 109 149 184 219 259
#
# _framework density 15.662891999999999
#
# number of rings (size 3 to 8) (size 9 to 14) (size 15 to 20)
#    0.000    2.846    0.000    2.538    0.000    4.923 
#    0.000    3.077    0.000    0.000    0.000    0.000 
#    0.000    0.000    0.000    0.692    0.000    9.154 
#
# Total GULP energy -644676.068221 kJ/mol
# GULP energy per Si atom -12397.616697 kJ/mol
# Density = 1.562724 g / cm^3
# Si number density = 15.662892 Si / 1000 Ang^3
#
#
#
# Elastic Constant Matrix: (Units=GPa)
#
#
# Indices 1 2 3 4 5 6 
#
# 1 75.8334 39.7148 31.9310 0.0000 0.0000 0.0000
# 2 39.7148 80.0673 51.9130 0.0000 0.0000 0.0000
# 3 31.9310 51.9130 106.6261 0.0000 0.0000 0.0000
# 4 0.0000 0.0000 0.0000 25.7460 0.0000 0.0000
# 5 0.0000 0.0000 0.0000 0.0000 10.3862 0.0000
# 6 0.0000 0.0000 0.0000 0.0000 0.0000 23.7674
#
#
#
# Elastic Compliance Matrix: (Units=1/GPa)
#
#
# Indices 1 2 3 4 5 6 
#
# 1 0.017982 -0.007932 -0.001523 0.000000 0.000000 0.000000
# 2 -0.007932 0.021749 -0.008214 0.000000 0.000000 0.000000
# 3 -0.001523 -0.008214 0.013834 0.000000 0.000000 0.000000
# 4 0.000000 0.000000 0.000000 0.038841 0.000000 0.000000
# 5 0.000000 0.000000 0.000000 0.000000 0.096281 0.000000
# 6 0.000000 0.000000 0.000000 0.000000 0.000000 0.042074
#
#
# Mechanical properties :
#
#
# Convention : Reuss Voigt Hill
#
# Bulk Modulus (GPa) = 54.86209 56.62714 55.74461
# Shear Modulus (GPa) = 18.37048 21.24446 19.80747
#
# Velocity S-wave (km/s) = 3.42843 3.68687 3.56000
# Velocity P-wave (km/s) = 7.12566 7.37266 7.25021
#
# Compressibility (1/GPa) = 0.01822752
#
# Stress axis : x y z
#
# Youngs Moduli (GPa) = 55.61052 45.97838 72.28676
#
# Poissons Ratio (x) = 0.36469 0.11012
# Poissons Ratio (y) = 0.44109 0.59375
# Poissons Ratio (z) = 0.08471 0.37766
#
# Static dielectric constant tensor:
#      x y z
#    x 2.689430 0.000000 0.000000 
#    y 0.000000 3.084240 0.000000 
#    z 0.000000 0.000000 3.076940 
# 
# 
# High freq. dielectric constant tensor:
#      x y z
#    x 1.556740 0.000000 0.000000 
#    y 0.000000 1.609050 0.000000 
#    z 0.000000 0.000000 1.600910 
# 
# From -- ./inp_files/75985.got.cif
#   From: 2010.03.12/outbox.cif.g09.slc.cpg/sg65_38_cif.got.tgz:75985.got - 2010.04.10 20:52:16.
