data_PCOD8267918
_publ_section_title
;
Structure prediction by ZEFSAII (Michael W. Deem and Ramdas Pophale) SiO2 
 PCOD8267918
Probable space group: C M M M
;
_chemical_formula_sum "Si O2"
_cell_formula_units_Z 112
_cell_length_a 17.582848
_cell_length_b 25.468220
_cell_length_c 13.978127
_cell_angle_alpha 90.000000
_cell_angle_beta 90.000000
_cell_angle_gamma 90.000000
_cell_volume 6259.458962
_symmetry_space_group_name_H-M "C M M M"
_symmetry_group_IT_number 65
_symmetry_cell_setting 'orthorhombic'
loop_
_space_group_symop_operation_xyz
x,y,z
-x,-y,z
x,-y,-z
-x,y,-z
-x,-y,-z
x,y,-z
-x,y,z
x,-y,z
1/2+x,1/2+y,z
1/2-x,1/2-y,z
1/2+x,1/2-y,-z
1/2-x,1/2+y,-z
1/2-x,1/2-y,-z
1/2+x,1/2+y,-z
1/2-x,1/2+y,z
1/2+x,1/2-y,z
loop_
_atom_site_type_symbol
_atom_site_label
_atom_site_fract_x
_atom_site_fract_y
_atom_site_fract_z
Si Si1 0.913861 0.633793 0.608870
Si Si2 0.089705 0.059905 0.108575
Si Si3 0.587997 0.942868 0.773453
Si Si4 0.335052 0.857792 0.888576
Si Si5 0.159584 0.244314 0.106256
Si Si6 0.178787 0.145208 0.784416
Si Si7 0.259799 0.189821 0.610526
O O1 0.910054 0.614589 0.500000
O O2 0.892132 0.583545 0.672185
O O3 0.849181 0.677393 0.628860
O O4 0.000000 0.654845 0.632621
O O5 0.125147 0.095666 0.193254
O O6 0.000000 0.064555 0.118344
O O7 0.115973 0.000000 0.126434
O O8 0.114121 0.077035 0.000000
O O9 0.500000 0.952415 0.783433
O O10 0.610704 0.905311 0.860453
O O11 0.629078 0.000000 0.779341
O O12 0.371925 0.801238 0.858230
O O13 0.254782 0.866990 0.840836
O O14 0.320721 0.857728 0.000000
O O15 0.250000 0.250000 0.104094
O O16 0.135752 0.197721 0.177644
O O17 0.128554 0.230960 0.000000
O O18 0.202391 0.153466 0.673019
O O19 0.237122 0.181186 0.500000
O O20 0.250000 0.250000 0.642601
#
# Coordination Sequence:
#
# PCOD8267918 Si02
#       7
#    16  16  16  16  16  16  16
#     4   9  18  35  57  77 100 136 182 225 264 311
#     4   9  19  36  56  79 109 144 183 228 274 320
#     4  10  21  35  49  68  98 136 176 218 263 311
#     4  10  19  31  48  72 101 134 171 209 255 316
#     4   8  15  27  46  71  98 129 163 200 248 306
#     4  11  18  31  55  79 105 135 175 218 268 321
#     4  10  20  34  55  84 115 143 174 220 277 329
#
# _framework density 17.892921000000001
#
# number of rings (size 3 to 8) (size 9 to 14) (size 15 to 20)
#    0.000    2.429    1.429    3.857    0.000    1.429 
#    0.000    3.571    0.000    2.571    0.000    1.000 
#    0.000    0.000    0.000    0.000    0.000    0.000 
#
# Total GULP energy -693909.331054 kJ/mol
# GULP energy per Si atom -12391.238055 kJ/mol
# Density = 1.785220 g / cm^3
# Si number density = 17.892921 Si / 1000 Ang^3
#
#
#
# Elastic Constant Matrix: (Units=GPa)
#
#
# Indices 1 2 3 4 5 6 
#
# 1 33.1645 37.8213 31.1825 0.0000 0.0000 0.0000
# 2 37.8213 128.2653 50.8036 0.0000 0.0000 0.0000
# 3 31.1825 50.8036 83.5376 0.0000 0.0000 0.0000
# 4 0.0000 0.0000 0.0000 175.0252 0.0000 0.0000
# 5 0.0000 0.0000 0.0000 0.0000 24.3128 0.0000
# 6 0.0000 0.0000 0.0000 0.0000 0.0000 26.4151
#
#
#
# Elastic Compliance Matrix: (Units=1/GPa)
#
#
# Indices 1 2 3 4 5 6 
#
# 1 0.055952 -0.010836 -0.014295 0.000000 0.000000 0.000000
# 2 -0.010836 0.012369 -0.003477 0.000000 0.000000 0.000000
# 3 -0.014295 -0.003477 0.019421 0.000000 0.000000 0.000000
# 4 0.000000 0.000000 0.000000 0.005713 0.000000 0.000000
# 5 0.000000 0.000000 0.000000 0.000000 0.041131 0.000000
# 6 0.000000 0.000000 0.000000 0.000000 0.000000 0.037857
#
#
# Mechanical properties :
#
#
# Convention : Reuss Voigt Hill
#
# Bulk Modulus (GPa) = 32.76074 53.84249 43.30162
# Shear Modulus (GPa) = 20.84764 53.49462 37.17113
#
# Velocity S-wave (km/s) = 3.41711 5.47375 4.56282
# Velocity P-wave (km/s) = 5.82391 8.37294 7.21194
#
# Compressibility (1/GPa) = 0.03052434
#
# Stress axis : x y z
#
# Youngs Moduli (GPa) = 17.87261 80.84812 51.48954
#
# Poissons Ratio (x) = 0.87609 0.73606
# Poissons Ratio (y) = 0.19367 0.17904
# Poissons Ratio (z) = 0.25549 0.28113
#
# Static dielectric constant tensor:
#      x y z
#    x 3.175420 0.000000 0.000000 
#    y 0.000000 3.716470 0.000000 
#    z 0.000000 0.000000 3.504840 
# 
# 
# High freq. dielectric constant tensor:
#      x y z
#    x 1.660350 0.000000 0.000000 
#    y 0.000000 1.693210 0.000000 
#    z 0.000000 0.000000 1.689880 
# 
# From -- ./inp_files/41057.got.cif
#   From: 2010.03.12/outbox.cif.g09.slc.cpg/sg65_21_cif.got.tgz:41057.got - 2010.04.10 20:52:16.
