data_PCOD8267795
_publ_section_title
;
Structure prediction by ZEFSAII (Michael W. Deem and Ramdas Pophale) SiO2 
 PCOD8267795
Probable space group: C M M M
;
_chemical_formula_sum "Si O2"
_cell_formula_units_Z 104
_cell_length_a 26.897460
_cell_length_b 8.763832
_cell_length_c 26.588448
_cell_angle_alpha 90.000000
_cell_angle_beta 90.000000
_cell_angle_gamma 90.000000
_cell_volume 6267.557137
_symmetry_space_group_name_H-M "C M M M"
_symmetry_group_IT_number 65
_symmetry_cell_setting 'orthorhombic'
loop_
_space_group_symop_operation_xyz
x,y,z
-x,-y,z
x,-y,-z
-x,y,-z
-x,-y,-z
x,y,-z
-x,y,z
x,-y,z
1/2+x,1/2+y,z
1/2-x,1/2-y,z
1/2+x,1/2-y,-z
1/2-x,1/2+y,-z
1/2-x,1/2-y,-z
1/2+x,1/2+y,-z
1/2-x,1/2+y,z
1/2+x,1/2-y,z
loop_
_atom_site_type_symbol
_atom_site_label
_atom_site_fract_x
_atom_site_fract_y
_atom_site_fract_z
Si Si1 0.943970 0.320552 0.000000
Si Si2 0.848646 0.321797 0.249806
Si Si3 0.899958 0.176340 0.097506
Si Si4 0.444611 0.825866 0.190759
Si Si5 0.804076 0.678562 0.554489
Si Si6 0.695287 0.319826 0.346164
Si Si7 0.699208 0.679325 0.154144
O O1 0.913335 0.270617 0.048495
O O2 0.947744 0.500000 0.000000
O O3 0.000000 0.250664 0.000000
O O4 0.838114 0.500000 0.257672
O O5 0.905695 0.287273 0.234733
O O6 0.839909 0.232451 0.301153
O O7 0.811930 0.260159 0.207032
O O8 0.936836 0.218625 0.142759
O O9 0.843589 0.215758 0.113644
O O10 0.906542 0.000000 0.084742
O O11 0.500000 0.798560 0.212154
O O12 0.437082 0.000000 0.172637
O O13 0.830997 0.705991 0.500000
O O14 0.799734 0.500000 0.566092
O O15 0.750000 0.750000 0.551012
O O16 0.830684 0.760710 0.601790
O O17 0.699546 0.500000 0.346928
O O18 0.750000 0.250000 0.339157
O O19 0.704379 0.500000 0.163624
O O20 0.750000 0.750000 0.132261
#
# Coordination Sequence:
#
# PCOD8267795 Si02
#       7
#     8  16  16  16  16  16  16
#     4  11  23  37  54  75  98 123 152 187 226 271
#     4  10  19  31  47  67  93 122 153 189 227 268
#     4  10  21  35  52  75  99 122 151 187 225 269
#     4   9  18  33  52  72  94 121 151 183 224 274
#     4   9  16  26  40  58  82 114 152 190 228 270
#     4  11  20  29  42  61  89 122 157 193 228 267
#     4  10  20  34  51  71  95 123 156 189 224 267
#
# _framework density 16.593387
#
# number of rings (size 3 to 8) (size 9 to 14) (size 15 to 20)
#    0.000    2.077    0.000    5.308    0.000    6.154 
#    0.000    0.385    0.000    0.000    0.000    0.000 
#    0.000    0.615    0.000    7.077    0.000    2.000 
#
# Total GULP energy -644710.746316 kJ/mol
# GULP energy per Si atom -12398.283583 kJ/mol
# Density = 1.655562 g / cm^3
# Si number density = 16.593387 Si / 1000 Ang^3
#
#
#
# Elastic Constant Matrix: (Units=GPa)
#
#
# Indices 1 2 3 4 5 6 
#
# 1 91.2596 37.2869 48.0281 0.0000 0.0000 0.0000
# 2 37.2869 103.1024 56.7721 0.0000 0.0000 0.0000
# 3 48.0281 56.7721 131.7058 0.0000 0.0000 0.0000
# 4 0.0000 0.0000 0.0000 31.3954 0.0000 0.0000
# 5 0.0000 0.0000 0.0000 0.0000 14.3417 0.0000
# 6 0.0000 0.0000 0.0000 0.0000 0.0000 20.7047
#
#
#
# Elastic Compliance Matrix: (Units=1/GPa)
#
#
# Indices 1 2 3 4 5 6 
#
# 1 0.014235 -0.003002 -0.003897 0.000000 0.000000 0.000000
# 2 -0.003002 0.013351 -0.004660 0.000000 0.000000 0.000000
# 3 -0.003897 -0.004660 0.011022 0.000000 0.000000 0.000000
# 4 0.000000 0.000000 0.000000 0.031852 0.000000 0.000000
# 5 0.000000 0.000000 0.000000 0.000000 0.069727 0.000000
# 6 0.000000 0.000000 0.000000 0.000000 0.000000 0.048298
#
#
# Mechanical properties :
#
#
# Convention : Reuss Voigt Hill
#
# Bulk Modulus (GPa) = 64.55796 67.80466 66.18131
# Shear Modulus (GPa) = 23.06615 25.55373 24.30994
#
# Velocity S-wave (km/s) = 3.73242 3.92853 3.83173
# Velocity P-wave (km/s) = 7.58716 7.84404 7.71667
#
# Compressibility (1/GPa) = 0.01548996
#
# Stress axis : x y z
#
# Youngs Moduli (GPa) = 70.24769 74.90113 90.72373
#
# Poissons Ratio (x) = 0.22488 0.35354
# Poissons Ratio (y) = 0.21091 0.42278
# Poissons Ratio (z) = 0.27375 0.34905
#
# Static dielectric constant tensor:
#      x y z
#    x 2.985590 0.000000 0.000000 
#    y 0.000000 3.286180 0.000000 
#    z 0.000000 0.000000 3.461570 
# 
# 
# High freq. dielectric constant tensor:
#      x y z
#    x 1.607030 0.000000 0.000000 
#    y 0.000000 1.657830 0.000000 
#    z 0.000000 0.000000 1.637810 
# 
# From -- ./inp_files/75986.got.cif
#   From: 2010.03.12/outbox.cif.g09.slc.cpg/sg65_38_cif.got.tgz:75986.got - 2010.04.10 20:52:16.
