data_PCOD8267475
_publ_section_title
;
Structure prediction by ZEFSAII (Michael W. Deem and Ramdas Pophale) SiO2 
 PCOD8267475
Probable space group: C M M M
;
_chemical_formula_sum "Si O2"
_cell_formula_units_Z 120
_cell_length_a 18.790099
_cell_length_b 28.398539
_cell_length_c 13.411895
_cell_angle_alpha 90.000000
_cell_angle_beta 90.000000
_cell_angle_gamma 90.000000
_cell_volume 7156.739521
_symmetry_space_group_name_H-M "C M M M"
_symmetry_group_IT_number 65
_symmetry_cell_setting 'orthorhombic'
loop_
_space_group_symop_operation_xyz
x,y,z
-x,-y,z
x,-y,-z
-x,y,-z
-x,-y,-z
x,y,-z
-x,y,z
x,-y,z
1/2+x,1/2+y,z
1/2-x,1/2-y,z
1/2+x,1/2-y,-z
1/2-x,1/2+y,-z
1/2-x,1/2-y,-z
1/2+x,1/2+y,-z
1/2-x,1/2+y,z
1/2+x,1/2-y,z
loop_
_atom_site_type_symbol
_atom_site_label
_atom_site_fract_x
_atom_site_fract_y
_atom_site_fract_z
Si Si1 0.158220 0.805366 0.612569
Si Si2 0.081690 0.055792 0.000000
Si Si3 0.696807 0.053667 0.740526
Si Si4 0.851588 0.947295 0.799656
Si Si5 0.701793 0.855413 0.382727
Si Si6 0.421049 0.944153 0.890023
Si Si7 0.081775 0.899399 0.611664
Si Si8 0.919203 0.714345 0.618366
O O1 0.178114 0.791243 0.500000
O O2 0.231349 0.825310 0.663146
O O3 0.096118 0.843978 0.616289
O O4 0.124255 0.759021 0.664548
O O5 0.116703 0.077533 0.100819
O O6 0.000000 0.070387 0.000000
O O7 0.094255 0.000000 0.000000
O O8 0.766751 0.053466 0.809152
O O9 0.704137 0.090195 0.650324
O O10 0.634206 0.074589 0.809102
O O11 0.681978 0.000000 0.701233
O O12 0.871534 0.923874 0.695375
O O13 0.882171 0.000000 0.794738
O O14 0.712501 0.857017 0.500000
O O15 0.626511 0.831881 0.352396
O O16 0.500000 0.927958 0.857715
O O17 0.416296 0.000000 0.894234
O O18 0.403072 0.923856 0.000000
O O19 0.101667 0.918163 0.500000
O O20 0.000000 0.909343 0.635249
O O21 0.924471 0.719944 0.500000
O O22 0.000000 0.710678 0.662081
#
# Coordination Sequence:
#
# PCOD8267475 Si02
#       8
#    16   8  16  16  16  16  16  16
#     4   9  16  29  46  66  92 123 157 197 244 289
#     4   9  18  32  48  64  87 122 163 211 256 289
#     4  10  20  31  46  69  97 131 165 197 232 276
#     4  10  20  32  46  66  94 130 169 206 244 288
#     4  10  19  31  46  66  96 133 167 195 229 279
#     4   8  15  29  49  70  90 114 149 198 250 290
#     4  10  19  30  46  68  96 129 164 203 243 289
#     4   9  17  29  47  69  91 118 156 203 249 290
#
# _framework density 16.767412
#
# number of rings (size 3 to 8) (size 9 to 14) (size 15 to 20)
#    0.000    2.600    1.333    1.600    0.933    5.067 
#    0.000    2.000    0.000    0.000    0.000    3.733 
#    2.000    2.133    1.200    0.133    0.000    0.000 
#
# Total GULP energy -743470.560950 kJ/mol
# GULP energy per Si atom -12391.176016 kJ/mol
# Density = 1.672925 g / cm^3
# Si number density = 16.767412 Si / 1000 Ang^3
#
#
#
# Elastic Constant Matrix: (Units=GPa)
#
#
# Indices 1 2 3 4 5 6 
#
# 1 109.5295 36.6696 33.6660 0.0000 0.0000 0.0000
# 2 36.6696 71.7902 24.5840 0.0000 0.0000 0.0000
# 3 33.6660 24.5840 62.7126 0.0000 0.0000 0.0000
# 4 0.0000 0.0000 0.0000 1.5308 0.0000 0.0000
# 5 0.0000 0.0000 0.0000 0.0000 22.6274 0.0000
# 6 0.0000 0.0000 0.0000 0.0000 0.0000 22.3518
#
#
#
# Elastic Compliance Matrix: (Units=1/GPa)
#
#
# Indices 1 2 3 4 5 6 
#
# 1 0.012108 -0.004572 -0.004707 0.000000 0.000000 0.000000
# 2 -0.004572 0.017816 -0.004529 0.000000 0.000000 0.000000
# 3 -0.004707 -0.004529 0.020248 0.000000 0.000000 0.000000
# 4 0.000000 0.000000 0.000000 0.653238 0.000000 0.000000
# 5 0.000000 0.000000 0.000000 0.000000 0.044194 0.000000
# 6 0.000000 0.000000 0.000000 0.000000 0.000000 0.044739
#
#
# Mechanical properties :
#
#
# Convention : Reuss Voigt Hill
#
# Bulk Modulus (GPa) = 44.33864 48.20793 46.27329
# Shear Modulus (GPa) = 6.04245 19.24286 12.64265
#
# Velocity S-wave (km/s) = 1.90040 3.39135 2.74889
# Velocity P-wave (km/s) = 5.59608 6.64443 6.14266
#
# Compressibility (1/GPa) = 0.02255369
#
# Stress axis : x y z
#
# Youngs Moduli (GPa) = 82.59227 56.12892 49.38674
#
# Poissons Ratio (x) = 0.25665 0.23248
# Poissons Ratio (y) = 0.37765 0.22369
# Poissons Ratio (z) = 0.38879 0.25423
#
# Static dielectric constant tensor:
#      x y z
#    x 3.453970 0.000000 0.000000 
#    y 0.000000 2.958370 0.000000 
#    z 0.000000 0.000000 2.954750 
# 
# 
# High freq. dielectric constant tensor:
#      x y z
#    x 1.666250 0.000000 0.000000 
#    y 0.000000 1.618880 0.000000 
#    z 0.000000 0.000000 1.602210 
# 
# From -- ./inp_files/29770.got.cif
#   From: 2010.03.12/outbox.cif.g09.slc.cpg/sg65_15_cif.got.tgz:29770.got - 2010.04.10 20:52:16.
