data_PCOD8267623
_publ_section_title
;
Structure prediction by ZEFSAII (Michael W. Deem and Ramdas Pophale) SiO2 
 PCOD8267623
Probable space group: C M M M
;
_chemical_formula_sum "Si O2"
_cell_formula_units_Z 88
_cell_length_a 8.000599
_cell_length_b 27.285941
_cell_length_c 22.996488
_cell_angle_alpha 90.000000
_cell_angle_beta 90.000000
_cell_angle_gamma 90.000000
_cell_volume 5020.222379
_symmetry_space_group_name_H-M "C M M M"
_symmetry_group_IT_number 65
_symmetry_cell_setting 'orthorhombic'
loop_
_space_group_symop_operation_xyz
x,y,z
-x,-y,z
x,-y,-z
-x,y,-z
-x,-y,-z
x,y,-z
-x,y,z
x,-y,z
1/2+x,1/2+y,z
1/2-x,1/2-y,z
1/2+x,1/2-y,-z
1/2-x,1/2+y,-z
1/2-x,1/2-y,-z
1/2+x,1/2+y,-z
1/2-x,1/2+y,z
1/2+x,1/2-y,z
loop_
_atom_site_type_symbol
_atom_site_label
_atom_site_fract_x
_atom_site_fract_y
_atom_site_fract_z
Si Si1 0.803964 0.445455 0.134463
Si Si2 0.195934 0.645968 0.936257
Si Si3 0.192340 0.895987 0.244671
Si Si4 0.000000 0.941963 0.435181
Si Si5 0.188191 0.443106 0.358360
Si Si6 0.804372 0.196824 0.825327
O O1 0.763962 0.500000 0.111450
O O2 0.736152 0.406324 0.087398
O O3 0.709854 0.437318 0.195307
O O4 0.000000 0.437965 0.145686
O O5 0.238866 0.688952 0.890959
O O6 0.000000 0.642876 0.943447
O O7 0.276446 0.656439 0.000000
O O8 0.300487 0.910963 0.300209
O O9 0.264819 0.844552 0.218945
O O10 0.000000 0.891651 0.263881
O O11 0.829701 0.924319 0.403332
O O12 0.000000 0.919209 0.500000
O O13 0.000000 0.000000 0.438937
O O14 0.220776 0.500000 0.342872
O O15 0.000000 0.436238 0.384228
O O16 0.750000 0.250000 0.802552
O O17 0.000000 0.191854 0.826904
#
# Coordination Sequence:
#
# PCOD8267623 Si02
#       6
#    16  16  16   8  16  16
#     4   9  17  28  43  65  91 119 154 194 239 288
#     4   9  18  32  48  65  87 117 154 193 237 292
#     4  10  19  31  47  68  95 125 157 199 245 297
#     4   9  18  32  48  70 106 146 179 213 243 271
#     4  10  19  30  48  74 103 140 178 208 242 284
#     4  10  21  35  51  69  90 118 150 194 251 302
#
# _framework density 17.529104
#
# number of rings (size 3 to 8) (size 9 to 14) (size 15 to 20)
#    0.000    2.455    0.909    1.636    0.000    6.182 
#    0.000    3.636    0.000    0.000    0.000    5.091 
#    0.000    0.727    0.364    0.000    0.000    0.000 
#
# Total GULP energy -545452.459864 kJ/mol
# GULP energy per Si atom -12396.646815 kJ/mol
# Density = 1.748921 g / cm^3
# Si number density = 17.529104 Si / 1000 Ang^3
#
#
#
# Elastic Constant Matrix: (Units=GPa)
#
#
# Indices 1 2 3 4 5 6 
#
# 1 69.6271 15.1634 40.1468 0.0000 0.0000 0.0000
# 2 15.1634 81.5076 28.7134 0.0000 0.0000 0.0000
# 3 40.1468 28.7134 111.7370 0.0000 0.0000 0.0000
# 4 0.0000 0.0000 0.0000 15.1266 0.0000 0.0000
# 5 0.0000 0.0000 0.0000 0.0000 21.2256 0.0000
# 6 0.0000 0.0000 0.0000 0.0000 0.0000 18.0884
#
#
#
# Elastic Compliance Matrix: (Units=1/GPa)
#
#
# Indices 1 2 3 4 5 6 
#
# 1 0.018220 -0.001191 -0.006240 0.000000 0.000000 0.000000
# 2 -0.001191 0.013568 -0.003059 0.000000 0.000000 0.000000
# 3 -0.006240 -0.003059 0.011978 0.000000 0.000000 0.000000
# 4 0.000000 0.000000 0.000000 0.066109 0.000000 0.000000
# 5 0.000000 0.000000 0.000000 0.000000 0.047113 0.000000
# 6 0.000000 0.000000 0.000000 0.000000 0.000000 0.055284
#
#
# Mechanical properties :
#
#
# Convention : Reuss Voigt Hill
#
# Bulk Modulus (GPa) = 43.88806 47.87989 45.88397
# Shear Modulus (GPa) = 20.76016 22.81134 21.78575
#
# Velocity S-wave (km/s) = 3.44514 3.61132 3.52921
# Velocity P-wave (km/s) = 6.39663 6.69049 6.54521
#
# Compressibility (1/GPa) = 0.02278524
#
# Stress axis : x y z
#
# Youngs Moduli (GPa) = 54.88562 73.70353 83.48902
#
# Poissons Ratio (x) = 0.08780 0.52099
# Poissons Ratio (y) = 0.06538 0.25536
# Poissons Ratio (z) = 0.34250 0.22543
#
# Static dielectric constant tensor:
#      x y z
#    x 3.262660 0.000000 0.000000 
#    y 0.000000 3.083920 0.000000 
#    z 0.000000 0.000000 3.341640 
# 
# 
# High freq. dielectric constant tensor:
#      x y z
#    x 1.682730 0.000000 0.000000 
#    y 0.000000 1.652110 0.000000 
#    z 0.000000 0.000000 1.653430 
# 
# From -- ./inp_files/60296.got.cif
#   From: 2010.03.12/outbox.cif.g09.slc.cpg/sg65_31_cif.got.tgz:60296.got - 2010.04.10 20:52:16.
