data_PCOD8267605
_publ_section_title
;
Structure prediction by ZEFSAII (Michael W. Deem and Ramdas Pophale) SiO2 
 PCOD8267605
Probable space group: C M M M
;
_chemical_formula_sum "Si O2"
_cell_formula_units_Z 72
_cell_length_a 32.479295
_cell_length_b 13.400628
_cell_length_c 8.703987
_cell_angle_alpha 90.000000
_cell_angle_beta 90.000000
_cell_angle_gamma 90.000000
_cell_volume 3788.348979
_symmetry_space_group_name_H-M "C M M M"
_symmetry_group_IT_number 65
_symmetry_cell_setting 'orthorhombic'
loop_
_space_group_symop_operation_xyz
x,y,z
-x,-y,z
x,-y,-z
-x,y,-z
-x,-y,-z
x,y,-z
-x,y,z
x,-y,z
1/2+x,1/2+y,z
1/2-x,1/2-y,z
1/2+x,1/2-y,-z
1/2-x,1/2+y,-z
1/2-x,1/2-y,-z
1/2+x,1/2+y,-z
1/2-x,1/2+y,z
1/2+x,1/2-y,z
loop_
_atom_site_type_symbol
_atom_site_label
_atom_site_fract_x
_atom_site_fract_y
_atom_site_fract_z
Si Si1 0.952481 0.612831 0.819909
Si Si2 0.953369 0.000000 0.317037
Si Si3 0.907596 0.802040 0.682555
Si Si4 0.235612 0.607551 0.317016
Si Si5 0.684036 0.711311 0.682462
O O1 0.938530 0.500000 0.772127
O O2 0.926726 0.696839 0.732563
O O3 0.000000 0.627483 0.774993
O O4 0.946002 0.627617 0.000000
O O5 0.931785 0.100895 0.253246
O O6 0.951858 0.000000 0.500000
O O7 0.000000 0.000000 0.255911
O O8 0.907899 0.804368 0.500000
O O9 0.861178 0.809837 0.750259
O O10 0.235691 0.612412 0.500000
O O11 0.223040 0.500000 0.252928
O O12 0.282364 0.630359 0.261977
O O13 0.201342 0.683288 0.254037
O O14 0.680622 0.712948 0.500000
#
# Coordination Sequence:
#
# PCOD8267605 Si02
#       5
#    16   8  16  16  16
#     4   9  19  36  54  70  92 124 159 196 242 294
#     4   9  18  30  43  65  99 133 159 193 243 287
#     4  10  19  30  48  73 100 127 160 202 241 283
#     4   8  13  22  36  53  84 124 154 185 227 278
#     4   8  15  24  35  60  89 118 156 190 228 275
#
# _framework density 19.005641000000001
#
# number of rings (size 3 to 8) (size 9 to 14) (size 15 to 20)
#    0.000    3.222    0.000    2.667    1.556    2.667 
#    0.000    3.889    0.000    2.000    0.000    3.111 
#    0.000    1.778    0.000    0.000    0.000    0.000 
#
# Total GULP energy -446025.965382 kJ/mol
# GULP energy per Si atom -12389.610150 kJ/mol
# Density = 1.896238 g / cm^3
# Si number density = 19.005641 Si / 1000 Ang^3
#
#
#
# Elastic Constant Matrix: (Units=GPa)
#
#
# Indices 1 2 3 4 5 6 
#
# 1 152.8918 70.6045 10.5098 0.0000 0.0000 0.0000
# 2 70.6045 147.5776 9.0047 0.0000 0.0000 0.0000
# 3 10.5098 9.0047 8.9633 0.0000 0.0000 0.0000
# 4 0.0000 0.0000 0.0000 14.0476 0.0000 0.0000
# 5 0.0000 0.0000 0.0000 0.0000 7.3610 0.0000
# 6 0.0000 0.0000 0.0000 0.0000 0.0000 19.0761
#
#
#
# Elastic Compliance Matrix: (Units=1/GPa)
#
#
# Indices 1 2 3 4 5 6 
#
# 1 0.008730 -0.003784 -0.006435 0.000000 0.000000 0.000000
# 2 -0.003784 0.008859 -0.004463 0.000000 0.000000 0.000000
# 3 -0.006435 -0.004463 0.123594 0.000000 0.000000 0.000000
# 4 0.000000 0.000000 0.000000 0.071186 0.000000 0.000000
# 5 0.000000 0.000000 0.000000 0.000000 0.135850 0.000000
# 6 0.000000 0.000000 0.000000 0.000000 0.000000 0.052422
#
#
# Mechanical properties :
#
#
# Convention : Reuss Voigt Hill
#
# Bulk Modulus (GPa) = 8.94296 54.40785 31.67541
# Shear Modulus (GPa) = 10.70025 22.71787 16.70906
#
# Velocity S-wave (km/s) = 2.37534 3.46109 2.96829
# Velocity P-wave (km/s) = 3.49838 6.68293 5.33387
#
# Compressibility (1/GPa) = 0.11181974
#
# Stress axis : x y z
#
# Youngs Moduli (GPa) = 114.54176 112.88159 8.09100
#
# Poissons Ratio (x) = 0.42717 0.05207
# Poissons Ratio (y) = 0.43345 0.03611
# Poissons Ratio (z) = 0.73708 0.50375
#
# Static dielectric constant tensor:
#      x y z
#    x 3.741960 0.000000 0.000000 
#    y 0.000000 3.856610 0.000000 
#    z 0.000000 0.000000 2.758530 
# 
# 
# High freq. dielectric constant tensor:
#      x y z
#    x 1.745180 0.000000 0.000000 
#    y 0.000000 1.754370 0.000000 
#    z 0.000000 0.000000 1.665730 
# 
# From -- ./inp_files/18015.got.cif
#   From: 2010.03.12/outbox.cif.g09.slc.cpg/sg65_10_cif.got.tgz:18015.got - 2010.04.10 20:52:16.
