data_PCOD8267323
_publ_section_title
;
Structure prediction by ZEFSAII (Michael W. Deem and Ramdas Pophale) SiO2 
 PCOD8267323
Probable space group: C M M M
;
_chemical_formula_sum "Si O2"
_cell_formula_units_Z 96
_cell_length_a 9.277790
_cell_length_b 27.384783
_cell_length_c 24.441607
_cell_angle_alpha 90.000000
_cell_angle_beta 90.000000
_cell_angle_gamma 90.000000
_cell_volume 6209.885589
_symmetry_space_group_name_H-M "C M M M"
_symmetry_group_IT_number 65
_symmetry_cell_setting 'orthorhombic'
loop_
_space_group_symop_operation_xyz
x,y,z
-x,-y,z
x,-y,-z
-x,y,-z
-x,-y,-z
x,y,-z
-x,y,z
x,-y,z
1/2+x,1/2+y,z
1/2-x,1/2-y,z
1/2+x,1/2-y,-z
1/2-x,1/2+y,-z
1/2-x,1/2-y,-z
1/2+x,1/2+y,-z
1/2-x,1/2+y,z
1/2+x,1/2-y,z
loop_
_atom_site_type_symbol
_atom_site_label
_atom_site_fract_x
_atom_site_fract_y
_atom_site_fract_z
Si Si1 0.833690 0.700161 0.057768
Si Si2 0.832281 0.300440 0.616025
Si Si3 0.169303 0.301210 0.823666
Si Si4 0.833419 0.363080 0.722137
Si Si5 0.831196 0.055161 0.335582
Si Si6 0.834770 0.882728 0.561465
O O1 0.750000 0.750000 0.055848
O O2 0.796685 0.674555 0.116058
O O3 0.000000 0.714240 0.058887
O O4 0.799417 0.670851 0.000000
O O5 0.750000 0.250000 0.612462
O O6 0.805348 0.322949 0.675675
O O7 0.767428 0.336276 0.570365
O O8 0.000000 0.292179 0.603759
O O9 0.250000 0.250000 0.815816
O O10 0.223257 0.340166 0.778995
O O11 0.000000 0.290969 0.815255
O O12 0.745647 0.412307 0.710446
O O13 0.000000 0.377790 0.725430
O O14 0.793136 0.074303 0.396442
O O15 0.000000 0.057742 0.324235
O O16 0.773387 0.000000 0.331024
O O17 0.811238 0.902663 0.500000
O O18 0.000000 0.866272 0.570799
#
# Coordination Sequence:
#
# PCOD8267323 Si02
#       6
#    16  16  16  16  16  16
#     4   8  13  21  33  50  75 108 142 172 200 229
#     4  10  19  30  44  61  83 111 140 168 198 232
#     4   9  16  25  38  58  84 113 144 173 200 233
#     4   9  18  30  43  61  84 109 137 168 201 240
#     4   9  18  32  49  67  84 102 126 160 203 247
#     4   9  18  32  48  65  84 105 130 160 195 238
#
# _framework density 15.459222
#
# number of rings (size 3 to 8) (size 9 to 14) (size 15 to 20)
#    0.000    3.000    0.000    1.000    0.000    2.667 
#    0.000    1.667    0.000    0.000    0.000    4.667 
#    0.000    0.667    0.000    8.333    0.000    1.333 
#
# Total GULP energy -594741.095637 kJ/mol
# GULP energy per Si atom -12390.439492 kJ/mol
# Density = 1.542404 g / cm^3
# Si number density = 15.459222 Si / 1000 Ang^3
#
#
#
# Elastic Constant Matrix: (Units=GPa)
#
#
# Indices 1 2 3 4 5 6 
#
# 1 46.0482 39.6935 31.3780 0.0000 0.0000 0.0000
# 2 39.6935 103.1833 54.6200 0.0000 0.0000 0.0000
# 3 31.3780 54.6200 135.8404 0.0000 0.0000 0.0000
# 4 0.0000 0.0000 0.0000 12.6718 0.0000 0.0000
# 5 0.0000 0.0000 0.0000 0.0000 17.1424 0.0000
# 6 0.0000 0.0000 0.0000 0.0000 0.0000 22.1630
#
#
#
# Elastic Compliance Matrix: (Units=1/GPa)
#
#
# Indices 1 2 3 4 5 6 
#
# 1 0.033587 -0.011197 -0.003256 0.000000 0.000000 0.000000
# 2 -0.011197 0.016045 -0.003865 0.000000 0.000000 0.000000
# 3 -0.003256 -0.003865 0.009668 0.000000 0.000000 0.000000
# 4 0.000000 0.000000 0.000000 0.078915 0.000000 0.000000
# 5 0.000000 0.000000 0.000000 0.000000 0.058335 0.000000
# 6 0.000000 0.000000 0.000000 0.000000 0.000000 0.045120
#
#
# Mechanical properties :
#
#
# Convention : Reuss Voigt Hill
#
# Bulk Modulus (GPa) = 44.12413 59.60609 51.86511
# Shear Modulus (GPa) = 17.49105 21.02079 19.25592
#
# Velocity S-wave (km/s) = 3.36732 3.69149 3.53313
# Velocity P-wave (km/s) = 6.61232 7.53725 7.08988
#
# Compressibility (1/GPa) = 0.02266334
#
# Stress axis : x y z
#
# Youngs Moduli (GPa) = 29.77355 62.32569 103.43587
#
# Poissons Ratio (x) = 0.69785 0.33680
# Poissons Ratio (y) = 0.33337 0.39978
# Poissons Ratio (z) = 0.09695 0.24089
#
# Static dielectric constant tensor:
#      x y z
#    x 2.941410 0.000000 0.000000 
#    y 0.000000 2.665170 0.000000 
#    z 0.000000 0.000000 3.501520 
# 
# 
# High freq. dielectric constant tensor:
#      x y z
#    x 1.596700 0.000000 0.000000 
#    y 0.000000 1.550250 0.000000 
#    z 0.000000 0.000000 1.602650 
# 
# From -- ./inp_files/68040.got.cif
#   From: 2010.03.12/outbox.cif.g09.slc.cpg/sg65_35_cif.got.tgz:68040.got - 2010.04.10 20:52:16.
