data_PCOD8267725
_publ_section_title
;
Structure prediction by ZEFSAII (Michael W. Deem and Ramdas Pophale) SiO2 
 PCOD8267725
Probable space group: C M M M
;
_chemical_formula_sum "Si O2"
_cell_formula_units_Z 96
_cell_length_a 8.757776
_cell_length_b 27.107217
_cell_length_c 24.293704
_cell_angle_alpha 90.000000
_cell_angle_beta 90.000000
_cell_angle_gamma 90.000000
_cell_volume 5767.299444
_symmetry_space_group_name_H-M "C M M M"
_symmetry_group_IT_number 65
_symmetry_cell_setting 'orthorhombic'
loop_
_space_group_symop_operation_xyz
x,y,z
-x,-y,z
x,-y,-z
-x,y,-z
-x,-y,-z
x,y,-z
-x,y,z
x,-y,z
1/2+x,1/2+y,z
1/2-x,1/2-y,z
1/2+x,1/2-y,-z
1/2-x,1/2+y,-z
1/2-x,1/2-y,-z
1/2+x,1/2+y,-z
1/2-x,1/2+y,z
1/2+x,1/2-y,z
loop_
_atom_site_type_symbol
_atom_site_label
_atom_site_fract_x
_atom_site_fract_y
_atom_site_fract_z
Si Si1 0.180537 0.695626 0.000000
Si Si2 0.678963 0.101896 0.727874
Si Si3 0.168037 0.441250 0.500000
Si Si4 0.319662 0.199695 0.787900
Si Si5 0.182653 0.444426 0.382364
Si Si6 0.819456 0.848476 0.107858
Si Si7 0.322080 0.445084 0.169443
O O1 0.250000 0.750000 0.000000
O O2 0.233893 0.664507 0.947788
O O3 0.000000 0.700887 0.000000
O O4 0.500000 0.093636 0.727923
O O5 0.722593 0.157733 0.743603
O O6 0.744780 0.090147 0.667003
O O7 0.743160 0.063699 0.772189
O O8 0.153449 0.500000 0.500000
O O9 0.249826 0.425770 0.442053
O O10 0.000000 0.417223 0.500000
O O11 0.500000 0.203622 0.797743
O O12 0.250000 0.250000 0.763800
O O13 0.236747 0.188987 0.845461
O O14 0.238217 0.500000 0.369996
O O15 0.000000 0.443113 0.386123
O O16 0.771468 0.904455 0.124331
O O17 0.000000 0.842589 0.099672
O O18 0.500000 0.439582 0.180365
O O19 0.279503 0.500000 0.147881
#
# Coordination Sequence:
#
# PCOD8267725 Si02
#       7
#     8  16   8  16  16  16  16
#     4  12  24  38  55  74  95 117 146 183 223 264
#     4   9  17  27  42  65  89 114 147 185 222 262
#     4   7  10  16  28  50  82 115 141 169 211 259
#     4  10  19  31  46  65  89 115 144 180 224 268
#     4   8  12  19  33  56  86 115 141 173 215 259
#     4  10  20  35  53  72  94 119 148 179 214 257
#     4   9  18  32  49  69  94 123 151 178 211 255
#
# _framework density 16.645571
#
# number of rings (size 3 to 8) (size 9 to 14) (size 15 to 20)
#    0.000    2.750    0.000    3.750    0.000    2.333 
#    0.000    0.417    0.000    2.500    0.000    1.167 
#    0.000    3.333    0.000    0.000    0.000    0.000 
#
# Total GULP energy -594861.521991 kJ/mol
# GULP energy per Si atom -12392.948375 kJ/mol
# Density = 1.660769 g / cm^3
# Si number density = 16.645571 Si / 1000 Ang^3
#
#
#
# Elastic Constant Matrix: (Units=GPa)
#
#
# Indices 1 2 3 4 5 6 
#
# 1 46.0641 28.2831 34.6183 0.0000 0.0000 0.0000
# 2 28.2831 107.4298 67.0932 0.0000 0.0000 0.0000
# 3 34.6183 67.0932 160.3657 0.0000 0.0000 0.0000
# 4 0.0000 0.0000 0.0000 24.7763 0.0000 0.0000
# 5 0.0000 0.0000 0.0000 0.0000 7.1922 0.0000
# 6 0.0000 0.0000 0.0000 0.0000 0.0000 18.6049
#
#
#
# Elastic Compliance Matrix: (Units=1/GPa)
#
#
# Indices 1 2 3 4 5 6 
#
# 1 0.027631 -0.004805 -0.003955 0.000000 0.000000 0.000000
# 2 -0.004805 0.013436 -0.004584 0.000000 0.000000 0.000000
# 3 -0.003955 -0.004584 0.009007 0.000000 0.000000 0.000000
# 4 0.000000 0.000000 0.000000 0.040361 0.000000 0.000000
# 5 0.000000 0.000000 0.000000 0.000000 0.139040 0.000000
# 6 0.000000 0.000000 0.000000 0.000000 0.000000 0.053749
#
#
# Mechanical properties :
#
#
# Convention : Reuss Voigt Hill
#
# Bulk Modulus (GPa) = 42.75765 63.76100 53.25932
# Shear Modulus (GPa) = 15.73773 22.37234 19.05503
#
# Velocity S-wave (km/s) = 3.07817 3.67009 3.38709
# Velocity P-wave (km/s) = 6.19487 7.50651 6.88201
#
# Compressibility (1/GPa) = 0.02338763
#
# Stress axis : x y z
#
# Youngs Moduli (GPa) = 36.19143 74.42504 111.02028
#
# Poissons Ratio (x) = 0.35759 0.43903
# Poissons Ratio (y) = 0.17389 0.50895
# Poissons Ratio (z) = 0.14312 0.34118
#
# Static dielectric constant tensor:
#      x y z
#    x 2.956410 0.000000 0.000000 
#    y 0.000000 3.229430 0.000000 
#    z 0.000000 0.000000 3.517690 
# 
# 
# High freq. dielectric constant tensor:
#      x y z
#    x 1.622860 0.000000 0.000000 
#    y 0.000000 1.627090 0.000000 
#    z 0.000000 0.000000 1.640560 
# 
# From -- ./inp_files/68104.got.cif
#   From: 2010.03.12/outbox.cif.g09.slc.cpg/sg65_35_cif.got.tgz:68104.got - 2010.04.10 20:52:16.
