data_PCOD8267142
_publ_section_title
;
Structure prediction by ZEFSAII (Michael W. Deem and Ramdas Pophale) SiO2 
 PCOD8267142
Probable space group: C M M M
;
_chemical_formula_sum "Si O2"
_cell_formula_units_Z 72
_cell_length_a 9.055534
_cell_length_b 25.624245
_cell_length_c 19.396648
_cell_angle_alpha 90.000000
_cell_angle_beta 90.000000
_cell_angle_gamma 90.000000
_cell_volume 4500.821901
_symmetry_space_group_name_H-M "C M M M"
_symmetry_group_IT_number 65
_symmetry_cell_setting 'orthorhombic'
loop_
_space_group_symop_operation_xyz
x,y,z
-x,-y,z
x,-y,-z
-x,y,-z
-x,-y,-z
x,y,-z
-x,y,z
x,-y,z
1/2+x,1/2+y,z
1/2-x,1/2-y,z
1/2+x,1/2-y,-z
1/2-x,1/2+y,-z
1/2-x,1/2-y,-z
1/2+x,1/2+y,-z
1/2-x,1/2+y,z
1/2+x,1/2-y,z
loop_
_atom_site_type_symbol
_atom_site_label
_atom_site_fract_x
_atom_site_fract_y
_atom_site_fract_z
Si Si1 0.669087 0.500000 0.418469
Si Si2 0.825248 0.405988 0.343875
Si Si3 0.327168 0.802023 0.421623
Si Si4 0.334367 0.061950 0.924232
Si Si5 0.669993 0.561724 0.209632
O O1 0.500000 0.500000 0.392110
O O2 0.678443 0.500000 0.500000
O O3 0.749247 0.449079 0.390877
O O4 0.779139 0.350079 0.374002
O O5 0.767239 0.408715 0.266081
O O6 0.000000 0.415026 0.345470
O O7 0.276214 0.813729 0.500000
O O8 0.500000 0.792508 0.418028
O O9 0.250000 0.750000 0.392929
O O10 0.500000 0.082216 0.908640
O O11 0.223573 0.082035 0.865220
O O12 0.334218 0.000000 0.924511
O O13 0.282470 0.082126 0.000000
O O14 0.500000 0.577048 0.218511
O O15 0.694639 0.500000 0.218474
#
# Coordination Sequence:
#
# PCOD8267142 Si02
#       5
#     8  16  16  16  16
#     4  11  23  35  47  67  94 123 156 193 235 281
#     4  11  21  33  50  69  93 125 159 194 232 281
#     4   9  19  35  53  72  91 115 152 196 242 287
#     4   8  14  25  41  60  84 118 159 195 227 269
#     4  10  19  29  42  63  94 126 158 194 233 276
#
# _framework density 15.997078
#
# number of rings (size 3 to 8) (size 9 to 14) (size 15 to 20)
#    0.000    2.333    1.111    3.000    0.000    4.889 
#    0.000    4.444    0.000    0.000    0.000    0.000 
#    0.000    0.889    0.000    2.889    0.000    3.556 
#
# Total GULP energy -446370.865732 kJ/mol
# GULP energy per Si atom -12399.190715 kJ/mol
# Density = 1.596067 g / cm^3
# Si number density = 15.997078 Si / 1000 Ang^3
#
#
#
# Elastic Constant Matrix: (Units=GPa)
#
#
# Indices 1 2 3 4 5 6 
#
# 1 89.3424 49.9884 56.5685 0.0000 0.0000 0.0000
# 2 49.9884 88.1541 51.9171 0.0000 0.0000 0.0000
# 3 56.5685 51.9171 115.4387 0.0000 0.0000 0.0000
# 4 0.0000 0.0000 0.0000 12.8578 0.0000 0.0000
# 5 0.0000 0.0000 0.0000 0.0000 28.7759 0.0000
# 6 0.0000 0.0000 0.0000 0.0000 0.0000 21.8807
#
#
#
# Elastic Compliance Matrix: (Units=1/GPa)
#
#
# Indices 1 2 3 4 5 6 
#
# 1 0.019112 -0.007239 -0.006110 0.000000 0.000000 0.000000
# 2 -0.007239 0.018173 -0.004626 0.000000 0.000000 0.000000
# 3 -0.006110 -0.004626 0.013737 0.000000 0.000000 0.000000
# 4 0.000000 0.000000 0.000000 0.077774 0.000000 0.000000
# 5 0.000000 0.000000 0.000000 0.000000 0.034751 0.000000
# 6 0.000000 0.000000 0.000000 0.000000 0.000000 0.045702
#
#
# Mechanical properties :
#
#
# Convention : Reuss Voigt Hill
#
# Bulk Modulus (GPa) = 66.34543 67.76480 67.05512
# Shear Modulus (GPa) = 19.98225 21.66697 20.82461
#
# Velocity S-wave (km/s) = 3.53812 3.68425 3.61193
# Velocity P-wave (km/s) = 7.63247 7.78145 7.70732
#
# Compressibility (1/GPa) = 0.01507263
#
# Stress axis : x y z
#
# Youngs Moduli (GPa) = 52.32385 55.02649 72.79714
#
# Poissons Ratio (x) = 0.39835 0.44476
# Poissons Ratio (y) = 0.37879 0.33673
# Poissons Ratio (z) = 0.31968 0.25453
#
# Static dielectric constant tensor:
#      x y z
#    x 3.151240 0.000000 0.000000 
#    y 0.000000 2.744360 0.000000 
#    z 0.000000 0.000000 3.319190 
# 
# 
# High freq. dielectric constant tensor:
#      x y z
#    x 1.625220 0.000000 0.000000 
#    y 0.000000 1.565530 0.000000 
#    z 0.000000 0.000000 1.623740 
# 
# From -- ./inp_files/59258.got.cif
#   From: 2010.03.12/outbox.cif.g09.slc.cpg/sg65_30_cif.got.tgz:59258.got - 2010.04.10 20:52:16.
