data_PCOD8267523
_publ_section_title
;
Structure prediction by ZEFSAII (Michael W. Deem and Ramdas Pophale) SiO2 
 PCOD8267523
Probable space group: C M M M
;
_chemical_formula_sum "Si O2"
_cell_formula_units_Z 100
_cell_length_a 18.103926
_cell_length_b 24.274608
_cell_length_c 14.241486
_cell_angle_alpha 90.000000
_cell_angle_beta 90.000000
_cell_angle_gamma 90.000000
_cell_volume 6258.644712
_symmetry_space_group_name_H-M "C M M M"
_symmetry_group_IT_number 65
_symmetry_cell_setting 'orthorhombic'
loop_
_space_group_symop_operation_xyz
x,y,z
-x,-y,z
x,-y,-z
-x,y,-z
-x,-y,-z
x,y,-z
-x,y,z
x,-y,z
1/2+x,1/2+y,z
1/2-x,1/2-y,z
1/2+x,1/2-y,-z
1/2-x,1/2+y,-z
1/2-x,1/2-y,-z
1/2+x,1/2+y,-z
1/2-x,1/2+y,z
1/2+x,1/2-y,z
loop_
_atom_site_type_symbol
_atom_site_label
_atom_site_fract_x
_atom_site_fract_y
_atom_site_fract_z
Si Si1 0.357914 0.000000 0.109452
Si Si2 0.916642 0.705304 0.895685
Si Si3 0.295659 0.882638 0.892763
Si Si4 0.000000 0.500000 0.759678
Si Si5 0.000000 0.407866 0.605179
Si Si6 0.766523 0.813988 0.737890
Si Si7 0.869205 0.676217 0.606625
Si Si8 0.582160 0.277184 0.718330
O O1 0.308425 0.053523 0.132613
O O2 0.429336 0.000000 0.173948
O O3 0.382344 0.000000 0.000000
O O4 0.870678 0.650818 0.872158
O O5 0.901384 0.753973 0.822745
O O6 0.000000 0.684405 0.887471
O O7 0.898470 0.728064 0.000000
O O8 0.234039 0.854418 0.827598
O O9 0.269536 0.876499 0.000000
O O10 0.000000 0.551146 0.690769
O O11 0.924582 0.374228 0.616618
O O12 0.000000 0.434540 0.500000
O O13 0.750000 0.750000 0.764514
O O14 0.706739 0.834969 0.662528
O O15 0.850551 0.819503 0.697510
O O16 0.845811 0.687077 0.500000
O O17 0.914339 0.728598 0.643222
O O18 0.500000 0.304392 0.712907
#
# Coordination Sequence:
#
# PCOD8267523 Si02
#       8
#     8  16  16   4   8  16  16  16
#     4  10  23  33  43  68  96 131 166 196 236 280
#     4   9  17  27  42  62  91 123 149 187 226 268
#     4  10  19  32  46  64  93 124 161 194 228 278
#     4  12  22  28  52  66  96 126 164 220 230 246
#     4  10  21  35  49  68  91 129 172 198 232 272
#     4  10  19  31  46  71  91 119 159 196 238 288
#     4  10  19  32  47  62  92 130 161 190 227 280
#     4  10  19  30  47  67  94 117 153 193 238 291
#
# _framework density 15.977900999999999
#
# number of rings (size 3 to 8) (size 9 to 14) (size 15 to 20)
#    0.000    2.080    4.000    1.200    1.120    3.840 
#    0.000    0.000    0.000    0.000    0.000    0.560 
#    0.000    1.920    0.000    0.000    0.000   25.920 
#
# Total GULP energy -619677.844181 kJ/mol
# GULP energy per Si atom -12393.556884 kJ/mol
# Density = 1.594153 g / cm^3
# Si number density = 15.977901 Si / 1000 Ang^3
#
#
#
# Elastic Constant Matrix: (Units=GPa)
#
#
# Indices 1 2 3 4 5 6 
#
# 1 109.5934 26.0482 36.8231 0.0000 0.0000 0.0000
# 2 26.0482 47.5208 34.7104 0.0000 0.0000 0.0000
# 3 36.8231 34.7104 91.1697 0.0000 0.0000 0.0000
# 4 0.0000 0.0000 0.0000 36.4543 0.0000 0.0000
# 5 0.0000 0.0000 0.0000 0.0000 29.9622 0.0000
# 6 0.0000 0.0000 0.0000 0.0000 0.0000 18.0392
#
#
#
# Elastic Compliance Matrix: (Units=1/GPa)
#
#
# Indices 1 2 3 4 5 6 
#
# 1 0.011049 -0.003874 -0.002988 0.000000 0.000000 0.000000
# 2 -0.003874 0.030508 -0.010050 0.000000 0.000000 0.000000
# 3 -0.002988 -0.010050 0.016002 0.000000 0.000000 0.000000
# 4 0.000000 0.000000 0.000000 0.027432 0.000000 0.000000
# 5 0.000000 0.000000 0.000000 0.000000 0.033375 0.000000
# 6 0.000000 0.000000 0.000000 0.000000 0.000000 0.055435
#
#
# Mechanical properties :
#
#
# Convention : Reuss Voigt Hill
#
# Bulk Modulus (GPa) = 42.13296 49.27191 45.70243
# Shear Modulus (GPa) = 23.19787 26.93796 25.06791
#
# Velocity S-wave (km/s) = 3.81448 4.11049 3.96525
# Velocity P-wave (km/s) = 6.76957 7.30976 7.04485
#
# Compressibility (1/GPa) = 0.02373439
#
# Stress axis : x y z
#
# Youngs Moduli (GPa) = 90.50300 32.77824 62.49345
#
# Poissons Ratio (x) = 0.12699 0.18672
# Poissons Ratio (y) = 0.35064 0.62808
# Poissons Ratio (z) = 0.27040 0.32943
#
# Static dielectric constant tensor:
#      x y z
#    x 3.139270 0.000000 0.000000 
#    y 0.000000 2.769190 0.000000 
#    z 0.000000 0.000000 3.266100 
# 
# 
# High freq. dielectric constant tensor:
#      x y z
#    x 1.607390 0.000000 0.000000 
#    y 0.000000 1.568070 0.000000 
#    z 0.000000 0.000000 1.627990 
# 
# From -- ./inp_files/42908.got.cif
#   From: 2010.03.12/outbox.cif.g09.slc.cpg/sg65_22_cif.got.tgz:42908.got - 2010.04.10 20:52:16.
