data_PCOD8267848
_publ_section_title
;
Structure prediction by ZEFSAII (Michael W. Deem and Ramdas Pophale) SiO2 
 PCOD8267848
Probable space group: C M M M
;
_chemical_formula_sum "Si O2"
_cell_formula_units_Z 104
_cell_length_a 23.057473
_cell_length_b 8.846235
_cell_length_c 28.448924
_cell_angle_alpha 90.000000
_cell_angle_beta 90.000000
_cell_angle_gamma 90.000000
_cell_volume 5802.778938
_symmetry_space_group_name_H-M "C M M M"
_symmetry_group_IT_number 65
_symmetry_cell_setting 'orthorhombic'
loop_
_space_group_symop_operation_xyz
x,y,z
-x,-y,z
x,-y,-z
-x,y,-z
-x,-y,-z
x,y,-z
-x,y,z
x,-y,z
1/2+x,1/2+y,z
1/2-x,1/2-y,z
1/2+x,1/2-y,-z
1/2-x,1/2+y,-z
1/2-x,1/2-y,-z
1/2+x,1/2+y,-z
1/2-x,1/2+y,z
1/2+x,1/2-y,z
loop_
_atom_site_type_symbol
_atom_site_label
_atom_site_fract_x
_atom_site_fract_y
_atom_site_fract_z
Si Si1 0.877875 0.320254 0.736444
Si Si2 0.500000 0.820751 0.223358
Si Si3 0.813822 0.820669 0.651930
Si Si4 0.187433 0.178462 0.000000
Si Si5 0.310163 0.323395 0.179677
Si Si6 0.114352 0.824721 0.088911
Si Si7 0.000000 0.321969 0.117333
Si Si8 0.688186 0.323820 0.549540
O O1 0.874181 0.500000 0.734815
O O2 0.860802 0.251757 0.686405
O O3 0.832350 0.259398 0.774061
O O4 0.942734 0.263762 0.749321
O O5 0.500000 0.753463 0.170389
O O6 0.500000 0.000000 0.220566
O O7 0.750000 0.750000 0.659720
O O8 0.840055 0.779319 0.599769
O O9 0.809328 0.000000 0.660371
O O10 0.250000 0.250000 0.000000
O O11 0.153536 0.234574 0.953858
O O12 0.195021 0.000000 0.000000
O O13 0.302108 0.500000 0.190108
O O14 0.250000 0.250000 0.164199
O O15 0.354238 0.292280 0.137783
O O16 0.055232 0.732246 0.088208
O O17 0.099629 0.000000 0.082364
O O18 0.000000 0.500000 0.120095
O O19 0.654350 0.280266 0.500000
O O20 0.699190 0.500000 0.550510
O O21 0.750000 0.250000 0.547407
#
# Coordination Sequence:
#
# PCOD8267848 Si02
#       8
#    16   8  16   8  16  16   8  16
#     4  11  21  36  54  73 100 133 170 213 263 311
#     4   9  20  37  56  76  98 131 172 217 262 304
#     4  10  19  31  47  73 106 138 173 211 256 307
#     4  10  22  41  62  85 115 146 178 216 263 316
#     4  11  22  35  53  78 105 136 173 209 253 307
#     4  10  22  39  59  83 111 143 176 215 263 310
#     4  11  21  38  62  85 108 137 179 222 262 308
#     4   8  14  25  42  64  94 132 170 208 250 299
#
# _framework density 17.922446999999998
#
# number of rings (size 3 to 8) (size 9 to 14) (size 15 to 20)
#    0.000    2.000    1.538    2.538    0.000    2.154 
#    0.000    3.077    0.000    0.000    0.000    0.538 
#    0.000    4.308    0.000    0.000    0.000    0.000 
#
# Total GULP energy -644519.350617 kJ/mol
# GULP energy per Si atom -12394.602896 kJ/mol
# Density = 1.788165 g / cm^3
# Si number density = 17.922447 Si / 1000 Ang^3
#
#
#
# Elastic Constant Matrix: (Units=GPa)
#
#
# Indices 1 2 3 4 5 6 
#
# 1 112.3427 40.9561 51.5302 0.0000 0.0000 0.0000
# 2 40.9561 61.4355 41.4980 0.0000 0.0000 0.0000
# 3 51.5302 41.4980 144.7457 0.0000 0.0000 0.0000
# 4 0.0000 0.0000 0.0000 13.6950 0.0000 0.0000
# 5 0.0000 0.0000 0.0000 0.0000 18.1659 0.0000
# 6 0.0000 0.0000 0.0000 0.0000 0.0000 25.4354
#
#
#
# Elastic Compliance Matrix: (Units=1/GPa)
#
#
# Indices 1 2 3 4 5 6 
#
# 1 0.012475 -0.006594 -0.002551 0.000000 0.000000 0.000000
# 2 -0.006594 0.023671 -0.004439 0.000000 0.000000 0.000000
# 3 -0.002551 -0.004439 0.009089 0.000000 0.000000 0.000000
# 4 0.000000 0.000000 0.000000 0.073019 0.000000 0.000000
# 5 0.000000 0.000000 0.000000 0.000000 0.055048 0.000000
# 6 0.000000 0.000000 0.000000 0.000000 0.000000 0.039315
#
#
# Mechanical properties :
#
#
# Convention : Reuss Voigt Hill
#
# Bulk Modulus (GPa) = 55.34386 65.16585 60.25486
# Shear Modulus (GPa) = 20.34099 23.76188 22.05143
#
# Velocity S-wave (km/s) = 3.37255 3.64513 3.51148
# Velocity P-wave (km/s) = 6.79059 7.35899 7.08050
#
# Compressibility (1/GPa) = 0.01806885
#
# Stress axis : x y z
#
# Youngs Moduli (GPa) = 80.15933 42.24517 110.01723
#
# Poissons Ratio (x) = 0.27854 0.28064
# Poissons Ratio (y) = 0.52853 0.48838
# Poissons Ratio (z) = 0.20448 0.18753
#
# Static dielectric constant tensor:
#      x y z
#    x 3.191850 0.000000 0.000000 
#    y 0.000000 3.293610 0.000000 
#    z 0.000000 0.000000 3.903150 
# 
# 
# High freq. dielectric constant tensor:
#      x y z
#    x 1.668020 0.000000 0.000000 
#    y 0.000000 1.694910 0.000000 
#    z 0.000000 0.000000 1.711930 
# 
# From -- ./inp_files/73421.got.cif
#   From: 2010.03.12/outbox.cif.g09.slc.cpg/sg65_37_cif.got.tgz:73421.got - 2010.04.10 20:52:16.
