data_PCOD8267913
_publ_section_title
;
Structure prediction by ZEFSAII (Michael W. Deem and Ramdas Pophale) SiO2 
 PCOD8267913
Probable space group: C M M M
;
_chemical_formula_sum "Si O2"
_cell_formula_units_Z 96
_cell_length_a 20.775546
_cell_length_b 19.304848
_cell_length_c 14.015423
_cell_angle_alpha 90.000000
_cell_angle_beta 90.000000
_cell_angle_gamma 90.000000
_cell_volume 5621.148291
_symmetry_space_group_name_H-M "C M M M"
_symmetry_group_IT_number 65
_symmetry_cell_setting 'orthorhombic'
loop_
_space_group_symop_operation_xyz
x,y,z
-x,-y,z
x,-y,-z
-x,y,-z
-x,-y,-z
x,y,-z
-x,y,z
x,-y,z
1/2+x,1/2+y,z
1/2-x,1/2-y,z
1/2+x,1/2-y,-z
1/2-x,1/2+y,-z
1/2-x,1/2-y,-z
1/2+x,1/2+y,-z
1/2-x,1/2+y,z
1/2+x,1/2-y,z
loop_
_atom_site_type_symbol
_atom_site_label
_atom_site_fract_x
_atom_site_fract_y
_atom_site_fract_z
Si Si1 0.756587 0.578661 0.292907
Si Si2 0.810042 0.920303 0.894885
Si Si3 0.572588 0.677607 0.104415
Si Si4 0.379472 0.421821 0.388873
Si Si5 0.310352 0.203518 0.388947
Si Si6 0.427839 0.284593 0.692343
O O1 0.783605 0.500000 0.292327
O O2 0.739556 0.605091 0.185846
O O3 0.694945 0.584709 0.360861
O O4 0.810567 0.630444 0.333147
O O5 0.879079 0.885686 0.884750
O O6 0.824491 0.000000 0.875579
O O7 0.779782 0.906792 0.000000
O O8 0.500000 0.648092 0.110865
O O9 0.584080 0.729075 0.194066
O O10 0.583092 0.714326 0.000000
O O11 0.385799 0.403619 0.500000
O O12 0.404335 0.500000 0.367716
O O13 0.421042 0.366714 0.329326
O O14 0.304962 0.187845 0.500000
O O15 0.250000 0.250000 0.354169
O O16 0.377334 0.241310 0.368564
O O17 0.500000 0.261194 0.664055
#
# Coordination Sequence:
#
# PCOD8267913 Si02
#       6
#    16  16  16  16  16  16
#     4  10  19  33  52  74 100 130 166 210 255 298
#     4   9  16  27  45  70 100 131 164 205 250 295
#     4   9  17  29  45  66  96 135 172 201 236 292
#     4  10  19  31  48  71  99 132 167 200 241 297
#     4  11  21  34  53  75  99 132 173 212 250 302
#     4  11  22  35  51  73 104 136 167 209 257 300
#
# _framework density 17.078361000000001
#
# number of rings (size 3 to 8) (size 9 to 14) (size 15 to 20)
#    0.000    2.000    3.333    1.000    0.000    3.000 
#    0.000    5.000    0.000    3.500    0.000    1.167 
#    0.000    0.000    0.000    8.333    0.000    0.000 
#
# Total GULP energy -594942.125942 kJ/mol
# GULP energy per Si atom -12394.627624 kJ/mol
# Density = 1.703949 g / cm^3
# Si number density = 17.078361 Si / 1000 Ang^3
#
#
#
# Elastic Constant Matrix: (Units=GPa)
#
#
# Indices 1 2 3 4 5 6 
#
# 1 65.8875 33.3258 23.7001 0.0000 0.0000 0.0000
# 2 33.3258 65.8622 33.3392 0.0000 0.0000 0.0000
# 3 23.7001 33.3392 100.8969 0.0000 0.0000 0.0000
# 4 0.0000 0.0000 0.0000 21.6634 0.0000 0.0000
# 5 0.0000 0.0000 0.0000 0.0000 22.3594 0.0000
# 6 0.0000 0.0000 0.0000 0.0000 0.0000 19.1723
#
#
#
# Elastic Compliance Matrix: (Units=1/GPa)
#
#
# Indices 1 2 3 4 5 6 
#
# 1 0.020631 -0.009590 -0.001677 0.000000 0.000000 0.000000
# 2 -0.009590 0.022691 -0.005245 0.000000 0.000000 0.000000
# 3 -0.001677 -0.005245 0.012038 0.000000 0.000000 0.000000
# 4 0.000000 0.000000 0.000000 0.046161 0.000000 0.000000
# 5 0.000000 0.000000 0.000000 0.000000 0.044724 0.000000
# 6 0.000000 0.000000 0.000000 0.000000 0.000000 0.052159
#
#
# Mechanical properties :
#
#
# Convention : Reuss Voigt Hill
#
# Bulk Modulus (GPa) = 44.77222 45.93077 45.35149
# Shear Modulus (GPa) = 20.93154 22.12447 21.52800
#
# Velocity S-wave (km/s) = 3.50468 3.60317 3.55426
# Velocity P-wave (km/s) = 6.53067 6.65304 6.59214
#
# Compressibility (1/GPa) = 0.02233528
#
# Stress axis : x y z
#
# Youngs Moduli (GPa) = 48.46957 44.07069 83.06902
#
# Poissons Ratio (x) = 0.42265 0.13933
# Poissons Ratio (y) = 0.46484 0.43570
# Poissons Ratio (z) = 0.08130 0.23115
#
# Static dielectric constant tensor:
#      x y z
#    x 2.860720 0.000000 0.000000 
#    y 0.000000 2.974030 0.000000 
#    z 0.000000 0.000000 3.641040 
# 
# 
# High freq. dielectric constant tensor:
#      x y z
#    x 1.622590 0.000000 0.000000 
#    y 0.000000 1.623240 0.000000 
#    z 0.000000 0.000000 1.686790 
# 
# From -- ./inp_files/44096.got.cif
#   From: 2010.03.12/outbox.cif.g09.slc.cpg/sg65_23_cif.got.tgz:44096.got - 2010.04.10 20:52:16.
