data_PCOD8267382
_publ_section_title
;
Structure prediction by ZEFSAII (Michael W. Deem and Ramdas Pophale) SiO2 
 PCOD8267382
Probable space group: C M M M
;
_chemical_formula_sum "Si O2"
_cell_formula_units_Z 88
_cell_length_a 8.798469
_cell_length_b 18.483216
_cell_length_c 28.824752
_cell_angle_alpha 90.000000
_cell_angle_beta 90.000000
_cell_angle_gamma 90.000000
_cell_volume 4687.596556
_symmetry_space_group_name_H-M "C M M M"
_symmetry_group_IT_number 65
_symmetry_cell_setting 'orthorhombic'
loop_
_space_group_symop_operation_xyz
x,y,z
-x,-y,z
x,-y,-z
-x,y,-z
-x,-y,-z
x,y,-z
-x,y,z
x,-y,z
1/2+x,1/2+y,z
1/2-x,1/2-y,z
1/2+x,1/2-y,-z
1/2-x,1/2+y,-z
1/2-x,1/2-y,-z
1/2+x,1/2+y,-z
1/2-x,1/2+y,z
1/2+x,1/2-y,z
loop_
_atom_site_type_symbol
_atom_site_label
_atom_site_fract_x
_atom_site_fract_y
_atom_site_fract_z
Si Si1 0.319419 0.918982 0.448621
Si Si2 0.180579 0.581233 0.274453
Si Si3 0.818041 0.581309 0.099479
Si Si4 0.680702 0.828342 0.637418
Si Si5 0.166411 0.585849 0.000000
Si Si6 0.319319 0.828473 0.186451
O O1 0.266057 0.893587 0.500000
O O2 0.500000 0.920511 0.446098
O O3 0.255741 0.863943 0.410101
O O4 0.258109 0.000000 0.438560
O O5 0.247757 0.500000 0.274375
O O6 0.238599 0.622477 0.320151
O O7 0.239879 0.623121 0.229119
O O8 0.000000 0.577933 0.274138
O O9 0.761447 0.500000 0.111060
O O10 0.751842 0.607550 0.048832
O O11 0.758198 0.635179 0.139054
O O12 0.000000 0.581391 0.097295
O O13 0.500000 0.822300 0.637038
O O14 0.750000 0.750000 0.643428
O O15 0.148509 0.500000 0.000000
O O16 0.000000 0.622244 0.000000
O O17 0.500000 0.822935 0.186555
O O18 0.250000 0.750000 0.191668
#
# Coordination Sequence:
#
# PCOD8267382 Si02
#       6
#    16  16  16  16   8  16
#     4   8  14  26  45  67  88 113 150 190 218 244
#     4   9  17  30  49  69  85 108 148 189 216 245
#     4   8  13  23  41  63  84 109 144 182 215 247
#     4  10  19  30  46  68  93 118 143 176 219 263
#     4   7  10  18  35  60  85 105 134 181 222 244
#     4  10  19  30  45  65  90 116 141 174 216 260
#
# _framework density 18.772946999999998
#
# number of rings (size 3 to 8) (size 9 to 14) (size 15 to 20)
#    0.000    3.182    0.000    3.273    0.000    4.727 
#    0.000    0.455    0.000    5.455    0.000    1.273 
#    0.000    2.182    0.000    0.000    0.000    0.000 
#
# Total GULP energy -545228.244554 kJ/mol
# GULP energy per Si atom -12391.551013 kJ/mol
# Density = 1.873022 g / cm^3
# Si number density = 18.772947 Si / 1000 Ang^3
#
#
#
# Elastic Constant Matrix: (Units=GPa)
#
#
# Indices 1 2 3 4 5 6 
#
# 1 7.2359 13.8242 15.3910 0.0000 0.0000 0.0000
# 2 13.8242 159.5388 107.1053 0.0000 0.0000 0.0000
# 3 15.3910 107.1053 204.8684 0.0000 0.0000 0.0000
# 4 0.0000 0.0000 0.0000 20.9477 0.0000 0.0000
# 5 0.0000 0.0000 0.0000 0.0000 4.7393 0.0000
# 6 0.0000 0.0000 0.0000 0.0000 0.0000 21.3912
#
#
#
# Elastic Compliance Matrix: (Units=1/GPa)
#
#
# Indices 1 2 3 4 5 6 
#
# 1 0.173694 -0.009692 -0.007982 0.000000 0.000000 0.000000
# 2 -0.009692 0.010199 -0.004604 0.000000 0.000000 0.000000
# 3 -0.007982 -0.004604 0.007888 0.000000 0.000000 0.000000
# 4 0.000000 0.000000 0.000000 0.047738 0.000000 0.000000
# 5 0.000000 0.000000 0.000000 0.000000 0.211002 0.000000
# 6 0.000000 0.000000 0.000000 0.000000 0.000000 0.046748
#
#
# Mechanical properties :
#
#
# Convention : Reuss Voigt Hill
#
# Bulk Modulus (GPa) = 6.79232 71.58710 39.18971
# Shear Modulus (GPa) = 8.46168 25.10380 16.78274
#
# Velocity S-wave (km/s) = 2.12536 3.66079 2.99320
# Velocity P-wave (km/s) = 3.10626 7.48895 5.73294
#
# Compressibility (1/GPa) = 0.14722512
#
# Stress axis : x y z
#
# Youngs Moduli (GPa) = 5.75724 98.05328 126.78077
#
# Poissons Ratio (x) = 0.95035 1.01195
# Poissons Ratio (y) = 0.05580 0.58366
# Poissons Ratio (z) = 0.04595 0.45140
#
# Static dielectric constant tensor:
#      x y z
#    x 2.706780 0.000000 0.000000 
#    y 0.000000 3.417960 0.000000 
#    z 0.000000 0.000000 4.069360 
# 
# 
# High freq. dielectric constant tensor:
#      x y z
#    x 1.649690 0.000000 0.000000 
#    y 0.000000 1.722550 0.000000 
#    z 0.000000 0.000000 1.757250 
# 
# From -- ./inp_files/74230.got.cif
#   From: 2010.03.12/outbox.cif.g09.slc.cpg/sg65_38_cif.got.tgz:74230.got - 2010.04.10 20:52:16.
