data_PCOD8267186
_publ_section_title
;
Structure prediction by ZEFSAII (Michael W. Deem and Ramdas Pophale) SiO2 
 PCOD8267186
Probable space group: C M M M
;
_chemical_formula_sum "Si O2"
_cell_formula_units_Z 80
_cell_length_a 9.231263
_cell_length_b 18.781094
_cell_length_c 25.829638
_cell_angle_alpha 90.000000
_cell_angle_beta 90.000000
_cell_angle_gamma 90.000000
_cell_volume 4478.167463
_symmetry_space_group_name_H-M "C M M M"
_symmetry_group_IT_number 65
_symmetry_cell_setting 'orthorhombic'
loop_
_space_group_symop_operation_xyz
x,y,z
-x,-y,z
x,-y,-z
-x,y,-z
-x,-y,-z
x,y,-z
-x,y,z
x,-y,z
1/2+x,1/2+y,z
1/2-x,1/2-y,z
1/2+x,1/2-y,-z
1/2-x,1/2+y,-z
1/2-x,1/2-y,-z
1/2+x,1/2+y,-z
1/2-x,1/2+y,z
1/2+x,1/2-y,z
loop_
_atom_site_type_symbol
_atom_site_label
_atom_site_fract_x
_atom_site_fract_y
_atom_site_fract_z
Si Si1 0.172024 0.079672 0.208562
Si Si2 0.163360 0.584672 0.500000
Si Si3 0.828189 0.079295 0.906432
Si Si4 0.672884 0.324701 0.000000
Si Si5 0.329032 0.675630 0.301442
Si Si6 0.831882 0.917984 0.400015
O O1 0.221579 0.104137 0.150997
O O2 0.232233 0.135424 0.250497
O O3 0.000000 0.077453 0.212333
O O4 0.231458 0.000000 0.220112
O O5 0.169002 0.500000 0.500000
O O6 0.243230 0.612965 0.551293
O O7 0.000000 0.613909 0.500000
O O8 0.000000 0.076673 0.909200
O O9 0.767667 0.000000 0.917930
O O10 0.769741 0.133567 0.949385
O O11 0.750000 0.250000 0.000000
O O12 0.500000 0.315515 0.000000
O O13 0.500000 0.688628 0.297816
O O14 0.250000 0.750000 0.306934
O O15 0.287732 0.627391 0.350293
O O16 0.000000 0.910103 0.413647
O O17 0.792367 0.000000 0.388303
#
# Coordination Sequence:
#
# PCOD8267186 Si02
#       6
#    16   8  16   8  16  16
#     4   8  14  27  48  71  91 115 154 200 237 269
#     4   9  17  29  48  75 100 119 145 187 236 277
#     4   8  14  26  46  69  90 116 156 202 236 265
#     4  10  19  29  43  67  97 126 156 190 232 280
#     4  10  20  32  47  69  96 124 153 187 230 278
#     4   9  17  31  51  71  91 119 156 193 225 264
#
# _framework density 17.864449
#
# number of rings (size 3 to 8) (size 9 to 14) (size 15 to 20)
#    0.000    3.100    0.000    2.400    0.000    6.400 
#    0.000    0.500    0.000    3.000    0.000    2.800 
#    0.000    0.000    0.000    0.000    0.000    0.000 
#
# Total GULP energy -495838.579402 kJ/mol
# GULP energy per Si atom -12395.964485 kJ/mol
# Density = 1.782379 g / cm^3
# Si number density = 17.864449 Si / 1000 Ang^3
#
#
#
# Elastic Constant Matrix: (Units=GPa)
#
#
# Indices 1 2 3 4 5 6 
#
# 1 34.3414 36.4136 48.2279 0.0000 0.0000 0.0000
# 2 36.4136 119.1292 96.0864 0.0000 0.0000 0.0000
# 3 48.2279 96.0864 184.7481 0.0000 0.0000 0.0000
# 4 0.0000 0.0000 0.0000 9.1823 0.0000 0.0000
# 5 0.0000 0.0000 0.0000 0.0000 11.7419 0.0000
# 6 0.0000 0.0000 0.0000 0.0000 0.0000 25.7555
#
#
#
# Elastic Compliance Matrix: (Units=1/GPa)
#
#
# Indices 1 2 3 4 5 6 
#
# 1 0.050263 -0.008235 -0.008838 0.000000 0.000000 0.000000
# 2 -0.008235 0.015809 -0.006073 0.000000 0.000000 0.000000
# 3 -0.008838 -0.006073 0.010878 0.000000 0.000000 0.000000
# 4 0.000000 0.000000 0.000000 0.108905 0.000000 0.000000
# 5 0.000000 0.000000 0.000000 0.000000 0.085165 0.000000
# 6 0.000000 0.000000 0.000000 0.000000 0.000000 0.038827
#
#
# Mechanical properties :
#
#
# Convention : Reuss Voigt Hill
#
# Bulk Modulus (GPa) = 32.61651 77.74162 55.17907
# Shear Modulus (GPa) = 13.64779 19.83532 16.74155
#
# Velocity S-wave (km/s) = 2.76699 3.33577 3.06460
# Velocity P-wave (km/s) = 5.33907 7.64516 6.59371
#
# Compressibility (1/GPa) = 0.03065932
#
# Stress axis : x y z
#
# Youngs Moduli (GPa) = 19.89525 63.25319 91.92652
#
# Poissons Ratio (x) = 0.52090 0.81245
# Poissons Ratio (y) = 0.16384 0.55824
# Poissons Ratio (z) = 0.17583 0.38411
#
# Static dielectric constant tensor:
#      x y z
#    x 2.871820 0.000000 0.000000 
#    y 0.000000 3.231260 0.000000 
#    z 0.000000 0.000000 3.711250 
# 
# 
# High freq. dielectric constant tensor:
#      x y z
#    x 1.641340 0.000000 0.000000 
#    y 0.000000 1.678220 0.000000 
#    z 0.000000 0.000000 1.711260 
# 
# From -- ./inp_files/70816.got.cif
#   From: 2010.03.12/outbox.cif.g09.slc.cpg/sg65_36_cif.got.tgz:70816.got - 2010.04.10 20:52:16.
