data_PCOD8267009
_publ_section_title
;
Structure prediction by ZEFSAII (Michael W. Deem and Ramdas Pophale) SiO2 
 PCOD8267009
Probable space group: C M M M
;
_chemical_formula_sum "Si O2"
_cell_formula_units_Z 96
_cell_length_a 23.546376
_cell_length_b 9.055448
_cell_length_c 25.389063
_cell_angle_alpha 90.000000
_cell_angle_beta 90.000000
_cell_angle_gamma 90.000000
_cell_volume 5413.531760
_symmetry_space_group_name_H-M "C M M M"
_symmetry_group_IT_number 65
_symmetry_cell_setting 'orthorhombic'
loop_
_space_group_symop_operation_xyz
x,y,z
-x,-y,z
x,-y,-z
-x,y,-z
-x,-y,-z
x,y,-z
-x,y,z
x,-y,z
1/2+x,1/2+y,z
1/2-x,1/2-y,z
1/2+x,1/2-y,-z
1/2-x,1/2+y,-z
1/2-x,1/2-y,-z
1/2+x,1/2+y,-z
1/2-x,1/2+y,z
1/2+x,1/2-y,z
loop_
_atom_site_type_symbol
_atom_site_label
_atom_site_fract_x
_atom_site_fract_y
_atom_site_fract_z
Si Si1 0.000000 0.175010 0.188670
Si Si2 0.391003 0.828399 0.849754
Si Si3 0.500000 0.823855 0.302344
Si Si4 0.308467 0.173775 0.559322
Si Si5 0.192740 0.672480 0.059697
Si Si6 0.618983 0.174968 0.344395
Si Si7 0.190965 0.671757 0.247071
O O1 0.054381 0.225495 0.155387
O O2 0.000000 0.252329 0.245197
O O3 0.000000 0.000000 0.195861
O O4 0.359974 0.781825 0.903772
O O5 0.349192 0.795062 0.801840
O O6 0.409394 0.000000 0.850129
O O7 0.445120 0.768140 0.335024
O O8 0.500000 0.000000 0.294258
O O9 0.326235 0.219052 0.500000
O O10 0.250000 0.250000 0.576143
O O11 0.358243 0.228116 0.598602
O O12 0.298696 0.000000 0.564177
O O13 0.204483 0.500000 0.064456
O O14 0.250000 0.750000 0.079714
O O15 0.177920 0.720184 0.000000
O O16 0.660535 0.237143 0.299145
O O17 0.618451 0.000000 0.340896
O O18 0.203376 0.500000 0.253739
O O19 0.250000 0.750000 0.237263
#
# Coordination Sequence:
#
# PCOD8267009 Si02
#       7
#     8  16   8  16  16  16  16
#     4  12  24  36  53  78 103 130 172 221 262 298
#     4  10  20  36  55  73 101 141 175 203 249 311
#     4  10  18  36  57  69  95 138 174 202 252 316
#     4   9  17  30  48  72 101 131 165 205 249 297
#     4   9  18  33  55  82 109 138 173 211 253 302
#     4   9  17  30  50  72  95 130 171 205 244 300
#     4  10  19  30  47  72  99 129 164 203 249 300
#
# _framework density 17.733339999999998
#
# number of rings (size 3 to 8) (size 9 to 14) (size 15 to 20)
#    0.000    2.333    1.667    1.750    0.000    1.333 
#    0.000    1.667    0.000    5.000    0.000    0.000 
#    0.000    3.333    0.000    0.000    0.000    0.000 
#
# Total GULP energy -595196.562281 kJ/mol
# GULP energy per Si atom -12399.928381 kJ/mol
# Density = 1.769298 g / cm^3
# Si number density = 17.733340 Si / 1000 Ang^3
#
#
#
# Elastic Constant Matrix: (Units=GPa)
#
#
# Indices 1 2 3 4 5 6 
#
# 1 143.1016 48.6551 69.3919 0.0000 0.0000 0.0000
# 2 48.6551 41.1281 31.6630 0.0000 0.0000 0.0000
# 3 69.3919 31.6630 115.5603 0.0000 0.0000 0.0000
# 4 0.0000 0.0000 0.0000 14.6271 0.0000 0.0000
# 5 0.0000 0.0000 0.0000 0.0000 15.4580 0.0000
# 6 0.0000 0.0000 0.0000 0.0000 0.0000 28.5610
#
#
#
# Elastic Compliance Matrix: (Units=1/GPa)
#
#
# Indices 1 2 3 4 5 6 
#
# 1 0.013448 -0.012284 -0.004710 0.000000 0.000000 0.000000
# 2 -0.012284 0.042034 -0.004141 0.000000 0.000000 0.000000
# 3 -0.004710 -0.004141 0.012616 0.000000 0.000000 0.000000
# 4 0.000000 0.000000 0.000000 0.068366 0.000000 0.000000
# 5 0.000000 0.000000 0.000000 0.000000 0.064691 0.000000
# 6 0.000000 0.000000 0.000000 0.000000 0.000000 0.035013
#
#
# Mechanical properties :
#
#
# Convention : Reuss Voigt Hill
#
# Bulk Modulus (GPa) = 38.71517 66.57888 52.64703
# Shear Modulus (GPa) = 17.41868 21.73456 19.57662
#
# Velocity S-wave (km/s) = 3.13750 3.50470 3.32617
# Velocity P-wave (km/s) = 5.91645 7.34869 6.67112
#
# Compressibility (1/GPa) = 0.02582967
#
# Stress axis : x y z
#
# Youngs Moduli (GPa) = 74.35809 23.79021 79.26266
#
# Poissons Ratio (x) = 0.29223 0.37332
# Poissons Ratio (y) = 0.91340 0.32822
# Poissons Ratio (z) = 0.35022 0.09851
#
# Static dielectric constant tensor:
#      x y z
#    x 3.467910 0.000000 0.000000 
#    y 0.000000 3.050360 0.000000 
#    z 0.000000 0.000000 3.526130 
# 
# 
# High freq. dielectric constant tensor:
#      x y z
#    x 1.687590 0.000000 0.000000 
#    y 0.000000 1.659470 0.000000 
#    z 0.000000 0.000000 1.691840 
# 
# From -- ./inp_files/75735.got.cif
#   From: 2010.03.12/outbox.cif.g09.slc.cpg/sg65_38_cif.got.tgz:75735.got - 2010.04.10 20:52:16.
