data_PCOD8267231
_publ_section_title
;
Structure prediction by ZEFSAII (Michael W. Deem and Ramdas Pophale) SiO2 
 PCOD8267231
Probable space group: C M M M
;
_chemical_formula_sum "Si O2"
_cell_formula_units_Z 96
_cell_length_a 20.974853
_cell_length_b 26.398065
_cell_length_c 10.025333
_cell_angle_alpha 90.000000
_cell_angle_beta 90.000000
_cell_angle_gamma 90.000000
_cell_volume 5550.982098
_symmetry_space_group_name_H-M "C M M M"
_symmetry_group_IT_number 65
_symmetry_cell_setting 'orthorhombic'
loop_
_space_group_symop_operation_xyz
x,y,z
-x,-y,z
x,-y,-z
-x,y,-z
-x,-y,-z
x,y,-z
-x,y,z
x,-y,z
1/2+x,1/2+y,z
1/2-x,1/2-y,z
1/2+x,1/2-y,-z
1/2-x,1/2+y,-z
1/2-x,1/2-y,-z
1/2+x,1/2+y,-z
1/2-x,1/2+y,z
1/2+x,1/2-y,z
loop_
_atom_site_type_symbol
_atom_site_label
_atom_site_fract_x
_atom_site_fract_y
_atom_site_fract_z
Si Si1 0.927144 0.000000 0.840957
Si Si2 0.928926 0.793268 0.840842
Si Si3 0.500000 0.944886 0.657709
Si Si4 0.368016 0.396024 0.157380
Si Si5 0.364400 0.940145 0.647930
Si Si6 0.277981 0.113983 0.845164
Si Si7 0.185919 0.273946 0.843545
O O1 0.892223 0.050283 0.782853
O O2 0.000000 0.000000 0.791507
O O3 0.923900 0.000000 0.000000
O O4 0.910490 0.849427 0.788342
O O5 0.877970 0.752211 0.783869
O O6 0.000000 0.779827 0.788381
O O7 0.927777 0.792682 0.000000
O O8 0.500000 0.952025 0.500000
O O9 0.433374 0.916687 0.695820
O O10 0.500000 0.000000 0.728016
O O11 0.295535 0.384227 0.197876
O O12 0.374968 0.398781 0.000000
O O13 0.345828 0.919427 0.500000
O O14 0.310727 0.928160 0.755227
O O15 0.372453 0.000000 0.639999
O O16 0.313652 0.166536 0.813573
O O17 0.284710 0.099031 0.000000
O O18 0.250000 0.250000 0.779429
O O19 0.187314 0.262564 0.000000
#
# Coordination Sequence:
#
# PCOD8267231 Si02
#       7
#     8  16   8  16  16  16  16
#     4   9  16  24  34  54  89 124 153 192 236 273
#     4   9  15  24  40  59  82 119 165 200 227 274
#     4   7  12  28  51  67  81 113 157 191 219 260
#     4   9  16  25  38  59  88 124 157 187 232 281
#     4   9  18  33  52  70  90 120 159 195 228 274
#     4  10  19  29  45  70  98 125 151 188 238 287
#     4   9  15  27  42  59  87 123 158 189 230 282
#
# _framework density 17.294236000000001
#
# number of rings (size 3 to 8) (size 9 to 14) (size 15 to 20)
#    0.000    3.000    1.667    1.500    1.167    2.333 
#    1.500    0.417    0.000    2.000    0.000    0.000 
#    0.000    4.667    0.000    0.000    0.000    0.000 
#
# Total GULP energy -594687.488099 kJ/mol
# GULP energy per Si atom -12389.322669 kJ/mol
# Density = 1.725487 g / cm^3
# Si number density = 17.294236 Si / 1000 Ang^3
#
#
#
# Elastic Constant Matrix: (Units=GPa)
#
#
# Indices 1 2 3 4 5 6 
#
# 1 149.1912 60.1763 25.3956 0.0000 0.0000 0.0000
# 2 60.1763 81.3125 10.5402 0.0000 0.0000 0.0000
# 3 25.3956 10.5402 24.4549 0.0000 0.0000 0.0000
# 4 0.0000 0.0000 0.0000 5.4151 0.0000 0.0000
# 5 0.0000 0.0000 0.0000 0.0000 8.5588 0.0000
# 6 0.0000 0.0000 0.0000 0.0000 0.0000 32.4427
#
#
#
# Elastic Compliance Matrix: (Units=1/GPa)
#
#
# Indices 1 2 3 4 5 6 
#
# 1 0.010959 -0.007028 -0.008352 0.000000 0.000000 0.000000
# 2 -0.007028 0.017533 -0.000258 0.000000 0.000000 0.000000
# 3 -0.008352 -0.000258 0.049676 0.000000 0.000000 0.000000
# 4 0.000000 0.000000 0.000000 0.184670 0.000000 0.000000
# 5 0.000000 0.000000 0.000000 0.000000 0.116839 0.000000
# 6 0.000000 0.000000 0.000000 0.000000 0.000000 0.030824
#
#
# Mechanical properties :
#
#
# Convention : Reuss Voigt Hill
#
# Bulk Modulus (GPa) = 21.32569 49.68697 35.50633
# Shear Modulus (GPa) = 10.93118 19.87308 15.40213
#
# Velocity S-wave (km/s) = 2.51683 3.39354 2.98752
# Velocity P-wave (km/s) = 4.56112 6.64436 5.69874
#
# Compressibility (1/GPa) = 0.04689180
#
# Stress axis : x y z
#
# Youngs Moduli (GPa) = 91.24809 57.03602 20.13048
#
# Poissons Ratio (x) = 0.40084 0.16812
# Poissons Ratio (y) = 0.64128 0.00520
# Poissons Ratio (z) = 0.76207 0.01474
#
# Static dielectric constant tensor:
#      x y z
#    x 3.633320 0.000000 0.000000 
#    y 0.000000 3.217070 0.000000 
#    z 0.000000 0.000000 2.494900 
# 
# 
# High freq. dielectric constant tensor:
#      x y z
#    x 1.688560 0.000000 0.000000 
#    y 0.000000 1.661760 0.000000 
#    z 0.000000 0.000000 1.581190 
# 
# From -- ./inp_files/27399.got.cif
#   From: 2010.03.12/outbox.cif.g09.slc.cpg/sg65_14_cif.got.tgz:27399.got - 2010.04.10 20:52:16.
