data_PCOD8267130
_publ_section_title
;
Structure prediction by ZEFSAII (Michael W. Deem and Ramdas Pophale) SiO2 
 PCOD8267130
Probable space group: C M M M
;
_chemical_formula_sum "Si O2"
_cell_formula_units_Z 72
_cell_length_a 28.438659
_cell_length_b 8.907964
_cell_length_c 18.382885
_cell_angle_alpha 90.000000
_cell_angle_beta 90.000000
_cell_angle_gamma 90.000000
_cell_volume 4656.946378
_symmetry_space_group_name_H-M "C M M M"
_symmetry_group_IT_number 65
_symmetry_cell_setting 'orthorhombic'
loop_
_space_group_symop_operation_xyz
x,y,z
-x,-y,z
x,-y,-z
-x,y,-z
-x,-y,-z
x,y,-z
-x,y,z
x,-y,z
1/2+x,1/2+y,z
1/2-x,1/2-y,z
1/2+x,1/2-y,-z
1/2-x,1/2+y,-z
1/2-x,1/2-y,-z
1/2+x,1/2+y,-z
1/2-x,1/2+y,z
1/2+x,1/2-y,z
loop_
_atom_site_type_symbol
_atom_site_label
_atom_site_fract_x
_atom_site_fract_y
_atom_site_fract_z
Si Si1 0.858657 0.323207 0.360920
Si Si2 0.447229 0.676499 0.417467
Si Si3 0.300662 0.177855 0.500000
Si Si4 0.698739 0.821796 0.220532
Si Si5 0.199304 0.824231 0.921078
O O1 0.863671 0.500000 0.363850
O O2 0.910776 0.254794 0.363220
O O3 0.828300 0.264380 0.429038
O O4 0.833622 0.269823 0.287233
O O5 0.438634 0.732862 0.500000
O O6 0.500000 0.720057 0.392796
O O7 0.439925 0.500000 0.413268
O O8 0.250000 0.250000 0.500000
O O9 0.294996 0.000000 0.500000
O O10 0.750000 0.750000 0.231163
O O11 0.673651 0.757927 0.146719
O O12 0.703583 0.000000 0.216283
O O13 0.250000 0.750000 0.925833
O O14 0.204332 0.000000 0.904029
O O15 0.173837 0.799625 0.000000
#
# Coordination Sequence:
#
# PCOD8267130 Si02
#       5
#    16  16   8  16  16
#     4  10  20  32  45  63  87 115 148 183 218 259
#     4   9  18  32  49  68  86 106 139 182 226 269
#     4  10  20  32  43  58  83 115 152 185 211 246
#     4  10  19  29  42  62  88 118 151 183 216 255
#     4   9  16  26  41  60  82 111 146 180 216 257
#
# _framework density 15.460775
#
# number of rings (size 3 to 8) (size 9 to 14) (size 15 to 20)
#    0.000    2.444    1.111    4.000    0.000    4.444 
#    0.000    1.111    0.000    0.000    0.000    0.000 
#    0.000    0.889    0.000    9.778    0.000    7.111 
#
# Total GULP energy -446189.783438 kJ/mol
# GULP energy per Si atom -12394.160651 kJ/mol
# Density = 1.542559 g / cm^3
# Si number density = 15.460775 Si / 1000 Ang^3
#
#
#
# Elastic Constant Matrix: (Units=GPa)
#
#
# Indices 1 2 3 4 5 6 
#
# 1 87.4557 28.8246 57.3880 0.0000 0.0000 0.0000
# 2 28.8246 51.0059 43.9858 0.0000 0.0000 0.0000
# 3 57.3880 43.9858 149.6454 0.0000 0.0000 0.0000
# 4 0.0000 0.0000 0.0000 25.4492 0.0000 0.0000
# 5 0.0000 0.0000 0.0000 0.0000 8.2041 0.0000
# 6 0.0000 0.0000 0.0000 0.0000 0.0000 24.6239
#
#
#
# Elastic Compliance Matrix: (Units=1/GPa)
#
#
# Indices 1 2 3 4 5 6 
#
# 1 0.016209 -0.005090 -0.004720 0.000000 0.000000 0.000000
# 2 -0.005090 0.027861 -0.006237 0.000000 0.000000 0.000000
# 3 -0.004720 -0.006237 0.010326 0.000000 0.000000 0.000000
# 4 0.000000 0.000000 0.000000 0.039294 0.000000 0.000000
# 5 0.000000 0.000000 0.000000 0.000000 0.121891 0.000000
# 6 0.000000 0.000000 0.000000 0.000000 0.000000 0.040611
#
#
# Mechanical properties :
#
#
# Convention : Reuss Voigt Hill
#
# Bulk Modulus (GPa) = 44.83987 60.94488 52.89238
# Shear Modulus (GPa) = 16.90789 22.18267 19.54528
#
# Velocity S-wave (km/s) = 3.31055 3.79195 3.55939
# Velocity P-wave (km/s) = 6.60895 7.66005 7.15383
#
# Compressibility (1/GPa) = 0.02230158
#
# Stress axis : x y z
#
# Youngs Moduli (GPa) = 61.69338 35.89279 96.84354
#
# Poissons Ratio (x) = 0.18269 0.45711
# Poissons Ratio (y) = 0.31401 0.60404
# Poissons Ratio (z) = 0.29120 0.22387
#
# Static dielectric constant tensor:
#      x y z
#    x 2.725300 0.000000 0.000000 
#    y 0.000000 2.949840 0.000000 
#    z 0.000000 0.000000 3.663250 
# 
# 
# High freq. dielectric constant tensor:
#      x y z
#    x 1.551530 0.000000 0.000000 
#    y 0.000000 1.600300 0.000000 
#    z 0.000000 0.000000 1.596400 
# 
# From -- ./inp_files/57126.got.cif
#   From: 2010.03.12/outbox.cif.g09.slc.cpg/sg65_29_cif.got.tgz:57126.got - 2010.04.10 20:52:16.
