data_PCOD8267406
_publ_section_title
;
Structure prediction by ZEFSAII (Michael W. Deem and Ramdas Pophale) SiO2 
 PCOD8267406
Probable space group: C M M M
;
_chemical_formula_sum "Si O2"
_cell_formula_units_Z 96
_cell_length_a 27.517344
_cell_length_b 16.560797
_cell_length_c 13.716155
_cell_angle_alpha 90.000000
_cell_angle_beta 90.000000
_cell_angle_gamma 90.000000
_cell_volume 6250.577308
_symmetry_space_group_name_H-M "C M M M"
_symmetry_group_IT_number 65
_symmetry_cell_setting 'orthorhombic'
loop_
_space_group_symop_operation_xyz
x,y,z
-x,-y,z
x,-y,-z
-x,y,-z
-x,-y,-z
x,y,-z
-x,y,z
x,-y,z
1/2+x,1/2+y,z
1/2-x,1/2-y,z
1/2+x,1/2-y,-z
1/2-x,1/2+y,-z
1/2-x,1/2-y,-z
1/2+x,1/2+y,-z
1/2-x,1/2+y,z
1/2+x,1/2-y,z
loop_
_atom_site_type_symbol
_atom_site_label
_atom_site_fract_x
_atom_site_fract_y
_atom_site_fract_z
Si Si1 0.554324 0.500000 0.115291
Si Si2 0.889398 0.840121 0.115626
Si Si3 0.289493 0.588901 0.884808
Si Si4 0.443104 0.092189 0.388795
Si Si5 0.817461 0.404570 0.888879
Si Si6 0.500000 0.089746 0.885314
Si Si7 0.408254 0.825727 0.793924
O O1 0.500000 0.500000 0.159776
O O2 0.582520 0.579720 0.149660
O O3 0.552058 0.500000 0.000000
O O4 0.832431 0.849697 0.143378
O O5 0.910977 0.768831 0.181466
O O6 0.896341 0.822753 0.000000
O O7 0.300201 0.500000 0.839955
O O8 0.236461 0.620311 0.850500
O O9 0.287501 0.578644 0.000000
O O10 0.431367 0.115384 0.500000
O O11 0.500000 0.100556 0.366801
O O12 0.414609 0.155633 0.320755
O O13 0.426519 0.000000 0.367705
O O14 0.824858 0.500000 0.880291
O O15 0.856011 0.359117 0.823282
O O16 0.825072 0.375904 0.000000
O O17 0.548796 0.132682 0.852697
O O18 0.500000 0.000000 0.840157
O O19 0.500000 0.086649 0.000000
#
# Coordination Sequence:
#
# PCOD8267406 Si02
#       7
#     8  16  16  16  16   8  16
#     4   9  18  30  44  60  87 129 167 200 233 264
#     4  10  19  30  45  66  95 129 164 196 230 273
#     4   8  14  28  46  61  85 128 170 199 225 258
#     4   9  18  34  53  68  85 116 157 196 235 279
#     4   9  17  28  43  64  94 128 160 189 222 272
#     4  11  22  32  41  58  98 140 152 160 207 283
#     4  12  21  29  44  70  95 119 154 194 233 274
#
# _framework density 15.358582
#
# number of rings (size 3 to 8) (size 9 to 14) (size 15 to 20)
#    0.000    2.333    1.667    4.500    1.167    2.000 
#    0.000    2.500    0.000    0.000    0.000    2.917 
#    0.000    3.333    0.000    0.000    0.000    0.000 
#
# Total GULP energy -595001.680867 kJ/mol
# GULP energy per Si atom -12395.868351 kJ/mol
# Density = 1.532363 g / cm^3
# Si number density = 15.358582 Si / 1000 Ang^3
#
#
#
# Elastic Constant Matrix: (Units=GPa)
#
#
# Indices 1 2 3 4 5 6 
#
# 1 106.4994 58.0673 32.0522 0.0000 0.0000 0.0000
# 2 58.0673 108.5401 45.4653 0.0000 0.0000 0.0000
# 3 32.0522 45.4653 65.3851 0.0000 0.0000 0.0000
# 4 0.0000 0.0000 0.0000 12.1615 0.0000 0.0000
# 5 0.0000 0.0000 0.0000 0.0000 8.8307 0.0000
# 6 0.0000 0.0000 0.0000 0.0000 0.0000 11.2111
#
#
#
# Elastic Compliance Matrix: (Units=1/GPa)
#
#
# Indices 1 2 3 4 5 6 
#
# 1 0.013487 -0.006273 -0.002249 0.000000 0.000000 0.000000
# 2 -0.006273 0.015917 -0.007993 0.000000 0.000000 0.000000
# 3 -0.002249 -0.007993 0.021955 0.000000 0.000000 0.000000
# 4 0.000000 0.000000 0.000000 0.082227 0.000000 0.000000
# 5 0.000000 0.000000 0.000000 0.000000 0.113241 0.000000
# 6 0.000000 0.000000 0.000000 0.000000 0.000000 0.089198
#
#
# Mechanical properties :
#
#
# Convention : Reuss Voigt Hill
#
# Bulk Modulus (GPa) = 54.56154 61.28824 57.92489
# Shear Modulus (GPa) = 13.32749 16.09665 14.71207
#
# Velocity S-wave (km/s) = 2.94896 3.24088 3.09836
# Velocity P-wave (km/s) = 6.87004 7.34819 7.11313
#
# Compressibility (1/GPa) = 0.01832793
#
# Stress axis : x y z
#
# Youngs Moduli (GPa) = 74.14521 62.82485 45.54874
#
# Poissons Ratio (x) = 0.39411 0.10246
# Poissons Ratio (y) = 0.46512 0.36407
# Poissons Ratio (z) = 0.16679 0.50215
#
# Static dielectric constant tensor:
#      x y z
#    x 3.255310 0.000000 0.000000 
#    y 0.000000 2.959780 0.000000 
#    z 0.000000 0.000000 2.597750 
# 
# 
# High freq. dielectric constant tensor:
#      x y z
#    x 1.600820 0.000000 0.000000 
#    y 0.000000 1.586170 0.000000 
#    z 0.000000 0.000000 1.529810 
# 
# From -- ./inp_files/46981.got.cif
#   From: 2010.03.12/outbox.cif.g09.slc.cpg/sg65_24_cif.got.tgz:46981.got - 2010.04.10 20:52:16.
