data_PCOD8267677
_publ_section_title
;
Structure prediction by ZEFSAII (Michael W. Deem and Ramdas Pophale) SiO2 
 PCOD8267677
Probable space group: C M M M
;
_chemical_formula_sum "Si O2"
_cell_formula_units_Z 88
_cell_length_a 25.233962
_cell_length_b 27.576378
_cell_length_c 9.045828
_cell_angle_alpha 90.000000
_cell_angle_beta 90.000000
_cell_angle_gamma 90.000000
_cell_volume 6294.641401
_symmetry_space_group_name_H-M "C M M M"
_symmetry_group_IT_number 65
_symmetry_cell_setting 'orthorhombic'
loop_
_space_group_symop_operation_xyz
x,y,z
-x,-y,z
x,-y,-z
-x,y,-z
-x,-y,-z
x,y,-z
-x,y,z
x,-y,z
1/2+x,1/2+y,z
1/2-x,1/2-y,z
1/2+x,1/2-y,-z
1/2-x,1/2+y,-z
1/2-x,1/2-y,-z
1/2+x,1/2+y,-z
1/2-x,1/2+y,z
1/2+x,1/2-y,z
loop_
_atom_site_type_symbol
_atom_site_label
_atom_site_fract_x
_atom_site_fract_y
_atom_site_fract_z
Si Si1 0.739970 0.860342 0.166201
Si Si2 0.000000 0.057041 0.828035
Si Si3 0.289409 0.444669 0.328038
Si Si4 0.647133 0.691145 0.832780
Si Si5 0.306524 0.224054 0.333023
Si Si6 0.099771 0.895607 0.673572
O O1 0.746383 0.913024 0.239955
O O2 0.795729 0.833333 0.167952
O O3 0.697445 0.828552 0.256502
O O4 0.718914 0.866936 0.000000
O O5 0.051398 0.078634 0.751856
O O6 0.000000 0.000000 0.802559
O O7 0.000000 0.070816 0.000000
O O8 0.277402 0.437808 0.500000
O O9 0.283056 0.500000 0.276935
O O10 0.348860 0.427939 0.291640
O O11 0.650887 0.743671 0.755814
O O12 0.606470 0.658155 0.740440
O O13 0.626256 0.697468 0.000000
O O14 0.326827 0.217141 0.500000
O O15 0.250000 0.250000 0.331760
O O16 0.088889 0.891021 0.500000
#
# Coordination Sequence:
#
# PCOD8267677 Si02
#       6
#    16   8  16  16  16  16
#     4   9  16  24  35  52  72  93 116 143 176 213
#     4  11  23  35  45  57  73  93 119 155 198 237
#     4   9  17  28  40  53  70  93 121 153 187 222
#     4   9  16  26  39  55  74  92 111 140 179 220
#     4   9  15  23  36  53  72  93 115 139 170 210
#     4  10  19  31  45  58  71  90 119 153 190 232
#
# _framework density 13.980145
#
# number of rings (size 3 to 8) (size 9 to 14) (size 15 to 20)
#    0.000    2.636    0.000    3.000    0.000    9.091 
#    0.000    0.000    0.000    0.000    0.000    0.000 
#    0.000    0.000    0.000    0.000    0.000    0.000 
#
# Total GULP energy -545577.033396 kJ/mol
# GULP energy per Si atom -12399.478032 kJ/mol
# Density = 1.394833 g / cm^3
# Si number density = 13.980145 Si / 1000 Ang^3
#
#
#
# Elastic Constant Matrix: (Units=GPa)
#
#
# Indices 1 2 3 4 5 6 
#
# 1 23.1496 38.0745 33.4586 0.0000 0.0000 0.0000
# 2 38.0745 117.2639 72.4535 0.0000 0.0000 0.0000
# 3 33.4586 72.4535 121.6104 0.0000 0.0000 0.0000
# 4 0.0000 0.0000 0.0000 27.3756 0.0000 0.0000
# 5 0.0000 0.0000 0.0000 0.0000 15.0260 0.0000
# 6 0.0000 0.0000 0.0000 0.0000 0.0000 15.5099
#
#
#
# Elastic Compliance Matrix: (Units=1/GPa)
#
#
# Indices 1 2 3 4 5 6 
#
# 1 0.105230 -0.025762 -0.013603 0.000000 0.000000 0.000000
# 2 -0.025762 0.019803 -0.004710 0.000000 0.000000 0.000000
# 3 -0.013603 -0.004710 0.014772 0.000000 0.000000 0.000000
# 4 0.000000 0.000000 0.000000 0.036529 0.000000 0.000000
# 5 0.000000 0.000000 0.000000 0.000000 0.066552 0.000000
# 6 0.000000 0.000000 0.000000 0.000000 0.000000 0.064475
#
#
# Mechanical properties :
#
#
# Convention : Reuss Voigt Hill
#
# Bulk Modulus (GPa) = 19.35982 61.11079 40.23531
# Shear Modulus (GPa) = 12.11448 19.45144 15.78296
#
# Velocity S-wave (km/s) = 2.94691 3.73414 3.36364
# Velocity P-wave (km/s) = 5.04551 7.89932 6.62784
#
# Compressibility (1/GPa) = 0.05165336
#
# Stress axis : x y z
#
# Youngs Moduli (GPa) = 9.50300 50.49773 67.69617
#
# Poissons Ratio (x) = 1.30094 0.92088
# Poissons Ratio (y) = 0.24482 0.31887
# Poissons Ratio (z) = 0.12927 0.23786
#
# Static dielectric constant tensor:
#      x y z
#    x 2.337690 0.000000 0.000000 
#    y 0.000000 2.850140 0.000000 
#    z 0.000000 0.000000 2.975530 
# 
# 
# High freq. dielectric constant tensor:
#      x y z
#    x 1.464090 0.000000 0.000000 
#    y 0.000000 1.530590 0.000000 
#    z 0.000000 0.000000 1.555040 
# 
# From -- ./inp_files/12176.got.cif
#   From: 2010.03.12/outbox.cif.g09.slc.cpg/sg65_7_cif.got.tgz:12176.got - 2010.04.10 20:52:16.
