data_PCOD8267558
_publ_section_title
;
Structure prediction by ZEFSAII (Michael W. Deem and Ramdas Pophale) SiO2 
 PCOD8267558
Probable space group: C M M M
;
_chemical_formula_sum "Si O2"
_cell_formula_units_Z 104
_cell_length_a 8.445202
_cell_length_b 30.889642
_cell_length_c 23.631876
_cell_angle_alpha 90.000000
_cell_angle_beta 90.000000
_cell_angle_gamma 90.000000
_cell_volume 6164.830156
_symmetry_space_group_name_H-M "C M M M"
_symmetry_group_IT_number 65
_symmetry_cell_setting 'orthorhombic'
loop_
_space_group_symop_operation_xyz
x,y,z
-x,-y,z
x,-y,-z
-x,y,-z
-x,-y,-z
x,y,-z
-x,y,z
x,-y,z
1/2+x,1/2+y,z
1/2-x,1/2-y,z
1/2+x,1/2-y,-z
1/2-x,1/2+y,-z
1/2-x,1/2-y,-z
1/2+x,1/2+y,-z
1/2-x,1/2+y,z
1/2+x,1/2-y,z
loop_
_atom_site_type_symbol
_atom_site_label
_atom_site_fract_x
_atom_site_fract_y
_atom_site_fract_z
Si Si1 0.816413 0.049828 0.436012
Si Si2 0.815431 0.206183 0.223982
Si Si3 0.184641 0.206346 0.353485
Si Si4 0.816685 0.449235 0.868566
Si Si5 0.683892 0.118316 0.353038
Si Si6 0.317116 0.118177 0.226983
Si Si7 0.000000 0.948863 0.063200
O O1 0.763139 0.060612 0.500000
O O2 0.717174 0.077669 0.392339
O O3 0.000000 0.060573 0.428202
O O4 0.781537 0.000000 0.422299
O O5 0.750000 0.250000 0.193971
O O6 0.754782 0.205702 0.288731
O O7 0.756199 0.161035 0.196660
O O8 0.000000 0.207955 0.218382
O O9 0.250000 0.250000 0.383506
O O10 0.246136 0.161979 0.381822
O O11 0.000000 0.207479 0.358869
O O12 0.803118 0.500000 0.855733
O O13 0.784895 0.424219 0.810221
O O14 0.669296 0.434289 0.908767
O O15 0.000000 0.439310 0.891116
O O16 0.500000 0.124976 0.347751
O O17 0.756516 0.110329 0.289873
O O18 0.500000 0.127909 0.232577
O O19 0.000000 0.000000 0.061307
O O20 0.000000 0.929248 0.000000
#
# Coordination Sequence:
#
# PCOD8267558 Si02
#       7
#    16  16  16  16  16  16   8
#     4   9  19  36  53  67  87 116 152 197 242 280
#     4   9  16  25  40  61  88 123 158 192 230 274
#     4   9  16  27  43  64  91 121 154 187 225 276
#     4   9  18  32  48  68  99 136 165 198 246 288
#     4  10  19  30  47  71  95 121 156 192 234 286
#     4   9  18  30  44  65  97 131 157 190 234 286
#     4   9  18  32  50  72  96 126 169 211 241 281
#
# _framework density 16.869890000000002
#
# number of rings (size 3 to 8) (size 9 to 14) (size 15 to 20)
#    0.000    2.846    0.000    1.846    1.077    5.846 
#    0.000    3.846    0.000    0.462    0.000    0.000 
#    0.000    0.615    0.308    0.000    0.000    0.000 
#
# Total GULP energy -644241.941297 kJ/mol
# GULP energy per Si atom -12389.268102 kJ/mol
# Density = 1.683149 g / cm^3
# Si number density = 16.869890 Si / 1000 Ang^3
#
#
#
# Elastic Constant Matrix: (Units=GPa)
#
#
# Indices 1 2 3 4 5 6 
#
# 1 71.0689 39.7420 33.5242 0.0000 0.0000 0.0000
# 2 39.7420 93.8993 40.7546 0.0000 0.0000 0.0000
# 3 33.5242 40.7546 58.0712 0.0000 0.0000 0.0000
# 4 0.0000 0.0000 0.0000 2.0659 0.0000 0.0000
# 5 0.0000 0.0000 0.0000 0.0000 20.5098 0.0000
# 6 0.0000 0.0000 0.0000 0.0000 0.0000 31.2852
#
#
#
# Elastic Compliance Matrix: (Units=1/GPa)
#
#
# Indices 1 2 3 4 5 6 
#
# 1 0.020969 -0.005207 -0.008451 0.000000 0.000000 0.000000
# 2 -0.005207 0.016608 -0.008649 0.000000 0.000000 0.000000
# 3 -0.008451 -0.008649 0.028169 0.000000 0.000000 0.000000
# 4 0.000000 0.000000 0.000000 0.484048 0.000000 0.000000
# 5 0.000000 0.000000 0.000000 0.000000 0.048757 0.000000
# 6 0.000000 0.000000 0.000000 0.000000 0.000000 0.031964
#
#
# Mechanical properties :
#
#
# Convention : Reuss Voigt Hill
#
# Bulk Modulus (GPa) = 47.32369 50.12011 48.72190
# Shear Modulus (GPa) = 7.32951 18.04008 12.68480
#
# Velocity S-wave (km/s) = 2.08666 3.27366 2.74509
# Velocity P-wave (km/s) = 5.82397 6.63803 6.24428
#
# Compressibility (1/GPa) = 0.02113107
#
# Stress axis : x y z
#
# Youngs Moduli (GPa) = 47.68912 60.21372 35.49991
#
# Poissons Ratio (x) = 0.31353 0.30001
# Poissons Ratio (y) = 0.24832 0.30705
# Poissons Ratio (z) = 0.40303 0.52080
#
# Static dielectric constant tensor:
#      x y z
#    x 3.266540 0.000000 0.000000 
#    y 0.000000 3.192130 0.000000 
#    z 0.000000 0.000000 2.899080 
# 
# 
# High freq. dielectric constant tensor:
#      x y z
#    x 1.663720 0.000000 0.000000 
#    y 0.000000 1.657070 0.000000 
#    z 0.000000 0.000000 1.590430 
# 
# From -- ./inp_files/66420.got.cif
#   From: 2010.03.12/outbox.cif.g09.slc.cpg/sg65_34_cif.got.tgz:66420.got - 2010.04.10 20:52:16.
