data_PCOD8267728
_publ_section_title
;
Structure prediction by ZEFSAII (Michael W. Deem and Ramdas Pophale) SiO2 
 PCOD8267728
Probable space group: C M M M
;
_chemical_formula_sum "Si O2"
_cell_formula_units_Z 80
_cell_length_a 8.781485
_cell_length_b 23.769743
_cell_length_c 20.528776
_cell_angle_alpha 90.000000
_cell_angle_beta 90.000000
_cell_angle_gamma 90.000000
_cell_volume 4285.046172
_symmetry_space_group_name_H-M "C M M M"
_symmetry_group_IT_number 65
_symmetry_cell_setting 'orthorhombic'
loop_
_space_group_symop_operation_xyz
x,y,z
-x,-y,z
x,-y,-z
-x,y,-z
-x,-y,-z
x,y,-z
-x,y,z
x,-y,z
1/2+x,1/2+y,z
1/2-x,1/2-y,z
1/2+x,1/2-y,-z
1/2-x,1/2+y,-z
1/2-x,1/2-y,-z
1/2+x,1/2+y,-z
1/2-x,1/2+y,z
1/2+x,1/2-y,z
loop_
_atom_site_type_symbol
_atom_site_label
_atom_site_fract_x
_atom_site_fract_y
_atom_site_fract_z
Si Si1 0.318817 0.689042 0.500000
Si Si2 0.181535 0.065295 0.000000
Si Si3 0.318873 0.500000 0.646289
Si Si4 0.318888 0.622519 0.625110
Si Si5 0.819211 0.188855 0.246937
Si Si6 0.680890 0.391904 0.863766
Si Si7 0.681679 0.500000 0.791216
O O1 0.500000 0.692066 0.500000
O O2 0.250000 0.750000 0.500000
O O3 0.256345 0.657795 0.564212
O O4 0.240703 0.101947 0.938063
O O5 0.000000 0.061968 0.000000
O O6 0.241688 0.000000 0.000000
O O7 0.500000 0.500000 0.645397
O O8 0.259087 0.558221 0.614372
O O9 0.254912 0.500000 0.718959
O O10 0.500000 0.622394 0.625829
O O11 0.261431 0.649503 0.693313
O O12 0.750000 0.250000 0.255367
O O13 0.764262 0.162952 0.177041
O O14 0.000000 0.193655 0.249088
O O15 0.500000 0.393005 0.863578
O O16 0.747350 0.445616 0.826700
O O17 0.500000 0.500000 0.792335
#
# Coordination Sequence:
#
# PCOD8267728 Si02
#       7
#     8   8   8  16  16  16   8
#     4  10  20  33  47  67  93 122 155 186 216 256
#     4   9  14  20  35  62  93 115 135 176 231 272
#     4   9  14  23  41  67  94 114 135 179 238 275
#     4   9  17  28  45  68  93 117 145 184 228 269
#     4  10  19  31  46  65  89 120 154 183 214 258
#     4   9  15  23  38  62  90 116 143 179 224 268
#     4   9  12  19  37  61  89 114 136 174 229 274
#
# _framework density 18.669578000000001
#
# number of rings (size 3 to 8) (size 9 to 14) (size 15 to 20)
#    0.000    2.700    3.000    0.600    0.000    0.400 
#    0.000    2.500    0.000    0.000    0.000    5.600 
#    0.000    0.800    0.000    0.000    0.000    0.000 
#
# Total GULP energy -495528.084630 kJ/mol
# GULP energy per Si atom -12388.202116 kJ/mol
# Density = 1.862708 g / cm^3
# Si number density = 18.669578 Si / 1000 Ang^3
#
#
#
# Elastic Constant Matrix: (Units=GPa)
#
#
# Indices 1 2 3 4 5 6 
#
# 1 5.1473 11.5606 10.9601 0.0000 0.0000 0.0000
# 2 11.5606 172.5736 85.0517 0.0000 0.0000 0.0000
# 3 10.9601 85.0517 160.6604 0.0000 0.0000 0.0000
# 4 0.0000 0.0000 0.0000 35.3786 0.0000 0.0000
# 5 0.0000 0.0000 0.0000 0.0000 6.3706 0.0000
# 6 0.0000 0.0000 0.0000 0.0000 0.0000 18.6525
#
#
#
# Elastic Compliance Matrix: (Units=1/GPa)
#
#
# Indices 1 2 3 4 5 6 
#
# 1 0.241569 -0.010906 -0.010706 0.000000 0.000000 0.000000
# 2 -0.010906 0.008333 -0.003667 0.000000 0.000000 0.000000
# 3 -0.010706 -0.003667 0.008896 0.000000 0.000000 0.000000
# 4 0.000000 0.000000 0.000000 0.028266 0.000000 0.000000
# 5 0.000000 0.000000 0.000000 0.000000 0.156971 0.000000
# 6 0.000000 0.000000 0.000000 0.000000 0.000000 0.053612
#
#
# Mechanical properties :
#
#
# Convention : Reuss Voigt Hill
#
# Bulk Modulus (GPa) = 4.80217 61.50291 33.15254
# Shear Modulus (GPa) = 8.09561 27.46760 17.78161
#
# Velocity S-wave (km/s) = 2.08463 3.83985 3.08951
# Velocity P-wave (km/s) = 2.89344 7.25766 5.52474
#
# Compressibility (1/GPa) = 0.20823916
#
# Stress axis : x y z
#
# Youngs Moduli (GPa) = 4.13960 120.01110 112.40998
#
# Poissons Ratio (x) = 1.30887 1.20346
# Poissons Ratio (y) = 0.04515 0.41222
# Poissons Ratio (z) = 0.04432 0.44010
#
# Static dielectric constant tensor:
#      x y z
#    x 2.642320 0.000000 0.000000 
#    y 0.000000 3.639210 0.000000 
#    z 0.000000 0.000000 3.867070 
# 
# 
# High freq. dielectric constant tensor:
#      x y z
#    x 1.638680 0.000000 0.000000 
#    y 0.000000 1.732090 0.000000 
#    z 0.000000 0.000000 1.736670 
# 
# From -- ./inp_files/61420.got.cif
#   From: 2010.03.12/outbox.cif.g09.slc.cpg/sg65_31_cif.got.tgz:61420.got - 2010.04.10 20:52:16.
