data_PCOD8267872
_publ_section_title
;
Structure prediction by ZEFSAII (Michael W. Deem and Ramdas Pophale) SiO2 
 PCOD8267872
Probable space group: C M M M
;
_chemical_formula_sum "Si O2"
_cell_formula_units_Z 88
_cell_length_a 27.381199
_cell_length_b 8.914396
_cell_length_c 21.536764
_cell_angle_alpha 90.000000
_cell_angle_beta 90.000000
_cell_angle_gamma 90.000000
_cell_volume 5256.840902
_symmetry_space_group_name_H-M "C M M M"
_symmetry_group_IT_number 65
_symmetry_cell_setting 'orthorhombic'
loop_
_space_group_symop_operation_xyz
x,y,z
-x,-y,z
x,-y,-z
-x,y,-z
-x,-y,-z
x,y,-z
-x,y,z
x,-y,z
1/2+x,1/2+y,z
1/2-x,1/2-y,z
1/2+x,1/2-y,-z
1/2-x,1/2+y,-z
1/2-x,1/2-y,-z
1/2+x,1/2+y,-z
1/2-x,1/2+y,z
1/2+x,1/2-y,z
loop_
_atom_site_type_symbol
_atom_site_label
_atom_site_fract_x
_atom_site_fract_y
_atom_site_fract_z
Si Si1 0.646531 0.176366 0.067808
Si Si2 0.608560 0.676574 0.748542
Si Si3 0.301265 0.178466 0.809920
Si Si4 0.944913 0.326396 0.856354
Si Si5 0.058039 0.330857 0.500000
Si Si6 0.555472 0.323956 0.376442
O O1 0.683673 0.235142 0.120740
O O2 0.591090 0.217226 0.087261
O O3 0.652548 0.000000 0.062265
O O4 0.657589 0.249836 0.000000
O O5 0.617783 0.500000 0.754438
O O6 0.658795 0.764413 0.760901
O O7 0.566860 0.725028 0.796951
O O8 0.589697 0.722736 0.680703
O O9 0.250000 0.250000 0.791594
O O10 0.298300 0.000000 0.806385
O O11 0.936853 0.500000 0.837502
O O12 0.000000 0.295369 0.878558
O O13 0.077140 0.500000 0.500000
O O14 0.078044 0.251384 0.561991
O O15 0.000000 0.319360 0.500000
O O16 0.500000 0.268474 0.363517
O O17 0.555850 0.500000 0.387231
#
# Coordination Sequence:
#
# PCOD8267872 Si02
#       6
#    16  16  16  16   8  16
#     4   8  15  28  45  66  91 118 150 187 228 278
#     4  10  19  31  48  69  92 121 157 194 232 274
#     4  10  20  34  51  70  91 115 146 189 239 286
#     4   9  17  28  43  65  93 124 156 191 230 271
#     4   9  17  27  41  65  96 129 162 193 223 255
#     4   9  17  29  45  66  95 130 162 189 220 261
#
# _framework density 16.740092000000001
#
# number of rings (size 3 to 8) (size 9 to 14) (size 15 to 20)
#    0.000    2.818    0.000    3.000    0.000    4.364 
#    0.000    3.636    0.000   13.091    0.000    5.727 
#    0.000    0.000    0.000    0.000    0.000    0.000 
#
# Total GULP energy -545459.890847 kJ/mol
# GULP energy per Si atom -12396.815701 kJ/mol
# Density = 1.670199 g / cm^3
# Si number density = 16.740092 Si / 1000 Ang^3
#
#
#
# Elastic Constant Matrix: (Units=GPa)
#
#
# Indices 1 2 3 4 5 6 
#
# 1 93.7151 30.3730 41.8153 0.0000 0.0000 0.0000
# 2 30.3730 50.8591 40.8377 0.0000 0.0000 0.0000
# 3 41.8153 40.8377 130.1123 0.0000 0.0000 0.0000
# 4 0.0000 0.0000 0.0000 22.5955 0.0000 0.0000
# 5 0.0000 0.0000 0.0000 0.0000 14.2857 0.0000
# 6 0.0000 0.0000 0.0000 0.0000 0.0000 22.3057
#
#
#
# Elastic Compliance Matrix: (Units=1/GPa)
#
#
# Indices 1 2 3 4 5 6 
#
# 1 0.013802 -0.006258 -0.002471 0.000000 0.000000 0.000000
# 2 -0.006258 0.029124 -0.007130 0.000000 0.000000 0.000000
# 3 -0.002471 -0.007130 0.010718 0.000000 0.000000 0.000000
# 4 0.000000 0.000000 0.000000 0.044257 0.000000 0.000000
# 5 0.000000 0.000000 0.000000 0.000000 0.070000 0.000000
# 6 0.000000 0.000000 0.000000 0.000000 0.000000 0.044832
#
#
# Mechanical properties :
#
#
# Convention : Reuss Voigt Hill
#
# Bulk Modulus (GPa) = 45.60949 55.63762 50.62355
# Shear Modulus (GPa) = 19.86026 22.61474 21.23750
#
# Velocity S-wave (km/s) = 3.44814 3.67949 3.56569
# Velocity P-wave (km/s) = 6.56945 7.16658 6.87450
#
# Compressibility (1/GPa) = 0.02192526
#
# Stress axis : x y z
#
# Youngs Moduli (GPa) = 72.45569 34.33540 93.30291
#
# Poissons Ratio (x) = 0.21487 0.23059
# Poissons Ratio (y) = 0.45342 0.66525
# Poissons Ratio (z) = 0.17907 0.24481
#
# Static dielectric constant tensor:
#      x y z
#    x 3.013580 0.000000 0.000000 
#    y 0.000000 3.020920 0.000000 
#    z 0.000000 0.000000 3.296500 
# 
# 
# High freq. dielectric constant tensor:
#      x y z
#    x 1.624060 0.000000 0.000000 
#    y 0.000000 1.635560 0.000000 
#    z 0.000000 0.000000 1.640360 
# 
# From -- ./inp_files/60295.got.cif
#   From: 2010.03.12/outbox.cif.g09.slc.cpg/sg65_31_cif.got.tgz:60295.got - 2010.04.10 20:52:16.
