data_PCOD8267722
_publ_section_title
;
Structure prediction by ZEFSAII (Michael W. Deem and Ramdas Pophale) SiO2 
 PCOD8267722
Probable space group: C M M M
;
_chemical_formula_sum "Si O2"
_cell_formula_units_Z 72
_cell_length_a 8.494375
_cell_length_b 20.152047
_cell_length_c 23.164217
_cell_angle_alpha 90.000000
_cell_angle_beta 90.000000
_cell_angle_gamma 90.000000
_cell_volume 3965.228527
_symmetry_space_group_name_H-M "C M M M"
_symmetry_group_IT_number 65
_symmetry_cell_setting 'orthorhombic'
loop_
_space_group_symop_operation_xyz
x,y,z
-x,-y,z
x,-y,-z
-x,y,-z
-x,-y,-z
x,y,-z
-x,y,z
x,-y,z
1/2+x,1/2+y,z
1/2-x,1/2-y,z
1/2+x,1/2-y,-z
1/2-x,1/2+y,-z
1/2-x,1/2-y,-z
1/2+x,1/2+y,-z
1/2-x,1/2+y,z
1/2+x,1/2-y,z
loop_
_atom_site_type_symbol
_atom_site_label
_atom_site_fract_x
_atom_site_fract_y
_atom_site_fract_z
Si Si1 0.186878 0.821806 0.281698
Si Si2 0.328361 0.578493 0.500000
Si Si3 0.688445 0.574493 0.623990
Si Si4 0.312976 0.821805 0.157108
Si Si5 0.687117 0.925964 0.064316
O O1 0.250000 0.750000 0.300064
O O2 0.251457 0.875134 0.327708
O O3 0.250937 0.843562 0.219543
O O4 0.000000 0.819806 0.279538
O O5 0.350413 0.500000 0.500000
O O6 0.500000 0.612893 0.500000
O O7 0.242709 0.597473 0.439273
O O8 0.500000 0.575455 0.620833
O O9 0.746651 0.500000 0.639427
O O10 0.500000 0.820185 0.158340
O O11 0.250000 0.750000 0.139110
O O12 0.245020 0.874051 0.110641
O O13 0.500000 0.924656 0.065822
O O14 0.747143 0.000000 0.080015
O O15 0.745913 0.906399 0.000000
#
# Coordination Sequence:
#
# PCOD8267722 Si02
#       5
#    16   8  16  16  16
#     4  10  19  31  46  64  91 122 149 181 221 264
#     4   7  10  20  39  62  87 111 140 181 222 260
#     4   8  14  25  43  66  88 113 147 185 223 261
#     4  10  19  31  48  68  90 118 151 184 219 260
#     4   8  15  29  48  69  92 117 146 181 220 262
#
# _framework density 18.157844000000001
#
# number of rings (size 3 to 8) (size 9 to 14) (size 15 to 20)
#    0.000    3.222    0.000    4.667    0.000    1.333 
#    0.000    0.556    0.000    6.000    0.000    8.556 
#    0.000   10.667    0.000    0.000    0.000    0.000 
#
# Total GULP energy -446057.457946 kJ/mol
# GULP energy per Si atom -12390.484943 kJ/mol
# Density = 1.811652 g / cm^3
# Si number density = 18.157844 Si / 1000 Ang^3
#
#
#
# Elastic Constant Matrix: (Units=GPa)
#
#
# Indices 1 2 3 4 5 6 
#
# 1 36.8539 18.0891 21.9325 0.0000 0.0000 0.0000
# 2 18.0891 132.0544 126.2880 0.0000 0.0000 0.0000
# 3 21.9325 126.2880 185.0836 0.0000 0.0000 0.0000
# 4 0.0000 0.0000 0.0000 32.7973 0.0000 0.0000
# 5 0.0000 0.0000 0.0000 0.0000 12.7388 0.0000
# 6 0.0000 0.0000 0.0000 0.0000 0.0000 14.5670
#
#
#
# Elastic Compliance Matrix: (Units=1/GPa)
#
#
# Indices 1 2 3 4 5 6 
#
# 1 0.029375 -0.002000 -0.002116 0.000000 0.000000 0.000000
# 2 -0.002000 0.021930 -0.014727 0.000000 0.000000 0.000000
# 3 -0.002116 -0.014727 0.015702 0.000000 0.000000 0.000000
# 4 0.000000 0.000000 0.000000 0.030490 0.000000 0.000000
# 5 0.000000 0.000000 0.000000 0.000000 0.078500 0.000000
# 6 0.000000 0.000000 0.000000 0.000000 0.000000 0.068648
#
#
# Mechanical properties :
#
#
# Convention : Reuss Voigt Hill
#
# Bulk Modulus (GPa) = 34.10432 76.29011 55.19721
# Shear Modulus (GPa) = 17.11708 24.53279 20.82493
#
# Velocity S-wave (km/s) = 3.07364 3.67970 3.39024
# Velocity P-wave (km/s) = 5.60529 7.75627 6.76680
#
# Compressibility (1/GPa) = 0.02932180
#
# Stress axis : x y z
#
# Youngs Moduli (GPa) = 34.04220 45.59948 63.68570
#
# Poissons Ratio (x) = 0.09119 0.13478
# Poissons Ratio (y) = 0.06808 0.93787
# Poissons Ratio (z) = 0.07205 0.67152
#
# Static dielectric constant tensor:
#      x y z
#    x 2.888030 0.000000 0.000000 
#    y 0.000000 3.475090 0.000000 
#    z 0.000000 0.000000 3.872030 
# 
# 
# High freq. dielectric constant tensor:
#      x y z
#    x 1.659170 0.000000 0.000000 
#    y 0.000000 1.692050 0.000000 
#    z 0.000000 0.000000 1.718960 
# 
# From -- ./inp_files/59540.got.cif
#   From: 2010.03.12/outbox.cif.g09.slc.cpg/sg65_30_cif.got.tgz:59540.got - 2010.04.10 20:52:16.
