data_PCOD8267079
_publ_section_title
;
Structure prediction by ZEFSAII (Michael W. Deem and Ramdas Pophale) SiO2 
 PCOD8267079
Probable space group: C M M M
;
_chemical_formula_sum "Si O2"
_cell_formula_units_Z 112
_cell_length_a 33.628817
_cell_length_b 13.975720
_cell_length_c 13.596029
_cell_angle_alpha 90.000000
_cell_angle_beta 90.000000
_cell_angle_gamma 90.000000
_cell_volume 6389.955934
_symmetry_space_group_name_H-M "C M M M"
_symmetry_group_IT_number 65
_symmetry_cell_setting 'orthorhombic'
loop_
_space_group_symop_operation_xyz
x,y,z
-x,-y,z
x,-y,-z
-x,y,-z
-x,-y,-z
x,y,-z
-x,y,z
x,-y,z
1/2+x,1/2+y,z
1/2-x,1/2-y,z
1/2+x,1/2-y,-z
1/2-x,1/2+y,-z
1/2-x,1/2-y,-z
1/2+x,1/2+y,-z
1/2-x,1/2+y,z
1/2+x,1/2-y,z
loop_
_atom_site_type_symbol
_atom_site_label
_atom_site_fract_x
_atom_site_fract_y
_atom_site_fract_z
Si Si1 0.545527 0.389401 0.387055
Si Si2 0.310956 0.608067 0.385438
Si Si3 0.353069 0.888249 0.384585
Si Si4 0.730178 0.893919 0.309158
Si Si5 0.616423 0.711383 0.291866
Si Si6 0.742069 0.360383 0.892650
Si Si7 0.349095 0.609463 0.887218
O O1 0.552993 0.360538 0.500000
O O2 0.500000 0.369921 0.357678
O O3 0.556431 0.500000 0.371290
O O4 0.572590 0.325591 0.316648
O O5 0.304180 0.607407 0.500000
O O6 0.315850 0.500000 0.343784
O O7 0.271468 0.659200 0.338552
O O8 0.351046 0.663556 0.362157
O O9 0.361180 0.871733 0.500000
O O10 0.309136 0.847646 0.356485
O O11 0.382866 0.825289 0.316684
O O12 0.358219 0.000000 0.356211
O O13 0.727751 0.899851 0.189905
O O14 0.732328 0.000000 0.354902
O O15 0.625747 0.683809 0.178851
O O16 0.750000 0.250000 0.902676
O O17 0.697139 0.382165 0.858093
O O18 0.749701 0.408679 0.000000
O O19 0.363163 0.500000 0.869548
O O20 0.355725 0.640158 0.000000
#
# Coordination Sequence:
#
# PCOD8267079 Si02
#       7
#    16  16  16  16  16  16  16
#     4   9  18  32  51  79 112 137 157 191 247 313
#     4  10  19  28  42  69  98 122 157 202 242 291
#     4  10  22  37  50  68  98 136 175 216 263 305
#     4  10  19  31  44  61  90 128 163 203 254 298
#     4  12  20  32  54  74  96 130 176 209 243 304
#     4  10  19  30  43  62  88 124 172 217 253 293
#     4  10  20  33  50  74 104 133 164 210 262 305
#
# _framework density 17.527508000000001
#
# number of rings (size 3 to 8) (size 9 to 14) (size 15 to 20)
#    0.000    1.857    1.429    4.714    0.000    3.714 
#    0.000    1.429    0.000    2.143    0.000    4.000 
#    0.000    0.000    0.000    1.286    0.000    0.286 
#
# Total GULP energy -694158.797874 kJ/mol
# GULP energy per Si atom -12395.692819 kJ/mol
# Density = 1.748761 g / cm^3
# Si number density = 17.527508 Si / 1000 Ang^3
#
#
#
# Elastic Constant Matrix: (Units=GPa)
#
#
# Indices 1 2 3 4 5 6 
#
# 1 66.5602 30.1496 28.7113 0.0000 0.0000 0.0000
# 2 30.1496 73.6278 30.7749 0.0000 0.0000 0.0000
# 3 28.7113 30.7749 93.9636 0.0000 0.0000 0.0000
# 4 0.0000 0.0000 0.0000 22.6722 0.0000 0.0000
# 5 0.0000 0.0000 0.0000 0.0000 18.8490 0.0000
# 6 0.0000 0.0000 0.0000 0.0000 0.0000 22.2117
#
#
#
# Elastic Compliance Matrix: (Units=1/GPa)
#
#
# Indices 1 2 3 4 5 6 
#
# 1 0.019602 -0.006399 -0.003894 0.000000 0.000000 0.000000
# 2 -0.006399 0.017825 -0.003883 0.000000 0.000000 0.000000
# 3 -0.003894 -0.003883 0.013104 0.000000 0.000000 0.000000
# 4 0.000000 0.000000 0.000000 0.044107 0.000000 0.000000
# 5 0.000000 0.000000 0.000000 0.000000 0.053053 0.000000
# 6 0.000000 0.000000 0.000000 0.000000 0.000000 0.045021
#
#
# Mechanical properties :
#
#
# Convention : Reuss Voigt Hill
#
# Bulk Modulus (GPa) = 45.08627 45.93590 45.51108
# Shear Modulus (GPa) = 21.88591 22.38098 22.13344
#
# Velocity S-wave (km/s) = 3.53747 3.57726 3.55742
# Velocity P-wave (km/s) = 6.51644 6.58234 6.54947
#
# Compressibility (1/GPa) = 0.02217970
#
# Stress axis : x y z
#
# Youngs Moduli (GPa) = 51.01452 56.10045 76.31361
#
# Poissons Ratio (x) = 0.35901 0.29714
# Poissons Ratio (y) = 0.32646 0.29630
# Poissons Ratio (z) = 0.19864 0.21782
#
# Static dielectric constant tensor:
#      x y z
#    x 2.926740 0.000000 0.000000 
#    y 0.000000 3.331140 0.000000 
#    z 0.000000 0.000000 3.398590 
# 
# 
# High freq. dielectric constant tensor:
#      x y z
#    x 1.628780 0.000000 0.000000 
#    y 0.000000 1.674920 0.000000 
#    z 0.000000 0.000000 1.681270 
# 
# From -- ./inp_files/48003.got.cif
#   From: 2010.03.12/outbox.cif.g09.slc.cpg/sg65_25_cif.got.tgz:48003.got - 2010.04.10 20:52:16.
