data_PCOD8267638
_publ_section_title
;
Structure prediction by ZEFSAII (Michael W. Deem and Ramdas Pophale) SiO2 
 PCOD8267638
Probable space group: C M M M
;
_chemical_formula_sum "Si O2"
_cell_formula_units_Z 104
_cell_length_a 21.451522
_cell_length_b 20.353238
_cell_length_c 13.718002
_cell_angle_alpha 90.000000
_cell_angle_beta 90.000000
_cell_angle_gamma 90.000000
_cell_volume 5989.388494
_symmetry_space_group_name_H-M "C M M M"
_symmetry_group_IT_number 65
_symmetry_cell_setting 'orthorhombic'
loop_
_space_group_symop_operation_xyz
x,y,z
-x,-y,z
x,-y,-z
-x,y,-z
-x,-y,-z
x,y,-z
-x,y,z
x,-y,z
1/2+x,1/2+y,z
1/2-x,1/2-y,z
1/2+x,1/2-y,-z
1/2-x,1/2+y,-z
1/2-x,1/2-y,-z
1/2+x,1/2+y,-z
1/2-x,1/2+y,z
1/2+x,1/2-y,z
loop_
_atom_site_type_symbol
_atom_site_label
_atom_site_fract_x
_atom_site_fract_y
_atom_site_fract_z
Si Si1 0.926516 0.195596 0.613021
Si Si2 0.000000 0.573930 0.616290
Si Si3 0.176280 0.257096 0.106903
Si Si4 0.295656 0.124853 0.231929
Si Si5 0.793193 0.500000 0.890307
Si Si6 0.854333 0.000000 0.110112
Si Si7 0.148702 0.132082 0.780352
Si Si8 0.885183 0.342919 0.613263
O O1 0.914988 0.176316 0.500000
O O2 0.891431 0.143083 0.682158
O O3 0.897845 0.266707 0.636136
O O4 0.000000 0.195690 0.636284
O O5 0.059342 0.613010 0.656428
O O6 0.000000 0.500000 0.657622
O O7 0.000000 0.574553 0.500000
O O8 0.250000 0.250000 0.097797
O O9 0.166446 0.316585 0.180122
O O10 0.140582 0.192310 0.144800
O O11 0.148575 0.272672 0.000000
O O12 0.221761 0.129330 0.244695
O O13 0.322021 0.127845 0.340950
O O14 0.316344 0.062255 0.169945
O O15 0.719344 0.500000 0.898926
O O16 0.821429 0.500000 0.000000
O O17 0.875708 0.934845 0.168789
O O18 0.882801 0.000000 0.000000
O O19 0.877324 0.354336 0.500000
#
# Coordination Sequence:
#
# PCOD8267638 Si02
#       8
#    16   8  16  16   8   8  16  16
#     4  10  20  36  56  75  99 137 180 217 258 312
#     4   9  18  32  50  72 100 137 180 213 241 290
#     4   9  16  27  46  72 100 129 166 210 252 299
#     4  10  19  30  48  79 108 135 170 211 264 311
#     4   9  18  32  49  73 109 145 174 205 249 312
#     4   9  18  34  56  78 104 137 167 206 262 319
#     4  10  19  33  52  78 106 132 169 215 263 314
#     4  10  19  32  50  75 106 136 173 218 257 299
#
# _framework density 17.364042000000001
#
# number of rings (size 3 to 8) (size 9 to 14) (size 15 to 20)
#    0.000    2.385    2.308    0.923    1.077    4.308 
#    0.000    2.308    0.000    6.000    0.000    2.154 
#    0.000    0.000    0.000    0.000    0.000    0.000 
#
# Total GULP energy -644497.850676 kJ/mol
# GULP energy per Si atom -12394.189436 kJ/mol
# Density = 1.732452 g / cm^3
# Si number density = 17.364042 Si / 1000 Ang^3
#
#
#
# Elastic Constant Matrix: (Units=GPa)
#
#
# Indices 1 2 3 4 5 6 
#
# 1 52.2294 24.6923 47.1857 0.0000 0.0000 0.0000
# 2 24.6923 116.3686 54.5094 0.0000 0.0000 0.0000
# 3 47.1857 54.5094 106.3132 0.0000 0.0000 0.0000
# 4 0.0000 0.0000 0.0000 23.3226 0.0000 0.0000
# 5 0.0000 0.0000 0.0000 0.0000 7.9249 0.0000
# 6 0.0000 0.0000 0.0000 0.0000 0.0000 16.8439
#
#
#
# Elastic Compliance Matrix: (Units=1/GPa)
#
#
# Indices 1 2 3 4 5 6 
#
# 1 0.031965 -0.000180 -0.014095 0.000000 0.000000 0.000000
# 2 -0.000180 0.011311 -0.005719 0.000000 0.000000 0.000000
# 3 -0.014095 -0.005719 0.018594 0.000000 0.000000 0.000000
# 4 0.000000 0.000000 0.000000 0.042877 0.000000 0.000000
# 5 0.000000 0.000000 0.000000 0.000000 0.126185 0.000000
# 6 0.000000 0.000000 0.000000 0.000000 0.000000 0.059369
#
#
# Mechanical properties :
#
#
# Convention : Reuss Voigt Hill
#
# Bulk Modulus (GPa) = 45.70092 58.63178 52.16635
# Shear Modulus (GPa) = 14.81116 19.51986 17.16551
#
# Velocity S-wave (km/s) = 2.92375 3.35648 3.14756
# Velocity P-wave (km/s) = 6.14607 6.99005 6.58160
#
# Compressibility (1/GPa) = 0.02188140
#
# Stress axis : x y z
#
# Youngs Moduli (GPa) = 31.28389 88.41242 53.77983
#
# Poissons Ratio (x) = 0.01595 0.75802
# Poissons Ratio (y) = 0.00564 0.30758
# Poissons Ratio (z) = 0.44094 0.50564
#
# Static dielectric constant tensor:
#      x y z
#    x 2.894610 0.000000 0.000000 
#    y 0.000000 3.385740 0.000000 
#    z 0.000000 0.000000 3.282640 
# 
# 
# High freq. dielectric constant tensor:
#      x y z
#    x 1.632890 0.000000 0.000000 
#    y 0.000000 1.675740 0.000000 
#    z 0.000000 0.000000 1.671700 
# 
# From -- ./inp_files/44460.got.cif
#   From: 2010.03.12/outbox.cif.g09.slc.cpg/sg65_23_cif.got.tgz:44460.got - 2010.04.10 20:52:16.
