data_PCOD8267241
_publ_section_title
;
Structure prediction by ZEFSAII (Michael W. Deem and Ramdas Pophale) SiO2 
 PCOD8267241
Probable space group: C M M M
;
_chemical_formula_sum "Si O2"
_cell_formula_units_Z 96
_cell_length_a 30.774414
_cell_length_b 9.110081
_cell_length_c 19.447341
_cell_angle_alpha 90.000000
_cell_angle_beta 90.000000
_cell_angle_gamma 90.000000
_cell_volume 5452.206043
_symmetry_space_group_name_H-M "C M M M"
_symmetry_group_IT_number 65
_symmetry_cell_setting 'orthorhombic'
loop_
_space_group_symop_operation_xyz
x,y,z
-x,-y,z
x,-y,-z
-x,y,-z
-x,-y,-z
x,y,-z
-x,y,z
x,-y,z
1/2+x,1/2+y,z
1/2-x,1/2-y,z
1/2+x,1/2-y,-z
1/2-x,1/2+y,-z
1/2-x,1/2-y,-z
1/2+x,1/2+y,-z
1/2-x,1/2+y,z
1/2+x,1/2-y,z
loop_
_atom_site_type_symbol
_atom_site_label
_atom_site_fract_x
_atom_site_fract_y
_atom_site_fract_z
Si Si1 0.877537 0.172294 0.323478
Si Si2 0.792151 0.334195 0.161071
Si Si3 0.450013 0.167946 0.079851
Si Si4 0.548186 0.674375 0.423183
Si Si5 0.291743 0.834674 0.324793
Si Si6 0.621421 0.671688 0.835406
O O1 0.917648 0.235627 0.367792
O O2 0.834699 0.252990 0.351025
O O3 0.886763 0.209707 0.244240
O O4 0.870437 0.000000 0.334571
O O5 0.792187 0.500000 0.132361
O O6 0.750000 0.250000 0.131201
O O7 0.790257 0.333404 0.242860
O O8 0.835851 0.253513 0.135905
O O9 0.500000 0.202915 0.097255
O O10 0.420696 0.277023 0.123631
O O11 0.439023 0.000000 0.099050
O O12 0.440760 0.196286 0.000000
O O13 0.561238 0.726597 0.500000
O O14 0.500000 0.733812 0.404596
O O15 0.547784 0.500000 0.420222
O O16 0.250000 0.750000 0.354769
O O17 0.291467 0.000000 0.353349
O O18 0.628755 0.500000 0.846644
#
# Coordination Sequence:
#
# PCOD8267241 Si02
#       6
#    16  16  16  16  16  16
#     4   9  17  28  44  69  98 123 151 191 234 272
#     4   9  16  27  44  66  94 126 158 191 228 273
#     4   9  19  36  54  69  89 122 161 196 232 277
#     4   8  14  26  45  67  90 120 158 194 228 271
#     4   9  16  26  42  64  91 122 154 188 228 274
#     4  10  19  29  45  72 101 125 152 190 236 281
#
# _framework density 17.607551999999998
#
# number of rings (size 3 to 8) (size 9 to 14) (size 15 to 20)
#    0.000    3.000    0.000    2.500    0.000    6.000 
#    0.000    2.500    0.000    2.000    0.000    1.167 
#    0.000    0.000    0.000    0.000    0.000    0.000 
#
# Total GULP energy -595117.611074 kJ/mol
# GULP energy per Si atom -12398.283564 kJ/mol
# Density = 1.756748 g / cm^3
# Si number density = 17.607552 Si / 1000 Ang^3
#
#
#
# Elastic Constant Matrix: (Units=GPa)
#
#
# Indices 1 2 3 4 5 6 
#
# 1 156.9507 66.5321 56.8000 0.0000 0.0000 0.0000
# 2 66.5321 90.9600 32.7015 0.0000 0.0000 0.0000
# 3 56.8000 32.7015 46.5742 0.0000 0.0000 0.0000
# 4 0.0000 0.0000 0.0000 10.8009 0.0000 0.0000
# 5 0.0000 0.0000 0.0000 0.0000 3.0911 0.0000
# 6 0.0000 0.0000 0.0000 0.0000 0.0000 34.9109
#
#
#
# Elastic Compliance Matrix: (Units=1/GPa)
#
#
# Indices 1 2 3 4 5 6 
#
# 1 0.012948 -0.005074 -0.012227 0.000000 0.000000 0.000000
# 2 -0.005074 0.016695 -0.005534 0.000000 0.000000 0.000000
# 3 -0.012227 -0.005534 0.040268 0.000000 0.000000 0.000000
# 4 0.000000 0.000000 0.000000 0.092585 0.000000 0.000000
# 5 0.000000 0.000000 0.000000 0.000000 0.323506 0.000000
# 6 0.000000 0.000000 0.000000 0.000000 0.000000 0.028644
#
#
# Mechanical properties :
#
#
# Convention : Reuss Voigt Hill
#
# Bulk Modulus (GPa) = 41.25381 67.39468 54.32425
# Shear Modulus (GPa) = 8.79668 18.99068 13.89368
#
# Velocity S-wave (km/s) = 2.23759 3.28770 2.81210
# Velocity P-wave (km/s) = 5.49147 7.26437 6.43923
#
# Compressibility (1/GPa) = 0.02424018
#
# Stress axis : x y z
#
# Youngs Moduli (GPa) = 77.23475 59.89850 24.83343
#
# Poissons Ratio (x) = 0.30395 0.30365
# Poissons Ratio (y) = 0.39193 0.13742
# Poissons Ratio (z) = 0.94437 0.33145
#
# Static dielectric constant tensor:
#      x y z
#    x 3.504360 0.000000 0.000000 
#    y 0.000000 3.187090 0.000000 
#    z 0.000000 0.000000 2.937080 
# 
# 
# High freq. dielectric constant tensor:
#      x y z
#    x 1.695140 0.000000 0.000000 
#    y 0.000000 1.671340 0.000000 
#    z 0.000000 0.000000 1.636340 
# 
# From -- ./inp_files/65761.got.cif
#   From: 2010.03.12/outbox.cif.g09.slc.cpg/sg65_33_cif.got.tgz:65761.got - 2010.04.10 20:52:16.
