data_PCOD8267108
_publ_section_title
;
Structure prediction by ZEFSAII (Michael W. Deem and Ramdas Pophale) SiO2 
 PCOD8267108
Probable space group: C M M M
;
_chemical_formula_sum "Si O2"
_cell_formula_units_Z 88
_cell_length_a 8.920126
_cell_length_b 36.120885
_cell_length_c 19.518355
_cell_angle_alpha 90.000000
_cell_angle_beta 90.000000
_cell_angle_gamma 90.000000
_cell_volume 6288.869519
_symmetry_space_group_name_H-M "C M M M"
_symmetry_group_IT_number 65
_symmetry_cell_setting 'orthorhombic'
loop_
_space_group_symop_operation_xyz
x,y,z
-x,-y,z
x,-y,-z
-x,y,-z
-x,-y,-z
x,y,-z
-x,y,z
x,-y,z
1/2+x,1/2+y,z
1/2-x,1/2-y,z
1/2+x,1/2-y,-z
1/2-x,1/2+y,-z
1/2-x,1/2-y,-z
1/2+x,1/2+y,-z
1/2-x,1/2+y,z
1/2+x,1/2-y,z
loop_
_atom_site_type_symbol
_atom_site_label
_atom_site_fract_x
_atom_site_fract_y
_atom_site_fract_z
Si Si1 0.168487 0.043920 0.424959
Si Si2 0.168563 0.786306 0.081338
Si Si3 0.174425 0.543222 0.710047
Si Si4 0.323594 0.861619 0.079301
Si Si5 0.678217 0.500000 0.076698
Si Si6 0.677955 0.571364 0.158098
O O1 0.221201 0.058788 0.500000
O O2 0.279237 0.057965 0.365341
O O3 0.000000 0.057915 0.409383
O O4 0.170562 0.000000 0.426672
O O5 0.250000 0.750000 0.111837
O O6 0.261522 0.822173 0.104371
O O7 0.000000 0.788637 0.110919
O O8 0.163891 0.783582 0.000000
O O9 0.215853 0.500000 0.718739
O O10 0.267040 0.567190 0.764296
O O11 0.000000 0.550394 0.721060
O O12 0.500000 0.862355 0.091184
O O13 0.245856 0.892171 0.125431
O O14 0.282136 0.868888 0.000000
O O15 0.500000 0.500000 0.075531
O O16 0.738391 0.536271 0.115174
O O17 0.744094 0.500000 0.000000
O O18 0.500000 0.574054 0.156463
#
# Coordination Sequence:
#
# PCOD8267108 Si02
#       6
#    16  16  16  16   8  16
#     4   8  14  25  41  59  77  97 124 158 195 237
#     4   9  16  27  44  64  83 103 127 157 196 243
#     4  10  19  29  41  57  79 103 130 165 205 248
#     4  10  20  32  44  60  82 105 131 168 211 252
#     4   9  18  30  43  57  70  91 130 177 217 250
#     4  11  20  31  45  58  76 103 137 175 211 249
#
# _framework density 13.992976000000001
#
# number of rings (size 3 to 8) (size 9 to 14) (size 15 to 20)
#    0.000    2.455    0.909    3.273    0.000    5.091 
#    0.000    1.818    0.000    2.182    0.000    0.000 
#    0.000    0.000    0.000    0.000    0.000    0.909 
#
# Total GULP energy -545531.766064 kJ/mol
# GULP energy per Si atom -12398.449229 kJ/mol
# Density = 1.396113 g / cm^3
# Si number density = 13.992976 Si / 1000 Ang^3
#
#
#
# Elastic Constant Matrix: (Units=GPa)
#
#
# Indices 1 2 3 4 5 6 
#
# 1 77.5706 39.8514 37.4803 0.0000 0.0000 0.0000
# 2 39.8514 87.7680 41.9942 0.0000 0.0000 0.0000
# 3 37.4803 41.9942 84.7047 0.0000 0.0000 0.0000
# 4 0.0000 0.0000 0.0000 3.0595 0.0000 0.0000
# 5 0.0000 0.0000 0.0000 0.0000 20.8209 0.0000
# 6 0.0000 0.0000 0.0000 0.0000 0.0000 22.6577
#
#
#
# Elastic Compliance Matrix: (Units=1/GPa)
#
#
# Indices 1 2 3 4 5 6 
#
# 1 0.018440 -0.005859 -0.005255 0.000000 0.000000 0.000000
# 2 -0.005859 0.016798 -0.005736 0.000000 0.000000 0.000000
# 3 -0.005255 -0.005736 0.016975 0.000000 0.000000 0.000000
# 4 0.000000 0.000000 0.000000 0.326855 0.000000 0.000000
# 5 0.000000 0.000000 0.000000 0.000000 0.048029 0.000000
# 6 0.000000 0.000000 0.000000 0.000000 0.000000 0.044135
#
#
# Mechanical properties :
#
#
# Convention : Reuss Voigt Hill
#
# Bulk Modulus (GPa) = 54.01179 54.29942 54.15560
# Shear Modulus (GPa) = 9.78279 18.02211 13.90245
#
# Velocity S-wave (km/s) = 2.64696 3.59268 3.15545
# Velocity P-wave (km/s) = 6.93000 7.48991 7.21539
#
# Compressibility (1/GPa) = 0.01851448
#
# Stress axis : x y z
#
# Youngs Moduli (GPa) = 54.22879 59.53036 58.91161
#
# Poissons Ratio (x) = 0.34876 0.30958
# Poissons Ratio (y) = 0.31770 0.33790
# Poissons Ratio (z) = 0.28497 0.34145
#
# Static dielectric constant tensor:
#      x y z
#    x 2.812830 0.000000 0.000000 
#    y 0.000000 2.586410 0.000000 
#    z 0.000000 0.000000 2.784930 
# 
# 
# High freq. dielectric constant tensor:
#      x y z
#    x 1.544400 0.000000 0.000000 
#    y 0.000000 1.499630 0.000000 
#    z 0.000000 0.000000 1.511290 
# 
# From -- ./inp_files/60660.got.cif
#   From: 2010.03.12/outbox.cif.g09.slc.cpg/sg65_31_cif.got.tgz:60660.got - 2010.04.10 20:52:16.
