data_PCOD8267469
_publ_section_title
;
Structure prediction by ZEFSAII (Michael W. Deem and Ramdas Pophale) SiO2 
 PCOD8267469
Probable space group: C M M M
;
_chemical_formula_sum "Si O2"
_cell_formula_units_Z 120
_cell_length_a 9.067182
_cell_length_b 26.704568
_cell_length_c 27.667083
_cell_angle_alpha 90.000000
_cell_angle_beta 90.000000
_cell_angle_gamma 90.000000
_cell_volume 6699.174075
_symmetry_space_group_name_H-M "C M M M"
_symmetry_group_IT_number 65
_symmetry_cell_setting 'orthorhombic'
loop_
_space_group_symop_operation_xyz
x,y,z
-x,-y,z
x,-y,-z
-x,y,-z
-x,-y,-z
x,y,-z
-x,y,z
x,-y,z
1/2+x,1/2+y,z
1/2-x,1/2-y,z
1/2+x,1/2-y,-z
1/2-x,1/2+y,-z
1/2-x,1/2-y,-z
1/2+x,1/2+y,-z
1/2-x,1/2+y,z
1/2+x,1/2-y,z
loop_
_atom_site_type_symbol
_atom_site_label
_atom_site_fract_x
_atom_site_fract_y
_atom_site_fract_z
Si Si1 0.173894 0.055352 0.141612
Si Si2 0.671569 0.800438 0.713546
Si Si3 0.325480 0.197350 0.398002
Si Si4 0.165970 0.371078 0.203701
Si Si5 0.827778 0.876732 0.054417
Si Si6 0.165733 0.299583 0.887511
Si Si7 0.830972 0.500000 0.442511
Si Si8 0.169084 0.101075 0.442659
O O1 0.233849 0.081898 0.189785
O O2 0.226503 0.080748 0.091615
O O3 0.000000 0.055278 0.145154
O O4 0.240109 0.000000 0.140693
O O5 0.500000 0.791709 0.722730
O O6 0.750000 0.750000 0.730287
O O7 0.706862 0.813158 0.658172
O O8 0.728272 0.845914 0.747186
O O9 0.500000 0.200671 0.409100
O O10 0.250000 0.250000 0.413972
O O11 0.254989 0.150840 0.426159
O O12 0.173342 0.332187 0.160350
O O13 0.000000 0.390205 0.212075
O O14 0.742254 0.825927 0.066704
O O15 0.000000 0.865953 0.060709
O O16 0.790032 0.894113 0.000000
O O17 0.250000 0.250000 0.873839
O O18 0.000000 0.287109 0.902847
O O19 0.828426 0.500000 0.500000
O O20 0.748831 0.550326 0.423224
O O21 0.000000 0.500000 0.423510
O O22 0.171561 0.100741 0.500000
O O23 0.000000 0.102007 0.423666
#
# Coordination Sequence:
#
# PCOD8267469 Si02
#       8
#    16  16  16  16  16  16   8  16
#     4   9  18  32  50  72  95 119 152 195 239 282
#     4   9  18  32  51  75 101 129 163 200 242 291
#     4  10  20  34  52  75 105 139 175 215 260 312
#     4   9  18  32  50  72  96 122 155 193 235 286
#     4   9  18  32  48  66  90 121 155 190 231 279
#     4  10  19  30  46  68  94 122 152 189 230 277
#     4   9  17  31  53  79 103 131 171 217 263 307
#     4  10  20  34  53  77 106 140 178 220 263 308
#
# _framework density 17.912655999999998
#
# number of rings (size 3 to 8) (size 9 to 14) (size 15 to 20)
#    0.000    2.600    0.000    1.800    0.000    4.533 
#    0.000    1.333    1.467    0.000    0.000    3.733 
#    0.000    0.000    0.000    0.000    0.000    0.000 
#
# Total GULP energy -743881.560568 kJ/mol
# GULP energy per Si atom -12398.026009 kJ/mol
# Density = 1.787189 g / cm^3
# Si number density = 17.912656 Si / 1000 Ang^3
#
#
#
# Elastic Constant Matrix: (Units=GPa)
#
#
# Indices 1 2 3 4 5 6 
#
# 1 81.0266 50.7275 21.2816 0.0000 0.0000 0.0000
# 2 50.7275 102.5342 21.3235 0.0000 0.0000 0.0000
# 3 21.2816 21.3235 40.6871 0.0000 0.0000 0.0000
# 4 0.0000 0.0000 0.0000 19.0529 0.0000 0.0000
# 5 0.0000 0.0000 0.0000 0.0000 23.6865 0.0000
# 6 0.0000 0.0000 0.0000 0.0000 0.0000 30.9992
#
#
#
# Elastic Compliance Matrix: (Units=1/GPa)
#
#
# Indices 1 2 3 4 5 6 
#
# 1 0.018956 -0.008211 -0.005612 0.000000 0.000000 0.000000
# 2 -0.008211 0.014503 -0.003306 0.000000 0.000000 0.000000
# 3 -0.005612 -0.003306 0.029246 0.000000 0.000000 0.000000
# 4 0.000000 0.000000 0.000000 0.052486 0.000000 0.000000
# 5 0.000000 0.000000 0.000000 0.000000 0.042218 0.000000
# 6 0.000000 0.000000 0.000000 0.000000 0.000000 0.032259
#
#
# Mechanical properties :
#
#
# Convention : Reuss Voigt Hill
#
# Bulk Modulus (GPa) = 35.15308 45.65702 40.40505
# Shear Modulus (GPa) = 21.42178 23.47539 22.44859
#
# Velocity S-wave (km/s) = 3.46193 3.62408 3.54393
# Velocity P-wave (km/s) = 5.97054 6.56170 6.27309
#
# Compressibility (1/GPa) = 0.02844701
#
# Stress axis : x y z
#
# Youngs Moduli (GPa) = 52.75271 68.95227 34.19328
#
# Poissons Ratio (x) = 0.56619 0.19188
# Poissons Ratio (y) = 0.43317 0.11303
# Poissons Ratio (z) = 0.29604 0.22794
#
# Static dielectric constant tensor:
#      x y z
#    x 3.459430 0.000000 0.000000 
#    y 0.000000 3.708590 0.000000 
#    z 0.000000 0.000000 3.236620 
# 
# 
# High freq. dielectric constant tensor:
#      x y z
#    x 1.698370 0.000000 0.000000 
#    y 0.000000 1.691930 0.000000 
#    z 0.000000 0.000000 1.675020 
# 
# From -- ./inp_files/73904.got.cif
#   From: 2010.03.12/outbox.cif.g09.slc.cpg/sg65_37_cif.got.tgz:73904.got - 2010.04.10 20:52:16.
