data_PCOD8267247
_publ_section_title
;
Structure prediction by ZEFSAII (Michael W. Deem and Ramdas Pophale) SiO2 
 PCOD8267247
Probable space group: C M M M
;
_chemical_formula_sum "Si O2"
_cell_formula_units_Z 128
_cell_length_a 17.251108
_cell_length_b 17.016149
_cell_length_c 23.947686
_cell_angle_alpha 90.000000
_cell_angle_beta 90.000000
_cell_angle_gamma 90.000000
_cell_volume 7029.781539
_symmetry_space_group_name_H-M "C M M M"
_symmetry_group_IT_number 65
_symmetry_cell_setting 'orthorhombic'
loop_
_space_group_symop_operation_xyz
x,y,z
-x,-y,z
x,-y,-z
-x,y,-z
-x,-y,-z
x,y,-z
-x,y,z
x,-y,z
1/2+x,1/2+y,z
1/2-x,1/2-y,z
1/2+x,1/2-y,-z
1/2-x,1/2+y,-z
1/2-x,1/2-y,-z
1/2+x,1/2+y,-z
1/2-x,1/2+y,z
1/2+x,1/2-y,z
loop_
_atom_site_type_symbol
_atom_site_label
_atom_site_fract_x
_atom_site_fract_y
_atom_site_fract_z
Si Si1 0.317476 0.192854 0.862775
Si Si2 0.127289 0.088751 0.249964
Si Si3 0.281887 0.589734 0.936126
Si Si4 0.189268 0.411372 0.760467
Si Si5 0.232616 0.842465 0.438798
Si Si6 0.911962 0.165639 0.367300
Si Si7 0.913130 0.161362 0.135927
Si Si8 0.321522 0.809517 0.341128
O O1 0.250000 0.250000 0.838843
O O2 0.287623 0.147884 0.918158
O O3 0.339501 0.127732 0.817508
O O4 0.391108 0.247560 0.876186
O O5 0.218966 0.091801 0.244726
O O6 0.101339 0.117857 0.310513
O O7 0.090916 0.143442 0.202034
O O8 0.096836 0.000000 0.241971
O O9 0.254692 0.500000 0.927753
O O10 0.357328 0.603082 0.898009
O O11 0.303296 0.607691 0.000000
O O12 0.157811 0.500000 0.759145
O O13 0.152163 0.362798 0.710052
O O14 0.243796 0.882172 0.500000
O O15 0.250000 0.750000 0.443927
O O16 0.146107 0.862911 0.416595
O O17 0.295021 0.868929 0.391674
O O18 0.896277 0.258000 0.356912
O O19 0.000000 0.154032 0.387962
O O20 0.000000 0.148228 0.114198
O O21 0.250000 0.750000 0.326022
#
# Coordination Sequence:
#
# PCOD8267247 Si02
#       8
#    16  16  16  16  16  16  16  16
#     4  10  19  33  54  75 101 130 169 208 244 286
#     4  11  20  31  48  73 102 129 162 201 241 290
#     4  10  21  37  57  79 102 132 171 211 247 286
#     4  11  18  29  52  75  93 124 166 206 242 283
#     4   8  15  28  45  65  90 120 156 201 243 279
#     4  10  19  29  46  69  94 127 158 190 239 292
#     4  11  23  35  52  78 108 138 164 198 250 302
#     4   9  16  30  47  66  93 122 157 200 241 284
#
# _framework density 18.208247
#
# number of rings (size 3 to 8) (size 9 to 14) (size 15 to 20)
#    0.000    2.250    5.000    2.250    0.000    4.500 
#    0.000    0.625    0.000    4.125    0.000    1.750 
#    0.000    0.000    0.000   12.500    0.000    0.000 
#
# Total GULP energy -793212.827189 kJ/mol
# GULP energy per Si atom -12393.950425 kJ/mol
# Density = 1.816680 g / cm^3
# Si number density = 18.208247 Si / 1000 Ang^3
#
#
#
# Elastic Constant Matrix: (Units=GPa)
#
#
# Indices 1 2 3 4 5 6 
#
# 1 51.3513 14.5450 14.4039 0.0000 0.0000 0.0000
# 2 14.5450 76.9762 28.5214 0.0000 0.0000 0.0000
# 3 14.4039 28.5214 103.9548 0.0000 0.0000 0.0000
# 4 0.0000 0.0000 0.0000 9.0558 0.0000 0.0000
# 5 0.0000 0.0000 0.0000 0.0000 7.6292 0.0000
# 6 0.0000 0.0000 0.0000 0.0000 0.0000 12.5013
#
#
#
# Elastic Compliance Matrix: (Units=1/GPa)
#
#
# Indices 1 2 3 4 5 6 
#
# 1 0.020950 -0.003209 -0.002022 0.000000 0.000000 0.000000
# 2 -0.003209 0.014953 -0.003658 0.000000 0.000000 0.000000
# 3 -0.002022 -0.003658 0.010903 0.000000 0.000000 0.000000
# 4 0.000000 0.000000 0.000000 0.110427 0.000000 0.000000
# 5 0.000000 0.000000 0.000000 0.000000 0.131075 0.000000
# 6 0.000000 0.000000 0.000000 0.000000 0.000000 0.079992
#
#
# Mechanical properties :
#
#
# Convention : Reuss Voigt Hill
#
# Bulk Modulus (GPa) = 34.45037 38.58032 36.51535
# Shear Modulus (GPa) = 12.63413 17.49141 15.06277
#
# Velocity S-wave (km/s) = 2.63700 3.10277 2.87932
# Velocity P-wave (km/s) = 5.31347 5.83700 5.58138
#
# Compressibility (1/GPa) = 0.02902726
#
# Stress axis : x y z
#
# Youngs Moduli (GPa) = 47.73281 66.87743 91.71503
#
# Poissons Ratio (x) = 0.21463 0.18547
# Poissons Ratio (y) = 0.15319 0.33548
# Poissons Ratio (z) = 0.09653 0.24462
#
# Static dielectric constant tensor:
#      x y z
#    x 3.109940 0.000000 0.000000 
#    y 0.000000 3.392030 0.000000 
#    z 0.000000 0.000000 3.659980 
# 
# 
# High freq. dielectric constant tensor:
#      x y z
#    x 1.665960 0.000000 0.000000 
#    y 0.000000 1.692650 0.000000 
#    z 0.000000 0.000000 1.708470 
# 
# From -- ./inp_files/70703.got.cif
#   From: 2010.03.12/outbox.cif.g09.slc.cpg/sg65_36_cif.got.tgz:70703.got - 2010.04.10 20:52:16.
