data_PCOD8267141
_publ_section_title
;
Structure prediction by ZEFSAII (Michael W. Deem and Ramdas Pophale) SiO2 
 PCOD8267141
Probable space group: C M M M
;
_chemical_formula_sum "Si O2"
_cell_formula_units_Z 96
_cell_length_a 9.021125
_cell_length_b 25.534365
_cell_length_c 25.003327
_cell_angle_alpha 90.000000
_cell_angle_beta 90.000000
_cell_angle_gamma 90.000000
_cell_volume 5759.483832
_symmetry_space_group_name_H-M "C M M M"
_symmetry_group_IT_number 65
_symmetry_cell_setting 'orthorhombic'
loop_
_space_group_symop_operation_xyz
x,y,z
-x,-y,z
x,-y,-z
-x,y,-z
-x,-y,-z
x,y,-z
-x,y,z
x,-y,z
1/2+x,1/2+y,z
1/2-x,1/2-y,z
1/2+x,1/2-y,-z
1/2-x,1/2+y,-z
1/2-x,1/2-y,-z
1/2+x,1/2+y,-z
1/2-x,1/2+y,z
1/2+x,1/2-y,z
loop_
_atom_site_type_symbol
_atom_site_label
_atom_site_fract_x
_atom_site_fract_y
_atom_site_fract_z
Si Si1 0.827190 0.896341 0.757224
Si Si2 0.333030 0.000000 0.239302
Si Si3 0.666988 0.000000 0.633537
Si Si4 0.175552 0.806453 0.838589
Si Si5 0.825956 0.196981 0.439085
Si Si6 0.174331 0.896713 0.365199
Si Si7 0.673836 0.806014 0.941952
O O1 0.782997 0.844552 0.789860
O O2 0.779547 0.885767 0.696070
O O3 0.000000 0.908460 0.761579
O O4 0.745860 0.947258 0.781755
O O5 0.325056 0.000000 0.302854
O O6 0.500000 0.000000 0.217588
O O7 0.748820 0.051370 0.611653
O O8 0.500000 0.000000 0.612089
O O9 0.250000 0.750000 0.827834
O O10 0.243695 0.834146 0.892266
O O11 0.000000 0.799408 0.844860
O O12 0.780976 0.183700 0.500000
O O13 0.750000 0.250000 0.419308
O O14 0.767244 0.151039 0.400984
O O15 0.000000 0.204565 0.433028
O O16 0.000000 0.904645 0.371020
O O17 0.500000 0.800000 0.929269
O O18 0.750000 0.750000 0.945434
O O19 0.696495 0.834483 0.000000
#
# Coordination Sequence:
#
# PCOD8267141 Si02
#       7
#    16   8   8  16  16  16  16
#     4   9  18  31  46  65  90 120 150 180 219 267
#     4   9  17  29  47  68  87 112 148 188 223 257
#     4   9  17  29  46  70  93 111 141 184 225 264
#     4  10  19  29  42  63  92 122 149 180 219 262
#     4   9  18  32  49  68  89 116 152 189 222 260
#     4   9  17  31  49  66  88 119 150 180 220 269
#     4   9  16  26  41  60  83 114 150 184 218 258
#
# _framework density 16.668161000000001
#
# number of rings (size 3 to 8) (size 9 to 14) (size 15 to 20)
#    0.000    2.833    0.000    2.500    0.000    5.667 
#    0.000    0.417    0.000    2.500    0.000    0.583 
#    0.000    4.667    0.000    0.000    0.000    0.000 
#
# Total GULP energy -594942.317155 kJ/mol
# GULP energy per Si atom -12394.631607 kJ/mol
# Density = 1.663022 g / cm^3
# Si number density = 16.668161 Si / 1000 Ang^3
#
#
#
# Elastic Constant Matrix: (Units=GPa)
#
#
# Indices 1 2 3 4 5 6 
#
# 1 72.6008 55.4019 40.0372 0.0000 0.0000 0.0000
# 2 55.4019 131.2958 69.5589 0.0000 0.0000 0.0000
# 3 40.0372 69.5589 85.0455 0.0000 0.0000 0.0000
# 4 0.0000 0.0000 0.0000 4.4413 0.0000 0.0000
# 5 0.0000 0.0000 0.0000 0.0000 20.0979 0.0000
# 6 0.0000 0.0000 0.0000 0.0000 0.0000 28.3783
#
#
#
# Elastic Compliance Matrix: (Units=1/GPa)
#
#
# Indices 1 2 3 4 5 6 
#
# 1 0.021343 -0.006499 -0.004732 0.000000 0.000000 0.000000
# 2 -0.006499 0.015419 -0.009552 0.000000 0.000000 0.000000
# 3 -0.004732 -0.009552 0.021799 0.000000 0.000000 0.000000
# 4 0.000000 0.000000 0.000000 0.225160 0.000000 0.000000
# 5 0.000000 0.000000 0.000000 0.000000 0.049756 0.000000
# 6 0.000000 0.000000 0.000000 0.000000 0.000000 0.035238
#
#
# Mechanical properties :
#
#
# Convention : Reuss Voigt Hill
#
# Bulk Modulus (GPa) = 58.84133 68.77088 63.80611
# Shear Modulus (GPa) = 12.02077 18.84643 15.43360
#
# Velocity S-wave (km/s) = 2.68840 3.36621 3.04622
# Velocity P-wave (km/s) = 6.70931 7.51378 7.12291
#
# Compressibility (1/GPa) = 0.01699486
#
# Stress axis : x y z
#
# Youngs Moduli (GPa) = 46.85388 64.85463 45.87416
#
# Poissons Ratio (x) = 0.42148 0.21709
# Poissons Ratio (y) = 0.30449 0.43818
# Poissons Ratio (z) = 0.22173 0.61948
#
# Static dielectric constant tensor:
#      x y z
#    x 3.186710 0.000000 0.000000 
#    y 0.000000 3.053010 0.000000 
#    z 0.000000 0.000000 3.454900 
# 
# 
# High freq. dielectric constant tensor:
#      x y z
#    x 1.649040 0.000000 0.000000 
#    y 0.000000 1.621260 0.000000 
#    z 0.000000 0.000000 1.629430 
# 
# From -- ./inp_files/68099.got.cif
#   From: 2010.03.12/outbox.cif.g09.slc.cpg/sg65_35_cif.got.tgz:68099.got - 2010.04.10 20:52:16.
