data_PCOD8267767
_publ_section_title
;
Structure prediction by ZEFSAII (Michael W. Deem and Ramdas Pophale) SiO2 
 PCOD8267767
Probable space group: C M M M
;
_chemical_formula_sum "Si O2"
_cell_formula_units_Z 88
_cell_length_a 28.579464
_cell_length_b 9.968112
_cell_length_c 18.562801
_cell_angle_alpha 90.000000
_cell_angle_beta 90.000000
_cell_angle_gamma 90.000000
_cell_volume 5288.231970
_symmetry_space_group_name_H-M "C M M M"
_symmetry_group_IT_number 65
_symmetry_cell_setting 'orthorhombic'
loop_
_space_group_symop_operation_xyz
x,y,z
-x,-y,z
x,-y,-z
-x,y,-z
-x,-y,-z
x,y,-z
-x,y,z
x,-y,z
1/2+x,1/2+y,z
1/2-x,1/2-y,z
1/2+x,1/2-y,-z
1/2-x,1/2+y,-z
1/2-x,1/2-y,-z
1/2+x,1/2+y,-z
1/2-x,1/2+y,z
1/2+x,1/2-y,z
loop_
_atom_site_type_symbol
_atom_site_label
_atom_site_fract_x
_atom_site_fract_y
_atom_site_fract_z
Si Si1 0.613207 0.849341 0.770606
Si Si2 0.208463 0.653161 0.845404
Si Si3 0.949314 0.851246 0.153060
Si Si4 0.834373 0.344236 0.000000
Si Si5 0.081431 0.854783 0.000000
Si Si6 0.554455 0.154195 0.370394
Si Si7 0.445042 0.652570 0.500000
O O1 0.668608 0.829405 0.783390
O O2 0.590244 0.751065 0.826568
O O3 0.592507 0.817027 0.691867
O O4 0.598976 0.000000 0.791833
O O5 0.226274 0.500000 0.845397
O O6 0.250000 0.750000 0.820886
O O7 0.193240 0.693048 0.926730
O O8 0.952947 0.846665 0.067442
O O9 0.000000 0.810308 0.184904
O O10 0.935972 0.000000 0.181124
O O11 0.847726 0.500000 0.000000
O O12 0.881896 0.263875 0.000000
O O13 0.108033 0.000000 0.000000
O O14 0.500000 0.178379 0.346404
O O15 0.570144 0.260498 0.430834
O O16 0.559345 0.000000 0.397841
O O17 0.423282 0.500000 0.500000
O O18 0.500000 0.637502 0.500000
#
# Coordination Sequence:
#
# PCOD8267767 Si02
#       7
#    16  16  16   8   8  16   8
#     4  10  20  34  51  72  98 127 162 203 245 292
#     4  10  21  35  52  72  95 123 160 207 258 306
#     4  10  20  32  46  66  94 128 164 201 241 288
#     4  10  19  34  52  70  92 119 158 212 260 299
#     4  10  19  31  47  65  89 125 164 200 242 291
#     4   9  17  30  49  73 102 135 165 192 228 277
#     4   9  17  29  47  73 104 135 166 197 226 263
#
# _framework density 16.640723000000001
#
# number of rings (size 3 to 8) (size 9 to 14) (size 15 to 20)
#    0.000    2.273    1.818    1.364    0.000    5.455 
#    0.000    1.818    0.000    1.636    0.000    0.636 
#    0.000    0.000    0.000    0.000    0.000    0.000 
#
# Total GULP energy -545157.029446 kJ/mol
# GULP energy per Si atom -12389.932487 kJ/mol
# Density = 1.660285 g / cm^3
# Si number density = 16.640723 Si / 1000 Ang^3
#
#
#
# Elastic Constant Matrix: (Units=GPa)
#
#
# Indices 1 2 3 4 5 6 
#
# 1 81.3315 51.8030 37.3633 0.0000 0.0000 0.0000
# 2 51.8030 91.9321 46.2626 0.0000 0.0000 0.0000
# 3 37.3633 46.2626 84.6853 0.0000 0.0000 0.0000
# 4 0.0000 0.0000 0.0000 17.3897 0.0000 0.0000
# 5 0.0000 0.0000 0.0000 0.0000 15.1629 0.0000
# 6 0.0000 0.0000 0.0000 0.0000 0.0000 27.0893
#
#
#
# Elastic Compliance Matrix: (Units=1/GPa)
#
#
# Indices 1 2 3 4 5 6 
#
# 1 0.019975 -0.009407 -0.003674 0.000000 0.000000 0.000000
# 2 -0.009407 0.019432 -0.006465 0.000000 0.000000 0.000000
# 3 -0.003674 -0.006465 0.016961 0.000000 0.000000 0.000000
# 4 0.000000 0.000000 0.000000 0.057505 0.000000 0.000000
# 5 0.000000 0.000000 0.000000 0.000000 0.065951 0.000000
# 6 0.000000 0.000000 0.000000 0.000000 0.000000 0.036915
#
#
# Mechanical properties :
#
#
# Convention : Reuss Voigt Hill
#
# Bulk Modulus (GPa) = 57.88417 58.75631 58.32024
# Shear Modulus (GPa) = 19.11399 20.09636 19.60518
#
# Velocity S-wave (km/s) = 3.39282 3.47891 3.43613
# Velocity P-wave (km/s) = 7.08579 7.17792 7.13200
#
# Compressibility (1/GPa) = 0.01727588
#
# Stress axis : x y z
#
# Youngs Moduli (GPa) = 50.06333 51.46277 58.95814
#
# Poissons Ratio (x) = 0.48409 0.21662
# Poissons Ratio (y) = 0.47093 0.38116
# Poissons Ratio (z) = 0.18394 0.33270
#
# Static dielectric constant tensor:
#      x y z
#    x 2.885850 0.000000 0.000000 
#    y 0.000000 3.333490 0.000000 
#    z 0.000000 0.000000 3.061150 
# 
# 
# High freq. dielectric constant tensor:
#      x y z
#    x 1.612810 0.000000 0.000000 
#    y 0.000000 1.655950 0.000000 
#    z 0.000000 0.000000 1.623980 
# 
# From -- ./inp_files/58050.got.cif
#   From: 2010.03.12/outbox.cif.g09.slc.cpg/sg65_30_cif.got.tgz:58050.got - 2010.04.10 20:52:16.
