data_PCOD8267910
_publ_section_title
;
Structure prediction by ZEFSAII (Michael W. Deem and Ramdas Pophale) SiO2 
 PCOD8267910
Probable space group: C M M M
;
_chemical_formula_sum "Si O2"
_cell_formula_units_Z 104
_cell_length_a 9.201927
_cell_length_b 24.683561
_cell_length_c 24.995389
_cell_angle_alpha 90.000000
_cell_angle_beta 90.000000
_cell_angle_gamma 90.000000
_cell_volume 5677.360835
_symmetry_space_group_name_H-M "C M M M"
_symmetry_group_IT_number 65
_symmetry_cell_setting 'orthorhombic'
loop_
_space_group_symop_operation_xyz
x,y,z
-x,-y,z
x,-y,-z
-x,y,-z
-x,-y,-z
x,y,-z
-x,y,z
x,-y,z
1/2+x,1/2+y,z
1/2-x,1/2-y,z
1/2+x,1/2-y,-z
1/2-x,1/2+y,-z
1/2-x,1/2-y,-z
1/2+x,1/2+y,-z
1/2-x,1/2+y,z
1/2+x,1/2-y,z
loop_
_atom_site_type_symbol
_atom_site_label
_atom_site_fract_x
_atom_site_fract_y
_atom_site_fract_z
Si Si1 0.828941 0.500000 0.743977
Si Si2 0.167190 0.803308 0.214753
Si Si3 0.834446 0.594108 0.940385
Si Si4 0.666114 0.302594 0.088640
Si Si5 0.329995 0.192708 0.384029
Si Si6 0.833330 0.304812 0.500000
Si Si7 0.171723 0.617238 0.712201
Si Si8 0.826901 0.500000 0.135474
O O1 0.781385 0.446220 0.711156
O O2 0.762482 0.500000 0.804247
O O3 0.000000 0.500000 0.751144
O O4 0.250000 0.750000 0.236318
O O5 0.182959 0.809057 0.151864
O O6 0.243958 0.855972 0.238752
O O7 0.000000 0.799565 0.233193
O O8 0.734869 0.646569 0.940507
O O9 0.770822 0.552457 0.896685
O O10 0.000000 0.610200 0.925777
O O11 0.828041 0.568408 0.000000
O O12 0.500000 0.297129 0.071133
O O13 0.750000 0.250000 0.067965
O O14 0.500000 0.204739 0.377079
O O15 0.250000 0.250000 0.374421
O O16 0.295767 0.166310 0.443210
O O17 0.278290 0.146903 0.342361
O O18 0.750000 0.250000 0.500000
O O19 0.000000 0.288928 0.500000
O O20 0.000000 0.623159 0.721916
O O21 0.000000 0.500000 0.134721
#
# Coordination Sequence:
#
# PCOD8267910 Si02
#       8
#     8  16  16  16  16   8  16   8
#     4   9  18  31  49  71  96 129 165 200 239 286
#     4  10  20  33  50  73  99 127 159 197 242 292
#     4  10  20  34  54  78 100 123 156 199 242 284
#     4  10  21  36  53  73  99 131 163 194 234 288
#     4   9  17  28  45  69  97 128 162 201 244 289
#     4   8  14  26  42  63  93 127 161 198 241 286
#     4  10  19  31  48  71  98 129 165 204 245 289
#     4   9  17  32  54  76  97 124 159 198 241 288
#
# _framework density 18.318369000000001
#
# number of rings (size 3 to 8) (size 9 to 14) (size 15 to 20)
#    0.000    2.462    0.000    2.538    0.000    6.462 
#    0.000    0.769    0.000    4.154    0.000    3.231 
#    0.000    0.000    0.000   12.692    0.000    9.385 
#
# Total GULP energy -644533.311241 kJ/mol
# GULP energy per Si atom -12394.871370 kJ/mol
# Density = 1.827668 g / cm^3
# Si number density = 18.318369 Si / 1000 Ang^3
#
#
#
# Elastic Constant Matrix: (Units=GPa)
#
#
# Indices 1 2 3 4 5 6 
#
# 1 60.3460 34.6862 25.2618 0.0000 0.0000 0.0000
# 2 34.6862 130.9479 56.8599 0.0000 0.0000 0.0000
# 3 25.2618 56.8599 95.0601 0.0000 0.0000 0.0000
# 4 0.0000 0.0000 0.0000 22.2031 0.0000 0.0000
# 5 0.0000 0.0000 0.0000 0.0000 19.3730 0.0000
# 6 0.0000 0.0000 0.0000 0.0000 0.0000 22.7760
#
#
#
# Elastic Compliance Matrix: (Units=1/GPa)
#
#
# Indices 1 2 3 4 5 6 
#
# 1 0.020129 -0.004065 -0.002918 0.000000 0.000000 0.000000
# 2 -0.004065 0.011137 -0.005581 0.000000 0.000000 0.000000
# 3 -0.002918 -0.005581 0.014633 0.000000 0.000000 0.000000
# 4 0.000000 0.000000 0.000000 0.045039 0.000000 0.000000
# 5 0.000000 0.000000 0.000000 0.000000 0.051618 0.000000
# 6 0.000000 0.000000 0.000000 0.000000 0.000000 0.043906
#
#
# Mechanical properties :
#
#
# Convention : Reuss Voigt Hill
#
# Bulk Modulus (GPa) = 48.14306 57.77442 52.95874
# Shear Modulus (GPa) = 22.88184 24.17348 23.52766
#
# Velocity S-wave (km/s) = 3.53812 3.63661 3.58771
# Velocity P-wave (km/s) = 6.55968 7.01718 6.79228
#
# Compressibility (1/GPa) = 0.02077142
#
# Stress axis : x y z
#
# Youngs Moduli (GPa) = 49.67951 89.79214 68.33664
#
# Poissons Ratio (x) = 0.36500 0.19939
# Poissons Ratio (y) = 0.20194 0.38140
# Poissons Ratio (z) = 0.14495 0.50115
#
# Static dielectric constant tensor:
#      x y z
#    x 3.203130 0.000000 0.000000 
#    y 0.000000 3.351190 0.000000 
#    z 0.000000 0.000000 3.927910 
# 
# 
# High freq. dielectric constant tensor:
#      x y z
#    x 1.692820 0.000000 0.000000 
#    y 0.000000 1.694730 0.000000 
#    z 0.000000 0.000000 1.715060 
# 
# From -- ./inp_files/73628.got.cif
#   From: 2010.03.12/outbox.cif.g09.slc.cpg/sg65_37_cif.got.tgz:73628.got - 2010.04.10 20:52:16.
