data_PCOD8267181
_publ_section_title
;
Structure prediction by ZEFSAII (Michael W. Deem and Ramdas Pophale) SiO2 
 PCOD8267181
Probable space group: C M M M
;
_chemical_formula_sum "Si O2"
_cell_formula_units_Z 88
_cell_length_a 19.583150
_cell_length_b 18.644514
_cell_length_c 13.938604
_cell_angle_alpha 90.000000
_cell_angle_beta 90.000000
_cell_angle_gamma 90.000000
_cell_volume 5089.239597
_symmetry_space_group_name_H-M "C M M M"
_symmetry_group_IT_number 65
_symmetry_cell_setting 'orthorhombic'
loop_
_space_group_symop_operation_xyz
x,y,z
-x,-y,z
x,-y,-z
-x,y,-z
-x,-y,-z
x,y,-z
-x,y,z
x,-y,z
1/2+x,1/2+y,z
1/2-x,1/2-y,z
1/2+x,1/2-y,-z
1/2-x,1/2+y,-z
1/2-x,1/2-y,-z
1/2+x,1/2+y,-z
1/2-x,1/2+y,z
1/2+x,1/2-y,z
loop_
_atom_site_type_symbol
_atom_site_label
_atom_site_fract_x
_atom_site_fract_y
_atom_site_fract_z
Si Si1 0.000000 0.158210 0.605083
Si Si2 0.766930 0.081104 0.220477
Si Si3 0.000000 0.189444 0.193063
Si Si4 0.500000 0.844074 0.888513
Si Si5 0.398515 0.580476 0.109787
Si Si6 0.637288 0.914560 0.110673
Si Si7 0.355169 0.416079 0.606742
O O1 0.000000 0.213604 0.694445
O O2 0.932407 0.110658 0.616568
O O3 0.000000 0.196673 0.500000
O O4 0.818428 0.084269 0.130907
O O5 0.697272 0.116799 0.180135
O O6 0.802176 0.118089 0.314823
O O7 0.748769 0.000000 0.248626
O O8 0.065432 0.140078 0.173936
O O9 0.000000 0.259403 0.128482
O O10 0.431964 0.880532 0.845853
O O11 0.500000 0.860843 0.000000
O O12 0.425595 0.500000 0.133393
O O13 0.412777 0.599390 0.000000
O O14 0.632684 0.000000 0.116119
O O15 0.649933 0.890588 0.000000
O O16 0.326674 0.399370 0.500000
O O17 0.359480 0.500000 0.627995
#
# Coordination Sequence:
#
# PCOD8267181 Si02
#       7
#     8  16   8   8  16  16  16
#     4  10  19  30  46  65  91 132 174 204 234 279
#     4   9  16  27  46  71  97 125 158 195 238 287
#     4  12  21  32  47  66  97 135 165 202 237 278
#     4  10  21  35  51  73  97 123 159 203 249 291
#     4  10  19  29  43  66  98 135 169 194 225 280
#     4   9  17  32  54  76  97 122 155 197 245 297
#     4   9  16  26  43  70 100 127 161 207 249 279
#
# _framework density 17.291384999999998
#
# number of rings (size 3 to 8) (size 9 to 14) (size 15 to 20)
#    0.000    2.364    1.818    2.182    0.000    5.818 
#    0.000    0.909    0.000    4.364    0.000    2.545 
#    0.000    5.091    0.000    0.000    0.000    0.000 
#
# Total GULP energy -545097.796819 kJ/mol
# GULP energy per Si atom -12388.586291 kJ/mol
# Density = 1.725203 g / cm^3
# Si number density = 17.291385 Si / 1000 Ang^3
#
#
#
# Elastic Constant Matrix: (Units=GPa)
#
#
# Indices 1 2 3 4 5 6 
#
# 1 133.5188 20.8308 49.3628 0.0000 0.0000 0.0000
# 2 20.8308 27.5897 10.6519 0.0000 0.0000 0.0000
# 3 49.3628 10.6519 96.9470 0.0000 0.0000 0.0000
# 4 0.0000 0.0000 0.0000 12.0971 0.0000 0.0000
# 5 0.0000 0.0000 0.0000 0.0000 21.8961 0.0000
# 6 0.0000 0.0000 0.0000 0.0000 0.0000 16.9885
#
#
#
# Elastic Compliance Matrix: (Units=1/GPa)
#
#
# Indices 1 2 3 4 5 6 
#
# 1 0.010060 -0.005867 -0.004478 0.000000 0.000000 0.000000
# 2 -0.005867 0.041273 -0.001547 0.000000 0.000000 0.000000
# 3 -0.004478 -0.001547 0.012765 0.000000 0.000000 0.000000
# 4 0.000000 0.000000 0.000000 0.082664 0.000000 0.000000
# 5 0.000000 0.000000 0.000000 0.000000 0.045670 0.000000
# 6 0.000000 0.000000 0.000000 0.000000 0.000000 0.058863
#
#
# Mechanical properties :
#
#
# Convention : Reuss Voigt Hill
#
# Bulk Modulus (GPa) = 24.80571 46.63848 35.72209
# Shear Modulus (GPa) = 17.32995 22.01036 19.67016
#
# Velocity S-wave (km/s) = 3.16924 3.57166 3.37645
# Velocity P-wave (km/s) = 5.26962 6.63623 5.99202
#
# Compressibility (1/GPa) = 0.04031330
#
# Stress axis : x y z
#
# Youngs Moduli (GPa) = 99.39959 24.22921 78.33954
#
# Poissons Ratio (x) = 0.14215 0.35079
# Poissons Ratio (y) = 0.58317 0.12123
# Poissons Ratio (z) = 0.44510 0.03749
#
# Static dielectric constant tensor:
#      x y z
#    x 3.385900 0.000000 0.000000 
#    y 0.000000 2.704760 0.000000 
#    z 0.000000 0.000000 3.503300 
# 
# 
# High freq. dielectric constant tensor:
#      x y z
#    x 1.670540 0.000000 0.000000 
#    y 0.000000 1.608810 0.000000 
#    z 0.000000 0.000000 1.669090 
# 
# From -- ./inp_files/42786.got.cif
#   From: 2010.03.12/outbox.cif.g09.slc.cpg/sg65_22_cif.got.tgz:42786.got - 2010.04.10 20:52:16.
