data_PCOD8267578
_publ_section_title
;
Structure prediction by ZEFSAII (Michael W. Deem and Ramdas Pophale) SiO2 
 PCOD8267578
Probable space group: C M M M
;
_chemical_formula_sum "Si O2"
_cell_formula_units_Z 104
_cell_length_a 9.183311
_cell_length_b 30.303592
_cell_length_c 22.153483
_cell_angle_alpha 90.000000
_cell_angle_beta 90.000000
_cell_angle_gamma 90.000000
_cell_volume 6165.033186
_symmetry_space_group_name_H-M "C M M M"
_symmetry_group_IT_number 65
_symmetry_cell_setting 'orthorhombic'
loop_
_space_group_symop_operation_xyz
x,y,z
-x,-y,z
x,-y,-z
-x,y,-z
-x,-y,-z
x,y,-z
-x,y,z
x,-y,z
1/2+x,1/2+y,z
1/2-x,1/2-y,z
1/2+x,1/2-y,-z
1/2-x,1/2+y,-z
1/2-x,1/2-y,-z
1/2+x,1/2+y,-z
1/2-x,1/2+y,z
1/2+x,1/2-y,z
loop_
_atom_site_type_symbol
_atom_site_label
_atom_site_fract_x
_atom_site_fract_y
_atom_site_fract_z
Si Si1 0.834083 0.051172 0.430350
Si Si2 0.836039 0.207856 0.211314
Si Si3 0.164817 0.207586 0.355053
Si Si4 0.830501 0.449658 0.882792
Si Si5 0.670480 0.120472 0.353084
Si Si6 0.331348 0.121908 0.214086
Si Si7 0.164234 0.947533 0.000000
O O1 0.806065 0.062685 0.500000
O O2 0.722214 0.078268 0.390027
O O3 0.000000 0.062991 0.412661
O O4 0.803163 0.000000 0.418076
O O5 0.750000 0.250000 0.185051
O O6 0.834511 0.209416 0.283216
O O7 0.759322 0.163233 0.188735
O O8 0.000000 0.209023 0.186151
O O9 0.250000 0.250000 0.381274
O O10 0.246089 0.163624 0.377506
O O11 0.000000 0.207665 0.380096
O O12 0.784831 0.500000 0.868510
O O13 0.789367 0.421152 0.824243
O O14 0.744476 0.430090 0.940121
O O15 0.000000 0.446481 0.898522
O O16 0.500000 0.128064 0.363058
O O17 0.707984 0.111481 0.283219
O O18 0.500000 0.134446 0.207428
O O19 0.000000 0.929548 0.000000
O O20 0.170567 0.000000 0.000000
#
# Coordination Sequence:
#
# PCOD8267578 Si02
#       7
#    16  16  16  16  16  16   8
#     4   9  19  36  54  69  88 119 159 198 234 275
#     4   9  16  26  42  63  89 121 155 190 227 268
#     4   9  16  27  44  66  93 124 156 188 225 272
#     4   9  17  30  47  65  89 124 160 189 222 269
#     4  10  19  30  47  72  99 124 152 190 235 279
#     4   9  18  30  44  67  98 126 153 187 228 274
#     4   9  17  29  45  65  88 115 152 197 235 265
#
# _framework density 16.869333000000001
#
# number of rings (size 3 to 8) (size 9 to 14) (size 15 to 20)
#    0.000    2.846    0.000    2.077    0.000    7.077 
#    0.000    2.308    0.000    2.308    0.000    0.538 
#    0.000    0.000    0.000    0.000    0.000    0.000 
#
# Total GULP energy -644812.684911 kJ/mol
# GULP energy per Si atom -12400.243941 kJ/mol
# Density = 1.683094 g / cm^3
# Si number density = 16.869333 Si / 1000 Ang^3
#
#
#
# Elastic Constant Matrix: (Units=GPa)
#
#
# Indices 1 2 3 4 5 6 
#
# 1 109.5722 65.1247 41.8611 0.0000 0.0000 0.0000
# 2 65.1247 110.4911 48.7477 0.0000 0.0000 0.0000
# 3 41.8611 48.7477 56.1449 0.0000 0.0000 0.0000
# 4 0.0000 0.0000 0.0000 1.8829 0.0000 0.0000
# 5 0.0000 0.0000 0.0000 0.0000 18.7189 0.0000
# 6 0.0000 0.0000 0.0000 0.0000 0.0000 33.9028
#
#
#
# Elastic Compliance Matrix: (Units=1/GPa)
#
#
# Indices 1 2 3 4 5 6 
#
# 1 0.015103 -0.006376 -0.005725 0.000000 0.000000 0.000000
# 2 -0.006376 0.017362 -0.010320 0.000000 0.000000 0.000000
# 3 -0.005725 -0.010320 0.031040 0.000000 0.000000 0.000000
# 4 0.000000 0.000000 0.000000 0.531109 0.000000 0.000000
# 5 0.000000 0.000000 0.000000 0.000000 0.053422 0.000000
# 6 0.000000 0.000000 0.000000 0.000000 0.000000 0.029496
#
#
# Mechanical properties :
#
#
# Convention : Reuss Voigt Hill
#
# Bulk Modulus (GPa) = 53.58332 65.29724 59.44028
# Shear Modulus (GPa) = 6.86252 18.93256 12.89754
#
# Velocity S-wave (km/s) = 2.01913 3.35372 2.76806
# Velocity P-wave (km/s) = 6.10480 7.33405 6.74747
#
# Compressibility (1/GPa) = 0.01866252
#
# Stress axis : x y z
#
# Youngs Moduli (GPa) = 66.21094 57.59672 32.21662
#
# Poissons Ratio (x) = 0.36726 0.18442
# Poissons Ratio (y) = 0.42219 0.33249
# Poissons Ratio (z) = 0.37903 0.59442
#
# Static dielectric constant tensor:
#      x y z
#    x 3.276890 0.000000 0.000000 
#    y 0.000000 3.168190 0.000000 
#    z 0.000000 0.000000 2.835240 
# 
# 
# High freq. dielectric constant tensor:
#      x y z
#    x 1.660760 0.000000 0.000000 
#    y 0.000000 1.648580 0.000000 
#    z 0.000000 0.000000 1.608180 
# 
# From -- ./inp_files/66308.got.cif
#   From: 2010.03.12/outbox.cif.g09.slc.cpg/sg65_34_cif.got.tgz:66308.got - 2010.04.10 20:52:16.
