data_PCOD8267783
_publ_section_title
;
Structure prediction by ZEFSAII (Michael W. Deem and Ramdas Pophale) SiO2 
 PCOD8267783
Probable space group: C M M M
;
_chemical_formula_sum "Si O2"
_cell_formula_units_Z 64
_cell_length_a 18.804778
_cell_length_b 9.256854
_cell_length_c 20.874719
_cell_angle_alpha 90.000000
_cell_angle_beta 90.000000
_cell_angle_gamma 90.000000
_cell_volume 3633.726723
_symmetry_space_group_name_H-M "C M M M"
_symmetry_group_IT_number 65
_symmetry_cell_setting 'orthorhombic'
loop_
_space_group_symop_operation_xyz
x,y,z
-x,-y,z
x,-y,-z
-x,y,-z
-x,-y,-z
x,y,-z
-x,y,z
x,-y,z
1/2+x,1/2+y,z
1/2-x,1/2-y,z
1/2+x,1/2-y,-z
1/2-x,1/2+y,-z
1/2-x,1/2-y,-z
1/2+x,1/2+y,-z
1/2-x,1/2+y,z
1/2+x,1/2-y,z
loop_
_atom_site_type_symbol
_atom_site_label
_atom_site_fract_x
_atom_site_fract_y
_atom_site_fract_z
Si Si1 0.675403 0.172162 0.500000
Si Si2 0.584853 0.337289 0.122729
Si Si3 0.415243 0.836614 0.000000
Si Si4 0.079079 0.671677 0.383693
Si Si5 0.584636 0.838944 0.242900
O O1 0.750000 0.250000 0.500000
O O2 0.632855 0.227549 0.437647
O O3 0.685344 0.000000 0.500000
O O4 0.500000 0.337084 0.122906
O O5 0.614204 0.500000 0.117575
O O6 0.613741 0.245712 0.062660
O O7 0.614809 0.266771 0.188156
O O8 0.500000 0.837442 0.000000
O O9 0.385799 0.000000 0.000000
O O10 0.074302 0.500000 0.385173
O O11 0.107048 0.720259 0.313277
O O12 0.000000 0.734815 0.397150
O O13 0.500000 0.845624 0.239856
O O14 0.615276 0.000000 0.230998
#
# Coordination Sequence:
#
# PCOD8267783 Si02
#       5
#     8  16   8  16  16
#     4  10  19  31  47  67  91 116 142 176 220 266
#     4   9  15  21  29  44  68  97 128 163 205 251
#     4   9  15  21  29  41  61  95 136 171 200 235
#     4   8  14  26  46  67  83 107 148 189 217 250
#     4   8  13  22  36  53  71  93 128 173 212 244
#
# _framework density 17.612772
#
# number of rings (size 3 to 8) (size 9 to 14) (size 15 to 20)
#    0.000    3.375    0.000    3.000    0.000    6.000 
#    0.000    1.250    0.000    3.000    0.000    0.000 
#    0.000    0.000    0.000    1.125    0.000   14.750 
#
# Total GULP energy -396587.138571 kJ/mol
# GULP energy per Si atom -12393.348080 kJ/mol
# Density = 1.757268 g / cm^3
# Si number density = 17.612772 Si / 1000 Ang^3
#
#
#
# Elastic Constant Matrix: (Units=GPa)
#
#
# Indices 1 2 3 4 5 6 
#
# 1 40.3253 21.5690 43.5863 0.0000 0.0000 0.0000
# 2 21.5690 101.7548 77.7592 0.0000 0.0000 0.0000
# 3 43.5863 77.7592 197.9780 0.0000 0.0000 0.0000
# 4 0.0000 0.0000 0.0000 17.3123 0.0000 0.0000
# 5 0.0000 0.0000 0.0000 0.0000 1.3949 0.0000
# 6 0.0000 0.0000 0.0000 0.0000 0.0000 11.8444
#
#
#
# Elastic Compliance Matrix: (Units=1/GPa)
#
#
# Indices 1 2 3 4 5 6 
#
# 1 0.032839 -0.002052 -0.006424 0.000000 0.000000 0.000000
# 2 -0.002052 0.014170 -0.005114 0.000000 0.000000 0.000000
# 3 -0.006424 -0.005114 0.008474 0.000000 0.000000 0.000000
# 4 0.000000 0.000000 0.000000 0.057762 0.000000 0.000000
# 5 0.000000 0.000000 0.000000 0.000000 0.716902 0.000000
# 6 0.000000 0.000000 0.000000 0.000000 0.000000 0.084428
#
#
# Mechanical properties :
#
#
# Convention : Reuss Voigt Hill
#
# Bulk Modulus (GPa) = 35.33053 69.54301 52.43677
# Shear Modulus (GPa) = 5.25657 19.25324 12.25491
#
# Velocity S-wave (km/s) = 1.72945 3.30986 2.64066
# Velocity P-wave (km/s) = 4.90827 7.36050 6.25572
#
# Compressibility (1/GPa) = 0.02830413
#
# Stress axis : x y z
#
# Youngs Moduli (GPa) = 30.45138 70.56926 118.00923
#
# Poissons Ratio (x) = 0.14480 0.75808
# Poissons Ratio (y) = 0.06248 0.60349
# Poissons Ratio (z) = 0.19562 0.36089
#
# Static dielectric constant tensor:
#      x y z
#    x 2.597690 0.000000 0.000000 
#    y 0.000000 3.175380 0.000000 
#    z 0.000000 0.000000 3.788630 
# 
# 
# High freq. dielectric constant tensor:
#      x y z
#    x 1.598020 0.000000 0.000000 
#    y 0.000000 1.659320 0.000000 
#    z 0.000000 0.000000 1.705400 
# 
# From -- ./inp_files/59164.got.cif
#   From: 2010.03.12/outbox.cif.g09.slc.cpg/sg65_30_cif.got.tgz:59164.got - 2010.04.10 20:52:16.
