data_PCOD8267073
_publ_section_title
;
Structure prediction by ZEFSAII (Michael W. Deem and Ramdas Pophale) SiO2 
 PCOD8267073
Probable space group: C M M M
;
_chemical_formula_sum "Si O2"
_cell_formula_units_Z 104
_cell_length_a 25.635795
_cell_length_b 9.026059
_cell_length_c 24.836737
_cell_angle_alpha 90.000000
_cell_angle_beta 90.000000
_cell_angle_gamma 90.000000
_cell_volume 5746.977497
_symmetry_space_group_name_H-M "C M M M"
_symmetry_group_IT_number 65
_symmetry_cell_setting 'orthorhombic'
loop_
_space_group_symop_operation_xyz
x,y,z
-x,-y,z
x,-y,-z
-x,y,-z
-x,-y,-z
x,y,-z
-x,y,z
x,-y,z
1/2+x,1/2+y,z
1/2-x,1/2-y,z
1/2+x,1/2-y,-z
1/2-x,1/2+y,-z
1/2-x,1/2-y,-z
1/2+x,1/2+y,-z
1/2-x,1/2+y,z
1/2+x,1/2-y,z
loop_
_atom_site_type_symbol
_atom_site_label
_atom_site_fract_x
_atom_site_fract_y
_atom_site_fract_z
Si Si1 0.803470 0.325552 0.623296
Si Si2 0.893027 0.677431 0.173778
Si Si3 0.000000 0.836616 0.827560
Si Si4 0.802761 0.327105 0.746989
Si Si5 0.387108 0.836301 0.057409
Si Si6 0.396654 0.330658 0.563940
Si Si7 0.000000 0.246739 0.057140
Si Si8 0.000000 0.332468 0.564029
O O1 0.799254 0.500000 0.613451
O O2 0.750000 0.250000 0.604402
O O3 0.815172 0.286446 0.685334
O O4 0.848749 0.260033 0.587103
O O5 0.899542 0.500000 0.172066
O O6 0.948368 0.747861 0.190615
O O7 0.851069 0.730196 0.217569
O O8 0.871669 0.737675 0.114948
O O9 0.000000 0.862778 0.892051
O O10 0.000000 0.000000 0.800854
O O11 0.794215 0.500000 0.754859
O O12 0.750000 0.250000 0.767074
O O13 0.449641 0.851667 0.059743
O O14 0.362815 0.000000 0.055235
O O15 0.370525 0.755104 0.000000
O O16 0.393779 0.323066 0.500000
O O17 0.395368 0.500000 0.584192
O O18 0.449394 0.254144 0.585534
O O19 0.000000 0.156892 0.000000
O O20 0.000000 0.500000 0.587017
O O21 0.000000 0.335401 0.500000
#
# Coordination Sequence:
#
# PCOD8267073 Si02
#       8
#    16  16   8  16  16  16   8   8
#     4  10  20  35  54  76 101 128 163 207 253 298
#     4   9  17  31  49  68  93 125 159 194 237 288
#     4  10  19  28  41  67  98 125 155 192 236 284
#     4   9  19  35  55  75  93 121 162 206 248 289
#     4   8  12  19  36  62  88 115 150 190 228 273
#     4  10  20  34  53  78 108 140 171 203 242 289
#     4   8  13  21  33  52  84 123 154 182 224 278
#     4   9  17  31  52  77 105 139 177 211 241 279
#
# _framework density 18.096468999999999
#
# number of rings (size 3 to 8) (size 9 to 14) (size 15 to 20)
#    0.000    2.846    0.000    1.615    0.000    6.308 
#    0.000    0.769    0.000    2.308    0.000    0.000 
#    0.000    0.000    0.000    0.000    0.000    0.000 
#
# Total GULP energy -644196.324167 kJ/mol
# GULP energy per Si atom -12388.390849 kJ/mol
# Density = 1.805528 g / cm^3
# Si number density = 18.096469 Si / 1000 Ang^3
#
#
#
# Elastic Constant Matrix: (Units=GPa)
#
#
# Indices 1 2 3 4 5 6 
#
# 1 123.0095 50.3700 40.5947 0.0000 0.0000 0.0000
# 2 50.3700 81.7841 25.1044 0.0000 0.0000 0.0000
# 3 40.5947 25.1044 39.6949 0.0000 0.0000 0.0000
# 4 0.0000 0.0000 0.0000 11.8221 0.0000 0.0000
# 5 0.0000 0.0000 0.0000 0.0000 31.2441 0.0000
# 6 0.0000 0.0000 0.0000 0.0000 0.0000 30.1920
#
#
#
# Elastic Compliance Matrix: (Units=1/GPa)
#
#
# Indices 1 2 3 4 5 6 
#
# 1 0.013843 -0.005187 -0.010876 0.000000 0.000000 0.000000
# 2 -0.005187 0.017117 -0.005520 0.000000 0.000000 0.000000
# 3 -0.010876 -0.005520 0.039806 0.000000 0.000000 0.000000
# 4 0.000000 0.000000 0.000000 0.084588 0.000000 0.000000
# 5 0.000000 0.000000 0.000000 0.000000 0.032006 0.000000
# 6 0.000000 0.000000 0.000000 0.000000 0.000000 0.033121
#
#
# Mechanical properties :
#
#
# Convention : Reuss Voigt Hill
#
# Bulk Modulus (GPa) = 36.23425 52.95853 44.59639
# Shear Modulus (GPa) = 18.32533 23.21292 20.76912
#
# Velocity S-wave (km/s) = 3.18566 3.58541 3.39143
# Velocity P-wave (km/s) = 5.79634 6.81677 6.32716
#
# Compressibility (1/GPa) = 0.02759820
#
# Stress axis : x y z
#
# Youngs Moduli (GPa) = 72.24039 58.42298 25.12191
#
# Poissons Ratio (x) = 0.30305 0.27322
# Poissons Ratio (y) = 0.37472 0.13868
# Poissons Ratio (z) = 0.78568 0.32252
#
# Static dielectric constant tensor:
#      x y z
#    x 3.287900 0.000000 0.000000 
#    y 0.000000 3.172010 0.000000 
#    z 0.000000 0.000000 3.449180 
# 
# 
# High freq. dielectric constant tensor:
#      x y z
#    x 1.683520 0.000000 0.000000 
#    y 0.000000 1.685820 0.000000 
#    z 0.000000 0.000000 1.693160 
# 
# From -- ./inp_files/71885.got.cif
#   From: 2010.03.12/outbox.cif.g09.slc.cpg/sg65_36_cif.got.tgz:71885.got - 2010.04.10 20:52:16.
