data_PCOD8267745
_publ_section_title
;
Structure prediction by ZEFSAII (Michael W. Deem and Ramdas Pophale) SiO2 
 PCOD8267745
Probable space group: C M M M
;
_chemical_formula_sum "Si O2"
_cell_formula_units_Z 96
_cell_length_a 22.675263
_cell_length_b 19.102135
_cell_length_c 13.282117
_cell_angle_alpha 90.000000
_cell_angle_beta 90.000000
_cell_angle_gamma 90.000000
_cell_volume 5753.094987
_symmetry_space_group_name_H-M "C M M M"
_symmetry_group_IT_number 65
_symmetry_cell_setting 'orthorhombic'
loop_
_space_group_symop_operation_xyz
x,y,z
-x,-y,z
x,-y,-z
-x,y,-z
-x,-y,-z
x,y,-z
-x,y,z
x,-y,z
1/2+x,1/2+y,z
1/2-x,1/2-y,z
1/2+x,1/2-y,-z
1/2-x,1/2+y,-z
1/2-x,1/2-y,-z
1/2+x,1/2+y,-z
1/2-x,1/2+y,z
1/2+x,1/2-y,z
loop_
_atom_site_type_symbol
_atom_site_label
_atom_site_fract_x
_atom_site_fract_y
_atom_site_fract_z
Si Si1 0.670040 0.917910 0.883789
Si Si2 0.930004 0.500000 0.389008
Si Si3 0.622195 0.783821 0.612868
Si Si4 0.932517 0.000000 0.619549
Si Si5 0.235737 0.672160 0.274708
Si Si6 0.150438 0.125456 0.613740
Si Si7 0.066895 0.379332 0.244196
O O1 0.716825 0.874833 0.819228
O O2 0.604794 0.889182 0.856606
O O3 0.675226 0.000000 0.859894
O O4 0.681953 0.902098 0.000000
O O5 0.901201 0.500000 0.500000
O O6 0.908310 0.567128 0.327959
O O7 0.000000 0.500000 0.397428
O O8 0.605279 0.809582 0.500000
O O9 0.685650 0.817413 0.640322
O O10 0.619734 0.700563 0.615518
O O11 0.574942 0.805538 0.698710
O O12 0.896093 0.068476 0.657155
O O13 0.937069 0.000000 0.500000
O O14 0.000000 0.000000 0.663465
O O15 0.250000 0.750000 0.233725
O O16 0.290400 0.629673 0.320786
O O17 0.168267 0.104693 0.500000
O O18 0.000000 0.392377 0.212007
#
# Coordination Sequence:
#
# PCOD8267745 Si02
#       7
#    16   8  16   8  16  16  16
#     4  10  21  35  50  69  94 123 159 206 251 291
#     4   9  16  26  40  59  86 118 150 185 222 260
#     4   9  17  29  46  70  99 128 160 198 238 283
#     4   9  18  30  43  66 100 132 164 194 219 266
#     4   9  18  32  51  73  95 121 156 201 247 295
#     4   9  17  30  49  71  98 132 160 188 235 289
#     4  10  19  31  46  66  93 128 166 200 233 277
#
# _framework density 16.686669999999999
#
# number of rings (size 3 to 8) (size 9 to 14) (size 15 to 20)
#    0.000    2.667    0.833    1.000    1.167    4.333 
#    0.000    2.500    0.000    0.000    0.000    0.000 
#    0.000    1.333    0.000    0.000    0.000    0.833 
#
# Total GULP energy -594927.856102 kJ/mol
# GULP energy per Si atom -12394.330335 kJ/mol
# Density = 1.664869 g / cm^3
# Si number density = 16.686670 Si / 1000 Ang^3
#
#
#
# Elastic Constant Matrix: (Units=GPa)
#
#
# Indices 1 2 3 4 5 6 
#
# 1 94.5485 47.9940 34.4561 0.0000 0.0000 0.0000
# 2 47.9940 87.1345 44.2647 0.0000 0.0000 0.0000
# 3 34.4561 44.2647 81.1865 0.0000 0.0000 0.0000
# 4 0.0000 0.0000 0.0000 22.9865 0.0000 0.0000
# 5 0.0000 0.0000 0.0000 0.0000 16.8838 0.0000
# 6 0.0000 0.0000 0.0000 0.0000 0.0000 23.0320
#
#
#
# Elastic Compliance Matrix: (Units=1/GPa)
#
#
# Indices 1 2 3 4 5 6 
#
# 1 0.015064 -0.006984 -0.002585 0.000000 0.000000 0.000000
# 2 -0.006984 0.019111 -0.007456 0.000000 0.000000 0.000000
# 3 -0.002585 -0.007456 0.017480 0.000000 0.000000 0.000000
# 4 0.000000 0.000000 0.000000 0.043504 0.000000 0.000000
# 5 0.000000 0.000000 0.000000 0.000000 0.059228 0.000000
# 6 0.000000 0.000000 0.000000 0.000000 0.000000 0.043418
#
#
# Mechanical properties :
#
#
# Convention : Reuss Voigt Hill
#
# Bulk Modulus (GPa) = 56.80410 57.36656 57.08533
# Shear Modulus (GPa) = 21.03296 21.65743 21.34519
#
# Velocity S-wave (km/s) = 3.55415 3.60653 3.58044
# Velocity P-wave (km/s) = 7.13850 7.19695 7.16778
#
# Compressibility (1/GPa) = 0.01760436
#
# Stress axis : x y z
#
# Youngs Moduli (GPa) = 66.38406 52.32674 57.20956
#
# Poissons Ratio (x) = 0.36544 0.14791
# Poissons Ratio (y) = 0.46361 0.42653
# Poissons Ratio (z) = 0.17164 0.39013
#
# Static dielectric constant tensor:
#      x y z
#    x 3.048620 0.000000 0.000000 
#    y 0.000000 3.268830 0.000000 
#    z 0.000000 0.000000 2.914690 
# 
# 
# High freq. dielectric constant tensor:
#      x y z
#    x 1.633760 0.000000 0.000000 
#    y 0.000000 1.650040 0.000000 
#    z 0.000000 0.000000 1.614010 
# 
# From -- ./inp_files/30984.got.cif
#   From: 2010.03.12/outbox.cif.g09.slc.cpg/sg65_16_cif.got.tgz:30984.got - 2010.04.10 20:52:16.
