data_PCOD8267861
_publ_section_title
;
Structure prediction by ZEFSAII (Michael W. Deem and Ramdas Pophale) SiO2 
 PCOD8267861
Probable space group: C M M M
;
_chemical_formula_sum "Si O2"
_cell_formula_units_Z 88
_cell_length_a 18.944214
_cell_length_b 9.013363
_cell_length_c 28.907317
_cell_angle_alpha 90.000000
_cell_angle_beta 90.000000
_cell_angle_gamma 90.000000
_cell_volume 4935.955526
_symmetry_space_group_name_H-M "C M M M"
_symmetry_group_IT_number 65
_symmetry_cell_setting 'orthorhombic'
loop_
_space_group_symop_operation_xyz
x,y,z
-x,-y,z
x,-y,-z
-x,y,-z
-x,-y,-z
x,y,-z
-x,y,z
x,-y,z
1/2+x,1/2+y,z
1/2-x,1/2-y,z
1/2+x,1/2-y,-z
1/2-x,1/2+y,-z
1/2-x,1/2-y,-z
1/2+x,1/2+y,-z
1/2-x,1/2+y,z
1/2+x,1/2-y,z
loop_
_atom_site_type_symbol
_atom_site_label
_atom_site_fract_x
_atom_site_fract_y
_atom_site_fract_z
Si Si1 0.173427 0.323114 0.726402
Si Si2 0.079890 0.674574 0.640485
Si Si3 0.583855 0.332210 0.449621
Si Si4 0.079009 0.823335 0.000000
Si Si5 0.674778 0.326408 0.815331
Si Si6 0.675088 0.327404 0.917186
O O1 0.179519 0.500000 0.729777
O O2 0.250000 0.250000 0.720401
O O3 0.126269 0.270623 0.683434
O O4 0.135306 0.257660 0.772974
O O5 0.080773 0.500000 0.636627
O O6 0.113996 0.736174 0.592875
O O7 0.000000 0.733420 0.647703
O O8 0.610992 0.273623 0.500000
O O9 0.500000 0.323045 0.449273
O O10 0.609640 0.500000 0.442476
O O11 0.119670 0.764742 0.954484
O O12 0.000000 0.756662 0.000000
O O13 0.075505 0.000000 0.000000
O O14 0.681750 0.500000 0.803503
O O15 0.750000 0.250000 0.818342
O O16 0.640390 0.301767 0.866072
O O17 0.689530 0.500000 0.925414
O O18 0.750000 0.250000 0.923754
#
# Coordination Sequence:
#
# PCOD8267861 Si02
#       6
#    16  16  16   8  16  16
#     4  10  19  31  48  68  91 120 152 185 223 268
#     4   9  18  31  46  66  91 118 149 184 222 266
#     4   8  14  25  42  65  91 117 146 182 224 266
#     4   9  17  30  47  67  94 125 152 180 220 269
#     4   9  16  27  44  67  91 114 147 187 224 263
#     4   9  17  29  48  71  90 114 150 189 225 261
#
# _framework density 17.828361999999998
#
# number of rings (size 3 to 8) (size 9 to 14) (size 15 to 20)
#    0.000    3.000    0.000    3.000    0.000    2.545 
#    0.000    2.727    0.000    2.727    0.000    0.000 
#    0.000    0.000    0.000    0.000    0.000    0.000 
#
# Total GULP energy -545141.051000 kJ/mol
# GULP energy per Si atom -12389.569341 kJ/mol
# Density = 1.778778 g / cm^3
# Si number density = 17.828362 Si / 1000 Ang^3
#
#
#
# Elastic Constant Matrix: (Units=GPa)
#
#
# Indices 1 2 3 4 5 6 
#
# 1 61.2203 23.0931 63.5953 0.0000 0.0000 0.0000
# 2 23.0931 52.7959 51.0345 0.0000 0.0000 0.0000
# 3 63.5953 51.0345 206.2480 0.0000 0.0000 0.0000
# 4 0.0000 0.0000 0.0000 23.9151 0.0000 0.0000
# 5 0.0000 0.0000 0.0000 0.0000 25.2889 0.0000
# 6 0.0000 0.0000 0.0000 0.0000 0.0000 14.5046
#
#
#
# Elastic Compliance Matrix: (Units=1/GPa)
#
#
# Indices 1 2 3 4 5 6 
#
# 1 0.024836 -0.004549 -0.006533 0.000000 0.000000 0.000000
# 2 -0.004549 0.025729 -0.004964 0.000000 0.000000 0.000000
# 3 -0.006533 -0.004964 0.008091 0.000000 0.000000 0.000000
# 4 0.000000 0.000000 0.000000 0.041815 0.000000 0.000000
# 5 0.000000 0.000000 0.000000 0.000000 0.039543 0.000000
# 6 0.000000 0.000000 0.000000 0.000000 0.000000 0.068944
#
#
# Mechanical properties :
#
#
# Convention : Reuss Voigt Hill
#
# Bulk Modulus (GPa) = 37.64255 66.19002 51.91628
# Shear Modulus (GPa) = 20.00778 24.91116 22.45947
#
# Velocity S-wave (km/s) = 3.35363 3.74207 3.55316
# Velocity P-wave (km/s) = 6.01294 7.47514 6.78355
#
# Compressibility (1/GPa) = 0.02656568
#
# Stress axis : x y z
#
# Youngs Moduli (GPa) = 40.26363 38.86709 123.59358
#
# Poissons Ratio (x) = 0.17680 0.80738
# Poissons Ratio (y) = 0.18316 0.61349
# Poissons Ratio (z) = 0.26302 0.19293
#
# Static dielectric constant tensor:
#      x y z
#    x 2.947470 0.000000 0.000000 
#    y 0.000000 3.235930 0.000000 
#    z 0.000000 0.000000 4.320760 
# 
# 
# High freq. dielectric constant tensor:
#      x y z
#    x 1.633550 0.000000 0.000000 
#    y 0.000000 1.680930 0.000000 
#    z 0.000000 0.000000 1.719510 
# 
# From -- ./inp_files/74758.got.cif
#   From: 2010.03.12/outbox.cif.g09.slc.cpg/sg65_38_cif.got.tgz:74758.got - 2010.04.10 20:52:16.
