data_PCOD8267259
_publ_section_title
;
Structure prediction by ZEFSAII (Michael W. Deem and Ramdas Pophale) SiO2 
 PCOD8267259
Probable space group: C M M M
;
_chemical_formula_sum "Si O2"
_cell_formula_units_Z 104
_cell_length_a 17.646492
_cell_length_b 25.110008
_cell_length_c 13.408854
_cell_angle_alpha 90.000000
_cell_angle_beta 90.000000
_cell_angle_gamma 90.000000
_cell_volume 5941.510880
_symmetry_space_group_name_H-M "C M M M"
_symmetry_group_IT_number 65
_symmetry_cell_setting 'orthorhombic'
loop_
_space_group_symop_operation_xyz
x,y,z
-x,-y,z
x,-y,-z
-x,y,-z
-x,-y,-z
x,y,-z
-x,y,z
x,-y,z
1/2+x,1/2+y,z
1/2-x,1/2-y,z
1/2+x,1/2-y,-z
1/2-x,1/2+y,-z
1/2-x,1/2-y,-z
1/2+x,1/2+y,-z
1/2-x,1/2+y,z
1/2+x,1/2-y,z
loop_
_atom_site_type_symbol
_atom_site_label
_atom_site_fract_x
_atom_site_fract_y
_atom_site_fract_z
Si Si1 0.862250 0.440055 0.116865
Si Si2 0.913621 0.343861 0.756510
Si Si3 0.814470 0.400357 0.617245
Si Si4 0.708660 0.561145 0.225398
Si Si5 0.410111 0.251894 0.109755
Si Si6 0.587934 0.628831 0.883843
Si Si7 0.584709 0.000000 0.382059
O O1 0.888625 0.500000 0.148857
O O2 0.911624 0.395714 0.172679
O O3 0.773841 0.432438 0.142587
O O4 0.873770 0.431870 0.000000
O O5 0.859239 0.349079 0.659572
O O6 0.880276 0.292430 0.813783
O O7 0.000000 0.334964 0.721154
O O8 0.801128 0.395516 0.500000
O O9 0.734252 0.409748 0.671577
O O10 0.868755 0.448698 0.652598
O O11 0.689736 0.500000 0.248806
O O12 0.633108 0.588277 0.185222
O O13 0.500000 0.249007 0.103045
O O14 0.385731 0.311098 0.143544
O O15 0.376138 0.239659 0.000000
O O16 0.500000 0.620679 0.859042
O O17 0.603529 0.617131 0.000000
O O18 0.500000 0.000000 0.335974
O O19 0.578788 0.000000 0.500000
#
# Coordination Sequence:
#
# PCOD8267259 Si02
#       7
#    16  16  16  16  16  16   8
#     4   9  18  30  41  60  96 135 164 193 237 295
#     4  10  19  29  47  71  95 128 171 212 249 290
#     4  10  20  34  49  70  98 131 170 210 254 295
#     4  10  19  32  51  73 100 133 164 197 250 311
#     4   8  15  30  50  72 100 132 164 200 246 300
#     4   9  18  33  55  81 104 126 157 201 251 303
#     4   9  16  28  48  70  92 121 162 210 250 283
#
# _framework density 17.503965999999998
#
# number of rings (size 3 to 8) (size 9 to 14) (size 15 to 20)
#    0.000    2.692    0.769    2.308    1.077    3.385 
#    0.000    4.615    0.000   10.615    0.000    3.231 
#    0.000    0.000    0.000    0.000    0.000    0.000 
#
# Total GULP energy -644652.907801 kJ/mol
# GULP energy per Si atom -12397.171304 kJ/mol
# Density = 1.746413 g / cm^3
# Si number density = 17.503966 Si / 1000 Ang^3
#
#
#
# Elastic Constant Matrix: (Units=GPa)
#
#
# Indices 1 2 3 4 5 6 
#
# 1 69.3798 40.1387 40.8762 0.0000 0.0000 0.0000
# 2 40.1387 80.3065 48.0846 0.0000 0.0000 0.0000
# 3 40.8762 48.0846 93.5919 0.0000 0.0000 0.0000
# 4 0.0000 0.0000 0.0000 21.2689 0.0000 0.0000
# 5 0.0000 0.0000 0.0000 0.0000 23.9461 0.0000
# 6 0.0000 0.0000 0.0000 0.0000 0.0000 22.5383
#
#
#
# Elastic Compliance Matrix: (Units=1/GPa)
#
#
# Indices 1 2 3 4 5 6 
#
# 1 0.022252 -0.007659 -0.005784 0.000000 0.000000 0.000000
# 2 -0.007659 0.020621 -0.007249 0.000000 0.000000 0.000000
# 3 -0.005784 -0.007249 0.016935 0.000000 0.000000 0.000000
# 4 0.000000 0.000000 0.000000 0.047017 0.000000 0.000000
# 5 0.000000 0.000000 0.000000 0.000000 0.041761 0.000000
# 6 0.000000 0.000000 0.000000 0.000000 0.000000 0.044369
#
#
# Mechanical properties :
#
#
# Convention : Reuss Voigt Hill
#
# Bulk Modulus (GPa) = 54.27624 55.71971 54.99797
# Shear Modulus (GPa) = 20.79176 21.16256 20.97716
#
# Velocity S-wave (km/s) = 3.45023 3.48086 3.46558
# Velocity P-wave (km/s) = 6.85182 6.93231 6.89218
#
# Compressibility (1/GPa) = 0.01842427
#
# Stress axis : x y z
#
# Youngs Moduli (GPa) = 44.94010 48.49414 59.04862
#
# Poissons Ratio (x) = 0.37141 0.34151
# Poissons Ratio (y) = 0.34419 0.42807
# Poissons Ratio (z) = 0.25991 0.35156
#
# Static dielectric constant tensor:
#      x y z
#    x 2.963850 0.000000 0.000000 
#    y 0.000000 3.373490 0.000000 
#    z 0.000000 0.000000 3.180690 
# 
# 
# High freq. dielectric constant tensor:
#      x y z
#    x 1.650280 0.000000 0.000000 
#    y 0.000000 1.670720 0.000000 
#    z 0.000000 0.000000 1.666500 
# 
# From -- ./inp_files/43065.got.cif
#   From: 2010.03.12/outbox.cif.g09.slc.cpg/sg65_22_cif.got.tgz:43065.got - 2010.04.10 20:52:16.
