data_PCOD8267361
_publ_section_title
;
Structure prediction by ZEFSAII (Michael W. Deem and Ramdas Pophale) SiO2 
 PCOD8267361
Probable space group: C M M M
;
_chemical_formula_sum "Si O2"
_cell_formula_units_Z 80
_cell_length_a 16.485227
_cell_length_b 22.208981
_cell_length_c 11.899705
_cell_angle_alpha 90.000000
_cell_angle_beta 90.000000
_cell_angle_gamma 90.000000
_cell_volume 4356.721104
_symmetry_space_group_name_H-M "C M M M"
_symmetry_group_IT_number 65
_symmetry_cell_setting 'orthorhombic'
loop_
_space_group_symop_operation_xyz
x,y,z
-x,-y,z
x,-y,-z
-x,y,-z
-x,-y,-z
x,y,-z
-x,y,z
x,-y,z
1/2+x,1/2+y,z
1/2-x,1/2-y,z
1/2+x,1/2-y,-z
1/2-x,1/2+y,-z
1/2-x,1/2-y,-z
1/2+x,1/2+y,-z
1/2-x,1/2+y,z
1/2+x,1/2-y,z
loop_
_atom_site_type_symbol
_atom_site_label
_atom_site_fract_x
_atom_site_fract_y
_atom_site_fract_z
Si Si1 0.906428 0.067413 0.797547
Si Si2 0.587823 0.732047 0.621801
Si Si3 0.905423 0.850955 0.000000
Si Si4 0.705192 0.378802 0.372395
Si Si5 0.597484 0.791505 0.000000
Si Si6 0.813588 0.695578 0.779921
O O1 0.851419 0.070683 0.685140
O O2 0.000000 0.081126 0.766457
O O3 0.898608 0.000000 0.847457
O O4 0.871423 0.116270 0.887643
O O5 0.584821 0.763331 0.500000
O O6 0.500000 0.704577 0.654675
O O7 0.653739 0.680967 0.618527
O O8 0.609359 0.782626 0.709917
O O9 0.884092 0.780592 0.000000
O O10 0.000000 0.863739 0.000000
O O11 0.732202 0.398408 0.500000
O O12 0.778995 0.362381 0.287805
O O13 0.644615 0.822941 0.102995
O O14 0.500000 0.803370 0.000000
O O15 0.750000 0.750000 0.797257
#
# Coordination Sequence:
#
# PCOD8267361 Si02
#       6
#    16  16   8  16   8  16
#     4  10  20  33  50  71  97 133 177 219 249 278
#     4   9  16  27  44  64  89 124 163 199 236 286
#     4   9  17  31  49  69  95 128 165 203 245 286
#     4  10  20  32  46  66  96 132 167 206 252 295
#     4  11  21  32  50  74 100 130 163 202 243 291
#     4  10  19  30  44  66  96 127 161 196 240 296
#
# _framework density 18.362432999999999
#
# number of rings (size 3 to 8) (size 9 to 14) (size 15 to 20)
#    0.000    2.200    0.000    4.800    0.000    7.600 
#    0.000    1.000    0.000    0.000    0.000    0.000 
#    0.000    4.000    0.000    9.800    0.000    0.200 
#
# Total GULP energy -495569.280685 kJ/mol
# GULP energy per Si atom -12389.232017 kJ/mol
# Density = 1.832064 g / cm^3
# Si number density = 18.362433 Si / 1000 Ang^3
#
#
#
# Elastic Constant Matrix: (Units=GPa)
#
#
# Indices 1 2 3 4 5 6 
#
# 1 64.6609 12.2384 48.8817 0.0000 0.0000 0.0000
# 2 12.2384 33.1173 25.6745 0.0000 0.0000 0.0000
# 3 48.8817 25.6745 129.6241 0.0000 0.0000 0.0000
# 4 0.0000 0.0000 0.0000 15.3161 0.0000 0.0000
# 5 0.0000 0.0000 0.0000 0.0000 22.5134 0.0000
# 6 0.0000 0.0000 0.0000 0.0000 0.0000 20.3284
#
#
#
# Elastic Compliance Matrix: (Units=1/GPa)
#
#
# Indices 1 2 3 4 5 6 
#
# 1 0.021742 -0.001983 -0.007806 0.000000 0.000000 0.000000
# 2 -0.001983 0.035854 -0.006354 0.000000 0.000000 0.000000
# 3 -0.007806 -0.006354 0.011917 0.000000 0.000000 0.000000
# 4 0.000000 0.000000 0.000000 0.065291 0.000000 0.000000
# 5 0.000000 0.000000 0.000000 0.000000 0.044418 0.000000
# 6 0.000000 0.000000 0.000000 0.000000 0.000000 0.049192
#
#
# Mechanical properties :
#
#
# Convention : Reuss Voigt Hill
#
# Bulk Modulus (GPa) = 26.86205 44.55460 35.70833
# Shear Modulus (GPa) = 18.30771 21.00542 19.65656
#
# Velocity S-wave (km/s) = 3.16099 3.38588 3.27536
# Velocity P-wave (km/s) = 5.28990 6.29303 5.81314
#
# Compressibility (1/GPa) = 0.03722723
#
# Stress axis : x y z
#
# Youngs Moduli (GPa) = 45.99427 27.89063 83.91477
#
# Poissons Ratio (x) = 0.05530 0.65505
# Poissons Ratio (y) = 0.09120 0.53318
# Poissons Ratio (z) = 0.35904 0.17721
#
# Static dielectric constant tensor:
#      x y z
#    x 3.394250 0.000000 0.000000 
#    y 0.000000 2.901780 0.000000 
#    z 0.000000 0.000000 3.876690 
# 
# 
# High freq. dielectric constant tensor:
#      x y z
#    x 1.697010 0.000000 0.000000 
#    y 0.000000 1.646960 0.000000 
#    z 0.000000 0.000000 1.735450 
# 
# From -- ./inp_files/24685.got.cif
#   From: 2010.03.12/outbox.cif.g09.slc.cpg/sg65_13_cif.got.tgz:24685.got - 2010.04.10 20:52:16.
