data_PCOD8267662
_publ_section_title
;
Structure prediction by ZEFSAII (Michael W. Deem and Ramdas Pophale) SiO2 
 PCOD8267662
Probable space group: C M M M
;
_chemical_formula_sum "Si O2"
_cell_formula_units_Z 72
_cell_length_a 21.562155
_cell_length_b 19.172704
_cell_length_c 9.336951
_cell_angle_alpha 90.000000
_cell_angle_beta 90.000000
_cell_angle_gamma 90.000000
_cell_volume 3859.940505
_symmetry_space_group_name_H-M "C M M M"
_symmetry_group_IT_number 65
_symmetry_cell_setting 'orthorhombic'
loop_
_space_group_symop_operation_xyz
x,y,z
-x,-y,z
x,-y,-z
-x,y,-z
-x,-y,-z
x,y,-z
-x,y,z
x,-y,z
1/2+x,1/2+y,z
1/2-x,1/2-y,z
1/2+x,1/2-y,-z
1/2-x,1/2+y,-z
1/2-x,1/2-y,-z
1/2+x,1/2+y,-z
1/2-x,1/2+y,z
1/2+x,1/2-y,z
loop_
_atom_site_type_symbol
_atom_site_label
_atom_site_fract_x
_atom_site_fract_y
_atom_site_fract_z
Si Si1 0.928033 0.075841 0.844380
Si Si2 0.500000 0.080279 0.330193
Si Si3 0.361802 0.677153 0.334978
Si Si4 0.376370 0.161609 0.332331
Si Si5 0.255944 0.832853 0.837689
O O1 0.918330 0.129788 0.715198
O O2 0.000000 0.065675 0.858520
O O3 0.898082 0.000000 0.809462
O O4 0.902407 0.102881 0.000000
O O5 0.500000 0.080596 0.500000
O O6 0.438134 0.121199 0.277059
O O7 0.500000 0.000000 0.273046
O O8 0.345432 0.668293 0.500000
O O9 0.382360 0.756135 0.301912
O O10 0.304716 0.643279 0.247287
O O11 0.364829 0.146451 0.500000
O O12 0.316789 0.136441 0.241774
O O13 0.250000 0.750000 0.832738
O O14 0.256695 0.861049 0.000000
#
# Coordination Sequence:
#
# PCOD8267662 Si02
#       5
#    16   8  16  16  16
#     4   9  19  35  51  69 100 139 172 204 246 298
#     4   9  18  34  55  77 104 139 174 212 261 315
#     4  10  19  30  51  79 106 132 168 216 261 307
#     4   9  18  32  52  77 104 132 170 216 262 306
#     4   9  17  31  51  74 102 134 171 213 260 310
#
# _framework density 18.653137000000001
#
# number of rings (size 3 to 8) (size 9 to 14) (size 15 to 20)
#    0.000    2.778    0.000    2.000    1.556    4.444 
#    0.000    2.778    0.000    5.333    0.000    0.000 
#    0.000    0.000    0.000    0.000    0.000    0.000 
#
# Total GULP energy -446032.166700 kJ/mol
# GULP energy per Si atom -12389.782408 kJ/mol
# Density = 1.861068 g / cm^3
# Si number density = 18.653137 Si / 1000 Ang^3
#
#
#
# Elastic Constant Matrix: (Units=GPa)
#
#
# Indices 1 2 3 4 5 6 
#
# 1 108.8165 48.1716 46.8077 0.0000 0.0000 0.0000
# 2 48.1716 76.0099 43.2635 0.0000 0.0000 0.0000
# 3 46.8077 43.2635 80.9396 0.0000 0.0000 0.0000
# 4 0.0000 0.0000 0.0000 22.1438 0.0000 0.0000
# 5 0.0000 0.0000 0.0000 0.0000 31.5841 0.0000
# 6 0.0000 0.0000 0.0000 0.0000 0.0000 10.7230
#
#
#
# Elastic Compliance Matrix: (Units=1/GPa)
#
#
# Indices 1 2 3 4 5 6 
#
# 1 0.013964 -0.006113 -0.004808 0.000000 0.000000 0.000000
# 2 -0.006113 0.021585 -0.008002 0.000000 0.000000 0.000000
# 3 -0.004808 -0.008002 0.019413 0.000000 0.000000 0.000000
# 4 0.000000 0.000000 0.000000 0.045159 0.000000 0.000000
# 5 0.000000 0.000000 0.000000 0.000000 0.031661 0.000000
# 6 0.000000 0.000000 0.000000 0.000000 0.000000 0.093258
#
#
# Mechanical properties :
#
#
# Convention : Reuss Voigt Hill
#
# Bulk Modulus (GPa) = 58.42787 60.25019 59.33903
# Shear Modulus (GPa) = 18.61556 21.39174 20.00365
#
# Velocity S-wave (km/s) = 3.16252 3.39014 3.27831
# Velocity P-wave (km/s) = 6.68780 6.90612 6.79784
#
# Compressibility (1/GPa) = 0.01711512
#
# Stress axis : x y z
#
# Youngs Moduli (GPa) = 71.61174 46.32783 51.51268
#
# Poissons Ratio (x) = 0.28322 0.24767
# Poissons Ratio (y) = 0.43778 0.41222
# Poissons Ratio (z) = 0.34430 0.37073
#
# Static dielectric constant tensor:
#      x y z
#    x 3.505020 0.000000 0.000000 
#    y 0.000000 3.254360 0.000000 
#    z 0.000000 0.000000 3.378850 
# 
# 
# High freq. dielectric constant tensor:
#      x y z
#    x 1.724680 0.000000 0.000000 
#    y 0.000000 1.698040 0.000000 
#    z 0.000000 0.000000 1.715970 
# 
# From -- ./inp_files/11227.got.cif
#   From: 2010.03.12/outbox.cif.g09.slc.cpg/sg65_6_cif.got.tgz:11227.got - 2010.04.10 20:52:16.
