data_PCOD8267250
_publ_section_title
;
Structure prediction by ZEFSAII (Michael W. Deem and Ramdas Pophale) SiO2 
 PCOD8267250
Probable space group: C M M M
;
_chemical_formula_sum "Si O2"
_cell_formula_units_Z 72
_cell_length_a 16.766465
_cell_length_b 21.734670
_cell_length_c 11.871221
_cell_angle_alpha 90.000000
_cell_angle_beta 90.000000
_cell_angle_gamma 90.000000
_cell_volume 4326.034189
_symmetry_space_group_name_H-M "C M M M"
_symmetry_group_IT_number 65
_symmetry_cell_setting 'orthorhombic'
loop_
_space_group_symop_operation_xyz
x,y,z
-x,-y,z
x,-y,-z
-x,y,-z
-x,-y,-z
x,y,-z
-x,y,z
x,-y,z
1/2+x,1/2+y,z
1/2-x,1/2-y,z
1/2+x,1/2-y,-z
1/2-x,1/2+y,-z
1/2-x,1/2-y,-z
1/2+x,1/2+y,-z
1/2-x,1/2+y,z
1/2+x,1/2-y,z
loop_
_atom_site_type_symbol
_atom_site_label
_atom_site_fract_x
_atom_site_fract_y
_atom_site_fract_z
Si Si1 0.695012 0.305869 0.295475
Si Si2 0.091563 0.727994 0.870491
Si Si3 0.412498 0.679721 0.500000
Si Si4 0.405285 0.000000 0.366434
Si Si5 0.154342 0.626810 0.277780
Si Si6 0.913370 0.678220 0.500000
O O1 0.750000 0.250000 0.343794
O O2 0.644163 0.279405 0.191626
O O3 0.638093 0.336461 0.389054
O O4 0.751666 0.361856 0.252478
O O5 0.103546 0.659016 0.821223
O O6 0.000000 0.746979 0.855053
O O7 0.117521 0.726977 0.000000
O O8 0.500000 0.646157 0.500000
O O9 0.431255 0.750926 0.500000
O O10 0.368181 0.943689 0.296751
O O11 0.500000 0.000000 0.354982
O O12 0.380963 0.000000 0.500000
O O13 0.137119 0.662354 0.392306
O O14 0.000000 0.642995 0.500000
#
# Coordination Sequence:
#
# PCOD8267250 Si02
#       6
#    16  16   8   8  16   8
#     4  10  19  29  46  71 100 129 160 199 251 298
#     4  10  20  34  52  74 101 131 162 201 249 301
#     4  11  18  26  44  71 100 126 157 198 250 309
#     4  11  22  34  51  73  99 136 174 205 235 280
#     4  11  21  32  49  71 101 131 168 206 243 283
#     4  11  17  26  46  68  97 129 158 197 243 292
#
# _framework density 16.643419000000002
#
# number of rings (size 3 to 8) (size 9 to 14) (size 15 to 20)
#    0.000    1.444    5.556    3.667    0.000    4.000 
#    0.000    0.556    0.000    2.000    0.000    3.889 
#    0.000    1.778    0.000    0.000    0.000    0.000 
#
# Total GULP energy -446155.337915 kJ/mol
# GULP energy per Si atom -12393.203831 kJ/mol
# Density = 1.660554 g / cm^3
# Si number density = 16.643419 Si / 1000 Ang^3
#
#
#
# Elastic Constant Matrix: (Units=GPa)
#
#
# Indices 1 2 3 4 5 6 
#
# 1 105.0844 39.3490 48.3526 0.0000 0.0000 0.0000
# 2 39.3490 79.0394 30.4766 0.0000 0.0000 0.0000
# 3 48.3526 30.4766 113.8266 0.0000 0.0000 0.0000
# 4 0.0000 0.0000 0.0000 13.5574 0.0000 0.0000
# 5 0.0000 0.0000 0.0000 0.0000 26.1206 0.0000
# 6 0.0000 0.0000 0.0000 0.0000 0.0000 18.3471
#
#
#
# Elastic Compliance Matrix: (Units=1/GPa)
#
#
# Indices 1 2 3 4 5 6 
#
# 1 0.013385 -0.004986 -0.004351 0.000000 0.000000 0.000000
# 2 -0.004986 0.015966 -0.002157 0.000000 0.000000 0.000000
# 3 -0.004351 -0.002157 0.011211 0.000000 0.000000 0.000000
# 4 0.000000 0.000000 0.000000 0.073760 0.000000 0.000000
# 5 0.000000 0.000000 0.000000 0.000000 0.038284 0.000000
# 6 0.000000 0.000000 0.000000 0.000000 0.000000 0.054504
#
#
# Mechanical properties :
#
#
# Convention : Reuss Voigt Hill
#
# Bulk Modulus (GPa) = 56.90045 59.36742 58.13393
# Shear Modulus (GPa) = 21.19037 23.58985 22.39011
#
# Velocity S-wave (km/s) = 3.57206 3.76888 3.67179
# Velocity P-wave (km/s) = 7.16066 7.39506 7.27880
#
# Compressibility (1/GPa) = 0.01757455
#
# Stress axis : x y z
#
# Youngs Moduli (GPa) = 74.70957 62.63398 89.19818
#
# Poissons Ratio (x) = 0.31229 0.38809
# Poissons Ratio (y) = 0.37250 0.19238
# Poissons Ratio (z) = 0.32506 0.13509
#
# Static dielectric constant tensor:
#      x y z
#    x 3.479910 0.000000 0.000000 
#    y 0.000000 2.895530 0.000000 
#    z 0.000000 0.000000 3.083620 
# 
# 
# High freq. dielectric constant tensor:
#      x y z
#    x 1.660360 0.000000 0.000000 
#    y 0.000000 1.590470 0.000000 
#    z 0.000000 0.000000 1.633300 
# 
# From -- ./inp_files/26615.got.cif
#   From: 2010.03.12/outbox.cif.g09.slc.cpg/sg65_14_cif.got.tgz:26615.got - 2010.04.10 20:52:16.
