data_PCOD8267175
_publ_section_title
;
Structure prediction by ZEFSAII (Michael W. Deem and Ramdas Pophale) SiO2 
 PCOD8267175
Probable space group: C M M M
;
_chemical_formula_sum "Si O2"
_cell_formula_units_Z 104
_cell_length_a 27.221748
_cell_length_b 9.070612
_cell_length_c 26.154543
_cell_angle_alpha 90.000000
_cell_angle_beta 90.000000
_cell_angle_gamma 90.000000
_cell_volume 6458.025201
_symmetry_space_group_name_H-M "C M M M"
_symmetry_group_IT_number 65
_symmetry_cell_setting 'orthorhombic'
loop_
_space_group_symop_operation_xyz
x,y,z
-x,-y,z
x,-y,-z
-x,y,-z
-x,-y,-z
x,y,-z
-x,y,z
x,-y,z
1/2+x,1/2+y,z
1/2-x,1/2-y,z
1/2+x,1/2-y,-z
1/2-x,1/2+y,-z
1/2-x,1/2-y,-z
1/2+x,1/2+y,-z
1/2-x,1/2+y,z
1/2+x,1/2-y,z
loop_
_atom_site_type_symbol
_atom_site_label
_atom_site_fract_x
_atom_site_fract_y
_atom_site_fract_z
Si Si1 0.200165 0.671970 0.745391
Si Si2 0.896280 0.331754 0.806209
Si Si3 0.943395 0.173031 0.898682
Si Si4 0.200468 0.828837 0.556862
Si Si5 0.144142 0.172543 0.344124
Si Si6 0.941675 0.334006 0.000000
Si Si7 0.443798 0.829605 0.299704
O O1 0.209673 0.500000 0.735358
O O2 0.250000 0.750000 0.763695
O O3 0.160040 0.695428 0.789900
O O4 0.181643 0.742889 0.692747
O O5 0.904510 0.500000 0.823957
O O6 0.909602 0.223403 0.851969
O O7 0.931908 0.293031 0.759071
O O8 0.000000 0.217710 0.888079
O O9 0.938014 0.000000 0.906447
O O10 0.922675 0.250683 0.949598
O O11 0.183749 0.776919 0.500000
O O12 0.250000 0.750000 0.574438
O O13 0.157824 0.791712 0.597255
O O14 0.212713 0.000000 0.557060
O O15 0.088723 0.229210 0.336879
O O16 0.147166 0.000000 0.331570
O O17 0.920848 0.500000 0.000000
O O18 0.000000 0.332479 0.000000
O O19 0.500000 0.791709 0.311163
O O20 0.431203 0.000000 0.310569
#
# Coordination Sequence:
#
# PCOD8267175 Si02
#       7
#    16  16  16  16  16   8  16
#     4  10  20  33  48  67  93 122 152 187 226 270
#     4   9  18  31  46  65  89 119 152 182 219 268
#     4  10  19  29  43  66  95 122 150 188 227 261
#     4   9  18  31  46  66  91 117 146 182 225 272
#     4  10  19  30  47  69  92 119 150 185 225 272
#     4   9  17  29  45  63  86 121 158 187 221 267
#     4   9  18  32  48  66  91 122 154 189 226 265
#
# _framework density 16.103992999999999
#
# number of rings (size 3 to 8) (size 9 to 14) (size 15 to 20)
#    0.000    2.538    0.000    3.462    0.000    8.308 
#    0.000    0.000    0.000    0.462    0.000    3.769 
#    0.000    0.000    0.000    0.000    0.000    0.000 
#
# Total GULP energy -644847.246590 kJ/mol
# GULP energy per Si atom -12400.908588 kJ/mol
# Density = 1.606734 g / cm^3
# Si number density = 16.103993 Si / 1000 Ang^3
#
#
#
# Elastic Constant Matrix: (Units=GPa)
#
#
# Indices 1 2 3 4 5 6 
#
# 1 85.1189 47.7703 52.6017 0.0000 0.0000 0.0000
# 2 47.7703 91.1071 58.7198 0.0000 0.0000 0.0000
# 3 52.6017 58.7198 107.0091 0.0000 0.0000 0.0000
# 4 0.0000 0.0000 0.0000 27.2567 0.0000 0.0000
# 5 0.0000 0.0000 0.0000 0.0000 19.2585 0.0000
# 6 0.0000 0.0000 0.0000 0.0000 0.0000 28.4972
#
#
#
# Elastic Compliance Matrix: (Units=1/GPa)
#
#
# Indices 1 2 3 4 5 6 
#
# 1 0.018800 -0.006036 -0.005929 0.000000 0.000000 0.000000
# 2 -0.006036 0.018920 -0.007415 0.000000 0.000000 0.000000
# 3 -0.005929 -0.007415 0.016328 0.000000 0.000000 0.000000
# 4 0.000000 0.000000 0.000000 0.036688 0.000000 0.000000
# 5 0.000000 0.000000 0.000000 0.000000 0.051925 0.000000
# 6 0.000000 0.000000 0.000000 0.000000 0.000000 0.035091
#
#
# Mechanical properties :
#
#
# Convention : Reuss Voigt Hill
#
# Bulk Modulus (GPa) = 65.41070 66.82432 66.11751
# Shear Modulus (GPa) = 22.56225 23.27871 22.92048
#
# Velocity S-wave (km/s) = 3.74710 3.80613 3.77673
# Velocity P-wave (km/s) = 7.70888 7.80391 7.75654
#
# Compressibility (1/GPa) = 0.01528802
#
# Stress axis : x y z
#
# Youngs Moduli (GPa) = 53.19188 52.85404 61.24268
#
# Poissons Ratio (x) = 0.31902 0.36312
# Poissons Ratio (y) = 0.32106 0.45412
# Poissons Ratio (z) = 0.31538 0.39192
#
# Static dielectric constant tensor:
#      x y z
#    x 2.972760 0.000000 0.000000 
#    y 0.000000 3.132760 0.000000 
#    z 0.000000 0.000000 3.045750 
# 
# 
# High freq. dielectric constant tensor:
#      x y z
#    x 1.597340 0.000000 0.000000 
#    y 0.000000 1.630750 0.000000 
#    z 0.000000 0.000000 1.610310 
# 
# From -- ./inp_files/72131.got.cif
#   From: 2010.03.12/outbox.cif.g09.slc.cpg/sg65_37_cif.got.tgz:72131.got - 2010.04.10 20:52:16.
