data_PCOD8267681
_publ_section_title
;
Structure prediction by ZEFSAII (Michael W. Deem and Ramdas Pophale) SiO2 
 PCOD8267681
Probable space group: C M M M
;
_chemical_formula_sum "Si O2"
_cell_formula_units_Z 88
_cell_length_a 25.758978
_cell_length_b 16.552566
_cell_length_c 13.322996
_cell_angle_alpha 90.000000
_cell_angle_beta 90.000000
_cell_angle_gamma 90.000000
_cell_volume 5680.621509
_symmetry_space_group_name_H-M "C M M M"
_symmetry_group_IT_number 65
_symmetry_cell_setting 'orthorhombic'
loop_
_space_group_symop_operation_xyz
x,y,z
-x,-y,z
x,-y,-z
-x,y,-z
-x,-y,-z
x,y,-z
-x,y,z
x,-y,z
1/2+x,1/2+y,z
1/2-x,1/2-y,z
1/2+x,1/2-y,-z
1/2-x,1/2+y,-z
1/2-x,1/2-y,-z
1/2+x,1/2+y,-z
1/2-x,1/2+y,z
1/2+x,1/2-y,z
loop_
_atom_site_type_symbol
_atom_site_label
_atom_site_fract_x
_atom_site_fract_y
_atom_site_fract_z
Si Si1 0.642079 0.404876 0.384100
Si Si2 0.938683 0.000000 0.111047
Si Si3 0.438975 0.346886 0.760389
Si Si4 0.192438 0.590720 0.885148
Si Si5 0.130438 0.255324 0.116322
Si Si6 0.719254 0.328384 0.233300
O O1 0.648740 0.383102 0.500000
O O2 0.636155 0.500000 0.366590
O O3 0.590186 0.359385 0.345228
O O4 0.692470 0.371599 0.327176
O O5 0.920439 0.079428 0.169115
O O6 0.000000 0.000000 0.102639
O O7 0.913554 0.000000 0.000000
O O8 0.500000 0.343416 0.740030
O O9 0.420308 0.265543 0.816934
O O10 0.172450 0.500000 0.864599
O O11 0.144994 0.651482 0.861726
O O12 0.241853 0.607751 0.815989
O O13 0.210286 0.602619 0.000000
O O14 0.177927 0.197882 0.148877
O O15 0.117666 0.240363 0.000000
O O16 0.750000 0.250000 0.273407
#
# Coordination Sequence:
#
# PCOD8267681 Si02
#       6
#    16   8  16  16  16  16
#     4  10  20  32  45  62  86 116 149 185 224 264
#     4   9  16  26  41  61  83 107 136 170 207 251
#     4  10  19  31  45  62  85 114 148 183 220 262
#     4   9  16  27  45  67  91 120 150 178 213 260
#     4   9  17  28  43  65  92 118 145 179 218 260
#     4   9  17  29  45  65  89 117 147 182 218 257
#
# _framework density 15.491263
#
# number of rings (size 3 to 8) (size 9 to 14) (size 15 to 20)
#    0.000    2.636    0.909    1.636    0.000    4.000 
#    0.000    0.909    0.000    0.545    0.000    2.545 
#    0.000    0.000    0.000   14.727    0.000    0.000 
#
# Total GULP energy -545562.582446 kJ/mol
# GULP energy per Si atom -12399.149601 kJ/mol
# Density = 1.545600 g / cm^3
# Si number density = 15.491263 Si / 1000 Ang^3
#
#
#
# Elastic Constant Matrix: (Units=GPa)
#
#
# Indices 1 2 3 4 5 6 
#
# 1 80.0839 40.4043 44.3877 0.0000 0.0000 0.0000
# 2 40.4043 91.6935 47.1374 0.0000 0.0000 0.0000
# 3 44.3877 47.1374 98.4299 0.0000 0.0000 0.0000
# 4 0.0000 0.0000 0.0000 20.5206 0.0000 0.0000
# 5 0.0000 0.0000 0.0000 0.0000 19.2542 0.0000
# 6 0.0000 0.0000 0.0000 0.0000 0.0000 19.7473
#
#
#
# Elastic Compliance Matrix: (Units=1/GPa)
#
#
# Indices 1 2 3 4 5 6 
#
# 1 0.018261 -0.005058 -0.005812 0.000000 0.000000 0.000000
# 2 -0.005058 0.015869 -0.005318 0.000000 0.000000 0.000000
# 3 -0.005812 -0.005318 0.015328 0.000000 0.000000 0.000000
# 4 0.000000 0.000000 0.000000 0.048732 0.000000 0.000000
# 5 0.000000 0.000000 0.000000 0.000000 0.051937 0.000000
# 6 0.000000 0.000000 0.000000 0.000000 0.000000 0.050640
#
#
# Mechanical properties :
#
#
# Convention : Reuss Voigt Hill
#
# Bulk Modulus (GPa) = 58.55209 59.34065 58.94637
# Shear Modulus (GPa) = 20.93483 21.12293 21.02888
#
# Velocity S-wave (km/s) = 3.68012 3.69662 3.68838
# Velocity P-wave (km/s) = 7.47908 7.52390 7.50152
#
# Compressibility (1/GPa) = 0.01707881
#
# Stress axis : x y z
#
# Youngs Moduli (GPa) = 54.76278 63.01618 65.24211
#
# Poissons Ratio (x) = 0.31877 0.37920
# Poissons Ratio (y) = 0.27702 0.34698
# Poissons Ratio (z) = 0.31830 0.33514
#
# Static dielectric constant tensor:
#      x y z
#    x 2.833440 0.000000 0.000000 
#    y 0.000000 3.044620 0.000000 
#    z 0.000000 0.000000 2.886190 
# 
# 
# High freq. dielectric constant tensor:
#      x y z
#    x 1.579940 0.000000 0.000000 
#    y 0.000000 1.589030 0.000000 
#    z 0.000000 0.000000 1.585010 
# 
# From -- ./inp_files/32236.got.cif
#   From: 2010.03.12/outbox.cif.g09.slc.cpg/sg65_17_cif.got.tgz:32236.got - 2010.04.10 20:52:16.
