data_PCOD8267707
_publ_section_title
;
Structure prediction by ZEFSAII (Michael W. Deem and Ramdas Pophale) SiO2 
 PCOD8267707
Probable space group: C M M M
;
_chemical_formula_sum "Si O2"
_cell_formula_units_Z 80
_cell_length_a 26.191693
_cell_length_b 23.327648
_cell_length_c 8.841296
_cell_angle_alpha 90.000000
_cell_angle_beta 90.000000
_cell_angle_gamma 90.000000
_cell_volume 5401.948702
_symmetry_space_group_name_H-M "C M M M"
_symmetry_group_IT_number 65
_symmetry_cell_setting 'orthorhombic'
loop_
_space_group_symop_operation_xyz
x,y,z
-x,-y,z
x,-y,-z
-x,y,-z
-x,-y,-z
x,y,-z
-x,y,z
x,-y,z
1/2+x,1/2+y,z
1/2-x,1/2-y,z
1/2+x,1/2-y,-z
1/2-x,1/2+y,-z
1/2-x,1/2-y,-z
1/2+x,1/2+y,-z
1/2-x,1/2+y,z
1/2+x,1/2-y,z
loop_
_atom_site_type_symbol
_atom_site_label
_atom_site_fract_x
_atom_site_fract_y
_atom_site_fract_z
Si Si1 0.441568 0.881557 0.676089
Si Si2 0.111646 0.500000 0.325227
Si Si3 0.701330 0.709335 0.833319
Si Si4 0.239850 0.383600 0.677669
Si Si5 0.279405 0.000000 0.821508
Si Si6 0.646464 0.181856 0.821882
O O1 0.434817 0.867706 0.500000
O O2 0.500000 0.876594 0.727180
O O3 0.422480 0.945190 0.713997
O O4 0.410281 0.834843 0.771890
O O5 0.129175 0.500000 0.500000
O O6 0.161210 0.500000 0.221460
O O7 0.750000 0.750000 0.841298
O O8 0.712123 0.657382 0.718417
O O9 0.654894 0.750726 0.780140
O O10 0.690452 0.683469 0.000000
O O11 0.236649 0.391529 0.500000
O O12 0.249189 0.444741 0.754567
O O13 0.186250 0.358334 0.734290
O O14 0.273923 0.000000 0.000000
O O15 0.654828 0.172125 0.000000
#
# Coordination Sequence:
#
# PCOD8267707 Si02
#       6
#    16   8  16  16   8  16
#     4  10  20  32  46  63  85 114 149 191 233 266
#     4  10  19  32  46  60  81 113 150 189 229 265
#     4   8  16  30  45  62  84 109 138 173 216 262
#     4  11  20  30  45  65  86 110 142 179 218 260
#     4  12  22  31  45  63  87 117 147 181 220 260
#     4  10  19  31  46  63  85 112 142 181 222 262
#
# _framework density 14.809469999999999
#
# number of rings (size 3 to 8) (size 9 to 14) (size 15 to 20)
#    0.000    2.000    2.000    4.800    0.000    6.000 
#    0.000    0.000    0.000    1.800    0.000    0.000 
#    0.000    0.000    0.000    0.900    0.000   16.800 
#
# Total GULP energy -495958.568543 kJ/mol
# GULP energy per Si atom -12398.964214 kJ/mol
# Density = 1.477576 g / cm^3
# Si number density = 14.809470 Si / 1000 Ang^3
#
#
#
# Elastic Constant Matrix: (Units=GPa)
#
#
# Indices 1 2 3 4 5 6 
#
# 1 62.9633 53.7021 31.8754 0.0000 0.0000 0.0000
# 2 53.7021 105.7101 57.1119 0.0000 0.0000 0.0000
# 3 31.8754 57.1119 99.3102 0.0000 0.0000 0.0000
# 4 0.0000 0.0000 0.0000 21.6624 0.0000 0.0000
# 5 0.0000 0.0000 0.0000 0.0000 17.7145 0.0000
# 6 0.0000 0.0000 0.0000 0.0000 0.0000 17.8888
#
#
#
# Elastic Compliance Matrix: (Units=1/GPa)
#
#
# Indices 1 2 3 4 5 6 
#
# 1 0.028120 -0.013650 -0.001176 0.000000 0.000000 0.000000
# 2 -0.013650 0.020350 -0.007322 0.000000 0.000000 0.000000
# 3 -0.001176 -0.007322 0.014657 0.000000 0.000000 0.000000
# 4 0.000000 0.000000 0.000000 0.046163 0.000000 0.000000
# 5 0.000000 0.000000 0.000000 0.000000 0.056451 0.000000
# 6 0.000000 0.000000 0.000000 0.000000 0.000000 0.055901
#
#
# Mechanical properties :
#
#
# Convention : Reuss Voigt Hill
#
# Bulk Modulus (GPa) = 53.10019 61.48470 57.29245
# Shear Modulus (GPa) = 18.36793 19.80611 19.08702
#
# Velocity S-wave (km/s) = 3.52559 3.66101 3.59393
# Velocity P-wave (km/s) = 7.24613 7.71219 7.48279
#
# Compressibility (1/GPa) = 0.01883232
#
# Stress axis : x y z
#
# Youngs Moduli (GPa) = 35.56236 49.14031 68.22495
#
# Poissons Ratio (x) = 0.67076 0.08020
# Poissons Ratio (y) = 0.48543 0.49952
# Poissons Ratio (z) = 0.04181 0.35979
#
# Static dielectric constant tensor:
#      x y z
#    x 2.744400 0.000000 0.000000 
#    y 0.000000 3.105720 0.000000 
#    z 0.000000 0.000000 2.897410 
# 
# 
# High freq. dielectric constant tensor:
#      x y z
#    x 1.523270 0.000000 0.000000 
#    y 0.000000 1.560820 0.000000 
#    z 0.000000 0.000000 1.575870 
# 
# From -- ./inp_files/12130.got.cif
#   From: 2010.03.12/outbox.cif.g09.slc.cpg/sg65_7_cif.got.tgz:12130.got - 2010.04.10 20:52:16.
