data_PCOD8267972
_publ_section_title
;
Structure prediction by ZEFSAII (Michael W. Deem and Ramdas Pophale) SiO2 
 PCOD8267972
Probable space group: C M M M
;
_chemical_formula_sum "Si O2"
_cell_formula_units_Z 68
_cell_length_a 21.649423
_cell_length_b 19.725128
_cell_length_c 9.294691
_cell_angle_alpha 90.000000
_cell_angle_beta 90.000000
_cell_angle_gamma 90.000000
_cell_volume 3969.182907
_symmetry_space_group_name_H-M "C M M M"
_symmetry_group_IT_number 65
_symmetry_cell_setting 'orthorhombic'
loop_
_space_group_symop_operation_xyz
x,y,z
-x,-y,z
x,-y,-z
-x,y,-z
-x,-y,-z
x,y,-z
-x,y,z
x,-y,z
1/2+x,1/2+y,z
1/2-x,1/2-y,z
1/2+x,1/2-y,-z
1/2-x,1/2+y,-z
1/2-x,1/2-y,-z
1/2+x,1/2+y,-z
1/2-x,1/2+y,z
1/2+x,1/2-y,z
loop_
_atom_site_type_symbol
_atom_site_label
_atom_site_fract_x
_atom_site_fract_y
_atom_site_fract_z
Si Si1 0.500000 0.650776 0.666365
Si Si2 0.793543 0.888667 0.659871
Si Si3 0.797428 0.687742 0.161786
Si Si4 0.383988 0.731051 0.340865
Si Si5 0.362167 0.500000 0.839027
Si Si6 0.000000 0.000000 0.230680
O O1 0.500000 0.666530 0.500000
O O2 0.560225 0.687987 0.732209
O O3 0.500000 0.569513 0.679025
O O4 0.779867 0.919476 0.500000
O O5 0.730313 0.875553 0.747622
O O6 0.825737 0.817170 0.638553
O O7 0.839403 0.935341 0.751076
O O8 0.750000 0.750000 0.157015
O O9 0.862708 0.708756 0.234839
O O10 0.811293 0.662743 0.000000
O O11 0.401499 0.759911 0.500000
O O12 0.436579 0.500000 0.859199
O O13 0.334120 0.500000 0.000000
#
# Coordination Sequence:
#
# PCOD8267972 Si02
#       6
#     8  16  16  16   8   4
#     4  10  19  31  49  70  95 129 172 210 238 275
#     4  10  19  32  50  68  88 120 162 204 241 284
#     4   9  17  30  47  67  90 117 149 196 251 295
#     4   9  17  30  47  68  90 120 161 203 241 282
#     4  12  24  35  46  67  98 132 167 203 241 286
#     4  12  22  36  46  64  95 142 175 208 235 278
#
# _framework density 17.131989999999998
#
# number of rings (size 3 to 8) (size 9 to 14) (size 15 to 20)
#    0.000    2.118    2.353    2.118    0.000    4.706 
#    0.000    0.588    0.000    0.000    0.000    0.000 
#    0.000    0.941    0.000   10.118    0.000    4.471 
#
# Total GULP energy -421243.220043 kJ/mol
# GULP energy per Si atom -12389.506472 kJ/mol
# Density = 1.709300 g / cm^3
# Si number density = 17.131990 Si / 1000 Ang^3
#
#
#
# Elastic Constant Matrix: (Units=GPa)
#
#
# Indices 1 2 3 4 5 6 
#
# 1 88.4787 43.0143 43.2597 0.0000 0.0000 0.0000
# 2 43.0143 42.8114 36.6410 0.0000 0.0000 0.0000
# 3 43.2597 36.6410 139.3651 0.0000 0.0000 0.0000
# 4 0.0000 0.0000 0.0000 14.6735 0.0000 0.0000
# 5 0.0000 0.0000 0.0000 0.0000 18.4542 0.0000
# 6 0.0000 0.0000 0.0000 0.0000 0.0000 34.9323
#
#
#
# Elastic Compliance Matrix: (Units=1/GPa)
#
#
# Indices 1 2 3 4 5 6 
#
# 1 0.022284 -0.021251 -0.001330 0.000000 0.000000 0.000000
# 2 -0.021251 0.050407 -0.006656 0.000000 0.000000 0.000000
# 3 -0.001330 -0.006656 0.009338 0.000000 0.000000 0.000000
# 4 0.000000 0.000000 0.000000 0.068150 0.000000 0.000000
# 5 0.000000 0.000000 0.000000 0.000000 0.054188 0.000000
# 6 0.000000 0.000000 0.000000 0.000000 0.000000 0.028627
#
#
# Mechanical properties :
#
#
# Convention : Reuss Voigt Hill
#
# Bulk Modulus (GPa) = 42.45464 57.38725 49.92095
# Shear Modulus (GPa) = 16.70454 23.46135 20.08295
#
# Velocity S-wave (km/s) = 3.12597 3.70462 3.42753
# Velocity P-wave (km/s) = 6.15334 7.20200 6.69822
#
# Compressibility (1/GPa) = 0.02355455
#
# Stress axis : x y z
#
# Youngs Moduli (GPa) = 44.87590 19.83850 107.08739
#
# Poissons Ratio (x) = 0.42159 0.14240
# Poissons Ratio (y) = 0.95367 0.71280
# Poissons Ratio (z) = 0.05967 0.13205
#
# Static dielectric constant tensor:
#      x y z
#    x 3.246530 0.000000 0.000000 
#    y 0.000000 2.863660 0.000000 
#    z 0.000000 0.000000 3.439620 
# 
# 
# High freq. dielectric constant tensor:
#      x y z
#    x 1.636710 0.000000 0.000000 
#    y 0.000000 1.615930 0.000000 
#    z 0.000000 0.000000 1.668760 
# 
# From -- ./inp_files/9346.got.cif
#   From: 2010.03.12/outbox.cif.g09.slc.cpg/sg65_5_cif.got.tgz:9346.got - 2010.04.10 20:52:16.
