data_PCOD8267070
_publ_section_title
;
Structure prediction by ZEFSAII (Michael W. Deem and Ramdas Pophale) SiO2 
 PCOD8267070
Probable space group: C M M M
;
_chemical_formula_sum "Si O2"
_cell_formula_units_Z 96
_cell_length_a 9.162643
_cell_length_b 26.825119
_cell_length_c 24.008994
_cell_angle_alpha 90.000000
_cell_angle_beta 90.000000
_cell_angle_gamma 90.000000
_cell_volume 5901.146358
_symmetry_space_group_name_H-M "C M M M"
_symmetry_group_IT_number 65
_symmetry_cell_setting 'orthorhombic'
loop_
_space_group_symop_operation_xyz
x,y,z
-x,-y,z
x,-y,-z
-x,y,-z
-x,-y,-z
x,y,-z
-x,y,z
x,-y,z
1/2+x,1/2+y,z
1/2-x,1/2-y,z
1/2+x,1/2-y,-z
1/2-x,1/2+y,-z
1/2-x,1/2-y,-z
1/2+x,1/2+y,-z
1/2-x,1/2+y,z
1/2+x,1/2-y,z
loop_
_atom_site_type_symbol
_atom_site_label
_atom_site_fract_x
_atom_site_fract_y
_atom_site_fract_z
Si Si1 0.663446 0.559127 0.438724
Si Si2 0.830403 0.860879 0.062909
Si Si3 0.332666 0.700660 0.833098
Si Si4 0.829227 0.900467 0.773212
Si Si5 0.332267 0.057028 0.876140
Si Si6 0.830503 0.441368 0.668624
O O1 0.711967 0.579035 0.500000
O O2 0.500000 0.578349 0.424771
O O3 0.663150 0.500000 0.439903
O O4 0.776074 0.577677 0.391799
O O5 0.780717 0.817583 0.105514
O O6 0.737939 0.910525 0.074513
O O7 0.000000 0.873936 0.073469
O O8 0.801754 0.842597 0.000000
O O9 0.500000 0.715495 0.835028
O O10 0.250000 0.750000 0.814294
O O11 0.302029 0.657264 0.788470
O O12 0.752785 0.935648 0.818421
O O13 0.759635 0.910433 0.713560
O O14 0.000000 0.913411 0.772103
O O15 0.500000 0.072806 0.867166
O O16 0.319434 0.000000 0.894878
O O17 0.800597 0.500000 0.676938
O O18 0.000000 0.428652 0.674498
#
# Coordination Sequence:
#
# PCOD8267070 Si02
#       6
#    16  16  16  16  16  16
#     4   8  14  25  40  58  84 122 164 197 224 258
#     4   9  19  35  51  68  91 117 147 179 211 259
#     4   9  19  34  51  70  89 111 140 178 225 272
#     4  10  20  33  48  66  89 117 151 186 220 267
#     4  10  20  32  46  66  92 119 148 184 223 260
#     4  10  19  28  41  65  95 125 157 192 228 262
#
# _framework density 16.268027
#
# number of rings (size 3 to 8) (size 9 to 14) (size 15 to 20)
#    0.000    2.667    0.000    3.500    0.000    9.000 
#    0.000    3.333    0.000    0.000    0.000    0.000 
#    0.000    0.667    0.000    2.167    0.000    2.667 
#
# Total GULP energy -595129.994726 kJ/mol
# GULP energy per Si atom -12398.541557 kJ/mol
# Density = 1.623100 g / cm^3
# Si number density = 16.268027 Si / 1000 Ang^3
#
#
#
# Elastic Constant Matrix: (Units=GPa)
#
#
# Indices 1 2 3 4 5 6 
#
# 1 93.2202 38.5008 47.6509 0.0000 0.0000 0.0000
# 2 38.5008 60.8822 24.7549 0.0000 0.0000 0.0000
# 3 47.6509 24.7549 107.5758 0.0000 0.0000 0.0000
# 4 0.0000 0.0000 0.0000 12.1617 0.0000 0.0000
# 5 0.0000 0.0000 0.0000 0.0000 22.6613 0.0000
# 6 0.0000 0.0000 0.0000 0.0000 0.0000 25.3171
#
#
#
# Elastic Compliance Matrix: (Units=1/GPa)
#
#
# Indices 1 2 3 4 5 6 
#
# 1 0.017131 -0.008548 -0.005621 0.000000 0.000000 0.000000
# 2 -0.008548 0.022386 -0.001365 0.000000 0.000000 0.000000
# 3 -0.005621 -0.001365 0.012100 0.000000 0.000000 0.000000
# 4 0.000000 0.000000 0.000000 0.082226 0.000000 0.000000
# 5 0.000000 0.000000 0.000000 0.000000 0.044128 0.000000
# 6 0.000000 0.000000 0.000000 0.000000 0.000000 0.039499
#
#
# Mechanical properties :
#
#
# Convention : Reuss Voigt Hill
#
# Bulk Modulus (GPa) = 48.66557 53.72126 51.19341
# Shear Modulus (GPa) = 19.57817 22.07945 20.82881
#
# Velocity S-wave (km/s) = 3.47288 3.68806 3.58208
# Velocity P-wave (km/s) = 6.78682 7.15751 6.97463
#
# Compressibility (1/GPa) = 0.02054841
#
# Stress axis : x y z
#
# Youngs Moduli (GPa) = 58.37391 44.67161 82.64579
#
# Poissons Ratio (x) = 0.38184 0.46457
# Poissons Ratio (y) = 0.49896 0.11282
# Poissons Ratio (z) = 0.32813 0.06098
#
# Static dielectric constant tensor:
#      x y z
#    x 3.184510 0.000000 0.000000 
#    y 0.000000 2.733540 0.000000 
#    z 0.000000 0.000000 3.234330 
# 
# 
# High freq. dielectric constant tensor:
#      x y z
#    x 1.636460 0.000000 0.000000 
#    y 0.000000 1.584460 0.000000 
#    z 0.000000 0.000000 1.625420 
# 
# From -- ./inp_files/67829.got.cif
#   From: 2010.03.12/outbox.cif.g09.slc.cpg/sg65_34_cif.got.tgz:67829.got - 2010.04.10 20:52:16.
