data_PCOD8267627
_publ_section_title
;
Structure prediction by ZEFSAII (Michael W. Deem and Ramdas Pophale) SiO2 
 PCOD8267627
Probable space group: C M M M
;
_chemical_formula_sum "Si O2"
_cell_formula_units_Z 80
_cell_length_a 16.790881
_cell_length_b 18.297423
_cell_length_c 14.246059
_cell_angle_alpha 90.000000
_cell_angle_beta 90.000000
_cell_angle_gamma 90.000000
_cell_volume 4376.814601
_symmetry_space_group_name_H-M "C M M M"
_symmetry_group_IT_number 65
_symmetry_cell_setting 'orthorhombic'
loop_
_space_group_symop_operation_xyz
x,y,z
-x,-y,z
x,-y,-z
-x,y,-z
-x,-y,-z
x,y,-z
-x,y,z
x,-y,z
1/2+x,1/2+y,z
1/2-x,1/2-y,z
1/2+x,1/2-y,-z
1/2-x,1/2+y,-z
1/2-x,1/2-y,-z
1/2+x,1/2+y,-z
1/2-x,1/2+y,z
1/2+x,1/2-y,z
loop_
_atom_site_type_symbol
_atom_site_label
_atom_site_fract_x
_atom_site_fract_y
_atom_site_fract_z
Si Si1 0.409583 0.234548 0.604744
Si Si2 0.333317 0.711413 0.784902
Si Si3 0.091229 0.333872 0.890560
Si Si4 0.234151 0.581723 0.205303
Si Si5 0.844996 0.580302 0.605248
O O1 0.378427 0.252072 0.500000
O O2 0.500000 0.259006 0.616831
O O3 0.357833 0.282337 0.676148
O O4 0.405454 0.147130 0.624711
O O5 0.250000 0.750000 0.799812
O O6 0.398170 0.751239 0.850652
O O7 0.314765 0.627961 0.816746
O O8 0.152276 0.389063 0.840849
O O9 0.000000 0.358558 0.871405
O O10 0.110665 0.333052 0.000000
O O11 0.248607 0.500000 0.168055
O O12 0.225176 0.585111 0.318218
O O13 0.808763 0.587567 0.500000
O O14 0.887423 0.500000 0.615543
#
# Coordination Sequence:
#
# PCOD8267627 Si02
#       5
#    16  16  16  16  16
#     4  10  19  30  48  75 104 138 179 217 254 298
#     4  10  19  33  52  76 103 138 173 215 254 305
#     4  10  21  37  57  79 103 134 170 210 260 314
#     4  10  21  35  52  79 108 138 173 210 255 306
#     4   9  17  29  46  72 108 143 169 198 246 305
#
# _framework density 18.278133
#
# number of rings (size 3 to 8) (size 9 to 14) (size 15 to 20)
#    0.000    2.200    4.000    0.600    0.000    6.000 
#    0.000    5.000    0.000    2.400    0.000    2.800 
#    0.000    0.000    0.000    0.000    0.000    0.000 
#
# Total GULP energy -495576.007748 kJ/mol
# GULP energy per Si atom -12389.400194 kJ/mol
# Density = 1.823653 g / cm^3
# Si number density = 18.278133 Si / 1000 Ang^3
#
#
#
# Elastic Constant Matrix: (Units=GPa)
#
#
# Indices 1 2 3 4 5 6 
#
# 1 38.5149 46.2057 17.6961 0.0000 0.0000 0.0000
# 2 46.2057 129.1486 36.5285 0.0000 0.0000 0.0000
# 3 17.6961 36.5285 84.1711 0.0000 0.0000 0.0000
# 4 0.0000 0.0000 0.0000 11.4107 0.0000 0.0000
# 5 0.0000 0.0000 0.0000 0.0000 21.1687 0.0000
# 6 0.0000 0.0000 0.0000 0.0000 0.0000 20.9031
#
#
#
# Elastic Compliance Matrix: (Units=1/GPa)
#
#
# Indices 1 2 3 4 5 6 
#
# 1 0.046096 -0.015675 -0.002889 0.000000 0.000000 0.000000
# 2 -0.015675 0.014157 -0.002848 0.000000 0.000000 0.000000
# 3 -0.002889 -0.002848 0.013724 0.000000 0.000000 0.000000
# 4 0.000000 0.000000 0.000000 0.087637 0.000000 0.000000
# 5 0.000000 0.000000 0.000000 0.000000 0.047240 0.000000
# 6 0.000000 0.000000 0.000000 0.000000 0.000000 0.047840
#
#
# Mechanical properties :
#
#
# Convention : Reuss Voigt Hill
#
# Bulk Modulus (GPa) = 32.09943 50.29946 41.19945
# Shear Modulus (GPa) = 16.13417 20.79010 18.46213
#
# Velocity S-wave (km/s) = 2.97426 3.37624 3.18160
# Velocity P-wave (km/s) = 5.42169 6.54044 6.00716
#
# Compressibility (1/GPa) = 0.03115320
#
# Stress axis : x y z
#
# Youngs Moduli (GPa) = 21.69382 70.63832 72.86540
#
# Poissons Ratio (x) = 1.10724 0.21048
# Poissons Ratio (y) = 0.34005 0.20754
# Poissons Ratio (z) = 0.06267 0.20119
#
# Static dielectric constant tensor:
#      x y z
#    x 3.214070 0.000000 0.000000 
#    y 0.000000 3.799060 0.000000 
#    z 0.000000 0.000000 3.534270 
# 
# 
# High freq. dielectric constant tensor:
#      x y z
#    x 1.670900 0.000000 0.000000 
#    y 0.000000 1.693930 0.000000 
#    z 0.000000 0.000000 1.718370 
# 
# From -- ./inp_files/40001.got.cif
#   From: 2010.03.12/outbox.cif.g09.slc.cpg/sg65_21_cif.got.tgz:40001.got - 2010.04.10 20:52:16.
