data_PCOD8267642
_publ_section_title
;
Structure prediction by ZEFSAII (Michael W. Deem and Ramdas Pophale) SiO2 
 PCOD8267642
Probable space group: C M M M
;
_chemical_formula_sum "Si O2"
_cell_formula_units_Z 120
_cell_length_a 24.702433
_cell_length_b 24.135132
_cell_length_c 12.521163
_cell_angle_alpha 90.000000
_cell_angle_beta 90.000000
_cell_angle_gamma 90.000000
_cell_volume 7465.073321
_symmetry_space_group_name_H-M "C M M M"
_symmetry_group_IT_number 65
_symmetry_cell_setting 'orthorhombic'
loop_
_space_group_symop_operation_xyz
x,y,z
-x,-y,z
x,-y,-z
-x,y,-z
-x,-y,-z
x,y,-z
-x,y,z
x,-y,z
1/2+x,1/2+y,z
1/2-x,1/2-y,z
1/2+x,1/2-y,-z
1/2-x,1/2+y,-z
1/2-x,1/2-y,-z
1/2+x,1/2+y,-z
1/2-x,1/2+y,z
1/2+x,1/2-y,z
loop_
_atom_site_type_symbol
_atom_site_label
_atom_site_fract_x
_atom_site_fract_y
_atom_site_fract_z
Si Si1 0.940684 0.841156 0.737796
Si Si2 0.335239 0.821181 0.875926
Si Si3 0.250000 0.250000 0.748627
Si Si4 0.094267 0.063543 0.878122
Si Si5 0.829346 0.831954 0.624605
Si Si6 0.696725 0.438944 0.253692
Si Si7 0.697744 0.060077 0.120071
Si Si8 0.559045 0.763299 0.125923
O O1 0.940181 0.901320 0.793392
O O2 0.893136 0.829418 0.653266
O O3 0.933225 0.798827 0.834578
O O4 0.000000 0.834452 0.682083
O O5 0.283174 0.794149 0.819264
O O6 0.340425 0.887373 0.857977
O O7 0.391862 0.799617 0.826861
O O8 0.329455 0.805793 0.000000
O O9 0.206277 0.215844 0.679945
O O10 0.156781 0.072108 0.845670
O O11 0.075684 0.000000 0.867298
O O12 0.086436 0.083930 0.000000
O O13 0.822649 0.822752 0.500000
O O14 0.808185 0.892935 0.654917
O O15 0.685268 0.500000 0.303933
O O16 0.755925 0.436494 0.206685
O O17 0.667555 0.000000 0.132794
O O18 0.721708 0.064585 0.000000
O O19 0.500000 0.786961 0.162465
O O20 0.562633 0.762157 0.000000
#
# Coordination Sequence:
#
# PCOD8267642 Si02
#       8
#    16  16   8  16  16  16  16  16
#     4  10  20  34  49  66  90 123 162 202 240 281
#     4  10  19  30  49  76 103 129 154 184 227 285
#     4  12  20  36  48  74 100 126 152 190 238 300
#     4   9  17  28  44  68  97 127 158 193 237 288
#     4  11  23  36  51  68  90 124 161 205 250 285
#     4   9  17  31  48  67  92 124 160 198 239 285
#     4   9  16  27  46  72 100 127 154 185 226 278
#     4   9  17  30  48  70  96 126 157 187 225 277
#
# _framework density 16.074859
#
# number of rings (size 3 to 8) (size 9 to 14) (size 15 to 20)
#    0.000    2.267    2.667    1.200    0.000    3.200 
#    0.000    0.667    0.000    0.400    0.000    6.533 
#    0.000    0.000    0.000    0.000    0.000    8.133 
#
# Total GULP energy -743441.060480 kJ/mol
# GULP energy per Si atom -12390.684341 kJ/mol
# Density = 1.603827 g / cm^3
# Si number density = 16.074859 Si / 1000 Ang^3
#
#
#
# Elastic Constant Matrix: (Units=GPa)
#
#
# Indices 1 2 3 4 5 6 
#
# 1 80.7078 47.7776 31.3456 0.0000 0.0000 0.0000
# 2 47.7776 104.3038 28.8209 0.0000 0.0000 0.0000
# 3 31.3456 28.8209 55.7713 0.0000 0.0000 0.0000
# 4 0.0000 0.0000 0.0000 16.3467 0.0000 0.0000
# 5 0.0000 0.0000 0.0000 0.0000 14.0559 0.0000
# 6 0.0000 0.0000 0.0000 0.0000 0.0000 19.1111
#
#
#
# Elastic Compliance Matrix: (Units=1/GPa)
#
#
# Indices 1 2 3 4 5 6 
#
# 1 0.019254 -0.006800 -0.007307 0.000000 0.000000 0.000000
# 2 -0.006800 0.013586 -0.003199 0.000000 0.000000 0.000000
# 3 -0.007307 -0.003199 0.023690 0.000000 0.000000 0.000000
# 4 0.000000 0.000000 0.000000 0.061175 0.000000 0.000000
# 5 0.000000 0.000000 0.000000 0.000000 0.071144 0.000000
# 6 0.000000 0.000000 0.000000 0.000000 0.000000 0.052326
#
#
# Mechanical properties :
#
#
# Convention : Reuss Voigt Hill
#
# Bulk Modulus (GPa) = 45.62538 50.74125 48.18331
# Shear Modulus (GPa) = 17.66194 18.75866 18.21030
#
# Velocity S-wave (km/s) = 3.31831 3.41978 3.36943
# Velocity P-wave (km/s) = 6.56706 6.87221 6.72137
#
# Compressibility (1/GPa) = 0.02191762
#
# Stress axis : x y z
#
# Youngs Moduli (GPa) = 51.93681 73.60346 42.21120
#
# Poissons Ratio (x) = 0.50054 0.30845
# Poissons Ratio (y) = 0.35320 0.13503
# Poissons Ratio (z) = 0.37952 0.23545
#
# Static dielectric constant tensor:
#      x y z
#    x 3.184210 0.000000 0.000000 
#    y 0.000000 3.317280 0.000000 
#    z 0.000000 0.000000 2.713790 
# 
# 
# High freq. dielectric constant tensor:
#      x y z
#    x 1.610390 0.000000 0.000000 
#    y 0.000000 1.626110 0.000000 
#    z 0.000000 0.000000 1.584570 
# 
# From -- ./inp_files/31328.got.cif
#   From: 2010.03.12/outbox.cif.g09.slc.cpg/sg65_16_cif.got.tgz:31328.got - 2010.04.10 20:52:16.
