data_PCOD8267214
_publ_section_title
;
Structure prediction by ZEFSAII (Michael W. Deem and Ramdas Pophale) SiO2 
 PCOD8267214
Probable space group: C M M M
;
_chemical_formula_sum "Si O2"
_cell_formula_units_Z 88
_cell_length_a 9.069548
_cell_length_b 27.040216
_cell_length_c 20.979574
_cell_angle_alpha 90.000000
_cell_angle_beta 90.000000
_cell_angle_gamma 90.000000
_cell_volume 5145.083952
_symmetry_space_group_name_H-M "C M M M"
_symmetry_group_IT_number 65
_symmetry_cell_setting 'orthorhombic'
loop_
_space_group_symop_operation_xyz
x,y,z
-x,-y,z
x,-y,-z
-x,y,-z
-x,-y,-z
x,y,-z
-x,y,z
x,-y,z
1/2+x,1/2+y,z
1/2-x,1/2-y,z
1/2+x,1/2-y,-z
1/2-x,1/2+y,-z
1/2-x,1/2-y,-z
1/2+x,1/2+y,-z
1/2-x,1/2+y,z
1/2+x,1/2-y,z
loop_
_atom_site_type_symbol
_atom_site_label
_atom_site_fract_x
_atom_site_fract_y
_atom_site_fract_z
Si Si1 0.670495 0.556375 0.875188
Si Si2 0.331944 0.602422 0.742398
Si Si3 0.666241 0.558758 0.500000
Si Si4 0.672837 0.943013 0.373958
Si Si5 0.328646 0.700671 0.183352
Si Si6 0.669676 0.853485 0.927133
O O1 0.500000 0.569035 0.889068
O O2 0.708454 0.500000 0.891836
O O3 0.704576 0.566152 0.801005
O O4 0.770203 0.590771 0.919530
O O5 0.500000 0.594794 0.719582
O O6 0.222915 0.589929 0.685286
O O7 0.303497 0.658768 0.763560
O O8 0.669879 0.500000 0.500000
O O9 0.500000 0.579313 0.500000
O O10 0.748771 0.578226 0.437093
O O11 0.500000 0.937224 0.383928
O O12 0.717278 0.000000 0.361491
O O13 0.500000 0.711006 0.171976
O O14 0.250000 0.750000 0.208553
O O15 0.260671 0.684538 0.115852
O O16 0.500000 0.852535 0.905676
O O17 0.688182 0.836801 0.000000
#
# Coordination Sequence:
#
# PCOD8267214 Si02
#       6
#    16  16   8  16  16  16
#     4   9  18  32  49  69  95 128 164 201 239 281
#     4   9  18  32  49  70  95 124 159 195 234 284
#     4   9  17  29  45  65  94 135 174 203 233 271
#     4  10  19  29  44  70 103 135 166 200 235 271
#     4  10  21  37  56  75  95 120 153 197 246 294
#     4  10  21  35  50  70  96 125 158 196 239 290
#
# _framework density 17.103705000000001
#
# number of rings (size 3 to 8) (size 9 to 14) (size 15 to 20)
#    0.000    2.455    0.000    3.545    0.000    9.091 
#    0.000    1.818    0.000    0.000    0.000    0.636 
#    0.000    0.000    0.000    0.000    0.000    0.000 
#
# Total GULP energy -545713.539425 kJ/mol
# GULP energy per Si atom -12402.580441 kJ/mol
# Density = 1.706478 g / cm^3
# Si number density = 17.103705 Si / 1000 Ang^3
#
#
#
# Elastic Constant Matrix: (Units=GPa)
#
#
# Indices 1 2 3 4 5 6 
#
# 1 109.0721 39.1060 51.8697 0.0000 0.0000 0.0000
# 2 39.1060 66.9753 24.7518 0.0000 0.0000 0.0000
# 3 51.8697 24.7518 83.8572 0.0000 0.0000 0.0000
# 4 0.0000 0.0000 0.0000 14.1539 0.0000 0.0000
# 5 0.0000 0.0000 0.0000 0.0000 32.6787 0.0000
# 6 0.0000 0.0000 0.0000 0.0000 0.0000 29.3978
#
#
#
# Elastic Compliance Matrix: (Units=1/GPa)
#
#
# Indices 1 2 3 4 5 6 
#
# 1 0.014815 -0.005908 -0.007420 0.000000 0.000000 0.000000
# 2 -0.005908 0.019115 -0.001988 0.000000 0.000000 0.000000
# 3 -0.007420 -0.001988 0.017101 0.000000 0.000000 0.000000
# 4 0.000000 0.000000 0.000000 0.070652 0.000000 0.000000
# 5 0.000000 0.000000 0.000000 0.000000 0.030601 0.000000
# 6 0.000000 0.000000 0.000000 0.000000 0.000000 0.034016
#
#
# Mechanical properties :
#
#
# Convention : Reuss Voigt Hill
#
# Bulk Modulus (GPa) = 49.01960 54.59550 51.80755
# Shear Modulus (GPa) = 22.34815 24.85788 23.60302
#
# Velocity S-wave (km/s) = 3.61865 3.81643 3.71886
# Velocity P-wave (km/s) = 6.79573 7.17006 6.98540
#
# Compressibility (1/GPa) = 0.02040001
#
# Stress axis : x y z
#
# Youngs Moduli (GPa) = 67.49850 52.31449 58.47489
#
# Poissons Ratio (x) = 0.30908 0.43388
# Poissons Ratio (y) = 0.39879 0.11623
# Poissons Ratio (z) = 0.50084 0.10398
#
# Static dielectric constant tensor:
#      x y z
#    x 3.281170 0.000000 0.000000 
#    y 0.000000 3.094380 0.000000 
#    z 0.000000 0.000000 3.062550 
# 
# 
# High freq. dielectric constant tensor:
#      x y z
#    x 1.672220 0.000000 0.000000 
#    y 0.000000 1.637280 0.000000 
#    z 0.000000 0.000000 1.649890 
# 
# From -- ./inp_files/50432.got.cif
#   From: 2010.03.12/outbox.cif.g09.slc.cpg/sg65_26_cif.got.tgz:50432.got - 2010.04.10 20:52:16.
