data_PCOD8267137
_publ_section_title
;
Structure prediction by ZEFSAII (Michael W. Deem and Ramdas Pophale) SiO2 
 PCOD8267137
Probable space group: C M M M
;
_chemical_formula_sum "Si O2"
_cell_formula_units_Z 80
_cell_length_a 23.730675
_cell_length_b 9.063692
_cell_length_c 23.114133
_cell_angle_alpha 90.000000
_cell_angle_beta 90.000000
_cell_angle_gamma 90.000000
_cell_volume 4971.561755
_symmetry_space_group_name_H-M "C M M M"
_symmetry_group_IT_number 65
_symmetry_cell_setting 'orthorhombic'
loop_
_space_group_symop_operation_xyz
x,y,z
-x,-y,z
x,-y,-z
-x,y,-z
-x,-y,-z
x,y,-z
-x,y,z
x,-y,z
1/2+x,1/2+y,z
1/2-x,1/2-y,z
1/2+x,1/2-y,-z
1/2-x,1/2+y,-z
1/2-x,1/2-y,-z
1/2+x,1/2+y,-z
1/2-x,1/2+y,z
1/2+x,1/2-y,z
loop_
_atom_site_type_symbol
_atom_site_label
_atom_site_fract_x
_atom_site_fract_y
_atom_site_fract_z
Si Si1 0.892022 0.825086 0.102506
Si Si2 0.567001 0.834320 0.563646
Si Si3 0.066622 0.836400 0.673126
Si Si4 0.934037 0.327062 0.210366
Si Si5 0.690386 0.673444 0.000000
Si Si6 0.500000 0.160399 0.935634
O O1 0.890038 0.747279 0.165440
O O2 0.841481 0.779279 0.059247
O O3 0.947555 0.764100 0.073799
O O4 0.895131 0.000000 0.110688
O O5 0.585275 0.774719 0.500000
O O6 0.500000 0.836115 0.568076
O O7 0.592683 0.732181 0.614263
O O8 0.589957 0.000000 0.572388
O O9 0.082707 0.735338 0.727284
O O10 0.000000 0.845030 0.667119
O O11 0.091918 0.000000 0.681775
O O12 0.923426 0.500000 0.211940
O O13 0.000000 0.290212 0.194019
O O14 0.750000 0.750000 0.000000
O O15 0.698962 0.500000 0.000000
O O16 0.500000 0.000000 0.900233
O O17 0.500000 0.106137 0.000000
#
# Coordination Sequence:
#
# PCOD8267137 Si02
#       6
#    16  16  16  16   8   8
#     4  11  21  34  51  71  94 118 146 182 226 270
#     4   8  13  21  32  45  64  95 136 180 220 255
#     4   9  16  24  34  50  74 105 138 176 221 261
#     4  10  19  29  42  63  88 114 145 177 220 272
#     4  10  24  41  56  73  91 118 150 184 225 266
#     4  11  21  31  47  73  97 119 144 173 218 269
#
# _framework density 16.091522999999999
#
# number of rings (size 3 to 8) (size 9 to 14) (size 15 to 20)
#    0.000    2.300    2.000    2.700    0.000    5.600 
#    0.000    2.000    0.000    0.000    0.000    0.000 
#    0.000    0.000    0.000    0.000    0.000    1.000 
#
# Total GULP energy -495591.939149 kJ/mol
# GULP energy per Si atom -12389.798479 kJ/mol
# Density = 1.605490 g / cm^3
# Si number density = 16.091523 Si / 1000 Ang^3
#
#
#
# Elastic Constant Matrix: (Units=GPa)
#
#
# Indices 1 2 3 4 5 6 
#
# 1 53.0392 28.2370 34.9208 0.0000 0.0000 0.0000
# 2 28.2370 106.7969 73.0517 0.0000 0.0000 0.0000
# 3 34.9208 73.0517 152.9554 0.0000 0.0000 0.0000
# 4 0.0000 0.0000 0.0000 33.5935 0.0000 0.0000
# 5 0.0000 0.0000 0.0000 0.0000 4.1312 0.0000
# 6 0.0000 0.0000 0.0000 0.0000 0.0000 16.6898
#
#
#
# Elastic Compliance Matrix: (Units=1/GPa)
#
#
# Indices 1 2 3 4 5 6 
#
# 1 0.023144 -0.003720 -0.003507 0.000000 0.000000 0.000000
# 2 -0.003720 0.014505 -0.006078 0.000000 0.000000 0.000000
# 3 -0.003507 -0.006078 0.010241 0.000000 0.000000 0.000000
# 4 0.000000 0.000000 0.000000 0.029768 0.000000 0.000000
# 5 0.000000 0.000000 0.000000 0.000000 0.242059 0.000000
# 6 0.000000 0.000000 0.000000 0.000000 0.000000 0.059917
#
#
# Mechanical properties :
#
#
# Convention : Reuss Voigt Hill
#
# Bulk Modulus (GPa) = 46.99474 65.02337 56.00905
# Shear Modulus (GPa) = 12.09665 22.65504 17.37584
#
# Velocity S-wave (km/s) = 2.74476 3.75625 3.28962
# Velocity P-wave (km/s) = 6.27001 7.70122 7.02217
#
# Compressibility (1/GPa) = 0.02127898
#
# Stress axis : x y z
#
# Youngs Moduli (GPa) = 43.20852 68.94276 97.64223
#
# Poissons Ratio (x) = 0.25648 0.34244
# Poissons Ratio (y) = 0.16075 0.59348
# Poissons Ratio (z) = 0.15153 0.41904
#
# Static dielectric constant tensor:
#      x y z
#    x 2.401110 0.000000 0.000000 
#    y 0.000000 3.225980 0.000000 
#    z 0.000000 0.000000 3.466750 
# 
# 
# High freq. dielectric constant tensor:
#      x y z
#    x 1.526130 0.000000 0.000000 
#    y 0.000000 1.636260 0.000000 
#    z 0.000000 0.000000 1.641600 
# 
# From -- ./inp_files/70869.got.cif
#   From: 2010.03.12/outbox.cif.g09.slc.cpg/sg65_36_cif.got.tgz:70869.got - 2010.04.10 20:52:16.
