data_PCOD8268830
_publ_section_title
;
Structure prediction by ZEFSAII (Michael W. Deem and Ramdas Pophale) SiO2 
 PCOD8268830
Probable space group: C M M M
;
_chemical_formula_sum "Si O2"
_cell_formula_units_Z 88
_cell_length_a 27.987955
_cell_length_b 14.013067
_cell_length_c 11.651758
_cell_angle_alpha 90.000000
_cell_angle_beta 90.000000
_cell_angle_gamma 90.000000
_cell_volume 4569.785565
_symmetry_space_group_name_H-M "C M M M"
_symmetry_group_IT_number 65
_symmetry_cell_setting 'orthorhombic'
loop_
_space_group_symop_operation_xyz
x,y,z
-x,-y,z
x,-y,-z
-x,y,-z
-x,-y,-z
x,y,-z
-x,y,z
x,-y,z
1/2+x,1/2+y,z
1/2-x,1/2-y,z
1/2+x,1/2-y,-z
1/2-x,1/2+y,-z
1/2-x,1/2-y,-z
1/2+x,1/2+y,-z
1/2-x,1/2+y,z
1/2+x,1/2-y,z
loop_
_atom_site_type_symbol
_atom_site_label
_atom_site_fract_x
_atom_site_fract_y
_atom_site_fract_z
Si Si1 0.221574 0.393257 0.748391
Si Si2 0.687583 0.893855 0.500000
Si Si3 0.329721 0.389582 0.258664
Si Si4 0.363253 0.218801 0.864962
Si Si5 0.554765 0.889186 0.260710
Si Si6 0.356617 0.307675 0.500000
Si Si7 0.554077 0.790953 0.500000
O O1 0.207778 0.500000 0.786437
O O2 0.220867 0.382545 0.610966
O O3 0.275700 0.369606 0.784402
O O4 0.184143 0.324288 0.808002
O O5 0.650086 0.807764 0.500000
O O6 0.662976 0.000000 0.500000
O O7 0.343615 0.500000 0.245777
O O8 0.365198 0.328571 0.177875
O O9 0.334782 0.359144 0.390615
O O10 0.411345 0.166287 0.827208
O O11 0.358659 0.212724 0.000000
O O12 0.500000 0.870120 0.224431
O O13 0.564889 0.855669 0.389384
O O14 0.567747 0.000000 0.252883
O O15 0.414546 0.306961 0.500000
O O16 0.500000 0.754282 0.500000
#
# Coordination Sequence:
#
# PCOD8268830 Si02
#       7
#    16   8  16  16  16   8   8
#     4  10  21  37  58  87 121 154 194 246 302 363
#     4  10  19  32  57  90 119 149 187 233 302 377
#     4  11  24  40  59  85 116 157 205 251 299 350
#     4  12  25  40  59  84 117 163 210 251 295 347
#     4  10  21  39  65  96 127 156 188 234 299 373
#     4  12  20  36  63  90 121 158 187 243 308 369
#     4  10  19  35  63  96 124 150 184 231 298 371
#
# _framework density 19.256920999999998
#
# number of rings (size 3 to 8) (size 9 to 14) (size 15 to 20)
#    0.000    1.273    3.636    2.182    0.000    9.091 
#    0.000    2.727    0.000    2.727    0.000    1.273 
#    0.000    0.000    0.000    0.000    0.000    0.000 
#
# Total GULP energy -545580.676386 kJ/mol
# GULP energy per Si atom -12399.560827 kJ/mol
# Density = 1.921309 g / cm^3
# Si number density = 19.256921 Si / 1000 Ang^3
#
#
#
# Elastic Constant Matrix: (Units=GPa)
#
#
# Indices 1 2 3 4 5 6 
#
# 1 83.7232 60.9811 32.9003 0.0000 0.0000 0.0000
# 2 60.9811 119.1031 41.4622 0.0000 0.0000 0.0000
# 3 32.9003 41.4622 115.4487 0.0000 0.0000 0.0000
# 4 0.0000 0.0000 0.0000 3.1305 0.0000 0.0000
# 5 0.0000 0.0000 0.0000 0.0000 10.9561 0.0000
# 6 0.0000 0.0000 0.0000 0.0000 0.0000 31.2535
#
#
#
# Elastic Compliance Matrix: (Units=1/GPa)
#
#
# Indices 1 2 3 4 5 6 
#
# 1 0.019550 -0.009223 -0.002259 0.000000 0.000000 0.000000
# 2 -0.009223 0.013947 -0.002381 0.000000 0.000000 0.000000
# 3 -0.002259 -0.002381 0.010161 0.000000 0.000000 0.000000
# 4 0.000000 0.000000 0.000000 0.319437 0.000000 0.000000
# 5 0.000000 0.000000 0.000000 0.000000 0.091273 0.000000
# 6 0.000000 0.000000 0.000000 0.000000 0.000000 0.031996
#
#
# Mechanical properties :
#
#
# Convention : Reuss Voigt Hill
#
# Bulk Modulus (GPa) = 62.76595 65.44024 64.10309
# Shear Modulus (GPa) = 9.62651 21.26346 15.44498
#
# Velocity S-wave (km/s) = 2.23827 3.32655 2.83512
# Velocity P-wave (km/s) = 6.27252 6.98649 6.63911
#
# Compressibility (1/GPa) = 0.01593220
#
# Stress axis : x y z
#
# Youngs Moduli (GPa) = 51.15208 71.69973 98.42011
#
# Poissons Ratio (x) = 0.66129 0.22231
# Poissons Ratio (y) = 0.47178 0.23430
# Poissons Ratio (z) = 0.11554 0.17069
#
# Static dielectric constant tensor:
#      x y z
#    x 3.601090 0.000000 0.000000 
#    y 0.000000 3.660140 0.000000 
#    z 0.000000 0.000000 3.386540 
# 
# 
# High freq. dielectric constant tensor:
#      x y z
#    x 1.745410 0.000000 0.000000 
#    y 0.000000 1.750740 0.000000 
#    z 0.000000 0.000000 1.737260 
# 
# From -- ./inp_files/32254.got.cif
#   From: 2010.03.12/outbox.cif.g09.slc.cpg/sg65_17_cif.got.tgz:32254.got - 2010.04.10 20:52:16.
