data_PCOD8268580
_publ_section_title
;
Structure prediction by ZEFSAII (Michael W. Deem and Ramdas Pophale) SiO2 
 PCOD8268580
Probable space group: C M M M
;
_chemical_formula_sum "Si O2"
_cell_formula_units_Z 104
_cell_length_a 8.808862
_cell_length_b 28.730786
_cell_length_c 23.530232
_cell_angle_alpha 90.000000
_cell_angle_beta 90.000000
_cell_angle_gamma 90.000000
_cell_volume 5955.161214
_symmetry_space_group_name_H-M "C M M M"
_symmetry_group_IT_number 65
_symmetry_cell_setting 'orthorhombic'
loop_
_space_group_symop_operation_xyz
x,y,z
-x,-y,z
x,-y,-z
-x,y,-z
-x,-y,-z
x,y,-z
-x,y,z
x,-y,z
1/2+x,1/2+y,z
1/2-x,1/2-y,z
1/2+x,1/2-y,-z
1/2-x,1/2+y,-z
1/2-x,1/2-y,-z
1/2+x,1/2+y,-z
1/2-x,1/2+y,z
1/2+x,1/2-y,z
loop_
_atom_site_type_symbol
_atom_site_label
_atom_site_fract_x
_atom_site_fract_y
_atom_site_fract_z
Si Si1 0.672863 0.948796 0.279400
Si Si2 0.323449 0.447481 0.602364
Si Si3 0.679279 0.199434 0.877672
Si Si4 0.178961 0.199384 0.662949
Si Si5 0.323631 0.147015 0.767663
Si Si6 0.326186 0.142123 0.435784
Si Si7 0.322338 0.200200 0.000000
O O1 0.500000 0.945181 0.302225
O O2 0.785284 0.940390 0.331570
O O3 0.702979 0.908794 0.232766
O O4 0.701769 0.000000 0.252085
O O5 0.500000 0.436980 0.593506
O O6 0.282667 0.500000 0.582895
O O7 0.227759 0.411457 0.565125
O O8 0.500000 0.205445 0.873633
O O9 0.750000 0.250000 0.868539
O O10 0.738266 0.165318 0.828173
O O11 0.725687 0.176609 0.939574
O O12 0.250000 0.250000 0.665146
O O13 0.230973 0.170202 0.717129
O O14 0.225644 0.173778 0.605108
O O15 0.000000 0.204433 0.664097
O O16 0.500000 0.159607 0.759213
O O17 0.308782 0.160839 0.500000
O O18 0.500000 0.144782 0.415348
O O19 0.250000 0.250000 0.000000
O O20 0.500000 0.207293 0.000000
#
# Coordination Sequence:
#
# PCOD8268580 Si02
#       7
#    16  16  16  16  16  16   8
#     4   9  17  30  50  73  99 132 166 203 248 299
#     4  10  20  34  54  80 107 133 163 203 252 303
#     4   9  17  28  44  68  98 134 170 209 249 295
#     4  12  25  40  58  77 101 132 165 206 255 303
#     4  10  19  32  51  76 104 131 167 209 252 301
#     4  11  24  41  59  78 101 131 169 209 250 302
#     4   8  14  26  42  62  93 131 171 207 248 292
#
# _framework density 17.463843000000001
#
# number of rings (size 3 to 8) (size 9 to 14) (size 15 to 20)
#    0.000    2.000    1.538    2.769    0.000    4.615 
#    0.000    1.538    0.000    0.000    0.000    0.538 
#    0.000    4.308    0.000    0.000    0.000   36.538 
#
# Total GULP energy -644517.754517 kJ/mol
# GULP energy per Si atom -12394.572202 kJ/mol
# Density = 1.742409 g / cm^3
# Si number density = 17.463843 Si / 1000 Ang^3
#
#
#
# Elastic Constant Matrix: (Units=GPa)
#
#
# Indices 1 2 3 4 5 6 
#
# 1 68.9636 34.1162 35.7886 0.0000 0.0000 0.0000
# 2 34.1162 108.6903 58.5607 0.0000 0.0000 0.0000
# 3 35.7886 58.5607 123.9108 0.0000 0.0000 0.0000
# 4 0.0000 0.0000 0.0000 20.2970 0.0000 0.0000
# 5 0.0000 0.0000 0.0000 0.0000 13.1028 0.0000
# 6 0.0000 0.0000 0.0000 0.0000 0.0000 19.3501
#
#
#
# Elastic Compliance Matrix: (Units=1/GPa)
#
#
# Indices 1 2 3 4 5 6 
#
# 1 0.018190 -0.003863 -0.003428 0.000000 0.000000 0.000000
# 2 -0.003863 0.013164 -0.005106 0.000000 0.000000 0.000000
# 3 -0.003428 -0.005106 0.011473 0.000000 0.000000 0.000000
# 4 0.000000 0.000000 0.000000 0.049268 0.000000 0.000000
# 5 0.000000 0.000000 0.000000 0.000000 0.076320 0.000000
# 6 0.000000 0.000000 0.000000 0.000000 0.000000 0.051679
#
#
# Mechanical properties :
#
#
# Convention : Reuss Voigt Hill
#
# Bulk Modulus (GPa) = 55.44944 62.05507 58.75225
# Shear Modulus (GPa) = 19.92833 22.08993 21.00913
#
# Velocity S-wave (km/s) = 3.38171 3.56039 3.47220
# Velocity P-wave (km/s) = 6.86060 7.24655 7.05622
#
# Compressibility (1/GPa) = 0.01803445
#
# Stress axis : x y z
#
# Youngs Moduli (GPa) = 54.97422 75.96672 87.15765
#
# Poissons Ratio (x) = 0.29342 0.29881
# Poissons Ratio (y) = 0.21234 0.44499
# Poissons Ratio (z) = 0.18847 0.38786
#
# Static dielectric constant tensor:
#      x y z
#    x 3.403960 0.000000 0.000000 
#    y 0.000000 3.413880 0.000000 
#    z 0.000000 0.000000 3.529880 
# 
# 
# High freq. dielectric constant tensor:
#      x y z
#    x 1.678740 0.000000 0.000000 
#    y 0.000000 1.665110 0.000000 
#    z 0.000000 0.000000 1.663650 
# 
# From -- ./inp_files/68216.got.cif
#   From: 2010.03.12/outbox.cif.g09.slc.cpg/sg65_35_cif.got.tgz:68216.got - 2010.04.10 20:52:16.
