data_PCOD8268844
_publ_section_title
;
Structure prediction by ZEFSAII (Michael W. Deem and Ramdas Pophale) SiO2 
 PCOD8268844
Probable space group: C M M M
;
_chemical_formula_sum "Si O2"
_cell_formula_units_Z 96
_cell_length_a 9.195295
_cell_length_b 25.716575
_cell_length_c 27.183433
_cell_angle_alpha 90.000000
_cell_angle_beta 90.000000
_cell_angle_gamma 90.000000
_cell_volume 6428.107000
_symmetry_space_group_name_H-M "C M M M"
_symmetry_group_IT_number 65
_symmetry_cell_setting 'orthorhombic'
loop_
_space_group_symop_operation_xyz
x,y,z
-x,-y,z
x,-y,-z
-x,y,-z
-x,-y,-z
x,y,-z
-x,y,z
x,-y,z
1/2+x,1/2+y,z
1/2-x,1/2-y,z
1/2+x,1/2-y,-z
1/2-x,1/2+y,-z
1/2-x,1/2-y,-z
1/2+x,1/2+y,-z
1/2-x,1/2+y,z
1/2+x,1/2-y,z
loop_
_atom_site_type_symbol
_atom_site_label
_atom_site_fract_x
_atom_site_fract_y
_atom_site_fract_z
Si Si1 0.830459 0.905982 0.108330
Si Si2 0.835217 0.438031 0.500000
Si Si3 0.330297 0.698897 0.056316
Si Si4 0.835745 0.561961 0.689978
Si Si5 0.833285 0.059980 0.784729
Si Si6 0.835322 0.937992 0.404688
Si Si7 0.669796 0.000000 0.057501
O O1 0.780773 0.849834 0.089011
O O2 0.798763 0.907198 0.166515
O O3 0.000000 0.916816 0.097407
O O4 0.738436 0.948835 0.080477
O O5 0.836729 0.500000 0.500000
O O6 0.751537 0.416900 0.547971
O O7 0.000000 0.416561 0.500000
O O8 0.500000 0.709307 0.061396
O O9 0.250000 0.750000 0.076438
O O10 0.285762 0.687378 0.000000
O O11 0.832082 0.500000 0.689253
O O12 0.765215 0.582221 0.740660
O O13 0.744217 0.583760 0.643941
O O14 0.000000 0.582948 0.686224
O O15 0.000000 0.065924 0.768198
O O16 0.796909 0.000000 0.796430
O O17 0.000000 0.916667 0.406142
O O18 0.835694 0.000000 0.404552
O O19 0.500000 0.000000 0.069362
O O20 0.702858 0.000000 0.000000
#
# Coordination Sequence:
#
# PCOD8268844 Si02
#       7
#    16   8  16  16  16  16   8
#     4  10  19  33  50  66  84 112 144 171 202 250
#     4   9  15  21  29  41  59  81 109 151 200 243
#     4   9  18  32  50  69  87 109 138 171 207 247
#     4   9  16  24  34  48  67  92 121 153 193 238
#     4   9  16  27  41  57  76  99 129 163 197 235
#     4   9  15  22  31  43  59  83 116 154 194 235
#     4  11  23  33  43  65  93 115 135 166 209 250
#
# _framework density 14.934412999999999
#
# number of rings (size 3 to 8) (size 9 to 14) (size 15 to 20)
#    0.000    2.667    0.833    2.000    0.000    7.667 
#    0.000    1.667    0.000    0.000    0.000    0.000 
#    0.000    0.000    0.000    0.000    0.000    0.000 
#
# Total GULP energy -595196.915689 kJ/mol
# GULP energy per Si atom -12399.935744 kJ/mol
# Density = 1.490042 g / cm^3
# Si number density = 14.934413 Si / 1000 Ang^3
#
#
#
# Elastic Constant Matrix: (Units=GPa)
#
#
# Indices 1 2 3 4 5 6 
#
# 1 107.3289 33.9013 71.6249 0.0000 0.0000 0.0000
# 2 33.9013 57.6152 45.0774 0.0000 0.0000 0.0000
# 3 71.6249 45.0774 127.3474 0.0000 0.0000 0.0000
# 4 0.0000 0.0000 0.0000 11.2550 0.0000 0.0000
# 5 0.0000 0.0000 0.0000 0.0000 27.8235 0.0000
# 6 0.0000 0.0000 0.0000 0.0000 0.0000 14.6054
#
#
#
# Elastic Compliance Matrix: (Units=1/GPa)
#
#
# Indices 1 2 3 4 5 6 
#
# 1 0.015316 -0.003143 -0.007502 0.000000 0.000000 0.000000
# 2 -0.003143 0.024649 -0.006958 0.000000 0.000000 0.000000
# 3 -0.007502 -0.006958 0.014535 0.000000 0.000000 0.000000
# 4 0.000000 0.000000 0.000000 0.088849 0.000000 0.000000
# 5 0.000000 0.000000 0.000000 0.000000 0.035941 0.000000
# 6 0.000000 0.000000 0.000000 0.000000 0.000000 0.068468
#
#
# Mechanical properties :
#
#
# Convention : Reuss Voigt Hill
#
# Bulk Modulus (GPa) = 51.82516 65.94427 58.88471
# Shear Modulus (GPa) = 17.27744 20.18263 18.73003
#
# Velocity S-wave (km/s) = 3.40500 3.68015 3.54524
# Velocity P-wave (km/s) = 7.08772 7.89366 7.50152
#
# Compressibility (1/GPa) = 0.01929565
#
# Stress axis : x y z
#
# Youngs Moduli (GPa) = 65.29039 40.56918 68.80097
#
# Poissons Ratio (x) = 0.12750 0.51614
# Poissons Ratio (y) = 0.20519 0.47869
# Poissons Ratio (z) = 0.48980 0.28226
#
# Static dielectric constant tensor:
#      x y z
#    x 3.021740 0.000000 0.000000 
#    y 0.000000 2.386560 0.000000 
#    z 0.000000 0.000000 3.039200 
# 
# 
# High freq. dielectric constant tensor:
#      x y z
#    x 1.584090 0.000000 0.000000 
#    y 0.000000 1.496180 0.000000 
#    z 0.000000 0.000000 1.582560 
# 
# From -- ./inp_files/73521.got.cif
#   From: 2010.03.12/outbox.cif.g09.slc.cpg/sg65_37_cif.got.tgz:73521.got - 2010.04.10 20:52:16.
