data_PCOD8268534
_publ_section_title
;
Structure prediction by ZEFSAII (Michael W. Deem and Ramdas Pophale) SiO2 
 PCOD8268534
Probable space group: C M M M
;
_chemical_formula_sum "Si O2"
_cell_formula_units_Z 104
_cell_length_a 25.654607
_cell_length_b 9.195492
_cell_length_c 23.234847
_cell_angle_alpha 90.000000
_cell_angle_beta 90.000000
_cell_angle_gamma 90.000000
_cell_volume 5481.256858
_symmetry_space_group_name_H-M "C M M M"
_symmetry_group_IT_number 65
_symmetry_cell_setting 'orthorhombic'
loop_
_space_group_symop_operation_xyz
x,y,z
-x,-y,z
x,-y,-z
-x,y,-z
-x,-y,-z
x,y,-z
-x,y,z
x,-y,z
1/2+x,1/2+y,z
1/2-x,1/2-y,z
1/2+x,1/2-y,-z
1/2-x,1/2+y,-z
1/2-x,1/2-y,-z
1/2+x,1/2+y,-z
1/2-x,1/2+y,z
1/2+x,1/2-y,z
loop_
_atom_site_type_symbol
_atom_site_label
_atom_site_fract_x
_atom_site_fract_y
_atom_site_fract_z
Si Si1 0.109497 0.829690 0.186397
Si Si2 0.000000 0.327861 0.643393
Si Si3 0.898515 0.168871 0.062910
Si Si4 0.302362 0.670035 0.600181
Si Si5 0.000000 0.656919 0.933699
Si Si6 0.096655 0.665511 0.435031
Si Si7 0.199023 0.169194 0.266112
Si Si8 0.000000 0.826543 0.234084
O O1 0.133750 0.799520 0.121500
O O2 0.150185 0.762391 0.231575
O O3 0.051074 0.769256 0.199056
O O4 0.106272 0.000000 0.197135
O O5 0.948768 0.280442 0.607634
O O6 0.000000 0.242211 0.702827
O O7 0.000000 0.500000 0.654441
O O8 0.950560 0.248526 0.081444
O O9 0.911251 0.000000 0.057073
O O10 0.875446 0.222620 0.000000
O O11 0.296941 0.500000 0.586083
O O12 0.250000 0.750000 0.578182
O O13 0.352587 0.733431 0.568615
O O14 0.310789 0.700561 0.667363
O O15 0.000000 0.500000 0.901098
O O16 0.000000 0.621542 0.000000
O O17 0.074884 0.675299 0.500000
O O18 0.112773 0.500000 0.419968
O O19 0.250000 0.250000 0.243329
O O20 0.206481 0.000000 0.253004
O O21 0.000000 0.000000 0.240921
#
# Coordination Sequence:
#
# PCOD8268534 Si02
#       8
#    16   8  16  16   8  16  16   8
#     4   9  17  30  49  73 100 127 159 203 251 294
#     4  10  21  37  55  75 103 137 172 210 248 288
#     4   9  16  27  45  66  88 121 164 202 236 283
#     4  10  20  35  56  80 104 131 165 208 257 304
#     4   9  16  25  37  56  86 121 152 186 231 279
#     4  10  21  37  56  77 103 137 173 206 244 293
#     4   9  18  33  52  73  97 127 163 202 246 294
#     4  10  19  32  51  74 101 132 163 201 253 304
#
# _framework density 18.973751
#
# number of rings (size 3 to 8) (size 9 to 14) (size 15 to 20)
#    0.000    2.538    0.000    2.308    0.000    6.154 
#    0.000    3.077    0.000    1.846    0.000    0.000 
#    0.000    0.000    0.000    0.000    0.000    0.000 
#
# Total GULP energy -644212.211613 kJ/mol
# GULP energy per Si atom -12388.696377 kJ/mol
# Density = 1.893057 g / cm^3
# Si number density = 18.973751 Si / 1000 Ang^3
#
#
#
# Elastic Constant Matrix: (Units=GPa)
#
#
# Indices 1 2 3 4 5 6 
#
# 1 93.3632 17.7702 39.4524 0.0000 0.0000 0.0000
# 2 17.7702 33.9080 24.1114 0.0000 0.0000 0.0000
# 3 39.4524 24.1114 111.2962 0.0000 0.0000 0.0000
# 4 0.0000 0.0000 0.0000 18.0135 0.0000 0.0000
# 5 0.0000 0.0000 0.0000 0.0000 17.2704 0.0000
# 6 0.0000 0.0000 0.0000 0.0000 0.0000 29.3741
#
#
#
# Elastic Compliance Matrix: (Units=1/GPa)
#
#
# Indices 1 2 3 4 5 6 
#
# 1 0.013087 -0.004208 -0.003727 0.000000 0.000000 0.000000
# 2 -0.004208 0.036215 -0.006354 0.000000 0.000000 0.000000
# 3 -0.003727 -0.006354 0.011683 0.000000 0.000000 0.000000
# 4 0.000000 0.000000 0.000000 0.055514 0.000000 0.000000
# 5 0.000000 0.000000 0.000000 0.000000 0.057903 0.000000
# 6 0.000000 0.000000 0.000000 0.000000 0.000000 0.034044
#
#
# Mechanical properties :
#
#
# Convention : Reuss Voigt Hill
#
# Bulk Modulus (GPa) = 30.85851 44.58172 37.72012
# Shear Modulus (GPa) = 20.17546 23.41382 21.79464
#
# Velocity S-wave (km/s) = 3.26442 3.51666 3.39289
# Velocity P-wave (km/s) = 5.52338 6.32746 5.93904
#
# Compressibility (1/GPa) = 0.03240597
#
# Stress axis : x y z
#
# Youngs Moduli (GPa) = 76.41244 27.61279 85.59521
#
# Poissons Ratio (x) = 0.11619 0.31905
# Poissons Ratio (y) = 0.32154 0.54388
# Poissons Ratio (z) = 0.28482 0.17545
#
# Static dielectric constant tensor:
#      x y z
#    x 3.052550 0.000000 0.000000 
#    y 0.000000 3.365450 0.000000 
#    z 0.000000 0.000000 3.680900 
# 
# 
# High freq. dielectric constant tensor:
#      x y z
#    x 1.714100 0.000000 0.000000 
#    y 0.000000 1.718340 0.000000 
#    z 0.000000 0.000000 1.752030 
# 
# From -- ./inp_files/75861.got.cif
#   From: 2010.03.12/outbox.cif.g09.slc.cpg/sg65_38_cif.got.tgz:75861.got - 2010.04.10 20:52:16.
