data_PCOD8268214
_publ_section_title
;
Structure prediction by ZEFSAII (Michael W. Deem and Ramdas Pophale) SiO2 
 PCOD8268214
Probable space group: C M M M
;
_chemical_formula_sum "Si O2"
_cell_formula_units_Z 80
_cell_length_a 36.506443
_cell_length_b 9.510919
_cell_length_c 12.731430
_cell_angle_alpha 90.000000
_cell_angle_beta 90.000000
_cell_angle_gamma 90.000000
_cell_volume 4420.477549
_symmetry_space_group_name_H-M "C M M M"
_symmetry_group_IT_number 65
_symmetry_cell_setting 'orthorhombic'
loop_
_space_group_symop_operation_xyz
x,y,z
-x,-y,z
x,-y,-z
-x,y,-z
-x,-y,-z
x,y,-z
-x,y,z
x,-y,z
1/2+x,1/2+y,z
1/2-x,1/2-y,z
1/2+x,1/2-y,-z
1/2-x,1/2+y,-z
1/2-x,1/2-y,-z
1/2+x,1/2+y,-z
1/2-x,1/2+y,z
1/2+x,1/2-y,z
loop_
_atom_site_type_symbol
_atom_site_label
_atom_site_fract_x
_atom_site_fract_y
_atom_site_fract_z
Si Si1 0.905579 0.336450 0.880417
Si Si2 0.214033 0.837506 0.311696
Si Si3 0.585913 0.832751 0.500000
Si Si4 0.459203 0.833465 0.701138
Si Si5 0.834358 0.837556 0.880846
Si Si6 0.339748 0.337054 0.500000
O O1 0.896881 0.500000 0.862535
O O2 0.938791 0.284882 0.807239
O O3 0.869376 0.252907 0.848287
O O4 0.917175 0.304846 0.000000
O O5 0.250000 0.750000 0.336288
O O6 0.198925 0.798258 0.196143
O O7 0.183437 0.799468 0.396954
O O8 0.224985 0.000000 0.319112
O O9 0.563397 0.779862 0.399009
O O10 0.625026 0.760338 0.500000
O O11 0.591694 0.000000 0.500000
O O12 0.500000 0.767308 0.700322
O O13 0.462300 0.000000 0.696840
O O14 0.845411 0.000000 0.867428
O O15 0.821873 0.803773 0.000000
O O16 0.351618 0.500000 0.500000
#
# Coordination Sequence:
#
# PCOD8268214 Si02
#       6
#    16  16   8  16  16   8
#     4   9  17  29  47  71  95 122 160 199 232 272
#     4  10  21  35  51  72  97 125 156 191 234 282
#     4  10  19  31  51  74  92 120 163 199 229 275
#     4   9  17  29  46  70  99 126 154 194 240 280
#     4   9  18  33  51  70  95 127 159 191 232 280
#     4  10  21  36  52  71  97 126 155 191 237 283
#
# _framework density 18.097591999999999
#
# number of rings (size 3 to 8) (size 9 to 14) (size 15 to 20)
#    0.000    2.600    0.000    1.800    0.000    3.600 
#    0.000    2.000    0.000    3.000    0.000    2.800 
#    0.000    0.000    0.000    0.000    0.000    0.000 
#
# Total GULP energy -496052.119432 kJ/mol
# GULP energy per Si atom -12401.302986 kJ/mol
# Density = 1.805640 g / cm^3
# Si number density = 18.097592 Si / 1000 Ang^3
#
#
#
# Elastic Constant Matrix: (Units=GPa)
#
#
# Indices 1 2 3 4 5 6 
#
# 1 126.4473 48.2463 58.9233 0.0000 0.0000 0.0000
# 2 48.2463 41.4647 31.3649 0.0000 0.0000 0.0000
# 3 58.9233 31.3649 107.1210 0.0000 0.0000 0.0000
# 4 0.0000 0.0000 0.0000 16.0833 0.0000 0.0000
# 5 0.0000 0.0000 0.0000 0.0000 17.6406 0.0000
# 6 0.0000 0.0000 0.0000 0.0000 0.0000 25.2075
#
#
#
# Elastic Compliance Matrix: (Units=1/GPa)
#
#
# Indices 1 2 3 4 5 6 
#
# 1 0.015557 -0.014937 -0.004184 0.000000 0.000000 0.000000
# 2 -0.014937 0.045319 -0.005053 0.000000 0.000000 0.000000
# 3 -0.004184 -0.005053 0.013116 0.000000 0.000000 0.000000
# 4 0.000000 0.000000 0.000000 0.062176 0.000000 0.000000
# 5 0.000000 0.000000 0.000000 0.000000 0.056687 0.000000
# 6 0.000000 0.000000 0.000000 0.000000 0.000000 0.039671
#
#
# Mechanical properties :
#
#
# Convention : Reuss Voigt Hill
#
# Bulk Modulus (GPa) = 38.99462 61.34467 50.16965
# Shear Modulus (GPa) = 17.27575 20.88620 19.08097
#
# Velocity S-wave (km/s) = 3.09299 3.40087 3.25058
# Velocity P-wave (km/s) = 5.86081 7.02790 6.47072
#
# Compressibility (1/GPa) = 0.02564456
#
# Stress axis : x y z
#
# Youngs Moduli (GPa) = 64.27834 22.06579 76.24126
#
# Poissons Ratio (x) = 0.32959 0.31899
# Poissons Ratio (y) = 0.96012 0.38526
# Poissons Ratio (z) = 0.26894 0.11150
#
# Static dielectric constant tensor:
#      x y z
#    x 3.307390 0.000000 0.000000 
#    y 0.000000 3.101220 0.000000 
#    z 0.000000 0.000000 3.616720 
# 
# 
# High freq. dielectric constant tensor:
#      x y z
#    x 1.697780 0.000000 0.000000 
#    y 0.000000 1.672940 0.000000 
#    z 0.000000 0.000000 1.720940 
# 
# From -- ./inp_files/33539.got.cif
#   From: 2010.03.12/outbox.cif.g09.slc.cpg/sg65_17_cif.got.tgz:33539.got - 2010.04.10 20:52:16.
