data_PCOD8268562
_publ_section_title
;
Structure prediction by ZEFSAII (Michael W. Deem and Ramdas Pophale) SiO2 
 PCOD8268562
Probable space group: C M M M
;
_chemical_formula_sum "Si O2"
_cell_formula_units_Z 80
_cell_length_a 9.207335
_cell_length_b 18.360178
_cell_length_c 26.183557
_cell_angle_alpha 90.000000
_cell_angle_beta 90.000000
_cell_angle_gamma 90.000000
_cell_volume 4426.286048
_symmetry_space_group_name_H-M "C M M M"
_symmetry_group_IT_number 65
_symmetry_cell_setting 'orthorhombic'
loop_
_space_group_symop_operation_xyz
x,y,z
-x,-y,z
x,-y,-z
-x,y,-z
-x,-y,-z
x,y,-z
-x,y,z
x,-y,z
1/2+x,1/2+y,z
1/2-x,1/2-y,z
1/2+x,1/2-y,-z
1/2-x,1/2+y,-z
1/2-x,1/2-y,-z
1/2+x,1/2+y,-z
1/2-x,1/2+y,z
1/2+x,1/2-y,z
loop_
_atom_site_type_symbol
_atom_site_label
_atom_site_fract_x
_atom_site_fract_y
_atom_site_fract_z
Si Si1 0.169876 0.326357 0.000000
Si Si2 0.830041 0.173538 0.594444
Si Si3 0.831375 0.415309 0.099841
Si Si4 0.665429 0.676628 0.295546
Si Si5 0.172961 0.080812 0.500000
Si Si6 0.171132 0.827695 0.184350
O O1 0.250000 0.250000 0.000000
O O2 0.216285 0.372427 0.049279
O O3 0.000000 0.310347 0.000000
O O4 0.750000 0.250000 0.589870
O O5 0.801975 0.135099 0.650597
O O6 0.768481 0.120664 0.550778
O O7 0.000000 0.188049 0.585889
O O8 0.798610 0.500000 0.090845
O O9 0.734644 0.386931 0.146201
O O10 0.000000 0.402092 0.112603
O O11 0.500000 0.700560 0.294511
O O12 0.750000 0.750000 0.297760
O O13 0.701201 0.637824 0.241349
O O14 0.000000 0.078030 0.500000
O O15 0.238818 0.000000 0.500000
O O16 0.250000 0.750000 0.177048
O O17 0.000000 0.816689 0.173955
#
# Coordination Sequence:
#
# PCOD8268562 Si02
#       6
#     8  16  16  16   8  16
#     4  10  21  37  57  79 101 128 163 202 244 290
#     4   9  16  28  47  69  91 118 155 196 237 280
#     4  10  21  37  55  75 102 135 167 200 241 288
#     4   8  15  27  44  68  95 122 154 194 238 280
#     4   9  17  28  43  65  92 121 154 192 234 283
#     4  10  19  32  51  75 102 131 165 203 243 289
#
# _framework density 18.073844000000001
#
# number of rings (size 3 to 8) (size 9 to 14) (size 15 to 20)
#    0.000    2.700    0.000    1.800    0.000    4.800 
#    0.000    1.000    0.000    6.600    0.000    0.000 
#    0.000    0.000    0.000    0.000    0.000    0.000 
#
# Total GULP energy -495539.820649 kJ/mol
# GULP energy per Si atom -12388.495516 kJ/mol
# Density = 1.803271 g / cm^3
# Si number density = 18.073844 Si / 1000 Ang^3
#
#
#
# Elastic Constant Matrix: (Units=GPa)
#
#
# Indices 1 2 3 4 5 6 
#
# 1 48.4313 37.0954 54.3378 0.0000 0.0000 0.0000
# 2 37.0954 108.0729 81.3292 0.0000 0.0000 0.0000
# 3 54.3378 81.3292 197.0366 0.0000 0.0000 0.0000
# 4 0.0000 0.0000 0.0000 7.3334 0.0000 0.0000
# 5 0.0000 0.0000 0.0000 0.0000 27.3420 0.0000
# 6 0.0000 0.0000 0.0000 0.0000 0.0000 23.3656
#
#
#
# Elastic Compliance Matrix: (Units=1/GPa)
#
#
# Indices 1 2 3 4 5 6 
#
# 1 0.032724 -0.006442 -0.006365 0.000000 0.000000 0.000000
# 2 -0.006442 0.014690 -0.004287 0.000000 0.000000 0.000000
# 3 -0.006365 -0.004287 0.008600 0.000000 0.000000 0.000000
# 4 0.000000 0.000000 0.000000 0.136363 0.000000 0.000000
# 5 0.000000 0.000000 0.000000 0.000000 0.036574 0.000000
# 6 0.000000 0.000000 0.000000 0.000000 0.000000 0.042798
#
#
# Mechanical properties :
#
#
# Convention : Reuss Voigt Hill
#
# Bulk Modulus (GPa) = 45.81841 77.67394 61.74617
# Shear Modulus (GPa) = 15.96359 23.66010 19.81185
#
# Velocity S-wave (km/s) = 2.97516 3.62205 3.31442
# Velocity P-wave (km/s) = 6.09982 7.78212 6.99176
#
# Compressibility (1/GPa) = 0.02182529
#
# Stress axis : x y z
#
# Youngs Moduli (GPa) = 30.55894 68.07164 116.27702
#
# Poissons Ratio (x) = 0.43852 0.74014
# Poissons Ratio (y) = 0.19686 0.49849
# Poissons Ratio (z) = 0.19452 0.29183
#
# Static dielectric constant tensor:
#      x y z
#    x 3.175590 0.000000 0.000000 
#    y 0.000000 3.008610 0.000000 
#    z 0.000000 0.000000 4.221920 
# 
# 
# High freq. dielectric constant tensor:
#      x y z
#    x 1.689550 0.000000 0.000000 
#    y 0.000000 1.664050 0.000000 
#    z 0.000000 0.000000 1.731770 
# 
# From -- ./inp_files/72956.got.cif
#   From: 2010.03.12/outbox.cif.g09.slc.cpg/sg65_37_cif.got.tgz:72956.got - 2010.04.10 20:52:16.
