data_PCOD8268395
_publ_section_title
;
Structure prediction by ZEFSAII (Michael W. Deem and Ramdas Pophale) SiO2 
 PCOD8268395
Probable space group: C M M M
;
_chemical_formula_sum "Si O2"
_cell_formula_units_Z 120
_cell_length_a 29.117833
_cell_length_b 9.235344
_cell_length_c 25.629115
_cell_angle_alpha 90.000000
_cell_angle_beta 90.000000
_cell_angle_gamma 90.000000
_cell_volume 6892.007438
_symmetry_space_group_name_H-M "C M M M"
_symmetry_group_IT_number 65
_symmetry_cell_setting 'orthorhombic'
loop_
_space_group_symop_operation_xyz
x,y,z
-x,-y,z
x,-y,-z
-x,y,-z
-x,-y,-z
x,y,-z
-x,y,z
x,-y,z
1/2+x,1/2+y,z
1/2-x,1/2-y,z
1/2+x,1/2-y,-z
1/2-x,1/2+y,-z
1/2-x,1/2-y,-z
1/2+x,1/2+y,-z
1/2-x,1/2+y,z
1/2+x,1/2-y,z
loop_
_atom_site_type_symbol
_atom_site_label
_atom_site_fract_x
_atom_site_fract_y
_atom_site_fract_z
Si Si1 0.795321 0.837449 0.500000
Si Si2 0.052790 0.830349 0.261939
Si Si3 0.205515 0.330533 0.099157
Si Si4 0.553472 0.662049 0.856737
Si Si5 0.200640 0.828878 0.386253
Si Si6 0.635773 0.830202 0.694212
Si Si7 0.293539 0.166048 0.217752
Si Si8 0.890761 0.670541 0.942048
O O1 0.750000 0.750000 0.500000
O O2 0.820884 0.806635 0.555052
O O3 0.777894 0.000000 0.500000
O O4 0.062308 0.783193 0.202138
O O5 0.084899 0.736441 0.300147
O O6 0.000000 0.797449 0.276811
O O7 0.063406 0.000000 0.269166
O O8 0.214529 0.500000 0.094410
O O9 0.250000 0.250000 0.076422
O O10 0.196213 0.282805 0.158930
O O11 0.161806 0.280404 0.065859
O O12 0.500000 0.664441 0.869148
O O13 0.572935 0.500000 0.863213
O O14 0.577223 0.764067 0.898246
O O15 0.250000 0.750000 0.379814
O O16 0.163140 0.754330 0.350111
O O17 0.206265 0.000000 0.372896
O O18 0.661325 0.802700 0.748857
O O19 0.632585 0.000000 0.680239
O O20 0.250000 0.250000 0.241826
O O21 0.279335 0.000000 0.219727
O O22 0.894545 0.500000 0.935544
O O23 0.906346 0.719883 0.000000
#
# Coordination Sequence:
#
# PCOD8268395 Si02
#       8
#     8  16  16  16  16  16  16  16
#     4   8  16  30  48  68  95 136 181 220 254 289
#     4   9  19  36  55  74  97 126 160 199 246 298
#     4   9  18  33  49  65  88 120 157 194 231 274
#     4   9  19  36  56  76  97 122 154 193 239 292
#     4  10  19  32  49  72 104 141 180 218 254 292
#     4  11  21  31  47  74 104 134 167 202 245 296
#     4   9  18  30  44  64  92 124 156 190 230 280
#     4  10  21  35  50  70  96 124 155 194 240 289
#
# _framework density 17.411473000000001
#
# number of rings (size 3 to 8) (size 9 to 14) (size 15 to 20)
#    0.000    2.533    0.000    2.800    0.000    6.133 
#    0.000    5.333    0.000    0.000    0.000    0.467 
#    0.000    3.733    0.000    0.000    0.000    0.000 
#
# Total GULP energy -743733.056827 kJ/mol
# GULP energy per Si atom -12395.550947 kJ/mol
# Density = 1.737184 g / cm^3
# Si number density = 17.411473 Si / 1000 Ang^3
#
#
#
# Elastic Constant Matrix: (Units=GPa)
#
#
# Indices 1 2 3 4 5 6 
#
# 1 89.5705 48.7172 53.3051 0.0000 0.0000 0.0000
# 2 48.7172 72.6038 49.9517 0.0000 0.0000 0.0000
# 3 53.3051 49.9517 87.8936 0.0000 0.0000 0.0000
# 4 0.0000 0.0000 0.0000 22.8371 0.0000 0.0000
# 5 0.0000 0.0000 0.0000 0.0000 20.5546 0.0000
# 6 0.0000 0.0000 0.0000 0.0000 0.0000 32.4035
#
#
#
# Elastic Compliance Matrix: (Units=1/GPa)
#
#
# Indices 1 2 3 4 5 6 
#
# 1 0.020175 -0.008406 -0.007458 0.000000 0.000000 0.000000
# 2 -0.008406 0.026119 -0.009746 0.000000 0.000000 0.000000
# 3 -0.007458 -0.009746 0.021439 0.000000 0.000000 0.000000
# 4 0.000000 0.000000 0.000000 0.043788 0.000000 0.000000
# 5 0.000000 0.000000 0.000000 0.000000 0.048651 0.000000
# 6 0.000000 0.000000 0.000000 0.000000 0.000000 0.030861
#
#
# Mechanical properties :
#
#
# Convention : Reuss Voigt Hill
#
# Bulk Modulus (GPa) = 60.55847 61.55732 61.05790
# Shear Modulus (GPa) = 20.18094 21.69864 20.93979
#
# Velocity S-wave (km/s) = 3.40819 3.53402 3.47168
# Velocity P-wave (km/s) = 7.09535 7.21690 7.15638
#
# Compressibility (1/GPa) = 0.01651297
#
# Stress axis : x y z
#
# Youngs Moduli (GPa) = 49.56628 38.28611 46.64313
#
# Poissons Ratio (x) = 0.32184 0.34787
# Poissons Ratio (y) = 0.41666 0.45458
# Poissons Ratio (z) = 0.36968 0.37313
#
# Static dielectric constant tensor:
#      x y z
#    x 3.108720 0.000000 0.000000 
#    y 0.000000 3.282390 0.000000 
#    z 0.000000 0.000000 2.971190 
# 
# 
# High freq. dielectric constant tensor:
#      x y z
#    x 1.657280 0.000000 0.000000 
#    y 0.000000 1.675890 0.000000 
#    z 0.000000 0.000000 1.665440 
# 
# From -- ./inp_files/76187.got.cif
#   From: 2010.03.12/outbox.cif.g09.slc.cpg/sg65_39_cif.got.tgz:76187.got - 2010.04.10 20:52:16.
