data_PCOD8268227
_publ_section_title
;
Structure prediction by ZEFSAII (Michael W. Deem and Ramdas Pophale) SiO2 
 PCOD8268227
Probable space group: C M M M
;
_chemical_formula_sum "Si O2"
_cell_formula_units_Z 88
_cell_length_a 18.662176
_cell_length_b 9.146966
_cell_length_c 28.062268
_cell_angle_alpha 90.000000
_cell_angle_beta 90.000000
_cell_angle_gamma 90.000000
_cell_volume 4790.293392
_symmetry_space_group_name_H-M "C M M M"
_symmetry_group_IT_number 65
_symmetry_cell_setting 'orthorhombic'
loop_
_space_group_symop_operation_xyz
x,y,z
-x,-y,z
x,-y,-z
-x,y,-z
-x,-y,-z
x,y,-z
-x,y,z
x,-y,z
1/2+x,1/2+y,z
1/2-x,1/2-y,z
1/2+x,1/2-y,-z
1/2-x,1/2+y,-z
1/2-x,1/2-y,-z
1/2+x,1/2+y,-z
1/2-x,1/2+y,z
1/2+x,1/2-y,z
loop_
_atom_site_type_symbol
_atom_site_label
_atom_site_fract_x
_atom_site_fract_y
_atom_site_fract_z
Si Si1 0.914824 0.664251 0.947484
Si Si2 0.585084 0.334456 0.143300
Si Si3 0.176634 0.328036 0.217753
Si Si4 0.673555 0.173916 0.500000
Si Si5 0.920157 0.673244 0.588910
Si Si6 0.677933 0.829617 0.673434
O O1 0.887191 0.500000 0.937059
O O2 0.884727 0.772358 0.906936
O O3 0.000000 0.665628 0.946583
O O4 0.888121 0.715763 0.000000
O O5 0.500000 0.326706 0.144588
O O6 0.612747 0.500000 0.148868
O O7 0.612761 0.235399 0.186305
O O8 0.184491 0.500000 0.209055
O O9 0.250000 0.250000 0.202584
O O10 0.157011 0.291262 0.272395
O O11 0.750000 0.250000 0.500000
O O12 0.629397 0.229116 0.454097
O O13 0.684351 0.000000 0.500000
O O14 0.925734 0.500000 0.586382
O O15 0.886143 0.723544 0.639211
O O16 0.000000 0.741176 0.584824
O O17 0.750000 0.750000 0.657408
O O18 0.692851 0.000000 0.667020
#
# Coordination Sequence:
#
# PCOD8268227 Si02
#       6
#    16  16  16   8  16  16
#     4   8  14  26  45  69  97 129 165 204 245 291
#     4  10  20  32  48  73 103 132 164 205 250 296
#     4  10  20  34  52  72  96 129 167 206 250 300
#     4  10  19  31  51  75  99 132 168 204 244 288
#     4   9  17  30  49  74 101 128 163 204 244 288
#     4   9  18  32  51  72  94 124 161 202 244 291
#
# _framework density 18.370481999999999
#
# number of rings (size 3 to 8) (size 9 to 14) (size 15 to 20)
#    0.000    2.727    0.000    2.455    0.000    4.000 
#    0.000    3.636    0.000    3.273    0.000    0.000 
#    0.000    0.000    0.000    0.000    0.000    0.000 
#
# Total GULP energy -545523.830964 kJ/mol
# GULP energy per Si atom -12398.268886 kJ/mol
# Density = 1.832867 g / cm^3
# Si number density = 18.370482 Si / 1000 Ang^3
#
#
#
# Elastic Constant Matrix: (Units=GPa)
#
#
# Indices 1 2 3 4 5 6 
#
# 1 93.3216 35.7474 63.0086 0.0000 0.0000 0.0000
# 2 35.7474 70.8494 47.7553 0.0000 0.0000 0.0000
# 3 63.0086 47.7553 130.9314 0.0000 0.0000 0.0000
# 4 0.0000 0.0000 0.0000 20.7519 0.0000 0.0000
# 5 0.0000 0.0000 0.0000 0.0000 18.1089 0.0000
# 6 0.0000 0.0000 0.0000 0.0000 0.0000 26.3476
#
#
#
# Elastic Compliance Matrix: (Units=1/GPa)
#
#
# Indices 1 2 3 4 5 6 
#
# 1 0.016681 -0.003985 -0.006574 0.000000 0.000000 0.000000
# 2 -0.003985 0.019668 -0.005256 0.000000 0.000000 0.000000
# 3 -0.006574 -0.005256 0.012718 0.000000 0.000000 0.000000
# 4 0.000000 0.000000 0.000000 0.048188 0.000000 0.000000
# 5 0.000000 0.000000 0.000000 0.000000 0.055222 0.000000
# 6 0.000000 0.000000 0.000000 0.000000 0.000000 0.037954
#
#
# Mechanical properties :
#
#
# Convention : Reuss Voigt Hill
#
# Bulk Modulus (GPa) = 57.34926 65.34724 61.34825
# Shear Modulus (GPa) = 21.94211 22.94774 22.44492
#
# Velocity S-wave (km/s) = 3.45979 3.53819 3.49921
# Velocity P-wave (km/s) = 6.87358 7.23469 7.05645
#
# Compressibility (1/GPa) = 0.01743702
#
# Stress axis : x y z
#
# Youngs Moduli (GPa) = 59.94967 50.84457 78.62886
#
# Poissons Ratio (x) = 0.20264 0.51688
# Poissons Ratio (y) = 0.23892 0.41324
# Poissons Ratio (z) = 0.39409 0.26722
#
# Static dielectric constant tensor:
#      x y z
#    x 3.224980 0.000000 0.000000 
#    y 0.000000 3.310870 0.000000 
#    z 0.000000 0.000000 3.681290 
# 
# 
# High freq. dielectric constant tensor:
#      x y z
#    x 1.688680 0.000000 0.000000 
#    y 0.000000 1.694630 0.000000 
#    z 0.000000 0.000000 1.727990 
# 
# From -- ./inp_files/77864.got.cif
#   From: 2010.03.12/outbox.cif.g09.slc.cpg/sg65_39_cif.got.tgz:77864.got - 2010.04.10 20:52:16.
