data_PCOD8268496
_publ_section_title
;
Structure prediction by ZEFSAII (Michael W. Deem and Ramdas Pophale) SiO2 
 PCOD8268496
Probable space group: C M M M
;
_chemical_formula_sum "Si O2"
_cell_formula_units_Z 120
_cell_length_a 20.095484
_cell_length_b 25.667688
_cell_length_c 14.086972
_cell_angle_alpha 90.000000
_cell_angle_beta 90.000000
_cell_angle_gamma 90.000000
_cell_volume 7266.125148
_symmetry_space_group_name_H-M "C M M M"
_symmetry_group_IT_number 65
_symmetry_cell_setting 'orthorhombic'
loop_
_space_group_symop_operation_xyz
x,y,z
-x,-y,z
x,-y,-z
-x,y,-z
-x,-y,-z
x,y,-z
-x,y,z
x,-y,z
1/2+x,1/2+y,z
1/2-x,1/2-y,z
1/2+x,1/2-y,-z
1/2-x,1/2+y,-z
1/2-x,1/2-y,-z
1/2+x,1/2+y,-z
1/2-x,1/2+y,z
1/2+x,1/2-y,z
loop_
_atom_site_type_symbol
_atom_site_label
_atom_site_fract_x
_atom_site_fract_y
_atom_site_fract_z
Si Si1 0.075494 0.557520 0.887446
Si Si2 0.670943 0.744623 0.772161
Si Si3 0.500000 0.561916 0.893978
Si Si4 0.349358 0.841257 0.894231
Si Si5 0.694129 0.647633 0.894306
Si Si6 0.868563 0.058970 0.207768
Si Si7 0.924359 0.908594 0.394251
Si Si8 0.075266 0.214258 0.391605
O O1 0.098636 0.500000 0.849300
O O2 0.121691 0.604828 0.849499
O O3 0.000000 0.568182 0.854011
O O4 0.079849 0.556273 0.000000
O O5 0.750000 0.750000 0.751173
O O6 0.636035 0.793382 0.824439
O O7 0.658300 0.694501 0.838470
O O8 0.631211 0.740463 0.673700
O O9 0.500000 0.500000 0.894922
O O10 0.564353 0.582250 0.838702
O O11 0.500000 0.584833 0.000000
O O12 0.271121 0.842593 0.905180
O O13 0.380062 0.831649 0.000000
O O14 0.689487 0.594395 0.834294
O O15 0.662480 0.642689 0.000000
O O16 0.874950 0.062717 0.321440
O O17 0.853605 0.000000 0.177108
O O18 0.902187 0.925016 0.500000
O O19 0.918361 0.847315 0.381103
O O20 0.000000 0.927179 0.375838
O O21 0.089386 0.231252 0.500000
O O22 0.000000 0.231251 0.362639
#
# Coordination Sequence:
#
# PCOD8268496 Si02
#       8
#    16  16   8  16  16  16  16  16
#     4   8  14  26  45  68  94 122 150 185 230 275
#     4  10  19  32  51  72  95 124 160 196 239 284
#     4   9  18  30  41  57  85 119 154 194 232 266
#     4   9  18  31  48  70  96 126 159 190 224 276
#     4  10  20  33  46  62  92 131 164 195 232 278
#     4  11  20  30  45  65  88 119 160 202 240 278
#     4   9  17  31  50  68  87 115 152 197 250 295
#     4   9  18  33  52  72  95 123 154 194 244 293
#
# _framework density 16.514991999999999
#
# number of rings (size 3 to 8) (size 9 to 14) (size 15 to 20)
#    0.000    2.600    2.000    2.000    0.000    4.000 
#    0.000    2.000    0.000    0.800    0.000    0.000 
#    0.000    0.533    0.000    2.933    0.000    0.133 
#
# Total GULP energy -743653.091107 kJ/mol
# GULP energy per Si atom -12394.218185 kJ/mol
# Density = 1.647740 g / cm^3
# Si number density = 16.514992 Si / 1000 Ang^3
#
#
#
# Elastic Constant Matrix: (Units=GPa)
#
#
# Indices 1 2 3 4 5 6 
#
# 1 31.7693 25.7853 27.3983 0.0000 0.0000 0.0000
# 2 25.7853 102.8285 37.6186 0.0000 0.0000 0.0000
# 3 27.3983 37.6186 97.4136 0.0000 0.0000 0.0000
# 4 0.0000 0.0000 0.0000 22.9421 0.0000 0.0000
# 5 0.0000 0.0000 0.0000 0.0000 19.0329 0.0000
# 6 0.0000 0.0000 0.0000 0.0000 0.0000 21.4298
#
#
#
# Elastic Compliance Matrix: (Units=1/GPa)
#
#
# Indices 1 2 3 4 5 6 
#
# 1 0.046631 -0.008029 -0.010014 0.000000 0.000000 0.000000
# 2 -0.008029 0.012707 -0.002649 0.000000 0.000000 0.000000
# 3 -0.010014 -0.002649 0.014105 0.000000 0.000000 0.000000
# 4 0.000000 0.000000 0.000000 0.043588 0.000000 0.000000
# 5 0.000000 0.000000 0.000000 0.000000 0.052541 0.000000
# 6 0.000000 0.000000 0.000000 0.000000 0.000000 0.046664
#
#
# Mechanical properties :
#
#
# Convention : Reuss Voigt Hill
#
# Bulk Modulus (GPa) = 31.19393 45.95729 38.57561
# Shear Modulus (GPa) = 18.63538 22.09493 20.36515
#
# Velocity S-wave (km/s) = 3.36280 3.66166 3.51541
# Velocity P-wave (km/s) = 5.83156 6.76499 6.31554
#
# Compressibility (1/GPa) = 0.03205752
#
# Stress axis : x y z
#
# Youngs Moduli (GPa) = 21.44517 78.69378 70.89641
#
# Poissons Ratio (x) = 0.63187 0.70999
# Poissons Ratio (y) = 0.17219 0.18780
# Poissons Ratio (z) = 0.21476 0.20846
#
# Static dielectric constant tensor:
#      x y z
#    x 2.934880 0.000000 0.000000 
#    y 0.000000 3.159480 0.000000 
#    z 0.000000 0.000000 3.168420 
# 
# 
# High freq. dielectric constant tensor:
#      x y z
#    x 1.611620 0.000000 0.000000 
#    y 0.000000 1.632210 0.000000 
#    z 0.000000 0.000000 1.621920 
# 
# From -- ./inp_files/44718.got.cif
#   From: 2010.03.12/outbox.cif.g09.slc.cpg/sg65_23_cif.got.tgz:44718.got - 2010.04.10 20:52:16.
