data_PCOD8268536
_publ_section_title
;
Structure prediction by ZEFSAII (Michael W. Deem and Ramdas Pophale) SiO2 
 PCOD8268536
Probable space group: C M M M
;
_chemical_formula_sum "Si O2"
_cell_formula_units_Z 88
_cell_length_a 9.202063
_cell_length_b 29.088863
_cell_length_c 17.531034
_cell_angle_alpha 90.000000
_cell_angle_beta 90.000000
_cell_angle_gamma 90.000000
_cell_volume 4692.664229
_symmetry_space_group_name_H-M "C M M M"
_symmetry_group_IT_number 65
_symmetry_cell_setting 'orthorhombic'
loop_
_space_group_symop_operation_xyz
x,y,z
-x,-y,z
x,-y,-z
-x,y,-z
-x,-y,-z
x,y,-z
-x,y,z
x,-y,z
1/2+x,1/2+y,z
1/2-x,1/2-y,z
1/2+x,1/2-y,-z
1/2-x,1/2+y,-z
1/2-x,1/2-y,-z
1/2+x,1/2+y,-z
1/2-x,1/2+y,z
1/2+x,1/2-y,z
loop_
_atom_site_type_symbol
_atom_site_label
_atom_site_fract_x
_atom_site_fract_y
_atom_site_fract_z
Si Si1 0.827422 0.447661 0.000000
Si Si2 0.828308 0.705131 0.196024
Si Si3 0.661440 0.676579 0.337286
Si Si4 0.828457 0.397132 0.848300
Si Si5 0.827611 0.000000 0.586372
Si Si6 0.661300 0.572586 0.292549
Si Si7 0.830168 0.203185 0.500000
O O1 0.771730 0.419119 0.926941
O O2 0.765616 0.500000 0.000000
O O3 0.000000 0.449538 0.000000
O O4 0.750000 0.750000 0.157601
O O5 0.775321 0.703108 0.283755
O O6 0.781726 0.657021 0.155094
O O7 0.000000 0.712544 0.192047
O O8 0.500000 0.699043 0.328288
O O9 0.651362 0.624237 0.317203
O O10 0.718388 0.676767 0.423938
O O11 0.762420 0.429320 0.781991
O O12 0.000000 0.400410 0.839497
O O13 0.774357 0.956172 0.636056
O O14 0.759901 0.000000 0.500000
O O15 0.000000 0.000000 0.577276
O O16 0.500000 0.553904 0.271519
O O17 0.750000 0.250000 0.500000
O O18 0.000000 0.211802 0.500000
#
# Coordination Sequence:
#
# PCOD8268536 Si02
#       7
#     8  16  16  16   8  16   8
#     4   9  18  34  58  83 105 135 173 209 250 305
#     4  10  19  32  51  74 101 132 167 206 250 301
#     4   9  18  31  47  67  94 129 168 209 252 299
#     4   9  19  35  55  80 106 134 171 213 254 303
#     4   9  18  30  49  76 103 136 178 217 253 301
#     4   9  18  32  51  74 102 135 171 212 255 302
#     4  10  20  30  42  63  89 119 159 206 252 294
#
# _framework density 18.752673000000001
#
# number of rings (size 3 to 8) (size 9 to 14) (size 15 to 20)
#    0.000    2.727    0.000    1.091    2.545    2.909 
#    0.000    0.909    0.000    1.636    0.000    0.000 
#    0.000    0.000    0.000    0.000    0.000    0.000 
#
# Total GULP energy -545202.588598 kJ/mol
# GULP energy per Si atom -12390.967923 kJ/mol
# Density = 1.870999 g / cm^3
# Si number density = 18.752673 Si / 1000 Ang^3
#
#
#
# Elastic Constant Matrix: (Units=GPa)
#
#
# Indices 1 2 3 4 5 6 
#
# 1 40.1218 32.3412 32.8572 0.0000 0.0000 0.0000
# 2 32.3412 95.5747 59.9371 0.0000 0.0000 0.0000
# 3 32.8572 59.9371 152.1527 0.0000 0.0000 0.0000
# 4 0.0000 0.0000 0.0000 18.0041 0.0000 0.0000
# 5 0.0000 0.0000 0.0000 0.0000 21.9061 0.0000
# 6 0.0000 0.0000 0.0000 0.0000 0.0000 18.2422
#
#
#
# Elastic Compliance Matrix: (Units=1/GPa)
#
#
# Indices 1 2 3 4 5 6 
#
# 1 0.035974 -0.009697 -0.003949 0.000000 0.000000 0.000000
# 2 -0.009697 0.016510 -0.004410 0.000000 0.000000 0.000000
# 3 -0.003949 -0.004410 0.009162 0.000000 0.000000 0.000000
# 4 0.000000 0.000000 0.000000 0.055543 0.000000 0.000000
# 5 0.000000 0.000000 0.000000 0.000000 0.045649 0.000000
# 6 0.000000 0.000000 0.000000 0.000000 0.000000 0.054818
#
#
# Mechanical properties :
#
#
# Convention : Reuss Voigt Hill
#
# Bulk Modulus (GPa) = 39.16091 59.79113 49.47602
# Shear Modulus (GPa) = 19.06370 22.47806 20.77088
#
# Velocity S-wave (km/s) = 3.19185 3.46592 3.33171
# Velocity P-wave (km/s) = 5.87470 6.92604 6.42192
#
# Compressibility (1/GPa) = 0.02553567
#
# Stress axis : x y z
#
# Youngs Moduli (GPa) = 27.79769 60.57071 109.14504
#
# Poissons Ratio (x) = 0.58734 0.43099
# Poissons Ratio (y) = 0.26955 0.48128
# Poissons Ratio (z) = 0.10977 0.26709
#
# Static dielectric constant tensor:
#      x y z
#    x 3.435090 0.000000 0.000000 
#    y 0.000000 3.876890 0.000000 
#    z 0.000000 0.000000 3.547230 
# 
# 
# High freq. dielectric constant tensor:
#      x y z
#    x 1.700200 0.000000 0.000000 
#    y 0.000000 1.738230 0.000000 
#    z 0.000000 0.000000 1.719890 
# 
# From -- ./inp_files/50549.got.cif
#   From: 2010.03.12/outbox.cif.g09.slc.cpg/sg65_26_cif.got.tgz:50549.got - 2010.04.10 20:52:16.
