data_PCOD8268626
_publ_section_title
;
Structure prediction by ZEFSAII (Michael W. Deem and Ramdas Pophale) SiO2 
 PCOD8268626
Probable space group: C M M M
;
_chemical_formula_sum "Si O2"
_cell_formula_units_Z 64
_cell_length_a 10.843954
_cell_length_b 33.437944
_cell_length_c 8.960013
_cell_angle_alpha 90.000000
_cell_angle_beta 90.000000
_cell_angle_gamma 90.000000
_cell_volume 3248.896472
_symmetry_space_group_name_H-M "C M M M"
_symmetry_group_IT_number 65
_symmetry_cell_setting 'orthorhombic'
loop_
_space_group_symop_operation_xyz
x,y,z
-x,-y,z
x,-y,-z
-x,y,-z
-x,-y,-z
x,y,-z
-x,y,z
x,-y,z
1/2+x,1/2+y,z
1/2-x,1/2-y,z
1/2+x,1/2-y,-z
1/2-x,1/2+y,-z
1/2-x,1/2-y,-z
1/2+x,1/2+y,-z
1/2-x,1/2+y,z
1/2+x,1/2-y,z
loop_
_atom_site_type_symbol
_atom_site_label
_atom_site_fract_x
_atom_site_fract_y
_atom_site_fract_z
Si Si1 0.500000 0.455360 0.174738
Si Si2 0.858744 0.500000 0.162202
Si Si3 0.762683 0.662868 0.677224
Si Si4 0.000000 0.197222 0.677585
Si Si5 0.247800 0.580233 0.176798
Si Si6 0.000000 0.712381 0.322831
O O1 0.500000 0.500000 0.248819
O O2 0.612779 0.428040 0.224694
O O3 0.500000 0.462013 0.000000
O O4 0.823384 0.458683 0.243281
O O5 0.000000 0.500000 0.132322
O O6 0.788253 0.500000 0.000000
O O7 0.760946 0.661441 0.500000
O O8 0.626835 0.676498 0.736925
O O9 0.798123 0.619553 0.740222
O O10 0.873328 0.691612 0.734392
O O11 0.000000 0.196761 0.500000
O O12 0.000000 0.242488 0.738491
O O13 0.226409 0.585755 0.000000
O O14 0.000000 0.711973 0.500000
#
# Coordination Sequence:
#
# PCOD8268626 Si02
#       6
#     8   8  16   8  16   8
#     4   9  15  28  49  71  91 121 169 212 239 274
#     4   9  18  31  48  70  95 131 176 210 233 280
#     4  10  20  33  52  78 105 129 162 209 253 295
#     4   9  17  33  56  77  98 131 171 204 241 297
#     4  10  19  32  52  74  99 131 169 208 246 291
#     4   9  18  33  54  77 100 131 169 205 243 296
#
# _framework density 19.698996999999999
#
# number of rings (size 3 to 8) (size 9 to 14) (size 15 to 20)
#    0.000    2.500    1.250    1.500    1.750    3.000 
#    0.000    0.625    0.000    6.000    0.000    0.000 
#    0.000    0.000    0.000    0.000    0.000    0.000 
#
# Total GULP energy -396493.347372 kJ/mol
# GULP energy per Si atom -12390.417105 kJ/mol
# Density = 1.965416 g / cm^3
# Si number density = 19.698997 Si / 1000 Ang^3
#
#
#
# Elastic Constant Matrix: (Units=GPa)
#
#
# Indices 1 2 3 4 5 6 
#
# 1 127.7837 57.1615 13.0839 0.0000 0.0000 0.0000
# 2 57.1615 171.8849 16.8314 0.0000 0.0000 0.0000
# 3 13.0839 16.8314 9.5165 0.0000 0.0000 0.0000
# 4 0.0000 0.0000 0.0000 36.9627 0.0000 0.0000
# 5 0.0000 0.0000 0.0000 0.0000 7.1945 0.0000
# 6 0.0000 0.0000 0.0000 0.0000 0.0000 29.4279
#
#
#
# Elastic Compliance Matrix: (Units=1/GPa)
#
#
# Indices 1 2 3 4 5 6 
#
# 1 0.009838 -0.002355 -0.009360 0.000000 0.000000 0.000000
# 2 -0.002355 0.007600 -0.010204 0.000000 0.000000 0.000000
# 3 -0.009360 -0.010204 0.135997 0.000000 0.000000 0.000000
# 4 0.000000 0.000000 0.000000 0.027054 0.000000 0.000000
# 5 0.000000 0.000000 0.000000 0.000000 0.138996 0.000000
# 6 0.000000 0.000000 0.000000 0.000000 0.000000 0.033981
#
#
# Mechanical properties :
#
#
# Convention : Reuss Voigt Hill
#
# Bulk Modulus (GPa) = 9.12443 53.70432 31.41438
# Shear Modulus (GPa) = 11.52506 29.52425 20.52466
#
# Velocity S-wave (km/s) = 2.42142 3.87559 3.23137
# Velocity P-wave (km/s) = 3.52983 6.88103 5.46847
#
# Compressibility (1/GPa) = 0.10959590
#
# Stress axis : x y z
#
# Youngs Moduli (GPa) = 101.65114 131.57448 7.35309
#
# Poissons Ratio (x) = 0.30986 0.06883
# Poissons Ratio (y) = 0.23939 0.07503
# Poissons Ratio (z) = 0.95147 1.34264
#
# Static dielectric constant tensor:
#      x y z
#    x 3.508800 0.000000 0.000000 
#    y 0.000000 3.776720 0.000000 
#    z 0.000000 0.000000 2.884160 
# 
# 
# High freq. dielectric constant tensor:
#      x y z
#    x 1.784770 0.000000 0.000000 
#    y 0.000000 1.786260 0.000000 
#    z 0.000000 0.000000 1.691990 
# 
# From -- ./inp_files/5007.got.cif
#   From: 2010.03.12/outbox.cif.g09.slc.cpg/sg65_3_cif.got.tgz:5007.got - 2010.04.10 20:52:16.
