data_PCOD8268039
_publ_section_title
;
Structure prediction by ZEFSAII (Michael W. Deem and Ramdas Pophale) SiO2 
 PCOD8268039
Probable space group: C M M M
;
_chemical_formula_sum "Si O2"
_cell_formula_units_Z 112
_cell_length_a 14.980351
_cell_length_b 29.762249
_cell_length_c 13.806761
_cell_angle_alpha 90.000000
_cell_angle_beta 90.000000
_cell_angle_gamma 90.000000
_cell_volume 6155.729709
_symmetry_space_group_name_H-M "C M M M"
_symmetry_group_IT_number 65
_symmetry_cell_setting 'orthorhombic'
loop_
_space_group_symop_operation_xyz
x,y,z
-x,-y,z
x,-y,-z
-x,y,-z
-x,-y,-z
x,y,-z
-x,y,z
x,-y,z
1/2+x,1/2+y,z
1/2-x,1/2-y,z
1/2+x,1/2-y,-z
1/2-x,1/2+y,-z
1/2-x,1/2-y,-z
1/2+x,1/2+y,-z
1/2-x,1/2+y,z
1/2+x,1/2-y,z
loop_
_atom_site_type_symbol
_atom_site_label
_atom_site_fract_x
_atom_site_fract_y
_atom_site_fract_z
Si Si1 0.894079 0.294890 0.390210
Si Si2 0.599753 0.859572 0.892102
Si Si3 0.898742 0.391207 0.690202
Si Si4 0.269057 0.698573 0.894832
Si Si5 0.598668 0.617124 0.614218
Si Si6 0.253769 0.449820 0.385513
Si Si7 0.896251 0.206871 0.279543
O O1 0.856345 0.291660 0.500000
O O2 0.863052 0.342021 0.343176
O O3 0.857489 0.253351 0.324902
O O4 0.000000 0.291299 0.392437
O O5 0.500000 0.837566 0.884654
O O6 0.608167 0.896598 0.807184
O O7 0.673403 0.822511 0.868460
O O8 0.612861 0.880808 0.000000
O O9 0.842400 0.430490 0.642115
O O10 0.000000 0.397538 0.654031
O O11 0.250000 0.750000 0.903933
O O12 0.344275 0.689933 0.815311
O O13 0.302343 0.680106 0.000000
O O14 0.603486 0.614349 0.500000
O O15 0.500000 0.603529 0.651800
O O16 0.669101 0.581927 0.659904
O O17 0.620515 0.668211 0.641780
O O18 0.262055 0.451302 0.500000
O O19 0.263966 0.500000 0.342569
O O20 0.000000 0.212068 0.252107
#
# Coordination Sequence:
#
# PCOD8268039 Si02
#       7
#    16  16  16  16  16  16  16
#     4   9  17  29  46  70 100 134 170 201 231 277
#     4   9  18  33  52  71  91 120 160 203 245 288
#     4  10  19  32  52  75 100 130 161 197 243 293
#     4  10  20  31  44  65  94 129 168 206 241 282
#     4   9  18  33  52  73  98 129 165 204 244 285
#     4  10  21  35  51  73 100 130 165 203 242 287
#     4  10  19  31  49  73 102 133 162 198 244 289
#
# _framework density 18.194431000000002
#
# number of rings (size 3 to 8) (size 9 to 14) (size 15 to 20)
#    0.000    2.429    0.000    2.571    0.000    5.143 
#    0.000    3.571    0.000    4.714    0.000    2.000 
#    0.000    0.000    0.000   12.286    0.000    0.286 
#
# Total GULP energy -694073.927407 kJ/mol
# GULP energy per Si atom -12394.177275 kJ/mol
# Density = 1.815302 g / cm^3
# Si number density = 18.194431 Si / 1000 Ang^3
#
#
#
# Elastic Constant Matrix: (Units=GPa)
#
#
# Indices 1 2 3 4 5 6 
#
# 1 68.1249 35.5309 25.8291 0.0000 0.0000 0.0000
# 2 35.5309 94.2400 15.0768 0.0000 0.0000 0.0000
# 3 25.8291 15.0768 68.3418 0.0000 0.0000 0.0000
# 4 0.0000 0.0000 0.0000 13.6932 0.0000 0.0000
# 5 0.0000 0.0000 0.0000 0.0000 26.9699 0.0000
# 6 0.0000 0.0000 0.0000 0.0000 0.0000 23.7406
#
#
#
# Elastic Compliance Matrix: (Units=1/GPa)
#
#
# Indices 1 2 3 4 5 6 
#
# 1 0.020587 -0.006756 -0.006290 0.000000 0.000000 0.000000
# 2 -0.006756 0.013216 -0.000362 0.000000 0.000000 0.000000
# 3 -0.006290 -0.000362 0.017090 0.000000 0.000000 0.000000
# 4 0.000000 0.000000 0.000000 0.073029 0.000000 0.000000
# 5 0.000000 0.000000 0.000000 0.000000 0.037078 0.000000
# 6 0.000000 0.000000 0.000000 0.000000 0.000000 0.042122
#
#
# Mechanical properties :
#
#
# Convention : Reuss Voigt Hill
#
# Bulk Modulus (GPa) = 41.53450 42.62004 42.07727
# Shear Modulus (GPa) = 21.01149 23.16537 22.08843
#
# Velocity S-wave (km/s) = 3.40197 3.57208 3.48806
# Velocity P-wave (km/s) = 6.18942 6.36307 6.27684
#
# Compressibility (1/GPa) = 0.02407637
#
# Stress axis : x y z
#
# Youngs Moduli (GPa) = 48.57358 75.66467 58.51480
#
# Poissons Ratio (x) = 0.51116 0.36808
# Poissons Ratio (y) = 0.32814 0.02121
# Poissons Ratio (z) = 0.30555 0.02742
#
# Static dielectric constant tensor:
#      x y z
#    x 2.879210 0.000000 0.000000 
#    y 0.000000 3.208790 0.000000 
#    z 0.000000 0.000000 3.732120 
# 
# 
# High freq. dielectric constant tensor:
#      x y z
#    x 1.708330 0.000000 0.000000 
#    y 0.000000 1.668880 0.000000 
#    z 0.000000 0.000000 1.702080 
# 
# From -- ./inp_files/41109.got.cif
#   From: 2010.03.12/outbox.cif.g09.slc.cpg/sg65_21_cif.got.tgz:41109.got - 2010.04.10 20:52:16.
