data_PCOD8268817
_publ_section_title
;
Structure prediction by ZEFSAII (Michael W. Deem and Ramdas Pophale) SiO2 
 PCOD8268817
Probable space group: C M M M
;
_chemical_formula_sum "Si O2"
_cell_formula_units_Z 56
_cell_length_a 15.372670
_cell_length_b 8.836897
_cell_length_c 19.533754
_cell_angle_alpha 90.000000
_cell_angle_beta 90.000000
_cell_angle_gamma 90.000000
_cell_volume 2653.596047
_symmetry_space_group_name_H-M "C M M M"
_symmetry_group_IT_number 65
_symmetry_cell_setting 'orthorhombic'
loop_
_space_group_symop_operation_xyz
x,y,z
-x,-y,z
x,-y,-z
-x,y,-z
-x,-y,-z
x,y,-z
-x,y,z
x,-y,z
1/2+x,1/2+y,z
1/2-x,1/2-y,z
1/2+x,1/2-y,-z
1/2-x,1/2+y,-z
1/2-x,1/2-y,-z
1/2+x,1/2+y,-z
1/2-x,1/2+y,z
1/2+x,1/2-y,z
loop_
_atom_site_type_symbol
_atom_site_label
_atom_site_fract_x
_atom_site_fract_y
_atom_site_fract_z
Si Si1 0.603244 0.671986 0.790257
Si Si2 0.839528 0.321243 0.344750
Si Si3 0.603371 0.829823 0.925030
Si Si4 0.500000 0.326928 0.580983
O O1 0.500000 0.691107 0.784980
O O2 0.631858 0.500000 0.776621
O O3 0.647188 0.779339 0.734546
O O4 0.638509 0.720812 0.865140
O O5 0.836794 0.500000 0.352968
O O6 0.750000 0.250000 0.371983
O O7 0.915388 0.255518 0.391237
O O8 0.500000 0.827957 0.924343
O O9 0.636733 0.000000 0.911462
O O10 0.636219 0.773025 0.000000
O O11 0.500000 0.500000 0.607271
O O12 0.500000 0.317632 0.500000
#
# Coordination Sequence:
#
# PCOD8268817 Si02
#       4
#    16  16  16   8
#     4  10  19  32  54  83 120 161 207 261 314 372
#     4  12  25  42  67  96 130 170 213 260 311 371
#     4   8  14  25  43  71 109 153 204 258 311 369
#     4  11  25  47  73 101 134 167 204 253 307 369
#
# _framework density 21.103438000000001
#
# number of rings (size 3 to 8) (size 9 to 14) (size 15 to 20)
#    0.000    1.857    1.429    4.714    0.000    3.429 
#    0.000    2.857    0.000    0.857    0.000    0.000 
#    0.000    0.000    0.000    0.000    0.000    0.000 
#
# Total GULP energy -347218.512859 kJ/mol
# GULP energy per Si atom -12400.661174 kJ/mol
# Density = 2.105541 g / cm^3
# Si number density = 21.103438 Si / 1000 Ang^3
#
#
#
# Elastic Constant Matrix: (Units=GPa)
#
#
# Indices 1 2 3 4 5 6 
#
# 1 101.5302 64.6392 42.3911 0.0000 0.0000 0.0000
# 2 64.6392 176.7892 61.2854 0.0000 0.0000 0.0000
# 3 42.3911 61.2854 107.2575 0.0000 0.0000 0.0000
# 4 0.0000 0.0000 0.0000 37.2921 0.0000 0.0000
# 5 0.0000 0.0000 0.0000 0.0000 -7.7705 0.0000
# 6 0.0000 0.0000 0.0000 0.0000 0.0000 28.3903
#
#
#
# Elastic Compliance Matrix: (Units=1/GPa)
#
#
# Indices 1 2 3 4 5 6 
#
# 1 0.013651 -0.003892 -0.003172 0.000000 0.000000 0.000000
# 2 -0.003892 0.008163 -0.003126 0.000000 0.000000 0.000000
# 3 -0.003172 -0.003126 0.012363 0.000000 0.000000 0.000000
# 4 0.000000 0.000000 0.000000 0.026815 0.000000 0.000000
# 5 0.000000 0.000000 0.000000 0.000000 -0.128691 0.000000
# 6 0.000000 0.000000 0.000000 0.000000 0.000000 0.035223
#
#
# Mechanical properties :
#
#
# Convention : Reuss Voigt Hill
#
# Bulk Modulus (GPa) = 72.47261 80.24536 76.35899
# Shear Modulus (GPa) = -666.97117 26.06645 -320.45236
#
# Velocity S-wave (km/s) = -17.79704 3.51832 -12.33605
# Velocity P-wave (km/s) = 19.69509 7.39000 12.90900
#
# Compressibility (1/GPa) = 0.01379832
#
# Stress axis : x y z
#
# Youngs Moduli (GPa) = 73.25351 122.50224 80.88592
#
# Poissons Ratio (x) = 0.47676 0.25654
# Poissons Ratio (y) = 0.28509 0.25286
# Poissons Ratio (z) = 0.23233 0.38296
#
# Static dielectric constant tensor:
#      x y z
#    x 3.612710 0.000000 0.000000 
#    y 0.000000 3.906970 0.000000 
#    z 0.000000 0.000000 4.064420 
# 
# 
# High freq. dielectric constant tensor:
#      x y z
#    x 1.807970 0.000000 0.000000 
#    y 0.000000 1.831210 0.000000 
#    z 0.000000 0.000000 1.834060 
# 
# From -- ./inp_files/58550.got.cif
#   From: 2010.03.12/outbox.cif.g09.slc.cpg/sg65_30_cif.got.tgz:58550.got - 2010.04.10 20:52:16.
