data_PCOD8268550
_publ_section_title
;
Structure prediction by ZEFSAII (Michael W. Deem and Ramdas Pophale) SiO2 
 PCOD8268550
Probable space group: C M M M
;
_chemical_formula_sum "Si O2"
_cell_formula_units_Z 72
_cell_length_a 9.066436
_cell_length_b 15.612280
_cell_length_c 26.709795
_cell_angle_alpha 90.000000
_cell_angle_beta 90.000000
_cell_angle_gamma 90.000000
_cell_volume 3780.711050
_symmetry_space_group_name_H-M "C M M M"
_symmetry_group_IT_number 65
_symmetry_cell_setting 'orthorhombic'
loop_
_space_group_symop_operation_xyz
x,y,z
-x,-y,z
x,-y,-z
-x,y,-z
-x,-y,-z
x,y,-z
-x,y,z
x,-y,z
1/2+x,1/2+y,z
1/2-x,1/2-y,z
1/2+x,1/2-y,-z
1/2-x,1/2+y,-z
1/2-x,1/2-y,-z
1/2+x,1/2+y,-z
1/2-x,1/2+y,z
1/2+x,1/2-y,z
loop_
_atom_site_type_symbol
_atom_site_label
_atom_site_fract_x
_atom_site_fract_y
_atom_site_fract_z
Si Si1 0.324974 0.663198 0.605955
Si Si2 0.324920 0.335281 0.158075
Si Si3 0.175020 0.096144 0.054417
Si Si4 0.175308 0.000000 0.331657
Si Si5 0.325078 0.404154 0.500000
Si Si6 0.824766 0.000000 0.781037
O O1 0.500000 0.673039 0.609332
O O2 0.250000 0.750000 0.625640
O O3 0.267945 0.584970 0.640216
O O4 0.270963 0.645859 0.549209
O O5 0.500000 0.326132 0.161487
O O6 0.250000 0.250000 0.179917
O O7 0.268125 0.346968 0.100681
O O8 0.267802 0.415417 0.190593
O O9 0.000000 0.091858 0.056893
O O10 0.237456 0.000000 0.060538
O O11 0.226043 0.133512 0.000000
O O12 0.238175 0.000000 0.275302
O O13 0.000000 0.000000 0.332042
O O14 0.258138 0.500000 0.500000
O O15 0.500000 0.411581 0.500000
O O16 0.000000 0.000000 0.780985
#
# Coordination Sequence:
#
# PCOD8268550 Si02
#       6
#    16  16  16   8   8   8
#     4  10  19  32  52  76 101 129 163 201 242 286
#     4  10  19  32  51  74  97 125 160 199 241 286
#     4   8  13  24  45  70  93 121 159 196 229 276
#     4   9  18  33  53  73  94 129 169 202 236 286
#     4   9  15  28  51  74  97 130 169 199 228 282
#     4   9  18  34  53  71  95 127 167 204 236 282
#
# _framework density 19.044035999999998
#
# number of rings (size 3 to 8) (size 9 to 14) (size 15 to 20)
#    0.000    2.778    2.222    1.000    0.000    1.333 
#    0.000    1.111    0.000    2.000    0.000    1.556 
#    0.000    0.000    0.000    0.000    0.000    0.000 
#
# Total GULP energy -446214.723536 kJ/mol
# GULP energy per Si atom -12394.853432 kJ/mol
# Density = 1.900069 g / cm^3
# Si number density = 19.044036 Si / 1000 Ang^3
#
#
#
# Elastic Constant Matrix: (Units=GPa)
#
#
# Indices 1 2 3 4 5 6 
#
# 1 15.8104 27.7532 19.6202 0.0000 0.0000 0.0000
# 2 27.7532 173.6193 80.2580 0.0000 0.0000 0.0000
# 3 19.6202 80.2580 154.3376 0.0000 0.0000 0.0000
# 4 0.0000 0.0000 0.0000 14.6228 0.0000 0.0000
# 5 0.0000 0.0000 0.0000 0.0000 8.1624 0.0000
# 6 0.0000 0.0000 0.0000 0.0000 0.0000 26.9991
#
#
#
# Elastic Compliance Matrix: (Units=1/GPa)
#
#
# Indices 1 2 3 4 5 6 
#
# 1 0.091070 -0.012119 -0.005275 0.000000 0.000000 0.000000
# 2 -0.012119 0.009195 -0.003241 0.000000 0.000000 0.000000
# 3 -0.005275 -0.003241 0.008835 0.000000 0.000000 0.000000
# 4 0.000000 0.000000 0.000000 0.068386 0.000000 0.000000
# 5 0.000000 0.000000 0.000000 0.000000 0.122513 0.000000
# 6 0.000000 0.000000 0.000000 0.000000 0.000000 0.037038
#
#
# Mechanical properties :
#
#
# Convention : Reuss Voigt Hill
#
# Bulk Modulus (GPa) = 14.74283 66.55888 40.65085
# Shear Modulus (GPa) = 12.47138 24.36591 18.41865
#
# Velocity S-wave (km/s) = 2.56182 3.58082 3.11329
# Velocity P-wave (km/s) = 4.06310 7.21957 5.85795
#
# Compressibility (1/GPa) = 0.06782959
#
# Stress axis : x y z
#
# Youngs Moduli (GPa) = 10.98062 108.75276 113.18265
#
# Poissons Ratio (x) = 1.31798 0.59705
# Poissons Ratio (y) = 0.13307 0.36682
# Poissons Ratio (z) = 0.05792 0.35247
#
# Static dielectric constant tensor:
#      x y z
#    x 2.748080 0.000000 0.000000 
#    y 0.000000 3.507790 0.000000 
#    z 0.000000 0.000000 3.856360 
# 
# 
# High freq. dielectric constant tensor:
#      x y z
#    x 1.668280 0.000000 0.000000 
#    y 0.000000 1.747350 0.000000 
#    z 0.000000 0.000000 1.748540 
# 
# From -- ./inp_files/72571.got.cif
#   From: 2010.03.12/outbox.cif.g09.slc.cpg/sg65_37_cif.got.tgz:72571.got - 2010.04.10 20:52:16.
