data_PCOD8268236
_publ_section_title
;
Structure prediction by ZEFSAII (Michael W. Deem and Ramdas Pophale) SiO2 
 PCOD8268236
Probable space group: C M M M
;
_chemical_formula_sum "Si O2"
_cell_formula_units_Z 96
_cell_length_a 17.950565
_cell_length_b 21.505681
_cell_length_c 13.046807
_cell_angle_alpha 90.000000
_cell_angle_beta 90.000000
_cell_angle_gamma 90.000000
_cell_volume 5036.577954
_symmetry_space_group_name_H-M "C M M M"
_symmetry_group_IT_number 65
_symmetry_cell_setting 'orthorhombic'
loop_
_space_group_symop_operation_xyz
x,y,z
-x,-y,z
x,-y,-z
-x,y,-z
-x,-y,-z
x,y,-z
-x,y,z
x,-y,z
1/2+x,1/2+y,z
1/2-x,1/2-y,z
1/2+x,1/2-y,-z
1/2-x,1/2+y,-z
1/2-x,1/2-y,-z
1/2+x,1/2+y,-z
1/2-x,1/2+y,z
1/2+x,1/2-y,z
loop_
_atom_site_type_symbol
_atom_site_label
_atom_site_fract_x
_atom_site_fract_y
_atom_site_fract_z
Si Si1 0.719660 0.431763 0.754057
Si Si2 0.270525 0.820443 0.380954
Si Si3 0.915623 0.334058 0.268741
Si Si4 0.912360 0.236468 0.889825
Si Si5 0.585196 0.594156 0.117302
Si Si6 0.861395 0.571446 0.883975
O O1 0.738103 0.500000 0.703095
O O2 0.721679 0.374134 0.674732
O O3 0.638561 0.441142 0.804487
O O4 0.777052 0.417952 0.846172
O O5 0.252548 0.826839 0.500000
O O6 0.250000 0.750000 0.344347
O O7 0.358070 0.837287 0.363118
O O8 0.880658 0.277966 0.201468
O O9 0.916476 0.394120 0.195058
O O10 0.000000 0.322953 0.309543
O O11 0.893177 0.165683 0.868835
O O12 0.000000 0.247030 0.893986
O O13 0.878051 0.256624 0.000000
O O14 0.500000 0.580974 0.149151
O O15 0.597589 0.572568 0.000000
O O16 0.885030 0.500000 0.881757
O O17 0.869101 0.597602 0.000000
#
# Coordination Sequence:
#
# PCOD8268236 Si02
#       6
#    16  16  16  16  16  16
#     4  10  20  34  53  76 104 139 176 212 253 304
#     4  10  22  40  59  77  98 128 170 218 266 315
#     4  10  19  31  51  77 102 130 167 212 260 306
#     4   8  14  25  42  68 103 137 165 195 236 289
#     4   9  17  29  48  77 111 143 173 206 245 292
#     4   9  18  31  46  69 105 145 178 206 241 294
#
# _framework density 19.060559999999999
#
# number of rings (size 3 to 8) (size 9 to 14) (size 15 to 20)
#    0.000    2.667    0.000    3.000    0.000    3.333 
#    0.000    1.667    0.000    9.500    0.000    5.833 
#    0.000    0.000    0.000    0.000    0.000    0.000 
#
# Total GULP energy -594771.291599 kJ/mol
# GULP energy per Si atom -12391.068575 kJ/mol
# Density = 1.901718 g / cm^3
# Si number density = 19.060560 Si / 1000 Ang^3
#
#
#
# Elastic Constant Matrix: (Units=GPa)
#
#
# Indices 1 2 3 4 5 6 
#
# 1 78.1136 19.0240 25.0544 0.0000 0.0000 0.0000
# 2 19.0240 107.2151 36.8357 0.0000 0.0000 0.0000
# 3 25.0544 36.8357 63.6506 0.0000 0.0000 0.0000
# 4 0.0000 0.0000 0.0000 23.6064 0.0000 0.0000
# 5 0.0000 0.0000 0.0000 0.0000 18.4859 0.0000
# 6 0.0000 0.0000 0.0000 0.0000 0.0000 19.7978
#
#
#
# Elastic Compliance Matrix: (Units=1/GPa)
#
#
# Indices 1 2 3 4 5 6 
#
# 1 0.014703 -0.000774 -0.005339 0.000000 0.000000 0.000000
# 2 -0.000774 0.011683 -0.006456 0.000000 0.000000 0.000000
# 3 -0.005339 -0.006456 0.021549 0.000000 0.000000 0.000000
# 4 0.000000 0.000000 0.000000 0.042361 0.000000 0.000000
# 5 0.000000 0.000000 0.000000 0.000000 0.054095 0.000000
# 6 0.000000 0.000000 0.000000 0.000000 0.000000 0.050511
#
#
# Mechanical properties :
#
#
# Convention : Reuss Voigt Hill
#
# Bulk Modulus (GPa) = 43.86988 45.64527 44.75758
# Shear Modulus (GPa) = 21.96457 23.58237 22.77347
#
# Velocity S-wave (km/s) = 3.39832 3.52125 3.46033
# Velocity P-wave (km/s) = 6.20195 6.36646 6.28474
#
# Compressibility (1/GPa) = 0.02279468
#
# Stress axis : x y z
#
# Youngs Moduli (GPa) = 68.01332 85.59777 46.40664
#
# Poissons Ratio (x) = 0.06629 0.24778
# Poissons Ratio (y) = 0.05268 0.29960
# Poissons Ratio (z) = 0.36314 0.55262
#
# Static dielectric constant tensor:
#      x y z
#    x 3.261350 0.000000 0.000000 
#    y 0.000000 3.267440 0.000000 
#    z 0.000000 0.000000 2.917290 
# 
# 
# High freq. dielectric constant tensor:
#      x y z
#    x 1.727210 0.000000 0.000000 
#    y 0.000000 1.756210 0.000000 
#    z 0.000000 0.000000 1.706250 
# 
# From -- ./inp_files/27132.got.cif
#   From: 2010.03.12/outbox.cif.g09.slc.cpg/sg65_14_cif.got.tgz:27132.got - 2010.04.10 20:52:16.
