data_PCOD8268875
_publ_section_title
;
Structure prediction by ZEFSAII (Michael W. Deem and Ramdas Pophale) SiO2 
 PCOD8268875
Probable space group: C M M M
;
_chemical_formula_sum "Si O2"
_cell_formula_units_Z 88
_cell_length_a 26.722515
_cell_length_b 9.121877
_cell_length_c 18.950913
_cell_angle_alpha 90.000000
_cell_angle_beta 90.000000
_cell_angle_gamma 90.000000
_cell_volume 4619.464982
_symmetry_space_group_name_H-M "C M M M"
_symmetry_group_IT_number 65
_symmetry_cell_setting 'orthorhombic'
loop_
_space_group_symop_operation_xyz
x,y,z
-x,-y,z
x,-y,-z
-x,y,-z
-x,-y,-z
x,y,-z
-x,y,z
x,-y,z
1/2+x,1/2+y,z
1/2-x,1/2-y,z
1/2+x,1/2-y,-z
1/2-x,1/2+y,-z
1/2-x,1/2-y,-z
1/2+x,1/2+y,-z
1/2-x,1/2+y,z
1/2+x,1/2-y,z
loop_
_atom_site_type_symbol
_atom_site_label
_atom_site_fract_x
_atom_site_fract_y
_atom_site_fract_z
Si Si1 0.091182 0.671286 0.658044
Si Si2 0.500000 0.669617 0.582995
Si Si3 0.057536 0.164403 0.786437
Si Si4 0.299155 0.172239 0.843493
Si Si5 0.200776 0.329327 0.681955
Si Si6 0.614689 0.332633 0.920587
O O1 0.079455 0.500000 0.649996
O O2 0.051270 0.759241 0.611365
O O3 0.086821 0.716868 0.739907
O O4 0.149548 0.705054 0.637673
O O5 0.500000 0.500000 0.605517
O O6 0.500000 0.691167 0.500000
O O7 0.067056 0.189970 0.869446
O O8 0.000000 0.187356 0.769518
O O9 0.074572 0.000000 0.764756
O O10 0.250000 0.250000 0.873222
O O11 0.308237 0.222107 0.762579
O O12 0.343136 0.223438 0.894087
O O13 0.292945 0.000000 0.849883
O O14 0.212689 0.500000 0.679087
O O15 0.250000 0.250000 0.649476
O O16 0.634221 0.500000 0.916713
O O17 0.598410 0.291330 0.000000
#
# Coordination Sequence:
#
# PCOD8268875 Si02
#       6
#    16   8  16  16  16  16
#     4  11  21  36  60  90 121 153 191 235 284 336
#     4  11  25  43  63  93 128 159 192 227 271 330
#     4  10  20  34  54  79 106 142 188 233 284 342
#     4  10  19  33  51  73 102 136 180 232 288 343
#     4   9  19  33  53  84 116 148 188 237 286 337
#     4  10  21  35  50  71 102 142 188 237 288 342
#
# _framework density 19.049825999999999
#
# number of rings (size 3 to 8) (size 9 to 14) (size 15 to 20)
#    0.000    1.909    2.727    1.364    0.000    4.000 
#    0.000    1.818    0.000    0.545    0.000    2.545 
#    0.000    0.000    0.000    0.000    0.000    0.000 
#
# Total GULP energy -545404.862472 kJ/mol
# GULP energy per Si atom -12395.565056 kJ/mol
# Density = 1.900647 g / cm^3
# Si number density = 19.049826 Si / 1000 Ang^3
#
#
#
# Elastic Constant Matrix: (Units=GPa)
#
#
# Indices 1 2 3 4 5 6 
#
# 1 116.2754 59.2781 40.6257 0.0000 0.0000 0.0000
# 2 59.2781 89.7173 35.4056 0.0000 0.0000 0.0000
# 3 40.6257 35.4056 63.5539 0.0000 0.0000 0.0000
# 4 0.0000 0.0000 0.0000 18.9228 0.0000 0.0000
# 5 0.0000 0.0000 0.0000 0.0000 19.2603 0.0000
# 6 0.0000 0.0000 0.0000 0.0000 0.0000 32.9659
#
#
#
# Elastic Compliance Matrix: (Units=1/GPa)
#
#
# Indices 1 2 3 4 5 6 
#
# 1 0.014061 -0.007362 -0.004887 0.000000 0.000000 0.000000
# 2 -0.007362 0.018141 -0.005401 0.000000 0.000000 0.000000
# 3 -0.004887 -0.005401 0.021867 0.000000 0.000000 0.000000
# 4 0.000000 0.000000 0.000000 0.052846 0.000000 0.000000
# 5 0.000000 0.000000 0.000000 0.000000 0.051920 0.000000
# 6 0.000000 0.000000 0.000000 0.000000 0.000000 0.030334
#
#
# Mechanical properties :
#
#
# Convention : Reuss Voigt Hill
#
# Bulk Modulus (GPa) = 53.27409 60.01837 56.64623
# Shear Modulus (GPa) = 21.67075 23.17897 22.42486
#
# Velocity S-wave (km/s) = 3.37647 3.49199 3.43471
# Velocity P-wave (km/s) = 6.57473 6.91614 6.74759
#
# Compressibility (1/GPa) = 0.01877085
#
# Stress axis : x y z
#
# Youngs Moduli (GPa) = 71.11991 55.12250 45.73052
#
# Poissons Ratio (x) = 0.40579 0.22348
# Poissons Ratio (y) = 0.52356 0.24698
# Poissons Ratio (z) = 0.34756 0.29770
#
# Static dielectric constant tensor:
#      x y z
#    x 3.675290 0.000000 0.000000 
#    y 0.000000 3.477030 0.000000 
#    z 0.000000 0.000000 3.294850 
# 
# 
# High freq. dielectric constant tensor:
#      x y z
#    x 1.749450 0.000000 0.000000 
#    y 0.000000 1.742280 0.000000 
#    z 0.000000 0.000000 1.708030 
# 
# From -- ./inp_files/58002.got.cif
#   From: 2010.03.12/outbox.cif.g09.slc.cpg/sg65_30_cif.got.tgz:58002.got - 2010.04.10 20:52:16.
