data_PCOD8268553
_publ_section_title
;
Structure prediction by ZEFSAII (Michael W. Deem and Ramdas Pophale) SiO2 
 PCOD8268553
Probable space group: C M M M
;
_chemical_formula_sum "Si O2"
_cell_formula_units_Z 96
_cell_length_a 8.740437
_cell_length_b 19.713492
_cell_length_c 30.850681
_cell_angle_alpha 90.000000
_cell_angle_beta 90.000000
_cell_angle_gamma 90.000000
_cell_volume 5315.712240
_symmetry_space_group_name_H-M "C M M M"
_symmetry_group_IT_number 65
_symmetry_cell_setting 'orthorhombic'
loop_
_space_group_symop_operation_xyz
x,y,z
-x,-y,z
x,-y,-z
-x,y,-z
-x,-y,-z
x,y,-z
-x,y,z
x,-y,z
1/2+x,1/2+y,z
1/2-x,1/2-y,z
1/2+x,1/2-y,-z
1/2-x,1/2+y,-z
1/2-x,1/2-y,-z
1/2+x,1/2+y,-z
1/2-x,1/2+y,z
1/2+x,1/2-y,z
loop_
_atom_site_type_symbol
_atom_site_label
_atom_site_fract_x
_atom_site_fract_y
_atom_site_fract_z
Si Si1 0.681729 0.575687 0.548023
Si Si2 0.319241 0.177862 0.287792
Si Si3 0.182654 0.822334 0.379415
Si Si4 0.669602 0.080454 0.132230
Si Si5 0.676792 0.579390 0.780011
Si Si6 0.672209 0.580670 0.047344
O O1 0.736898 0.598800 0.500000
O O2 0.500000 0.575792 0.549523
O O3 0.742934 0.500000 0.557885
O O4 0.746197 0.625931 0.584470
O O5 0.500000 0.185770 0.293170
O O6 0.250000 0.250000 0.273059
O O7 0.245910 0.153967 0.333044
O O8 0.281795 0.120738 0.252828
O O9 0.250000 0.750000 0.392386
O O10 0.000000 0.819322 0.377607
O O11 0.500000 0.109054 0.141233
O O12 0.780515 0.102379 0.171308
O O13 0.728490 0.111698 0.086648
O O14 0.666289 0.000000 0.128518
O O15 0.500000 0.596370 0.771744
O O16 0.711444 0.500000 0.773104
O O17 0.500000 0.607856 0.052493
O O18 0.672312 0.500000 0.050302
O O19 0.737799 0.603061 0.000000
#
# Coordination Sequence:
#
# PCOD8268553 Si02
#       6
#    16  16  16  16  16  16
#     4   8  15  29  49  73 100 130 165 203 240 281
#     4  11  22  37  55  74 100 131 165 206 251 298
#     4  10  19  32  51  74  99 128 162 200 244 292
#     4   9  16  25  38  59  88 120 155 197 244 291
#     4  10  20  34  52  73  98 129 165 203 246 298
#     4   8  13  21  33  50  76 114 157 196 237 288
#
# _framework density 18.059667999999999
#
# number of rings (size 3 to 8) (size 9 to 14) (size 15 to 20)
#    0.000    2.667    0.000    5.000    0.000    4.333 
#    0.000    3.333    0.000    3.000    0.000    4.667 
#    0.000    0.667    0.000    2.500    0.000    5.833 
#
# Total GULP energy -594998.477250 kJ/mol
# GULP energy per Si atom -12395.801609 kJ/mol
# Density = 1.801856 g / cm^3
# Si number density = 18.059668 Si / 1000 Ang^3
#
#
#
# Elastic Constant Matrix: (Units=GPa)
#
#
# Indices 1 2 3 4 5 6 
#
# 1 85.9596 25.0006 40.1359 0.0000 0.0000 0.0000
# 2 25.0006 53.2516 62.7085 0.0000 0.0000 0.0000
# 3 40.1359 62.7085 145.5577 0.0000 0.0000 0.0000
# 4 0.0000 0.0000 0.0000 -0.1647 0.0000 0.0000
# 5 0.0000 0.0000 0.0000 0.0000 24.3744 0.0000
# 6 0.0000 0.0000 0.0000 0.0000 0.0000 19.8903
#
#
#
# Elastic Compliance Matrix: (Units=1/GPa)
#
#
# Indices 1 2 3 4 5 6 
#
# 1 0.013769 -0.004046 -0.002054 0.000000 0.000000 0.000000
# 2 -0.004046 0.039305 -0.015817 0.000000 0.000000 0.000000
# 3 -0.002054 -0.015817 0.014251 0.000000 0.000000 0.000000
# 4 0.000000 0.000000 0.000000 -6.071524 0.000000 0.000000
# 5 0.000000 0.000000 0.000000 0.000000 0.041027 0.000000
# 6 0.000000 0.000000 0.000000 0.000000 0.000000 0.050276
#
#
# Mechanical properties :
#
#
# Convention : Reuss Voigt Hill
#
# Bulk Modulus (GPa) = 42.57047 60.05099 51.31073
# Shear Modulus (GPa) = -0.85306 19.28159 9.21427
#
# Velocity S-wave (km/s) = -0.68803 3.27105 2.26124
# Velocity P-wave (km/s) = 4.79501 6.89855 5.94063
#
# Compressibility (1/GPa) = 0.02349046
#
# Stress axis : x y z
#
# Youngs Moduli (GPa) = 72.62720 25.44218 70.17162
#
# Poissons Ratio (x) = 0.10294 0.14410
# Poissons Ratio (y) = 0.29385 1.10994
# Poissons Ratio (z) = 0.14914 0.40243
#
# Static dielectric constant tensor:
#      x y z
#    x 3.311790 0.000000 0.000000 
#    y 0.000000 3.025640 0.000000 
#    z 0.000000 0.000000 3.674100 
# 
# 
# High freq. dielectric constant tensor:
#      x y z
#    x 1.694300 0.000000 0.000000 
#    y 0.000000 1.651870 0.000000 
#    z 0.000000 0.000000 1.715970 
# 
# From -- ./inp_files/73118.got.cif
#   From: 2010.03.12/outbox.cif.g09.slc.cpg/sg65_37_cif.got.tgz:73118.got - 2010.04.10 20:52:16.
