data_PCOD8268586
_publ_section_title
;
Structure prediction by ZEFSAII (Michael W. Deem and Ramdas Pophale) SiO2 
 PCOD8268586
Probable space group: C M M M
;
_chemical_formula_sum "Si O2"
_cell_formula_units_Z 104
_cell_length_a 29.305765
_cell_length_b 8.845151
_cell_length_c 20.477803
_cell_angle_alpha 90.000000
_cell_angle_beta 90.000000
_cell_angle_gamma 90.000000
_cell_volume 5308.131519
_symmetry_space_group_name_H-M "C M M M"
_symmetry_group_IT_number 65
_symmetry_cell_setting 'orthorhombic'
loop_
_space_group_symop_operation_xyz
x,y,z
-x,-y,z
x,-y,-z
-x,y,-z
-x,-y,-z
x,y,-z
-x,y,z
x,-y,z
1/2+x,1/2+y,z
1/2-x,1/2-y,z
1/2+x,1/2-y,-z
1/2-x,1/2+y,-z
1/2-x,1/2-y,-z
1/2+x,1/2+y,-z
1/2-x,1/2+y,z
1/2+x,1/2-y,z
loop_
_atom_site_type_symbol
_atom_site_label
_atom_site_fract_x
_atom_site_fract_y
_atom_site_fract_z
Si Si1 0.447137 0.672801 0.691517
Si Si2 0.300569 0.320555 0.000000
Si Si3 0.297174 0.321769 0.223264
Si Si4 0.550750 0.176682 0.173011
Si Si5 0.889928 0.180376 0.571741
Si Si6 0.204201 0.824594 0.374529
Si Si7 0.855735 0.322256 0.882516
O O1 0.500000 0.688418 0.676007
O O2 0.431692 0.500000 0.700317
O O3 0.433716 0.753709 0.758348
O O4 0.421772 0.746993 0.629120
O O5 0.250000 0.250000 0.000000
O O6 0.329773 0.270212 0.937865
O O7 0.295024 0.500000 0.000000
O O8 0.297791 0.500000 0.207727
O O9 0.250000 0.250000 0.197829
O O10 0.304495 0.285582 0.298981
O O11 0.337486 0.234565 0.186841
O O12 0.500000 0.236784 0.151470
O O13 0.589438 0.212964 0.118284
O O14 0.548282 0.000000 0.184853
O O15 0.905600 0.238607 0.500000
O O16 0.838392 0.236764 0.584143
O O17 0.892299 0.000000 0.573957
O O18 0.250000 0.750000 0.401649
O O19 0.210691 0.000000 0.384730
O O20 0.846707 0.500000 0.892714
#
# Coordination Sequence:
#
# PCOD8268586 Si02
#       7
#    16   8  16  16  16  16  16
#     4   9  17  30  51  78 104 131 168 216 265 313
#     4  12  26  44  63  84 115 151 184 215 253 302
#     4  10  19  32  51  76 105 135 172 218 269 321
#     4   9  19  36  58  83 110 141 176 216 264 315
#     4   9  17  29  45  67  97 132 169 210 260 316
#     4   9  18  31  47  67  93 127 167 213 262 311
#     4  11  22  37  58  83 111 143 180 218 258 306
#
# _framework density 19.592580999999999
#
# number of rings (size 3 to 8) (size 9 to 14) (size 15 to 20)
#    0.000    2.308    0.000    3.000    0.000    3.692 
#    0.000    2.692    0.000    3.692    0.000    2.154 
#    0.000    0.000    0.000    0.000    0.000    0.000 
#
# Total GULP energy -644593.867526 kJ/mol
# GULP energy per Si atom -12396.035914 kJ/mol
# Density = 1.954799 g / cm^3
# Si number density = 19.592581 Si / 1000 Ang^3
#
#
#
# Elastic Constant Matrix: (Units=GPa)
#
#
# Indices 1 2 3 4 5 6 
#
# 1 119.1807 39.1052 60.1832 0.0000 0.0000 0.0000
# 2 39.1052 56.2996 30.9052 0.0000 0.0000 0.0000
# 3 60.1832 30.9052 81.0748 0.0000 0.0000 0.0000
# 4 0.0000 0.0000 0.0000 17.3871 0.0000 0.0000
# 5 0.0000 0.0000 0.0000 0.0000 29.1649 0.0000
# 6 0.0000 0.0000 0.0000 0.0000 0.0000 25.5318
#
#
#
# Elastic Compliance Matrix: (Units=1/GPa)
#
#
# Indices 1 2 3 4 5 6 
#
# 1 0.014569 -0.005290 -0.008799 0.000000 0.000000 0.000000
# 2 -0.005290 0.024383 -0.005368 0.000000 0.000000 0.000000
# 3 -0.008799 -0.005368 0.020912 0.000000 0.000000 0.000000
# 4 0.000000 0.000000 0.000000 0.057514 0.000000 0.000000
# 5 0.000000 0.000000 0.000000 0.000000 0.034288 0.000000
# 6 0.000000 0.000000 0.000000 0.000000 0.000000 0.039167
#
#
# Mechanical properties :
#
#
# Convention : Reuss Voigt Hill
#
# Bulk Modulus (GPa) = 47.72924 57.43803 52.58363
# Shear Modulus (GPa) = 21.12116 22.84087 21.98101
#
# Velocity S-wave (km/s) = 3.28688 3.41807 3.35312
# Velocity P-wave (km/s) = 6.23045 6.70504 6.47210
#
# Compressibility (1/GPa) = 0.02095152
#
# Stress axis : x y z
#
# Youngs Moduli (GPa) = 68.63696 41.01205 47.81965
#
# Poissons Ratio (x) = 0.21695 0.42075
# Poissons Ratio (y) = 0.36308 0.25669
# Poissons Ratio (z) = 0.60391 0.22015
#
# Static dielectric constant tensor:
#      x y z
#    x 4.004140 0.000000 0.000000 
#    y 0.000000 3.424090 0.000000 
#    z 0.000000 0.000000 3.586080 
# 
# 
# High freq. dielectric constant tensor:
#      x y z
#    x 1.778010 0.000000 0.000000 
#    y 0.000000 1.741660 0.000000 
#    z 0.000000 0.000000 1.752960 
# 
# From -- ./inp_files/65907.got.cif
#   From: 2010.03.12/outbox.cif.g09.slc.cpg/sg65_33_cif.got.tgz:65907.got - 2010.04.10 20:52:16.
