data_PCOD8268109
_publ_section_title
;
Structure prediction by ZEFSAII (Michael W. Deem and Ramdas Pophale) SiO2 
 PCOD8268109
Probable space group: C M M M
;
_chemical_formula_sum "Si O2"
_cell_formula_units_Z 72
_cell_length_a 8.920258
_cell_length_b 18.550455
_cell_length_c 23.651504
_cell_angle_alpha 90.000000
_cell_angle_beta 90.000000
_cell_angle_gamma 90.000000
_cell_volume 3913.728949
_symmetry_space_group_name_H-M "C M M M"
_symmetry_group_IT_number 65
_symmetry_cell_setting 'orthorhombic'
loop_
_space_group_symop_operation_xyz
x,y,z
-x,-y,z
x,-y,-z
-x,y,-z
-x,-y,-z
x,y,-z
-x,y,z
x,-y,z
1/2+x,1/2+y,z
1/2-x,1/2-y,z
1/2+x,1/2-y,-z
1/2-x,1/2+y,-z
1/2-x,1/2-y,-z
1/2+x,1/2+y,-z
1/2-x,1/2+y,z
1/2+x,1/2-y,z
loop_
_atom_site_type_symbol
_atom_site_label
_atom_site_fract_x
_atom_site_fract_y
_atom_site_fract_z
Si Si1 0.175597 0.172252 0.061334
Si Si2 0.674529 0.916847 0.280735
Si Si3 0.322783 0.171855 0.828991
Si Si4 0.323896 0.671899 0.622508
Si Si5 0.172870 0.174745 0.500000
O O1 0.250000 0.250000 0.058168
O O2 0.256091 0.132826 0.114286
O O3 0.000000 0.179976 0.074050
O O4 0.201192 0.133341 0.000000
O O5 0.500000 0.905469 0.292843
O O6 0.723723 0.877478 0.223427
O O7 0.764872 0.884971 0.332860
O O8 0.717130 0.000000 0.274094
O O9 0.500000 0.179772 0.835000
O O10 0.250000 0.250000 0.819828
O O11 0.500000 0.682279 0.631149
O O12 0.250000 0.750000 0.631323
O O13 0.285629 0.637053 0.560006
O O14 0.250000 0.250000 0.500000
O O15 0.000000 0.192276 0.500000
#
# Coordination Sequence:
#
# PCOD8268109 Si02
#       5
#    16  16  16  16   8
#     4   9  16  26  43  69  99 126 154 194 242 290
#     4  10  22  38  52  70 100 135 171 212 254 295
#     4  10  19  31  50  73  97 127 162 202 246 293
#     4  10  19  33  55  80 104 132 166 204 248 297
#     4   8  16  30  49  76 105 129 159 201 245 292
#
# _framework density 18.396778999999999
#
# number of rings (size 3 to 8) (size 9 to 14) (size 15 to 20)
#    0.000    2.444    0.000    4.000    0.000    6.222 
#    0.000    0.556    0.000    4.000    0.000    4.667 
#    0.000    0.000    0.000    0.000    0.000    0.000 
#
# Total GULP energy -445988.708957 kJ/mol
# GULP energy per Si atom -12388.575249 kJ/mol
# Density = 1.835491 g / cm^3
# Si number density = 18.396779 Si / 1000 Ang^3
#
#
#
# Elastic Constant Matrix: (Units=GPa)
#
#
# Indices 1 2 3 4 5 6 
#
# 1 85.4221 37.2328 79.2018 0.0000 0.0000 0.0000
# 2 37.2328 70.3540 68.0109 0.0000 0.0000 0.0000
# 3 79.2018 68.0109 213.4684 0.0000 0.0000 0.0000
# 4 0.0000 0.0000 0.0000 -1.5781 0.0000 0.0000
# 5 0.0000 0.0000 0.0000 0.0000 30.6855 0.0000
# 6 0.0000 0.0000 0.0000 0.0000 0.0000 19.6480
#
#
#
# Elastic Compliance Matrix: (Units=1/GPa)
#
#
# Indices 1 2 3 4 5 6 
#
# 1 0.018840 -0.004643 -0.005511 0.000000 0.000000 0.000000
# 2 -0.004643 0.021684 -0.005186 0.000000 0.000000 0.000000
# 3 -0.005511 -0.005186 0.008381 0.000000 0.000000 0.000000
# 4 0.000000 0.000000 0.000000 -0.633687 0.000000 0.000000
# 5 0.000000 0.000000 0.000000 0.000000 0.032589 0.000000
# 6 0.000000 0.000000 0.000000 0.000000 0.000000 0.050896
#
#
# Mechanical properties :
#
#
# Convention : Reuss Voigt Hill
#
# Bulk Modulus (GPa) = 54.86715 82.01506 68.44110
# Shear Modulus (GPa) = -10.76327 22.07102 5.65387
#
# Velocity S-wave (km/s) = -2.42143 3.46746 1.75498
# Velocity P-wave (km/s) = 4.69801 7.79160 6.43352
#
# Compressibility (1/GPa) = 0.01822584
#
# Stress axis : x y z
#
# Youngs Moduli (GPa) = 53.07900 46.11637 119.31296
#
# Poissons Ratio (x) = 0.21413 0.65749
# Poissons Ratio (y) = 0.24646 0.61873
# Poissons Ratio (z) = 0.29250 0.23915
#
# Static dielectric constant tensor:
#      x y z
#    x 3.492980 0.000000 0.000000 
#    y 0.000000 2.913610 0.000000 
#    z 0.000000 0.000000 4.712910 
# 
# 
# High freq. dielectric constant tensor:
#      x y z
#    x 1.725250 0.000000 0.000000 
#    y 0.000000 1.653490 0.000000 
#    z 0.000000 0.000000 1.748640 
# 
# From -- ./inp_files/72548.got.cif
#   From: 2010.03.12/outbox.cif.g09.slc.cpg/sg65_37_cif.got.tgz:72548.got - 2010.04.10 20:52:16.
