data_PCOD8268891
_publ_section_title
;
Structure prediction by ZEFSAII (Michael W. Deem and Ramdas Pophale) SiO2 
 PCOD8268891
Probable space group: C M M M
;
_chemical_formula_sum "Si O2"
_cell_formula_units_Z 72
_cell_length_a 8.066704
_cell_length_b 19.219584
_cell_length_c 24.944025
_cell_angle_alpha 90.000000
_cell_angle_beta 90.000000
_cell_angle_gamma 90.000000
_cell_volume 3867.289087
_symmetry_space_group_name_H-M "C M M M"
_symmetry_group_IT_number 65
_symmetry_cell_setting 'orthorhombic'
loop_
_space_group_symop_operation_xyz
x,y,z
-x,-y,z
x,-y,-z
-x,y,-z
-x,-y,-z
x,y,-z
-x,y,z
x,-y,z
1/2+x,1/2+y,z
1/2-x,1/2-y,z
1/2+x,1/2-y,-z
1/2-x,1/2+y,-z
1/2-x,1/2-y,-z
1/2+x,1/2+y,-z
1/2-x,1/2+y,z
1/2+x,1/2-y,z
loop_
_atom_site_type_symbol
_atom_site_label
_atom_site_fract_x
_atom_site_fract_y
_atom_site_fract_z
Si Si1 0.806151 0.671371 0.057819
Si Si2 0.316346 0.582711 0.625723
Si Si3 0.189469 0.829104 0.831155
Si Si4 0.310340 0.077912 0.737866
Si Si5 0.500000 0.083017 0.439150
O O1 0.750000 0.750000 0.052864
O O2 0.714591 0.637533 0.109200
O O3 0.000000 0.668133 0.069712
O O4 0.764599 0.634661 0.000000
O O5 0.500000 0.607890 0.606211
O O6 0.306179 0.500000 0.623791
O O7 0.292620 0.607215 0.687256
O O8 0.167984 0.612932 0.588707
O O9 0.250000 0.750000 0.830959
O O10 0.293330 0.872790 0.788829
O O11 0.000000 0.833462 0.814172
O O12 0.500000 0.076355 0.719258
O O13 0.250550 0.000000 0.753367
O O14 0.500000 0.109815 0.500000
O O15 0.500000 0.000000 0.436417
#
# Coordination Sequence:
#
# PCOD8268891 Si02
#       5
#    16  16  16  16   8
#     4   9  16  27  44  65  90 121 157 195 242 297
#     4   9  16  27  43  64  91 126 165 200 241 294
#     4  11  21  32  48  72 101 129 160 205 251 292
#     4  10  19  33  52  71  96 132 168 203 248 302
#     4   9  16  26  40  62  94 128 161 201 246 288
#
# _framework density 18.617692000000002
#
# number of rings (size 3 to 8) (size 9 to 14) (size 15 to 20)
#    0.000    2.333    1.111    4.667    0.000    3.111 
#    0.000    2.222    0.000    0.667    0.000    4.667 
#    0.000    0.889    0.444    0.000    0.000    0.000 
#
# Total GULP energy -446086.918108 kJ/mol
# GULP energy per Si atom -12391.303281 kJ/mol
# Density = 1.857532 g / cm^3
# Si number density = 18.617692 Si / 1000 Ang^3
#
#
#
# Elastic Constant Matrix: (Units=GPa)
#
#
# Indices 1 2 3 4 5 6 
#
# 1 115.4634 10.7155 51.0853 0.0000 0.0000 0.0000
# 2 10.7155 25.5179 27.9488 0.0000 0.0000 0.0000
# 3 51.0853 27.9488 144.1129 0.0000 0.0000 0.0000
# 4 0.0000 0.0000 0.0000 22.8053 0.0000 0.0000
# 5 0.0000 0.0000 0.0000 0.0000 28.1795 0.0000
# 6 0.0000 0.0000 0.0000 0.0000 0.0000 13.5119
#
#
#
# Elastic Compliance Matrix: (Units=1/GPa)
#
#
# Indices 1 2 3 4 5 6 
#
# 1 0.010275 -0.000413 -0.003562 0.000000 0.000000 0.000000
# 2 -0.000413 0.049774 -0.009506 0.000000 0.000000 0.000000
# 3 -0.003562 -0.009506 0.010045 0.000000 0.000000 0.000000
# 4 0.000000 0.000000 0.000000 0.043849 0.000000 0.000000
# 5 0.000000 0.000000 0.000000 0.000000 0.035487 0.000000
# 6 0.000000 0.000000 0.000000 0.000000 0.000000 0.074009
#
#
# Mechanical properties :
#
#
# Convention : Reuss Voigt Hill
#
# Bulk Modulus (GPa) = 23.18542 51.62148 37.40345
# Shear Modulus (GPa) = 18.88360 25.92232 22.40296
#
# Velocity S-wave (km/s) = 3.18824 3.73547 3.47265
# Velocity P-wave (km/s) = 5.10231 6.81119 6.01772
#
# Compressibility (1/GPa) = 0.04313055
#
# Stress axis : x y z
#
# Youngs Moduli (GPa) = 97.32208 20.09088 99.54805
#
# Poissons Ratio (x) = 0.00830 0.35461
# Poissons Ratio (y) = 0.04021 0.94635
# Poissons Ratio (z) = 0.34668 0.19099
#
# Static dielectric constant tensor:
#      x y z
#    x 3.688520 0.000000 0.000000 
#    y 0.000000 2.752470 0.000000 
#    z 0.000000 0.000000 3.799310 
# 
# 
# High freq. dielectric constant tensor:
#      x y z
#    x 1.742530 0.000000 0.000000 
#    y 0.000000 1.634990 0.000000 
#    z 0.000000 0.000000 1.736850 
# 
# From -- ./inp_files/67226.got.cif
#   From: 2010.03.12/outbox.cif.g09.slc.cpg/sg65_34_cif.got.tgz:67226.got - 2010.04.10 20:52:16.
