data_PCOD8268612
_publ_section_title
;
Structure prediction by ZEFSAII (Michael W. Deem and Ramdas Pophale) SiO2 
 PCOD8268612
Probable space group: C M M M
;
_chemical_formula_sum "Si O2"
_cell_formula_units_Z 88
_cell_length_a 28.081344
_cell_length_b 13.956794
_cell_length_c 11.808786
_cell_angle_alpha 90.000000
_cell_angle_beta 90.000000
_cell_angle_gamma 90.000000
_cell_volume 4628.164752
_symmetry_space_group_name_H-M "C M M M"
_symmetry_group_IT_number 65
_symmetry_cell_setting 'orthorhombic'
loop_
_space_group_symop_operation_xyz
x,y,z
-x,-y,z
x,-y,-z
-x,y,-z
-x,-y,-z
x,y,-z
-x,y,z
x,-y,z
1/2+x,1/2+y,z
1/2-x,1/2-y,z
1/2+x,1/2-y,-z
1/2-x,1/2+y,-z
1/2-x,1/2-y,-z
1/2+x,1/2+y,-z
1/2-x,1/2+y,z
1/2+x,1/2-y,z
loop_
_atom_site_type_symbol
_atom_site_label
_atom_site_fract_x
_atom_site_fract_y
_atom_site_fract_z
Si Si1 0.447743 0.830964 0.500000
Si Si2 0.842723 0.391406 0.500000
Si Si3 0.202913 0.312128 0.272266
Si Si4 0.446657 0.681620 0.301527
Si Si5 0.836806 0.000000 0.842759
Si Si6 0.387376 0.500000 0.625813
Si Si7 0.127436 0.203146 0.875871
Si Si8 0.772902 0.500000 0.870595
O O1 0.500000 0.885194 0.500000
O O2 0.400670 0.897066 0.500000
O O3 0.445592 0.767499 0.388793
O O4 0.823656 0.500000 0.500000
O O5 0.822697 0.337013 0.609860
O O6 0.250000 0.250000 0.297664
O O7 0.169558 0.244774 0.198910
O O8 0.211336 0.406900 0.198643
O O9 0.500000 0.648694 0.273405
O O10 0.419018 0.592948 0.354649
O O11 0.422833 0.719378 0.185955
O O12 0.840990 0.000000 0.705774
O O13 0.863834 0.090787 0.893241
O O14 0.783257 0.000000 0.882719
O O15 0.366599 0.500000 0.500000
O O16 0.125519 0.252179 0.000000
O O17 0.793818 0.500000 0.000000
#
# Coordination Sequence:
#
# PCOD8268612 Si02
#       8
#     8   8  16  16   8   8  16   8
#     4  10  20  37  64  89 111 146 195 247 296 360
#     4  12  25  46  65  88 126 153 188 249 313 358
#     4  12  25  42  64  92 120 161 201 245 297 354
#     4  10  20  34  56  85 118 154 198 245 296 354
#     4  10  22  37  55  87 120 159 205 250 297 344
#     4  10  19  32  51  84 122 161 198 244 300 354
#     4  11  22  38  60  86 121 161 202 247 296 350
#     4  12  24  41  62  89 120 159 211 246 285 353
#
# _framework density 19.014018
#
# number of rings (size 3 to 8) (size 9 to 14) (size 15 to 20)
#    0.000    1.091    5.455    1.909    0.000    1.636 
#    1.636    0.000    0.000    3.273    0.000    0.000 
#    0.000    5.818    0.000    0.000    0.000    0.000 
#
# Total GULP energy -545463.801255 kJ/mol
# GULP energy per Si atom -12396.904574 kJ/mol
# Density = 1.897074 g / cm^3
# Si number density = 19.014018 Si / 1000 Ang^3
#
#
#
# Elastic Constant Matrix: (Units=GPa)
#
#
# Indices 1 2 3 4 5 6 
#
# 1 72.6968 27.9951 59.5554 0.0000 0.0000 0.0000
# 2 27.9951 76.1004 28.2443 0.0000 0.0000 0.0000
# 3 59.5554 28.2443 165.2361 0.0000 0.0000 0.0000
# 4 0.0000 0.0000 0.0000 23.7698 0.0000 0.0000
# 5 0.0000 0.0000 0.0000 0.0000 13.2469 0.0000
# 6 0.0000 0.0000 0.0000 0.0000 0.0000 10.8300
#
#
#
# Elastic Compliance Matrix: (Units=1/GPa)
#
#
# Indices 1 2 3 4 5 6 
#
# 1 0.021377 -0.005343 -0.006792 0.000000 0.000000 0.000000
# 2 -0.005343 0.015366 -0.000701 0.000000 0.000000 0.000000
# 3 -0.006792 -0.000701 0.008620 0.000000 0.000000 0.000000
# 4 0.000000 0.000000 0.000000 0.042070 0.000000 0.000000
# 5 0.000000 0.000000 0.000000 0.000000 0.075490 0.000000
# 6 0.000000 0.000000 0.000000 0.000000 0.000000 0.092336
#
#
# Mechanical properties :
#
#
# Convention : Reuss Voigt Hill
#
# Bulk Modulus (GPa) = 50.78253 60.62475 55.70364
# Shear Modulus (GPa) = 17.39163 22.78523 20.08843
#
# Velocity S-wave (km/s) = 3.02764 3.46546 3.25392
# Velocity P-wave (km/s) = 6.24404 6.92575 6.59371
#
# Compressibility (1/GPa) = 0.01969181
#
# Stress axis : x y z
#
# Youngs Moduli (GPa) = 46.77848 65.07753 116.01496
#
# Poissons Ratio (x) = 0.34774 0.78792
# Poissons Ratio (y) = 0.24996 0.08129
# Poissons Ratio (z) = 0.31770 0.04560
#
# Static dielectric constant tensor:
#      x y z
#    x 3.666540 0.000000 0.000000 
#    y 0.000000 3.386910 0.000000 
#    z 0.000000 0.000000 3.724740 
# 
# 
# High freq. dielectric constant tensor:
#      x y z
#    x 1.737710 0.000000 0.000000 
#    y 0.000000 1.731760 0.000000 
#    z 0.000000 0.000000 1.755030 
# 
# From -- ./inp_files/32310.got.cif
#   From: 2010.03.12/outbox.cif.g09.slc.cpg/sg65_17_cif.got.tgz:32310.got - 2010.04.10 20:52:16.
