data_PCOD8268360
_publ_section_title
;
Structure prediction by ZEFSAII (Michael W. Deem and Ramdas Pophale) SiO2 
 PCOD8268360
Probable space group: C M M M
;
_chemical_formula_sum "Si O2"
_cell_formula_units_Z 80
_cell_length_a 7.940935
_cell_length_b 25.997901
_cell_length_c 23.907119
_cell_angle_alpha 90.000000
_cell_angle_beta 90.000000
_cell_angle_gamma 90.000000
_cell_volume 4935.568344
_symmetry_space_group_name_H-M "C M M M"
_symmetry_group_IT_number 65
_symmetry_cell_setting 'orthorhombic'
loop_
_space_group_symop_operation_xyz
x,y,z
-x,-y,z
x,-y,-z
-x,y,-z
-x,-y,-z
x,y,-z
-x,y,z
x,-y,z
1/2+x,1/2+y,z
1/2-x,1/2-y,z
1/2+x,1/2-y,-z
1/2-x,1/2+y,-z
1/2-x,1/2-y,-z
1/2+x,1/2+y,-z
1/2-x,1/2+y,z
1/2+x,1/2-y,z
loop_
_atom_site_type_symbol
_atom_site_label
_atom_site_fract_x
_atom_site_fract_y
_atom_site_fract_z
Si Si1 0.000000 0.938592 0.563186
Si Si2 0.687127 0.938889 0.365245
Si Si3 0.801061 0.805337 0.937183
Si Si4 0.303822 0.599271 0.130441
Si Si5 0.199427 0.059015 0.246179
Si Si6 0.697201 0.000000 0.935236
O O1 0.831347 0.917000 0.593460
O O2 0.000000 0.917623 0.500000
O O3 0.000000 0.000000 0.564160
O O4 0.500000 0.921952 0.385732
O O5 0.716310 0.918228 0.302281
O O6 0.703015 0.000000 0.364087
O O7 0.750000 0.750000 0.911960
O O8 0.721627 0.850172 0.898235
O O9 0.000000 0.810978 0.939183
O O10 0.726209 0.811013 0.000000
O O11 0.500000 0.608414 0.137541
O O12 0.229317 0.590494 0.192742
O O13 0.276521 0.550319 0.091642
O O14 0.000000 0.063635 0.252861
O O15 0.252162 0.000000 0.236631
O O16 0.500000 0.000000 0.924854
O O17 0.745657 0.000000 0.000000
#
# Coordination Sequence:
#
# PCOD8268360 Si02
#       6
#     8  16  16  16  16   8
#     4   9  16  26  38  54  78 108 146 192 222 248
#     4   9  16  25  38  55  77 110 144 180 223 261
#     4   9  18  32  49  66  83 108 144 185 227 274
#     4  10  19  32  49  66  82 111 149 184 220 274
#     4   9  15  26  42  59  82 107 139 181 222 260
#     4  11  23  33  41  61  93 117 135 176 235 278
#
# _framework density 16.208873000000001
#
# number of rings (size 3 to 8) (size 9 to 14) (size 15 to 20)
#    0.000    2.600    2.000    0.900    0.000    3.600 
#    0.000    4.000    0.000    0.000    0.000    0.000 
#    0.000    0.000    0.000    0.000    0.000    1.000 
#
# Total GULP energy -495795.965971 kJ/mol
# GULP energy per Si atom -12394.899149 kJ/mol
# Density = 1.617198 g / cm^3
# Si number density = 16.208873 Si / 1000 Ang^3
#
#
#
# Elastic Constant Matrix: (Units=GPa)
#
#
# Indices 1 2 3 4 5 6 
#
# 1 55.5268 12.8824 45.7128 0.0000 0.0000 0.0000
# 2 12.8824 77.9990 42.5716 0.0000 0.0000 0.0000
# 3 45.7128 42.5716 129.8533 0.0000 0.0000 0.0000
# 4 0.0000 0.0000 0.0000 11.2841 0.0000 0.0000
# 5 0.0000 0.0000 0.0000 0.0000 14.3745 0.0000
# 6 0.0000 0.0000 0.0000 0.0000 0.0000 11.7644
#
#
#
# Elastic Compliance Matrix: (Units=1/GPa)
#
#
# Indices 1 2 3 4 5 6 
#
# 1 0.025403 0.000835 -0.009216 0.000000 0.000000 0.000000
# 2 0.000835 0.015642 -0.005422 0.000000 0.000000 0.000000
# 3 -0.009216 -0.005422 0.012723 0.000000 0.000000 0.000000
# 4 0.000000 0.000000 0.000000 0.088621 0.000000 0.000000
# 5 0.000000 0.000000 0.000000 0.000000 0.069568 0.000000
# 6 0.000000 0.000000 0.000000 0.000000 0.000000 0.085002
#
#
# Mechanical properties :
#
#
# Convention : Reuss Voigt Hill
#
# Bulk Modulus (GPa) = 38.22509 51.74585 44.98547
# Shear Modulus (GPa) = 15.00211 18.29875 16.65043
#
# Velocity S-wave (km/s) = 3.04558 3.36361 3.20854
# Velocity P-wave (km/s) = 6.00012 6.86140 6.44516
#
# Compressibility (1/GPa) = 0.02616083
#
# Stress axis : x y z
#
# Youngs Moduli (GPa) = 39.36521 63.92992 78.59756
#
# Poissons Ratio (x) = -0.05336 0.72439
# Poissons Ratio (y) = -0.03286 0.42616
# Poissons Ratio (z) = 0.36281 0.34663
#
# Static dielectric constant tensor:
#      x y z
#    x 3.060230 0.000000 0.000000 
#    y 0.000000 2.792130 0.000000 
#    z 0.000000 0.000000 3.300470 
# 
# 
# High freq. dielectric constant tensor:
#      x y z
#    x 1.625550 0.000000 0.000000 
#    y 0.000000 1.560150 0.000000 
#    z 0.000000 0.000000 1.622180 
# 
# From -- ./inp_files/60093.got.cif
#   From: 2010.03.12/outbox.cif.g09.slc.cpg/sg65_31_cif.got.tgz:60093.got - 2010.04.10 20:52:16.
