data_PCOD8268556
_publ_section_title
;
Structure prediction by ZEFSAII (Michael W. Deem and Ramdas Pophale) SiO2 
 PCOD8268556
Probable space group: C M M M
;
_chemical_formula_sum "Si O2"
_cell_formula_units_Z 104
_cell_length_a 8.760884
_cell_length_b 19.862970
_cell_length_c 33.019821
_cell_angle_alpha 90.000000
_cell_angle_beta 90.000000
_cell_angle_gamma 90.000000
_cell_volume 5746.016005
_symmetry_space_group_name_H-M "C M M M"
_symmetry_group_IT_number 65
_symmetry_cell_setting 'orthorhombic'
loop_
_space_group_symop_operation_xyz
x,y,z
-x,-y,z
x,-y,-z
-x,y,-z
-x,-y,-z
x,y,-z
-x,y,z
x,-y,z
1/2+x,1/2+y,z
1/2-x,1/2-y,z
1/2+x,1/2-y,-z
1/2-x,1/2+y,-z
1/2-x,1/2-y,-z
1/2+x,1/2+y,-z
1/2-x,1/2+y,z
1/2+x,1/2-y,z
loop_
_atom_site_type_symbol
_atom_site_label
_atom_site_fract_x
_atom_site_fract_y
_atom_site_fract_z
Si Si1 0.678372 0.821937 0.000000
Si Si2 0.317888 0.678106 0.691532
Si Si3 0.320758 0.823360 0.087504
Si Si4 0.674974 0.422595 0.453019
Si Si5 0.318754 0.574348 0.758139
Si Si6 0.679584 0.821134 0.393588
Si Si7 0.822555 0.077930 0.151066
O O1 0.750000 0.750000 0.000000
O O2 0.727165 0.855304 0.956891
O O3 0.500000 0.812476 0.000000
O O4 0.500000 0.681539 0.690206
O O5 0.250000 0.750000 0.703310
O O6 0.255298 0.626514 0.725208
O O7 0.255861 0.654126 0.648128
O O8 0.500000 0.813569 0.090437
O O9 0.250000 0.750000 0.095146
O O10 0.271060 0.875986 0.120973
O O11 0.707092 0.408835 0.500000
O O12 0.500000 0.405037 0.442354
O O13 0.709487 0.500000 0.442308
O O14 0.788449 0.376265 0.427684
O O15 0.500000 0.572160 0.756697
O O16 0.254397 0.500000 0.747742
O O17 0.267826 0.595546 0.803322
O O18 0.500000 0.812285 0.387265
O O19 0.750000 0.750000 0.407412
O O20 0.000000 0.094023 0.145631
O O21 0.788530 0.000000 0.141492
#
# Coordination Sequence:
#
# PCOD8268556 Si02
#       7
#     8  16  16  16  16  16  16
#     4   8  16  30  47  68  95 127 161 203 249 294
#     4  10  19  33  53  75 101 132 167 208 253 300
#     4  10  19  32  51  74  99 128 166 207 250 299
#     4   9  19  37  59  81 106 137 173 212 254 302
#     4   8  16  32  53  74  96 128 168 205 245 296
#     4  11  22  36  54  77 107 140 174 212 255 302
#     4   9  18  34  53  73 101 134 167 205 249 297
#
# _framework density 18.099497
#
# number of rings (size 3 to 8) (size 9 to 14) (size 15 to 20)
#    0.000    2.615    0.000    4.615    0.000    3.077 
#    0.000    5.769    0.000    5.538    0.000    0.000 
#    0.000    0.000    0.000    0.000    0.000    0.000 
#
# Total GULP energy -644513.007129 kJ/mol
# GULP energy per Si atom -12394.480906 kJ/mol
# Density = 1.805830 g / cm^3
# Si number density = 18.099497 Si / 1000 Ang^3
#
#
#
# Elastic Constant Matrix: (Units=GPa)
#
#
# Indices 1 2 3 4 5 6 
#
# 1 66.9661 37.4209 41.1738 0.0000 0.0000 0.0000
# 2 37.4209 93.6203 84.1710 0.0000 0.0000 0.0000
# 3 41.1738 84.1710 132.2904 0.0000 0.0000 0.0000
# 4 0.0000 0.0000 0.0000 -21.8475 0.0000 0.0000
# 5 0.0000 0.0000 0.0000 0.0000 27.4248 0.0000
# 6 0.0000 0.0000 0.0000 0.0000 0.0000 29.5441
#
#
#
# Elastic Compliance Matrix: (Units=1/GPa)
#
#
# Indices 1 2 3 4 5 6 
#
# 1 0.019605 -0.005492 -0.002608 0.000000 0.000000 0.000000
# 2 -0.005492 0.026497 -0.015150 0.000000 0.000000 0.000000
# 3 -0.002608 -0.015150 0.018010 0.000000 0.000000 0.000000
# 4 0.000000 0.000000 0.000000 -0.045772 0.000000 0.000000
# 5 0.000000 0.000000 0.000000 0.000000 0.036463 0.000000
# 6 0.000000 0.000000 0.000000 0.000000 0.000000 0.033848
#
#
# Mechanical properties :
#
#
# Convention : Reuss Voigt Hill
#
# Bulk Modulus (GPa) = 56.77424 68.71203 62.74313
# Shear Modulus (GPa) = 35.45550 15.69836 25.57693
#
# Velocity S-wave (km/s) = 4.43077 2.94825 3.76324
# Velocity P-wave (km/s) = 7.59023 7.04525 7.32281
#
# Compressibility (1/GPa) = 0.01761362
#
# Stress axis : x y z
#
# Youngs Moduli (GPa) = 51.00713 37.73945 55.52482
#
# Poissons Ratio (x) = 0.20727 0.14478
# Poissons Ratio (y) = 0.28013 0.84120
# Poissons Ratio (z) = 0.13300 0.57175
#
# Static dielectric constant tensor:
#      x y z
#    x 3.174380 0.000000 0.000000 
#    y 0.000000 3.325160 0.000000 
#    z 0.000000 0.000000 3.763260 
# 
# 
# High freq. dielectric constant tensor:
#      x y z
#    x 1.691360 0.000000 0.000000 
#    y 0.000000 1.690460 0.000000 
#    z 0.000000 0.000000 1.714180 
# 
# From -- ./inp_files/76840.got.cif
#   From: 2010.03.12/outbox.cif.g09.slc.cpg/sg65_39_cif.got.tgz:76840.got - 2010.04.10 20:52:16.
