data_PCOD8268547
_publ_section_title
;
Structure prediction by ZEFSAII (Michael W. Deem and Ramdas Pophale) SiO2 
 PCOD8268547
Probable space group: C M M M
;
_chemical_formula_sum "Si O2"
_cell_formula_units_Z 104
_cell_length_a 17.082201
_cell_length_b 17.083499
_cell_length_c 21.144208
_cell_angle_alpha 90.000000
_cell_angle_beta 90.000000
_cell_angle_gamma 90.000000
_cell_volume 6170.382359
_symmetry_space_group_name_H-M "C M M M"
_symmetry_group_IT_number 65
_symmetry_cell_setting 'orthorhombic'
loop_
_space_group_symop_operation_xyz
x,y,z
-x,-y,z
x,-y,-z
-x,y,-z
-x,-y,-z
x,y,-z
-x,y,z
x,-y,z
1/2+x,1/2+y,z
1/2-x,1/2-y,z
1/2+x,1/2-y,-z
1/2-x,1/2+y,-z
1/2-x,1/2-y,-z
1/2+x,1/2+y,-z
1/2-x,1/2+y,z
1/2+x,1/2-y,z
loop_
_atom_site_type_symbol
_atom_site_label
_atom_site_fract_x
_atom_site_fract_y
_atom_site_fract_z
Si Si1 0.784882 0.410755 0.342256
Si Si2 0.186350 0.313667 0.108267
Si Si3 0.589253 0.784934 0.657739
Si Si4 0.094170 0.405837 0.000000
Si Si5 0.183972 0.815998 0.571278
Si Si6 0.784467 0.909185 0.793976
Si Si7 0.590830 0.715573 0.793955
O O1 0.809002 0.500000 0.349472
O O2 0.861720 0.361753 0.358649
O O3 0.715925 0.391922 0.392015
O O4 0.757100 0.390352 0.272009
O O5 0.250000 0.250000 0.080363
O O6 0.136460 0.363542 0.058478
O O7 0.231329 0.376824 0.150064
O O8 0.123202 0.268711 0.150091
O O9 0.500000 0.809086 0.650589
O O10 0.608034 0.716004 0.607946
O O11 0.609710 0.757101 0.727965
O O12 0.109686 0.500000 0.000000
O O13 0.000000 0.390330 0.000000
O O14 0.160685 0.839309 0.500000
O O15 0.250000 0.750000 0.572734
O O16 0.869012 0.868985 0.794828
O O17 0.798631 0.000000 0.804923
O O18 0.500000 0.701462 0.804888
#
# Coordination Sequence:
#
# PCOD8268547 Si02
#       7
#    16  16  16   8  16  16  16
#     4  10  19  32  51  74 104 135 172 216 260 309
#     4  10  20  35  58  79 103 141 179 217 253 303
#     4  10  19  32  51  74 104 135 172 216 260 309
#     4  11  23  38  54  78 117 149 172 208 252 307
#     4   9  18  32  52  73  97 131 175 214 252 310
#     4  10  19  32  52  77 103 136 174 217 261 307
#     4  10  19  32  52  77 103 136 174 217 261 307
#
# _framework density 16.854709
#
# number of rings (size 3 to 8) (size 9 to 14) (size 15 to 20)
#    0.000    2.077    3.077    1.154    0.000    1.231 
#    0.000    0.000    0.000    0.462    0.000    5.385 
#    0.000   11.077    0.000    0.000    0.000    0.000 
#
# Total GULP energy -644654.122549 kJ/mol
# GULP energy per Si atom -12397.194664 kJ/mol
# Density = 1.681635 g / cm^3
# Si number density = 16.854709 Si / 1000 Ang^3
#
#
#
# Elastic Constant Matrix: (Units=GPa)
#
#
# Indices 1 2 3 4 5 6 
#
# 1 92.9628 82.8876 53.0302 0.0000 0.0000 0.0000
# 2 82.8876 93.4206 53.2848 0.0000 0.0000 0.0000
# 3 53.0302 53.2848 104.7925 0.0000 0.0000 0.0000
# 4 0.0000 0.0000 0.0000 176.5625 0.0000 0.0000
# 5 0.0000 0.0000 0.0000 0.0000 179.2524 0.0000
# 6 0.0000 0.0000 0.0000 0.0000 0.0000 23.9715
#
#
#
# Elastic Compliance Matrix: (Units=1/GPa)
#
#
# Indices 1 2 3 4 5 6 
#
# 1 0.052699 -0.044433 -0.004075 0.000000 0.000000 0.000000
# 2 -0.044433 0.052540 -0.004230 0.000000 0.000000 0.000000
# 3 -0.004075 -0.004230 0.013756 0.000000 0.000000 0.000000
# 4 0.000000 0.000000 0.000000 0.005664 0.000000 0.000000
# 5 0.000000 0.000000 0.000000 0.000000 0.005579 0.000000
# 6 0.000000 0.000000 0.000000 0.000000 0.000000 0.041716
#
#
# Mechanical properties :
#
#
# Convention : Reuss Voigt Hill
#
# Bulk Modulus (GPa) = 73.97301 74.39789 74.18545
# Shear Modulus (GPa) = 17.73447 82.75548 50.24498
#
# Velocity S-wave (km/s) = 3.24728 7.01469 5.46584
# Velocity P-wave (km/s) = 7.61864 10.48067 9.16210
#
# Compressibility (1/GPa) = 0.01351844
#
# Stress axis : x y z
#
# Youngs Moduli (GPa) = 18.97574 19.03299 72.69583
#
# Poissons Ratio (x) = 0.84569 0.29624
# Poissons Ratio (y) = 0.84315 0.30754
# Poissons Ratio (z) = 0.07733 0.08052
#
# Static dielectric constant tensor:
#      x y z
#    x 3.101580 0.000000 0.000000 
#    y 0.000000 3.102080 0.000000 
#    z 0.000000 0.000000 3.248430 
# 
# 
# High freq. dielectric constant tensor:
#      x y z
#    x 1.647710 0.000000 0.000000 
#    y 0.000000 1.647730 0.000000 
#    z 0.000000 0.000000 1.651760 
# 
# From -- ./inp_files/62840.got.cif
#   From: 2010.03.12/outbox.cif.g09.slc.cpg/sg65_32_cif.got.tgz:62840.got - 2010.04.10 20:52:16.
