data_PCOD8268372
_publ_section_title
;
Structure prediction by ZEFSAII (Michael W. Deem and Ramdas Pophale) SiO2 
 PCOD8268372
Probable space group: C M M M
;
_chemical_formula_sum "Si O2"
_cell_formula_units_Z 88
_cell_length_a 27.313046
_cell_length_b 8.591198
_cell_length_c 21.460116
_cell_angle_alpha 90.000000
_cell_angle_beta 90.000000
_cell_angle_gamma 90.000000
_cell_volume 5035.654551
_symmetry_space_group_name_H-M "C M M M"
_symmetry_group_IT_number 65
_symmetry_cell_setting 'orthorhombic'
loop_
_space_group_symop_operation_xyz
x,y,z
-x,-y,z
x,-y,-z
-x,y,-z
-x,-y,-z
x,y,-z
-x,y,z
x,-y,z
1/2+x,1/2+y,z
1/2-x,1/2-y,z
1/2+x,1/2-y,-z
1/2-x,1/2+y,-z
1/2-x,1/2-y,-z
1/2+x,1/2+y,-z
1/2-x,1/2+y,z
1/2+x,1/2-y,z
loop_
_atom_site_type_symbol
_atom_site_label
_atom_site_fract_x
_atom_site_fract_y
_atom_site_fract_z
Si Si1 0.147123 0.683017 0.378543
Si Si2 0.695729 0.682883 0.500000
Si Si3 0.555826 0.315842 0.316142
Si Si4 0.555577 0.314861 0.068043
Si Si5 0.603612 0.317738 0.809568
Si Si6 0.801340 0.182814 0.259796
O O1 0.149992 0.500000 0.387613
O O2 0.165396 0.764683 0.440418
O O3 0.091075 0.733607 0.366016
O O4 0.182730 0.733036 0.322840
O O5 0.700806 0.500000 0.500000
O O6 0.750000 0.750000 0.500000
O O7 0.500000 0.270195 0.331231
O O8 0.564631 0.500000 0.320510
O O9 0.569688 0.254903 0.246868
O O10 0.500000 0.260851 0.079387
O O11 0.558606 0.500000 0.068330
O O12 0.588351 0.242080 0.124030
O O13 0.573769 0.253779 0.000000
O O14 0.594502 0.500000 0.814404
O O15 0.660157 0.279236 0.795176
O O16 0.750000 0.250000 0.236513
O O17 0.798314 0.000000 0.273223
#
# Coordination Sequence:
#
# PCOD8268372 Si02
#       6
#    16   8  16  16  16  16
#     4  11  22  36  53  76 103 128 158 196 239 285
#     4  12  24  40  59  78 101 128 160 195 237 287
#     4   9  17  31  51  73  99 132 167 201 239 284
#     4   8  12  18  32  58  91 123 154 191 236 283
#     4   8  14  24  40  63  91 124 160 197 238 285
#     4  10  19  32  49  69  93 123 159 199 244 290
#
# _framework density 17.475383999999998
#
# number of rings (size 3 to 8) (size 9 to 14) (size 15 to 20)
#    0.000    2.545    0.000    5.727    0.000    2.545 
#    0.000    0.455    0.000    3.273    0.000    0.000 
#    0.000   17.455    0.000   58.364    0.000   53.455 
#
# Total GULP energy -545419.301927 kJ/mol
# GULP energy per Si atom -12395.893226 kJ/mol
# Density = 1.743561 g / cm^3
# Si number density = 17.475384 Si / 1000 Ang^3
#
#
#
# Elastic Constant Matrix: (Units=GPa)
#
#
# Indices 1 2 3 4 5 6 
#
# 1 135.0583 39.9558 75.9239 0.0000 0.0000 0.0000
# 2 39.9558 74.5170 35.0400 0.0000 0.0000 0.0000
# 3 75.9239 35.0400 147.8071 0.0000 0.0000 0.0000
# 4 0.0000 0.0000 0.0000 6.4632 0.0000 0.0000
# 5 0.0000 0.0000 0.0000 0.0000 24.7711 0.0000
# 6 0.0000 0.0000 0.0000 0.0000 0.0000 25.7054
#
#
#
# Elastic Compliance Matrix: (Units=1/GPa)
#
#
# Indices 1 2 3 4 5 6 
#
# 1 0.011264 -0.003735 -0.004900 0.000000 0.000000 0.000000
# 2 -0.003735 0.016342 -0.001955 0.000000 0.000000 0.000000
# 3 -0.004900 -0.001955 0.009746 0.000000 0.000000 0.000000
# 4 0.000000 0.000000 0.000000 0.154721 0.000000 0.000000
# 5 0.000000 0.000000 0.000000 0.000000 0.040370 0.000000
# 6 0.000000 0.000000 0.000000 0.000000 0.000000 0.038902
#
#
# Mechanical properties :
#
#
# Convention : Reuss Voigt Hill
#
# Bulk Modulus (GPa) = 61.84284 73.24687 67.54486
# Shear Modulus (GPa) = 16.78309 25.15211 20.96760
#
# Velocity S-wave (km/s) = 3.10237 3.79791 3.46762
# Velocity P-wave (km/s) = 6.94970 7.82544 7.40053
#
# Compressibility (1/GPa) = 0.01617002
#
# Stress axis : x y z
#
# Youngs Moduli (GPa) = 88.77719 61.19132 102.60241
#
# Poissons Ratio (x) = 0.22858 0.50280
# Poissons Ratio (y) = 0.33162 0.20063
# Poissons Ratio (z) = 0.43505 0.11965
#
# Static dielectric constant tensor:
#      x y z
#    x 3.319300 0.000000 0.000000 
#    y 0.000000 2.986400 0.000000 
#    z 0.000000 0.000000 2.653620 
# 
# 
# High freq. dielectric constant tensor:
#      x y z
#    x 1.674830 0.000000 0.000000 
#    y 0.000000 1.648840 0.000000 
#    z 0.000000 0.000000 1.671220 
# 
# From -- ./inp_files/65748.got.cif
#   From: 2010.03.12/outbox.cif.g09.slc.cpg/sg65_33_cif.got.tgz:65748.got - 2010.04.10 20:52:16.
