data_PCOD8268919
_publ_section_title
;
Structure prediction by ZEFSAII (Michael W. Deem and Ramdas Pophale) SiO2 
 PCOD8268919
Probable space group: C M M M
;
_chemical_formula_sum "Si O2"
_cell_formula_units_Z 80
_cell_length_a 28.644873
_cell_length_b 8.938167
_cell_length_c 18.124279
_cell_angle_alpha 90.000000
_cell_angle_beta 90.000000
_cell_angle_gamma 90.000000
_cell_volume 4640.407337
_symmetry_space_group_name_H-M "C M M M"
_symmetry_group_IT_number 65
_symmetry_cell_setting 'orthorhombic'
loop_
_space_group_symop_operation_xyz
x,y,z
-x,-y,z
x,-y,-z
-x,y,-z
-x,-y,-z
x,y,-z
-x,y,z
x,-y,z
1/2+x,1/2+y,z
1/2-x,1/2-y,z
1/2+x,1/2-y,-z
1/2-x,1/2+y,-z
1/2-x,1/2-y,-z
1/2+x,1/2+y,-z
1/2-x,1/2+y,z
1/2+x,1/2-y,z
loop_
_atom_site_type_symbol
_atom_site_label
_atom_site_fract_x
_atom_site_fract_y
_atom_site_fract_z
Si Si1 0.701808 0.670590 0.000000
Si Si2 0.800971 0.176614 0.839697
Si Si3 0.053896 0.824042 0.350553
Si Si4 0.136827 0.323097 0.283806
Si Si5 0.555037 0.833396 0.500000
Si Si6 0.298217 0.825156 0.417196
O O1 0.750000 0.750000 0.000000
O O2 0.676679 0.707940 0.078102
O O3 0.715745 0.500000 0.000000
O O4 0.750000 0.250000 0.830928
O O5 0.836614 0.253601 0.784853
O O6 0.796857 0.000000 0.823018
O O7 0.085022 0.748099 0.286765
O O8 0.071125 0.755843 0.428093
O O9 0.000000 0.785164 0.334254
O O10 0.062260 0.000000 0.352672
O O11 0.133238 0.500000 0.273826
O O12 0.162566 0.275650 0.359381
O O13 0.500000 0.849647 0.500000
O O14 0.578180 0.000000 0.500000
O O15 0.313606 0.776011 0.500000
O O16 0.250000 0.750000 0.393455
O O17 0.289276 0.000000 0.413185
#
# Coordination Sequence:
#
# PCOD8268919 Si02
#       6
#     8  16  16  16   8  16
#     4   8  16  30  50  74 101 136 167 200 246 299
#     4  10  19  33  52  76 107 137 170 207 249 299
#     4  10  21  36  52  72  98 128 167 215 263 309
#     4  11  22  33  50  74 100 132 171 210 256 306
#     4   9  17  31  51  71  92 121 158 205 259 309
#     4   9  19  34  48  64  90 126 166 205 241 284
#
# _framework density 17.239867
#
# number of rings (size 3 to 8) (size 9 to 14) (size 15 to 20)
#    0.000    2.300    0.000    2.700    1.400    6.400 
#    0.000    0.000    0.000    0.000    0.000    0.700 
#    0.000    5.600    0.000    0.000    0.000    0.000 
#
# Total GULP energy -495795.887417 kJ/mol
# GULP energy per Si atom -12394.897185 kJ/mol
# Density = 1.720063 g / cm^3
# Si number density = 17.239867 Si / 1000 Ang^3
#
#
#
# Elastic Constant Matrix: (Units=GPa)
#
#
# Indices 1 2 3 4 5 6 
#
# 1 88.7139 52.7022 68.7524 0.0000 0.0000 0.0000
# 2 52.7022 92.4705 62.5028 0.0000 0.0000 0.0000
# 3 68.7524 62.5028 121.9004 0.0000 0.0000 0.0000
# 4 0.0000 0.0000 0.0000 24.7889 0.0000 0.0000
# 5 0.0000 0.0000 0.0000 0.0000 -30.5598 0.0000
# 6 0.0000 0.0000 0.0000 0.0000 0.0000 27.5410
#
#
#
# Elastic Compliance Matrix: (Units=1/GPa)
#
#
# Indices 1 2 3 4 5 6 
#
# 1 0.022273 -0.006432 -0.009264 0.000000 0.000000 0.000000
# 2 -0.006432 0.018408 -0.005810 0.000000 0.000000 0.000000
# 3 -0.009264 -0.005810 0.016407 0.000000 0.000000 0.000000
# 4 0.000000 0.000000 0.000000 0.040341 0.000000 0.000000
# 5 0.000000 0.000000 0.000000 0.000000 -0.032723 0.000000
# 6 0.000000 0.000000 0.000000 0.000000 0.000000 0.036310
#
#
# Mechanical properties :
#
#
# Convention : Reuss Voigt Hill
#
# Bulk Modulus (GPa) = 71.04949 74.55551 72.80250
# Shear Modulus (GPa) = 33.62010 12.29584 22.95797
#
# Velocity S-wave (km/s) = 4.42083 2.67352 3.65318
# Velocity P-wave (km/s) = 8.20732 7.27119 7.75339
#
# Compressibility (1/GPa) = 0.01407470
#
# Stress axis : x y z
#
# Youngs Moduli (GPa) = 44.89751 54.32509 60.94778
#
# Poissons Ratio (x) = 0.34944 0.56461
# Poissons Ratio (y) = 0.28880 0.35413
# Poissons Ratio (z) = 0.41593 0.31565
#
# Static dielectric constant tensor:
#      x y z
#    x 3.184680 0.000000 0.000000 
#    y 0.000000 3.328270 0.000000 
#    z 0.000000 0.000000 3.329720 
# 
# 
# High freq. dielectric constant tensor:
#      x y z
#    x 1.643550 0.000000 0.000000 
#    y 0.000000 1.680580 0.000000 
#    z 0.000000 0.000000 1.657000 
# 
# From -- ./inp_files/57876.got.cif
#   From: 2010.03.12/outbox.cif.g09.slc.cpg/sg65_29_cif.got.tgz:57876.got - 2010.04.10 20:52:16.
