data_PCOD8268633
_publ_section_title
;
Structure prediction by ZEFSAII (Michael W. Deem and Ramdas Pophale) SiO2 
 PCOD8268633
Probable space group: C M M M
;
_chemical_formula_sum "Si O2"
_cell_formula_units_Z 120
_cell_length_a 18.169182
_cell_length_b 20.470621
_cell_length_c 18.782383
_cell_angle_alpha 90.000000
_cell_angle_beta 90.000000
_cell_angle_gamma 90.000000
_cell_volume 6985.815077
_symmetry_space_group_name_H-M "C M M M"
_symmetry_group_IT_number 65
_symmetry_cell_setting 'orthorhombic'
loop_
_space_group_symop_operation_xyz
x,y,z
-x,-y,z
x,-y,-z
-x,y,-z
-x,-y,-z
x,y,-z
-x,y,z
x,-y,z
1/2+x,1/2+y,z
1/2-x,1/2-y,z
1/2+x,1/2-y,-z
1/2-x,1/2+y,-z
1/2-x,1/2-y,-z
1/2+x,1/2+y,-z
1/2-x,1/2+y,z
1/2+x,1/2-y,z
loop_
_atom_site_type_symbol
_atom_site_label
_atom_site_fract_x
_atom_site_fract_y
_atom_site_fract_z
Si Si1 0.916139 0.126938 0.307246
Si Si2 0.204963 0.315250 0.417719
Si Si3 0.854589 0.871915 0.844589
Si Si4 0.781132 0.322362 0.079885
Si Si5 0.082391 0.724466 0.316414
Si Si6 0.683035 0.426796 0.580336
Si Si7 0.085076 0.731183 0.152197
Si Si8 0.913305 0.000000 0.079914
O O1 0.862357 0.118293 0.239901
O O2 0.912742 0.199850 0.338404
O O3 0.888175 0.079697 0.369521
O O4 0.000000 0.108758 0.285551
O O5 0.180134 0.318010 0.500000
O O6 0.250000 0.250000 0.401087
O O7 0.133925 0.318083 0.367400
O O8 0.253220 0.377500 0.395705
O O9 0.768764 0.865873 0.867129
O O10 0.899035 0.806796 0.868146
O O11 0.886709 0.934875 0.882188
O O12 0.750000 0.250000 0.080437
O O13 0.865515 0.319066 0.106705
O O14 0.779272 0.351812 0.000000
O O15 0.105769 0.718315 0.234223
O O16 0.000000 0.697774 0.327253
O O17 0.657696 0.410556 0.500000
O O18 0.714519 0.500000 0.586117
O O19 0.000000 0.716332 0.135889
O O20 0.000000 0.000000 0.080785
O O21 0.882071 0.000000 0.000000
#
# Coordination Sequence:
#
# PCOD8268633 Si02
#       8
#    16  16  16  16  16  16  16   8
#     4  10  20  33  51  74 101 137 175 209 252 308
#     4  10  19  32  52  75 101 135 176 216 255 302
#     4  10  20  34  49  70 104 135 170 214 249 298
#     4   9  18  31  49  72  96 129 168 204 249 304
#     4   9  18  31  50  76 104 131 167 213 261 306
#     4  10  22  37  51  73 106 141 174 212 258 306
#     4   9  18  32  50  75 105 133 162 208 263 308
#     4  11  22  34  50  70  98 140 178 210 251 298
#
# _framework density 17.177665999999999
#
# number of rings (size 3 to 8) (size 9 to 14) (size 15 to 20)
#    0.000    2.333    1.333    2.400    2.800    2.133 
#    0.000    2.000    0.000    0.400    0.000    2.333 
#    0.000    1.600    0.000    0.000    0.000    0.000 
#
# Total GULP energy -743955.570933 kJ/mol
# GULP energy per Si atom -12399.259516 kJ/mol
# Density = 1.713857 g / cm^3
# Si number density = 17.177666 Si / 1000 Ang^3
#
#
#
# Elastic Constant Matrix: (Units=GPa)
#
#
# Indices 1 2 3 4 5 6 
#
# 1 109.8872 39.1640 64.4583 0.0000 0.0000 0.0000
# 2 39.1640 63.4593 40.2838 0.0000 0.0000 0.0000
# 3 64.4583 40.2838 96.6888 0.0000 0.0000 0.0000
# 4 0.0000 0.0000 0.0000 13.0056 0.0000 0.0000
# 5 0.0000 0.0000 0.0000 0.0000 33.0123 0.0000
# 6 0.0000 0.0000 0.0000 0.0000 0.0000 20.2476
#
#
#
# Elastic Compliance Matrix: (Units=1/GPa)
#
#
# Indices 1 2 3 4 5 6 
#
# 1 0.015706 -0.004142 -0.008745 0.000000 0.000000 0.000000
# 2 -0.004142 0.022517 -0.006620 0.000000 0.000000 0.000000
# 3 -0.008745 -0.006620 0.018930 0.000000 0.000000 0.000000
# 4 0.000000 0.000000 0.000000 0.076890 0.000000 0.000000
# 5 0.000000 0.000000 0.000000 0.000000 0.030292 0.000000
# 6 0.000000 0.000000 0.000000 0.000000 0.000000 0.049388
#
#
# Mechanical properties :
#
#
# Convention : Reuss Voigt Hill
#
# Bulk Modulus (GPa) = 55.12792 61.98308 58.55550
# Shear Modulus (GPa) = 19.32117 21.66172 20.49144
#
# Velocity S-wave (km/s) = 3.35742 3.55496 3.45760
# Velocity P-wave (km/s) = 6.86965 7.28095 7.07829
#
# Compressibility (1/GPa) = 0.01813963
#
# Stress axis : x y z
#
# Youngs Moduli (GPa) = 63.66977 44.41165 52.82481
#
# Poissons Ratio (x) = 0.18394 0.46195
# Poissons Ratio (y) = 0.26370 0.34970
# Poissons Ratio (z) = 0.55679 0.29401
#
# Static dielectric constant tensor:
#      x y z
#    x 3.218360 0.000000 0.000000 
#    y 0.000000 2.994280 0.000000 
#    z 0.000000 0.000000 3.287820 
# 
# 
# High freq. dielectric constant tensor:
#      x y z
#    x 1.655860 0.000000 0.000000 
#    y 0.000000 1.629870 0.000000 
#    z 0.000000 0.000000 1.671260 
# 
# From -- ./inp_files/54983.got.cif
#   From: 2010.03.12/outbox.cif.g09.slc.cpg/sg65_28_cif.got.tgz:54983.got - 2010.04.10 20:52:16.
