data_PCOD8268328
_publ_section_title
;
Structure prediction by ZEFSAII (Michael W. Deem and Ramdas Pophale) SiO2 
 PCOD8268328
Probable space group: C M M M
;
_chemical_formula_sum "Si O2"
_cell_formula_units_Z 88
_cell_length_a 21.900494
_cell_length_b 15.687792
_cell_length_c 14.306413
_cell_angle_alpha 90.000000
_cell_angle_beta 90.000000
_cell_angle_gamma 90.000000
_cell_volume 4915.259959
_symmetry_space_group_name_H-M "C M M M"
_symmetry_group_IT_number 65
_symmetry_cell_setting 'orthorhombic'
loop_
_space_group_symop_operation_xyz
x,y,z
-x,-y,z
x,-y,-z
-x,y,-z
-x,-y,-z
x,y,-z
-x,y,z
x,-y,z
1/2+x,1/2+y,z
1/2-x,1/2-y,z
1/2+x,1/2-y,-z
1/2-x,1/2+y,-z
1/2-x,1/2-y,-z
1/2+x,1/2+y,-z
1/2-x,1/2+y,z
1/2+x,1/2-y,z
loop_
_atom_site_type_symbol
_atom_site_label
_atom_site_fract_x
_atom_site_fract_y
_atom_site_fract_z
Si Si1 0.071577 0.663300 0.605649
Si Si2 0.426984 0.500000 0.743918
Si Si3 0.071896 0.857110 0.602257
Si Si4 0.823320 0.000000 0.108567
Si Si5 0.882156 0.402523 0.211170
Si Si6 0.767548 0.348180 0.894548
Si Si7 0.000000 0.601647 0.105732
O O1 0.090018 0.638150 0.500000
O O2 0.089667 0.760664 0.627133
O O3 0.109593 0.605479 0.677253
O O4 0.000000 0.647191 0.620690
O O5 0.500000 0.500000 0.765703
O O6 0.405024 0.581567 0.684025
O O7 0.388299 0.500000 0.838714
O O8 0.099583 0.881872 0.500000
O O9 0.000000 0.866123 0.593968
O O10 0.785897 0.085920 0.135174
O O11 0.840287 0.000000 0.000000
O O12 0.874442 0.500000 0.182513
O O13 0.822477 0.354218 0.177936
O O14 0.940609 0.361965 0.158477
O O15 0.750000 0.250000 0.889820
O O16 0.788635 0.372113 0.000000
O O17 0.000000 0.500000 0.109823
O O18 0.000000 0.635856 0.000000
#
# Coordination Sequence:
#
# PCOD8268328 Si02
#       7
#    16   8  16   8  16  16   8
#     4   9  18  32  50  77 115 150 180 219 267 326
#     4  10  19  31  56  85 110 141 176 225 278 326
#     4   8  15  29  50  78 109 140 175 217 265 319
#     4  10  22  40  57  81 112 144 187 226 268 332
#     4  11  20  33  55  81 109 143 180 223 273 323
#     4  10  22  40  61  79 102 145 192 231 271 326
#     4   9  18  30  49  81 113 134 164 221 282 323
#
# _framework density 17.903428000000002
#
# number of rings (size 3 to 8) (size 9 to 14) (size 15 to 20)
#    0.000    2.455    1.818    1.909    2.545    2.364 
#    0.000    0.909    0.000    2.727    0.000    0.000 
#    0.000    0.000    0.000    0.000    0.000    0.000 
#
# Total GULP energy -545437.144655 kJ/mol
# GULP energy per Si atom -12396.298742 kJ/mol
# Density = 1.786268 g / cm^3
# Si number density = 17.903428 Si / 1000 Ang^3
#
#
#
# Elastic Constant Matrix: (Units=GPa)
#
#
# Indices 1 2 3 4 5 6 
#
# 1 82.1057 25.2644 57.1565 0.0000 0.0000 0.0000
# 2 25.2644 63.6300 23.8844 0.0000 0.0000 0.0000
# 3 57.1565 23.8844 114.0834 0.0000 0.0000 0.0000
# 4 0.0000 0.0000 0.0000 25.1986 0.0000 0.0000
# 5 0.0000 0.0000 0.0000 0.0000 27.8432 0.0000
# 6 0.0000 0.0000 0.0000 0.0000 0.0000 16.8799
#
#
#
# Elastic Compliance Matrix: (Units=1/GPa)
#
#
# Indices 1 2 3 4 5 6 
#
# 1 0.019820 -0.004496 -0.008989 0.000000 0.000000 0.000000
# 2 -0.004496 0.018076 -0.001532 0.000000 0.000000 0.000000
# 3 -0.008989 -0.001532 0.013590 0.000000 0.000000 0.000000
# 4 0.000000 0.000000 0.000000 0.039685 0.000000 0.000000
# 5 0.000000 0.000000 0.000000 0.000000 0.035915 0.000000
# 6 0.000000 0.000000 0.000000 0.000000 0.000000 0.059242
#
#
# Mechanical properties :
#
#
# Convention : Reuss Voigt Hill
#
# Bulk Modulus (GPa) = 46.61374 52.49220 49.55297
# Shear Modulus (GPa) = 22.37016 24.21858 23.29437
#
# Velocity S-wave (km/s) = 3.53865 3.68194 3.61101
# Velocity P-wave (km/s) = 6.54131 6.88904 6.71743
#
# Compressibility (1/GPa) = 0.02145290
#
# Stress axis : x y z
#
# Youngs Moduli (GPa) = 50.45368 55.32222 73.58505
#
# Poissons Ratio (x) = 0.24870 0.66144
# Poissons Ratio (y) = 0.22682 0.11274
# Poissons Ratio (z) = 0.45352 0.08476
#
# Static dielectric constant tensor:
#      x y z
#    x 2.964880 0.000000 0.000000 
#    y 0.000000 3.432180 0.000000 
#    z 0.000000 0.000000 3.657840 
# 
# 
# High freq. dielectric constant tensor:
#      x y z
#    x 1.655840 0.000000 0.000000 
#    y 0.000000 1.689760 0.000000 
#    z 0.000000 0.000000 1.699030 
# 
# From -- ./inp_files/42548.got.cif
#   From: 2010.03.12/outbox.cif.g09.slc.cpg/sg65_22_cif.got.tgz:42548.got - 2010.04.10 20:52:16.
