data_PCOD8268654
_publ_section_title
;
Structure prediction by ZEFSAII (Michael W. Deem and Ramdas Pophale) SiO2 
 PCOD8268654
Probable space group: C M M M
;
_chemical_formula_sum "Si O2"
_cell_formula_units_Z 96
_cell_length_a 25.448021
_cell_length_b 23.356570
_cell_length_c 8.966715
_cell_angle_alpha 90.000000
_cell_angle_beta 90.000000
_cell_angle_gamma 90.000000
_cell_volume 5329.622467
_symmetry_space_group_name_H-M "C M M M"
_symmetry_group_IT_number 65
_symmetry_cell_setting 'orthorhombic'
loop_
_space_group_symop_operation_xyz
x,y,z
-x,-y,z
x,-y,-z
-x,y,-z
-x,-y,-z
x,y,-z
-x,y,z
x,-y,z
1/2+x,1/2+y,z
1/2-x,1/2-y,z
1/2+x,1/2-y,-z
1/2-x,1/2+y,-z
1/2-x,1/2-y,-z
1/2+x,1/2+y,-z
1/2-x,1/2+y,z
1/2+x,1/2-y,z
loop_
_atom_site_type_symbol
_atom_site_label
_atom_site_fract_x
_atom_site_fract_y
_atom_site_fract_z
Si Si1 0.154690 0.135447 0.323768
Si Si2 0.310395 0.758894 0.674529
Si Si3 0.245945 0.433827 0.672200
Si Si4 0.347450 0.126696 0.824127
Si Si5 0.439469 0.934365 0.327645
Si Si6 0.558089 0.435530 0.677480
O O1 0.154904 0.126736 0.500000
O O2 0.157126 0.202107 0.281378
O O3 0.205804 0.102720 0.260594
O O4 0.101591 0.107790 0.255318
O O5 0.314667 0.772936 0.500000
O O6 0.250000 0.750000 0.720367
O O7 0.335468 0.810142 0.765651
O O8 0.235599 0.417844 0.500000
O O9 0.260123 0.500000 0.691471
O O10 0.193826 0.419312 0.762790
O O11 0.405255 0.107983 0.772725
O O12 0.344864 0.127291 0.000000
O O13 0.424494 0.925322 0.500000
O O14 0.500000 0.918541 0.299697
O O15 0.428699 0.000000 0.281590
O O16 0.558830 0.433278 0.500000
O O17 0.500000 0.417460 0.735154
O O18 0.571265 0.500000 0.730750
#
# Coordination Sequence:
#
# PCOD8268654 Si02
#       6
#    16  16  16  16  16  16
#     4   9  16  28  47  70  95 130 174 217 258 305
#     4  10  19  35  55  72  98 138 185 228 263 304
#     4  10  19  32  52  76 102 133 173 219 264 314
#     4  12  24  35  51  77 111 143 175 214 265 328
#     4   9  19  38  63  86 107 136 177 222 266 316
#     4   8  13  22  39  67 102 131 154 192 252 312
#
# _framework density 18.012533000000001
#
# number of rings (size 3 to 8) (size 9 to 14) (size 15 to 20)
#    0.000    2.333    1.667    3.500    0.000    5.333 
#    0.000    1.667    0.000    3.000    0.000    0.000 
#    0.000    0.667    0.000    9.167    0.000    8.333 
#
# Total GULP energy -595186.490590 kJ/mol
# GULP energy per Si atom -12399.718554 kJ/mol
# Density = 1.797154 g / cm^3
# Si number density = 18.012533 Si / 1000 Ang^3
#
#
#
# Elastic Constant Matrix: (Units=GPa)
#
#
# Indices 1 2 3 4 5 6 
#
# 1 122.2033 61.8988 41.6383 0.0000 0.0000 0.0000
# 2 61.8988 105.7378 44.9729 0.0000 0.0000 0.0000
# 3 41.6383 44.9729 63.3894 0.0000 0.0000 0.0000
# 4 0.0000 0.0000 0.0000 2.3242 0.0000 0.0000
# 5 0.0000 0.0000 0.0000 0.0000 5.2339 0.0000
# 6 0.0000 0.0000 0.0000 0.0000 0.0000 32.0180
#
#
#
# Elastic Compliance Matrix: (Units=1/GPa)
#
#
# Indices 1 2 3 4 5 6 
#
# 1 0.012396 -0.005433 -0.004288 0.000000 0.000000 0.000000
# 2 -0.005433 0.015925 -0.007730 0.000000 0.000000 0.000000
# 3 -0.004288 -0.007730 0.024076 0.000000 0.000000 0.000000
# 4 0.000000 0.000000 0.000000 0.430249 0.000000 0.000000
# 5 0.000000 0.000000 0.000000 0.000000 0.191061 0.000000
# 6 0.000000 0.000000 0.000000 0.000000 0.000000 0.031232
#
#
# Mechanical properties :
#
#
# Convention : Reuss Voigt Hill
#
# Bulk Modulus (GPa) = 57.15568 65.37227 61.26397
# Shear Modulus (GPa) = 6.70534 17.43661 12.07097
#
# Velocity S-wave (km/s) = 1.93150 3.11469 2.59152
# Velocity P-wave (km/s) = 6.06417 7.02186 6.56051
#
# Compressibility (1/GPa) = 0.01749607
#
# Stress axis : x y z
#
# Youngs Moduli (GPa) = 80.67118 62.79252 41.53434
#
# Poissons Ratio (x) = 0.34114 0.17810
# Poissons Ratio (y) = 0.43827 0.32106
# Poissons Ratio (z) = 0.34593 0.48539
#
# Static dielectric constant tensor:
#      x y z
#    x 3.575710 0.000000 0.000000 
#    y 0.000000 3.416670 0.000000 
#    z 0.000000 0.000000 2.893120 
# 
# 
# High freq. dielectric constant tensor:
#      x y z
#    x 1.704280 0.000000 0.000000 
#    y 0.000000 1.701590 0.000000 
#    z 0.000000 0.000000 1.648790 
# 
# From -- ./inp_files/16651.got.cif
#   From: 2010.03.12/outbox.cif.g09.slc.cpg/sg65_9_cif.got.tgz:16651.got - 2010.04.10 20:52:16.
