data_PCOD8268207
_publ_section_title
;
Structure prediction by ZEFSAII (Michael W. Deem and Ramdas Pophale) SiO2 
 PCOD8268207
Probable space group: C M M M
;
_chemical_formula_sum "Si O2"
_cell_formula_units_Z 88
_cell_length_a 13.551396
_cell_length_b 24.862446
_cell_length_c 12.867721
_cell_angle_alpha 90.000000
_cell_angle_beta 90.000000
_cell_angle_gamma 90.000000
_cell_volume 4335.403513
_symmetry_space_group_name_H-M "C M M M"
_symmetry_group_IT_number 65
_symmetry_cell_setting 'orthorhombic'
loop_
_space_group_symop_operation_xyz
x,y,z
-x,-y,z
x,-y,-z
-x,y,-z
-x,-y,-z
x,y,-z
-x,y,z
x,-y,z
1/2+x,1/2+y,z
1/2-x,1/2-y,z
1/2+x,1/2-y,-z
1/2-x,1/2+y,-z
1/2-x,1/2-y,-z
1/2+x,1/2+y,-z
1/2-x,1/2+y,z
1/2+x,1/2-y,z
loop_
_atom_site_type_symbol
_atom_site_label
_atom_site_fract_x
_atom_site_fract_y
_atom_site_fract_z
Si Si1 0.383901 0.603706 0.616575
Si Si2 0.114213 0.500000 0.876814
Si Si3 0.609398 0.281430 0.326157
Si Si4 0.683786 0.302732 0.114203
Si Si5 0.272851 0.902456 0.226247
Si Si6 0.884280 0.332554 0.617011
O O1 0.365382 0.580659 0.500000
O O2 0.500000 0.600280 0.644650
O O3 0.342485 0.665742 0.620026
O O4 0.321458 0.573754 0.707204
O O5 0.172092 0.448492 0.835786
O O6 0.000000 0.500000 0.839126
O O7 0.118852 0.500000 0.000000
O O8 0.500000 0.277324 0.372663
O O9 0.602283 0.291718 0.202126
O O10 0.665634 0.225502 0.352639
O O11 0.750000 0.250000 0.110022
O O12 0.744702 0.356277 0.143951
O O13 0.635802 0.311978 0.000000
O O14 0.348633 0.879896 0.310220
O O15 0.856740 0.348105 0.500000
O O16 0.000000 0.326857 0.634380
#
# Coordination Sequence:
#
# PCOD8268207 Si02
#       6
#    16   8  16  16  16  16
#     4   9  18  33  56  88 124 159 194 234 288 355
#     4  11  26  48  70  89 112 150 202 253 296 346
#     4   9  17  30  48  76 116 157 194 235 286 351
#     4  10  19  32  50  78 112 145 186 240 300 353
#     4  11  21  38  61  84 114 156 198 249 298 351
#     4  10  19  31  50  80 116 153 195 240 290 352
#
# _framework density 20.297995
#
# number of rings (size 3 to 8) (size 9 to 14) (size 15 to 20)
#    0.000    2.091    1.818    2.182    0.000    2.545 
#    0.000    5.000    0.000    6.545    0.000    0.000 
#    0.000    0.000    0.000    0.000    0.000    0.000 
#
# Total GULP energy -545230.527345 kJ/mol
# GULP energy per Si atom -12391.602894 kJ/mol
# Density = 2.025180 g / cm^3
# Si number density = 20.297995 Si / 1000 Ang^3
#
#
#
# Elastic Constant Matrix: (Units=GPa)
#
#
# Indices 1 2 3 4 5 6 
#
# 1 53.7994 31.6369 30.5899 0.0000 0.0000 0.0000
# 2 31.6369 81.0113 22.9966 0.0000 0.0000 0.0000
# 3 30.5899 22.9966 111.3471 0.0000 0.0000 0.0000
# 4 0.0000 0.0000 0.0000 26.7601 0.0000 0.0000
# 5 0.0000 0.0000 0.0000 0.0000 29.8123 0.0000
# 6 0.0000 0.0000 0.0000 0.0000 0.0000 20.3730
#
#
#
# Elastic Compliance Matrix: (Units=1/GPa)
#
#
# Indices 1 2 3 4 5 6 
#
# 1 0.027035 -0.008976 -0.005573 0.000000 0.000000 0.000000
# 2 -0.008976 0.016093 -0.000858 0.000000 0.000000 0.000000
# 3 -0.005573 -0.000858 0.010689 0.000000 0.000000 0.000000
# 4 0.000000 0.000000 0.000000 0.037369 0.000000 0.000000
# 5 0.000000 0.000000 0.000000 0.000000 0.033543 0.000000
# 6 0.000000 0.000000 0.000000 0.000000 0.000000 0.049085
#
#
# Mechanical properties :
#
#
# Convention : Reuss Voigt Hill
#
# Bulk Modulus (GPa) = 43.47255 46.28938 44.88097
# Shear Modulus (GPa) = 23.55216 26.11804 24.83510
#
# Velocity S-wave (km/s) = 3.41004 3.59099 3.50169
# Velocity P-wave (km/s) = 6.08015 6.32835 6.20549
#
# Compressibility (1/GPa) = 0.02300302
#
# Stress axis : x y z
#
# Youngs Moduli (GPa) = 36.98949 62.14013 93.55205
#
# Poissons Ratio (x) = 0.55775 0.52140
# Poissons Ratio (y) = 0.33200 0.08025
# Poissons Ratio (z) = 0.20616 0.05330
#
# Static dielectric constant tensor:
#      x y z
#    x 3.685550 0.000000 0.000000 
#    y 0.000000 3.431630 0.000000 
#    z 0.000000 0.000000 3.971650 
# 
# 
# High freq. dielectric constant tensor:
#      x y z
#    x 1.793290 0.000000 0.000000 
#    y 0.000000 1.763850 0.000000 
#    z 0.000000 0.000000 1.800900 
# 
# From -- ./inp_files/24833.got.cif
#   From: 2010.03.12/outbox.cif.g09.slc.cpg/sg65_13_cif.got.tgz:24833.got - 2010.04.10 20:52:16.
