data_PCOD8268226
_publ_section_title
;
Structure prediction by ZEFSAII (Michael W. Deem and Ramdas Pophale) SiO2 
 PCOD8268226
Probable space group: C M M M
;
_chemical_formula_sum "Si O2"
_cell_formula_units_Z 96
_cell_length_a 20.531760
_cell_length_b 27.971534
_cell_length_c 8.765419
_cell_angle_alpha 90.000000
_cell_angle_beta 90.000000
_cell_angle_gamma 90.000000
_cell_volume 5034.022407
_symmetry_space_group_name_H-M "C M M M"
_symmetry_group_IT_number 65
_symmetry_cell_setting 'orthorhombic'
loop_
_space_group_symop_operation_xyz
x,y,z
-x,-y,z
x,-y,-z
-x,y,-z
-x,-y,-z
x,y,-z
-x,y,z
x,-y,z
1/2+x,1/2+y,z
1/2-x,1/2-y,z
1/2+x,1/2-y,-z
1/2-x,1/2+y,-z
1/2-x,1/2-y,-z
1/2+x,1/2+y,-z
1/2-x,1/2+y,z
1/2+x,1/2-y,z
loop_
_atom_site_type_symbol
_atom_site_label
_atom_site_fract_x
_atom_site_fract_y
_atom_site_fract_z
Si Si1 0.307984 0.613941 0.681483
Si Si2 0.071745 0.286196 0.318540
Si Si3 0.812485 0.221726 0.681979
Si Si4 0.575257 0.105809 0.677461
Si Si5 0.808035 0.445192 0.821392
Si Si6 0.071878 0.053632 0.681389
O O1 0.308386 0.613714 0.500000
O O2 0.309625 0.667879 0.745115
O O3 0.243256 0.587797 0.734985
O O4 0.372202 0.587827 0.748555
O O5 0.070801 0.284582 0.500000
O O6 0.123565 0.248402 0.252441
O O7 0.090276 0.339976 0.268527
O O8 0.000000 0.272528 0.255694
O O9 0.813720 0.221848 0.500000
O O10 0.750000 0.250000 0.743925
O O11 0.592413 0.099611 0.500000
O O12 0.500000 0.093005 0.708128
O O13 0.619210 0.069995 0.774991
O O14 0.796866 0.500000 0.772488
O O15 0.798684 0.438343 0.000000
O O16 0.074660 0.053908 0.500000
O O17 0.000000 0.071155 0.735222
O O18 0.084689 0.000000 0.741941
#
# Coordination Sequence:
#
# PCOD8268226 Si02
#       6
#    16  16  16  16  16  16
#     4  10  19  31  51  75  98 130 170 207 243 290
#     4   8  14  26  46  74 106 133 157 193 243 295
#     4   9  16  25  41  68  99 127 156 194 238 281
#     4   9  18  34  57  81 102 129 167 206 244 294
#     4  11  24  38  51  70  99 134 169 209 259 308
#     4   8  14  25  42  67  97 122 148 192 246 289
#
# _framework density 19.070238
#
# number of rings (size 3 to 8) (size 9 to 14) (size 15 to 20)
#    0.000    2.833    0.000    3.500    0.000    6.000 
#    0.000    5.000    0.000    5.000    0.000    2.333 
#    0.000    0.000    0.000    0.000    0.000    0.000 
#
# Total GULP energy -595067.547102 kJ/mol
# GULP energy per Si atom -12397.240565 kJ/mol
# Density = 1.902683 g / cm^3
# Si number density = 19.070238 Si / 1000 Ang^3
#
#
#
# Elastic Constant Matrix: (Units=GPa)
#
#
# Indices 1 2 3 4 5 6 
#
# 1 134.5378 73.8097 12.9400 0.0000 0.0000 0.0000
# 2 73.8097 127.9625 17.8356 0.0000 0.0000 0.0000
# 3 12.9400 17.8356 12.2270 0.0000 0.0000 0.0000
# 4 0.0000 0.0000 0.0000 8.4274 0.0000 0.0000
# 5 0.0000 0.0000 0.0000 0.0000 5.1474 0.0000
# 6 0.0000 0.0000 0.0000 0.0000 0.0000 44.0485
#
#
#
# Elastic Compliance Matrix: (Units=1/GPa)
#
#
# Indices 1 2 3 4 5 6 
#
# 1 0.010960 -0.005906 -0.002984 0.000000 0.000000 0.000000
# 2 -0.005906 0.012992 -0.012701 0.000000 0.000000 0.000000
# 3 -0.002984 -0.012701 0.103471 0.000000 0.000000 0.000000
# 4 0.000000 0.000000 0.000000 0.118661 0.000000 0.000000
# 5 0.000000 0.000000 0.000000 0.000000 0.194274 0.000000
# 6 0.000000 0.000000 0.000000 0.000000 0.000000 0.022702
#
#
# Mechanical properties :
#
#
# Convention : Reuss Voigt Hill
#
# Bulk Modulus (GPa) = 11.87072 53.76644 32.81858
# Shear Modulus (GPa) = 9.35768 22.86746 16.11257
#
# Velocity S-wave (km/s) = 2.21757 3.46658 2.90988
# Velocity P-wave (km/s) = 3.57702 6.65418 5.34196
#
# Compressibility (1/GPa) = 0.08424086
#
# Stress axis : x y z
#
# Youngs Moduli (GPa) = 91.24164 76.97307 9.66458
#
# Poissons Ratio (x) = 0.45459 0.02884
# Poissons Ratio (y) = 0.53886 0.12275
# Poissons Ratio (z) = 0.27227 0.97761
#
# Static dielectric constant tensor:
#      x y z
#    x 3.819830 0.000000 0.000000 
#    y 0.000000 3.707460 0.000000 
#    z 0.000000 0.000000 2.842660 
# 
# 
# High freq. dielectric constant tensor:
#      x y z
#    x 1.759340 0.000000 0.000000 
#    y 0.000000 1.746380 0.000000 
#    z 0.000000 0.000000 1.675910 
# 
# From -- ./inp_files/12327.got.cif
#   From: 2010.03.12/outbox.cif.g09.slc.cpg/sg65_7_cif.got.tgz:12327.got - 2010.04.10 20:52:16.
