data_PCOD8268353
_publ_section_title
;
Structure prediction by ZEFSAII (Michael W. Deem and Ramdas Pophale) SiO2 
 PCOD8268353
Probable space group: C M M M
;
_chemical_formula_sum "Si O2"
_cell_formula_units_Z 104
_cell_length_a 19.017664
_cell_length_b 21.824287
_cell_length_c 14.420342
_cell_angle_alpha 90.000000
_cell_angle_beta 90.000000
_cell_angle_gamma 90.000000
_cell_volume 5985.119069
_symmetry_space_group_name_H-M "C M M M"
_symmetry_group_IT_number 65
_symmetry_cell_setting 'orthorhombic'
loop_
_space_group_symop_operation_xyz
x,y,z
-x,-y,z
x,-y,-z
-x,y,-z
-x,-y,-z
x,y,-z
-x,y,z
x,-y,z
1/2+x,1/2+y,z
1/2-x,1/2-y,z
1/2+x,1/2-y,-z
1/2-x,1/2+y,-z
1/2-x,1/2-y,-z
1/2+x,1/2+y,-z
1/2-x,1/2+y,z
1/2+x,1/2-y,z
loop_
_atom_site_type_symbol
_atom_site_label
_atom_site_fract_x
_atom_site_fract_y
_atom_site_fract_z
Si Si1 0.183349 0.428328 0.102405
Si Si2 0.173798 0.380999 0.390939
Si Si3 0.576044 0.929701 0.248258
Si Si4 0.582987 0.567614 0.500000
Si Si5 0.420683 0.234896 0.394213
Si Si6 0.209459 0.927578 0.257031
Si Si7 0.080764 0.135233 0.683311
O O1 0.169521 0.500000 0.091803
O O2 0.120730 0.398765 0.164616
O O3 0.255660 0.417262 0.156892
O O4 0.185982 0.397653 0.000000
O O5 0.183086 0.394486 0.500000
O O6 0.116434 0.426498 0.346423
O O7 0.140991 0.313473 0.373051
O O8 0.247490 0.391790 0.338293
O O9 0.500000 0.896921 0.254006
O O10 0.565739 0.000000 0.224300
O O11 0.617409 0.500000 0.500000
O O12 0.500000 0.562646 0.500000
O O13 0.608003 0.604024 0.589287
O O14 0.414455 0.258390 0.500000
O O15 0.500000 0.207885 0.379177
O O16 0.409402 0.291902 0.325182
O O17 0.133405 0.895361 0.242526
O O18 0.204291 0.000000 0.281163
O O19 0.000000 0.118672 0.707853
#
# Coordination Sequence:
#
# PCOD8268353 Si02
#       7
#    16  16  16   8  16  16  16
#     4   8  15  30  49  67  91 121 150 188 242 292
#     4  10  20  31  44  64  95 135 167 190 227 275
#     4   9  17  28  43  68  97 122 159 203 235 278
#     4   9  16  26  42  63  88 120 150 181 232 283
#     4   9  17  31  48  65  89 125 169 207 231 263
#     4  10  21  33  47  71  98 124 158 197 236 291
#     4  10  19  32  48  68  93 121 158 203 243 277
#
# _framework density 17.376429999999999
#
# number of rings (size 3 to 8) (size 9 to 14) (size 15 to 20)
#    0.000    2.692    0.769    2.308    1.077    4.000 
#    0.000    3.846    0.000    0.462    0.000   10.769 
#    0.000    4.923    0.000    0.000    0.000    0.000 
#
# Total GULP energy -644239.256880 kJ/mol
# GULP energy per Si atom -12389.216478 kJ/mol
# Density = 1.733688 g / cm^3
# Si number density = 17.376430 Si / 1000 Ang^3
#
#
#
# Elastic Constant Matrix: (Units=GPa)
#
#
# Indices 1 2 3 4 5 6 
#
# 1 115.4827 33.8130 37.2356 0.0000 0.0000 0.0000
# 2 33.8130 58.6817 17.6226 0.0000 0.0000 0.0000
# 3 37.2356 17.6226 89.4487 0.0000 0.0000 0.0000
# 4 0.0000 0.0000 0.0000 8.1643 0.0000 0.0000
# 5 0.0000 0.0000 0.0000 0.0000 13.6939 0.0000
# 6 0.0000 0.0000 0.0000 0.0000 0.0000 26.9184
#
#
#
# Elastic Compliance Matrix: (Units=1/GPa)
#
#
# Indices 1 2 3 4 5 6 
#
# 1 0.011457 -0.005494 -0.003687 0.000000 0.000000 0.000000
# 2 -0.005494 0.020748 -0.001800 0.000000 0.000000 0.000000
# 3 -0.003687 -0.001800 0.013069 0.000000 0.000000 0.000000
# 4 0.000000 0.000000 0.000000 0.122484 0.000000 0.000000
# 5 0.000000 0.000000 0.000000 0.000000 0.073025 0.000000
# 6 0.000000 0.000000 0.000000 0.000000 0.000000 0.037149
#
#
# Mechanical properties :
#
#
# Convention : Reuss Voigt Hill
#
# Bulk Modulus (GPa) = 42.89919 48.99506 45.94712
# Shear Modulus (GPa) = 16.25143 21.41811 18.83477
#
# Velocity S-wave (km/s) = 3.06152 3.51464 3.29588
# Velocity P-wave (km/s) = 6.10237 6.68788 6.40182
#
# Compressibility (1/GPa) = 0.02331046
#
# Stress axis : x y z
#
# Youngs Moduli (GPa) = 87.28459 48.19827 76.51690
#
# Poissons Ratio (x) = 0.26482 0.28210
# Poissons Ratio (y) = 0.47957 0.13776
# Poissons Ratio (z) = 0.32180 0.08677
#
# Static dielectric constant tensor:
#      x y z
#    x 3.364510 0.000000 0.000000 
#    y 0.000000 3.044400 0.000000 
#    z 0.000000 0.000000 3.196500 
# 
# 
# High freq. dielectric constant tensor:
#      x y z
#    x 1.678770 0.000000 0.000000 
#    y 0.000000 1.646550 0.000000 
#    z 0.000000 0.000000 1.637050 
# 
# From -- ./inp_files/43068.got.cif
#   From: 2010.03.12/outbox.cif.g09.slc.cpg/sg65_22_cif.got.tgz:43068.got - 2010.04.10 20:52:16.
