data_PCOD8268516
_publ_section_title
;
Structure prediction by ZEFSAII (Michael W. Deem and Ramdas Pophale) SiO2 
 PCOD8268516
Probable space group: C M M M
;
_chemical_formula_sum "Si O2"
_cell_formula_units_Z 104
_cell_length_a 8.821477
_cell_length_b 26.216706
_cell_length_c 23.352973
_cell_angle_alpha 90.000000
_cell_angle_beta 90.000000
_cell_angle_gamma 90.000000
_cell_volume 5400.843677
_symmetry_space_group_name_H-M "C M M M"
_symmetry_group_IT_number 65
_symmetry_cell_setting 'orthorhombic'
loop_
_space_group_symop_operation_xyz
x,y,z
-x,-y,z
x,-y,-z
-x,y,-z
-x,-y,-z
x,y,-z
-x,y,z
x,-y,z
1/2+x,1/2+y,z
1/2-x,1/2-y,z
1/2+x,1/2-y,-z
1/2-x,1/2+y,-z
1/2-x,1/2-y,-z
1/2+x,1/2+y,-z
1/2-x,1/2+y,z
1/2+x,1/2-y,z
loop_
_atom_site_type_symbol
_atom_site_label
_atom_site_fract_x
_atom_site_fract_y
_atom_site_fract_z
Si Si1 0.179443 0.657483 0.268689
Si Si2 0.818821 0.109927 0.064326
Si Si3 0.676238 0.594927 0.563319
Si Si4 0.322777 0.699987 0.379610
Si Si5 0.675796 0.056024 0.326800
Si Si6 0.165980 0.000000 0.932056
Si Si7 0.180027 0.195431 0.152099
O O1 0.230609 0.692654 0.320868
O O2 0.233196 0.599277 0.282706
O O3 0.267131 0.676377 0.213492
O O4 0.000000 0.662126 0.258720
O O5 0.752869 0.053974 0.084980
O O6 0.759659 0.154472 0.105727
O O7 0.000000 0.106591 0.065344
O O8 0.762136 0.122453 0.000000
O O9 0.742526 0.583149 0.500000
O O10 0.500000 0.582759 0.564538
O O11 0.707608 0.654021 0.577016
O O12 0.750833 0.559163 0.610627
O O13 0.500000 0.706597 0.366193
O O14 0.250000 0.750000 0.408908
O O15 0.500000 0.064784 0.337100
O O16 0.711611 0.000000 0.300866
O O17 0.000000 0.000000 0.903208
O O18 0.148364 0.000000 0.000000
O O19 0.250000 0.250000 0.136415
O O20 0.000000 0.200210 0.151257
#
# Coordination Sequence:
#
# PCOD8268516 Si02
#       7
#    16  16  16  16  16   8  16
#     4  10  20  36  55  73  98 132 171 211 256 308
#     4   8  15  29  50  76 106 139 174 213 259 309
#     4   9  19  34  50  72 103 135 166 203 249 302
#     4  10  19  32  51  73  98 129 167 209 254 301
#     4   9  19  36  56  76  99 130 168 209 254 306
#     4   7  10  22  46  72  99 131 165 205 252 297
#     4  11  22  35  52  77 108 140 176 217 260 310
#
# _framework density 19.256250999999999
#
# number of rings (size 3 to 8) (size 9 to 14) (size 15 to 20)
#    0.000    2.692    0.000    2.769    0.000    2.769 
#    1.385    1.538    0.000    1.385    0.000    0.000 
#    0.000    7.385    0.000    0.000    0.000    0.000 
#
# Total GULP energy -644466.439890 kJ/mol
# GULP energy per Si atom -12393.585383 kJ/mol
# Density = 1.921242 g / cm^3
# Si number density = 19.256251 Si / 1000 Ang^3
#
#
#
# Elastic Constant Matrix: (Units=GPa)
#
#
# Indices 1 2 3 4 5 6 
#
# 1 38.7694 26.5462 9.0231 0.0000 0.0000 0.0000
# 2 26.5462 137.6863 35.6433 0.0000 0.0000 0.0000
# 3 9.0231 35.6433 62.7348 0.0000 0.0000 0.0000
# 4 0.0000 0.0000 0.0000 28.2679 0.0000 0.0000
# 5 0.0000 0.0000 0.0000 0.0000 8.6246 0.0000
# 6 0.0000 0.0000 0.0000 0.0000 0.0000 21.4087
#
#
#
# Elastic Compliance Matrix: (Units=1/GPa)
#
#
# Indices 1 2 3 4 5 6 
#
# 1 0.029793 -0.005434 -0.001198 0.000000 0.000000 0.000000
# 2 -0.005434 0.009506 -0.004620 0.000000 0.000000 0.000000
# 3 -0.001198 -0.004620 0.018737 0.000000 0.000000 0.000000
# 4 0.000000 0.000000 0.000000 0.035376 0.000000 0.000000
# 5 0.000000 0.000000 0.000000 0.000000 0.115947 0.000000
# 6 0.000000 0.000000 0.000000 0.000000 0.000000 0.046710
#
#
# Mechanical properties :
#
#
# Convention : Reuss Voigt Hill
#
# Bulk Modulus (GPa) = 28.14219 42.40176 35.27197
# Shear Modulus (GPa) = 17.21662 22.85876 20.03769
#
# Velocity S-wave (km/s) = 2.99336 3.44914 3.22930
# Velocity P-wave (km/s) = 5.15686 6.15871 5.67992
#
# Compressibility (1/GPa) = 0.03553383
#
# Stress axis : x y z
#
# Youngs Moduli (GPa) = 33.56473 105.19135 53.37025
#
# Poissons Ratio (x) = 0.57162 0.06392
# Poissons Ratio (y) = 0.18240 0.24655
# Poissons Ratio (z) = 0.04020 0.48594
#
# Static dielectric constant tensor:
#      x y z
#    x 3.275430 0.000000 0.000000 
#    y 0.000000 3.983700 0.000000 
#    z 0.000000 0.000000 3.458510 
# 
# 
# High freq. dielectric constant tensor:
#      x y z
#    x 1.724170 0.000000 0.000000 
#    y 0.000000 1.769110 0.000000 
#    z 0.000000 0.000000 1.729380 
# 
# From -- ./inp_files/68172.got.cif
#   From: 2010.03.12/outbox.cif.g09.slc.cpg/sg65_35_cif.got.tgz:68172.got - 2010.04.10 20:52:16.
