data_PCOD8268356
_publ_section_title
;
Structure prediction by ZEFSAII (Michael W. Deem and Ramdas Pophale) SiO2 
 PCOD8268356
Probable space group: C M M M
;
_chemical_formula_sum "Si O2"
_cell_formula_units_Z 88
_cell_length_a 20.009731
_cell_length_b 29.699824
_cell_length_c 9.050169
_cell_angle_alpha 90.000000
_cell_angle_beta 90.000000
_cell_angle_gamma 90.000000
_cell_volume 5378.384110
_symmetry_space_group_name_H-M "C M M M"
_symmetry_group_IT_number 65
_symmetry_cell_setting 'orthorhombic'
loop_
_space_group_symop_operation_xyz
x,y,z
-x,-y,z
x,-y,-z
-x,y,-z
-x,-y,-z
x,y,-z
-x,y,z
x,-y,z
1/2+x,1/2+y,z
1/2-x,1/2-y,z
1/2+x,1/2-y,-z
1/2-x,1/2+y,-z
1/2-x,1/2-y,-z
1/2+x,1/2+y,-z
1/2-x,1/2+y,z
1/2+x,1/2-y,z
loop_
_atom_site_type_symbol
_atom_site_label
_atom_site_fract_x
_atom_site_fract_y
_atom_site_fract_z
Si Si1 0.202026 0.372935 0.324303
Si Si2 0.927591 0.324435 0.672112
Si Si3 0.072622 0.768136 0.167224
Si Si4 0.283686 0.702427 0.171405
Si Si5 0.000000 0.553349 0.333107
Si Si6 0.635659 0.947412 0.172507
O O1 0.208069 0.378104 0.500000
O O2 0.132372 0.353000 0.261722
O O3 0.259425 0.339826 0.267241
O O4 0.199878 0.422120 0.246999
O O5 0.916210 0.320745 0.500000
O O6 0.923880 0.274224 0.728732
O O7 0.000000 0.346648 0.710585
O O8 0.136523 0.799165 0.201468
O O9 0.000000 0.792945 0.190514
O O10 0.078496 0.750388 0.000000
O O11 0.250000 0.750000 0.222713
O O12 0.266316 0.694372 0.000000
O O13 0.066952 0.569335 0.249739
O O14 0.000000 0.500000 0.340115
O O15 0.000000 0.573822 0.500000
O O16 0.647721 0.000000 0.199903
O O17 0.630940 0.936124 0.000000
#
# Coordination Sequence:
#
# PCOD8268356 Si02
#       6
#    16  16  16  16   8  16
#     4  11  22  32  48  70  93 126 163 202 246 292
#     4   9  18  30  42  61  90 122 157 197 237 278
#     4   9  17  30  48  67  89 123 163 198 234 279
#     4  10  19  32  48  68  97 128 159 199 242 285
#     4   9  17  31  51  71  93 123 159 203 251 291
#     4  10  21  36  51  68  92 123 162 205 247 291
#
# _framework density 16.361792000000001
#
# number of rings (size 3 to 8) (size 9 to 14) (size 15 to 20)
#    0.000    2.273    1.818    1.364    1.273    4.000 
#    0.000    0.000    0.000    0.000    0.000    0.000 
#    0.000    0.727    0.000    8.364    0.000    2.364 
#
# Total GULP energy -545262.357476 kJ/mol
# GULP energy per Si atom -12392.326306 kJ/mol
# Density = 1.632455 g / cm^3
# Si number density = 16.361792 Si / 1000 Ang^3
#
#
#
# Elastic Constant Matrix: (Units=GPa)
#
#
# Indices 1 2 3 4 5 6 
#
# 1 96.8320 37.2278 27.1597 0.0000 0.0000 0.0000
# 2 37.2278 53.1508 23.4452 0.0000 0.0000 0.0000
# 3 27.1597 23.4452 41.8431 0.0000 0.0000 0.0000
# 4 0.0000 0.0000 0.0000 23.1709 0.0000 0.0000
# 5 0.0000 0.0000 0.0000 0.0000 22.3383 0.0000
# 6 0.0000 0.0000 0.0000 0.0000 0.0000 25.4937
#
#
#
# Elastic Compliance Matrix: (Units=1/GPa)
#
#
# Indices 1 2 3 4 5 6 
#
# 1 0.014904 -0.008198 -0.005080 0.000000 0.000000 0.000000
# 2 -0.008198 0.029500 -0.011208 0.000000 0.000000 0.000000
# 3 -0.005080 -0.011208 0.033477 0.000000 0.000000 0.000000
# 4 0.000000 0.000000 0.000000 0.043158 0.000000 0.000000
# 5 0.000000 0.000000 0.000000 0.000000 0.044766 0.000000
# 6 0.000000 0.000000 0.000000 0.000000 0.000000 0.039225
#
#
# Mechanical properties :
#
#
# Convention : Reuss Voigt Hill
#
# Bulk Modulus (GPa) = 34.59307 40.83236 37.71272
# Shear Modulus (GPa) = 18.96530 21.13345 20.04937
#
# Velocity S-wave (km/s) = 3.40828 3.59783 3.50434
# Velocity P-wave (km/s) = 6.05615 6.50148 6.28276
#
# Compressibility (1/GPa) = 0.02890752
#
# Stress axis : x y z
#
# Youngs Moduli (GPa) = 67.09643 33.89782 29.87162
#
# Poissons Ratio (x) = 0.27789 0.15176
# Poissons Ratio (y) = 0.55005 0.33481
# Poissons Ratio (z) = 0.34088 0.37994
#
# Static dielectric constant tensor:
#      x y z
#    x 3.275630 0.000000 0.000000 
#    y 0.000000 2.979140 0.000000 
#    z 0.000000 0.000000 3.132370 
# 
# 
# High freq. dielectric constant tensor:
#      x y z
#    x 1.612670 0.000000 0.000000 
#    y 0.000000 1.604880 0.000000 
#    z 0.000000 0.000000 1.637610 
# 
# From -- ./inp_files/12649.got.cif
#   From: 2010.03.12/outbox.cif.g09.slc.cpg/sg65_7_cif.got.tgz:12649.got - 2010.04.10 20:52:16.
