data_PCOD8268254
_publ_section_title
;
Structure prediction by ZEFSAII (Michael W. Deem and Ramdas Pophale) SiO2 
 PCOD8268254
Probable space group: C M M M
;
_chemical_formula_sum "Si O2"
_cell_formula_units_Z 72
_cell_length_a 15.842926
_cell_length_b 8.750762
_cell_length_c 25.888227
_cell_angle_alpha 90.000000
_cell_angle_beta 90.000000
_cell_angle_gamma 90.000000
_cell_volume 3589.083596
_symmetry_space_group_name_H-M "C M M M"
_symmetry_group_IT_number 65
_symmetry_cell_setting 'orthorhombic'
loop_
_space_group_symop_operation_xyz
x,y,z
-x,-y,z
x,-y,-z
-x,y,-z
-x,-y,-z
x,y,-z
-x,y,z
x,-y,z
1/2+x,1/2+y,z
1/2-x,1/2-y,z
1/2+x,1/2-y,-z
1/2-x,1/2+y,-z
1/2-x,1/2-y,-z
1/2+x,1/2+y,-z
1/2-x,1/2+y,z
1/2+x,1/2-y,z
loop_
_atom_site_type_symbol
_atom_site_label
_atom_site_fract_x
_atom_site_fract_y
_atom_site_fract_z
Si Si1 0.000000 0.324707 0.266140
Si Si2 0.159315 0.182208 0.000000
Si Si3 0.337388 0.681074 0.785891
Si Si4 0.161957 0.820644 0.559793
Si Si5 0.407451 0.319131 0.892198
Si Si6 0.000000 0.674811 0.388176
O O1 0.083998 0.243265 0.246055
O O2 0.000000 0.500000 0.247821
O O3 0.000000 0.310463 0.327184
O O4 0.250000 0.250000 0.000000
O O5 0.115894 0.248444 0.948266
O O6 0.160246 0.000000 0.000000
O O7 0.335841 0.500000 0.779801
O O8 0.250000 0.750000 0.764224
O O9 0.345504 0.732435 0.846116
O O10 0.148423 0.778685 0.500000
O O11 0.250000 0.750000 0.580128
O O12 0.083905 0.754418 0.591112
O O13 0.165920 0.000000 0.569085
O O14 0.500000 0.258229 0.877246
O O15 0.407447 0.500000 0.896516
O O16 0.000000 0.500000 0.406649
#
# Coordination Sequence:
#
# PCOD8268254 Si02
#       6
#     8   8  16  16  16   8
#     4  11  25  44  62  86 117 154 203 254 303 354
#     4  10  19  31  51  77 111 146 182 228 280 346
#     4  11  22  39  63  88 116 152 196 245 299 360
#     4  10  21  38  62  93 128 165 204 244 290 348
#     4   9  17  32  55  82 109 144 189 233 284 349
#     4  11  24  40  61  88 121 159 202 252 303 354
#
# _framework density 20.060832000000001
#
# number of rings (size 3 to 8) (size 9 to 14) (size 15 to 20)
#    0.000    1.778    1.111    3.333    0.000    6.667 
#    0.000    1.111    0.000    0.667    0.000    0.000 
#    0.000    0.000    0.000    0.000    0.000    0.000 
#
# Total GULP energy -446355.079772 kJ/mol
# GULP energy per Si atom -12398.752216 kJ/mol
# Density = 2.001517 g / cm^3
# Si number density = 20.060832 Si / 1000 Ang^3
#
#
#
# Elastic Constant Matrix: (Units=GPa)
#
#
# Indices 1 2 3 4 5 6 
#
# 1 179.2675 56.1167 51.7087 0.0000 0.0000 0.0000
# 2 56.1167 87.1623 43.1926 0.0000 0.0000 0.0000
# 3 51.7087 43.1926 78.6384 0.0000 0.0000 0.0000
# 4 0.0000 0.0000 0.0000 24.3746 0.0000 0.0000
# 5 0.0000 0.0000 0.0000 0.0000 -88.1179 0.0000
# 6 0.0000 0.0000 0.0000 0.0000 0.0000 37.8869
#
#
#
# Elastic Compliance Matrix: (Units=1/GPa)
#
#
# Indices 1 2 3 4 5 6 
#
# 1 0.007510 -0.003281 -0.003136 0.000000 0.000000 0.000000
# 2 -0.003281 0.017197 -0.007288 0.000000 0.000000 0.000000
# 3 -0.003136 -0.007288 0.018782 0.000000 0.000000 0.000000
# 4 0.000000 0.000000 0.000000 0.041026 0.000000 0.000000
# 5 0.000000 0.000000 0.000000 0.000000 -0.011348 0.000000
# 6 0.000000 0.000000 0.000000 0.000000 0.000000 0.026394
#
#
# Mechanical properties :
#
#
# Convention : Reuss Voigt Hill
#
# Bulk Modulus (GPa) = 62.19636 71.90046 67.04841
# Shear Modulus (GPa) = 37.78443 7.76541 22.77492
#
# Velocity S-wave (km/s) = 4.34463 1.96960 3.37307
# Velocity P-wave (km/s) = 7.49926 6.41026 6.97605
#
# Compressibility (1/GPa) = 0.01607811
#
# Stress axis : x y z
#
# Youngs Moduli (GPa) = 133.15804 58.15067 53.24387
#
# Poissons Ratio (x) = 0.19079 0.16697
# Poissons Ratio (y) = 0.43689 0.38804
# Poissons Ratio (z) = 0.41759 0.42380
#
# Static dielectric constant tensor:
#      x y z
#    x 3.768900 0.000000 0.000000 
#    y 0.000000 3.552570 0.000000 
#    z 0.000000 0.000000 4.522330 
# 
# 
# High freq. dielectric constant tensor:
#      x y z
#    x 1.799900 0.000000 0.000000 
#    y 0.000000 1.770010 0.000000 
#    z 0.000000 0.000000 1.785940 
# 
# From -- ./inp_files/74674.got.cif
#   From: 2010.03.12/outbox.cif.g09.slc.cpg/sg65_38_cif.got.tgz:74674.got - 2010.04.10 20:52:16.
