data_PCOD8268702
_publ_section_title
;
Structure prediction by ZEFSAII (Michael W. Deem and Ramdas Pophale) SiO2 
 PCOD8268702
Probable space group: C M M M
;
_chemical_formula_sum "Si O2"
_cell_formula_units_Z 88
_cell_length_a 17.476843
_cell_length_b 17.845587
_cell_length_c 14.668526
_cell_angle_alpha 90.000000
_cell_angle_beta 90.000000
_cell_angle_gamma 90.000000
_cell_volume 4574.886224
_symmetry_space_group_name_H-M "C M M M"
_symmetry_group_IT_number 65
_symmetry_cell_setting 'orthorhombic'
loop_
_space_group_symop_operation_xyz
x,y,z
-x,-y,z
x,-y,-z
-x,y,-z
-x,-y,-z
x,y,-z
-x,y,z
x,-y,z
1/2+x,1/2+y,z
1/2-x,1/2-y,z
1/2+x,1/2-y,-z
1/2-x,1/2+y,-z
1/2-x,1/2-y,-z
1/2+x,1/2+y,-z
1/2-x,1/2+y,z
1/2+x,1/2-y,z
loop_
_atom_site_type_symbol
_atom_site_label
_atom_site_fract_x
_atom_site_fract_y
_atom_site_fract_z
Si Si1 0.088696 0.636084 0.723139
Si Si2 0.336292 0.717017 0.290691
Si Si3 0.829806 0.586069 0.897752
Si Si4 0.091279 0.500000 0.602567
Si Si5 0.587156 0.584987 0.607631
Si Si6 0.191467 0.182232 0.902934
O O1 0.106830 0.716635 0.678607
O O2 0.125040 0.634749 0.823739
O O3 0.122612 0.572801 0.655934
O O4 0.000000 0.622634 0.734869
O O5 0.250000 0.750000 0.299065
O O6 0.351719 0.643940 0.351683
O O7 0.359366 0.693001 0.187061
O O8 0.841703 0.500000 0.872763
O O9 0.740159 0.605794 0.891779
O O10 0.860993 0.603593 0.000000
O O11 0.125076 0.500000 0.500000
O O12 0.000000 0.500000 0.598248
O O13 0.593144 0.591398 0.500000
O O14 0.500000 0.603525 0.638938
O O15 0.608428 0.500000 0.638371
O O16 0.250000 0.250000 0.910114
O O17 0.144806 0.178695 0.000000
#
# Coordination Sequence:
#
# PCOD8268702 Si02
#       6
#    16  16  16   8  16  16
#     4  11  21  34  53  79 111 145 188 228 269 333
#     4  11  21  35  57  88 114 146 182 236 284 330
#     4  10  19  32  52  77 107 144 185 226 270 318
#     4   9  20  38  55  71 101 149 187 211 259 332
#     4   9  20  41  65  85 109 146 191 237 288 344
#     4   9  17  32  52  74 107 148 182 215 264 329
#
# _framework density 19.235451000000001
#
# number of rings (size 3 to 8) (size 9 to 14) (size 15 to 20)
#    0.000    2.091    4.545    1.091    0.000    2.182 
#    1.636    2.727    0.000    1.636    0.000    1.273 
#    0.000    0.000    0.000    0.000    0.000    0.000 
#
# Total GULP energy -545209.960076 kJ/mol
# GULP energy per Si atom -12391.135456 kJ/mol
# Density = 1.919167 g / cm^3
# Si number density = 19.235451 Si / 1000 Ang^3
#
#
#
# Elastic Constant Matrix: (Units=GPa)
#
#
# Indices 1 2 3 4 5 6 
#
# 1 36.7345 32.0599 26.8053 0.0000 0.0000 0.0000
# 2 32.0599 121.1262 54.4094 0.0000 0.0000 0.0000
# 3 26.8053 54.4094 104.0137 0.0000 0.0000 0.0000
# 4 0.0000 0.0000 0.0000 46.8000 0.0000 0.0000
# 5 0.0000 0.0000 0.0000 0.0000 20.5489 0.0000
# 6 0.0000 0.0000 0.0000 0.0000 0.0000 29.9915
#
#
#
# Elastic Compliance Matrix: (Units=1/GPa)
#
#
# Indices 1 2 3 4 5 6 
#
# 1 0.038001 -0.007397 -0.005924 0.000000 0.000000 0.000000
# 2 -0.007397 0.012232 -0.004492 0.000000 0.000000 0.000000
# 3 -0.005924 -0.004492 0.013490 0.000000 0.000000 0.000000
# 4 0.000000 0.000000 0.000000 0.021368 0.000000 0.000000
# 5 0.000000 0.000000 0.000000 0.000000 0.048665 0.000000
# 6 0.000000 0.000000 0.000000 0.000000 0.000000 0.033343
#
#
# Mechanical properties :
#
#
# Convention : Reuss Voigt Hill
#
# Bulk Modulus (GPa) = 35.59094 54.26927 44.93011
# Shear Modulus (GPa) = 23.57500 29.37472 26.47486
#
# Velocity S-wave (km/s) = 3.50466 3.91207 3.71395
# Velocity P-wave (km/s) = 5.90930 6.97711 6.46529
#
# Compressibility (1/GPa) = 0.02809704
#
# Stress axis : x y z
#
# Youngs Moduli (GPa) = 26.31522 81.75595 74.12651
#
# Poissons Ratio (x) = 0.60477 0.43910
# Poissons Ratio (y) = 0.19466 0.33297
# Poissons Ratio (z) = 0.15588 0.36724
#
# Static dielectric constant tensor:
#      x y z
#    x 3.137030 0.000000 0.000000 
#    y 0.000000 3.803400 0.000000 
#    z 0.000000 0.000000 3.814740 
# 
# 
# High freq. dielectric constant tensor:
#      x y z
#    x 1.695560 0.000000 0.000000 
#    y 0.000000 1.763330 0.000000 
#    z 0.000000 0.000000 1.754990 
# 
# From -- ./inp_files/42498.got.cif
#   From: 2010.03.12/outbox.cif.g09.slc.cpg/sg65_22_cif.got.tgz:42498.got - 2010.04.10 20:52:16.
