data_PCOD8268791
_publ_section_title
;
Structure prediction by ZEFSAII (Michael W. Deem and Ramdas Pophale) SiO2 
 PCOD8268791
Probable space group: C M M M
;
_chemical_formula_sum "Si O2"
_cell_formula_units_Z 88
_cell_length_a 23.007492
_cell_length_b 16.206799
_cell_length_c 12.842585
_cell_angle_alpha 90.000000
_cell_angle_beta 90.000000
_cell_angle_gamma 90.000000
_cell_volume 4788.714820
_symmetry_space_group_name_H-M "C M M M"
_symmetry_group_IT_number 65
_symmetry_cell_setting 'orthorhombic'
loop_
_space_group_symop_operation_xyz
x,y,z
-x,-y,z
x,-y,-z
-x,y,-z
-x,-y,-z
x,y,-z
-x,y,z
x,-y,z
1/2+x,1/2+y,z
1/2-x,1/2-y,z
1/2+x,1/2-y,-z
1/2-x,1/2+y,-z
1/2-x,1/2-y,-z
1/2+x,1/2+y,-z
1/2-x,1/2+y,z
1/2+x,1/2-y,z
loop_
_atom_site_type_symbol
_atom_site_label
_atom_site_fract_x
_atom_site_fract_y
_atom_site_fract_z
Si Si1 0.811828 0.211074 0.381242
Si Si2 0.714067 0.904802 0.884149
Si Si3 0.380018 0.159592 0.267819
Si Si4 0.565587 0.282588 0.881026
Si Si5 0.661417 0.404575 0.799051
Si Si6 0.568947 0.000000 0.620739
O O1 0.814617 0.182942 0.500000
O O2 0.750000 0.250000 0.352526
O O3 0.862078 0.278192 0.359651
O O4 0.823403 0.128822 0.315368
O O5 0.678048 0.855138 0.799107
O O6 0.782641 0.890372 0.871289
O O7 0.698068 0.000000 0.869458
O O8 0.697086 0.874526 0.000000
O O9 0.426423 0.201912 0.191128
O O10 0.406557 0.079105 0.319977
O O11 0.500000 0.314837 0.866347
O O12 0.607857 0.356647 0.849411
O O13 0.577316 0.256394 0.000000
O O14 0.644274 0.500000 0.790122
O O15 0.500000 0.000000 0.627948
O O16 0.589305 0.000000 0.500000
#
# Coordination Sequence:
#
# PCOD8268791 Si02
#       6
#    16  16  16  16  16   8
#     4  10  20  35  55  82 116 150 184 229 288 345
#     4  10  19  32  53  82 113 145 180 223 280 339
#     4  11  20  37  57  83 113 150 187 236 283 337
#     4  10  22  38  57  82 113 151 193 236 283 339
#     4  10  21  37  57  84 115 148 190 238 285 341
#     4  11  24  40  59  83 113 153 199 238 276 328
#
# _framework density 18.376538
#
# number of rings (size 3 to 8) (size 9 to 14) (size 15 to 20)
#    0.000    1.727    2.727    2.182    0.000    1.818 
#    0.000    3.636    0.000    7.091    0.000    5.091 
#    0.000    0.000    0.000    0.000    0.000    0.000 
#
# Total GULP energy -545650.786643 kJ/mol
# GULP energy per Si atom -12401.154242 kJ/mol
# Density = 1.833471 g / cm^3
# Si number density = 18.376538 Si / 1000 Ang^3
#
#
#
# Elastic Constant Matrix: (Units=GPa)
#
#
# Indices 1 2 3 4 5 6 
#
# 1 89.3361 37.1361 47.8242 0.0000 0.0000 0.0000
# 2 37.1361 98.7753 48.7936 0.0000 0.0000 0.0000
# 3 47.8242 48.7936 110.4821 0.0000 0.0000 0.0000
# 4 0.0000 0.0000 0.0000 21.2068 0.0000 0.0000
# 5 0.0000 0.0000 0.0000 0.0000 26.3833 0.0000
# 6 0.0000 0.0000 0.0000 0.0000 0.0000 28.3167
#
#
#
# Elastic Compliance Matrix: (Units=1/GPa)
#
#
# Indices 1 2 3 4 5 6 
#
# 1 0.015311 -0.003175 -0.005225 0.000000 0.000000 0.000000
# 2 -0.003175 0.013607 -0.004635 0.000000 0.000000 0.000000
# 3 -0.005225 -0.004635 0.013360 0.000000 0.000000 0.000000
# 4 0.000000 0.000000 0.000000 0.047155 0.000000 0.000000
# 5 0.000000 0.000000 0.000000 0.000000 0.037903 0.000000
# 6 0.000000 0.000000 0.000000 0.000000 0.000000 0.035315
#
#
# Mechanical properties :
#
#
# Convention : Reuss Voigt Hill
#
# Bulk Modulus (GPa) = 61.70093 62.90013 62.30053
# Shear Modulus (GPa) = 25.75669 26.17068 25.96369
#
# Velocity S-wave (km/s) = 3.74787 3.77787 3.76290
# Velocity P-wave (km/s) = 7.23723 7.30291 7.27014
#
# Compressibility (1/GPa) = 0.01620721
#
# Stress axis : x y z
#
# Youngs Moduli (GPa) = 65.31338 73.48909 74.84909
#
# Poissons Ratio (x) = 0.23334 0.39111
# Poissons Ratio (y) = 0.20738 0.34694
# Poissons Ratio (z) = 0.34128 0.34064
#
# Static dielectric constant tensor:
#      x y z
#    x 3.353310 0.000000 0.000000 
#    y 0.000000 3.330430 0.000000 
#    z 0.000000 0.000000 3.440950 
# 
# 
# High freq. dielectric constant tensor:
#      x y z
#    x 1.710720 0.000000 0.000000 
#    y 0.000000 1.710870 0.000000 
#    z 0.000000 0.000000 1.722610 
# 
# From -- ./inp_files/24798.got.cif
#   From: 2010.03.12/outbox.cif.g09.slc.cpg/sg65_13_cif.got.tgz:24798.got - 2010.04.10 20:52:16.
