data_PCOD8268687
_publ_section_title
;
Structure prediction by ZEFSAII (Michael W. Deem and Ramdas Pophale) SiO2 
 PCOD8268687
Probable space group: C M M M
;
_chemical_formula_sum "Si O2"
_cell_formula_units_Z 80
_cell_length_a 25.957625
_cell_length_b 8.764693
_cell_length_c 19.352952
_cell_angle_alpha 90.000000
_cell_angle_beta 90.000000
_cell_angle_gamma 90.000000
_cell_volume 4403.001995
_symmetry_space_group_name_H-M "C M M M"
_symmetry_group_IT_number 65
_symmetry_cell_setting 'orthorhombic'
loop_
_space_group_symop_operation_xyz
x,y,z
-x,-y,z
x,-y,-z
-x,y,-z
-x,-y,-z
x,y,-z
-x,y,z
x,-y,z
1/2+x,1/2+y,z
1/2-x,1/2-y,z
1/2+x,1/2-y,-z
1/2-x,1/2+y,-z
1/2-x,1/2-y,-z
1/2+x,1/2+y,-z
1/2-x,1/2+y,z
1/2+x,1/2-y,z
loop_
_atom_site_type_symbol
_atom_site_label
_atom_site_fract_x
_atom_site_fract_y
_atom_site_fract_z
Si Si1 0.803627 0.176020 0.081032
Si Si2 0.000000 0.668839 0.671244
Si Si3 0.894158 0.180812 0.322216
Si Si4 0.302975 0.679838 0.421671
Si Si5 0.390017 0.182568 0.826301
Si Si6 0.500000 0.166245 0.834794
O O1 0.750000 0.250000 0.103997
O O2 0.848098 0.267017 0.119067
O O3 0.803904 0.000000 0.103401
O O4 0.812822 0.195985 0.000000
O O5 0.051306 0.759045 0.648563
O O6 0.000000 0.500000 0.637233
O O7 0.000000 0.651271 0.752755
O O8 0.850545 0.236088 0.375453
O O9 0.878008 0.249015 0.248427
O O10 0.897280 0.000000 0.315664
O O11 0.312756 0.736200 0.500000
O O12 0.297589 0.500000 0.418042
O O13 0.250000 0.750000 0.392360
O O14 0.445811 0.247440 0.854369
O O15 0.392113 0.000000 0.819999
O O16 0.500000 0.000000 0.870028
#
# Coordination Sequence:
#
# PCOD8268687 Si02
#       6
#    16   8  16  16  16   8
#     4  10  21  37  55  75 101 134 172 213 258 306
#     4   9  17  31  50  73 102 134 169 208 254 304
#     4  10  19  32  52  77 104 134 170 211 255 302
#     4   9  19  35  53  73  99 133 171 210 255 306
#     4  10  19  33  54  78 105 135 169 209 252 301
#     4   7  14  29  48  71  98 130 163 197 240 289
#
# _framework density 18.169421
#
# number of rings (size 3 to 8) (size 9 to 14) (size 15 to 20)
#    0.000    2.600    0.000    3.300    0.000    3.600 
#    0.000    4.500    0.000    6.000    0.000    0.000 
#    0.000    0.000    0.000    0.000    0.000    0.000 
#
# Total GULP energy -495804.618355 kJ/mol
# GULP energy per Si atom -12395.115459 kJ/mol
# Density = 1.812807 g / cm^3
# Si number density = 18.169421 Si / 1000 Ang^3
#
#
#
# Elastic Constant Matrix: (Units=GPa)
#
#
# Indices 1 2 3 4 5 6 
#
# 1 186.4138 52.6151 63.7262 0.0000 0.0000 0.0000
# 2 52.6151 77.2897 27.9595 0.0000 0.0000 0.0000
# 3 63.7262 27.9595 48.4216 0.0000 0.0000 0.0000
# 4 0.0000 0.0000 0.0000 20.7460 0.0000 0.0000
# 5 0.0000 0.0000 0.0000 0.0000 -19.3107 0.0000
# 6 0.0000 0.0000 0.0000 0.0000 0.0000 33.7866
#
#
#
# Elastic Compliance Matrix: (Units=1/GPa)
#
#
# Indices 1 2 3 4 5 6 
#
# 1 0.010157 -0.002628 -0.011850 0.000000 0.000000 0.000000
# 2 -0.002628 0.017034 -0.006378 0.000000 0.000000 0.000000
# 3 -0.011850 -0.006378 0.039930 0.000000 0.000000 0.000000
# 4 0.000000 0.000000 0.000000 0.048202 0.000000 0.000000
# 5 0.000000 0.000000 0.000000 0.000000 -0.051785 0.000000
# 6 0.000000 0.000000 0.000000 0.000000 0.000000 0.029597
#
#
# Mechanical properties :
#
#
# Convention : Reuss Voigt Hill
#
# Bulk Modulus (GPa) = 39.35387 66.74742 53.05064
# Shear Modulus (GPa) = 34.88756 18.23267 26.56011
#
# Velocity S-wave (km/s) = 4.38668 3.17121 3.82750
# Velocity P-wave (km/s) = 6.88213 7.08694 6.98528
#
# Compressibility (1/GPa) = 0.02541046
#
# Stress axis : x y z
#
# Youngs Moduli (GPa) = 98.45345 58.70526 25.04372
#
# Poissons Ratio (x) = 0.15426 0.29677
# Poissons Ratio (y) = 0.25870 0.15972
# Poissons Ratio (z) = 1.16669 0.37440
#
# Static dielectric constant tensor:
#      x y z
#    x 3.796170 0.000000 0.000000 
#    y 0.000000 3.367560 0.000000 
#    z 0.000000 0.000000 3.125300 
# 
# 
# High freq. dielectric constant tensor:
#      x y z
#    x 1.724590 0.000000 0.000000 
#    y 0.000000 1.705110 0.000000 
#    z 0.000000 0.000000 1.673530 
# 
# From -- ./inp_files/57298.got.cif
#   From: 2010.03.12/outbox.cif.g09.slc.cpg/sg65_29_cif.got.tgz:57298.got - 2010.04.10 20:52:16.
