data_PCOD8268455
_publ_section_title
;
Structure prediction by ZEFSAII (Michael W. Deem and Ramdas Pophale) SiO2 
 PCOD8268455
Probable space group: C M M M
;
_chemical_formula_sum "Si O2"
_cell_formula_units_Z 120
_cell_length_a 19.569767
_cell_length_b 18.332186
_cell_length_c 19.191458
_cell_angle_alpha 90.000000
_cell_angle_beta 90.000000
_cell_angle_gamma 90.000000
_cell_volume 6885.062387
_symmetry_space_group_name_H-M "C M M M"
_symmetry_group_IT_number 65
_symmetry_cell_setting 'orthorhombic'
loop_
_space_group_symop_operation_xyz
x,y,z
-x,-y,z
x,-y,-z
-x,y,-z
-x,-y,-z
x,y,-z
-x,y,z
x,-y,z
1/2+x,1/2+y,z
1/2-x,1/2-y,z
1/2+x,1/2-y,-z
1/2-x,1/2+y,-z
1/2-x,1/2-y,-z
1/2+x,1/2+y,-z
1/2-x,1/2+y,z
1/2+x,1/2-y,z
loop_
_atom_site_type_symbol
_atom_site_label
_atom_site_fract_x
_atom_site_fract_y
_atom_site_fract_z
Si Si1 0.798832 0.919229 0.659327
Si Si2 0.074020 0.500000 0.582665
Si Si3 0.815205 0.081873 0.184306
Si Si4 0.670328 0.736740 0.323978
Si Si5 0.923783 0.316409 0.920715
Si Si6 0.298267 0.915254 0.920068
Si Si7 0.332605 0.128577 0.582319
Si Si8 0.079186 0.795537 0.800497
O O1 0.777249 0.916699 0.740732
O O2 0.844685 0.846198 0.647468
O O3 0.735322 0.910458 0.608738
O O4 0.832933 0.000000 0.643983
O O5 0.072181 0.500000 0.500000
O O6 0.108697 0.425705 0.607809
O O7 0.000000 0.500000 0.617056
O O8 0.762770 0.115960 0.128042
O O9 0.885748 0.126208 0.187782
O O10 0.835461 0.000000 0.162417
O O11 0.750000 0.750000 0.302445
O O12 0.651930 0.792581 0.385192
O O13 0.620659 0.749911 0.258321
O O14 0.869404 0.377708 0.899641
O O15 0.914286 0.246170 0.872989
O O16 0.000000 0.349598 0.910948
O O17 0.912370 0.290339 0.000000
O O18 0.309117 0.000000 0.904638
O O19 0.278107 0.900171 0.000000
O O20 0.327921 0.138816 0.500000
O O21 0.000000 0.806000 0.778208
#
# Coordination Sequence:
#
# PCOD8268455 Si02
#       8
#    16   8  16  16  16  16  16  16
#     4   9  17  31  50  73  99 131 164 206 262 305
#     4   9  18  32  50  72 100 138 172 200 244 301
#     4   9  19  34  53  75 101 132 168 217 262 302
#     4   9  20  33  52  76 102 138 171 215 260 310
#     4   9  19  33  49  73 104 136 171 212 255 300
#     4   9  18  32  52  76 101 134 175 215 254 304
#     4  10  19  32  50  73 103 136 170 211 254 304
#     4  10  21  35  53  74 101 136 173 210 255 310
#
# _framework density 17.429036
#
# number of rings (size 3 to 8) (size 9 to 14) (size 15 to 20)
#    0.000    2.733    0.667    0.000    5.600    4.000 
#    0.000    2.667    0.000    0.000    0.000    3.733 
#    0.000    0.000    0.000   37.600    0.000    0.000 
#
# Total GULP energy -743482.398468 kJ/mol
# GULP energy per Si atom -12391.373308 kJ/mol
# Density = 1.738937 g / cm^3
# Si number density = 17.429036 Si / 1000 Ang^3
#
#
#
# Elastic Constant Matrix: (Units=GPa)
#
#
# Indices 1 2 3 4 5 6 
#
# 1 106.9845 45.7216 53.6101 0.0000 0.0000 0.0000
# 2 45.7216 117.8087 47.1423 0.0000 0.0000 0.0000
# 3 53.6101 47.1423 80.9161 0.0000 0.0000 0.0000
# 4 0.0000 0.0000 0.0000 25.8080 0.0000 0.0000
# 5 0.0000 0.0000 0.0000 0.0000 22.3889 0.0000
# 6 0.0000 0.0000 0.0000 0.0000 0.0000 24.6778
#
#
#
# Elastic Compliance Matrix: (Units=1/GPa)
#
#
# Indices 1 2 3 4 5 6 
#
# 1 0.014463 -0.002319 -0.008231 0.000000 0.000000 0.000000
# 2 -0.002319 0.011441 -0.005129 0.000000 0.000000 0.000000
# 3 -0.008231 -0.005129 0.020800 0.000000 0.000000 0.000000
# 4 0.000000 0.000000 0.000000 0.038748 0.000000 0.000000
# 5 0.000000 0.000000 0.000000 0.000000 0.044665 0.000000
# 6 0.000000 0.000000 0.000000 0.000000 0.000000 0.040522
#
#
# Mechanical properties :
#
#
# Convention : Reuss Voigt Hill
#
# Bulk Modulus (GPa) = 65.16644 66.51747 65.84196
# Shear Modulus (GPa) = 24.14153 25.19064 24.66609
#
# Velocity S-wave (km/s) = 3.72578 3.80587 3.76603
# Velocity P-wave (km/s) = 7.48193 7.58686 7.53458
#
# Compressibility (1/GPa) = 0.01534532
#
# Stress axis : x y z
#
# Youngs Moduli (GPa) = 69.14241 87.40623 48.07715
#
# Poissons Ratio (x) = 0.20273 0.39572
# Poissons Ratio (y) = 0.16037 0.24658
# Poissons Ratio (z) = 0.56911 0.44829
#
# Static dielectric constant tensor:
#      x y z
#    x 3.234410 0.000000 0.000000 
#    y 0.000000 3.388480 0.000000 
#    z 0.000000 0.000000 3.238960 
# 
# 
# High freq. dielectric constant tensor:
#      x y z
#    x 1.650640 0.000000 0.000000 
#    y 0.000000 1.681430 0.000000 
#    z 0.000000 0.000000 1.669670 
# 
# From -- ./inp_files/64026.got.cif
#   From: 2010.03.12/outbox.cif.g09.slc.cpg/sg65_33_cif.got.tgz:64026.got - 2010.04.10 20:52:16.
