data_PCOD8268910
_publ_section_title
;
Structure prediction by ZEFSAII (Michael W. Deem and Ramdas Pophale) SiO2 
 PCOD8268910
Probable space group: C M M M
;
_chemical_formula_sum "Si O2"
_cell_formula_units_Z 72
_cell_length_a 23.549230
_cell_length_b 21.846467
_cell_length_c 7.553125
_cell_angle_alpha 90.000000
_cell_angle_beta 90.000000
_cell_angle_gamma 90.000000
_cell_volume 3885.837155
_symmetry_space_group_name_H-M "C M M M"
_symmetry_group_IT_number 65
_symmetry_cell_setting 'orthorhombic'
loop_
_space_group_symop_operation_xyz
x,y,z
-x,-y,z
x,-y,-z
-x,y,-z
-x,-y,-z
x,y,-z
-x,y,z
x,-y,z
1/2+x,1/2+y,z
1/2-x,1/2-y,z
1/2+x,1/2-y,-z
1/2-x,1/2+y,-z
1/2-x,1/2-y,-z
1/2+x,1/2+y,-z
1/2-x,1/2+y,z
1/2+x,1/2-y,z
loop_
_atom_site_type_symbol
_atom_site_label
_atom_site_fract_x
_atom_site_fract_y
_atom_site_fract_z
Si Si1 0.935915 0.500000 0.208467
Si Si2 0.934528 0.168816 0.000000
Si Si3 0.248549 0.928435 0.296113
Si Si4 0.565579 0.234368 0.705698
Si Si5 0.160393 0.071445 0.000000
Si Si6 0.366698 0.118685 0.297289
O O1 0.906010 0.559987 0.280394
O O2 0.000000 0.500000 0.279991
O O3 0.933282 0.500000 0.000000
O O4 0.919654 0.206723 0.823080
O O5 0.898396 0.107224 0.000000
O O6 0.000000 0.148909 0.000000
O O7 0.234888 0.911231 0.500000
O O8 0.195345 0.910024 0.175532
O O9 0.303941 0.893321 0.218182
O O10 0.262332 0.000000 0.278435
O O11 0.578742 0.249246 0.500000
O O12 0.500000 0.215514 0.730446
O O13 0.602846 0.178268 0.784825
O O14 0.145536 0.000000 0.000000
O O15 0.357367 0.133328 0.500000
#
# Coordination Sequence:
#
# PCOD8268910 Si02
#       6
#     8   8  16  16   8  16
#     4  11  23  29  41  75 113 149 193 244 275 292
#     4  10  22  40  61  82 105 133 170 216 272 340
#     4   9  18  33  53  80 111 145 182 219 264 315
#     4   9  19  35  55  78 108 148 186 221 264 313
#     4  10  22  38  61  85 104 134 165 215 281 334
#     4  10  19  33  52  74 105 149 194 229 262 304
#
# _framework density 18.528827
#
# number of rings (size 3 to 8) (size 9 to 14) (size 15 to 20)
#    0.000    2.333    1.111    1.000    3.111    2.889 
#    0.000    2.222    0.000    4.000    0.000    6.222 
#    0.000    0.000    0.000    0.000    0.000    0.000 
#
# Total GULP energy -446312.364740 kJ/mol
# GULP energy per Si atom -12397.565687 kJ/mol
# Density = 1.848665 g / cm^3
# Si number density = 18.528827 Si / 1000 Ang^3
#
#
#
# Elastic Constant Matrix: (Units=GPa)
#
#
# Indices 1 2 3 4 5 6 
#
# 1 122.2586 78.3030 43.3774 0.0000 0.0000 0.0000
# 2 78.3030 95.3307 36.3782 0.0000 0.0000 0.0000
# 3 43.3774 36.3782 80.4087 0.0000 0.0000 0.0000
# 4 0.0000 0.0000 0.0000 60.3106 0.0000 0.0000
# 5 0.0000 0.0000 0.0000 0.0000 22.8540 0.0000
# 6 0.0000 0.0000 0.0000 0.0000 0.0000 35.8801
#
#
#
# Elastic Compliance Matrix: (Units=1/GPa)
#
#
# Indices 1 2 3 4 5 6 
#
# 1 0.018115 -0.013477 -0.003675 0.000000 0.000000 0.000000
# 2 -0.013477 0.022705 -0.003002 0.000000 0.000000 0.000000
# 3 -0.003675 -0.003002 0.015777 0.000000 0.000000 0.000000
# 4 0.000000 0.000000 0.000000 0.016581 0.000000 0.000000
# 5 0.000000 0.000000 0.000000 0.000000 0.043756 0.000000
# 6 0.000000 0.000000 0.000000 0.000000 0.000000 0.027871
#
#
# Mechanical properties :
#
#
# Convention : Reuss Voigt Hill
#
# Bulk Modulus (GPa) = 61.38987 68.23499 64.81243
# Shear Modulus (GPa) = 26.24100 33.13822 29.68961
#
# Velocity S-wave (km/s) = 3.76736 4.23362 4.00728
# Velocity P-wave (km/s) = 7.21997 7.79771 7.51440
#
# Compressibility (1/GPa) = 0.01628933
#
# Stress axis : x y z
#
# Youngs Moduli (GPa) = 55.20359 44.04347 63.38276
#
# Poissons Ratio (x) = 0.59356 0.23294
# Poissons Ratio (y) = 0.74396 0.19027
# Poissons Ratio (z) = 0.20288 0.13221
#
# Static dielectric constant tensor:
#      x y z
#    x 3.370320 0.000000 0.000000 
#    y 0.000000 3.171490 0.000000 
#    z 0.000000 0.000000 3.571670 
# 
# 
# High freq. dielectric constant tensor:
#      x y z
#    x 1.711120 0.000000 0.000000 
#    y 0.000000 1.693690 0.000000 
#    z 0.000000 0.000000 1.727100 
# 
# From -- ./inp_files/11287.got.cif
#   From: 2010.03.12/outbox.cif.g09.slc.cpg/sg65_6_cif.got.tgz:11287.got - 2010.04.10 20:52:16.
