data_PCOD8268048
_publ_section_title
;
Structure prediction by ZEFSAII (Michael W. Deem and Ramdas Pophale) SiO2 
 PCOD8268048
Probable space group: C M M M
;
_chemical_formula_sum "Si O2"
_cell_formula_units_Z 120
_cell_length_a 8.060884
_cell_length_b 29.034205
_cell_length_c 27.833130
_cell_angle_alpha 90.000000
_cell_angle_beta 90.000000
_cell_angle_gamma 90.000000
_cell_volume 6514.103558
_symmetry_space_group_name_H-M "C M M M"
_symmetry_group_IT_number 65
_symmetry_cell_setting 'orthorhombic'
loop_
_space_group_symop_operation_xyz
x,y,z
-x,-y,z
x,-y,-z
-x,y,-z
-x,-y,-z
x,y,-z
-x,y,z
x,-y,z
1/2+x,1/2+y,z
1/2-x,1/2-y,z
1/2+x,1/2-y,-z
1/2-x,1/2+y,-z
1/2-x,1/2-y,-z
1/2+x,1/2+y,-z
1/2-x,1/2+y,z
1/2+x,1/2-y,z
loop_
_atom_site_type_symbol
_atom_site_label
_atom_site_fract_x
_atom_site_fract_y
_atom_site_fract_z
Si Si1 0.191024 0.640295 0.052232
Si Si2 0.306211 0.945960 0.619535
Si Si3 0.500000 0.445818 0.553197
Si Si4 0.191913 0.608043 0.713140
Si Si5 0.309394 0.551411 0.905547
Si Si6 0.192112 0.801775 0.245502
Si Si7 0.196394 0.698767 0.860142
Si Si8 0.808336 0.553047 0.802203
O O1 0.209155 0.585810 0.060469
O O2 0.273515 0.667969 0.096657
O O3 0.000000 0.653795 0.050558
O O4 0.270470 0.653088 0.000000
O O5 0.500000 0.935534 0.604708
O O6 0.243950 0.914720 0.664064
O O7 0.173682 0.931307 0.578676
O O8 0.289177 0.000000 0.632704
O O9 0.500000 0.500000 0.548774
O O10 0.500000 0.423294 0.500000
O O11 0.225257 0.662829 0.716667
O O12 0.272827 0.582753 0.759207
O O13 0.000000 0.596973 0.715245
O O14 0.500000 0.553701 0.920497
O O15 0.237119 0.500000 0.913298
O O16 0.291101 0.565831 0.850074
O O17 0.250000 0.750000 0.256203
O O18 0.232436 0.817180 0.191074
O O19 0.000000 0.804178 0.254753
O O20 0.250000 0.750000 0.872331
O O21 0.000000 0.694290 0.856555
O O22 0.787414 0.500000 0.787897
O O23 0.000000 0.565843 0.811707
#
# Coordination Sequence:
#
# PCOD8268048 Si02
#       8
#    16  16   8  16  16  16  16  16
#     4  10  22  38  54  72  92 117 152 193 238 294
#     4   9  18  32  50  75 110 150 188 229 274 318
#     4   9  18  32  50  74 108 150 196 240 273 311
#     4  10  19  31  49  73 104 138 170 212 255 305
#     4  10  21  35  49  69  96 122 154 197 239 285
#     4  11  22  35  52  73  99 132 168 204 245 302
#     4  10  20  36  56  75  97 122 153 193 240 295
#     4   9  17  30  49  71  96 130 167 196 233 290
#
# _framework density 18.421568000000001
#
# number of rings (size 3 to 8) (size 9 to 14) (size 15 to 20)
#    0.000    2.200    0.000    4.000    0.933    8.267 
#    0.000    2.667    0.000    0.000    0.000    0.000 
#    0.000    0.533    0.267    0.000    0.000    0.000 
#
# Total GULP energy -743719.897501 kJ/mol
# GULP energy per Si atom -12395.331625 kJ/mol
# Density = 1.837964 g / cm^3
# Si number density = 18.421568 Si / 1000 Ang^3
#
#
#
# Elastic Constant Matrix: (Units=GPa)
#
#
# Indices 1 2 3 4 5 6 
#
# 1 39.0934 12.6072 21.6291 0.0000 0.0000 0.0000
# 2 12.6072 76.8620 56.1374 0.0000 0.0000 0.0000
# 3 21.6291 56.1374 103.4014 0.0000 0.0000 0.0000
# 4 0.0000 0.0000 0.0000 18.5997 0.0000 0.0000
# 5 0.0000 0.0000 0.0000 0.0000 17.3185 0.0000
# 6 0.0000 0.0000 0.0000 0.0000 0.0000 22.8030
#
#
#
# Elastic Compliance Matrix: (Units=1/GPa)
#
#
# Indices 1 2 3 4 5 6 
#
# 1 0.028941 -0.000539 -0.005761 0.000000 0.000000 0.000000
# 2 -0.000539 0.021569 -0.011597 0.000000 0.000000 0.000000
# 3 -0.005761 -0.011597 0.017172 0.000000 0.000000 0.000000
# 4 0.000000 0.000000 0.000000 0.053764 0.000000 0.000000
# 5 0.000000 0.000000 0.000000 0.000000 0.057742 0.000000
# 6 0.000000 0.000000 0.000000 0.000000 0.000000 0.043854
#
#
# Mechanical properties :
#
#
# Convention : Reuss Voigt Hill
#
# Bulk Modulus (GPa) = 31.36042 44.45604 37.90823
# Shear Modulus (GPa) = 18.55521 20.34312 19.44917
#
# Velocity S-wave (km/s) = 3.17717 3.32672 3.25281
# Velocity P-wave (km/s) = 5.52448 6.24028 5.89326
#
# Compressibility (1/GPa) = 0.03188733
#
# Stress axis : x y z
#
# Youngs Moduli (GPa) = 34.55294 46.36296 58.23349
#
# Poissons Ratio (x) = 0.02501 0.33548
# Poissons Ratio (y) = 0.01864 0.67534
# Poissons Ratio (z) = 0.19906 0.53768
#
# Static dielectric constant tensor:
#      x y z
#    x 3.324810 0.000000 0.000000 
#    y 0.000000 3.261980 0.000000 
#    z 0.000000 0.000000 3.493940 
# 
# 
# High freq. dielectric constant tensor:
#      x y z
#    x 1.712100 0.000000 0.000000 
#    y 0.000000 1.704240 0.000000 
#    z 0.000000 0.000000 1.688180 
# 
# From -- ./inp_files/73872.got.cif
#   From: 2010.03.12/outbox.cif.g09.slc.cpg/sg65_37_cif.got.tgz:73872.got - 2010.04.10 20:52:16.
