data_PCOD8268630
_publ_section_title
;
Structure prediction by ZEFSAII (Michael W. Deem and Ramdas Pophale) SiO2 
 PCOD8268630
Probable space group: C M M M
;
_chemical_formula_sum "Si O2"
_cell_formula_units_Z 72
_cell_length_a 16.271600
_cell_length_b 27.835314
_cell_length_c 8.990720
_cell_angle_alpha 90.000000
_cell_angle_beta 90.000000
_cell_angle_gamma 90.000000
_cell_volume 4072.122713
_symmetry_space_group_name_H-M "C M M M"
_symmetry_group_IT_number 65
_symmetry_cell_setting 'orthorhombic'
loop_
_space_group_symop_operation_xyz
x,y,z
-x,-y,z
x,-y,-z
-x,y,-z
-x,-y,-z
x,y,-z
-x,y,z
x,-y,z
1/2+x,1/2+y,z
1/2-x,1/2-y,z
1/2+x,1/2-y,-z
1/2-x,1/2+y,-z
1/2-x,1/2-y,-z
1/2+x,1/2+y,-z
1/2-x,1/2+y,z
1/2+x,1/2-y,z
loop_
_atom_site_type_symbol
_atom_site_label
_atom_site_fract_x
_atom_site_fract_y
_atom_site_fract_z
Si Si1 0.500000 0.556944 0.667297
Si Si2 0.165414 0.944354 0.825380
Si Si3 0.667221 0.279994 0.833598
Si Si4 0.747993 0.862799 0.324605
Si Si5 0.591646 0.196568 0.329159
O O1 0.500000 0.500000 0.663768
O O2 0.500000 0.578073 0.500000
O O3 0.419326 0.574773 0.753714
O O4 0.240248 0.914276 0.754174
O O5 0.181420 0.000000 0.787778
O O6 0.160847 0.935347 0.000000
O O7 0.750000 0.250000 0.836706
O O8 0.680772 0.327193 0.734072
O O9 0.597805 0.246044 0.762585
O O10 0.640622 0.295264 0.000000
O O11 0.756916 0.868913 0.500000
O O12 0.657723 0.843385 0.277708
O O13 0.609130 0.209852 0.500000
O O14 0.500000 0.175376 0.306189
#
# Coordination Sequence:
#
# PCOD8268630 Si02
#       5
#     8  16  16  16  16
#     4   9  17  31  51  73  97 125 159 199 243 293
#     4  10  20  34  52  74 102 134 167 206 251 297
#     4   9  17  30  48  70  97 127 160 200 246 296
#     4  10  19  32  52  75 100 132 169 208 250 298
#     4   9  18  33  52  74 101 132 167 208 253 299
#
# _framework density 17.681197000000001
#
# number of rings (size 3 to 8) (size 9 to 14) (size 15 to 20)
#    0.000    2.556    0.000    2.333    0.000    6.667 
#    2.000    0.000    0.000    0.667    0.000    4.667 
#    0.000    0.000    0.000    0.000    0.000    0.000 
#
# Total GULP energy -446367.751214 kJ/mol
# GULP energy per Si atom -12399.104200 kJ/mol
# Density = 1.764095 g / cm^3
# Si number density = 17.681197 Si / 1000 Ang^3
#
#
#
# Elastic Constant Matrix: (Units=GPa)
#
#
# Indices 1 2 3 4 5 6 
#
# 1 94.9083 50.4277 43.3916 0.0000 0.0000 0.0000
# 2 50.4277 89.3277 51.1321 0.0000 0.0000 0.0000
# 3 43.3916 51.1321 106.4302 0.0000 0.0000 0.0000
# 4 0.0000 0.0000 0.0000 32.4995 0.0000 0.0000
# 5 0.0000 0.0000 0.0000 0.0000 22.1908 0.0000
# 6 0.0000 0.0000 0.0000 0.0000 0.0000 23.5595
#
#
#
# Elastic Compliance Matrix: (Units=1/GPa)
#
#
# Indices 1 2 3 4 5 6 
#
# 1 0.015697 -0.007170 -0.002955 0.000000 0.000000 0.000000
# 2 -0.007170 0.018716 -0.006069 0.000000 0.000000 0.000000
# 3 -0.002955 -0.006069 0.013516 0.000000 0.000000 0.000000
# 4 0.000000 0.000000 0.000000 0.030770 0.000000 0.000000
# 5 0.000000 0.000000 0.000000 0.000000 0.045064 0.000000
# 6 0.000000 0.000000 0.000000 0.000000 0.000000 0.042446
#
#
# Mechanical properties :
#
#
# Convention : Reuss Voigt Hill
#
# Bulk Modulus (GPa) = 64.34094 64.50766 64.42430
# Shear Modulus (GPa) = 24.53672 25.36427 24.95050
#
# Velocity S-wave (km/s) = 3.72927 3.79163 3.76058
# Velocity P-wave (km/s) = 7.41699 7.46536 7.44121
#
# Compressibility (1/GPa) = 0.01554220
#
# Stress axis : x y z
#
# Youngs Moduli (GPa) = 63.70595 53.43027 73.98571
#
# Poissons Ratio (x) = 0.38309 0.21864
# Poissons Ratio (y) = 0.45676 0.44898
# Poissons Ratio (z) = 0.18826 0.32424
#
# Static dielectric constant tensor:
#      x y z
#    x 3.177980 0.000000 0.000000 
#    y 0.000000 3.170380 0.000000 
#    z 0.000000 0.000000 3.457710 
# 
# 
# High freq. dielectric constant tensor:
#      x y z
#    x 1.663960 0.000000 0.000000 
#    y 0.000000 1.664460 0.000000 
#    z 0.000000 0.000000 1.698320 
# 
# From -- ./inp_files/7679.got.cif
#   From: 2010.03.12/outbox.cif.g09.slc.cpg/sg65_4_cif.got.tgz:7679.got - 2010.04.10 20:52:16.
