data_PCOD8268396
_publ_section_title
;
Structure prediction by ZEFSAII (Michael W. Deem and Ramdas Pophale) SiO2 
 PCOD8268396
Probable space group: C M M M
;
_chemical_formula_sum "Si O2"
_cell_formula_units_Z 72
_cell_length_a 27.393297
_cell_length_b 13.665191
_cell_length_c 10.390057
_cell_angle_alpha 90.000000
_cell_angle_beta 90.000000
_cell_angle_gamma 90.000000
_cell_volume 3889.358201
_symmetry_space_group_name_H-M "C M M M"
_symmetry_group_IT_number 65
_symmetry_cell_setting 'orthorhombic'
loop_
_space_group_symop_operation_xyz
x,y,z
-x,-y,z
x,-y,-z
-x,y,-z
-x,-y,-z
x,y,-z
-x,y,z
x,-y,z
1/2+x,1/2+y,z
1/2-x,1/2-y,z
1/2+x,1/2-y,-z
1/2-x,1/2+y,-z
1/2-x,1/2-y,-z
1/2+x,1/2+y,-z
1/2-x,1/2+y,z
1/2+x,1/2-y,z
loop_
_atom_site_type_symbol
_atom_site_label
_atom_site_fract_x
_atom_site_fract_y
_atom_site_fract_z
Si Si1 0.360456 0.387840 0.357363
Si Si2 0.942205 0.109191 0.000000
Si Si3 0.693730 0.269347 0.146208
Si Si4 0.114394 0.610271 0.148293
Si Si5 0.443058 0.724769 0.252103
O O1 0.336916 0.377296 0.500000
O O2 0.373032 0.500000 0.326605
O O3 0.323447 0.349421 0.249174
O O4 0.411215 0.326211 0.362641
O O5 0.924576 0.168169 0.124165
O O6 0.000000 0.103515 0.000000
O O7 0.919719 0.000000 0.000000
O O8 0.750000 0.250000 0.172431
O O9 0.665140 0.167547 0.167936
O O10 0.685249 0.308171 0.000000
O O11 0.121264 0.500000 0.200050
O O12 0.071374 0.661751 0.231509
O O13 0.098041 0.609337 0.000000
O O14 0.500000 0.714348 0.283528
#
# Coordination Sequence:
#
# PCOD8268396 Si02
#       5
#    16   8  16  16  16
#     4  10  22  37  53  78 111 145 180 218 267 326
#     4   9  16  26  43  69  96 125 167 218 266 311
#     4   9  19  36  58  83 108 136 176 224 270 322
#     4   9  17  30  49  75 108 140 171 216 271 324
#     4  10  19  32  49  72 104 141 182 224 266 315
#
# _framework density 18.512051
#
# number of rings (size 3 to 8) (size 9 to 14) (size 15 to 20)
#    0.000    2.556    1.111    0.667    1.556    4.000 
#    0.000    4.444    0.000   10.667    0.000    6.222 
#    0.000    0.000    0.000    0.000    0.000    0.000 
#
# Total GULP energy -446300.276118 kJ/mol
# GULP energy per Si atom -12397.229892 kJ/mol
# Density = 1.846992 g / cm^3
# Si number density = 18.512051 Si / 1000 Ang^3
#
#
#
# Elastic Constant Matrix: (Units=GPa)
#
#
# Indices 1 2 3 4 5 6 
#
# 1 95.2838 30.9567 39.0050 0.0000 0.0000 0.0000
# 2 30.9567 137.1318 47.0658 0.0000 0.0000 0.0000
# 3 39.0050 47.0658 84.4834 0.0000 0.0000 0.0000
# 4 0.0000 0.0000 0.0000 23.4237 0.0000 0.0000
# 5 0.0000 0.0000 0.0000 0.0000 17.6853 0.0000
# 6 0.0000 0.0000 0.0000 0.0000 0.0000 16.8874
#
#
#
# Elastic Compliance Matrix: (Units=1/GPa)
#
#
# Indices 1 2 3 4 5 6 
#
# 1 0.013071 -0.001087 -0.005429 0.000000 0.000000 0.000000
# 2 -0.001087 0.009107 -0.004571 0.000000 0.000000 0.000000
# 3 -0.005429 -0.004571 0.016890 0.000000 0.000000 0.000000
# 4 0.000000 0.000000 0.000000 0.042692 0.000000 0.000000
# 5 0.000000 0.000000 0.000000 0.000000 0.056544 0.000000
# 6 0.000000 0.000000 0.000000 0.000000 0.000000 0.059216
#
#
# Mechanical properties :
#
#
# Convention : Reuss Voigt Hill
#
# Bulk Modulus (GPa) = 59.19935 61.21711 60.20823
# Shear Modulus (GPa) = 22.19024 24.92404 23.55714
#
# Velocity S-wave (km/s) = 3.46597 3.67327 3.57112
# Velocity P-wave (km/s) = 6.93293 7.15060 7.04261
#
# Compressibility (1/GPa) = 0.01689208
#
# Stress axis : x y z
#
# Youngs Moduli (GPa) = 76.50808 109.80965 59.20769
#
# Poissons Ratio (x) = 0.11940 0.32142
# Poissons Ratio (y) = 0.08319 0.27066
# Poissons Ratio (z) = 0.41534 0.50197
#
# Static dielectric constant tensor:
#      x y z
#    x 3.248060 0.000000 0.000000 
#    y 0.000000 3.485370 0.000000 
#    z 0.000000 0.000000 3.287500 
# 
# 
# High freq. dielectric constant tensor:
#      x y z
#    x 1.709650 0.000000 0.000000 
#    y 0.000000 1.717610 0.000000 
#    z 0.000000 0.000000 1.699510 
# 
# From -- ./inp_files/7676.got.cif
#   From: 2010.03.12/outbox.cif.g09.slc.cpg/sg65_4_cif.got.tgz:7676.got - 2010.04.10 20:52:16.
