data_PCOD8268803
_publ_section_title
;
Structure prediction by ZEFSAII (Michael W. Deem and Ramdas Pophale) SiO2 
 PCOD8268803
Probable space group: C M M M
;
_chemical_formula_sum "Si O2"
_cell_formula_units_Z 80
_cell_length_a 24.233122
_cell_length_b 19.630599
_cell_length_c 9.102136
_cell_angle_alpha 90.000000
_cell_angle_beta 90.000000
_cell_angle_gamma 90.000000
_cell_volume 4329.983493
_symmetry_space_group_name_H-M "C M M M"
_symmetry_group_IT_number 65
_symmetry_cell_setting 'orthorhombic'
loop_
_space_group_symop_operation_xyz
x,y,z
-x,-y,z
x,-y,-z
-x,y,-z
-x,-y,-z
x,y,-z
-x,y,z
x,-y,z
1/2+x,1/2+y,z
1/2-x,1/2-y,z
1/2+x,1/2-y,-z
1/2-x,1/2+y,-z
1/2-x,1/2-y,-z
1/2+x,1/2+y,-z
1/2-x,1/2+y,z
1/2+x,1/2-y,z
loop_
_atom_site_type_symbol
_atom_site_label
_atom_site_fract_x
_atom_site_fract_y
_atom_site_fract_z
Si Si1 0.000000 0.581055 0.675271
Si Si2 0.770686 0.000000 0.656309
Si Si3 0.332016 0.000000 0.170336
Si Si4 0.937951 0.000000 0.324508
Si Si5 0.813510 0.756121 0.173632
Si Si6 0.107993 0.631447 0.824891
Si Si7 0.641502 0.615083 0.664932
O O1 0.050403 0.625470 0.739931
O O2 0.000000 0.500000 0.724621
O O3 0.000000 0.585285 0.500000
O O4 0.805685 0.067770 0.662433
O O5 0.737980 0.000000 0.500000
O O6 0.732221 0.000000 0.796600
O O7 0.359383 0.933386 0.236706
O O8 0.341243 0.000000 0.000000
O O9 0.908771 0.069594 0.268564
O O10 0.933345 0.000000 0.500000
O O11 0.000000 0.000000 0.265135
O O12 0.750000 0.750000 0.234898
O O13 0.853039 0.694173 0.222859
O O14 0.845153 0.822032 0.231672
O O15 0.810156 0.761247 0.000000
O O16 0.097424 0.631620 0.000000
O O17 0.627587 0.641039 0.500000
#
# Coordination Sequence:
#
# PCOD8268803 Si02
#       7
#     8   8   8   8  16  16  16
#     4  11  23  39  59  83 111 142 183 236 279 319
#     4   9  18  31  49  76 109 142 177 224 276 327
#     4  10  19  32  54  80 100 135 189 228 266 325
#     4   8  15  32  57  79 102 137 180 222 264 319
#     4  10  21  37  56  81 114 147 181 223 272 327
#     4  10  21  37  58  80 107 148 188 225 273 328
#     4   9  18  33  53  78 107 141 180 220 270 324
#
# _framework density 18.475821
#
# number of rings (size 3 to 8) (size 9 to 14) (size 15 to 20)
#    0.000    2.400    1.000    2.700    0.000    4.800 
#    1.800    1.500    0.000    0.600    0.000    0.000 
#    0.000    0.000    0.000    0.000    0.000    0.000 
#
# Total GULP energy -495621.992887 kJ/mol
# GULP energy per Si atom -12390.549822 kJ/mol
# Density = 1.843377 g / cm^3
# Si number density = 18.475821 Si / 1000 Ang^3
#
#
#
# Elastic Constant Matrix: (Units=GPa)
#
#
# Indices 1 2 3 4 5 6 
#
# 1 153.6487 72.8774 32.8320 0.0000 0.0000 0.0000
# 2 72.8774 148.1813 32.9886 0.0000 0.0000 0.0000
# 3 32.8320 32.9886 20.3505 0.0000 0.0000 0.0000
# 4 0.0000 0.0000 0.0000 35.6811 0.0000 0.0000
# 5 0.0000 0.0000 0.0000 0.0000 23.4599 0.0000
# 6 0.0000 0.0000 0.0000 0.0000 0.0000 -53.8845
#
#
#
# Elastic Compliance Matrix: (Units=1/GPa)
#
#
# Indices 1 2 3 4 5 6 
#
# 1 0.010352 -0.002149 -0.013218 0.000000 0.000000 0.000000
# 2 -0.002149 0.011005 -0.014373 0.000000 0.000000 0.000000
# 3 -0.013218 -0.014373 0.093763 0.000000 0.000000 0.000000
# 4 0.000000 0.000000 0.000000 0.028026 0.000000 0.000000
# 5 0.000000 0.000000 0.000000 0.000000 0.042626 0.000000
# 6 0.000000 0.000000 0.000000 0.000000 0.000000 -0.018558
#
#
# Mechanical properties :
#
#
# Convention : Reuss Voigt Hill
#
# Bulk Modulus (GPa) = 17.97249 66.61960 42.29605
# Shear Modulus (GPa) = 20.38818 13.28346 16.83582
#
# Velocity S-wave (km/s) = 3.32551 2.68426 3.02194
# Velocity P-wave (km/s) = 4.94915 6.76336 5.92609
#
# Compressibility (1/GPa) = 0.05564058
#
# Stress axis : x y z
#
# Youngs Moduli (GPa) = 96.60027 90.86861 10.66517
#
# Poissons Ratio (x) = 0.19523 0.14098
# Poissons Ratio (y) = 0.20755 0.15329
# Poissons Ratio (z) = 1.27689 1.30605
#
# Static dielectric constant tensor:
#      x y z
#    x 3.524020 0.000000 0.000000 
#    y 0.000000 4.089450 0.000000 
#    z 0.000000 0.000000 3.199760 
# 
# 
# High freq. dielectric constant tensor:
#      x y z
#    x 1.720810 0.000000 0.000000 
#    y 0.000000 1.720960 0.000000 
#    z 0.000000 0.000000 1.694340 
# 
# From -- ./inp_files/13902.got.cif
#   From: 2010.03.12/outbox.cif.g09.slc.cpg/sg65_7_cif.got.tgz:13902.got - 2010.04.10 20:52:16.
