data_PCOD8268080
_publ_section_title
;
Structure prediction by ZEFSAII (Michael W. Deem and Ramdas Pophale) SiO2 
 PCOD8268080
Probable space group: C M M M
;
_chemical_formula_sum "Si O2"
_cell_formula_units_Z 80
_cell_length_a 28.140714
_cell_length_b 20.043475
_cell_length_c 8.861610
_cell_angle_alpha 90.000000
_cell_angle_beta 90.000000
_cell_angle_gamma 90.000000
_cell_volume 4998.282101
_symmetry_space_group_name_H-M "C M M M"
_symmetry_group_IT_number 65
_symmetry_cell_setting 'orthorhombic'
loop_
_space_group_symop_operation_xyz
x,y,z
-x,-y,z
x,-y,-z
-x,y,-z
-x,-y,-z
x,y,-z
-x,y,z
x,-y,z
1/2+x,1/2+y,z
1/2-x,1/2-y,z
1/2+x,1/2-y,-z
1/2-x,1/2+y,-z
1/2-x,1/2-y,-z
1/2+x,1/2+y,-z
1/2-x,1/2+y,z
1/2+x,1/2-y,z
loop_
_atom_site_type_symbol
_atom_site_label
_atom_site_fract_x
_atom_site_fract_y
_atom_site_fract_z
Si Si1 0.305247 0.576468 0.676366
Si Si2 0.138502 0.186893 0.828249
Si Si3 0.860611 0.680776 0.677948
Si Si4 0.293113 0.077885 0.825048
Si Si5 0.053233 0.729934 0.172197
O O1 0.297602 0.587443 0.500000
O O2 0.317525 0.500000 0.714746
O O3 0.348887 0.620809 0.735269
O O4 0.257761 0.600137 0.760720
O O5 0.162973 0.252698 0.752919
O O6 0.081086 0.198573 0.820914
O O7 0.156354 0.179660 0.000000
O O8 0.856256 0.685592 0.500000
O O9 0.834458 0.615313 0.736351
O O10 0.916405 0.676861 0.728341
O O11 0.301359 0.000000 0.796517
O O12 0.295268 0.096805 0.000000
O O13 0.000000 0.737915 0.237456
O O14 0.051894 0.704088 0.000000
#
# Coordination Sequence:
#
# PCOD8268080 Si02
#       5
#    16  16  16  16  16
#     4  10  20  33  49  71 100 131 162 199 244 288
#     4   9  18  32  50  73  97 127 165 200 237 285
#     4  10  19  31  49  75 101 126 159 200 245 286
#     4  10  20  34  51  70  96 132 168 198 235 286
#     4   8  16  32  52  73  97 125 158 198 243 289
#
# _framework density 16.005499
#
# number of rings (size 3 to 8) (size 9 to 14) (size 15 to 20)
#    1.200    1.400    0.000    3.000    0.000    3.600 
#    0.000    4.000    0.000    1.200    0.000    8.400 
#    0.000    0.000    0.000    0.000    0.000    0.000 
#
# Total GULP energy -495673.445044 kJ/mol
# GULP energy per Si atom -12391.836126 kJ/mol
# Density = 1.596907 g / cm^3
# Si number density = 16.005499 Si / 1000 Ang^3
#
#
#
# Elastic Constant Matrix: (Units=GPa)
#
#
# Indices 1 2 3 4 5 6 
#
# 1 75.2638 30.9548 28.2415 0.0000 0.0000 0.0000
# 2 30.9548 52.9239 31.6828 0.0000 0.0000 0.0000
# 3 28.2415 31.6828 92.8877 0.0000 0.0000 0.0000
# 4 0.0000 0.0000 0.0000 29.4681 0.0000 0.0000
# 5 0.0000 0.0000 0.0000 0.0000 20.4447 0.0000
# 6 0.0000 0.0000 0.0000 0.0000 0.0000 11.9093
#
#
#
# Elastic Compliance Matrix: (Units=1/GPa)
#
#
# Indices 1 2 3 4 5 6 
#
# 1 0.017895 -0.009059 -0.002351 0.000000 0.000000 0.000000
# 2 -0.009059 0.028329 -0.006908 0.000000 0.000000 0.000000
# 3 -0.002351 -0.006908 0.013837 0.000000 0.000000 0.000000
# 4 0.000000 0.000000 0.000000 0.033935 0.000000 0.000000
# 5 0.000000 0.000000 0.000000 0.000000 0.048912 0.000000
# 6 0.000000 0.000000 0.000000 0.000000 0.000000 0.083968
#
#
# Mechanical properties :
#
#
# Convention : Reuss Voigt Hill
#
# Bulk Modulus (GPa) = 42.69100 44.75928 43.72514
# Shear Modulus (GPa) = 18.42837 21.04418 19.73628
#
# Velocity S-wave (km/s) = 3.39688 3.62996 3.51535
# Velocity P-wave (km/s) = 6.48966 6.75237 6.62232
#
# Compressibility (1/GPa) = 0.02342414
#
# Stress axis : x y z
#
# Youngs Moduli (GPa) = 55.88303 35.29901 72.27118
#
# Poissons Ratio (x) = 0.31978 0.16989
# Poissons Ratio (y) = 0.50625 0.49928
# Poissons Ratio (z) = 0.13136 0.24386
#
# Static dielectric constant tensor:
#      x y z
#    x 2.920570 0.000000 0.000000 
#    y 0.000000 2.842140 0.000000 
#    z 0.000000 0.000000 3.098440 
# 
# 
# High freq. dielectric constant tensor:
#      x y z
#    x 1.595780 0.000000 0.000000 
#    y 0.000000 1.594190 0.000000 
#    z 0.000000 0.000000 1.631320 
# 
# From -- ./inp_files/18430.got.cif
#   From: 2010.03.12/outbox.cif.g09.slc.cpg/sg65_10_cif.got.tgz:18430.got - 2010.04.10 20:52:16.
