data_PCOD8268158
_publ_section_title
;
Structure prediction by ZEFSAII (Michael W. Deem and Ramdas Pophale) SiO2 
 PCOD8268158
Probable space group: C M M M
;
_chemical_formula_sum "Si O2"
_cell_formula_units_Z 96
_cell_length_a 25.364155
_cell_length_b 23.665449
_cell_length_c 8.942066
_cell_angle_alpha 90.000000
_cell_angle_beta 90.000000
_cell_angle_gamma 90.000000
_cell_volume 5367.511927
_symmetry_space_group_name_H-M "C M M M"
_symmetry_group_IT_number 65
_symmetry_cell_setting 'orthorhombic'
loop_
_space_group_symop_operation_xyz
x,y,z
-x,-y,z
x,-y,-z
-x,y,-z
-x,-y,-z
x,y,-z
-x,y,z
x,-y,z
1/2+x,1/2+y,z
1/2-x,1/2-y,z
1/2+x,1/2-y,-z
1/2-x,1/2+y,-z
1/2-x,1/2-y,-z
1/2+x,1/2+y,-z
1/2-x,1/2+y,z
1/2+x,1/2-y,z
loop_
_atom_site_type_symbol
_atom_site_label
_atom_site_fract_x
_atom_site_fract_y
_atom_site_fract_z
Si Si1 0.348508 0.880719 0.822473
Si Si2 0.156441 0.887026 0.674713
Si Si3 0.440828 0.196568 0.822735
Si Si4 0.807621 0.000000 0.822528
Si Si5 0.255229 0.315918 0.174028
Si Si6 0.059509 0.812261 0.672753
Si Si7 0.687177 0.000000 0.821902
O O1 0.401613 0.851670 0.759031
O O2 0.298153 0.845220 0.769301
O O3 0.343217 0.944676 0.760376
O O4 0.350679 0.881551 0.000000
O O5 0.165006 0.898203 0.500000
O O6 0.197143 0.839811 0.729304
O O7 0.097748 0.864393 0.709955
O O8 0.162737 0.945087 0.762875
O O9 0.500000 0.182326 0.766945
O O10 0.422321 0.257454 0.764884
O O11 0.437907 0.198703 0.000000
O O12 0.747369 0.000000 0.764165
O O13 0.809820 0.000000 0.000000
O O14 0.250000 0.250000 0.204662
O O15 0.265932 0.329265 0.000000
O O16 0.063387 0.795342 0.500000
O O17 0.000000 0.830393 0.716609
O O18 0.687976 0.000000 0.000000
#
# Coordination Sequence:
#
# PCOD8268158 Si02
#       7
#    16  16  16   8  16  16   8
#     4   9  16  28  46  71 101 133 171 209 250 303
#     4  11  22  35  53  78 106 132 169 220 265 302
#     4   9  17  30  51  78 104 130 167 217 260 293
#     4  11  21  37  58  75  99 140 181 210 253 315
#     4  10  19  31  50  75 103 138 175 210 256 316
#     4   9  19  36  55  74 101 138 171 200 250 318
#     4   9  16  29  50  70  93 133 176 205 238 299
#
# _framework density 17.885382
#
# number of rings (size 3 to 8) (size 9 to 14) (size 15 to 20)
#    0.000    2.333    1.667    1.750    0.000    3.000 
#    0.000    1.667    0.000    5.000    0.000    0.000 
#    0.000    2.667    0.000    0.000    0.000    0.000 
#
# Total GULP energy -595186.484000 kJ/mol
# GULP energy per Si atom -12399.718417 kJ/mol
# Density = 1.784467 g / cm^3
# Si number density = 17.885382 Si / 1000 Ang^3
#
#
#
# Elastic Constant Matrix: (Units=GPa)
#
#
# Indices 1 2 3 4 5 6 
#
# 1 116.6005 72.9245 32.4145 0.0000 0.0000 0.0000
# 2 72.9245 139.5307 32.9476 0.0000 0.0000 0.0000
# 3 32.4145 32.9476 36.9585 0.0000 0.0000 0.0000
# 4 0.0000 0.0000 0.0000 13.2737 0.0000 0.0000
# 5 0.0000 0.0000 0.0000 0.0000 21.7662 0.0000
# 6 0.0000 0.0000 0.0000 0.0000 0.0000 31.9795
#
#
#
# Elastic Compliance Matrix: (Units=1/GPa)
#
#
# Indices 1 2 3 4 5 6 
#
# 1 0.014169 -0.005663 -0.007379 0.000000 0.000000 0.000000
# 2 -0.005663 0.011341 -0.005144 0.000000 0.000000 0.000000
# 3 -0.007379 -0.005144 0.038114 0.000000 0.000000 0.000000
# 4 0.000000 0.000000 0.000000 0.075337 0.000000 0.000000
# 5 0.000000 0.000000 0.000000 0.000000 0.045943 0.000000
# 6 0.000000 0.000000 0.000000 0.000000 0.000000 0.031270
#
#
# Mechanical properties :
#
#
# Convention : Reuss Voigt Hill
#
# Bulk Modulus (GPa) = 36.69183 63.29589 49.99386
# Shear Modulus (GPa) = 19.11095 23.72410 21.41752
#
# Velocity S-wave (km/s) = 3.27237 3.64600 3.46423
# Velocity P-wave (km/s) = 5.90232 7.29321 6.63432
#
# Compressibility (1/GPa) = 0.02725402
#
# Stress axis : x y z
#
# Youngs Moduli (GPa) = 70.57445 88.17378 26.23689
#
# Poissons Ratio (x) = 0.49934 0.19360
# Poissons Ratio (y) = 0.39968 0.13495
# Poissons Ratio (z) = 0.52075 0.45352
#
# Static dielectric constant tensor:
#      x y z
#    x 3.569950 0.000000 0.000000 
#    y 0.000000 3.459990 0.000000 
#    z 0.000000 0.000000 3.063610 
# 
# 
# High freq. dielectric constant tensor:
#      x y z
#    x 1.695660 0.000000 0.000000 
#    y 0.000000 1.696090 0.000000 
#    z 0.000000 0.000000 1.665210 
# 
# From -- ./inp_files/14397.got.cif
#   From: 2010.03.12/outbox.cif.g09.slc.cpg/sg65_8_cif.got.tgz:14397.got - 2010.04.10 20:52:16.
