data_PCOD8268258
_publ_section_title
;
Structure prediction by ZEFSAII (Michael W. Deem and Ramdas Pophale) SiO2 
 PCOD8268258
Probable space group: C M M M
;
_chemical_formula_sum "Si O2"
_cell_formula_units_Z 88
_cell_length_a 17.868713
_cell_length_b 9.079115
_cell_length_c 28.606639
_cell_angle_alpha 90.000000
_cell_angle_beta 90.000000
_cell_angle_gamma 90.000000
_cell_volume 4640.915125
_symmetry_space_group_name_H-M "C M M M"
_symmetry_group_IT_number 65
_symmetry_cell_setting 'orthorhombic'
loop_
_space_group_symop_operation_xyz
x,y,z
-x,-y,z
x,-y,-z
-x,y,-z
-x,-y,-z
x,y,-z
-x,y,z
x,-y,z
1/2+x,1/2+y,z
1/2-x,1/2-y,z
1/2+x,1/2-y,-z
1/2-x,1/2+y,-z
1/2-x,1/2-y,-z
1/2+x,1/2+y,-z
1/2-x,1/2+y,z
1/2+x,1/2-y,z
loop_
_atom_site_type_symbol
_atom_site_label
_atom_site_fract_x
_atom_site_fract_y
_atom_site_fract_z
Si Si1 0.171086 0.327056 0.500000
Si Si2 0.413846 0.329672 0.768588
Si Si3 0.670688 0.326392 0.674813
Si Si4 0.828009 0.670714 0.950695
Si Si5 0.830244 0.673555 0.150858
Si Si6 0.412455 0.169379 0.593353
O O1 0.183937 0.500000 0.500000
O O2 0.250000 0.250000 0.500000
O O3 0.125850 0.277091 0.545645
O O4 0.500000 0.296736 0.756691
O O5 0.401280 0.500000 0.781037
O O6 0.364305 0.281978 0.724473
O O7 0.389980 0.232725 0.812554
O O8 0.681104 0.500000 0.670119
O O9 0.750000 0.250000 0.668753
O O10 0.614948 0.272124 0.634998
O O11 0.809529 0.500000 0.949783
O O12 0.750000 0.750000 0.952578
O O13 0.866033 0.710991 0.900846
O O14 0.872515 0.708918 0.000000
O O15 0.819176 0.500000 0.158351
O O16 0.750000 0.750000 0.158117
O O17 0.500000 0.191310 0.586805
O O18 0.392317 0.000000 0.604717
#
# Coordination Sequence:
#
# PCOD8268258 Si02
#       6
#     8  16  16  16  16  16
#     4  10  21  37  57  83 115 150 187 226 268 314
#     4  10  22  39  56  75 103 138 174 217 268 316
#     4  11  23  39  59  83 110 140 177 220 267 319
#     4   8  14  25  42  67  99 131 164 206 255 304
#     4  10  19  31  51  78 105 135 173 215 259 311
#     4  10  21  38  60  85 114 148 184 223 268 316
#
# _framework density 18.961776
#
# number of rings (size 3 to 8) (size 9 to 14) (size 15 to 20)
#    0.000    2.182    0.000    3.000    0.000    8.364 
#    0.000    0.000    0.000    2.182    0.000    3.818 
#    0.000    0.000    0.000    0.000    0.000    0.000 
#
# Total GULP energy -545327.345559 kJ/mol
# GULP energy per Si atom -12393.803308 kJ/mol
# Density = 1.891862 g / cm^3
# Si number density = 18.961776 Si / 1000 Ang^3
#
#
#
# Elastic Constant Matrix: (Units=GPa)
#
#
# Indices 1 2 3 4 5 6 
#
# 1 78.5094 28.1521 41.5970 0.0000 0.0000 0.0000
# 2 28.1521 57.6535 53.4542 0.0000 0.0000 0.0000
# 3 41.5970 53.4542 156.8347 0.0000 0.0000 0.0000
# 4 0.0000 0.0000 0.0000 20.0401 0.0000 0.0000
# 5 0.0000 0.0000 0.0000 0.0000 9.1907 0.0000
# 6 0.0000 0.0000 0.0000 0.0000 0.0000 27.5486
#
#
#
# Elastic Compliance Matrix: (Units=1/GPa)
#
#
# Indices 1 2 3 4 5 6 
#
# 1 0.015994 -0.005668 -0.002310 0.000000 0.000000 0.000000
# 2 -0.005668 0.027367 -0.007824 0.000000 0.000000 0.000000
# 3 -0.002310 -0.007824 0.009656 0.000000 0.000000 0.000000
# 4 0.000000 0.000000 0.000000 0.049900 0.000000 0.000000
# 5 0.000000 0.000000 0.000000 0.000000 0.108806 0.000000
# 6 0.000000 0.000000 0.000000 0.000000 0.000000 0.036300
#
#
# Mechanical properties :
#
#
# Convention : Reuss Voigt Hill
#
# Bulk Modulus (GPa) = 46.70326 59.93382 53.31854
# Shear Modulus (GPa) = 17.43598 22.67550 20.05574
#
# Velocity S-wave (km/s) = 3.03567 3.46186 3.25575
# Velocity P-wave (km/s) = 6.08036 6.90331 6.50486
#
# Compressibility (1/GPa) = 0.02141178
#
# Stress axis : x y z
#
# Youngs Moduli (GPa) = 62.52452 36.54052 103.56648
#
# Poissons Ratio (x) = 0.20710 0.23926
# Poissons Ratio (y) = 0.35437 0.81033
# Poissons Ratio (z) = 0.14445 0.28590
#
# Static dielectric constant tensor:
#      x y z
#    x 3.201930 0.000000 0.000000 
#    y 0.000000 3.468700 0.000000 
#    z 0.000000 0.000000 4.087030 
# 
# 
# High freq. dielectric constant tensor:
#      x y z
#    x 1.712880 0.000000 0.000000 
#    y 0.000000 1.737820 0.000000 
#    z 0.000000 0.000000 1.765570 
# 
# From -- ./inp_files/77869.got.cif
#   From: 2010.03.12/outbox.cif.g09.slc.cpg/sg65_39_cif.got.tgz:77869.got - 2010.04.10 20:52:16.
