data_PCOD8268912
_publ_section_title
;
Structure prediction by ZEFSAII (Michael W. Deem and Ramdas Pophale) SiO2 
 PCOD8268912
Probable space group: C M M M
;
_chemical_formula_sum "Si O2"
_cell_formula_units_Z 104
_cell_length_a 28.765590
_cell_length_b 9.051737
_cell_length_c 23.203894
_cell_angle_alpha 90.000000
_cell_angle_beta 90.000000
_cell_angle_gamma 90.000000
_cell_volume 6041.796398
_symmetry_space_group_name_H-M "C M M M"
_symmetry_group_IT_number 65
_symmetry_cell_setting 'orthorhombic'
loop_
_space_group_symop_operation_xyz
x,y,z
-x,-y,z
x,-y,-z
-x,y,-z
-x,-y,-z
x,y,-z
-x,y,z
x,-y,z
1/2+x,1/2+y,z
1/2-x,1/2-y,z
1/2+x,1/2-y,-z
1/2-x,1/2+y,-z
1/2-x,1/2-y,-z
1/2+x,1/2+y,-z
1/2-x,1/2+y,z
1/2+x,1/2-y,z
loop_
_atom_site_type_symbol
_atom_site_label
_atom_site_fract_x
_atom_site_fract_y
_atom_site_fract_z
Si Si1 0.703023 0.172505 0.748165
Si Si2 0.608172 0.824683 0.436501
Si Si3 0.444709 0.166872 0.000000
Si Si4 0.554019 0.826980 0.674071
Si Si5 0.946852 0.172417 0.886969
Si Si6 0.889682 0.174768 0.774600
Si Si7 0.203947 0.670883 0.386727
O O1 0.750000 0.250000 0.770296
O O2 0.660193 0.248425 0.780616
O O3 0.696247 0.200620 0.680575
O O4 0.704929 0.000000 0.763351
O O5 0.594431 0.763814 0.500000
O O6 0.569820 0.775349 0.389797
O O7 0.659052 0.763228 0.419263
O O8 0.610825 0.000000 0.437472
O O9 0.425549 0.245549 0.057418
O O10 0.500000 0.178266 0.000000
O O11 0.426661 0.000000 0.000000
O O12 0.500000 0.791147 0.680915
O O13 0.582408 0.733679 0.719909
O O14 0.564899 0.000000 0.683643
O O15 0.917755 0.219626 0.831465
O O16 0.000000 0.220441 0.875458
O O17 0.943312 0.000000 0.899577
O O18 0.883475 0.000000 0.768308
O O19 0.210559 0.500000 0.400093
O O20 0.250000 0.750000 0.410159
#
# Coordination Sequence:
#
# PCOD8268912 Si02
#       7
#    16  16   8  16  16  16  16
#     4  10  19  33  52  75 103 131 164 205 254 306
#     4   9  17  31  49  69  94 124 161 206 255 308
#     4   9  17  29  47  73 104 137 174 213 251 289
#     4  10  20  34  51  71  96 128 167 213 262 306
#     4   9  18  32  49  71 103 142 178 209 245 293
#     4  11  21  33  52  77 104 135 171 209 253 301
#     4   9  17  30  48  69  94 121 152 194 247 304
#
# _framework density 17.213422999999999
#
# number of rings (size 3 to 8) (size 9 to 14) (size 15 to 20)
#    0.000    2.385    1.538    1.615    0.000    4.308 
#    0.000    3.077    0.000    1.385    0.000    1.615 
#    0.000    0.000    0.000    0.000    0.000    0.000 
#
# Total GULP energy -644805.379176 kJ/mol
# GULP energy per Si atom -12400.103446 kJ/mol
# Density = 1.717424 g / cm^3
# Si number density = 17.213423 Si / 1000 Ang^3
#
#
#
# Elastic Constant Matrix: (Units=GPa)
#
#
# Indices 1 2 3 4 5 6 
#
# 1 108.4906 45.5408 56.3274 0.0000 0.0000 0.0000
# 2 45.5408 63.3189 46.9138 0.0000 0.0000 0.0000
# 3 56.3274 46.9138 113.5918 0.0000 0.0000 0.0000
# 4 0.0000 0.0000 0.0000 19.3050 0.0000 0.0000
# 5 0.0000 0.0000 0.0000 0.0000 18.5586 0.0000
# 6 0.0000 0.0000 0.0000 0.0000 0.0000 27.7207
#
#
#
# Elastic Compliance Matrix: (Units=1/GPa)
#
#
# Indices 1 2 3 4 5 6 
#
# 1 0.014437 -0.007319 -0.004136 0.000000 0.000000 0.000000
# 2 -0.007319 0.026467 -0.007302 0.000000 0.000000 0.000000
# 3 -0.004136 -0.007302 0.013870 0.000000 0.000000 0.000000
# 4 0.000000 0.000000 0.000000 0.051800 0.000000 0.000000
# 5 0.000000 0.000000 0.000000 0.000000 0.053883 0.000000
# 6 0.000000 0.000000 0.000000 0.000000 0.000000 0.036074
#
#
# Mechanical properties :
#
#
# Convention : Reuss Voigt Hill
#
# Bulk Modulus (GPa) = 57.93588 64.77393 61.35491
# Shear Modulus (GPa) = 20.85075 22.22480 21.53777
#
# Velocity S-wave (km/s) = 3.48416 3.59713 3.54110
# Velocity P-wave (km/s) = 7.06515 7.41377 7.24156
#
# Compressibility (1/GPa) = 0.01726046
#
# Stress axis : x y z
#
# Youngs Moduli (GPa) = 69.26550 37.78285 72.09742
#
# Poissons Ratio (x) = 0.27653 0.29821
# Poissons Ratio (y) = 0.50696 0.52643
# Poissons Ratio (z) = 0.28650 0.27588
#
# Static dielectric constant tensor:
#      x y z
#    x 3.275560 0.000000 0.000000 
#    y 0.000000 3.111920 0.000000 
#    z 0.000000 0.000000 3.240670 
# 
# 
# High freq. dielectric constant tensor:
#      x y z
#    x 1.658620 0.000000 0.000000 
#    y 0.000000 1.652560 0.000000 
#    z 0.000000 0.000000 1.653020 
# 
# From -- ./inp_files/60807.got.cif
#   From: 2010.03.12/outbox.cif.g09.slc.cpg/sg65_31_cif.got.tgz:60807.got - 2010.04.10 20:52:16.
