data_PCOD8268598
_publ_section_title
;
Structure prediction by ZEFSAII (Michael W. Deem and Ramdas Pophale) SiO2 
 PCOD8268598
Probable space group: C M M M
;
_chemical_formula_sum "Si O2"
_cell_formula_units_Z 120
_cell_length_a 8.889906
_cell_length_b 26.356222
_cell_length_c 27.548924
_cell_angle_alpha 90.000000
_cell_angle_beta 90.000000
_cell_angle_gamma 90.000000
_cell_volume 6454.832348
_symmetry_space_group_name_H-M "C M M M"
_symmetry_group_IT_number 65
_symmetry_cell_setting 'orthorhombic'
loop_
_space_group_symop_operation_xyz
x,y,z
-x,-y,z
x,-y,-z
-x,y,-z
-x,-y,-z
x,y,-z
-x,y,z
x,-y,z
1/2+x,1/2+y,z
1/2-x,1/2-y,z
1/2+x,1/2-y,-z
1/2-x,1/2+y,-z
1/2-x,1/2-y,-z
1/2+x,1/2+y,-z
1/2-x,1/2+y,z
1/2+x,1/2-y,z
loop_
_atom_site_type_symbol
_atom_site_label
_atom_site_fract_x
_atom_site_fract_y
_atom_site_fract_z
Si Si1 0.325220 0.054376 0.906226
Si Si2 0.177795 0.557834 0.295061
Si Si3 0.677670 0.158369 0.054552
Si Si4 0.821013 0.000000 0.445643
Si Si5 0.325721 0.104562 0.193294
Si Si6 0.677559 0.699154 0.147911
Si Si7 0.178736 0.901749 0.388124
Si Si8 0.177367 0.197911 0.555640
O O1 0.500000 0.049944 0.917395
O O2 0.261505 0.100570 0.938553
O O3 0.297354 0.064338 0.849355
O O4 0.248532 0.000000 0.919508
O O5 0.235643 0.500000 0.300873
O O6 0.227929 0.578567 0.242792
O O7 0.254378 0.594296 0.334400
O O8 0.000000 0.560255 0.301260
O O9 0.500000 0.161017 0.065948
O O10 0.763510 0.193415 0.092649
O O11 0.714275 0.176530 0.000000
O O12 0.760753 0.949640 0.418995
O O13 0.755815 0.000000 0.500000
O O14 0.000000 0.000000 0.446622
O O15 0.500000 0.120935 0.195261
O O16 0.226728 0.154109 0.183354
O O17 0.500000 0.703613 0.146982
O O18 0.750000 0.750000 0.169710
O O19 0.236029 0.849602 0.412686
O O20 0.000000 0.902487 0.385403
O O21 0.226067 0.188171 0.500000
O O22 0.250000 0.250000 0.575428
O O23 0.000000 0.203413 0.560168
#
# Coordination Sequence:
#
# PCOD8268598 Si02
#       8
#    16  16  16   8  16  16  16  16
#     4   8  13  24  46  74 100 127 166 211 248 289
#     4  10  20  34  54  80 111 143 172 208 258 313
#     4   9  18  32  50  75 107 140 174 211 252 303
#     4   9  16  28  49  75 103 139 181 223 266 313
#     4   9  18  34  54  76 101 133 172 212 254 303
#     4  11  22  37  57  78 101 130 167 215 266 314
#     4  10  19  32  51  77 107 140 179 222 265 316
#     4   9  18  33  53  76 101 134 179 225 267 313
#
# _framework density 18.590723000000001
#
# number of rings (size 3 to 8) (size 9 to 14) (size 15 to 20)
#    0.000    2.600    0.667    2.800    0.000    5.067 
#    0.000    2.000    0.000   12.800    0.000    3.733 
#    0.000    0.000    0.000    0.000    0.000    0.000 
#
# Total GULP energy -743860.840024 kJ/mol
# GULP energy per Si atom -12397.680667 kJ/mol
# Density = 1.854841 g / cm^3
# Si number density = 18.590723 Si / 1000 Ang^3
#
#
#
# Elastic Constant Matrix: (Units=GPa)
#
#
# Indices 1 2 3 4 5 6 
#
# 1 48.4307 33.1960 22.4422 0.0000 0.0000 0.0000
# 2 33.1960 123.7406 30.9116 0.0000 0.0000 0.0000
# 3 22.4422 30.9116 89.1646 0.0000 0.0000 0.0000
# 4 0.0000 0.0000 0.0000 28.0926 0.0000 0.0000
# 5 0.0000 0.0000 0.0000 0.0000 26.4971 0.0000
# 6 0.0000 0.0000 0.0000 0.0000 0.0000 24.9968
#
#
#
# Elastic Compliance Matrix: (Units=1/GPa)
#
#
# Indices 1 2 3 4 5 6 
#
# 1 0.026978 -0.006067 -0.004687 0.000000 0.000000 0.000000
# 2 -0.006067 0.010212 -0.002013 0.000000 0.000000 0.000000
# 3 -0.004687 -0.002013 0.013093 0.000000 0.000000 0.000000
# 4 0.000000 0.000000 0.000000 0.035597 0.000000 0.000000
# 5 0.000000 0.000000 0.000000 0.000000 0.037740 0.000000
# 6 0.000000 0.000000 0.000000 0.000000 0.000000 0.040005
#
#
# Mechanical properties :
#
#
# Convention : Reuss Voigt Hill
#
# Bulk Modulus (GPa) = 40.40571 48.27062 44.33816
# Shear Modulus (GPa) = 25.32821 27.56970 26.44895
#
# Velocity S-wave (km/s) = 3.69509 3.85513 3.77596
# Velocity P-wave (km/s) = 6.32348 6.77032 6.55071
#
# Compressibility (1/GPa) = 0.02474898
#
# Stress axis : x y z
#
# Youngs Moduli (GPa) = 37.06689 97.92526 76.37720
#
# Poissons Ratio (x) = 0.59407 0.35799
# Poissons Ratio (y) = 0.22487 0.15377
# Poissons Ratio (z) = 0.17374 0.19716
#
# Static dielectric constant tensor:
#      x y z
#    x 3.050720 0.000000 0.000000 
#    y 0.000000 3.598050 0.000000 
#    z 0.000000 0.000000 3.386240 
# 
# 
# High freq. dielectric constant tensor:
#      x y z
#    x 1.687210 0.000000 0.000000 
#    y 0.000000 1.731330 0.000000 
#    z 0.000000 0.000000 1.714340 
# 
# From -- ./inp_files/73962.got.cif
#   From: 2010.03.12/outbox.cif.g09.slc.cpg/sg65_37_cif.got.tgz:73962.got - 2010.04.10 20:52:16.
