data_PCOD8268548
_publ_section_title
;
Structure prediction by ZEFSAII (Michael W. Deem and Ramdas Pophale) SiO2 
 PCOD8268548
Probable space group: C M M M
;
_chemical_formula_sum "Si O2"
_cell_formula_units_Z 104
_cell_length_a 8.746100
_cell_length_b 21.681745
_cell_length_c 29.195827
_cell_angle_alpha 90.000000
_cell_angle_beta 90.000000
_cell_angle_gamma 90.000000
_cell_volume 5536.425401
_symmetry_space_group_name_H-M "C M M M"
_symmetry_group_IT_number 65
_symmetry_cell_setting 'orthorhombic'
loop_
_space_group_symop_operation_xyz
x,y,z
-x,-y,z
x,-y,-z
-x,y,-z
-x,-y,-z
x,y,-z
-x,y,z
x,-y,z
1/2+x,1/2+y,z
1/2-x,1/2-y,z
1/2+x,1/2-y,-z
1/2-x,1/2+y,-z
1/2-x,1/2-y,-z
1/2+x,1/2+y,-z
1/2-x,1/2+y,z
1/2+x,1/2-y,z
loop_
_atom_site_type_symbol
_atom_site_label
_atom_site_fract_x
_atom_site_fract_y
_atom_site_fract_z
Si Si1 0.829326 0.427269 0.798795
Si Si2 0.324064 0.185766 0.054091
Si Si3 0.323348 0.899234 0.386686
Si Si4 0.675933 0.686449 0.450704
Si Si5 0.179238 0.000000 0.550685
Si Si6 0.819095 0.928998 0.105893
Si Si7 0.826684 0.073376 0.292873
O O1 0.839311 0.500000 0.793656
O O2 0.732931 0.409518 0.843433
O O3 0.745054 0.400199 0.754102
O O4 0.000000 0.399127 0.802626
O O5 0.500000 0.185998 0.069268
O O6 0.250000 0.250000 0.072902
O O7 0.247821 0.122544 0.072016
O O8 0.303885 0.183625 0.000000
O O9 0.500000 0.917463 0.388736
O O10 0.285558 0.834151 0.409026
O O11 0.271226 0.900129 0.334378
O O12 0.225261 0.941902 0.419706
O O13 0.683035 0.648925 0.500000
O O14 0.500000 0.689819 0.434032
O O15 0.750000 0.750000 0.463577
O O16 0.255923 0.000000 0.500000
O O17 0.000000 0.000000 0.545273
O O18 0.000000 0.926244 0.103022
O O19 0.764420 0.000000 0.094153
O O20 0.000000 0.097068 0.296538
O O21 0.820190 0.000000 0.294358
#
# Coordination Sequence:
#
# PCOD8268548 Si02
#       7
#    16  16  16  16   8  16  16
#     4   9  17  30  50  76 107 140 178 224 272 319
#     4  10  21  37  57  81 112 152 196 240 288 343
#     4  12  23  34  52  77 105 135 170 210 256 310
#     4  10  21  38  58  77  98 127 166 210 255 305
#     4  11  23  37  51  71 103 139 171 207 256 311
#     4  10  20  34  54  82 115 150 191 237 287 338
#     4  10  19  32  51  74 105 141 177 215 262 318
#
# _framework density 18.784683000000001
#
# number of rings (size 3 to 8) (size 9 to 14) (size 15 to 20)
#    0.000    1.769    0.769    4.385    0.000    8.000 
#    0.000    1.538    0.000    0.923    0.000    6.462 
#    0.000    0.000    0.000    0.000    0.000    0.000 
#
# Total GULP energy -644401.773550 kJ/mol
# GULP energy per Si atom -12392.341799 kJ/mol
# Density = 1.874193 g / cm^3
# Si number density = 18.784683 Si / 1000 Ang^3
#
#
#
# Elastic Constant Matrix: (Units=GPa)
#
#
# Indices 1 2 3 4 5 6 
#
# 1 118.7720 34.3581 39.7812 0.0000 0.0000 0.0000
# 2 34.3581 68.9949 32.0015 0.0000 0.0000 0.0000
# 3 39.7812 32.0015 75.3527 0.0000 0.0000 0.0000
# 4 0.0000 0.0000 0.0000 -6.5110 0.0000 0.0000
# 5 0.0000 0.0000 0.0000 0.0000 33.0939 0.0000
# 6 0.0000 0.0000 0.0000 0.0000 0.0000 26.7551
#
#
#
# Elastic Compliance Matrix: (Units=1/GPa)
#
#
# Indices 1 2 3 4 5 6 
#
# 1 0.010838 -0.003416 -0.004271 0.000000 0.000000 0.000000
# 2 -0.003416 0.019126 -0.006319 0.000000 0.000000 0.000000
# 3 -0.004271 -0.006319 0.018209 0.000000 0.000000 0.000000
# 4 0.000000 0.000000 0.000000 -0.153585 0.000000 0.000000
# 5 0.000000 0.000000 0.000000 0.000000 0.030217 0.000000
# 6 0.000000 0.000000 0.000000 0.000000 0.000000 0.037376
#
#
# Mechanical properties :
#
#
# Convention : Reuss Voigt Hill
#
# Bulk Modulus (GPa) = 49.60081 52.82235 51.21158
# Shear Modulus (GPa) = -1620.42859 21.13285 -799.64787
#
# Velocity S-wave (km/s) = -29.40248 3.35775 -20.65467
# Velocity P-wave (km/s) = 33.55908 6.57370 23.27013
#
# Compressibility (1/GPa) = 0.02016096
#
# Stress axis : x y z
#
# Youngs Moduli (GPa) = 92.26567 52.28498 54.91673
#
# Poissons Ratio (x) = 0.17862 0.23455
# Poissons Ratio (y) = 0.31520 0.34702
# Poissons Ratio (z) = 0.39407 0.33039
#
# Static dielectric constant tensor:
#      x y z
#    x 3.600740 0.000000 0.000000 
#    y 0.000000 2.603700 0.000000 
#    z 0.000000 0.000000 3.544070 
# 
# 
# High freq. dielectric constant tensor:
#      x y z
#    x 1.745550 0.000000 0.000000 
#    y 0.000000 1.696370 0.000000 
#    z 0.000000 0.000000 1.734100 
# 
# From -- ./inp_files/73317.got.cif
#   From: 2010.03.12/outbox.cif.g09.slc.cpg/sg65_37_cif.got.tgz:73317.got - 2010.04.10 20:52:16.
