data_PCOD8268786
_publ_section_title
;
Structure prediction by ZEFSAII (Michael W. Deem and Ramdas Pophale) SiO2 
 PCOD8268786
Probable space group: C M M M
;
_chemical_formula_sum "Si O2"
_cell_formula_units_Z 72
_cell_length_a 14.869398
_cell_length_b 8.846439
_cell_length_c 26.674553
_cell_angle_alpha 90.000000
_cell_angle_beta 90.000000
_cell_angle_gamma 90.000000
_cell_volume 3508.803308
_symmetry_space_group_name_H-M "C M M M"
_symmetry_group_IT_number 65
_symmetry_cell_setting 'orthorhombic'
loop_
_space_group_symop_operation_xyz
x,y,z
-x,-y,z
x,-y,-z
-x,y,-z
-x,-y,-z
x,y,-z
-x,y,z
x,-y,z
1/2+x,1/2+y,z
1/2-x,1/2-y,z
1/2+x,1/2-y,-z
1/2-x,1/2+y,-z
1/2-x,1/2-y,-z
1/2+x,1/2+y,-z
1/2-x,1/2+y,z
1/2+x,1/2-y,z
loop_
_atom_site_type_symbol
_atom_site_label
_atom_site_fract_x
_atom_site_fract_y
_atom_site_fract_z
Si Si1 0.106932 0.169644 0.347133
Si Si2 0.341720 0.821485 0.752873
Si Si3 0.500000 0.321404 0.185244
Si Si4 0.000000 0.322079 0.078369
Si Si5 0.893068 0.669960 0.445051
Si Si6 0.151291 0.323822 0.000000
O O1 0.144286 0.282064 0.305364
O O2 0.144896 0.222142 0.401279
O O3 0.000000 0.175719 0.346135
O O4 0.141575 0.000000 0.336436
O O5 0.250000 0.750000 0.772498
O O6 0.414685 0.748084 0.788143
O O7 0.342422 0.000000 0.759631
O O8 0.500000 0.500000 0.192634
O O9 0.500000 0.279901 0.127252
O O10 0.000000 0.500000 0.091297
O O11 0.090992 0.279216 0.048207
O O12 0.860582 0.728339 0.500000
O O13 0.858074 0.500000 0.435879
O O14 0.000000 0.671045 0.443414
O O15 0.250000 0.250000 0.000000
O O16 0.169594 0.500000 0.000000
#
# Coordination Sequence:
#
# PCOD8268786 Si02
#       6
#    16  16   8   8  16   8
#     4  10  19  32  53  80 113 149 191 243 298 364
#     4  12  25  42  64  88 118 159 204 255 311 370
#     4  12  25  43  65  94 129 165 210 261 310 367
#     4   9  20  40  62  90 128 173 213 253 308 363
#     4   8  14  25  43  70 104 142 187 236 289 354
#     4   9  19  37  64  94 130 171 215 259 303 358
#
# _framework density 20.519818000000001
#
# number of rings (size 3 to 8) (size 9 to 14) (size 15 to 20)
#    0.000    2.000    1.111    5.000    0.000    3.111 
#    0.000    5.556    0.000    0.667    0.000    0.000 
#    0.000    0.000    0.000    0.000    0.000    0.000 
#
# Total GULP energy -446330.239681 kJ/mol
# GULP energy per Si atom -12398.062213 kJ/mol
# Density = 2.047311 g / cm^3
# Si number density = 20.519818 Si / 1000 Ang^3
#
#
#
# Elastic Constant Matrix: (Units=GPa)
#
#
# Indices 1 2 3 4 5 6 
#
# 1 120.9989 62.1817 61.1610 0.0000 0.0000 0.0000
# 2 62.1817 160.0992 71.9031 0.0000 0.0000 0.0000
# 3 61.1610 71.9031 144.4431 0.0000 0.0000 0.0000
# 4 0.0000 0.0000 0.0000 35.1542 0.0000 0.0000
# 5 0.0000 0.0000 0.0000 0.0000 45.6591 0.0000
# 6 0.0000 0.0000 0.0000 0.0000 0.0000 30.8260
#
#
#
# Elastic Compliance Matrix: (Units=1/GPa)
#
#
# Indices 1 2 3 4 5 6 
#
# 1 0.011494 -0.002935 -0.003406 0.000000 0.000000 0.000000
# 2 -0.002935 0.008794 -0.003135 0.000000 0.000000 0.000000
# 3 -0.003406 -0.003135 0.009926 0.000000 0.000000 0.000000
# 4 0.000000 0.000000 0.000000 0.028446 0.000000 0.000000
# 5 0.000000 0.000000 0.000000 0.000000 0.021901 0.000000
# 6 0.000000 0.000000 0.000000 0.000000 0.000000 0.032440
#
#
# Mechanical properties :
#
#
# Convention : Reuss Voigt Hill
#
# Bulk Modulus (GPa) = 88.78840 90.67029 89.72934
# Shear Modulus (GPa) = 36.84392 37.68088 37.26240
#
# Velocity S-wave (km/s) = 4.24196 4.28988 4.26599
# Velocity P-wave (km/s) = 8.20706 8.29578 8.25154
#
# Compressibility (1/GPa) = 0.01126273
#
# Stress axis : x y z
#
# Youngs Moduli (GPa) = 86.99940 113.71567 100.74570
#
# Poissons Ratio (x) = 0.33371 0.34316
# Poissons Ratio (y) = 0.25531 0.31583
# Poissons Ratio (z) = 0.29634 0.35650
#
# Static dielectric constant tensor:
#      x y z
#    x 3.684040 0.000000 0.000000 
#    y 0.000000 3.776530 0.000000 
#    z 0.000000 0.000000 3.892780 
# 
# 
# High freq. dielectric constant tensor:
#      x y z
#    x 1.796190 0.000000 0.000000 
#    y 0.000000 1.803500 0.000000 
#    z 0.000000 0.000000 1.805320 
# 
# From -- ./inp_files/74706.got.cif
#   From: 2010.03.12/outbox.cif.g09.slc.cpg/sg65_38_cif.got.tgz:74706.got - 2010.04.10 20:52:16.
