data_PCOD8268089
_publ_section_title
;
Structure prediction by ZEFSAII (Michael W. Deem and Ramdas Pophale) SiO2 
 PCOD8268089
Probable space group: C M M M
;
_chemical_formula_sum "Si O2"
_cell_formula_units_Z 64
_cell_length_a 15.495220
_cell_length_b 8.950693
_cell_length_c 22.556462
_cell_angle_alpha 90.000000
_cell_angle_beta 90.000000
_cell_angle_gamma 90.000000
_cell_volume 3128.422418
_symmetry_space_group_name_H-M "C M M M"
_symmetry_group_IT_number 65
_symmetry_cell_setting 'orthorhombic'
loop_
_space_group_symop_operation_xyz
x,y,z
-x,-y,z
x,-y,-z
-x,y,-z
-x,-y,-z
x,y,-z
-x,y,z
x,-y,z
1/2+x,1/2+y,z
1/2-x,1/2-y,z
1/2+x,1/2-y,-z
1/2-x,1/2+y,-z
1/2-x,1/2-y,-z
1/2+x,1/2+y,-z
1/2-x,1/2+y,z
1/2+x,1/2-y,z
loop_
_atom_site_type_symbol
_atom_site_label
_atom_site_fract_x
_atom_site_fract_y
_atom_site_fract_z
Si Si1 0.337106 0.322932 0.358844
Si Si2 0.905321 0.822401 0.000000
Si Si3 0.500000 0.677635 0.433342
Si Si4 0.396876 0.667734 0.873278
Si Si5 0.398238 0.828353 0.243142
O O1 0.329385 0.500000 0.360993
O O2 0.250000 0.250000 0.384503
O O3 0.415414 0.263256 0.399419
O O4 0.350722 0.271922 0.291492
O O5 0.858900 0.776346 0.062367
O O6 0.000000 0.747941 0.000000
O O7 0.914737 0.000000 0.000000
O O8 0.500000 0.500000 0.433922
O O9 0.500000 0.742045 0.500000
O O10 0.500000 0.669332 0.877719
O O11 0.365029 0.500000 0.858544
O O12 0.364446 0.777668 0.821537
O O13 0.500000 0.801195 0.248672
O O14 0.373202 0.000000 0.253167
#
# Coordination Sequence:
#
# PCOD8268089 Si02
#       5
#    16   8   8  16  16
#     4  11  22  38  61  88 118 154 194 235 283 336
#     4   7  10  18  33  57  90 129 176 230 279 334
#     4   9  20  40  65  91 121 156 191 228 275 335
#     4   8  13  22  39  63  94 135 183 231 284 340
#     4  10  19  31  49  75 109 146 189 239 288 337
#
# _framework density 20.457595000000001
#
# number of rings (size 3 to 8) (size 9 to 14) (size 15 to 20)
#    0.000    2.750    1.250    3.000    0.000    1.500 
#    0.000    0.625    0.000    9.000    0.000    0.875 
#    0.000    0.000    0.000    0.000    0.000    0.000 
#
# Total GULP energy -396586.064520 kJ/mol
# GULP energy per Si atom -12393.314516 kJ/mol
# Density = 2.041103 g / cm^3
# Si number density = 20.457595 Si / 1000 Ang^3
#
#
#
# Elastic Constant Matrix: (Units=GPa)
#
#
# Indices 1 2 3 4 5 6 
#
# 1 89.7684 34.4478 55.9178 0.0000 0.0000 0.0000
# 2 34.4478 71.8530 35.0129 0.0000 0.0000 0.0000
# 3 55.9178 35.0129 162.2844 0.0000 0.0000 0.0000
# 4 0.0000 0.0000 0.0000 15.2588 0.0000 0.0000
# 5 0.0000 0.0000 0.0000 0.0000 1.3975 0.0000
# 6 0.0000 0.0000 0.0000 0.0000 0.0000 23.0531
#
#
#
# Elastic Compliance Matrix: (Units=1/GPa)
#
#
# Indices 1 2 3 4 5 6 
#
# 1 0.015947 -0.005551 -0.004297 0.000000 0.000000 0.000000
# 2 -0.005551 0.017485 -0.001860 0.000000 0.000000 0.000000
# 3 -0.004297 -0.001860 0.008044 0.000000 0.000000 0.000000
# 4 0.000000 0.000000 0.000000 0.065536 0.000000 0.000000
# 5 0.000000 0.000000 0.000000 0.000000 0.715570 0.000000
# 6 0.000000 0.000000 0.000000 0.000000 0.000000 0.043378
#
#
# Mechanical properties :
#
#
# Convention : Reuss Voigt Hill
#
# Bulk Modulus (GPa) = 55.37212 63.85140 59.61176
# Shear Modulus (GPa) = 5.58412 21.17702 13.38057
#
# Velocity S-wave (km/s) = 1.65395 3.22089 2.56024
# Velocity P-wave (km/s) = 5.54733 6.71651 6.15973
#
# Compressibility (1/GPa) = 0.01805963
#
# Stress axis : x y z
#
# Youngs Moduli (GPa) = 62.70888 57.19236 124.31891
#
# Poissons Ratio (x) = 0.31749 0.53420
# Poissons Ratio (y) = 0.34812 0.23118
# Poissons Ratio (z) = 0.26946 0.10635
#
# Static dielectric constant tensor:
#      x y z
#    x 3.452960 0.000000 0.000000 
#    y 0.000000 3.404640 0.000000 
#    z 0.000000 0.000000 4.104760 
# 
# 
# High freq. dielectric constant tensor:
#      x y z
#    x 1.767580 0.000000 0.000000 
#    y 0.000000 1.770980 0.000000 
#    z 0.000000 0.000000 1.812480 
# 
# From -- ./inp_files/69560.got.cif
#   From: 2010.03.12/outbox.cif.g09.slc.cpg/sg65_35_cif.got.tgz:69560.got - 2010.04.10 20:52:16.
