data_PCOD8268043
_publ_section_title
;
Structure prediction by ZEFSAII (Michael W. Deem and Ramdas Pophale) SiO2 
 PCOD8268043
Probable space group: C M M M
;
_chemical_formula_sum "Si O2"
_cell_formula_units_Z 96
_cell_length_a 28.153371
_cell_length_b 9.996367
_cell_length_c 18.123647
_cell_angle_alpha 90.000000
_cell_angle_beta 90.000000
_cell_angle_gamma 90.000000
_cell_volume 5100.563870
_symmetry_space_group_name_H-M "C M M M"
_symmetry_group_IT_number 65
_symmetry_cell_setting 'orthorhombic'
loop_
_space_group_symop_operation_xyz
x,y,z
-x,-y,z
x,-y,-z
-x,y,-z
-x,-y,-z
x,y,-z
-x,y,z
x,-y,z
1/2+x,1/2+y,z
1/2-x,1/2-y,z
1/2+x,1/2-y,-z
1/2-x,1/2+y,-z
1/2-x,1/2-y,-z
1/2+x,1/2+y,-z
1/2-x,1/2+y,z
1/2+x,1/2-y,z
loop_
_atom_site_type_symbol
_atom_site_label
_atom_site_fract_x
_atom_site_fract_y
_atom_site_fract_z
Si Si1 0.791983 0.652887 0.808806
Si Si2 0.946285 0.000000 0.586738
Si Si3 0.106579 0.340847 0.855088
Si Si4 0.105241 0.268443 0.415492
Si Si5 0.551372 0.851052 0.282409
Si Si6 0.054003 0.340513 0.000000
Si Si7 0.206262 0.344307 0.364202
O O1 0.777749 0.500000 0.827194
O O2 0.750000 0.750000 0.834019
O O3 0.838173 0.700926 0.854058
O O4 0.803639 0.667092 0.722455
O O5 0.914689 0.125483 0.611928
O O6 0.951626 0.000000 0.500000
O O7 0.000000 0.000000 0.620978
O O8 0.104334 0.500000 0.852557
O O9 0.080972 0.277814 0.782608
O O10 0.081092 0.284132 0.928082
O O11 0.090626 0.299113 0.500000
O O12 0.079519 0.368117 0.359390
O O13 0.161687 0.283354 0.408039
O O14 0.500000 0.779502 0.293693
O O15 0.542255 0.000000 0.253774
O O16 0.054628 0.500000 0.000000
O O17 0.000000 0.287251 0.000000
O O18 0.215384 0.500000 0.386547
O O19 0.250000 0.250000 0.387839
#
# Coordination Sequence:
#
# PCOD8268043 Si02
#       7
#    16   8  16  16  16   8  16
#     4   9  17  32  52  74 105 139 174 218 268 318
#     4   9  20  38  56  74 102 141 181 225 278 331
#     4   9  16  29  48  72 105 139 168 207 260 311
#     4  11  22  36  54  74 103 138 179 227 277 327
#     4  10  19  31  49  73 102 135 171 214 266 323
#     4   9  16  26  45  76 109 139 171 205 250 311
#     4  10  21  36  55  79 107 142 184 231 283 335
#
# _framework density 18.821448
#
# number of rings (size 3 to 8) (size 9 to 14) (size 15 to 20)
#    0.000    2.333    1.667    1.500    1.167    4.667 
#    0.000    1.250    0.000    0.000    0.000    0.000 
#    0.000    0.667    0.000    0.000    0.000    0.000 
#
# Total GULP energy -594871.167760 kJ/mol
# GULP energy per Si atom -12393.149328 kJ/mol
# Density = 1.877861 g / cm^3
# Si number density = 18.821448 Si / 1000 Ang^3
#
#
#
# Elastic Constant Matrix: (Units=GPa)
#
#
# Indices 1 2 3 4 5 6 
#
# 1 169.0617 51.0333 69.2159 0.0000 0.0000 0.0000
# 2 51.0333 69.2811 13.9412 0.0000 0.0000 0.0000
# 3 69.2159 13.9412 111.4484 0.0000 0.0000 0.0000
# 4 0.0000 0.0000 0.0000 8.7195 0.0000 0.0000
# 5 0.0000 0.0000 0.0000 0.0000 32.8976 0.0000
# 6 0.0000 0.0000 0.0000 0.0000 0.0000 27.0364
#
#
#
# Elastic Compliance Matrix: (Units=1/GPa)
#
#
# Indices 1 2 3 4 5 6 
#
# 1 0.010052 -0.006307 -0.005454 0.000000 0.000000 0.000000
# 2 -0.006307 0.018764 0.001570 0.000000 0.000000 0.000000
# 3 -0.005454 0.001570 0.012163 0.000000 0.000000 0.000000
# 4 0.000000 0.000000 0.000000 0.114685 0.000000 0.000000
# 5 0.000000 0.000000 0.000000 0.000000 0.030397 0.000000
# 6 0.000000 0.000000 0.000000 0.000000 0.000000 0.036987
#
#
# Mechanical properties :
#
#
# Convention : Reuss Voigt Hill
#
# Bulk Modulus (GPa) = 48.55015 68.68578 58.61797
# Shear Modulus (GPa) = 19.97639 28.10409 24.04024
#
# Velocity S-wave (km/s) = 3.26139 3.86838 3.57778
# Velocity P-wave (km/s) = 6.32719 7.51832 6.94832
#
# Compressibility (1/GPa) = 0.02059726
#
# Stress axis : x y z
#
# Youngs Moduli (GPa) = 99.48709 53.29450 82.21339
#
# Poissons Ratio (x) = 0.33611 0.44837
# Poissons Ratio (y) = 0.62743 -0.12905
# Poissons Ratio (z) = 0.54257 -0.08365
#
# Static dielectric constant tensor:
#      x y z
#    x 3.689630 0.000000 0.000000 
#    y 0.000000 3.201510 0.000000 
#    z 0.000000 0.000000 3.364920 
# 
# 
# High freq. dielectric constant tensor:
#      x y z
#    x 1.747580 0.000000 0.000000 
#    y 0.000000 1.686110 0.000000 
#    z 0.000000 0.000000 1.715750 
# 
# From -- ./inp_files/57486.got.cif
#   From: 2010.03.12/outbox.cif.g09.slc.cpg/sg65_29_cif.got.tgz:57486.got - 2010.04.10 20:52:16.
