data_PCOD8268005
_publ_section_title
;
Structure prediction by ZEFSAII (Michael W. Deem and Ramdas Pophale) SiO2 
 PCOD8268005
Probable space group: C M M M
;
_chemical_formula_sum "Si O2"
_cell_formula_units_Z 88
_cell_length_a 17.656517
_cell_length_b 21.474209
_cell_length_c 13.744534
_cell_angle_alpha 90.000000
_cell_angle_beta 90.000000
_cell_angle_gamma 90.000000
_cell_volume 5211.373887
_symmetry_space_group_name_H-M "C M M M"
_symmetry_group_IT_number 65
_symmetry_cell_setting 'orthorhombic'
loop_
_space_group_symop_operation_xyz
x,y,z
-x,-y,z
x,-y,-z
-x,y,-z
-x,-y,-z
x,y,-z
-x,y,z
x,-y,z
1/2+x,1/2+y,z
1/2-x,1/2-y,z
1/2+x,1/2-y,-z
1/2-x,1/2+y,-z
1/2-x,1/2-y,-z
1/2+x,1/2+y,-z
1/2-x,1/2+y,z
1/2+x,1/2-y,z
loop_
_atom_site_type_symbol
_atom_site_label
_atom_site_fract_x
_atom_site_fract_y
_atom_site_fract_z
Si Si1 0.089243 0.186489 0.893656
Si Si2 0.154441 0.629260 0.386004
Si Si3 0.911579 0.748624 0.701884
Si Si4 0.585165 0.000000 0.615250
Si Si5 0.670418 0.361364 0.611569
Si Si6 0.411381 0.569785 0.225599
O O1 0.114067 0.237862 0.813713
O O2 0.115411 0.117902 0.857628
O O3 0.000000 0.187278 0.905352
O O4 0.126278 0.200146 0.000000
O O5 0.136782 0.638126 0.500000
O O6 0.104599 0.677675 0.324664
O O7 0.130222 0.560931 0.348909
O O8 0.241459 0.641089 0.361387
O O9 0.865102 0.793562 0.630273
O O10 0.000000 0.763835 0.688958
O O11 0.500000 0.000000 0.658415
O O12 0.581601 0.000000 0.500000
O O13 0.659146 0.380121 0.500000
O O14 0.630735 0.415005 0.673977
O O15 0.500000 0.577448 0.246387
O O16 0.390994 0.500000 0.191550
#
# Coordination Sequence:
#
# PCOD8268005 Si02
#       6
#    16  16  16   8  16  16
#     4   8  15  29  48  70  94 118 151 198 245 288
#     4  10  20  32  48  69  96 129 162 197 238 281
#     4  10  19  31  49  72  96 123 159 200 240 284
#     4   9  18  32  48  68  92 120 160 203 236 270
#     4  10  20  31  45  65  97 132 162 192 232 284
#     4   9  18  30  45  68  95 126 165 200 233 278
#
# _framework density 16.886142
#
# number of rings (size 3 to 8) (size 9 to 14) (size 15 to 20)
#    0.000    2.636    0.000    3.273    1.273    5.455 
#    0.000    2.727    0.000    8.727    0.000    0.636 
#    0.000    3.636    0.000    0.000    0.000    0.000 
#
# Total GULP energy -545501.342239 kJ/mol
# GULP energy per Si atom -12397.757778 kJ/mol
# Density = 1.684771 g / cm^3
# Si number density = 16.886142 Si / 1000 Ang^3
#
#
#
# Elastic Constant Matrix: (Units=GPa)
#
#
# Indices 1 2 3 4 5 6 
#
# 1 71.1276 37.3735 29.2729 0.0000 0.0000 0.0000
# 2 37.3735 131.7330 39.9588 0.0000 0.0000 0.0000
# 3 29.2729 39.9588 85.7458 0.0000 0.0000 0.0000
# 4 0.0000 0.0000 0.0000 16.2808 0.0000 0.0000
# 5 0.0000 0.0000 0.0000 0.0000 8.6938 0.0000
# 6 0.0000 0.0000 0.0000 0.0000 0.0000 23.7829
#
#
#
# Elastic Compliance Matrix: (Units=1/GPa)
#
#
# Indices 1 2 3 4 5 6 
#
# 1 0.017808 -0.003736 -0.004338 0.000000 0.000000 0.000000
# 2 -0.003736 0.009625 -0.003210 0.000000 0.000000 0.000000
# 3 -0.004338 -0.003210 0.014639 0.000000 0.000000 0.000000
# 4 0.000000 0.000000 0.000000 0.061422 0.000000 0.000000
# 5 0.000000 0.000000 0.000000 0.000000 0.115024 0.000000
# 6 0.000000 0.000000 0.000000 0.000000 0.000000 0.042047
#
#
# Mechanical properties :
#
#
# Convention : Reuss Voigt Hill
#
# Bulk Modulus (GPa) = 51.27356 55.75741 53.51548
# Shear Modulus (GPa) = 17.26313 21.88492 19.57403
#
# Velocity S-wave (km/s) = 3.20085 3.60395 3.40836
# Velocity P-wave (km/s) = 6.64009 7.09994 6.87386
#
# Compressibility (1/GPa) = 0.01950323
#
# Stress axis : x y z
#
# Youngs Moduli (GPa) = 56.15490 103.89908 68.30966
#
# Poissons Ratio (x) = 0.38819 0.29635
# Poissons Ratio (y) = 0.20981 0.21926
# Poissons Ratio (z) = 0.24362 0.33349
#
# Static dielectric constant tensor:
#      x y z
#    x 3.064760 0.000000 0.000000 
#    y 0.000000 3.224660 0.000000 
#    z 0.000000 0.000000 3.228000 
# 
# 
# High freq. dielectric constant tensor:
#      x y z
#    x 1.638940 0.000000 0.000000 
#    y 0.000000 1.652720 0.000000 
#    z 0.000000 0.000000 1.628430 
# 
# From -- ./inp_files/28703.got.cif
#   From: 2010.03.12/outbox.cif.g09.slc.cpg/sg65_15_cif.got.tgz:28703.got - 2010.04.10 20:52:16.
