data_PCOD8268031
_publ_section_title
;
Structure prediction by ZEFSAII (Michael W. Deem and Ramdas Pophale) SiO2 
 PCOD8268031
Probable space group: C M M M
;
_chemical_formula_sum "Si O2"
_cell_formula_units_Z 88
_cell_length_a 18.460306
_cell_length_b 9.049555
_cell_length_c 28.888751
_cell_angle_alpha 90.000000
_cell_angle_beta 90.000000
_cell_angle_gamma 90.000000
_cell_volume 4826.084094
_symmetry_space_group_name_H-M "C M M M"
_symmetry_group_IT_number 65
_symmetry_cell_setting 'orthorhombic'
loop_
_space_group_symop_operation_xyz
x,y,z
-x,-y,z
x,-y,-z
-x,y,-z
-x,-y,-z
x,y,-z
-x,y,z
x,-y,z
1/2+x,1/2+y,z
1/2-x,1/2-y,z
1/2+x,1/2-y,-z
1/2-x,1/2+y,-z
1/2-x,1/2-y,-z
1/2+x,1/2+y,-z
1/2-x,1/2+y,z
1/2+x,1/2-y,z
loop_
_atom_site_type_symbol
_atom_site_label
_atom_site_fract_x
_atom_site_fract_y
_atom_site_fract_z
Si Si1 0.913806 0.333237 0.819247
Si Si2 0.172980 0.825582 0.000000
Si Si3 0.914015 0.831488 0.271606
Si Si4 0.825705 0.328760 0.548836
Si Si5 0.328041 0.174753 0.649384
Si Si6 0.083633 0.172692 0.089113
O O1 0.884007 0.500000 0.816256
O O2 0.883941 0.241198 0.775610
O O3 0.885465 0.259050 0.866426
O O4 0.000000 0.330327 0.818893
O O5 0.250000 0.750000 0.000000
O O6 0.128816 0.773547 0.044965
O O7 0.183224 0.000000 0.000000
O O8 0.884104 0.740750 0.314617
O O9 0.000000 0.822369 0.273526
O O10 0.886783 0.000000 0.273554
O O11 0.868684 0.290155 0.500000
O O12 0.807892 0.500000 0.549793
O O13 0.750000 0.250000 0.547001
O O14 0.862766 0.288534 0.598130
O O15 0.250000 0.250000 0.655509
O O16 0.319968 0.000000 0.657600
O O17 0.000000 0.211452 0.079500
O O18 0.093343 0.000000 0.098877
#
# Coordination Sequence:
#
# PCOD8268031 Si02
#       6
#    16   8  16  16  16  16
#     4   9  17  30  50  76 101 124 157 203 250 292
#     4  10  21  35  51  73 103 136 164 194 236 286
#     4  10  20  34  52  73  99 132 168 205 247 296
#     4   8  14  25  42  65  92 122 157 197 241 288
#     4  10  19  31  49  73 101 130 162 203 248 295
#     4   9  17  32  54  76  97 125 164 204 239 279
#
# _framework density 18.234245000000001
#
# number of rings (size 3 to 8) (size 9 to 14) (size 15 to 20)
#    0.000    2.727    0.000    1.909    0.000    5.818 
#    0.000    0.909    0.000    5.455    0.000    3.818 
#    0.000    0.000    0.000    0.000    0.000    0.000 
#
# Total GULP energy -545190.729417 kJ/mol
# GULP energy per Si atom -12390.698396 kJ/mol
# Density = 1.819274 g / cm^3
# Si number density = 18.234245 Si / 1000 Ang^3
#
#
#
# Elastic Constant Matrix: (Units=GPa)
#
#
# Indices 1 2 3 4 5 6 
#
# 1 35.8647 26.5994 42.5284 0.0000 0.0000 0.0000
# 2 26.5994 95.2730 76.6800 0.0000 0.0000 0.0000
# 3 42.5284 76.6800 204.5295 0.0000 0.0000 0.0000
# 4 0.0000 0.0000 0.0000 30.5897 0.0000 0.0000
# 5 0.0000 0.0000 0.0000 0.0000 12.1628 0.0000
# 6 0.0000 0.0000 0.0000 0.0000 0.0000 24.0831
#
#
#
# Elastic Compliance Matrix: (Units=1/GPa)
#
#
# Indices 1 2 3 4 5 6 
#
# 1 0.039502 -0.006327 -0.005842 0.000000 0.000000 0.000000
# 2 -0.006327 0.016045 -0.004700 0.000000 0.000000 0.000000
# 3 -0.005842 -0.004700 0.007866 0.000000 0.000000 0.000000
# 4 0.000000 0.000000 0.000000 0.032691 0.000000 0.000000
# 5 0.000000 0.000000 0.000000 0.000000 0.082218 0.000000
# 6 0.000000 0.000000 0.000000 0.000000 0.000000 0.041523
#
#
# Mechanical properties :
#
#
# Convention : Reuss Voigt Hill
#
# Bulk Modulus (GPa) = 33.69712 69.69809 51.69760
# Shear Modulus (GPa) = 18.97716 26.02441 22.50078
#
# Velocity S-wave (km/s) = 3.22955 3.78196 3.51662
# Velocity P-wave (km/s) = 5.69447 7.57481 6.70092
#
# Compressibility (1/GPa) = 0.02967613
#
# Stress axis : x y z
#
# Youngs Moduli (GPa) = 25.31510 62.32338 127.12908
#
# Poissons Ratio (x) = 0.39432 0.74266
# Poissons Ratio (y) = 0.16017 0.59750
# Poissons Ratio (z) = 0.14788 0.29292
#
# Static dielectric constant tensor:
#      x y z
#    x 2.836240 0.000000 0.000000 
#    y 0.000000 3.477210 0.000000 
#    z 0.000000 0.000000 4.011590 
# 
# 
# High freq. dielectric constant tensor:
#      x y z
#    x 1.648420 0.000000 0.000000 
#    y 0.000000 1.714920 0.000000 
#    z 0.000000 0.000000 1.736890 
# 
# From -- ./inp_files/77884.got.cif
#   From: 2010.03.12/outbox.cif.g09.slc.cpg/sg65_39_cif.got.tgz:77884.got - 2010.04.10 20:52:16.
