data_PCOD8268879
_publ_section_title
;
Structure prediction by ZEFSAII (Michael W. Deem and Ramdas Pophale) SiO2 
 PCOD8268879
Probable space group: C M M M
;
_chemical_formula_sum "Si O2"
_cell_formula_units_Z 72
_cell_length_a 14.658552
_cell_length_b 25.889947
_cell_length_c 10.501806
_cell_angle_alpha 90.000000
_cell_angle_beta 90.000000
_cell_angle_gamma 90.000000
_cell_volume 3985.531304
_symmetry_space_group_name_H-M "C M M M"
_symmetry_group_IT_number 65
_symmetry_cell_setting 'orthorhombic'
loop_
_space_group_symop_operation_xyz
x,y,z
-x,-y,z
x,-y,-z
-x,y,-z
-x,-y,-z
x,y,-z
-x,y,z
x,-y,z
1/2+x,1/2+y,z
1/2-x,1/2-y,z
1/2+x,1/2-y,-z
1/2-x,1/2+y,-z
1/2-x,1/2-y,-z
1/2+x,1/2+y,-z
1/2-x,1/2+y,z
1/2+x,1/2-y,z
loop_
_atom_site_type_symbol
_atom_site_label
_atom_site_fract_x
_atom_site_fract_y
_atom_site_fract_z
Si Si1 0.391701 0.000000 0.639452
Si Si2 0.891596 0.056944 0.500000
Si Si3 0.892219 0.883526 0.748661
Si Si4 0.258115 0.309470 0.649905
Si Si5 0.608331 0.557861 0.000000
Si Si6 0.602221 0.888284 0.651634
O O1 0.365013 0.944963 0.707279
O O2 0.500000 0.000000 0.625572
O O3 0.345693 0.000000 0.500000
O O4 0.856343 0.084176 0.372617
O O5 0.000000 0.055551 0.500000
O O6 0.849957 0.000000 0.500000
O O7 0.844377 0.828259 0.733340
O O8 0.857690 0.912134 0.875198
O O9 0.000000 0.875330 0.749132
O O10 0.277317 0.316127 0.500000
O O11 0.250000 0.250000 0.686899
O O12 0.169500 0.342220 0.694178
O O13 0.649297 0.500000 0.000000
O O14 0.500000 0.554499 0.000000
O O15 0.600880 0.892957 0.500000
O O16 0.500000 0.874690 0.700908
#
# Coordination Sequence:
#
# PCOD8268879 Si02
#       6
#     8   8  16  16   8  16
#     4   7  10  20  38  56  79 108 145 194 243 289
#     4   9  16  28  47  72 103 133 162 204 256 310
#     4  10  19  33  51  74 104 137 174 212 258 312
#     4  10  20  32  45  69 104 138 175 213 254 307
#     4   9  18  34  55  76 103 139 174 210 254 314
#     4   8  14  26  42  62  89 124 161 202 251 299
#
# _framework density 18.065346999999999
#
# number of rings (size 3 to 8) (size 9 to 14) (size 15 to 20)
#    0.000    3.000    1.111    2.000    0.000    3.556 
#    4.000    2.778    0.000    0.000    0.000    0.778 
#    0.000    0.889    0.000    0.000    0.000    0.000 
#
# Total GULP energy -446045.602718 kJ/mol
# GULP energy per Si atom -12390.155631 kJ/mol
# Density = 1.802423 g / cm^3
# Si number density = 18.065347 Si / 1000 Ang^3
#
#
#
# Elastic Constant Matrix: (Units=GPa)
#
#
# Indices 1 2 3 4 5 6 
#
# 1 58.0234 61.5437 22.6616 0.0000 0.0000 0.0000
# 2 61.5437 184.5180 51.5744 0.0000 0.0000 0.0000
# 3 22.6616 51.5744 92.1248 0.0000 0.0000 0.0000
# 4 0.0000 0.0000 0.0000 18.4816 0.0000 0.0000
# 5 0.0000 0.0000 0.0000 0.0000 10.2535 0.0000
# 6 0.0000 0.0000 0.0000 0.0000 0.0000 31.8712
#
#
#
# Elastic Compliance Matrix: (Units=1/GPa)
#
#
# Indices 1 2 3 4 5 6 
#
# 1 0.026945 -0.008458 -0.001893 0.000000 0.000000 0.000000
# 2 -0.008458 0.009080 -0.003003 0.000000 0.000000 0.000000
# 3 -0.001893 -0.003003 0.013001 0.000000 0.000000 0.000000
# 4 0.000000 0.000000 0.000000 0.054108 0.000000 0.000000
# 5 0.000000 0.000000 0.000000 0.000000 0.097528 0.000000
# 6 0.000000 0.000000 0.000000 0.000000 0.000000 0.031376
#
#
# Mechanical properties :
#
#
# Convention : Reuss Voigt Hill
#
# Bulk Modulus (GPa) = 44.80518 67.35840 56.08179
# Shear Modulus (GPa) = 18.78390 25.38035 22.08213
#
# Velocity S-wave (km/s) = 3.22805 3.75229 3.50000
# Velocity P-wave (km/s) = 6.22490 7.49265 6.88800
#
# Compressibility (1/GPa) = 0.02231885
#
# Stress axis : x y z
#
# Youngs Moduli (GPa) = 37.11270 110.13396 76.91440
#
# Poissons Ratio (x) = 0.93152 0.14561
# Poissons Ratio (y) = 0.31390 0.23094
# Poissons Ratio (z) = 0.07026 0.33069
#
# Static dielectric constant tensor:
#      x y z
#    x 3.196440 0.000000 0.000000 
#    y 0.000000 3.579280 0.000000 
#    z 0.000000 0.000000 2.936010 
# 
# 
# High freq. dielectric constant tensor:
#      x y z
#    x 1.689890 0.000000 0.000000 
#    y 0.000000 1.706800 0.000000 
#    z 0.000000 0.000000 1.638850 
# 
# From -- ./inp_files/7415.got.cif
#   From: 2010.03.12/outbox.cif.g09.slc.cpg/sg65_4_cif.got.tgz:7415.got - 2010.04.10 20:52:16.
