data_PCOD8268463
_publ_section_title
;
Structure prediction by ZEFSAII (Michael W. Deem and Ramdas Pophale) SiO2 
 PCOD8268463
Probable space group: C M M M
;
_chemical_formula_sum "Si O2"
_cell_formula_units_Z 56
_cell_length_a 9.140215
_cell_length_b 23.518495
_cell_length_c 15.478843
_cell_angle_alpha 90.000000
_cell_angle_beta 90.000000
_cell_angle_gamma 90.000000
_cell_volume 3327.395567
_symmetry_space_group_name_H-M "C M M M"
_symmetry_group_IT_number 65
_symmetry_cell_setting 'orthorhombic'
loop_
_space_group_symop_operation_xyz
x,y,z
-x,-y,z
x,-y,-z
-x,y,-z
-x,-y,-z
x,y,-z
-x,y,z
x,-y,z
1/2+x,1/2+y,z
1/2-x,1/2-y,z
1/2+x,1/2-y,-z
1/2-x,1/2+y,-z
1/2-x,1/2-y,-z
1/2+x,1/2+y,-z
1/2-x,1/2+y,z
1/2+x,1/2-y,z
loop_
_atom_site_type_symbol
_atom_site_label
_atom_site_fract_x
_atom_site_fract_y
_atom_site_fract_z
Si Si1 0.665932 0.307290 0.000000
Si Si2 0.672095 0.311043 0.187861
Si Si3 0.672260 0.880151 0.332723
Si Si4 0.826755 0.500000 0.403071
Si Si5 0.829714 0.309115 0.500000
O O1 0.750000 0.250000 0.000000
O O2 0.700383 0.338264 0.091419
O O3 0.500000 0.288176 0.000000
O O4 0.500000 0.302752 0.206638
O O5 0.750000 0.250000 0.199772
O O6 0.738802 0.357195 0.251612
O O7 0.500000 0.876237 0.313578
O O8 0.717006 0.843999 0.416075
O O9 0.723640 0.944691 0.349918
O O10 0.758852 0.500000 0.500000
O O11 0.000000 0.500000 0.413419
O O12 0.750000 0.250000 0.500000
O O13 0.000000 0.296674 0.500000
#
# Coordination Sequence:
#
# PCOD8268463 Si02
#       5
#     8  16  16   8   8
#     4   8  16  30  48  69  96 129 161 194 238 292
#     4  10  19  32  50  74 102 130 161 199 244 294
#     4  10  19  32  51  73  96 127 165 204 242 287
#     4   9  16  32  55  72  91 126 172 209 241 284
#     4  10  20  31  45  67  97 128 157 190 235 288
#
# _framework density 16.829979999999999
#
# number of rings (size 3 to 8) (size 9 to 14) (size 15 to 20)
#    0.000    2.429    1.429    1.714    0.000    4.571 
#    0.000    0.714    0.000    1.714    0.000    6.000 
#    0.000    0.000    0.000    0.000    0.000    0.000 
#
# Total GULP energy -346971.137400 kJ/mol
# GULP energy per Si atom -12391.826336 kJ/mol
# Density = 1.679167 g / cm^3
# Si number density = 16.829980 Si / 1000 Ang^3
#
#
#
# Elastic Constant Matrix: (Units=GPa)
#
#
# Indices 1 2 3 4 5 6 
#
# 1 54.6278 44.6341 61.5077 0.0000 0.0000 0.0000
# 2 44.6341 134.9896 81.0149 0.0000 0.0000 0.0000
# 3 61.5077 81.0149 168.2601 0.0000 0.0000 0.0000
# 4 0.0000 0.0000 0.0000 -4.3632 0.0000 0.0000
# 5 0.0000 0.0000 0.0000 0.0000 28.1326 0.0000
# 6 0.0000 0.0000 0.0000 0.0000 0.0000 22.4340
#
#
#
# Elastic Compliance Matrix: (Units=1/GPa)
#
#
# Indices 1 2 3 4 5 6 
#
# 1 0.033564 -0.005252 -0.009741 0.000000 0.000000 0.000000
# 2 -0.005252 0.011240 -0.003492 0.000000 0.000000 0.000000
# 3 -0.009741 -0.003492 0.011185 0.000000 0.000000 0.000000
# 4 0.000000 0.000000 0.000000 -0.229188 0.000000 0.000000
# 5 0.000000 0.000000 0.000000 0.000000 0.035546 0.000000
# 6 0.000000 0.000000 0.000000 0.000000 0.000000 0.044575
#
#
# Mechanical properties :
#
#
# Convention : Reuss Voigt Hill
#
# Bulk Modulus (GPa) = 52.57563 81.35454 66.96508
# Shear Modulus (GPa) = -100.46963 20.62206 -39.92378
#
# Velocity S-wave (km/s) = -7.73475 3.50425 -4.87579
# Velocity P-wave (km/s) = 6.96143 8.05090 2.85968
#
# Compressibility (1/GPa) = 0.01902022
#
# Stress axis : x y z
#
# Youngs Moduli (GPa) = 29.79349 88.96444 89.40256
#
# Poissons Ratio (x) = 0.46725 0.87084
# Poissons Ratio (y) = 0.15648 0.31221
# Poissons Ratio (z) = 0.29021 0.31068
#
# Static dielectric constant tensor:
#      x y z
#    x 3.052950 0.000000 0.000000 
#    y 0.000000 3.040060 0.000000 
#    z 0.000000 0.000000 -1.035010 
# 
# 
# High freq. dielectric constant tensor:
#      x y z
#    x 1.639380 0.000000 0.000000 
#    y 0.000000 1.624840 0.000000 
#    z 0.000000 0.000000 1.664520 
# 
# From -- ./inp_files/35583.got.cif
#   From: 2010.03.12/outbox.cif.g09.slc.cpg/sg65_18_cif.got.tgz:35583.got - 2010.04.10 20:52:16.
