data_PCOD8268045
_publ_section_title
;
Structure prediction by ZEFSAII (Michael W. Deem and Ramdas Pophale) SiO2 
 PCOD8268045
Probable space group: C M M M
;
_chemical_formula_sum "Si O2"
_cell_formula_units_Z 104
_cell_length_a 28.640255
_cell_length_b 9.240375
_cell_length_c 23.192157
_cell_angle_alpha 90.000000
_cell_angle_beta 90.000000
_cell_angle_gamma 90.000000
_cell_volume 6137.727730
_symmetry_space_group_name_H-M "C M M M"
_symmetry_group_IT_number 65
_symmetry_cell_setting 'orthorhombic'
loop_
_space_group_symop_operation_xyz
x,y,z
-x,-y,z
x,-y,-z
-x,y,-z
-x,-y,-z
x,y,-z
-x,y,z
x,-y,z
1/2+x,1/2+y,z
1/2-x,1/2-y,z
1/2+x,1/2-y,-z
1/2-x,1/2+y,-z
1/2-x,1/2-y,-z
1/2+x,1/2+y,-z
1/2-x,1/2+y,z
1/2+x,1/2-y,z
loop_
_atom_site_type_symbol
_atom_site_label
_atom_site_fract_x
_atom_site_fract_y
_atom_site_fract_z
Si Si1 0.853702 0.665095 0.780345
Si Si2 0.799172 0.830649 0.875074
Si Si3 0.948859 0.831134 0.387107
Si Si4 0.796799 0.164451 0.000000
Si Si5 0.851998 0.832171 0.434702
Si Si6 0.051639 0.334879 0.728723
Si Si7 0.298182 0.169699 0.664150
O O1 0.842859 0.500000 0.798376
O O2 0.835061 0.772406 0.828498
O O3 0.909291 0.694884 0.777127
O O4 0.831418 0.699753 0.718378
O O5 0.750000 0.750000 0.868313
O O6 0.790651 0.000000 0.863894
O O7 0.822560 0.802203 0.938960
O O8 0.907131 0.791390 0.430750
O O9 0.937284 0.761083 0.326203
O O10 0.000000 0.778886 0.410676
O O11 0.950388 0.000000 0.375848
O O12 0.750000 0.250000 0.000000
O O13 0.780867 0.000000 0.000000
O O14 0.835829 0.802450 0.500000
O O15 0.821456 0.732240 0.393431
O O16 0.844185 0.000000 0.417859
O O17 0.055337 0.500000 0.707620
O O18 0.000000 0.301355 0.754343
O O19 0.250000 0.250000 0.676841
O O20 0.288991 0.000000 0.654889
#
# Coordination Sequence:
#
# PCOD8268045 Si02
#       7
#    16  16  16   8  16  16  16
#     4  10  20  33  50  76 103 128 162 201 243 290
#     4  10  19  31  49  73 103 138 170 204 241 283
#     4   9  17  30  50  75 100 125 154 191 238 293
#     4   8  16  30  46  68  99 134 171 203 238 281
#     4  10  21  36  53  73  97 126 161 200 243 293
#     4   9  17  31  51  73  99 129 158 193 240 291
#     4  11  23  38  54  72  95 126 161 203 248 293
#
# _framework density 16.944382000000001
#
# number of rings (size 3 to 8) (size 9 to 14) (size 15 to 20)
#    0.000    2.308    1.538    1.385    0.000    4.615 
#    0.000    1.538    0.000    0.000    0.000    3.769 
#    0.000    4.308    0.000    0.000    0.000    0.000 
#
# Total GULP energy -644457.069710 kJ/mol
# GULP energy per Si atom -12393.405187 kJ/mol
# Density = 1.690582 g / cm^3
# Si number density = 16.944382 Si / 1000 Ang^3
#
#
#
# Elastic Constant Matrix: (Units=GPa)
#
#
# Indices 1 2 3 4 5 6 
#
# 1 90.5450 38.0989 41.0872 0.0000 0.0000 0.0000
# 2 38.0989 55.7452 38.2754 0.0000 0.0000 0.0000
# 3 41.0872 38.2754 94.0665 0.0000 0.0000 0.0000
# 4 0.0000 0.0000 0.0000 23.3991 0.0000 0.0000
# 5 0.0000 0.0000 0.0000 0.0000 10.3592 0.0000
# 6 0.0000 0.0000 0.0000 0.0000 0.0000 22.1528
#
#
#
# Elastic Compliance Matrix: (Units=1/GPa)
#
#
# Indices 1 2 3 4 5 6 
#
# 1 0.016335 -0.008694 -0.003597 0.000000 0.000000 0.000000
# 2 -0.008694 0.029521 -0.008214 0.000000 0.000000 0.000000
# 3 -0.003597 -0.008214 0.015544 0.000000 0.000000 0.000000
# 4 0.000000 0.000000 0.000000 0.042737 0.000000 0.000000
# 5 0.000000 0.000000 0.000000 0.000000 0.096532 0.000000
# 6 0.000000 0.000000 0.000000 0.000000 0.000000 0.045141
#
#
# Mechanical properties :
#
#
# Convention : Reuss Voigt Hill
#
# Bulk Modulus (GPa) = 49.04721 52.80885 50.92803
# Shear Modulus (GPa) = 17.02895 19.37525 18.20210
#
# Velocity S-wave (km/s) = 3.17360 3.38518 3.28109
# Velocity P-wave (km/s) = 6.51443 6.82004 6.66898
#
# Compressibility (1/GPa) = 0.02038852
#
# Stress axis : x y z
#
# Youngs Moduli (GPa) = 61.21897 33.87442 64.33151
#
# Poissons Ratio (x) = 0.29450 0.23142
# Poissons Ratio (y) = 0.53224 0.52845
# Poissons Ratio (z) = 0.22022 0.27826
#
# Static dielectric constant tensor:
#      x y z
#    x 3.347610 0.000000 0.000000 
#    y 0.000000 3.235630 0.000000 
#    z 0.000000 0.000000 3.292900 
# 
# 
# High freq. dielectric constant tensor:
#      x y z
#    x 1.647090 0.000000 0.000000 
#    y 0.000000 1.660120 0.000000 
#    z 0.000000 0.000000 1.637270 
# 
# From -- ./inp_files/60787.got.cif
#   From: 2010.03.12/outbox.cif.g09.slc.cpg/sg65_31_cif.got.tgz:60787.got - 2010.04.10 20:52:16.
