data_PCOD8268244
_publ_section_title
;
Structure prediction by ZEFSAII (Michael W. Deem and Ramdas Pophale) SiO2 
 PCOD8268244
Probable space group: C M M M
;
_chemical_formula_sum "Si O2"
_cell_formula_units_Z 120
_cell_length_a 18.000756
_cell_length_b 18.738015
_cell_length_c 19.076946
_cell_angle_alpha 90.000000
_cell_angle_beta 90.000000
_cell_angle_gamma 90.000000
_cell_volume 6434.624048
_symmetry_space_group_name_H-M "C M M M"
_symmetry_group_IT_number 65
_symmetry_cell_setting 'orthorhombic'
loop_
_space_group_symop_operation_xyz
x,y,z
-x,-y,z
x,-y,-z
-x,y,-z
-x,-y,-z
x,y,-z
-x,y,z
x,-y,z
1/2+x,1/2+y,z
1/2-x,1/2-y,z
1/2+x,1/2-y,-z
1/2-x,1/2+y,-z
1/2-x,1/2-y,-z
1/2+x,1/2+y,-z
1/2-x,1/2+y,z
1/2+x,1/2-y,z
loop_
_atom_site_type_symbol
_atom_site_label
_atom_site_fract_x
_atom_site_fract_y
_atom_site_fract_z
Si Si1 0.582281 0.646096 0.803486
Si Si2 0.082125 0.747627 0.921931
Si Si3 0.360036 0.831378 0.581894
Si Si4 0.500000 0.079106 0.416790
Si Si5 0.778597 0.914520 0.639280
Si Si6 0.273656 0.577773 0.202838
Si Si7 0.720217 0.170159 0.923977
Si Si8 0.086842 0.186536 0.351346
O O1 0.500000 0.616675 0.818158
O O2 0.612286 0.693510 0.867868
O O3 0.636441 0.578492 0.798053
O O4 0.584941 0.692957 0.732705
O O5 0.130999 0.676141 0.919579
O O6 0.000000 0.724113 0.899373
O O7 0.084110 0.781789 0.000000
O O8 0.368443 0.815577 0.500000
O O9 0.426228 0.881449 0.610161
O O10 0.281276 0.871175 0.593167
O O11 0.369764 0.755815 0.620518
O O12 0.500000 0.075185 0.500000
O O13 0.500000 0.000000 0.384158
O O14 0.749992 0.900661 0.718666
O O15 0.861781 0.881908 0.626416
O O16 0.780388 0.000000 0.621855
O O17 0.244246 0.500000 0.184092
O O18 0.242973 0.628846 0.144297
O O19 0.750000 0.250000 0.921529
O O20 0.742914 0.135379 0.000000
O O21 0.000000 0.179545 0.378830
#
# Coordination Sequence:
#
# PCOD8268244 Si02
#       8
#    16  16  16   8  16  16  16  16
#     4   9  18  32  52  78 108 141 179 216 264 322
#     4   9  17  30  50  75 102 133 174 222 264 309
#     4  11  22  38  60  86 114 142 183 233 280 337
#     4   9  18  34  58  84 113 147 174 212 273 334
#     4  10  23  39  57  82 113 154 193 229 279 338
#     4  10  21  35  52  76 109 144 179 224 272 320
#     4  10  19  31  51  77 103 138 181 224 270 322
#     4  10  21  37  58  86 115 146 186 234 285 333
#
# _framework density 18.649107999999998
#
# number of rings (size 3 to 8) (size 9 to 14) (size 15 to 20)
#    0.000    2.200    2.000    0.800    1.867    2.667 
#    0.000    2.667    0.000    0.400    0.000    6.533 
#    0.000    0.000    0.000    0.000    0.000    0.000 
#
# Total GULP energy -743330.620755 kJ/mol
# GULP energy per Si atom -12388.843679 kJ/mol
# Density = 1.860666 g / cm^3
# Si number density = 18.649108 Si / 1000 Ang^3
#
#
#
# Elastic Constant Matrix: (Units=GPa)
#
#
# Indices 1 2 3 4 5 6 
#
# 1 89.1004 32.5803 12.4551 0.0000 0.0000 0.0000
# 2 32.5803 85.1665 23.8193 0.0000 0.0000 0.0000
# 3 12.4551 23.8193 60.3305 0.0000 0.0000 0.0000
# 4 0.0000 0.0000 0.0000 18.7792 0.0000 0.0000
# 5 0.0000 0.0000 0.0000 0.0000 20.5101 0.0000
# 6 0.0000 0.0000 0.0000 0.0000 0.0000 25.1643
#
#
#
# Elastic Compliance Matrix: (Units=1/GPa)
#
#
# Indices 1 2 3 4 5 6 
#
# 1 0.013084 -0.004777 -0.000815 0.000000 0.000000 0.000000
# 2 -0.004777 0.014944 -0.004914 0.000000 0.000000 0.000000
# 3 -0.000815 -0.004914 0.018684 0.000000 0.000000 0.000000
# 4 0.000000 0.000000 0.000000 0.053250 0.000000 0.000000
# 5 0.000000 0.000000 0.000000 0.000000 0.048756 0.000000
# 6 0.000000 0.000000 0.000000 0.000000 0.000000 0.039739
#
#
# Mechanical properties :
#
#
# Convention : Reuss Voigt Hill
#
# Bulk Modulus (GPa) = 38.91173 41.36743 40.13958
# Shear Modulus (GPa) = 22.93205 23.94022 23.43613
#
# Velocity S-wave (km/s) = 3.51045 3.58679 3.54883
# Velocity P-wave (km/s) = 6.11077 6.27563 6.19375
#
# Compressibility (1/GPa) = 0.02569919
#
# Stress axis : x y z
#
# Youngs Moduli (GPa) = 76.42861 66.91861 53.52284
#
# Poissons Ratio (x) = 0.31969 0.04362
# Poissons Ratio (y) = 0.36513 0.26299
# Poissons Ratio (z) = 0.06229 0.32881
#
# Static dielectric constant tensor:
#      x y z
#    x 3.814140 0.000000 0.000000 
#    y 0.000000 3.261860 0.000000 
#    z 0.000000 0.000000 3.456100 
# 
# 
# High freq. dielectric constant tensor:
#      x y z
#    x 1.738780 0.000000 0.000000 
#    y 0.000000 1.694170 0.000000 
#    z 0.000000 0.000000 1.724020 
# 
# From -- ./inp_files/56092.got.cif
#   From: 2010.03.12/outbox.cif.g09.slc.cpg/sg65_29_cif.got.tgz:56092.got - 2010.04.10 20:52:16.
