data_PCOD8268660
_publ_section_title
;
Structure prediction by ZEFSAII (Michael W. Deem and Ramdas Pophale) SiO2 
 PCOD8268660
Probable space group: C M M M
;
_chemical_formula_sum "Si O2"
_cell_formula_units_Z 88
_cell_length_a 18.464126
_cell_length_b 8.713112
_cell_length_c 28.311565
_cell_angle_alpha 90.000000
_cell_angle_beta 90.000000
_cell_angle_gamma 90.000000
_cell_volume 4554.764515
_symmetry_space_group_name_H-M "C M M M"
_symmetry_group_IT_number 65
_symmetry_cell_setting 'orthorhombic'
loop_
_space_group_symop_operation_xyz
x,y,z
-x,-y,z
x,-y,-z
-x,y,-z
-x,-y,-z
x,y,-z
-x,y,z
x,-y,z
1/2+x,1/2+y,z
1/2-x,1/2-y,z
1/2+x,1/2-y,-z
1/2-x,1/2+y,-z
1/2-x,1/2-y,-z
1/2+x,1/2+y,-z
1/2-x,1/2+y,z
1/2+x,1/2-y,z
loop_
_atom_site_type_symbol
_atom_site_label
_atom_site_fract_x
_atom_site_fract_y
_atom_site_fract_z
Si Si1 0.173098 0.321023 0.632669
Si Si2 0.585286 0.326393 0.446905
Si Si3 0.170296 0.182364 0.909365
Si Si4 0.081311 0.182385 0.819480
Si Si5 0.328533 0.682043 0.730136
Si Si6 0.418176 0.682436 0.000000
O O1 0.182085 0.500000 0.642018
O O2 0.250000 0.250000 0.619270
O O3 0.119816 0.292884 0.589211
O O4 0.141590 0.243366 0.680137
O O5 0.611021 0.285939 0.500000
O O6 0.500000 0.309507 0.443200
O O7 0.608986 0.500000 0.434152
O O8 0.250000 0.250000 0.911545
O O9 0.129503 0.244332 0.862783
O O10 0.124389 0.242134 0.954039
O O11 0.176088 0.000000 0.909214
O O12 0.116670 0.238694 0.770570
O O13 0.000000 0.249681 0.823098
O O14 0.078485 0.000000 0.821402
O O15 0.322782 0.500000 0.728425
O O16 0.250000 0.750000 0.741305
O O17 0.421580 0.500000 0.000000
O O18 0.500000 0.748988 0.000000
#
# Coordination Sequence:
#
# PCOD8268660 Si02
#       6
#    16  16  16  16  16   8
#     4  11  22  36  55  79 108 140 176 218 262 310
#     4   9  19  37  59  81 107 140 176 214 259 312
#     4  10  19  32  52  76 103 134 170 212 256 306
#     4   9  18  32  51  75 100 130 171 214 254 301
#     4  10  19  33  53  74  99 132 169 211 259 310
#     4   9  17  30  51  77 102 133 174 216 254 297
#
# _framework density 19.320428
#
# number of rings (size 3 to 8) (size 9 to 14) (size 15 to 20)
#    0.000    2.273    0.000    5.182    0.000    4.000 
#    0.000    3.636    0.000    6.545    0.000    0.000 
#    0.000    0.000    0.000    0.000    0.000    0.000 
#
# Total GULP energy -545639.828844 kJ/mol
# GULP energy per Si atom -12400.905201 kJ/mol
# Density = 1.927645 g / cm^3
# Si number density = 19.320428 Si / 1000 Ang^3
#
#
#
# Elastic Constant Matrix: (Units=GPa)
#
#
# Indices 1 2 3 4 5 6 
#
# 1 132.2846 27.3456 87.5857 0.0000 0.0000 0.0000
# 2 27.3456 62.2504 36.2649 0.0000 0.0000 0.0000
# 3 87.5857 36.2649 165.3867 0.0000 0.0000 0.0000
# 4 0.0000 0.0000 0.0000 17.2723 0.0000 0.0000
# 5 0.0000 0.0000 0.0000 0.0000 41.5383 0.0000
# 6 0.0000 0.0000 0.0000 0.0000 0.0000 28.7238
#
#
#
# Elastic Compliance Matrix: (Units=1/GPa)
#
#
# Indices 1 2 3 4 5 6 
#
# 1 0.011809 -0.001770 -0.005866 0.000000 0.000000 0.000000
# 2 -0.001770 0.018682 -0.003159 0.000000 0.000000 0.000000
# 3 -0.005866 -0.003159 0.009845 0.000000 0.000000 0.000000
# 4 0.000000 0.000000 0.000000 0.057896 0.000000 0.000000
# 5 0.000000 0.000000 0.000000 0.000000 0.024074 0.000000
# 6 0.000000 0.000000 0.000000 0.000000 0.000000 0.034814
#
#
# Mechanical properties :
#
#
# Convention : Reuss Voigt Hill
#
# Bulk Modulus (GPa) = 53.34279 73.59045 63.46662
# Shear Modulus (GPa) = 27.03281 31.42191 29.22736
#
# Velocity S-wave (km/s) = 3.74462 4.03719 3.89365
# Velocity P-wave (km/s) = 6.80924 7.73977 7.28937
#
# Compressibility (1/GPa) = 0.01874668
#
# Stress axis : x y z
#
# Youngs Moduli (GPa) = 84.68043 53.52709 101.56976
#
# Poissons Ratio (x) = 0.09477 0.59578
# Poissons Ratio (y) = 0.14992 0.32085
# Poissons Ratio (z) = 0.49671 0.16909
#
# Static dielectric constant tensor:
#      x y z
#    x 3.533340 0.000000 0.000000 
#    y 0.000000 3.268390 0.000000 
#    z 0.000000 0.000000 3.803950 
# 
# 
# High freq. dielectric constant tensor:
#      x y z
#    x 1.753080 0.000000 0.000000 
#    y 0.000000 1.722770 0.000000 
#    z 0.000000 0.000000 1.769570 
# 
# From -- ./inp_files/70999.got.cif
#   From: 2010.03.12/outbox.cif.g09.slc.cpg/sg65_36_cif.got.tgz:70999.got - 2010.04.10 20:52:16.
