data_PCOD8268552
_publ_section_title
;
Structure prediction by ZEFSAII (Michael W. Deem and Ramdas Pophale) SiO2 
 PCOD8268552
Probable space group: C M M M
;
_chemical_formula_sum "Si O2"
_cell_formula_units_Z 88
_cell_length_a 27.301097
_cell_length_b 8.974285
_cell_length_c 20.933371
_cell_angle_alpha 90.000000
_cell_angle_beta 90.000000
_cell_angle_gamma 90.000000
_cell_volume 5128.839705
_symmetry_space_group_name_H-M "C M M M"
_symmetry_group_IT_number 65
_symmetry_cell_setting 'orthorhombic'
loop_
_space_group_symop_operation_xyz
x,y,z
-x,-y,z
x,-y,-z
-x,y,-z
-x,-y,-z
x,y,-z
-x,y,z
x,-y,z
1/2+x,1/2+y,z
1/2-x,1/2-y,z
1/2+x,1/2-y,-z
1/2-x,1/2+y,-z
1/2-x,1/2-y,-z
1/2+x,1/2+y,-z
1/2-x,1/2+y,z
1/2+x,1/2-y,z
loop_
_atom_site_type_symbol
_atom_site_label
_atom_site_fract_x
_atom_site_fract_y
_atom_site_fract_z
Si Si1 0.699750 0.674230 0.427628
Si Si2 0.146329 0.670367 0.680057
Si Si3 0.301813 0.175596 0.188828
Si Si4 0.392467 0.323943 0.871486
Si Si5 0.944810 0.176597 0.000000
Si Si6 0.555379 0.170330 0.759903
O O1 0.686019 0.720188 0.500000
O O2 0.707098 0.500000 0.420893
O O3 0.750000 0.750000 0.405588
O O4 0.656886 0.727158 0.380849
O O5 0.155041 0.500000 0.660201
O O6 0.181194 0.714094 0.739327
O O7 0.090047 0.700799 0.699150
O O8 0.250000 0.250000 0.174939
O O9 0.340853 0.241740 0.138913
O O10 0.298095 0.000000 0.177998
O O11 0.383652 0.500000 0.870040
O O12 0.415066 0.268364 0.938211
O O13 0.431467 0.280510 0.817236
O O14 0.000000 0.244073 0.000000
O O15 0.948712 0.000000 0.000000
O O16 0.500000 0.199457 0.737723
O O17 0.563591 0.000000 0.783431
#
# Coordination Sequence:
#
# PCOD8268552 Si02
#       6
#    16  16  16  16   8  16
#     4  10  20  32  47  69  97 127 158 193 233 279
#     4   9  18  31  49  72  96 124 157 195 237 281
#     4  10  20  34  51  73 100 128 161 200 241 285
#     4  10  19  32  51  74  99 128 162 198 240 289
#     4   9  18  32  50  73 100 127 158 199 242 285
#     4   9  18  33  51  72  99 127 158 200 245 285
#
# _framework density 17.157878
#
# number of rings (size 3 to 8) (size 9 to 14) (size 15 to 20)
#    0.000    2.455    0.000    3.818    0.000    7.273 
#    0.000    2.273    0.000    3.818    0.000    3.818 
#    0.000    0.000    0.000    0.000    0.000    0.000 
#
# Total GULP energy -545667.212111 kJ/mol
# GULP energy per Si atom -12401.527548 kJ/mol
# Density = 1.711883 g / cm^3
# Si number density = 17.157878 Si / 1000 Ang^3
#
#
#
# Elastic Constant Matrix: (Units=GPa)
#
#
# Indices 1 2 3 4 5 6 
#
# 1 149.3537 47.5168 66.5623 0.0000 0.0000 0.0000
# 2 47.5168 68.0399 43.2032 0.0000 0.0000 0.0000
# 3 66.5623 43.2032 104.7993 0.0000 0.0000 0.0000
# 4 0.0000 0.0000 0.0000 24.9344 0.0000 0.0000
# 5 0.0000 0.0000 0.0000 0.0000 22.4112 0.0000
# 6 0.0000 0.0000 0.0000 0.0000 0.0000 27.7246
#
#
#
# Elastic Compliance Matrix: (Units=1/GPa)
#
#
# Indices 1 2 3 4 5 6 
#
# 1 0.010096 -0.004035 -0.004749 0.000000 0.000000 0.000000
# 2 -0.004035 0.021521 -0.006309 0.000000 0.000000 0.000000
# 3 -0.004749 -0.006309 0.015159 0.000000 0.000000 0.000000
# 4 0.000000 0.000000 0.000000 0.040105 0.000000 0.000000
# 5 0.000000 0.000000 0.000000 0.000000 0.044621 0.000000
# 6 0.000000 0.000000 0.000000 0.000000 0.000000 0.036069
#
#
# Mechanical properties :
#
#
# Convention : Reuss Voigt Hill
#
# Bulk Modulus (GPa) = 60.27729 70.75082 65.51405
# Shear Modulus (GPa) = 24.59575 26.00809 25.30192
#
# Velocity S-wave (km/s) = 3.79026 3.89756 3.84429
# Velocity P-wave (km/s) = 7.37306 7.84725 7.61385
#
# Compressibility (1/GPa) = 0.01659000
#
# Stress axis : x y z
#
# Youngs Moduli (GPa) = 99.05262 46.46521 65.96720
#
# Poissons Ratio (x) = 0.18750 0.31325
# Poissons Ratio (y) = 0.39970 0.41620
# Poissons Ratio (z) = 0.47036 0.29316
#
# Static dielectric constant tensor:
#      x y z
#    x 3.256910 0.000000 0.000000 
#    y 0.000000 3.170710 0.000000 
#    z 0.000000 0.000000 3.132490 
# 
# 
# High freq. dielectric constant tensor:
#      x y z
#    x 1.662960 0.000000 0.000000 
#    y 0.000000 1.663950 0.000000 
#    z 0.000000 0.000000 1.647060 
# 
# From -- ./inp_files/66245.got.cif
#   From: 2010.03.12/outbox.cif.g09.slc.cpg/sg65_34_cif.got.tgz:66245.got - 2010.04.10 20:52:16.
