data_PCOD8268851
_publ_section_title
;
Structure prediction by ZEFSAII (Michael W. Deem and Ramdas Pophale) SiO2 
 PCOD8268851
Probable space group: C M M M
;
_chemical_formula_sum "Si O2"
_cell_formula_units_Z 88
_cell_length_a 17.377819
_cell_length_b 16.107142
_cell_length_c 18.620814
_cell_angle_alpha 90.000000
_cell_angle_beta 90.000000
_cell_angle_gamma 90.000000
_cell_volume 5212.096152
_symmetry_space_group_name_H-M "C M M M"
_symmetry_group_IT_number 65
_symmetry_cell_setting 'orthorhombic'
loop_
_space_group_symop_operation_xyz
x,y,z
-x,-y,z
x,-y,-z
-x,y,-z
-x,-y,-z
x,y,-z
-x,y,z
x,-y,z
1/2+x,1/2+y,z
1/2-x,1/2-y,z
1/2+x,1/2-y,-z
1/2-x,1/2+y,-z
1/2-x,1/2-y,-z
1/2+x,1/2+y,-z
1/2-x,1/2+y,z
1/2+x,1/2-y,z
loop_
_atom_site_type_symbol
_atom_site_label
_atom_site_fract_x
_atom_site_fract_y
_atom_site_fract_z
Si Si1 0.912806 0.903563 0.082934
Si Si2 0.313460 0.317450 0.199759
Si Si3 0.719684 0.903630 0.315232
Si Si4 0.909640 0.283332 0.309931
Si Si5 0.416204 0.500000 0.415268
Si Si6 0.834792 0.167430 0.584733
O O1 0.851144 0.852491 0.128137
O O2 0.000000 0.875772 0.101472
O O3 0.902914 0.000000 0.100746
O O4 0.894974 0.885653 0.000000
O O5 0.250000 0.250000 0.177288
O O6 0.271628 0.390859 0.244282
O O7 0.380981 0.277468 0.247282
O O8 0.632411 0.872596 0.302385
O O9 0.751089 0.840590 0.377837
O O10 0.718872 0.000000 0.338023
O O11 0.888004 0.241684 0.386440
O O12 0.000000 0.298731 0.304146
O O13 0.500000 0.500000 0.378825
O O14 0.424096 0.500000 0.500000
O O15 0.372836 0.418589 0.389669
O O16 0.824494 0.177674 0.500000
#
# Coordination Sequence:
#
# PCOD8268851 Si02
#       6
#    16  16  16  16   8  16
#     4   9  17  29  47  72 101 131 158 186 227 278
#     4   9  18  32  50  71  95 124 159 198 236 276
#     4  10  20  34  51  70  92 124 162 196 238 286
#     4  10  21  34  49  70  95 124 158 198 241 283
#     4   9  16  26  44  68  91 113 138 178 229 276
#     4  10  19  33  50  69  93 120 153 192 238 289
#
# _framework density 16.883801999999999
#
# number of rings (size 3 to 8) (size 9 to 14) (size 15 to 20)
#    0.000    2.455    0.909    3.818    0.000    3.273 
#    0.000    0.000    0.000    0.000    0.000    2.545 
#    0.000    0.000    0.000   33.818    0.000    0.000 
#
# Total GULP energy -545476.043242 kJ/mol
# GULP energy per Si atom -12397.182801 kJ/mol
# Density = 1.684537 g / cm^3
# Si number density = 16.883802 Si / 1000 Ang^3
#
#
#
# Elastic Constant Matrix: (Units=GPa)
#
#
# Indices 1 2 3 4 5 6 
#
# 1 128.6219 34.4598 46.1168 0.0000 0.0000 0.0000
# 2 34.4598 54.9423 31.3705 0.0000 0.0000 0.0000
# 3 46.1168 31.3705 92.1165 0.0000 0.0000 0.0000
# 4 0.0000 0.0000 0.0000 23.9499 0.0000 0.0000
# 5 0.0000 0.0000 0.0000 0.0000 19.7652 0.0000
# 6 0.0000 0.0000 0.0000 0.0000 0.0000 18.7305
#
#
#
# Elastic Compliance Matrix: (Units=1/GPa)
#
#
# Indices 1 2 3 4 5 6 
#
# 1 0.010247 -0.004342 -0.003651 0.000000 0.000000 0.000000
# 2 -0.004342 0.024434 -0.006147 0.000000 0.000000 0.000000
# 3 -0.003651 -0.006147 0.014777 0.000000 0.000000 0.000000
# 4 0.000000 0.000000 0.000000 0.041754 0.000000 0.000000
# 5 0.000000 0.000000 0.000000 0.000000 0.050594 0.000000
# 6 0.000000 0.000000 0.000000 0.000000 0.000000 0.053389
#
#
# Mechanical properties :
#
#
# Convention : Reuss Voigt Hill
#
# Bulk Modulus (GPa) = 47.22093 55.50832 51.36463
# Shear Modulus (GPa) = 21.68855 23.40469 22.54662
#
# Velocity S-wave (km/s) = 3.58799 3.72724 3.65828
# Velocity P-wave (km/s) = 6.72263 7.17434 6.95215
#
# Compressibility (1/GPa) = 0.02117705
#
# Stress axis : x y z
#
# Youngs Moduli (GPa) = 97.58699 40.92604 67.67134
#
# Poissons Ratio (x) = 0.17771 0.24709
# Poissons Ratio (y) = 0.42375 0.41600
# Poissons Ratio (z) = 0.35633 0.25158
#
# Static dielectric constant tensor:
#      x y z
#    x 3.191760 0.000000 0.000000 
#    y 0.000000 3.072070 0.000000 
#    z 0.000000 0.000000 2.951620 
# 
# 
# High freq. dielectric constant tensor:
#      x y z
#    x 1.652810 0.000000 0.000000 
#    y 0.000000 1.645830 0.000000 
#    z 0.000000 0.000000 1.635020 
# 
# From -- ./inp_files/54301.got.cif
#   From: 2010.03.12/outbox.cif.g09.slc.cpg/sg65_28_cif.got.tgz:54301.got - 2010.04.10 20:52:16.
