data_PCOD8268859
_publ_section_title
;
Structure prediction by ZEFSAII (Michael W. Deem and Ramdas Pophale) SiO2 
 PCOD8268859
Probable space group: C M M M
;
_chemical_formula_sum "Si O2"
_cell_formula_units_Z 56
_cell_length_a 8.839656
_cell_length_b 23.592562
_cell_length_c 15.723129
_cell_angle_alpha 90.000000
_cell_angle_beta 90.000000
_cell_angle_gamma 90.000000
_cell_volume 3279.060632
_symmetry_space_group_name_H-M "C M M M"
_symmetry_group_IT_number 65
_symmetry_cell_setting 'orthorhombic'
loop_
_space_group_symop_operation_xyz
x,y,z
-x,-y,z
x,-y,-z
-x,y,-z
-x,-y,-z
x,y,-z
-x,y,z
x,-y,z
1/2+x,1/2+y,z
1/2-x,1/2-y,z
1/2+x,1/2-y,-z
1/2-x,1/2+y,-z
1/2-x,1/2-y,-z
1/2+x,1/2+y,-z
1/2-x,1/2+y,z
1/2+x,1/2-y,z
loop_
_atom_site_type_symbol
_atom_site_label
_atom_site_fract_x
_atom_site_fract_y
_atom_site_fract_z
Si Si1 0.321467 0.000000 0.404755
Si Si2 0.820905 0.378812 0.346695
Si Si3 0.823263 0.689699 0.000000
Si Si4 0.177947 0.311398 0.183431
Si Si5 0.320870 0.688555 0.500000
O O1 0.269207 0.055665 0.353254
O O2 0.500000 0.000000 0.413717
O O3 0.250597 0.000000 0.500000
O O4 0.768960 0.355905 0.254649
O O5 0.733009 0.343744 0.416789
O O6 0.000000 0.371992 0.361827
O O7 0.750000 0.750000 0.000000
O O8 0.775969 0.661156 0.090527
O O9 0.000000 0.698697 0.000000
O O10 0.250000 0.250000 0.199326
O O11 0.000000 0.301962 0.189341
O O12 0.500000 0.693580 0.500000
O O13 0.250000 0.750000 0.500000
#
# Coordination Sequence:
#
# PCOD8268859 Si02
#       5
#     8  16   8  16   8
#     4   9  16  30  52  69  87 121 164 201 231 274
#     4  10  19  33  51  70  92 124 162 197 231 276
#     4   8  14  26  42  65  93 121 149 184 229 276
#     4   9  17  28  46  69  95 122 152 189 232 281
#     4  12  24  35  48  69  97 126 152 190 239 286
#
# _framework density 17.078061000000002
#
# number of rings (size 3 to 8) (size 9 to 14) (size 15 to 20)
#    0.000    2.429    1.429    2.143    0.000    3.429 
#    0.000    1.429    0.000    0.857    0.000    6.000 
#    0.000    0.000    0.000   23.571    0.000   17.429 
#
# Total GULP energy -346896.300097 kJ/mol
# GULP energy per Si atom -12389.153575 kJ/mol
# Density = 1.703919 g / cm^3
# Si number density = 17.078061 Si / 1000 Ang^3
#
#
#
# Elastic Constant Matrix: (Units=GPa)
#
#
# Indices 1 2 3 4 5 6 
#
# 1 38.6249 30.0216 36.3109 0.0000 0.0000 0.0000
# 2 30.0216 138.5826 92.7990 0.0000 0.0000 0.0000
# 3 36.3109 92.7990 198.1520 0.0000 0.0000 0.0000
# 4 0.0000 0.0000 0.0000 120.0801 0.0000 0.0000
# 5 0.0000 0.0000 0.0000 0.0000 -40.0115 0.0000
# 6 0.0000 0.0000 0.0000 0.0000 0.0000 17.4399
#
#
#
# Elastic Compliance Matrix: (Units=1/GPa)
#
#
# Indices 1 2 3 4 5 6 
#
# 1 0.033124 -0.004533 -0.003947 0.000000 0.000000 0.000000
# 2 -0.004533 0.011133 -0.004383 0.000000 0.000000 0.000000
# 3 -0.003947 -0.004383 0.007823 0.000000 0.000000 0.000000
# 4 0.000000 0.000000 0.000000 0.008328 0.000000 0.000000
# 5 0.000000 0.000000 0.000000 0.000000 -0.024993 0.000000
# 6 0.000000 0.000000 0.000000 0.000000 0.000000 0.057340
#
#
# Mechanical properties :
#
#
# Convention : Reuss Voigt Hill
#
# Bulk Modulus (GPa) = 37.94565 77.06918 57.50742
# Shear Modulus (GPa) = 39.28825 33.91689 36.60257
#
# Velocity S-wave (km/s) = 4.80157 4.46128 4.63455
# Velocity P-wave (km/s) = 7.28061 8.47130 7.89842
#
# Compressibility (1/GPa) = 0.02635348
#
# Stress axis : x y z
#
# Youngs Moduli (GPa) = 30.18985 89.82336 127.83301
#
# Poissons Ratio (x) = 0.40713 0.50458
# Poissons Ratio (y) = 0.13684 0.56032
# Poissons Ratio (z) = 0.11916 0.39372
#
# Static dielectric constant tensor:
#      x y z
#    x 3.151320 0.000000 0.000000 
#    y 0.000000 2.989590 0.000000 
#    z 0.000000 0.000000 5.243870 
# 
# 
# High freq. dielectric constant tensor:
#      x y z
#    x 1.640870 0.000000 0.000000 
#    y 0.000000 1.634440 0.000000 
#    z 0.000000 0.000000 1.677940 
# 
# From -- ./inp_files/35816.got.cif
#   From: 2010.03.12/outbox.cif.g09.slc.cpg/sg65_18_cif.got.tgz:35816.got - 2010.04.10 20:52:16.
