data_PCOD8268537
_publ_section_title
;
Structure prediction by ZEFSAII (Michael W. Deem and Ramdas Pophale) SiO2 
 PCOD8268537
Probable space group: C M M M
;
_chemical_formula_sum "Si O2"
_cell_formula_units_Z 104
_cell_length_a 19.918065
_cell_length_b 8.765485
_cell_length_c 32.921399
_cell_angle_alpha 90.000000
_cell_angle_beta 90.000000
_cell_angle_gamma 90.000000
_cell_volume 5747.796433
_symmetry_space_group_name_H-M "C M M M"
_symmetry_group_IT_number 65
_symmetry_cell_setting 'orthorhombic'
loop_
_space_group_symop_operation_xyz
x,y,z
-x,-y,z
x,-y,-z
-x,y,-z
-x,-y,-z
x,y,-z
-x,y,z
x,-y,z
1/2+x,1/2+y,z
1/2-x,1/2-y,z
1/2+x,1/2-y,-z
1/2-x,1/2+y,-z
1/2-x,1/2-y,-z
1/2+x,1/2+y,-z
1/2-x,1/2+y,z
1/2+x,1/2-y,z
loop_
_atom_site_type_symbol
_atom_site_label
_atom_site_fract_x
_atom_site_fract_y
_atom_site_fract_z
Si Si1 0.576099 0.676448 0.350802
Si Si2 0.321541 0.317856 0.888218
Si Si3 0.574872 0.318786 0.045125
Si Si4 0.177054 0.678899 0.412348
Si Si5 0.321831 0.178420 0.500000
Si Si6 0.077504 0.824811 0.257008
Si Si7 0.179175 0.320327 0.802556
O O1 0.500000 0.727990 0.360016
O O2 0.585479 0.500000 0.361484
O O3 0.625941 0.773595 0.377785
O O4 0.593364 0.707083 0.303968
O O5 0.318079 0.500000 0.886886
O O6 0.250000 0.250000 0.900579
O O7 0.373894 0.254710 0.921474
O O8 0.344607 0.255726 0.844570
O O9 0.500000 0.258827 0.055322
O O10 0.575282 0.500000 0.046286
O O11 0.596265 0.262684 0.000000
O O12 0.187359 0.500000 0.409873
O O13 0.250000 0.750000 0.404842
O O14 0.144793 0.727295 0.456758
O O15 0.250000 0.250000 0.500000
O O16 0.312592 0.000000 0.500000
O O17 0.123277 0.712227 0.231056
O O18 0.000000 0.789038 0.247368
O O19 0.093980 0.000000 0.246078
O O20 0.187956 0.500000 0.808677
O O21 0.250000 0.250000 0.788283
#
# Coordination Sequence:
#
# PCOD8268537 Si02
#       7
#    16  16  16  16   8  16  16
#     4   9  19  36  55  75 102 134 167 206 251 299
#     4  10  19  32  51  74 101 133 166 203 250 300
#     4   8  15  29  49  73  99 128 166 208 245 287
#     4  10  19  32  52  76 102 133 170 211 252 298
#     4   8  16  30  47  70  99 131 167 207 251 294
#     4   9  19  37  58  77 100 132 168 206 251 303
#     4  11  22  36  54  76 104 135 169 211 254 299
#
# _framework density 18.093889999999998
#
# number of rings (size 3 to 8) (size 9 to 14) (size 15 to 20)
#    0.000    2.615    0.000    4.615    0.000    3.385 
#    0.000    3.462    0.000    5.077    0.000    4.308 
#    0.000    0.000    0.000    0.000    0.000    0.000 
#
# Total GULP energy -644512.557267 kJ/mol
# GULP energy per Si atom -12394.472255 kJ/mol
# Density = 1.805271 g / cm^3
# Si number density = 18.093890 Si / 1000 Ang^3
#
#
#
# Elastic Constant Matrix: (Units=GPa)
#
#
# Indices 1 2 3 4 5 6 
#
# 1 99.2757 37.7959 81.1264 0.0000 0.0000 0.0000
# 2 37.7959 66.9505 41.3412 0.0000 0.0000 0.0000
# 3 81.1264 41.3412 118.6857 0.0000 0.0000 0.0000
# 4 0.0000 0.0000 0.0000 21.6728 0.0000 0.0000
# 5 0.0000 0.0000 0.0000 0.0000 -15.1364 0.0000
# 6 0.0000 0.0000 0.0000 0.0000 0.0000 29.6414
#
#
#
# Elastic Compliance Matrix: (Units=1/GPa)
#
#
# Indices 1 2 3 4 5 6 
#
# 1 0.023758 -0.004312 -0.014737 0.000000 0.000000 0.000000
# 2 -0.004312 0.019812 -0.003954 0.000000 0.000000 0.000000
# 3 -0.014737 -0.003954 0.019876 0.000000 0.000000 0.000000
# 4 0.000000 0.000000 0.000000 0.046141 0.000000 0.000000
# 5 0.000000 0.000000 0.000000 0.000000 -0.066066 0.000000
# 6 0.000000 0.000000 0.000000 0.000000 0.000000 0.033737
#
#
# Mechanical properties :
#
#
# Convention : Reuss Voigt Hill
#
# Bulk Modulus (GPa) = 57.33891 67.27098 62.30494
# Shear Modulus (GPa) = 38.73663 15.54546 27.14105
#
# Velocity S-wave (km/s) = 4.63197 2.93432 3.87720
# Velocity P-wave (km/s) = 7.76951 6.98139 7.38597
#
# Compressibility (1/GPa) = 0.01744016
#
# Stress axis : x y z
#
# Youngs Moduli (GPa) = 42.09164 50.47455 50.31100
#
# Poissons Ratio (x) = 0.21764 0.74145
# Poissons Ratio (y) = 0.18149 0.19891
# Poissons Ratio (z) = 0.62032 0.19956
#
# Static dielectric constant tensor:
#      x y z
#    x 3.294350 0.000000 0.000000 
#    y 0.000000 3.228030 0.000000 
#    z 0.000000 0.000000 3.708340 
# 
# 
# High freq. dielectric constant tensor:
#      x y z
#    x 1.690730 0.000000 0.000000 
#    y 0.000000 1.690710 0.000000 
#    z 0.000000 0.000000 1.713060 
# 
# From -- ./inp_files/73310.got.cif
#   From: 2010.03.12/outbox.cif.g09.slc.cpg/sg65_37_cif.got.tgz:73310.got - 2010.04.10 20:52:16.
