data_PCOD8268138
_publ_section_title
;
Structure prediction by ZEFSAII (Michael W. Deem and Ramdas Pophale) SiO2 
 PCOD8268138
Probable space group: C M M M
;
_chemical_formula_sum "Si O2"
_cell_formula_units_Z 104
_cell_length_a 9.058613
_cell_length_b 19.418963
_cell_length_c 33.474438
_cell_angle_alpha 90.000000
_cell_angle_beta 90.000000
_cell_angle_gamma 90.000000
_cell_volume 5888.450585
_symmetry_space_group_name_H-M "C M M M"
_symmetry_group_IT_number 65
_symmetry_cell_setting 'orthorhombic'
loop_
_space_group_symop_operation_xyz
x,y,z
-x,-y,z
x,-y,-z
-x,y,-z
-x,-y,-z
x,y,-z
-x,y,z
x,-y,z
1/2+x,1/2+y,z
1/2-x,1/2-y,z
1/2+x,1/2-y,-z
1/2-x,1/2+y,-z
1/2-x,1/2-y,-z
1/2+x,1/2+y,-z
1/2-x,1/2+y,z
1/2+x,1/2-y,z
loop_
_atom_site_type_symbol
_atom_site_label
_atom_site_fract_x
_atom_site_fract_y
_atom_site_fract_z
Si Si1 0.329038 0.821813 0.957868
Si Si2 0.324771 0.922981 0.500000
Si Si3 0.171707 0.080532 0.192859
Si Si4 0.829366 0.420752 0.273265
Si Si5 0.826032 0.320565 0.432338
Si Si6 0.827259 0.680542 0.342058
Si Si7 0.325295 0.175687 0.129037
O O1 0.500000 0.804704 0.956934
O O2 0.250000 0.750000 0.959708
O O3 0.288459 0.856754 0.915311
O O4 0.290982 0.862877 0.000000
O O5 0.500000 0.927989 0.500000
O O6 0.270307 0.882443 0.460576
O O7 0.256364 0.000000 0.500000
O O8 0.231261 0.103689 0.236025
O O9 0.260219 0.121552 0.159657
O O10 0.000000 0.098906 0.190177
O O11 0.201846 0.000000 0.185931
O O12 0.801053 0.500000 0.283327
O O13 0.777365 0.379862 0.312429
O O14 0.000000 0.406545 0.262735
O O15 0.750000 0.250000 0.446212
O O16 0.779629 0.339653 0.387056
O O17 0.000000 0.309683 0.436587
O O18 0.750000 0.750000 0.327671
O O19 0.000000 0.693574 0.339860
O O20 0.500000 0.183727 0.136091
O O21 0.250000 0.250000 0.134783
#
# Coordination Sequence:
#
# PCOD8268138 Si02
#       7
#    16   8  16  16  16  16  16
#     4   8  14  25  42  66  95 124 154 190 233 280
#     4   9  17  28  45  71  98 123 156 198 236 269
#     4  10  21  36  52  70  95 128 164 201 242 289
#     4   9  18  33  51  69  90 119 156 195 236 284
#     4   9  17  30  48  69  94 125 158 190 229 278
#     4   9  18  31  48  71  96 122 153 191 234 279
#     4  10  19  31  50  75 101 128 160 199 241 285
#
# _framework density 17.661691999999999
#
# number of rings (size 3 to 8) (size 9 to 14) (size 15 to 20)
#    0.000    2.846    0.000    1.154    0.000    3.385 
#    0.000    4.615    0.000    1.385    0.000    7.538 
#    0.000    0.000    0.000    0.000    0.000    0.000 
#
# Total GULP energy -644362.545863 kJ/mol
# GULP energy per Si atom -12391.587420 kJ/mol
# Density = 1.762149 g / cm^3
# Si number density = 17.661692 Si / 1000 Ang^3
#
#
#
# Elastic Constant Matrix: (Units=GPa)
#
#
# Indices 1 2 3 4 5 6 
#
# 1 51.7619 36.7040 48.8560 0.0000 0.0000 0.0000
# 2 36.7040 92.3744 84.3629 0.0000 0.0000 0.0000
# 3 48.8560 84.3629 158.5070 0.0000 0.0000 0.0000
# 4 0.0000 0.0000 0.0000 2.3889 0.0000 0.0000
# 5 0.0000 0.0000 0.0000 0.0000 20.0623 0.0000
# 6 0.0000 0.0000 0.0000 0.0000 0.0000 25.6427
#
#
#
# Elastic Compliance Matrix: (Units=1/GPa)
#
#
# Indices 1 2 3 4 5 6 
#
# 1 0.029162 -0.006574 -0.005490 0.000000 0.000000 0.000000
# 2 -0.006574 0.022546 -0.009974 0.000000 0.000000 0.000000
# 3 -0.005490 -0.009974 0.013309 0.000000 0.000000 0.000000
# 4 0.000000 0.000000 0.000000 0.418607 0.000000 0.000000
# 5 0.000000 0.000000 0.000000 0.000000 0.049845 0.000000
# 6 0.000000 0.000000 0.000000 0.000000 0.000000 0.038997
#
#
# Mechanical properties :
#
#
# Convention : Reuss Voigt Hill
#
# Bulk Modulus (GPa) = 47.74775 71.38770 59.56772
# Shear Modulus (GPa) = 8.01896 18.46679 13.24288
#
# Velocity S-wave (km/s) = 2.13311 3.23706 2.74123
# Velocity P-wave (km/s) = 5.75849 7.38097 6.61963
#
# Compressibility (1/GPa) = 0.02094340
#
# Stress axis : x y z
#
# Youngs Moduli (GPa) = 34.29104 44.35349 75.13522
#
# Poissons Ratio (x) = 0.29156 0.41248
# Poissons Ratio (y) = 0.22541 0.74938
# Poissons Ratio (z) = 0.18825 0.44237
#
# Static dielectric constant tensor:
#      x y z
#    x 3.233940 0.000000 0.000000 
#    y 0.000000 3.130790 0.000000 
#    z 0.000000 0.000000 3.834580 
# 
# 
# High freq. dielectric constant tensor:
#      x y z
#    x 1.676510 0.000000 0.000000 
#    y 0.000000 1.653990 0.000000 
#    z 0.000000 0.000000 1.704980 
# 
# From -- ./inp_files/76942.got.cif
#   From: 2010.03.12/outbox.cif.g09.slc.cpg/sg65_39_cif.got.tgz:76942.got - 2010.04.10 20:52:16.
