data_PCOD8268398
_publ_section_title
;
Structure prediction by ZEFSAII (Michael W. Deem and Ramdas Pophale) SiO2 
 PCOD8268398
Probable space group: C M M M
;
_chemical_formula_sum "Si O2"
_cell_formula_units_Z 120
_cell_length_a 30.045140
_cell_length_b 24.295612
_cell_length_c 8.959657
_cell_angle_alpha 90.000000
_cell_angle_beta 90.000000
_cell_angle_gamma 90.000000
_cell_volume 6540.236595
_symmetry_space_group_name_H-M "C M M M"
_symmetry_group_IT_number 65
_symmetry_cell_setting 'orthorhombic'
loop_
_space_group_symop_operation_xyz
x,y,z
-x,-y,z
x,-y,-z
-x,y,-z
-x,-y,-z
x,y,-z
-x,y,z
x,-y,z
1/2+x,1/2+y,z
1/2-x,1/2-y,z
1/2+x,1/2-y,-z
1/2-x,1/2+y,-z
1/2-x,1/2-y,-z
1/2+x,1/2+y,-z
1/2-x,1/2+y,z
1/2+x,1/2-y,z
loop_
_atom_site_type_symbol
_atom_site_label
_atom_site_fract_x
_atom_site_fract_y
_atom_site_fract_z
Si Si1 0.948201 0.758179 0.324583
Si Si2 0.078802 0.637114 0.676548
Si Si3 0.656919 0.562683 0.324913
Si Si4 0.331400 0.866426 0.172493
Si Si5 0.500000 0.061611 0.322051
Si Si6 0.875977 0.833100 0.822245
Si Si7 0.248947 0.062877 0.829733
Si Si8 0.799169 0.245999 0.173077
O O1 0.938991 0.763760 0.500000
O O2 0.933458 0.698085 0.265355
O O3 0.920141 0.804031 0.238283
O O4 0.000000 0.767446 0.287885
O O5 0.079355 0.637432 0.500000
O O6 0.125731 0.615315 0.735940
O O7 0.042959 0.593870 0.738172
O O8 0.653058 0.573064 0.500000
O O9 0.643276 0.500000 0.283258
O O10 0.624337 0.604497 0.239039
O O11 0.707172 0.574426 0.274655
O O12 0.288864 0.899781 0.231951
O O13 0.324783 0.802245 0.201352
O O14 0.339281 0.880124 0.000000
O O15 0.500000 0.060552 0.500000
O O16 0.500000 0.000000 0.256276
O O17 0.831112 0.802059 0.762283
O O18 0.877945 0.833042 0.000000
O O19 0.264632 0.000000 0.820906
O O20 0.236345 0.079316 0.000000
O O21 0.750000 0.250000 0.249521
O O22 0.791688 0.233359 0.000000
#
# Coordination Sequence:
#
# PCOD8268398 Si02
#       8
#    16  16  16  16   8  16  16  16
#     4  10  20  36  57  79 108 144 180 225 280 333
#     4  10  19  33  53  75 102 138 181 229 276 324
#     4  10  21  37  57  81 111 145 179 218 262 311
#     4  10  19  32  49  72 106 143 178 222 274 323
#     4   9  18  34  55  77 101 137 186 231 274 325
#     4  11  21  34  56  84 111 142 181 223 267 324
#     4   9  18  33  53  75 102 144 192 229 265 315
#     4   9  17  29  46  71 104 141 176 212 260 315
#
# _framework density 18.34796
#
# number of rings (size 3 to 8) (size 9 to 14) (size 15 to 20)
#    0.000    2.200    2.000    1.600    0.000    4.267 
#    0.000    0.333    0.000    2.800    0.000    2.800 
#    0.000    0.000    0.000    0.000    0.000    0.000 
#
# Total GULP energy -744002.164495 kJ/mol
# GULP energy per Si atom -12400.036075 kJ/mol
# Density = 1.830620 g / cm^3
# Si number density = 18.347960 Si / 1000 Ang^3
#
#
#
# Elastic Constant Matrix: (Units=GPa)
#
#
# Indices 1 2 3 4 5 6 
#
# 1 97.6335 52.3060 32.9723 0.0000 0.0000 0.0000
# 2 52.3060 117.2609 36.6048 0.0000 0.0000 0.0000
# 3 32.9723 36.6048 40.9485 0.0000 0.0000 0.0000
# 4 0.0000 0.0000 0.0000 20.6512 0.0000 0.0000
# 5 0.0000 0.0000 0.0000 0.0000 28.2865 0.0000
# 6 0.0000 0.0000 0.0000 0.0000 0.0000 32.6698
#
#
#
# Elastic Compliance Matrix: (Units=1/GPa)
#
#
# Indices 1 2 3 4 5 6 
#
# 1 0.015404 -0.004160 -0.008685 0.000000 0.000000 0.000000
# 2 -0.004160 0.012952 -0.008229 0.000000 0.000000 0.000000
# 3 -0.008685 -0.008229 0.038770 0.000000 0.000000 0.000000
# 4 0.000000 0.000000 0.000000 0.048423 0.000000 0.000000
# 5 0.000000 0.000000 0.000000 0.000000 0.035352 0.000000
# 6 0.000000 0.000000 0.000000 0.000000 0.000000 0.030609
#
#
# Mechanical properties :
#
#
# Convention : Reuss Voigt Hill
#
# Bulk Modulus (GPa) = 40.03328 55.51214 47.77271
# Shear Modulus (GPa) = 21.55313 25.25217 23.40265
#
# Velocity S-wave (km/s) = 3.43109 3.71387 3.57528
# Velocity P-wave (km/s) = 6.12885 6.97935 6.56788
#
# Compressibility (1/GPa) = 0.02497922
#
# Stress axis : x y z
#
# Youngs Moduli (GPa) = 64.91771 77.20585 25.79326
#
# Poissons Ratio (x) = 0.32119 0.22401
# Poissons Ratio (y) = 0.27007 0.21224
# Poissons Ratio (z) = 0.56380 0.63530
#
# Static dielectric constant tensor:
#      x y z
#    x 3.354850 0.000000 0.000000 
#    y 0.000000 3.546140 0.000000 
#    z 0.000000 0.000000 3.102040 
# 
# 
# High freq. dielectric constant tensor:
#      x y z
#    x 1.707010 0.000000 0.000000 
#    y 0.000000 1.716900 0.000000 
#    z 0.000000 0.000000 1.684570 
# 
# From -- ./inp_files/17088.got.cif
#   From: 2010.03.12/outbox.cif.g09.slc.cpg/sg65_9_cif.got.tgz:17088.got - 2010.04.10 20:52:16.
