data_PCOD8268212
_publ_section_title
;
Structure prediction by ZEFSAII (Michael W. Deem and Ramdas Pophale) SiO2 
 PCOD8268212
Probable space group: C M M M
;
_chemical_formula_sum "Si O2"
_cell_formula_units_Z 88
_cell_length_a 23.554836
_cell_length_b 15.944715
_cell_length_c 13.443675
_cell_angle_alpha 90.000000
_cell_angle_beta 90.000000
_cell_angle_gamma 90.000000
_cell_volume 5049.110213
_symmetry_space_group_name_H-M "C M M M"
_symmetry_group_IT_number 65
_symmetry_cell_setting 'orthorhombic'
loop_
_space_group_symop_operation_xyz
x,y,z
-x,-y,z
x,-y,-z
-x,y,-z
-x,-y,-z
x,y,-z
-x,y,z
x,-y,z
1/2+x,1/2+y,z
1/2-x,1/2-y,z
1/2+x,1/2-y,-z
1/2-x,1/2+y,-z
1/2-x,1/2-y,-z
1/2+x,1/2+y,-z
1/2-x,1/2+y,z
1/2+x,1/2-y,z
loop_
_atom_site_type_symbol
_atom_site_label
_atom_site_fract_x
_atom_site_fract_y
_atom_site_fract_z
Si Si1 0.438810 0.500000 0.112288
Si Si2 0.614238 0.364386 0.228773
Si Si3 0.065499 0.714624 0.886087
Si Si4 0.255580 0.500000 0.390674
Si Si5 0.390057 0.500000 0.612138
Si Si6 0.254569 0.342875 0.737271
Si Si7 0.333828 0.094773 0.114346
O O1 0.500000 0.500000 0.170296
O O2 0.401237 0.580448 0.134297
O O3 0.455004 0.500000 0.000000
O O4 0.583314 0.276933 0.204324
O O5 0.591845 0.414701 0.328031
O O6 0.681396 0.356181 0.228793
O O7 0.103109 0.631598 0.870951
O O8 0.000000 0.690283 0.870302
O O9 0.074575 0.749557 0.000000
O O10 0.228609 0.500000 0.500000
O O11 0.322918 0.500000 0.395459
O O12 0.234384 0.585259 0.338745
O O13 0.416474 0.500000 0.500000
O O14 0.250000 0.250000 0.688509
O O15 0.212809 0.347779 0.831267
O O16 0.333414 0.000000 0.156574
O O17 0.315903 0.095535 0.000000
#
# Coordination Sequence:
#
# PCOD8268212 Si02
#       7
#     8  16  16   8   8  16  16
#     4  10  20  32  47  70 101 137 177 213 248 299
#     4  10  19  31  51  74 102 138 170 211 255 303
#     4  10  20  34  52  74 101 135 178 221 256 298
#     4   9  19  35  54  79 109 137 171 216 263 313
#     4   8  17  33  51  74 105 138 170 208 255 309
#     4  11  20  34  54  79 112 141 171 213 262 320
#     4  10  21  35  52  75 106 140 173 212 258 310
#
# _framework density 17.428813000000002
#
# number of rings (size 3 to 8) (size 9 to 14) (size 15 to 20)
#    0.000    2.091    2.727    1.636    0.000    4.000 
#    0.000    1.818    0.000    9.818    0.000    0.000 
#    0.000    0.727    0.000    0.000    0.000    0.000 
#
# Total GULP energy -545154.705422 kJ/mol
# GULP energy per Si atom -12389.879669 kJ/mol
# Density = 1.738914 g / cm^3
# Si number density = 17.428813 Si / 1000 Ang^3
#
#
#
# Elastic Constant Matrix: (Units=GPa)
#
#
# Indices 1 2 3 4 5 6 
#
# 1 85.9173 29.5512 33.1995 0.0000 0.0000 0.0000
# 2 29.5512 123.0706 46.4142 0.0000 0.0000 0.0000
# 3 33.1995 46.4142 88.8430 0.0000 0.0000 0.0000
# 4 0.0000 0.0000 0.0000 20.1998 0.0000 0.0000
# 5 0.0000 0.0000 0.0000 0.0000 7.9515 0.0000
# 6 0.0000 0.0000 0.0000 0.0000 0.0000 13.2249
#
#
#
# Elastic Compliance Matrix: (Units=1/GPa)
#
#
# Indices 1 2 3 4 5 6 
#
# 1 0.013888 -0.001716 -0.004294 0.000000 0.000000 0.000000
# 2 -0.001716 0.010331 -0.004756 0.000000 0.000000 0.000000
# 3 -0.004294 -0.004756 0.015345 0.000000 0.000000 0.000000
# 4 0.000000 0.000000 0.000000 0.049506 0.000000 0.000000
# 5 0.000000 0.000000 0.000000 0.000000 0.125763 0.000000
# 6 0.000000 0.000000 0.000000 0.000000 0.000000 0.075615
#
#
# Mechanical properties :
#
#
# Convention : Reuss Voigt Hill
#
# Bulk Modulus (GPa) = 55.45167 57.35118 56.40143
# Shear Modulus (GPa) = 15.72379 20.85296 18.28838
#
# Velocity S-wave (km/s) = 3.00688 3.46275 3.24283
# Velocity P-wave (km/s) = 6.62874 6.99749 6.81561
#
# Compressibility (1/GPa) = 0.01803372
#
# Stress axis : x y z
#
# Youngs Moduli (GPa) = 72.00326 96.79540 65.16752
#
# Poissons Ratio (x) = 0.16605 0.27981
# Poissons Ratio (y) = 0.12352 0.30995
# Poissons Ratio (z) = 0.30916 0.46038
#
# Static dielectric constant tensor:
#      x y z
#    x 3.126200 0.000000 0.000000 
#    y 0.000000 3.427340 0.000000 
#    z 0.000000 0.000000 3.308700 
# 
# 
# High freq. dielectric constant tensor:
#      x y z
#    x 1.666870 0.000000 0.000000 
#    y 0.000000 1.677610 0.000000 
#    z 0.000000 0.000000 1.650100 
# 
# From -- ./inp_files/45603.got.cif
#   From: 2010.03.12/outbox.cif.g09.slc.cpg/sg65_23_cif.got.tgz:45603.got - 2010.04.10 20:52:16.
