data_PCOD8268884
_publ_section_title
;
Structure prediction by ZEFSAII (Michael W. Deem and Ramdas Pophale) SiO2 
 PCOD8268884
Probable space group: C M M M
;
_chemical_formula_sum "Si O2"
_cell_formula_units_Z 88
_cell_length_a 13.384443
_cell_length_b 28.984299
_cell_length_c 13.368490
_cell_angle_alpha 90.000000
_cell_angle_beta 90.000000
_cell_angle_gamma 90.000000
_cell_volume 5186.154603
_symmetry_space_group_name_H-M "C M M M"
_symmetry_group_IT_number 65
_symmetry_cell_setting 'orthorhombic'
loop_
_space_group_symop_operation_xyz
x,y,z
-x,-y,z
x,-y,-z
-x,y,-z
-x,-y,-z
x,y,-z
-x,y,z
x,-y,z
1/2+x,1/2+y,z
1/2-x,1/2-y,z
1/2+x,1/2-y,-z
1/2-x,1/2+y,-z
1/2-x,1/2-y,-z
1/2+x,1/2+y,-z
1/2-x,1/2+y,z
1/2+x,1/2-y,z
loop_
_atom_site_type_symbol
_atom_site_label
_atom_site_fract_x
_atom_site_fract_y
_atom_site_fract_z
Si Si1 0.884872 0.591087 0.723174
Si Si2 0.750000 0.750000 0.749362
Si Si3 0.222671 0.091394 0.115595
Si Si4 0.614793 0.685804 0.884835
Si Si5 0.611536 0.500000 0.118795
Si Si6 0.881313 0.500000 0.388398
Si Si7 0.385306 0.814615 0.614922
O O1 0.824101 0.600425 0.824214
O O2 0.843835 0.545174 0.669805
O O3 0.869388 0.632510 0.645771
O O4 0.000000 0.585857 0.755108
O O5 0.679310 0.719739 0.818387
O O6 0.683132 0.782091 0.680620
O O7 0.146447 0.133132 0.132914
O O8 0.169393 0.045327 0.156122
O O9 0.253422 0.086599 0.000000
O O10 0.500000 0.690643 0.852704
O O11 0.630339 0.699923 0.000000
O O12 0.500000 0.500000 0.164699
O O13 0.604437 0.500000 0.000000
O O14 0.835353 0.500000 0.500000
O O15 0.000000 0.500000 0.395583
O O16 0.353258 0.809554 0.500000
O O17 0.500000 0.799808 0.630936
#
# Coordination Sequence:
#
# PCOD8268884 Si02
#       7
#    16   8  16  16   8   8  16
#     4  10  19  33  51  76 107 137 171 211 257 310
#     4  12  20  36  56  78 104 132 180 220 264 318
#     4  10  19  33  51  76 107 137 172 211 254 309
#     4  10  21  36  54  77 107 140 173 215 261 308
#     4   9  17  30  51  75  99 131 169 207 247 297
#     4   9  17  30  51  75  99 131 169 209 251 301
#     4  10  21  36  54  77 105 136 173 221 269 312
#
# _framework density 16.968256
#
# number of rings (size 3 to 8) (size 9 to 14) (size 15 to 20)
#    0.000    2.000    1.818    2.727    0.000    4.727 
#    0.000    0.000    0.000    3.273    0.000    0.000 
#    0.000    2.909    0.000    0.000    0.000    0.000 
#
# Total GULP energy -545698.750677 kJ/mol
# GULP energy per Si atom -12402.244334 kJ/mol
# Density = 1.692964 g / cm^3
# Si number density = 16.968256 Si / 1000 Ang^3
#
#
#
# Elastic Constant Matrix: (Units=GPa)
#
#
# Indices 1 2 3 4 5 6 
#
# 1 105.0415 61.0064 71.9707 0.0000 0.0000 0.0000
# 2 61.0064 121.9309 58.7357 0.0000 0.0000 0.0000
# 3 71.9707 58.7357 102.9456 0.0000 0.0000 0.0000
# 4 0.0000 0.0000 0.0000 28.2832 0.0000 0.0000
# 5 0.0000 0.0000 0.0000 0.0000 22.1625 0.0000
# 6 0.0000 0.0000 0.0000 0.0000 0.0000 29.8980
#
#
#
# Elastic Compliance Matrix: (Units=1/GPa)
#
#
# Indices 1 2 3 4 5 6 
#
# 1 0.019909 -0.004491 -0.011357 0.000000 0.000000 0.000000
# 2 -0.004491 0.012323 -0.003891 0.000000 0.000000 0.000000
# 3 -0.011357 -0.003891 0.019874 0.000000 0.000000 0.000000
# 4 0.000000 0.000000 0.000000 0.035357 0.000000 0.000000
# 5 0.000000 0.000000 0.000000 0.000000 0.045121 0.000000
# 6 0.000000 0.000000 0.000000 0.000000 0.000000 0.033447
#
#
# Mechanical properties :
#
#
# Convention : Reuss Voigt Hill
#
# Bulk Modulus (GPa) = 79.18652 79.26041 79.22346
# Shear Modulus (GPa) = 23.84157 25.28241 24.56199
#
# Velocity S-wave (km/s) = 3.75249 3.86422 3.80876
# Velocity P-wave (km/s) = 8.09591 8.16835 8.13221
#
# Compressibility (1/GPa) = 0.01262841
#
# Stress axis : x y z
#
# Youngs Moduli (GPa) = 50.22743 81.15123 50.31782
#
# Poissons Ratio (x) = 0.36443 0.57145
# Poissons Ratio (y) = 0.22556 0.19580
# Poissons Ratio (z) = 0.57042 0.31578
#
# Static dielectric constant tensor:
#      x y z
#    x 3.156830 0.000000 0.000000 
#    y 0.000000 3.312030 0.000000 
#    z 0.000000 0.000000 3.133880 
# 
# 
# High freq. dielectric constant tensor:
#      x y z
#    x 1.647590 0.000000 0.000000 
#    y 0.000000 1.670030 0.000000 
#    z 0.000000 0.000000 1.646480 
# 
# From -- ./inp_files/25195.got.cif
#   From: 2010.03.12/outbox.cif.g09.slc.cpg/sg65_13_cif.got.tgz:25195.got - 2010.04.10 20:52:16.
