data_PCOD8268086
_publ_section_title
;
Structure prediction by ZEFSAII (Michael W. Deem and Ramdas Pophale) SiO2 
 PCOD8268086
Probable space group: C M M M
;
_chemical_formula_sum "Si O2"
_cell_formula_units_Z 72
_cell_length_a 8.905980
_cell_length_b 18.766407
_cell_length_c 22.841828
_cell_angle_alpha 90.000000
_cell_angle_beta 90.000000
_cell_angle_gamma 90.000000
_cell_volume 3817.628845
_symmetry_space_group_name_H-M "C M M M"
_symmetry_group_IT_number 65
_symmetry_cell_setting 'orthorhombic'
loop_
_space_group_symop_operation_xyz
x,y,z
-x,-y,z
x,-y,-z
-x,y,-z
-x,-y,-z
x,y,-z
-x,y,z
x,-y,z
1/2+x,1/2+y,z
1/2-x,1/2-y,z
1/2+x,1/2-y,-z
1/2-x,1/2+y,-z
1/2-x,1/2-y,-z
1/2+x,1/2+y,-z
1/2-x,1/2+y,z
1/2+x,1/2-y,z
loop_
_atom_site_type_symbol
_atom_site_label
_atom_site_fract_x
_atom_site_fract_y
_atom_site_fract_z
Si Si1 0.322089 0.421280 0.606100
Si Si2 0.821150 0.173452 0.500000
Si Si3 0.827087 0.081496 0.067769
Si Si4 0.327184 0.583719 0.737177
Si Si5 0.823725 0.326685 0.163933
O O1 0.500000 0.426313 0.601833
O O2 0.254894 0.500000 0.593877
O O3 0.259946 0.367103 0.557574
O O4 0.277373 0.395549 0.671195
O O5 0.750000 0.250000 0.500000
O O6 0.000000 0.179000 0.500000
O O7 0.724291 0.134123 0.104591
O O8 0.000000 0.093003 0.085687
O O9 0.780438 0.000000 0.080631
O O10 0.802418 0.099861 0.000000
O O11 0.500000 0.604880 0.748554
O O12 0.304702 0.500000 0.747952
O O13 0.221458 0.626780 0.780308
O O14 0.750000 0.250000 0.167938
O O15 0.000000 0.316339 0.163317
#
# Coordination Sequence:
#
# PCOD8268086 Si02
#       5
#    16   8  16  16  16
#     4   8  15  30  54  79 100 131 176 219 257 305
#     4  10  19  31  49  75 107 138 172 214 260 312
#     4   9  19  38  63  87 111 141 176 215 262 316
#     4   9  18  35  58  81 106 137 175 220 270 322
#     4  12  25  38  54  78 110 146 182 221 266 315
#
# _framework density 18.859874999999999
#
# number of rings (size 3 to 8) (size 9 to 14) (size 15 to 20)
#    0.000    2.444    0.000    5.000    0.000    6.667 
#    0.000    4.444    0.000    2.667    0.000    0.000 
#    0.000    0.000    0.000    0.000    0.000    0.000 
#
# Total GULP energy -446392.643782 kJ/mol
# GULP energy per Si atom -12399.795661 kJ/mol
# Density = 1.881695 g / cm^3
# Si number density = 18.859875 Si / 1000 Ang^3
#
#
#
# Elastic Constant Matrix: (Units=GPa)
#
#
# Indices 1 2 3 4 5 6 
#
# 1 88.1424 49.0859 49.1982 0.0000 0.0000 0.0000
# 2 49.0859 104.5321 72.3291 0.0000 0.0000 0.0000
# 3 49.1982 72.3291 133.6803 0.0000 0.0000 0.0000
# 4 0.0000 0.0000 0.0000 6.9498 0.0000 0.0000
# 5 0.0000 0.0000 0.0000 0.0000 20.8019 0.0000
# 6 0.0000 0.0000 0.0000 0.0000 0.0000 32.4787
#
#
#
# Elastic Compliance Matrix: (Units=1/GPa)
#
#
# Indices 1 2 3 4 5 6 
#
# 1 0.016047 -0.005513 -0.002923 0.000000 0.000000 0.000000
# 2 -0.005513 0.017185 -0.007269 0.000000 0.000000 0.000000
# 3 -0.002923 -0.007269 0.012489 0.000000 0.000000 0.000000
# 4 0.000000 0.000000 0.000000 0.143890 0.000000 0.000000
# 5 0.000000 0.000000 0.000000 0.000000 0.048073 0.000000
# 6 0.000000 0.000000 0.000000 0.000000 0.000000 0.030789
#
#
# Mechanical properties :
#
#
# Convention : Reuss Voigt Hill
#
# Bulk Modulus (GPa) = 69.87524 74.17570 72.02547
# Shear Modulus (GPa) = 16.41211 22.42884 19.42047
#
# Velocity S-wave (km/s) = 2.95314 3.45227 3.21241
# Velocity P-wave (km/s) = 6.98270 7.43681 7.21333
#
# Compressibility (1/GPa) = 0.01431122
#
# Stress axis : x y z
#
# Youngs Moduli (GPa) = 62.31784 58.19064 80.06808
#
# Poissons Ratio (x) = 0.32079 0.23404
# Poissons Ratio (y) = 0.34354 0.58203
# Poissons Ratio (z) = 0.18215 0.42300
#
# Static dielectric constant tensor:
#      x y z
#    x 3.140470 0.000000 0.000000 
#    y 0.000000 3.517200 0.000000 
#    z 0.000000 0.000000 3.733610 
# 
# 
# High freq. dielectric constant tensor:
#      x y z
#    x 1.700650 0.000000 0.000000 
#    y 0.000000 1.732960 0.000000 
#    z 0.000000 0.000000 1.750900 
# 
# From -- ./inp_files/67082.got.cif
#   From: 2010.03.12/outbox.cif.g09.slc.cpg/sg65_34_cif.got.tgz:67082.got - 2010.04.10 20:52:16.
