data_PCOD8268024
_publ_section_title
;
Structure prediction by ZEFSAII (Michael W. Deem and Ramdas Pophale) SiO2 
 PCOD8268024
Probable space group: C M M M
;
_chemical_formula_sum "Si O2"
_cell_formula_units_Z 64
_cell_length_a 8.858451
_cell_length_b 18.087614
_cell_length_c 21.094584
_cell_angle_alpha 90.000000
_cell_angle_beta 90.000000
_cell_angle_gamma 90.000000
_cell_volume 3379.948117
_symmetry_space_group_name_H-M "C M M M"
_symmetry_group_IT_number 65
_symmetry_cell_setting 'orthorhombic'
loop_
_space_group_symop_operation_xyz
x,y,z
-x,-y,z
x,-y,-z
-x,y,-z
-x,-y,-z
x,y,-z
-x,y,z
x,-y,z
1/2+x,1/2+y,z
1/2-x,1/2-y,z
1/2+x,1/2-y,-z
1/2-x,1/2+y,-z
1/2-x,1/2-y,-z
1/2+x,1/2+y,-z
1/2-x,1/2+y,z
1/2+x,1/2-y,z
loop_
_atom_site_type_symbol
_atom_site_label
_atom_site_fract_x
_atom_site_fract_y
_atom_site_fract_z
Si Si1 0.322905 0.329827 0.000000
Si Si2 0.325220 0.914088 0.113651
Si Si3 0.321802 0.669182 0.635508
Si Si4 0.175549 0.171117 0.500000
Si Si5 0.676929 0.829843 0.240652
O O1 0.250000 0.250000 0.000000
O O2 0.276169 0.374073 0.937831
O O3 0.500000 0.319051 0.000000
O O4 0.500000 0.900099 0.097052
O O5 0.283764 0.882598 0.182347
O O6 0.285195 0.000000 0.113088
O O7 0.500000 0.673642 0.646897
O O8 0.250000 0.750000 0.633584
O O9 0.284128 0.629492 0.566894
O O10 0.245113 0.629763 0.696203
O O11 0.250000 0.250000 0.500000
O O12 0.000000 0.187901 0.500000
O O13 0.500000 0.819122 0.249709
O O14 0.750000 0.750000 0.228417
#
# Coordination Sequence:
#
# PCOD8268024 Si02
#       5
#     8  16  16   8  16
#     4  12  25  40  61  87 111 137 171 210 251 300
#     4  10  22  40  59  79 107 141 173 210 258 307
#     4   9  15  24  39  61  92 127 163 205 252 301
#     4   8  14  22  34  56  87 124 161 199 249 303
#     4  10  19  31  49  73 100 132 170 209 252 303
#
# _framework density 18.935202
#
# number of rings (size 3 to 8) (size 9 to 14) (size 15 to 20)
#    0.000    2.250    0.000    5.250    0.000    7.000 
#    0.000    0.000    0.000    0.000    0.000    0.875 
#    0.000    7.000    0.000    0.000    0.000    0.000 
#
# Total GULP energy -396451.153512 kJ/mol
# GULP energy per Si atom -12389.098547 kJ/mol
# Density = 1.889210 g / cm^3
# Si number density = 18.935202 Si / 1000 Ang^3
#
#
#
# Elastic Constant Matrix: (Units=GPa)
#
#
# Indices 1 2 3 4 5 6 
#
# 1 111.7712 44.0113 87.4035 0.0000 0.0000 0.0000
# 2 44.0113 78.3026 63.7239 0.0000 0.0000 0.0000
# 3 87.4035 63.7239 204.0685 0.0000 0.0000 0.0000
# 4 0.0000 0.0000 0.0000 -17.4989 0.0000 0.0000
# 5 0.0000 0.0000 0.0000 0.0000 37.9543 0.0000
# 6 0.0000 0.0000 0.0000 0.0000 0.0000 17.4883
#
#
#
# Elastic Compliance Matrix: (Units=1/GPa)
#
#
# Indices 1 2 3 4 5 6 
#
# 1 0.014378 -0.004116 -0.004873 0.000000 0.000000 0.000000
# 2 -0.004116 0.018300 -0.003952 0.000000 0.000000 0.000000
# 3 -0.004873 -0.003952 0.008221 0.000000 0.000000 0.000000
# 4 0.000000 0.000000 0.000000 -0.057147 0.000000 0.000000
# 5 0.000000 0.000000 0.000000 0.000000 0.026347 0.000000
# 6 0.000000 0.000000 0.000000 0.000000 0.000000 0.057181
#
#
# Mechanical properties :
#
#
# Convention : Reuss Voigt Hill
#
# Bulk Modulus (GPa) = 66.58317 87.15775 76.87046
# Shear Modulus (GPa) = 50.93247 20.85565 35.89406
#
# Velocity S-wave (km/s) = 5.19198 3.32237 4.35860
# Velocity P-wave (km/s) = 8.43696 7.80044 8.12494
#
# Compressibility (1/GPa) = 0.01501881
#
# Stress axis : x y z
#
# Youngs Moduli (GPa) = 69.55026 54.64384 121.63290
#
# Poissons Ratio (x) = 0.22490 0.59272
# Poissons Ratio (y) = 0.28625 0.48067
# Poissons Ratio (z) = 0.33892 0.21594
#
# Static dielectric constant tensor:
#      x y z
#    x 3.537410 0.000000 0.000000 
#    y 0.000000 3.010020 0.000000 
#    z 0.000000 0.000000 4.529840 
# 
# 
# High freq. dielectric constant tensor:
#      x y z
#    x 1.743930 0.000000 0.000000 
#    y 0.000000 1.676070 0.000000 
#    z 0.000000 0.000000 1.775080 
# 
# From -- ./inp_files/58894.got.cif
#   From: 2010.03.12/outbox.cif.g09.slc.cpg/sg65_30_cif.got.tgz:58894.got - 2010.04.10 20:52:16.
