data_PCOD8268081
_publ_section_title
;
Structure prediction by ZEFSAII (Michael W. Deem and Ramdas Pophale) SiO2 
 PCOD8268081
Probable space group: C M M M
;
_chemical_formula_sum "Si O2"
_cell_formula_units_Z 96
_cell_length_a 25.440616
_cell_length_b 23.638726
_cell_length_c 9.363228
_cell_angle_alpha 90.000000
_cell_angle_beta 90.000000
_cell_angle_gamma 90.000000
_cell_volume 5630.893175
_symmetry_space_group_name_H-M "C M M M"
_symmetry_group_IT_number 65
_symmetry_cell_setting 'orthorhombic'
loop_
_space_group_symop_operation_xyz
x,y,z
-x,-y,z
x,-y,-z
-x,y,-z
-x,-y,-z
x,y,-z
-x,y,z
x,-y,z
1/2+x,1/2+y,z
1/2-x,1/2-y,z
1/2+x,1/2-y,-z
1/2-x,1/2+y,-z
1/2-x,1/2-y,-z
1/2+x,1/2+y,-z
1/2-x,1/2+y,z
1/2+x,1/2-y,z
loop_
_atom_site_type_symbol
_atom_site_label
_atom_site_fract_x
_atom_site_fract_y
_atom_site_fract_z
Si Si1 0.439306 0.064854 0.836159
Si Si2 0.939830 0.835579 0.833348
Si Si3 0.753118 0.435808 0.670136
Si Si4 0.379014 0.254739 0.339597
Si Si5 0.150319 0.874162 0.338515
Si Si6 0.646139 0.869163 0.331498
O O1 0.500000 0.079090 0.808948
O O2 0.405987 0.104689 0.734580
O O3 0.427453 0.000000 0.796648
O O4 0.424292 0.076587 0.000000
O O5 0.927048 0.773622 0.764605
O O6 0.902269 0.882981 0.758144
O O7 0.000000 0.851941 0.803806
O O8 0.927131 0.833145 0.000000
O O9 0.752750 0.433159 0.500000
O O10 0.757440 0.500000 0.725949
O O11 0.699170 0.408260 0.728479
O O12 0.802292 0.400265 0.731056
O O13 0.401623 0.246470 0.500000
O O14 0.336434 0.306420 0.338431
O O15 0.351458 0.196999 0.288059
O O16 0.138473 0.895084 0.500000
O O17 0.643369 0.877979 0.500000
#
# Coordination Sequence:
#
# PCOD8268081 Si02
#       6
#    16  16  16  16  16  16
#     4   9  19  35  50  64  90 130 170 205 242 285
#     4   9  17  30  49  71  95 125 161 199 240 287
#     4   9  17  30  51  76  99 126 162 203 244 287
#     4   8  17  30  45  70  98 127 156 188 236 291
#     4   8  16  31  49  71  99 130 160 196 240 290
#     4  10  19  31  49  75 102 126 159 204 246 284
#
# _framework density 17.048805000000002
#
# number of rings (size 3 to 8) (size 9 to 14) (size 15 to 20)
#    1.000    2.167    0.000    1.000    0.000    4.667 
#    0.000    8.333    0.000    3.000    0.000    3.500 
#    0.000    0.000    0.000    0.000    0.000    0.000 
#
# Total GULP energy -594689.173260 kJ/mol
# GULP energy per Si atom -12389.357776 kJ/mol
# Density = 1.701000 g / cm^3
# Si number density = 17.048805 Si / 1000 Ang^3
#
#
#
# Elastic Constant Matrix: (Units=GPa)
#
#
# Indices 1 2 3 4 5 6 
#
# 1 103.0510 34.6573 36.8358 0.0000 0.0000 0.0000
# 2 34.6573 47.1080 13.5817 0.0000 0.0000 0.0000
# 3 36.8358 13.5817 45.5071 0.0000 0.0000 0.0000
# 4 0.0000 0.0000 0.0000 13.1499 0.0000 0.0000
# 5 0.0000 0.0000 0.0000 0.0000 13.9251 0.0000
# 6 0.0000 0.0000 0.0000 0.0000 0.0000 31.1102
#
#
#
# Elastic Compliance Matrix: (Units=1/GPa)
#
#
# Indices 1 2 3 4 5 6 
#
# 1 0.016603 -0.009126 -0.010716 0.000000 0.000000 0.000000
# 2 -0.009126 0.028242 -0.001042 0.000000 0.000000 0.000000
# 3 -0.010716 -0.001042 0.030960 0.000000 0.000000 0.000000
# 4 0.000000 0.000000 0.000000 0.076046 0.000000 0.000000
# 5 0.000000 0.000000 0.000000 0.000000 0.071813 0.000000
# 6 0.000000 0.000000 0.000000 0.000000 0.000000 0.032144
#
#
# Mechanical properties :
#
#
# Convention : Reuss Voigt Hill
#
# Bulk Modulus (GPa) = 29.37941 40.64619 35.01280
# Shear Modulus (GPa) = 16.18532 19.00978 17.59755
#
# Velocity S-wave (km/s) = 3.08450 3.34282 3.21625
# Velocity P-wave (km/s) = 5.47316 6.22833 5.86291
#
# Compressibility (1/GPa) = 0.03403745
#
# Stress axis : x y z
#
# Youngs Moduli (GPa) = 60.22827 35.40829 32.29990
#
# Poissons Ratio (x) = 0.32312 0.34613
# Poissons Ratio (y) = 0.54962 0.03366
# Poissons Ratio (z) = 0.64542 0.03690
#
# Static dielectric constant tensor:
#      x y z
#    x 3.083620 0.000000 0.000000 
#    y 0.000000 3.117830 0.000000 
#    z 0.000000 0.000000 2.959120 
# 
# 
# High freq. dielectric constant tensor:
#      x y z
#    x 1.647640 0.000000 0.000000 
#    y 0.000000 1.644460 0.000000 
#    z 0.000000 0.000000 1.637450 
# 
# From -- ./inp_files/16351.got.cif
#   From: 2010.03.12/outbox.cif.g09.slc.cpg/sg65_9_cif.got.tgz:16351.got - 2010.04.10 20:52:16.
