data_PCOD8268990
_publ_section_title
;
Structure prediction by ZEFSAII (Michael W. Deem and Ramdas Pophale) SiO2 
 PCOD8268990
Probable space group: C M M M
;
_chemical_formula_sum "Si O2"
_cell_formula_units_Z 80
_cell_length_a 7.714896
_cell_length_b 29.200499
_cell_length_c 19.181535
_cell_angle_alpha 90.000000
_cell_angle_beta 90.000000
_cell_angle_gamma 90.000000
_cell_volume 4321.193435
_symmetry_space_group_name_H-M "C M M M"
_symmetry_group_IT_number 65
_symmetry_cell_setting 'orthorhombic'
loop_
_space_group_symop_operation_xyz
x,y,z
-x,-y,z
x,-y,-z
-x,y,-z
-x,-y,-z
x,y,-z
-x,y,z
x,-y,z
1/2+x,1/2+y,z
1/2-x,1/2-y,z
1/2+x,1/2-y,-z
1/2-x,1/2+y,-z
1/2-x,1/2-y,-z
1/2+x,1/2+y,-z
1/2-x,1/2+y,z
1/2+x,1/2-y,z
loop_
_atom_site_type_symbol
_atom_site_label
_atom_site_fract_x
_atom_site_fract_y
_atom_site_fract_z
Si Si1 0.701627 0.117396 0.328742
Si Si2 0.000000 0.949331 0.671331
Si Si3 0.192629 0.384498 0.167521
Si Si4 0.500000 0.551172 0.836548
Si Si5 0.797760 0.800320 0.920197
Si Si6 0.297196 0.799652 0.422595
O O1 0.500000 0.105506 0.344516
O O2 0.823704 0.075659 0.353525
O O3 0.732928 0.127793 0.247576
O O4 0.771375 0.161603 0.370398
O O5 0.000000 0.952795 0.754115
O O6 0.000000 0.000000 0.638130
O O7 0.329039 0.421567 0.137874
O O8 0.197371 0.337579 0.124845
O O9 0.000000 0.405798 0.160534
O O10 0.500000 0.500000 0.869489
O O11 0.750000 0.750000 0.891723
O O12 0.000000 0.809491 0.912551
O O13 0.735336 0.804816 0.000000
O O14 0.213389 0.805380 0.500000
O O15 0.500000 0.804845 0.428670
O O16 0.250000 0.750000 0.391413
#
# Coordination Sequence:
#
# PCOD8268990 Si02
#       6
#    16   8  16   8  16  16
#     4   9  19  33  50  76 104 132 169 211 255 302
#     4   9  18  32  53  77 101 135 171 211 262 305
#     4  10  19  33  53  77 105 134 169 213 258 304
#     4   9  18  34  53  77 107 135 171 215 260 309
#     4  10  20  34  52  75 104 138 174 210 251 304
#     4   9  18  32  49  71 100 135 172 208 251 302
#
# _framework density 18.513403
#
# number of rings (size 3 to 8) (size 9 to 14) (size 15 to 20)
#    0.000    2.600    1.000    0.600    1.400    2.800 
#    0.000    6.000    0.000    2.400    0.000    4.200 
#    0.000    0.000    0.000    0.000    0.000    0.000 
#
# Total GULP energy -495919.703472 kJ/mol
# GULP energy per Si atom -12397.992587 kJ/mol
# Density = 1.847127 g / cm^3
# Si number density = 18.513403 Si / 1000 Ang^3
#
#
#
# Elastic Constant Matrix: (Units=GPa)
#
#
# Indices 1 2 3 4 5 6 
#
# 1 97.5878 62.7208 28.3798 0.0000 0.0000 0.0000
# 2 62.7208 168.3412 49.9365 0.0000 0.0000 0.0000
# 3 28.3798 49.9365 46.3061 0.0000 0.0000 0.0000
# 4 0.0000 0.0000 0.0000 10.2365 0.0000 0.0000
# 5 0.0000 0.0000 0.0000 0.0000 15.7015 0.0000
# 6 0.0000 0.0000 0.0000 0.0000 0.0000 31.3334
#
#
#
# Elastic Compliance Matrix: (Units=1/GPa)
#
#
# Indices 1 2 3 4 5 6 
#
# 1 0.014048 -0.003941 -0.004360 0.000000 0.000000 0.000000
# 2 -0.003941 0.009840 -0.008196 0.000000 0.000000 0.000000
# 3 -0.004360 -0.008196 0.033106 0.000000 0.000000 0.000000
# 4 0.000000 0.000000 0.000000 0.097689 0.000000 0.000000
# 5 0.000000 0.000000 0.000000 0.000000 0.063688 0.000000
# 6 0.000000 0.000000 0.000000 0.000000 0.000000 0.031915
#
#
# Mechanical properties :
#
#
# Convention : Reuss Voigt Hill
#
# Bulk Modulus (GPa) = 41.66598 66.03435 53.85017
# Shear Modulus (GPa) = 17.16562 22.86749 20.01656
#
# Velocity S-wave (km/s) = 3.04830 3.51833 3.29172
# Velocity P-wave (km/s) = 5.91136 7.22847 6.60284
#
# Compressibility (1/GPa) = 0.02400039
#
# Stress axis : x y z
#
# Youngs Moduli (GPa) = 71.18560 101.62800 30.20581
#
# Poissons Ratio (x) = 0.40048 0.13170
# Poissons Ratio (y) = 0.28051 0.24757
# Poissons Ratio (z) = 0.31037 0.83296
#
# Static dielectric constant tensor:
#      x y z
#    x 3.502060 0.000000 0.000000 
#    y 0.000000 3.577910 0.000000 
#    z 0.000000 0.000000 3.309730 
# 
# 
# High freq. dielectric constant tensor:
#      x y z
#    x 1.730040 0.000000 0.000000 
#    y 0.000000 1.712450 0.000000 
#    z 0.000000 0.000000 1.686650 
# 
# From -- ./inp_files/60074.got.cif
#   From: 2010.03.12/outbox.cif.g09.slc.cpg/sg65_31_cif.got.tgz:60074.got - 2010.04.10 20:52:16.
