data_PCOD8268090
_publ_section_title
;
Structure prediction by ZEFSAII (Michael W. Deem and Ramdas Pophale) SiO2 
 PCOD8268090
Probable space group: C M M M
;
_chemical_formula_sum "Si O2"
_cell_formula_units_Z 72
_cell_length_a 32.090026
_cell_length_b 12.415611
_cell_length_c 8.820114
_cell_angle_alpha 90.000000
_cell_angle_beta 90.000000
_cell_angle_gamma 90.000000
_cell_volume 3514.085827
_symmetry_space_group_name_H-M "C M M M"
_symmetry_group_IT_number 65
_symmetry_cell_setting 'orthorhombic'
loop_
_space_group_symop_operation_xyz
x,y,z
-x,-y,z
x,-y,-z
-x,y,-z
-x,-y,-z
x,y,-z
-x,y,z
x,-y,z
1/2+x,1/2+y,z
1/2-x,1/2-y,z
1/2+x,1/2-y,-z
1/2-x,1/2+y,-z
1/2-x,1/2-y,-z
1/2+x,1/2+y,-z
1/2-x,1/2+y,z
1/2+x,1/2-y,z
loop_
_atom_site_type_symbol
_atom_site_label
_atom_site_fract_x
_atom_site_fract_y
_atom_site_fract_z
Si Si1 0.724368 0.128535 0.672108
Si Si2 0.546511 0.500000 0.319870
Si Si3 0.108787 0.181225 0.320528
Si Si4 0.860765 0.379343 0.821464
Si Si5 0.193376 0.123401 0.168492
O O1 0.718102 0.167583 0.500000
O O2 0.684633 0.168970 0.772627
O O3 0.768281 0.176840 0.736337
O O4 0.725216 0.000000 0.680766
O O5 0.500000 0.500000 0.250421
O O6 0.544886 0.500000 0.500000
O O7 0.570356 0.607548 0.264290
O O8 0.110192 0.188742 0.500000
O O9 0.104112 0.301560 0.250572
O O10 0.150770 0.127647 0.260723
O O11 0.866950 0.500000 0.756602
O O12 0.864833 0.379659 0.000000
O O13 0.205899 0.000000 0.147436
O O14 0.188716 0.175997 0.000000
#
# Coordination Sequence:
#
# PCOD8268090 Si02
#       5
#    16   8  16  16  16
#     4   9  17  30  49  74 107 148 196 244 284 324
#     4   9  20  40  65  93 121 145 175 227 295 355
#     4  11  21  35  59  86 112 144 186 233 284 342
#     4  10  21  37  55  78 113 154 195 235 280 332
#     4  10  19  31  49  75 112 152 191 235 285 339
#
# _framework density 20.488969999999998
#
# number of rings (size 3 to 8) (size 9 to 14) (size 15 to 20)
#    0.000    2.111    1.111    2.667    0.000    5.778 
#    0.000    4.444    0.000    6.000    0.000    4.667 
#    0.000    0.000    0.000    0.000    0.000    0.000 
#
# Total GULP energy -446456.779937 kJ/mol
# GULP energy per Si atom -12401.577220 kJ/mol
# Density = 2.044234 g / cm^3
# Si number density = 20.488970 Si / 1000 Ang^3
#
#
#
# Elastic Constant Matrix: (Units=GPa)
#
#
# Indices 1 2 3 4 5 6 
#
# 1 133.0902 73.7104 42.6384 0.0000 0.0000 0.0000
# 2 73.7104 103.7694 35.1917 0.0000 0.0000 0.0000
# 3 42.6384 35.1917 99.2264 0.0000 0.0000 0.0000
# 4 0.0000 0.0000 0.0000 29.3382 0.0000 0.0000
# 5 0.0000 0.0000 0.0000 0.0000 10.0717 0.0000
# 6 0.0000 0.0000 0.0000 0.0000 0.0000 27.3452
#
#
#
# Elastic Compliance Matrix: (Units=1/GPa)
#
#
# Indices 1 2 3 4 5 6 
#
# 1 0.012959 -0.008317 -0.002619 0.000000 0.000000 0.000000
# 2 -0.008317 0.016292 -0.002204 0.000000 0.000000 0.000000
# 3 -0.002619 -0.002204 0.011985 0.000000 0.000000 0.000000
# 4 0.000000 0.000000 0.000000 0.034085 0.000000 0.000000
# 5 0.000000 0.000000 0.000000 0.000000 0.099288 0.000000
# 6 0.000000 0.000000 0.000000 0.000000 0.000000 0.036569
#
#
# Mechanical properties :
#
#
# Convention : Reuss Voigt Hill
#
# Bulk Modulus (GPa) = 66.86337 71.01853 68.94095
# Shear Modulus (GPa) = 20.62327 25.65405 23.13866
#
# Velocity S-wave (km/s) = 3.17607 3.54233 3.36419
# Velocity P-wave (km/s) = 6.79371 7.17411 6.98650
#
# Compressibility (1/GPa) = 0.01495587
#
# Stress axis : x y z
#
# Youngs Moduli (GPa) = 77.16660 61.37947 83.43703
#
# Poissons Ratio (x) = 0.51049 0.21851
# Poissons Ratio (y) = 0.64179 0.18392
# Poissons Ratio (z) = 0.20209 0.13530
#
# Static dielectric constant tensor:
#      x y z
#    x 3.531450 0.000000 0.000000 
#    y 0.000000 4.339390 0.000000 
#    z 0.000000 0.000000 3.697110 
# 
# 
# High freq. dielectric constant tensor:
#      x y z
#    x 1.747660 0.000000 0.000000 
#    y 0.000000 1.845880 0.000000 
#    z 0.000000 0.000000 1.801080 
# 
# From -- ./inp_files/15780.got.cif
#   From: 2010.03.12/outbox.cif.g09.slc.cpg/sg65_8_cif.got.tgz:15780.got - 2010.04.10 20:52:16.
