data_PCOD8268310
_publ_section_title
;
Structure prediction by ZEFSAII (Michael W. Deem and Ramdas Pophale) SiO2 
 PCOD8268310
Probable space group: C M M M
;
_chemical_formula_sum "Si O2"
_cell_formula_units_Z 96
_cell_length_a 14.000627
_cell_length_b 23.953269
_cell_length_c 13.629244
_cell_angle_alpha 90.000000
_cell_angle_beta 90.000000
_cell_angle_gamma 90.000000
_cell_volume 4570.713963
_symmetry_space_group_name_H-M "C M M M"
_symmetry_group_IT_number 65
_symmetry_cell_setting 'orthorhombic'
loop_
_space_group_symop_operation_xyz
x,y,z
-x,-y,z
x,-y,-z
-x,y,-z
-x,-y,-z
x,y,-z
-x,y,z
x,-y,z
1/2+x,1/2+y,z
1/2-x,1/2-y,z
1/2+x,1/2-y,-z
1/2-x,1/2+y,-z
1/2-x,1/2-y,-z
1/2+x,1/2+y,-z
1/2-x,1/2+y,z
1/2+x,1/2-y,z
loop_
_atom_site_type_symbol
_atom_site_label
_atom_site_fract_x
_atom_site_fract_y
_atom_site_fract_z
Si Si1 0.388317 0.892514 0.614768
Si Si2 0.607609 0.662483 0.613920
Si Si3 0.287187 0.436991 0.709084
Si Si4 0.391058 0.611740 0.887681
Si Si5 0.393945 0.775852 0.689938
Si Si6 0.860602 0.240047 0.106914
O O1 0.371441 0.905534 0.500000
O O2 0.500000 0.899398 0.642551
O O3 0.326412 0.933417 0.684546
O O4 0.348050 0.830411 0.640072
O O5 0.607537 0.673461 0.500000
O O6 0.500000 0.655722 0.655654
O O7 0.661445 0.605215 0.635341
O O8 0.658906 0.717423 0.662472
O O9 0.321110 0.500000 0.688369
O O10 0.315428 0.421616 0.820786
O O11 0.500000 0.591368 0.868925
O O12 0.384673 0.676953 0.861385
O O13 0.360964 0.600959 0.000000
O O14 0.500000 0.772063 0.645033
O O15 0.399101 0.781382 0.808687
O O16 0.750000 0.250000 0.097945
O O17 0.907822 0.252781 0.000000
#
# Coordination Sequence:
#
# PCOD8268310 Si02
#       6
#    16  16  16  16  16  16
#     4  10  23  43  65  89 117 155 209 267 317 372
#     4  10  21  36  55  84 121 156 191 237 297 368
#     4  12  25  40  60  86 118 158 207 261 313 363
#     4  10  21  39  63  91 126 168 210 250 297 361
#     4  10  19  34  58  86 116 151 192 240 300 365
#     4  10  19  31  52  85 123 160 198 241 293 355
#
# _framework density 21.003283
#
# number of rings (size 3 to 8) (size 9 to 14) (size 15 to 20)
#    0.000    1.667    1.667    3.000    0.000    6.333 
#    0.000    4.167    0.000    1.500    0.000    1.167 
#    0.000    0.000    0.000    0.000    0.000    0.000 
#
# Total GULP energy -594928.240271 kJ/mol
# GULP energy per Si atom -12394.338339 kJ/mol
# Density = 2.095548 g / cm^3
# Si number density = 21.003283 Si / 1000 Ang^3
#
#
#
# Elastic Constant Matrix: (Units=GPa)
#
#
# Indices 1 2 3 4 5 6 
#
# 1 79.1256 23.3417 32.8342 0.0000 0.0000 0.0000
# 2 23.3417 81.9685 34.7679 0.0000 0.0000 0.0000
# 3 32.8342 34.7679 111.9765 0.0000 0.0000 0.0000
# 4 0.0000 0.0000 0.0000 18.3268 0.0000 0.0000
# 5 0.0000 0.0000 0.0000 0.0000 32.0243 0.0000
# 6 0.0000 0.0000 0.0000 0.0000 0.0000 15.7692
#
#
#
# Elastic Compliance Matrix: (Units=1/GPa)
#
#
# Indices 1 2 3 4 5 6 
#
# 1 0.014910 -0.002754 -0.003517 0.000000 0.000000 0.000000
# 2 -0.002754 0.014559 -0.003713 0.000000 0.000000 0.000000
# 3 -0.003517 -0.003713 0.011114 0.000000 0.000000 0.000000
# 4 0.000000 0.000000 0.000000 0.054565 0.000000 0.000000
# 5 0.000000 0.000000 0.000000 0.000000 0.031226 0.000000
# 6 0.000000 0.000000 0.000000 0.000000 0.000000 0.063415
#
#
# Mechanical properties :
#
#
# Convention : Reuss Voigt Hill
#
# Bulk Modulus (GPa) = 48.50663 50.55092 49.52877
# Shear Modulus (GPa) = 23.08096 25.36586 24.22341
#
# Velocity S-wave (km/s) = 3.31859 3.47898 3.39973
# Velocity P-wave (km/s) = 6.15053 6.34493 6.24848
#
# Compressibility (1/GPa) = 0.02061574
#
# Stress axis : x y z
#
# Youngs Moduli (GPa) = 67.06939 68.68637 89.97266
#
# Poissons Ratio (x) = 0.18917 0.31642
# Poissons Ratio (y) = 0.18472 0.33406
# Poissons Ratio (z) = 0.23587 0.25502
#
# Static dielectric constant tensor:
#      x y z
#    x 3.905060 0.000000 0.000000 
#    y 0.000000 3.594890 0.000000 
#    z 0.000000 0.000000 4.018110 
# 
# 
# High freq. dielectric constant tensor:
#      x y z
#    x 1.822740 0.000000 0.000000 
#    y 0.000000 1.794160 0.000000 
#    z 0.000000 0.000000 1.832370 
# 
# From -- ./inp_files/40375.got.cif
#   From: 2010.03.12/outbox.cif.g09.slc.cpg/sg65_21_cif.got.tgz:40375.got - 2010.04.10 20:52:16.
