data_PCOD8268911
_publ_section_title
;
Structure prediction by ZEFSAII (Michael W. Deem and Ramdas Pophale) SiO2 
 PCOD8268911
Probable space group: C M M M
;
_chemical_formula_sum "Si O2"
_cell_formula_units_Z 112
_cell_length_a 14.213324
_cell_length_b 15.636052
_cell_length_c 23.600129
_cell_angle_alpha 90.000000
_cell_angle_beta 90.000000
_cell_angle_gamma 90.000000
_cell_volume 5244.899115
_symmetry_space_group_name_H-M "C M M M"
_symmetry_group_IT_number 65
_symmetry_cell_setting 'orthorhombic'
loop_
_space_group_symop_operation_xyz
x,y,z
-x,-y,z
x,-y,-z
-x,y,-z
-x,-y,-z
x,y,-z
-x,y,z
x,-y,z
1/2+x,1/2+y,z
1/2-x,1/2-y,z
1/2+x,1/2-y,-z
1/2-x,1/2+y,-z
1/2-x,1/2-y,-z
1/2+x,1/2+y,-z
1/2-x,1/2+y,z
1/2+x,1/2-y,z
loop_
_atom_site_type_symbol
_atom_site_label
_atom_site_fract_x
_atom_site_fract_y
_atom_site_fract_z
Si Si1 0.888345 0.094203 0.884128
Si Si2 0.605047 0.601771 0.563506
Si Si3 0.892401 0.869516 0.758814
Si Si4 0.761338 0.905309 0.660042
Si Si5 0.893046 0.672603 0.269184
Si Si6 0.888010 0.267853 0.936754
Si Si7 0.888299 0.595073 0.152480
O O1 0.850671 0.105678 0.820146
O O2 0.849200 0.172537 0.922137
O O3 0.000000 0.100658 0.883166
O O4 0.856928 0.000000 0.907158
O O5 0.632021 0.631452 0.500000
O O6 0.500000 0.635901 0.579023
O O7 0.604226 0.500000 0.567540
O O8 0.682616 0.638148 0.607362
O O9 0.833369 0.917615 0.711593
O O10 0.882473 0.768857 0.750657
O O11 0.000000 0.899745 0.753427
O O12 0.672968 0.845946 0.676712
O O13 0.724034 0.000000 0.643791
O O14 0.856808 0.615689 0.216543
O O15 0.000000 0.650481 0.286320
O O16 0.845586 0.337882 0.893008
O O17 0.000000 0.268542 0.932909
O O18 0.853879 0.291161 0.000000
O O19 0.852631 0.500000 0.136441
O O20 0.000000 0.601004 0.149908
#
# Coordination Sequence:
#
# PCOD8268911 Si02
#       7
#    16  16  16  16  16  16  16
#     4   9  16  27  44  67  98 136 174 217 279 348
#     4   8  15  30  52  79 115 154 186 225 279 331
#     4  10  19  33  52  74 106 142 177 224 282 339
#     4  11  21  31  51  85 112 135 181 232 275 332
#     4  10  20  35  52  71 105 150 188 227 281 340
#     4   9  16  26  41  65  98 134 175 225 281 340
#     4   9  16  28  46  66  92 132 182 232 283 335
#
# _framework density 21.354081000000001
#
# number of rings (size 3 to 8) (size 9 to 14) (size 15 to 20)
#    0.000    2.571    1.429    2.143    0.000    2.857 
#    0.000    2.857    0.000    2.143    0.000    6.000 
#    0.000    3.429    0.000    0.286    0.000    0.143 
#
# Total GULP energy -694146.977574 kJ/mol
# GULP energy per Si atom -12395.481742 kJ/mol
# Density = 2.130548 g / cm^3
# Si number density = 21.354081 Si / 1000 Ang^3
#
#
#
# Elastic Constant Matrix: (Units=GPa)
#
#
# Indices 1 2 3 4 5 6 
#
# 1 62.4911 16.8175 41.8093 0.0000 0.0000 0.0000
# 2 16.8175 113.7781 43.4307 0.0000 0.0000 0.0000
# 3 41.8093 43.4307 128.9728 0.0000 0.0000 0.0000
# 4 0.0000 0.0000 0.0000 22.7935 0.0000 0.0000
# 5 0.0000 0.0000 0.0000 0.0000 8.1825 0.0000
# 6 0.0000 0.0000 0.0000 0.0000 0.0000 3.9186
#
#
#
# Elastic Compliance Matrix: (Units=1/GPa)
#
#
# Indices 1 2 3 4 5 6 
#
# 1 0.020466 -0.000565 -0.006444 0.000000 0.000000 0.000000
# 2 -0.000565 0.010101 -0.003218 0.000000 0.000000 0.000000
# 3 -0.006444 -0.003218 0.010926 0.000000 0.000000 0.000000
# 4 0.000000 0.000000 0.000000 0.043872 0.000000 0.000000
# 5 0.000000 0.000000 0.000000 0.000000 0.122212 0.000000
# 6 0.000000 0.000000 0.000000 0.000000 0.000000 0.255196
#
#
# Mechanical properties :
#
#
# Convention : Reuss Voigt Hill
#
# Bulk Modulus (GPa) = 47.53303 56.59522 52.06412
# Shear Modulus (GPa) = 10.19907 20.52455 15.36181
#
# Velocity S-wave (km/s) = 2.18782 3.10361 2.68505
# Velocity P-wave (km/s) = 5.35629 6.27726 5.83497
#
# Compressibility (1/GPa) = 0.02103800
#
# Stress axis : x y z
#
# Youngs Moduli (GPa) = 48.86201 98.99989 91.52248
#
# Poissons Ratio (x) = 0.05596 0.58978
# Poissons Ratio (y) = 0.02762 0.29454
# Poissons Ratio (z) = 0.31487 0.31860
#
# Static dielectric constant tensor:
#      x y z
#    x 3.700500 0.000000 0.000000 
#    y 0.000000 3.830360 0.000000 
#    z 0.000000 0.000000 3.911550 
# 
# 
# High freq. dielectric constant tensor:
#      x y z
#    x 1.824950 0.000000 0.000000 
#    y 0.000000 1.829020 0.000000 
#    z 0.000000 0.000000 1.815930 
# 
# From -- ./inp_files/69984.got.cif
#   From: 2010.03.12/outbox.cif.g09.slc.cpg/sg65_35_cif.got.tgz:69984.got - 2010.04.10 20:52:16.
