data_PCOD8268538
_publ_section_title
;
Structure prediction by ZEFSAII (Michael W. Deem and Ramdas Pophale) SiO2 
 PCOD8268538
Probable space group: C M M M
;
_chemical_formula_sum "Si O2"
_cell_formula_units_Z 96
_cell_length_a 20.062462
_cell_length_b 8.745864
_cell_length_c 29.758423
_cell_angle_alpha 90.000000
_cell_angle_beta 90.000000
_cell_angle_gamma 90.000000
_cell_volume 5221.518963
_symmetry_space_group_name_H-M "C M M M"
_symmetry_group_IT_number 65
_symmetry_cell_setting 'orthorhombic'
loop_
_space_group_symop_operation_xyz
x,y,z
-x,-y,z
x,-y,-z
-x,y,-z
-x,-y,-z
x,y,-z
-x,y,z
x,-y,z
1/2+x,1/2+y,z
1/2-x,1/2-y,z
1/2+x,1/2-y,-z
1/2-x,1/2+y,-z
1/2-x,1/2-y,-z
1/2+x,1/2+y,-z
1/2-x,1/2+y,z
1/2+x,1/2-y,z
loop_
_atom_site_type_symbol
_atom_site_label
_atom_site_fract_x
_atom_site_fract_y
_atom_site_fract_z
Si Si1 0.317912 0.321251 0.050514
Si Si2 0.679126 0.817526 0.622494
Si Si3 0.076469 0.324466 0.113321
Si Si4 0.679805 0.319896 0.717810
Si Si5 0.074310 0.318363 0.550000
Si Si6 0.423175 0.176424 0.783050
O O1 0.308154 0.500000 0.050171
O O2 0.250000 0.250000 0.070129
O O3 0.379389 0.281403 0.082042
O O4 0.331537 0.259232 0.000000
O O5 0.750000 0.750000 0.608005
O O6 0.657473 0.756004 0.671065
O O7 0.625945 0.754061 0.586488
O O8 0.682530 0.000000 0.623761
O O9 0.093308 0.500000 0.103034
O O10 0.091337 0.286775 0.165088
O O11 0.000000 0.288640 0.101976
O O12 0.688464 0.500000 0.711226
O O13 0.750000 0.250000 0.734281
O O14 0.623216 0.286669 0.754181
O O15 0.094642 0.261502 0.500000
O O16 0.075007 0.500000 0.551129
O O17 0.000000 0.259040 0.561893
O O18 0.500000 0.211472 0.771393
O O19 0.406726 0.000000 0.772330
#
# Coordination Sequence:
#
# PCOD8268538 Si02
#       6
#    16  16  16  16  16  16
#     4  10  21  36  54  77 106 140 177 217 259 304
#     4  10  19  32  51  74 101 133 167 207 255 303
#     4   9  19  36  57  80 106 137 172 211 256 307
#     4  11  22  36  54  76 104 137 174 215 258 306
#     4   8  15  29  49  73  99 128 166 208 247 294
#     4   9  19  37  58  79 105 136 171 211 256 308
#
# _framework density 18.385455
#
# number of rings (size 3 to 8) (size 9 to 14) (size 15 to 20)
#    0.000    2.500    0.000    5.000    0.000    4.333 
#    0.000    5.000    0.000    3.000    0.000    4.667 
#    0.000    0.000    0.000    0.000    0.000    0.000 
#
# Total GULP energy -595211.557730 kJ/mol
# GULP energy per Si atom -12400.240786 kJ/mol
# Density = 1.834361 g / cm^3
# Si number density = 18.385455 Si / 1000 Ang^3
#
#
#
# Elastic Constant Matrix: (Units=GPa)
#
#
# Indices 1 2 3 4 5 6 
#
# 1 113.0707 39.8088 77.9392 0.0000 0.0000 0.0000
# 2 39.8088 75.6691 36.4551 0.0000 0.0000 0.0000
# 3 77.9392 36.4551 96.8710 0.0000 0.0000 0.0000
# 4 0.0000 0.0000 0.0000 24.6223 0.0000 0.0000
# 5 0.0000 0.0000 0.0000 0.0000 40.9708 0.0000
# 6 0.0000 0.0000 0.0000 0.0000 0.0000 32.7162
#
#
#
# Elastic Compliance Matrix: (Units=1/GPa)
#
#
# Indices 1 2 3 4 5 6 
#
# 1 0.020580 -0.003481 -0.015248 0.000000 0.000000 0.000000
# 2 -0.003481 0.016731 -0.003496 0.000000 0.000000 0.000000
# 3 -0.015248 -0.003496 0.023906 0.000000 0.000000 0.000000
# 4 0.000000 0.000000 0.000000 0.040614 0.000000 0.000000
# 5 0.000000 0.000000 0.000000 0.000000 0.024408 0.000000
# 6 0.000000 0.000000 0.000000 0.000000 0.000000 0.030566
#
#
# Mechanical properties :
#
#
# Convention : Reuss Voigt Hill
#
# Bulk Modulus (GPa) = 59.63653 66.00188 62.81921
# Shear Modulus (GPa) = 24.17298 28.42238 26.29768
#
# Velocity S-wave (km/s) = 3.62993 3.93608 3.78610
# Velocity P-wave (km/s) = 7.07642 7.52555 7.30444
#
# Compressibility (1/GPa) = 0.01676824
#
# Stress axis : x y z
#
# Youngs Moduli (GPa) = 48.59115 59.77010 41.82966
#
# Poissons Ratio (x) = 0.20805 0.63782
# Poissons Ratio (y) = 0.16914 0.14622
# Poissons Ratio (z) = 0.74091 0.20893
#
# Static dielectric constant tensor:
#      x y z
#    x 3.451670 0.000000 0.000000 
#    y 0.000000 3.184690 0.000000 
#    z 0.000000 0.000000 3.472600 
# 
# 
# High freq. dielectric constant tensor:
#      x y z
#    x 1.717610 0.000000 0.000000 
#    y 0.000000 1.700750 0.000000 
#    z 0.000000 0.000000 1.714840 
# 
# From -- ./inp_files/73190.got.cif
#   From: 2010.03.12/outbox.cif.g09.slc.cpg/sg65_37_cif.got.tgz:73190.got - 2010.04.10 20:52:16.
