data_PCOD8268780
_publ_section_title
;
Structure prediction by ZEFSAII (Michael W. Deem and Ramdas Pophale) SiO2 
 PCOD8268780
Probable space group: C M M M
;
_chemical_formula_sum "Si O2"
_cell_formula_units_Z 88
_cell_length_a 8.831064
_cell_length_b 24.738701
_cell_length_c 21.854071
_cell_angle_alpha 90.000000
_cell_angle_beta 90.000000
_cell_angle_gamma 90.000000
_cell_volume 4774.438170
_symmetry_space_group_name_H-M "C M M M"
_symmetry_group_IT_number 65
_symmetry_cell_setting 'orthorhombic'
loop_
_space_group_symop_operation_xyz
x,y,z
-x,-y,z
x,-y,-z
-x,y,-z
-x,-y,-z
x,y,-z
-x,y,z
x,-y,z
1/2+x,1/2+y,z
1/2-x,1/2-y,z
1/2+x,1/2-y,-z
1/2-x,1/2+y,-z
1/2-x,1/2-y,-z
1/2+x,1/2+y,-z
1/2-x,1/2+y,z
1/2+x,1/2-y,z
loop_
_atom_site_type_symbol
_atom_site_label
_atom_site_fract_x
_atom_site_fract_y
_atom_site_fract_z
Si Si1 0.320598 0.306200 0.798676
Si Si2 0.320043 0.085641 0.834111
Si Si3 0.171249 0.500000 0.621793
Si Si4 0.178572 0.500000 0.067622
Si Si5 0.178252 0.000000 0.748516
Si Si6 0.676593 0.695314 0.658740
Si Si7 0.173631 0.385489 0.569047
O O1 0.500000 0.304864 0.807448
O O2 0.250000 0.250000 0.822633
O O3 0.249723 0.354608 0.838458
O O4 0.271417 0.315864 0.728325
O O5 0.500000 0.088529 0.826436
O O6 0.271402 0.053670 0.895608
O O7 0.251593 0.054086 0.776242
O O8 0.290777 0.500000 0.676632
O O9 0.199095 0.448872 0.578625
O O10 0.000000 0.500000 0.648557
O O11 0.000000 0.500000 0.061210
O O12 0.253926 0.500000 0.000000
O O13 0.000000 0.000000 0.761140
O O14 0.500000 0.703658 0.655810
O O15 0.750000 0.750000 0.633054
O O16 0.722510 0.645643 0.616772
O O17 0.222295 0.370769 0.500000
O O18 0.000000 0.369094 0.580720
#
# Coordination Sequence:
#
# PCOD8268780 Si02
#       7
#    16  16   8   8   8  16  16
#     4  10  20  34  53  78 108 138 170 210 257 308
#     4  10  19  32  53  80 108 139 175 212 255 303
#     4  10  20  35  54  73  97 129 165 205 253 310
#     4   8  16  32  54  80 109 142 179 216 252 292
#     4  11  21  32  49  75 106 135 166 209 259 309
#     4  10  21  36  54  75  98 128 164 205 254 304
#     4  10  21  36  53  72  95 126 164 206 252 305
#
# _framework density 18.431487000000001
#
# number of rings (size 3 to 8) (size 9 to 14) (size 15 to 20)
#    0.000    2.091    0.000    4.364    0.000    7.636 
#    0.000    0.000    0.000   12.000    0.000    0.000 
#    0.000    0.000    0.000    0.000    0.000    0.000 
#
# Total GULP energy -545722.233073 kJ/mol
# GULP energy per Si atom -12402.778024 kJ/mol
# Density = 1.838954 g / cm^3
# Si number density = 18.431487 Si / 1000 Ang^3
#
#
#
# Elastic Constant Matrix: (Units=GPa)
#
#
# Indices 1 2 3 4 5 6 
#
# 1 77.9805 45.0100 28.7847 0.0000 0.0000 0.0000
# 2 45.0100 144.6376 42.8536 0.0000 0.0000 0.0000
# 3 28.7847 42.8536 83.1897 0.0000 0.0000 0.0000
# 4 0.0000 0.0000 0.0000 13.9011 0.0000 0.0000
# 5 0.0000 0.0000 0.0000 0.0000 14.6568 0.0000
# 6 0.0000 0.0000 0.0000 0.0000 0.0000 33.0681
#
#
#
# Elastic Compliance Matrix: (Units=1/GPa)
#
#
# Indices 1 2 3 4 5 6 
#
# 1 0.016505 -0.004064 -0.003617 0.000000 0.000000 0.000000
# 2 -0.004064 0.009160 -0.003312 0.000000 0.000000 0.000000
# 3 -0.003617 -0.003312 0.014979 0.000000 0.000000 0.000000
# 4 0.000000 0.000000 0.000000 0.071937 0.000000 0.000000
# 5 0.000000 0.000000 0.000000 0.000000 0.068228 0.000000
# 6 0.000000 0.000000 0.000000 0.000000 0.000000 0.030241
#
#
# Mechanical properties :
#
#
# Convention : Reuss Voigt Hill
#
# Bulk Modulus (GPa) = 53.60296 59.90048 56.75172
# Shear Modulus (GPa) = 20.89819 24.93583 22.91701
#
# Velocity S-wave (km/s) = 3.37089 3.68216 3.52996
# Velocity P-wave (km/s) = 6.65552 7.11669 6.88997
#
# Compressibility (1/GPa) = 0.01865569
#
# Stress axis : x y z
#
# Youngs Moduli (GPa) = 60.58801 109.16993 66.76218
#
# Poissons Ratio (x) = 0.44372 0.24149
# Poissons Ratio (y) = 0.24626 0.22113
# Poissons Ratio (z) = 0.21916 0.36160
#
# Static dielectric constant tensor:
#      x y z
#    x 3.324810 0.000000 0.000000 
#    y 0.000000 3.473630 0.000000 
#    z 0.000000 0.000000 3.335200 
# 
# 
# High freq. dielectric constant tensor:
#      x y z
#    x 1.713280 0.000000 0.000000 
#    y 0.000000 1.724170 0.000000 
#    z 0.000000 0.000000 1.689340 
# 
# From -- ./inp_files/59895.got.cif
#   From: 2010.03.12/outbox.cif.g09.slc.cpg/sg65_30_cif.got.tgz:59895.got - 2010.04.10 20:52:16.
