data_PCOD8268729
_publ_section_title
;
Structure prediction by ZEFSAII (Michael W. Deem and Ramdas Pophale) SiO2 
 PCOD8268729
Probable space group: C M M M
;
_chemical_formula_sum "Si O2"
_cell_formula_units_Z 76
_cell_length_a 28.478593
_cell_length_b 7.851650
_cell_length_c 19.002603
_cell_angle_alpha 90.000000
_cell_angle_beta 90.000000
_cell_angle_gamma 90.000000
_cell_volume 4249.056991
_symmetry_space_group_name_H-M "C M M M"
_symmetry_group_IT_number 65
_symmetry_cell_setting 'orthorhombic'
loop_
_space_group_symop_operation_xyz
x,y,z
-x,-y,z
x,-y,-z
-x,y,-z
-x,-y,-z
x,y,-z
-x,y,z
x,-y,z
1/2+x,1/2+y,z
1/2-x,1/2-y,z
1/2+x,1/2-y,-z
1/2-x,1/2+y,-z
1/2-x,1/2-y,-z
1/2+x,1/2+y,-z
1/2-x,1/2+y,z
1/2+x,1/2-y,z
loop_
_atom_site_type_symbol
_atom_site_label
_atom_site_fract_x
_atom_site_fract_y
_atom_site_fract_z
Si Si1 0.552028 0.000000 0.150148
Si Si2 0.394441 0.694032 0.218971
Si Si3 0.840530 0.205698 0.000000
Si Si4 0.053729 0.695377 0.650333
Si Si5 0.699045 0.303273 0.852492
Si Si6 0.085091 0.500000 0.000000
Si Si7 0.444461 0.310215 0.500000
O O1 0.575054 0.174991 0.175060
O O2 0.500000 0.000000 0.181321
O O3 0.551256 0.000000 0.066598
O O4 0.402330 0.500000 0.191914
O O5 0.409942 0.702076 0.300602
O O6 0.340055 0.748929 0.205871
O O7 0.812151 0.268346 0.069418
O O8 0.886718 0.321613 0.000000
O O9 0.851845 0.000000 0.000000
O O10 0.055492 0.500000 0.673642
O O11 0.072260 0.713467 0.570321
O O12 0.000000 0.765210 0.657705
O O13 0.699229 0.500000 0.862735
O O14 0.750000 0.250000 0.824490
O O15 0.423378 0.500000 0.500000
O O16 0.500000 0.314594 0.500000
#
# Coordination Sequence:
#
# PCOD8268729 Si02
#       7
#     8  16   8  16  16   4   8
#     4  12  25  40  58  81 108 149 197 232 277 332
#     4  11  23  39  56  81 114 146 185 235 280 337
#     4  10  21  38  55  82 107 137 177 227 284 347
#     4  10  19  32  52  79 110 147 188 226 269 322
#     4  10  22  36  57  82 108 139 178 228 290 343
#     4  12  23  38  64  72 110 152 182 236 285 320
#     4   9  17  29  47  75 110 147 184 224 269 321
#
# _framework density 17.886320999999999
#
# number of rings (size 3 to 8) (size 9 to 14) (size 15 to 20)
#    0.000    1.579    3.158    2.053    2.947    3.789 
#    0.000    0.000    0.000    1.895    0.000    0.737 
#    0.000    0.000    0.000    0.000    0.000    0.000 
#
# Total GULP energy -470919.477690 kJ/mol
# GULP energy per Si atom -12392.617834 kJ/mol
# Density = 1.784561 g / cm^3
# Si number density = 17.886321 Si / 1000 Ang^3
#
#
#
# Elastic Constant Matrix: (Units=GPa)
#
#
# Indices 1 2 3 4 5 6 
#
# 1 116.5562 38.4109 56.7224 0.0000 0.0000 0.0000
# 2 38.4109 80.1260 22.5504 0.0000 0.0000 0.0000
# 3 56.7224 22.5504 121.1693 0.0000 0.0000 0.0000
# 4 0.0000 0.0000 0.0000 2.6272 0.0000 0.0000
# 5 0.0000 0.0000 0.0000 0.0000 15.9872 0.0000
# 6 0.0000 0.0000 0.0000 0.0000 0.0000 22.0994
#
#
#
# Elastic Compliance Matrix: (Units=1/GPa)
#
#
# Indices 1 2 3 4 5 6 
#
# 1 0.012534 -0.004598 -0.005012 0.000000 0.000000 0.000000
# 2 -0.004598 0.014857 -0.000613 0.000000 0.000000 0.000000
# 3 -0.005012 -0.000613 0.010713 0.000000 0.000000 0.000000
# 4 0.000000 0.000000 0.000000 0.380627 0.000000 0.000000
# 5 0.000000 0.000000 0.000000 0.000000 0.062550 0.000000
# 6 0.000000 0.000000 0.000000 0.000000 0.000000 0.045250
#
#
# Mechanical properties :
#
#
# Convention : Reuss Voigt Hill
#
# Bulk Modulus (GPa) = 56.62731 61.46877 59.04804
# Shear Modulus (GPa) = 9.04386 21.48729 15.26557
#
# Velocity S-wave (km/s) = 2.25106 3.46977 2.92460
# Velocity P-wave (km/s) = 6.20360 7.10587 6.67001
#
# Compressibility (1/GPa) = 0.01765932
#
# Stress axis : x y z
#
# Youngs Moduli (GPa) = 79.78468 67.30868 93.34458
#
# Poissons Ratio (x) = 0.30948 0.46781
# Poissons Ratio (y) = 0.36685 0.05718
# Poissons Ratio (z) = 0.39985 0.04123
#
# Static dielectric constant tensor:
#      x y z
#    x 2.851480 0.000000 0.000000 
#    y 0.000000 3.414290 0.000000 
#    z 0.000000 0.000000 3.626620 
# 
# 
# High freq. dielectric constant tensor:
#      x y z
#    x 1.658660 0.000000 0.000000 
#    y 0.000000 1.704890 0.000000 
#    z 0.000000 0.000000 1.690800 
# 
# From -- ./inp_files/57369.got.cif
#   From: 2010.03.12/outbox.cif.g09.slc.cpg/sg65_29_cif.got.tgz:57369.got - 2010.04.10 20:52:16.
