data_PCOD8268674
_publ_section_title
;
Structure prediction by ZEFSAII (Michael W. Deem and Ramdas Pophale) SiO2 
 PCOD8268674
Probable space group: C M M M
;
_chemical_formula_sum "Si O2"
_cell_formula_units_Z 96
_cell_length_a 9.192027
_cell_length_b 19.020958
_cell_length_c 31.098256
_cell_angle_alpha 90.000000
_cell_angle_beta 90.000000
_cell_angle_gamma 90.000000
_cell_volume 5437.255138
_symmetry_space_group_name_H-M "C M M M"
_symmetry_group_IT_number 65
_symmetry_cell_setting 'orthorhombic'
loop_
_space_group_symop_operation_xyz
x,y,z
-x,-y,z
x,-y,-z
-x,y,-z
-x,-y,-z
x,y,-z
-x,y,z
x,-y,z
1/2+x,1/2+y,z
1/2-x,1/2-y,z
1/2+x,1/2-y,-z
1/2-x,1/2+y,-z
1/2-x,1/2-y,-z
1/2+x,1/2+y,-z
1/2-x,1/2+y,z
1/2+x,1/2-y,z
loop_
_atom_site_type_symbol
_atom_site_label
_atom_site_fract_x
_atom_site_fract_y
_atom_site_fract_z
Si Si1 0.834428 0.581867 0.951052
Si Si2 0.167254 0.583294 0.370391
Si Si3 0.665403 0.679242 0.207873
Si Si4 0.171599 0.174833 0.301380
Si Si5 0.836847 0.916530 0.547380
Si Si6 0.830135 0.824138 0.885129
O O1 0.800871 0.500000 0.946299
O O2 0.724969 0.622555 0.920651
O O3 0.000000 0.598303 0.937536
O O4 0.807643 0.606151 0.000000
O O5 0.186794 0.500000 0.366063
O O6 0.261629 0.618741 0.333526
O O7 0.225716 0.611159 0.416478
O O8 0.000000 0.606005 0.366166
O O9 0.500000 0.702723 0.208295
O O10 0.750000 0.750000 0.207053
O O11 0.700114 0.641053 0.253384
O O12 0.699067 0.640026 0.162444
O O13 0.250000 0.250000 0.306666
O O14 0.000000 0.184226 0.310553
O O15 0.788102 0.889107 0.500000
O O16 0.000000 0.889529 0.557824
O O17 0.836179 0.000000 0.547145
O O18 0.750000 0.750000 0.889756
O O19 0.000000 0.810880 0.892801
#
# Coordination Sequence:
#
# PCOD8268674 Si02
#       6
#    16  16  16  16  16  16
#     4   9  19  36  54  71  96 131 167 201 240 288
#     4  10  20  32  47  71 102 131 162 202 243 283
#     4   8  16  30  48  71  96 124 158 197 240 285
#     4  10  19  33  53  73  96 128 165 201 240 290
#     4   8  14  26  45  68  93 123 160 199 240 288
#     4  10  19  32  52  77 102 126 158 201 245 288
#
# _framework density 17.655967
#
# number of rings (size 3 to 8) (size 9 to 14) (size 15 to 20)
#    0.000    2.833    0.000    2.500    0.000    3.667 
#    0.000    3.333    0.000    5.500    0.000    0.000 
#    0.000    0.000    0.000    0.000    0.000    0.000 
#
# Total GULP energy -594634.584990 kJ/mol
# GULP energy per Si atom -12388.220521 kJ/mol
# Density = 1.761578 g / cm^3
# Si number density = 17.655967 Si / 1000 Ang^3
#
#
#
# Elastic Constant Matrix: (Units=GPa)
#
#
# Indices 1 2 3 4 5 6 
#
# 1 107.6621 35.6361 77.3583 0.0000 0.0000 0.0000
# 2 35.6361 35.1746 45.4467 0.0000 0.0000 0.0000
# 3 77.3583 45.4467 154.9069 0.0000 0.0000 0.0000
# 4 0.0000 0.0000 0.0000 24.4679 0.0000 0.0000
# 5 0.0000 0.0000 0.0000 0.0000 29.6444 0.0000
# 6 0.0000 0.0000 0.0000 0.0000 0.0000 27.5264
#
#
#
# Elastic Compliance Matrix: (Units=1/GPa)
#
#
# Indices 1 2 3 4 5 6 
#
# 1 0.016296 -0.009655 -0.005306 0.000000 0.000000 0.000000
# 2 -0.009655 0.051505 -0.010289 0.000000 0.000000 0.000000
# 3 -0.005306 -0.010289 0.012124 0.000000 0.000000 0.000000
# 4 0.000000 0.000000 0.000000 0.040870 0.000000 0.000000
# 5 0.000000 0.000000 0.000000 0.000000 0.033733 0.000000
# 6 0.000000 0.000000 0.000000 0.000000 0.000000 0.036329
#
#
# Mechanical properties :
#
#
# Convention : Reuss Voigt Hill
#
# Bulk Modulus (GPa) = 33.98394 68.29175 51.13785
# Shear Modulus (GPa) = 19.90724 25.61456 22.76090
#
# Velocity S-wave (km/s) = 3.36148 3.81302 3.59435
# Velocity P-wave (km/s) = 5.86137 7.62552 6.80089
#
# Compressibility (1/GPa) = 0.02942566
#
# Stress axis : x y z
#
# Youngs Moduli (GPa) = 61.36335 19.41554 82.48404
#
# Poissons Ratio (x) = 0.18746 0.43762
# Poissons Ratio (y) = 0.59248 0.84867
# Poissons Ratio (z) = 0.32556 0.19976
#
# Static dielectric constant tensor:
#      x y z
#    x 3.389600 0.000000 0.000000 
#    y 0.000000 2.749940 0.000000 
#    z 0.000000 0.000000 4.054790 
# 
# 
# High freq. dielectric constant tensor:
#      x y z
#    x 1.693740 0.000000 0.000000 
#    y 0.000000 1.630390 0.000000 
#    z 0.000000 0.000000 1.707110 
# 
# From -- ./inp_files/73201.got.cif
#   From: 2010.03.12/outbox.cif.g09.slc.cpg/sg65_37_cif.got.tgz:73201.got - 2010.04.10 20:52:16.
