data_PCOD8268769
_publ_section_title
;
Structure prediction by ZEFSAII (Michael W. Deem and Ramdas Pophale) SiO2 
 PCOD8268769
Probable space group: C M M M
;
_chemical_formula_sum "Si O2"
_cell_formula_units_Z 88
_cell_length_a 22.603093
_cell_length_b 22.607806
_cell_length_c 8.896685
_cell_angle_alpha 90.000000
_cell_angle_beta 90.000000
_cell_angle_gamma 90.000000
_cell_volume 4546.262454
_symmetry_space_group_name_H-M "C M M M"
_symmetry_group_IT_number 65
_symmetry_cell_setting 'orthorhombic'
loop_
_space_group_symop_operation_xyz
x,y,z
-x,-y,z
x,-y,-z
-x,y,-z
-x,-y,-z
x,y,-z
-x,y,z
x,-y,z
1/2+x,1/2+y,z
1/2-x,1/2-y,z
1/2+x,1/2-y,-z
1/2-x,1/2+y,-z
1/2-x,1/2-y,-z
1/2+x,1/2+y,-z
1/2-x,1/2+y,z
1/2+x,1/2-y,z
loop_
_atom_site_type_symbol
_atom_site_label
_atom_site_fract_x
_atom_site_fract_y
_atom_site_fract_z
Si Si1 0.500000 0.569376 0.178816
Si Si2 0.063610 0.566278 0.179111
Si Si3 0.734280 0.434649 0.327411
Si Si4 0.315159 0.267872 0.828254
Si Si5 0.115619 0.874165 0.326332
Si Si6 0.670074 0.862609 0.829313
O O1 0.500000 0.500000 0.231238
O O2 0.442499 0.604513 0.238089
O O3 0.500000 0.572962 0.000000
O O4 0.071564 0.500000 0.237165
O O5 0.116350 0.603627 0.252440
O O6 0.000000 0.591149 0.233611
O O7 0.066343 0.569095 0.000000
O O8 0.752683 0.431558 0.500000
O O9 0.749844 0.500000 0.261755
O O10 0.664154 0.425569 0.308189
O O11 0.767925 0.380931 0.245931
O O12 0.250000 0.250000 0.763593
O O13 0.354453 0.313803 0.734749
O O14 0.348818 0.205570 0.819824
O O15 0.308435 0.291242 0.000000
O O16 0.098541 0.863859 0.500000
O O17 0.677311 0.883208 0.000000
#
# Coordination Sequence:
#
# PCOD8268769 Si02
#       6
#     8  16  16  16  16  16
#     4  11  25  45  69  95 123 157 200 255 318 375
#     4   8  14  26  45  71 102 133 172 222 273 328
#     4  10  21  35  53  81 114 146 184 235 295 356
#     4  10  20  36  56  82 118 152 190 242 294 348
#     4  11  23  40  63  87 118 159 202 245 298 366
#     4  10  19  32  53  79 108 145 190 236 286 345
#
# _framework density 19.356560000000002
#
# number of rings (size 3 to 8) (size 9 to 14) (size 15 to 20)
#    0.000    2.091    1.818    2.455    0.000    4.364 
#    1.636    0.000    0.000    0.545    0.000    2.545 
#    0.000    0.000    0.000    0.000    0.000    0.000 
#
# Total GULP energy -545211.644953 kJ/mol
# GULP energy per Si atom -12391.173749 kJ/mol
# Density = 1.931250 g / cm^3
# Si number density = 19.356560 Si / 1000 Ang^3
#
#
#
# Elastic Constant Matrix: (Units=GPa)
#
#
# Indices 1 2 3 4 5 6 
#
# 1 132.3651 51.9936 40.3470 0.0000 0.0000 0.0000
# 2 51.9936 99.4149 38.7595 0.0000 0.0000 0.0000
# 3 40.3470 38.7595 66.8976 0.0000 0.0000 0.0000
# 4 0.0000 0.0000 0.0000 23.4806 0.0000 0.0000
# 5 0.0000 0.0000 0.0000 0.0000 23.3995 0.0000
# 6 0.0000 0.0000 0.0000 0.0000 0.0000 31.9404
#
#
#
# Elastic Compliance Matrix: (Units=1/GPa)
#
#
# Indices 1 2 3 4 5 6 
#
# 1 0.010268 -0.003818 -0.003981 0.000000 0.000000 0.000000
# 2 -0.003818 0.014414 -0.006048 0.000000 0.000000 0.000000
# 3 -0.003981 -0.006048 0.020853 0.000000 0.000000 0.000000
# 4 0.000000 0.000000 0.000000 0.042588 0.000000 0.000000
# 5 0.000000 0.000000 0.000000 0.000000 0.042736 0.000000
# 6 0.000000 0.000000 0.000000 0.000000 0.000000 0.031308
#
#
# Mechanical properties :
#
#
# Convention : Reuss Voigt Hill
#
# Bulk Modulus (GPa) = 56.05107 62.31977 59.18542
# Shear Modulus (GPa) = 25.53508 26.93594 26.23551
#
# Velocity S-wave (km/s) = 3.63601 3.73442 3.68554
# Velocity P-wave (km/s) = 6.82989 7.13163 6.98239
#
# Compressibility (1/GPa) = 0.01784087
#
# Stress axis : x y z
#
# Youngs Moduli (GPa) = 97.38979 69.37764 47.95402
#
# Poissons Ratio (x) = 0.26490 0.19089
# Poissons Ratio (y) = 0.37185 0.29004
# Poissons Ratio (z) = 0.38767 0.41962
#
# Static dielectric constant tensor:
#      x y z
#    x 3.786040 0.000000 0.000000 
#    y 0.000000 3.663280 0.000000 
#    z 0.000000 0.000000 3.279830 
# 
# 
# High freq. dielectric constant tensor:
#      x y z
#    x 1.758610 0.000000 0.000000 
#    y 0.000000 1.760250 0.000000 
#    z 0.000000 0.000000 1.723990 
# 
# From -- ./inp_files/11728.got.cif
#   From: 2010.03.12/outbox.cif.g09.slc.cpg/sg65_6_cif.got.tgz:11728.got - 2010.04.10 20:52:16.
