data_PCOD8268826
_publ_section_title
;
Structure prediction by ZEFSAII (Michael W. Deem and Ramdas Pophale) SiO2 
 PCOD8268826
Probable space group: C M M M
;
_chemical_formula_sum "Si O2"
_cell_formula_units_Z 104
_cell_length_a 10.839722
_cell_length_b 30.828954
_cell_length_c 16.967826
_cell_angle_alpha 90.000000
_cell_angle_beta 90.000000
_cell_angle_gamma 90.000000
_cell_volume 5670.262125
_symmetry_space_group_name_H-M "C M M M"
_symmetry_group_IT_number 65
_symmetry_cell_setting 'orthorhombic'
loop_
_space_group_symop_operation_xyz
x,y,z
-x,-y,z
x,-y,-z
-x,y,-z
-x,-y,-z
x,y,-z
-x,y,z
x,-y,z
1/2+x,1/2+y,z
1/2-x,1/2-y,z
1/2+x,1/2-y,-z
1/2-x,1/2+y,-z
1/2-x,1/2-y,-z
1/2+x,1/2+y,-z
1/2-x,1/2+y,z
1/2+x,1/2-y,z
loop_
_atom_site_type_symbol
_atom_site_label
_atom_site_fract_x
_atom_site_fract_y
_atom_site_fract_z
Si Si1 0.354900 0.627817 0.412324
Si Si2 0.356065 0.284117 0.320838
Si Si3 0.861505 0.170274 0.836058
Si Si4 0.859806 0.783828 0.000000
Si Si5 0.748731 0.581581 0.155612
Si Si6 0.641028 0.547074 0.000000
Si Si7 0.356151 0.451735 0.310364
Si Si8 0.500000 0.948988 0.907945
O O1 0.296668 0.630223 0.500000
O O2 0.500000 0.622039 0.418964
O O3 0.322988 0.671588 0.365876
O O4 0.300492 0.585232 0.368093
O O5 0.500000 0.269588 0.339061
O O6 0.250000 0.250000 0.347658
O O7 0.339812 0.291576 0.227279
O O8 0.840129 0.187189 0.923515
O O9 0.768254 0.131284 0.817795
O O10 0.000000 0.152003 0.825472
O O11 0.750000 0.750000 0.000000
O O12 0.000000 0.763671 0.000000
O O13 0.669933 0.574211 0.077218
O O14 0.707866 0.549907 0.225320
O O15 0.888773 0.573252 0.136267
O O16 0.713082 0.500000 0.000000
O O17 0.500000 0.536155 0.000000
O O18 0.500000 0.443149 0.296978
O O19 0.332661 0.500000 0.345840
O O20 0.500000 0.000000 0.894909
O O21 0.500000 0.936932 0.000000
#
# Coordination Sequence:
#
# PCOD8268826 Si02
#       8
#    16  16  16   8  16   8  16   8
#     4   9  18  34  56  83 118 153 181 222 287 351
#     4  10  20  37  59  85 116 151 190 236 289 345
#     4  10  20  36  57  79 110 143 183 236 289 335
#     4  10  21  37  53  78 105 145 185 230 285 341
#     4  12  21  36  54  76 106 149 193 229 280 330
#     4  11  21  30  48  77 105 136 181 233 276 322
#     4  10  19  32  55  86 115 144 185 234 279 335
#     4  11  24  40  52  70 111 157 193 237 280 328
#
# _framework density 18.341304999999998
#
# number of rings (size 3 to 8) (size 9 to 14) (size 15 to 20)
#    0.000    1.692    2.308    3.692    0.000    2.462 
#    2.769    1.538    0.000    0.000    0.000    0.000 
#    0.000    1.846    0.000    0.000    0.000    0.000 
#
# Total GULP energy -644627.059832 kJ/mol
# GULP energy per Si atom -12396.674228 kJ/mol
# Density = 1.829956 g / cm^3
# Si number density = 18.341305 Si / 1000 Ang^3
#
#
#
# Elastic Constant Matrix: (Units=GPa)
#
#
# Indices 1 2 3 4 5 6 
#
# 1 92.9798 54.9977 24.2930 0.0000 0.0000 0.0000
# 2 54.9977 114.2774 40.5312 0.0000 0.0000 0.0000
# 3 24.2930 40.5312 112.7087 0.0000 0.0000 0.0000
# 4 0.0000 0.0000 0.0000 17.7440 0.0000 0.0000
# 5 0.0000 0.0000 0.0000 0.0000 6.7102 0.0000
# 6 0.0000 0.0000 0.0000 0.0000 0.0000 29.3097
#
#
#
# Elastic Compliance Matrix: (Units=1/GPa)
#
#
# Indices 1 2 3 4 5 6 
#
# 1 0.015088 -0.007001 -0.000734 0.000000 0.000000 0.000000
# 2 -0.007001 0.013278 -0.003266 0.000000 0.000000 0.000000
# 3 -0.000734 -0.003266 0.010205 0.000000 0.000000 0.000000
# 4 0.000000 0.000000 0.000000 0.056357 0.000000 0.000000
# 5 0.000000 0.000000 0.000000 0.000000 0.149028 0.000000
# 6 0.000000 0.000000 0.000000 0.000000 0.000000 0.034118
#
#
# Mechanical properties :
#
#
# Convention : Reuss Voigt Hill
#
# Bulk Modulus (GPa) = 60.35445 62.17883 61.26664
# Shear Modulus (GPa) = 16.36125 24.09572 20.22848
#
# Velocity S-wave (km/s) = 2.98995 3.62849 3.32458
# Velocity P-wave (km/s) = 6.70056 7.17838 6.94358
#
# Compressibility (1/GPa) = 0.01656879
#
# Stress axis : x y z
#
# Youngs Moduli (GPa) = 66.27835 75.31114 97.98890
#
# Poissons Ratio (x) = 0.52724 0.07197
# Poissons Ratio (y) = 0.46400 0.32004
# Poissons Ratio (z) = 0.04868 0.24597
#
# Static dielectric constant tensor:
#      x y z
#    x 3.212470 0.000000 0.000000 
#    y 0.000000 3.356610 0.000000 
#    z 0.000000 0.000000 3.885880 
# 
# 
# High freq. dielectric constant tensor:
#      x y z
#    x 1.680100 0.000000 0.000000 
#    y 0.000000 1.711950 0.000000 
#    z 0.000000 0.000000 1.714480 
# 
# From -- ./inp_files/51985.got.cif
#   From: 2010.03.12/outbox.cif.g09.slc.cpg/sg65_26_cif.got.tgz:51985.got - 2010.04.10 20:52:16.
