data_PCOD8268454
_publ_section_title
;
Structure prediction by ZEFSAII (Michael W. Deem and Ramdas Pophale) SiO2 
 PCOD8268454
Probable space group: C M M M
;
_chemical_formula_sum "Si O2"
_cell_formula_units_Z 120
_cell_length_a 27.954592
_cell_length_b 26.331517
_cell_length_c 9.068846
_cell_angle_alpha 90.000000
_cell_angle_beta 90.000000
_cell_angle_gamma 90.000000
_cell_volume 6675.457963
_symmetry_space_group_name_H-M "C M M M"
_symmetry_group_IT_number 65
_symmetry_cell_setting 'orthorhombic'
loop_
_space_group_symop_operation_xyz
x,y,z
-x,-y,z
x,-y,-z
-x,y,-z
-x,-y,-z
x,y,-z
-x,y,z
x,-y,z
1/2+x,1/2+y,z
1/2-x,1/2-y,z
1/2+x,1/2-y,-z
1/2-x,1/2+y,-z
1/2-x,1/2-y,-z
1/2+x,1/2+y,-z
1/2-x,1/2+y,z
1/2+x,1/2-y,z
loop_
_atom_site_type_symbol
_atom_site_label
_atom_site_fract_x
_atom_site_fract_y
_atom_site_fract_z
Si Si1 0.289210 0.440819 0.669762
Si Si2 0.803411 0.742037 0.326653
Si Si3 0.636986 0.855853 0.674006
Si Si4 0.053257 0.000000 0.824901
Si Si5 0.945273 0.299735 0.172661
Si Si6 0.308186 0.058873 0.172470
Si Si7 0.115099 0.795261 0.168029
Si Si8 0.118523 0.091356 0.829412
O O1 0.281758 0.425620 0.500000
O O2 0.300192 0.500000 0.689428
O O3 0.242080 0.424730 0.757418
O O4 0.333202 0.410148 0.736027
O O5 0.803308 0.749343 0.500000
O O6 0.750000 0.750000 0.262624
O O7 0.823606 0.686624 0.282403
O O8 0.837446 0.785569 0.262554
O O9 0.633821 0.863819 0.500000
O O10 0.585124 0.840117 0.734584
O O11 0.650359 0.908685 0.750946
O O12 0.080681 0.050267 0.768738
O O13 0.000000 0.000000 0.756385
O O14 0.049982 0.000000 0.000000
O O15 0.927659 0.242788 0.211898
O O16 0.000000 0.304448 0.222805
O O17 0.939111 0.311407 0.000000
O O18 0.319292 0.000000 0.204377
O O19 0.306464 0.070701 0.000000
O O20 0.096274 0.852617 0.192333
O O21 0.130397 0.786340 0.000000
O O22 0.130787 0.079933 0.000000
#
# Coordination Sequence:
#
# PCOD8268454 Si02
#       8
#    16  16  16   8  16  16  16  16
#     4  10  20  33  50  72 100 138 181 218 260 311
#     4   9  19  34  49  70 103 141 175 210 258 314
#     4  10  20  34  54  81 111 142 177 218 262 313
#     4   9  18  32  51  73  99 135 177 225 278 325
#     4   9  18  35  57  78 104 139 178 221 269 320
#     4  10  21  36  55  80 111 145 178 213 256 308
#     4   9  19  32  48  75 102 131 174 222 267 312
#     4  10  19  32  50  73 103 135 176 226 274 323
#
# _framework density 17.976293999999999
#
# number of rings (size 3 to 8) (size 9 to 14) (size 15 to 20)
#    0.000    2.467    0.667    1.200    1.867    3.467 
#    0.000    2.667    0.000    1.200    0.000    4.667 
#    0.000    0.000    0.000    0.000    0.000    0.000 
#
# Total GULP energy -744108.741231 kJ/mol
# GULP energy per Si atom -12401.812354 kJ/mol
# Density = 1.793538 g / cm^3
# Si number density = 17.976294 Si / 1000 Ang^3
#
#
#
# Elastic Constant Matrix: (Units=GPa)
#
#
# Indices 1 2 3 4 5 6 
#
# 1 142.0977 66.5218 49.9497 0.0000 0.0000 0.0000
# 2 66.5218 100.5866 43.2080 0.0000 0.0000 0.0000
# 3 49.9497 43.2080 66.1425 0.0000 0.0000 0.0000
# 4 0.0000 0.0000 0.0000 23.3224 0.0000 0.0000
# 5 0.0000 0.0000 0.0000 0.0000 18.8478 0.0000
# 6 0.0000 0.0000 0.0000 0.0000 0.0000 21.1160
#
#
#
# Elastic Compliance Matrix: (Units=1/GPa)
#
#
# Indices 1 2 3 4 5 6 
#
# 1 0.011299 -0.005292 -0.005076 0.000000 0.000000 0.000000
# 2 -0.005292 0.016298 -0.006650 0.000000 0.000000 0.000000
# 3 -0.005076 -0.006650 0.023296 0.000000 0.000000 0.000000
# 4 0.000000 0.000000 0.000000 0.042877 0.000000 0.000000
# 5 0.000000 0.000000 0.000000 0.000000 0.053056 0.000000
# 6 0.000000 0.000000 0.000000 0.000000 0.000000 0.047357
#
#
# Mechanical properties :
#
#
# Convention : Reuss Voigt Hill
#
# Bulk Modulus (GPa) = 59.32197 69.79842 64.56020
# Shear Modulus (GPa) = 21.38205 22.60039 21.99122
#
# Velocity S-wave (km/s) = 3.45259 3.54960 3.50143
# Velocity P-wave (km/s) = 6.99754 7.46404 7.23455
#
# Compressibility (1/GPa) = 0.01685716
#
# Stress axis : x y z
#
# Youngs Moduli (GPa) = 88.50250 61.35575 42.92511
#
# Poissons Ratio (x) = 0.32471 0.21788
# Poissons Ratio (y) = 0.46837 0.28547
# Poissons Ratio (z) = 0.44921 0.40804
#
# Static dielectric constant tensor:
#      x y z
#    x 3.276350 0.000000 0.000000 
#    y 0.000000 3.327630 0.000000 
#    z 0.000000 0.000000 3.251510 
# 
# 
# High freq. dielectric constant tensor:
#      x y z
#    x 1.683680 0.000000 0.000000 
#    y 0.000000 1.694110 0.000000 
#    z 0.000000 0.000000 1.690350 
# 
# From -- ./inp_files/17045.got.cif
#   From: 2010.03.12/outbox.cif.g09.slc.cpg/sg65_9_cif.got.tgz:17045.got - 2010.04.10 20:52:16.
