data_PCOD8268756
_publ_section_title
;
Structure prediction by ZEFSAII (Michael W. Deem and Ramdas Pophale) SiO2 
 PCOD8268756
Probable space group: C M M M
;
_chemical_formula_sum "Si O2"
_cell_formula_units_Z 104
_cell_length_a 18.804082
_cell_length_b 8.905832
_cell_length_c 33.350088
_cell_angle_alpha 90.000000
_cell_angle_beta 90.000000
_cell_angle_gamma 90.000000
_cell_volume 5585.005677
_symmetry_space_group_name_H-M "C M M M"
_symmetry_group_IT_number 65
_symmetry_cell_setting 'orthorhombic'
loop_
_space_group_symop_operation_xyz
x,y,z
-x,-y,z
x,-y,-z
-x,y,-z
-x,-y,-z
x,y,-z
-x,y,z
x,-y,z
1/2+x,1/2+y,z
1/2-x,1/2-y,z
1/2+x,1/2-y,-z
1/2-x,1/2+y,-z
1/2-x,1/2-y,-z
1/2+x,1/2+y,-z
1/2-x,1/2+y,z
1/2+x,1/2-y,z
loop_
_atom_site_type_symbol
_atom_site_label
_atom_site_fract_x
_atom_site_fract_y
_atom_site_fract_z
Si Si1 0.083455 0.674930 0.198821
Si Si2 0.176291 0.176220 0.736427
Si Si3 0.584249 0.170818 0.579892
Si Si4 0.084707 0.169509 0.500000
Si Si5 0.325462 0.325214 0.957711
Si Si6 0.323045 0.675318 0.356268
Si Si7 0.827645 0.822018 0.129420
O O1 0.102585 0.500000 0.199187
O O2 0.112021 0.750758 0.239264
O O3 0.118040 0.752043 0.160465
O O4 0.000000 0.703735 0.196945
O O5 0.250000 0.250000 0.750871
O O6 0.161711 0.212215 0.690034
O O7 0.180456 0.000000 0.745116
O O8 0.500000 0.181028 0.581383
O O9 0.614024 0.246612 0.539355
O O10 0.612449 0.257646 0.618542
O O11 0.610912 0.000000 0.580706
O O12 0.000000 0.172136 0.500000
O O13 0.113867 0.000000 0.500000
O O14 0.310791 0.500000 0.956983
O O15 0.250000 0.250000 0.959238
O O16 0.361099 0.282383 0.914965
O O17 0.367015 0.282874 0.000000
O O18 0.317375 0.500000 0.364240
O O19 0.250000 0.750000 0.370711
O O20 0.750000 0.750000 0.134996
O O21 0.821489 0.000000 0.136583
#
# Coordination Sequence:
#
# PCOD8268756 Si02
#       7
#    16  16  16   8  16  16  16
#     4  11  24  39  54  74 103 137 173 216 262 307
#     4  10  21  38  60  82 105 135 172 213 257 311
#     4  10  20  34  54  80 110 144 181 220 262 310
#     4   9  17  31  52  77 106 141 182 225 265 307
#     4   8  14  25  43  70 101 130 163 205 251 297
#     4  10  21  37  57  81 109 140 173 212 260 312
#     4  10  19  32  53  78 105 137 172 211 255 307
#
# _framework density 18.621289000000001
#
# number of rings (size 3 to 8) (size 9 to 14) (size 15 to 20)
#    0.000    2.231    0.000    3.000    0.000    6.154 
#    0.000    3.462    0.000    0.462    0.000    3.231 
#    0.000    0.000    0.000    0.000    0.000    0.000 
#
# Total GULP energy -644530.741787 kJ/mol
# GULP energy per Si atom -12394.821957 kJ/mol
# Density = 1.857891 g / cm^3
# Si number density = 18.621289 Si / 1000 Ang^3
#
#
#
# Elastic Constant Matrix: (Units=GPa)
#
#
# Indices 1 2 3 4 5 6 
#
# 1 58.2730 44.5696 51.9250 0.0000 0.0000 0.0000
# 2 44.5696 115.8644 69.0885 0.0000 0.0000 0.0000
# 3 51.9250 69.0885 138.2252 0.0000 0.0000 0.0000
# 4 0.0000 0.0000 0.0000 27.9698 0.0000 0.0000
# 5 0.0000 0.0000 0.0000 0.0000 22.8964 0.0000
# 6 0.0000 0.0000 0.0000 0.0000 0.0000 28.7359
#
#
#
# Elastic Compliance Matrix: (Units=1/GPa)
#
#
# Indices 1 2 3 4 5 6 
#
# 1 0.028980 -0.006633 -0.007571 0.000000 0.000000 0.000000
# 2 -0.006633 0.013814 -0.004413 0.000000 0.000000 0.000000
# 3 -0.007571 -0.004413 0.012284 0.000000 0.000000 0.000000
# 4 0.000000 0.000000 0.000000 0.035753 0.000000 0.000000
# 5 0.000000 0.000000 0.000000 0.000000 0.043675 0.000000
# 6 0.000000 0.000000 0.000000 0.000000 0.000000 0.034800
#
#
# Mechanical properties :
#
#
# Convention : Reuss Voigt Hill
#
# Bulk Modulus (GPa) = 56.04061 71.50319 63.77190
# Shear Modulus (GPa) = 23.53076 25.70572 24.61824
#
# Velocity S-wave (km/s) = 3.55864 3.71947 3.63994
# Velocity P-wave (km/s) = 6.85897 7.54506 7.21018
#
# Compressibility (1/GPa) = 0.01784420
#
# Stress axis : x y z
#
# Youngs Moduli (GPa) = 34.50601 72.39265 81.40542
#
# Poissons Ratio (x) = 0.48021 0.61633
# Poissons Ratio (y) = 0.22889 0.35920
# Poissons Ratio (z) = 0.26125 0.31943
#
# Static dielectric constant tensor:
#      x y z
#    x 2.977420 0.000000 0.000000 
#    y 0.000000 3.608180 0.000000 
#    z 0.000000 0.000000 3.927250 
# 
# 
# High freq. dielectric constant tensor:
#      x y z
#    x 1.681210 0.000000 0.000000 
#    y 0.000000 1.740410 0.000000 
#    z 0.000000 0.000000 1.747810 
# 
# From -- ./inp_files/78244.got.cif
#   From: 2010.03.12/outbox.cif.g09.slc.cpg/sg65_40_cif.got.tgz:78244.got - 2010.04.10 20:52:16.
