data_PCOD8268097
_publ_section_title
;
Structure prediction by ZEFSAII (Michael W. Deem and Ramdas Pophale) SiO2 
 PCOD8268097
Probable space group: C M M M
;
_chemical_formula_sum "Si O2"
_cell_formula_units_Z 76
_cell_length_a 23.771605
_cell_length_b 8.855769
_cell_length_c 19.613026
_cell_angle_alpha 90.000000
_cell_angle_beta 90.000000
_cell_angle_gamma 90.000000
_cell_volume 4128.852695
_symmetry_space_group_name_H-M "C M M M"
_symmetry_group_IT_number 65
_symmetry_cell_setting 'orthorhombic'
loop_
_space_group_symop_operation_xyz
x,y,z
-x,-y,z
x,-y,-z
-x,y,-z
-x,-y,-z
x,y,-z
-x,y,z
x,-y,z
1/2+x,1/2+y,z
1/2-x,1/2-y,z
1/2+x,1/2-y,-z
1/2-x,1/2+y,-z
1/2-x,1/2-y,-z
1/2+x,1/2+y,-z
1/2-x,1/2+y,z
1/2+x,1/2-y,z
loop_
_atom_site_type_symbol
_atom_site_label
_atom_site_fract_x
_atom_site_fract_y
_atom_site_fract_z
Si Si1 0.500000 0.832972 0.651172
Si Si2 0.875312 0.167028 0.500000
Si Si3 0.566754 0.829636 0.000000
Si Si4 0.310497 0.680113 0.629496
Si Si5 0.000000 0.749174 0.500000
Si Si6 0.566098 0.323810 0.138368
Si Si7 0.107689 0.679572 0.272491
O O1 0.500000 0.847293 0.569207
O O2 0.556032 0.754576 0.681133
O O3 0.500000 0.000000 0.682280
O O4 0.850736 0.243258 0.568393
O O5 0.942995 0.154353 0.500000
O O6 0.850218 0.000000 0.500000
O O7 0.587989 0.739608 0.066263
O O8 0.500000 0.833998 0.000000
O O9 0.591089 0.000000 0.000000
O O10 0.307334 0.500000 0.633767
O O11 0.250000 0.750000 0.616237
O O12 0.335443 0.744812 0.699745
O O13 0.500000 0.293763 0.147964
O O14 0.580435 0.500000 0.143096
O O15 0.599623 0.231843 0.195313
O O16 0.113414 0.500000 0.276430
#
# Coordination Sequence:
#
# PCOD8268097 Si02
#       7
#     8   8   8  16   4  16  16
#     4  10  21  33  51  77 110 143 181 225 279 335
#     4  10  22  36  56  80 108 140 179 226 280 336
#     4   9  17  29  47  73 108 151 188 223 263 322
#     4  11  23  41  58  79 104 140 186 234 283 333
#     4  12  18  38  54  82 110 144 182 224 280 334
#     4  10  19  31  49  77 112 150 185 224 270 326
#     4  11  21  36  55  80 109 145 184 229 278 332
#
# _framework density 18.407050999999999
#
# number of rings (size 3 to 8) (size 9 to 14) (size 15 to 20)
#    0.000    1.579    3.158    2.842    0.000    2.105 
#    0.000    1.579    0.000    0.000    0.000    0.737 
#    0.000    0.000    0.000    0.000    0.000    0.000 
#
# Total GULP energy -471122.043688 kJ/mol
# GULP energy per Si atom -12397.948518 kJ/mol
# Density = 1.836516 g / cm^3
# Si number density = 18.407051 Si / 1000 Ang^3
#
#
#
# Elastic Constant Matrix: (Units=GPa)
#
#
# Indices 1 2 3 4 5 6 
#
# 1 97.0382 34.6328 48.8414 0.0000 0.0000 0.0000
# 2 34.6328 98.9840 40.9843 0.0000 0.0000 0.0000
# 3 48.8414 40.9843 140.8033 0.0000 0.0000 0.0000
# 4 0.0000 0.0000 0.0000 28.9654 0.0000 0.0000
# 5 0.0000 0.0000 0.0000 0.0000 12.6870 0.0000
# 6 0.0000 0.0000 0.0000 0.0000 0.0000 23.1085
#
#
#
# Elastic Compliance Matrix: (Units=1/GPa)
#
#
# Indices 1 2 3 4 5 6 
#
# 1 0.013279 -0.003114 -0.003700 0.000000 0.000000 0.000000
# 2 -0.003114 0.012217 -0.002476 0.000000 0.000000 0.000000
# 3 -0.003700 -0.002476 0.009106 0.000000 0.000000 0.000000
# 4 0.000000 0.000000 0.000000 0.034524 0.000000 0.000000
# 5 0.000000 0.000000 0.000000 0.000000 0.078821 0.000000
# 6 0.000000 0.000000 0.000000 0.000000 0.000000 0.043274
#
#
# Mechanical properties :
#
#
# Convention : Reuss Voigt Hill
#
# Bulk Modulus (GPa) = 62.41122 65.08251 63.74687
# Shear Modulus (GPa) = 23.24049 27.10998 25.17523
#
# Velocity S-wave (km/s) = 3.55714 3.84188 3.70225
# Velocity P-wave (km/s) = 7.13097 7.42389 7.27891
#
# Compressibility (1/GPa) = 0.01602276
#
# Stress axis : x y z
#
# Youngs Moduli (GPa) = 75.30808 81.85046 109.81633
#
# Poissons Ratio (x) = 0.25490 0.40628
# Poissons Ratio (y) = 0.23452 0.27190
# Poissons Ratio (z) = 0.27861 0.20266
#
# Static dielectric constant tensor:
#      x y z
#    x 3.140020 0.000000 0.000000 
#    y 0.000000 3.265020 0.000000 
#    z 0.000000 0.000000 3.479280 
# 
# 
# High freq. dielectric constant tensor:
#      x y z
#    x 1.679120 0.000000 0.000000 
#    y 0.000000 1.712570 0.000000 
#    z 0.000000 0.000000 1.721890 
# 
# From -- ./inp_files/57363.got.cif
#   From: 2010.03.12/outbox.cif.g09.slc.cpg/sg65_29_cif.got.tgz:57363.got - 2010.04.10 20:52:16.
