data_PCOD8268558
_publ_section_title
;
Structure prediction by ZEFSAII (Michael W. Deem and Ramdas Pophale) SiO2 
 PCOD8268558
Probable space group: C M M M
;
_chemical_formula_sum "Si O2"
_cell_formula_units_Z 72
_cell_length_a 17.436114
_cell_length_b 9.638025
_cell_length_c 22.024776
_cell_angle_alpha 90.000000
_cell_angle_beta 90.000000
_cell_angle_gamma 90.000000
_cell_volume 3701.257057
_symmetry_space_group_name_H-M "C M M M"
_symmetry_group_IT_number 65
_symmetry_cell_setting 'orthorhombic'
loop_
_space_group_symop_operation_xyz
x,y,z
-x,-y,z
x,-y,-z
-x,y,-z
-x,-y,-z
x,y,-z
-x,y,z
x,-y,z
1/2+x,1/2+y,z
1/2-x,1/2-y,z
1/2+x,1/2-y,-z
1/2-x,1/2+y,-z
1/2-x,1/2-y,-z
1/2+x,1/2+y,-z
1/2-x,1/2+y,z
1/2+x,1/2-y,z
loop_
_atom_site_type_symbol
_atom_site_label
_atom_site_fract_x
_atom_site_fract_y
_atom_site_fract_z
Si Si1 0.836680 0.500000 0.066849
Si Si2 0.091254 0.159848 0.385916
Si Si3 0.840774 0.252609 0.148140
Si Si4 0.909135 0.658638 0.727091
Si Si5 0.345259 0.500000 0.931457
Si Si6 0.408726 0.839691 0.500000
O O1 0.867770 0.372764 0.104261
O O2 0.745572 0.500000 0.061215
O O3 0.873403 0.500000 0.000000
O O4 0.121504 0.242926 0.326956
O O5 0.121348 0.251803 0.442357
O O6 0.000000 0.153693 0.386730
O O7 0.122829 0.000000 0.387596
O O8 0.750000 0.250000 0.159590
O O9 0.881700 0.266186 0.212274
O O10 0.873035 0.125198 0.110025
O O11 0.876903 0.500000 0.721566
O O12 0.000000 0.652659 0.725868
O O13 0.381005 0.500000 0.000000
O O14 0.500000 0.846569 0.500000
O O15 0.377429 0.000000 0.500000
#
# Coordination Sequence:
#
# PCOD8268558 Si02
#       6
#     8  16  16  16   8   8
#     4   9  16  30  51  73  97 124 161 208 252 295
#     4   9  17  28  44  68  97 130 166 205 248 291
#     4  10  19  32  51  75 100 127 164 207 250 298
#     4  10  20  34  50  70 100 136 170 202 244 297
#     4   9  18  30  49  75  97 122 159 208 258 297
#     4   9  15  25  43  67  96 129 166 207 246 285
#
# _framework density 19.452850000000002
#
# number of rings (size 3 to 8) (size 9 to 14) (size 15 to 20)
#    0.000    2.556    1.111    1.667    1.556    6.667 
#    0.000    0.000    0.000    4.000    0.000    0.778 
#    0.000    0.000    0.000    0.000    0.000    0.000 
#
# Total GULP energy -446063.492069 kJ/mol
# GULP energy per Si atom -12390.652557 kJ/mol
# Density = 1.940857 g / cm^3
# Si number density = 19.452850 Si / 1000 Ang^3
#
#
#
# Elastic Constant Matrix: (Units=GPa)
#
#
# Indices 1 2 3 4 5 6 
#
# 1 2.4787 8.1920 8.6549 0.0000 0.0000 0.0000
# 2 8.1920 205.6800 111.6873 0.0000 0.0000 0.0000
# 3 8.6549 111.6873 213.0291 0.0000 0.0000 0.0000
# 4 0.0000 0.0000 0.0000 68.1780 0.0000 0.0000
# 5 0.0000 0.0000 0.0000 0.0000 41.3637 0.0000
# 6 0.0000 0.0000 0.0000 0.0000 0.0000 12.5100
#
#
#
# Elastic Compliance Matrix: (Units=1/GPa)
#
#
# Indices 1 2 3 4 5 6 
#
# 1 0.491099 -0.012198 -0.013557 0.000000 0.000000 0.000000
# 2 -0.012198 0.007100 -0.003227 0.000000 0.000000 0.000000
# 3 -0.013557 -0.003227 0.006937 0.000000 0.000000 0.000000
# 4 0.000000 0.000000 0.000000 0.014667 0.000000 0.000000
# 5 0.000000 0.000000 0.000000 0.000000 0.024176 0.000000
# 6 0.000000 0.000000 0.000000 0.000000 0.000000 0.079936
#
#
# Mechanical properties :
#
#
# Convention : Reuss Voigt Hill
#
# Bulk Modulus (GPa) = 2.23628 75.36179 38.79903
# Shear Modulus (GPa) = 6.01731 43.92057 24.96894
#
# Velocity S-wave (km/s) = 1.76068 4.75678 3.58657
# Velocity P-wave (km/s) = 2.29900 8.30627 6.09424
#
# Compressibility (1/GPa) = 0.44717134
#
# Stress axis : x y z
#
# Youngs Moduli (GPa) = 2.03625 140.84578 144.16021
#
# Poissons Ratio (x) = 1.71808 1.95436
# Poissons Ratio (y) = 0.02484 0.46518
# Poissons Ratio (z) = 0.02761 0.45448
#
# Static dielectric constant tensor:
#      x y z
#    x 2.811890 0.000000 0.000000 
#    y 0.000000 3.996030 0.000000 
#    z 0.000000 0.000000 3.781840 
# 
# 
# High freq. dielectric constant tensor:
#      x y z
#    x 1.680060 0.000000 0.000000 
#    y 0.000000 1.780570 0.000000 
#    z 0.000000 0.000000 1.778100 
# 
# From -- ./inp_files/59407.got.cif
#   From: 2010.03.12/outbox.cif.g09.slc.cpg/sg65_30_cif.got.tgz:59407.got - 2010.04.10 20:52:16.
