data_PCOD8268894
_publ_section_title
;
Structure prediction by ZEFSAII (Michael W. Deem and Ramdas Pophale) SiO2 
 PCOD8268894
Probable space group: C M M M
;
_chemical_formula_sum "Si O2"
_cell_formula_units_Z 72
_cell_length_a 8.734205
_cell_length_b 23.493694
_cell_length_c 21.055297
_cell_angle_alpha 90.000000
_cell_angle_beta 90.000000
_cell_angle_gamma 90.000000
_cell_volume 4320.520406
_symmetry_space_group_name_H-M "C M M M"
_symmetry_group_IT_number 65
_symmetry_cell_setting 'orthorhombic'
loop_
_space_group_symop_operation_xyz
x,y,z
-x,-y,z
x,-y,-z
-x,y,-z
-x,-y,-z
x,y,-z
-x,y,z
x,-y,z
1/2+x,1/2+y,z
1/2-x,1/2-y,z
1/2+x,1/2-y,-z
1/2-x,1/2+y,-z
1/2-x,1/2-y,-z
1/2+x,1/2+y,-z
1/2-x,1/2+y,z
1/2+x,1/2-y,z
loop_
_atom_site_type_symbol
_atom_site_label
_atom_site_fract_x
_atom_site_fract_y
_atom_site_fract_z
Si Si1 0.321703 0.311375 0.000000
Si Si2 0.681097 0.379917 0.377065
Si Si3 0.319953 0.688539 0.500000
Si Si4 0.680526 0.812763 0.737378
Si Si5 0.319143 0.687505 0.864380
Si Si6 0.818840 0.000000 0.571456
O O1 0.250000 0.250000 0.000000
O O2 0.279928 0.343279 0.067073
O O3 0.500000 0.299663 0.000000
O O4 0.500000 0.374754 0.365726
O O5 0.736007 0.344542 0.437969
O O6 0.769954 0.356082 0.316870
O O7 0.733351 0.444844 0.388892
O O8 0.500000 0.693699 0.500000
O O9 0.250000 0.750000 0.500000
O O10 0.500000 0.806342 0.738455
O O11 0.750000 0.750000 0.725984
O O12 0.738935 0.841586 0.803607
O O13 0.500000 0.689730 0.852066
O O14 0.250000 0.750000 0.868139
O O15 0.748076 0.000000 0.500000
O O16 0.000000 0.000000 0.563592
#
# Coordination Sequence:
#
# PCOD8268894 Si02
#       6
#     8  16   8  16  16   8
#     4   8  14  22  36  58  84 115 152 189 224 264
#     4  10  19  33  52  72  92 118 151 191 233 280
#     4  10  20  31  47  69  93 118 149 184 223 270
#     4  11  21  32  45  65  94 128 161 194 232 276
#     4   9  15  25  40  60  87 120 155 190 227 270
#     4   9  16  32  57  77  91 112 149 192 237 283
#
# _framework density 16.664660000000001
#
# number of rings (size 3 to 8) (size 9 to 14) (size 15 to 20)
#    0.000    2.333    1.111    4.667    0.000    3.556 
#    0.000    0.556    0.000    0.667    0.000    0.000 
#    0.000    0.889    0.000   10.222    0.000    5.111 
#
# Total GULP energy -445973.623960 kJ/mol
# GULP energy per Si atom -12388.156221 kJ/mol
# Density = 1.662673 g / cm^3
# Si number density = 16.664660 Si / 1000 Ang^3
#
#
#
# Elastic Constant Matrix: (Units=GPa)
#
#
# Indices 1 2 3 4 5 6 
#
# 1 72.2003 28.6278 57.1167 0.0000 0.0000 0.0000
# 2 28.6278 89.0215 61.4599 0.0000 0.0000 0.0000
# 3 57.1167 61.4599 191.1343 0.0000 0.0000 0.0000
# 4 0.0000 0.0000 0.0000 -1.0616 0.0000 0.0000
# 5 0.0000 0.0000 0.0000 0.0000 22.0743 0.0000
# 6 0.0000 0.0000 0.0000 0.0000 0.0000 15.0858
#
#
#
# Elastic Compliance Matrix: (Units=1/GPa)
#
#
# Indices 1 2 3 4 5 6 
#
# 1 0.018653 -0.002764 -0.004685 0.000000 0.000000 0.000000
# 2 -0.002764 0.014848 -0.003949 0.000000 0.000000 0.000000
# 3 -0.004685 -0.003949 0.007902 0.000000 0.000000 0.000000
# 4 0.000000 0.000000 0.000000 -0.941991 0.000000 0.000000
# 5 0.000000 0.000000 0.000000 0.000000 0.045301 0.000000
# 6 0.000000 0.000000 0.000000 0.000000 0.000000 0.066287
#
#
# Mechanical properties :
#
#
# Convention : Reuss Voigt Hill
#
# Bulk Modulus (GPa) = 53.74233 71.86276 62.80255
# Shear Modulus (GPa) = -6.57893 20.89650 7.15878
#
# Velocity S-wave (km/s) = -1.98907 3.54494 2.07488
# Velocity P-wave (km/s) = 5.20039 7.74416 6.59606
#
# Compressibility (1/GPa) = 0.01860731
#
# Stress axis : x y z
#
# Youngs Moduli (GPa) = 53.61172 67.34881 126.55488
#
# Poissons Ratio (x) = 0.18613 0.59295
# Poissons Ratio (y) = 0.14817 0.49971
# Poissons Ratio (z) = 0.25119 0.26593
#
# Static dielectric constant tensor:
#      x y z
#    x 1.830560 0.000000 0.000000 
#    y 0.000000 2.777350 0.000000 
#    z 0.000000 0.000000 4.084720 
# 
# 
# High freq. dielectric constant tensor:
#      x y z
#    x 1.638030 0.000000 0.000000 
#    y 0.000000 1.582420 0.000000 
#    z 0.000000 0.000000 1.669850 
# 
# From -- ./inp_files/59585.got.cif
#   From: 2010.03.12/outbox.cif.g09.slc.cpg/sg65_30_cif.got.tgz:59585.got - 2010.04.10 20:52:16.
