data_PCOD8268733
_publ_section_title
;
Structure prediction by ZEFSAII (Michael W. Deem and Ramdas Pophale) SiO2 
 PCOD8268733
Probable space group: C M M M
;
_chemical_formula_sum "Si O2"
_cell_formula_units_Z 96
_cell_length_a 22.508722
_cell_length_b 24.260944
_cell_length_c 9.299579
_cell_angle_alpha 90.000000
_cell_angle_beta 90.000000
_cell_angle_gamma 90.000000
_cell_volume 5078.340548
_symmetry_space_group_name_H-M "C M M M"
_symmetry_group_IT_number 65
_symmetry_cell_setting 'orthorhombic'
loop_
_space_group_symop_operation_xyz
x,y,z
-x,-y,z
x,-y,-z
-x,y,-z
-x,-y,-z
x,y,-z
-x,y,z
x,-y,z
1/2+x,1/2+y,z
1/2-x,1/2-y,z
1/2+x,1/2-y,-z
1/2-x,1/2+y,-z
1/2-x,1/2-y,-z
1/2+x,1/2+y,-z
1/2-x,1/2+y,z
1/2+x,1/2-y,z
loop_
_atom_site_type_symbol
_atom_site_label
_atom_site_fract_x
_atom_site_fract_y
_atom_site_fract_z
Si Si1 0.068591 0.682163 0.830600
Si Si2 0.230052 0.812126 0.340513
Si Si3 0.614767 0.299666 0.165028
Si Si4 0.145629 0.000000 0.671799
Si Si5 0.717991 0.000000 0.330133
Si Si6 0.162660 0.386321 0.670539
Si Si7 0.433265 0.415338 0.164900
O O1 0.088940 0.742430 0.772074
O O2 0.103261 0.633362 0.750145
O O3 0.000000 0.674455 0.791922
O O4 0.079741 0.677269 0.000000
O O5 0.213571 0.833711 0.500000
O O6 0.250000 0.750000 0.345917
O O7 0.174031 0.819849 0.240925
O O8 0.284050 0.847264 0.277255
O O9 0.568221 0.349219 0.186690
O O10 0.630584 0.290081 0.000000
O O11 0.113255 0.054384 0.731737
O O12 0.141607 0.000000 0.500000
O O13 0.214032 0.000000 0.727251
O O14 0.680503 0.947345 0.277277
O O15 0.722558 0.000000 0.500000
O O16 0.152114 0.382674 0.500000
O O17 0.500000 0.434915 0.202178
O O18 0.417589 0.430362 0.000000
#
# Coordination Sequence:
#
# PCOD8268733 Si02
#       7
#    16  16  16   8   8  16  16
#     4  10  21  37  56  80 111 143 176 220 272 321
#     4  10  19  32  52  80 113 143 173 221 278 322
#     4  10  20  34  55  81 110 146 186 222 264 324
#     4  11  22  38  59  81 107 142 186 231 276 321
#     4   9  20  38  59  80 106 141 176 221 274 327
#     4  10  20  37  58  80 107 141 181 219 266 325
#     4  10  21  37  55  77 110 151 189 225 268 320
#
# _framework density 18.903813
#
# number of rings (size 3 to 8) (size 9 to 14) (size 15 to 20)
#    0.000    2.000    1.667    2.000    0.000    6.667 
#    0.000    2.500    0.000    5.500    0.000    0.000 
#    0.000    0.000    0.000    0.000    0.000    0.000 
#
# Total GULP energy -595201.750324 kJ/mol
# GULP energy per Si atom -12400.036465 kJ/mol
# Density = 1.886079 g / cm^3
# Si number density = 18.903813 Si / 1000 Ang^3
#
#
#
# Elastic Constant Matrix: (Units=GPa)
#
#
# Indices 1 2 3 4 5 6 
#
# 1 140.1809 68.2404 50.4518 0.0000 0.0000 0.0000
# 2 68.2404 131.6140 33.8035 0.0000 0.0000 0.0000
# 3 50.4518 33.8035 51.9488 0.0000 0.0000 0.0000
# 4 0.0000 0.0000 0.0000 31.4448 0.0000 0.0000
# 5 0.0000 0.0000 0.0000 0.0000 35.4700 0.0000
# 6 0.0000 0.0000 0.0000 0.0000 0.0000 29.1252
#
#
#
# Elastic Compliance Matrix: (Units=1/GPa)
#
#
# Indices 1 2 3 4 5 6 
#
# 1 0.012540 -0.004051 -0.009543 0.000000 0.000000 0.000000
# 2 -0.004051 0.010431 -0.002853 0.000000 0.000000 0.000000
# 3 -0.009543 -0.002853 0.030374 0.000000 0.000000 0.000000
# 4 0.000000 0.000000 0.000000 0.031802 0.000000 0.000000
# 5 0.000000 0.000000 0.000000 0.000000 0.028193 0.000000
# 6 0.000000 0.000000 0.000000 0.000000 0.000000 0.034335
#
#
# Mechanical properties :
#
#
# Convention : Reuss Voigt Hill
#
# Bulk Modulus (GPa) = 48.89675 69.85946 59.37810
# Shear Modulus (GPa) = 26.68283 30.62452 28.65367
#
# Velocity S-wave (km/s) = 3.76108 4.02931 3.89750
# Velocity P-wave (km/s) = 6.69202 7.66046 7.19256
#
# Compressibility (1/GPa) = 0.02045126
#
# Stress axis : x y z
#
# Youngs Moduli (GPa) = 79.74369 95.86591 32.92256
#
# Poissons Ratio (x) = 0.38835 0.31417
# Poissons Ratio (y) = 0.32304 0.09394
# Poissons Ratio (z) = 0.76098 0.27355
#
# Static dielectric constant tensor:
#      x y z
#    x 2.100600 0.000000 0.000000 
#    y 0.000000 3.663860 0.000000 
#    z 0.000000 0.000000 3.332930 
# 
# 
# High freq. dielectric constant tensor:
#      x y z
#    x 1.734390 0.000000 0.000000 
#    y 0.000000 1.743080 0.000000 
#    z 0.000000 0.000000 1.714620 
# 
# From -- ./inp_files/14360.got.cif
#   From: 2010.03.12/outbox.cif.g09.slc.cpg/sg65_8_cif.got.tgz:14360.got - 2010.04.10 20:52:16.
