data_PCOD8268165
_publ_section_title
;
Structure prediction by ZEFSAII (Michael W. Deem and Ramdas Pophale) SiO2 
 PCOD8268165
Probable space group: C M M M
;
_chemical_formula_sum "Si O2"
_cell_formula_units_Z 88
_cell_length_a 18.971941
_cell_length_b 27.274776
_cell_length_c 9.225514
_cell_angle_alpha 90.000000
_cell_angle_beta 90.000000
_cell_angle_gamma 90.000000
_cell_volume 4773.792416
_symmetry_space_group_name_H-M "C M M M"
_symmetry_group_IT_number 65
_symmetry_cell_setting 'orthorhombic'
loop_
_space_group_symop_operation_xyz
x,y,z
-x,-y,z
x,-y,-z
-x,y,-z
-x,-y,-z
x,y,-z
-x,y,z
x,-y,z
1/2+x,1/2+y,z
1/2-x,1/2-y,z
1/2+x,1/2-y,-z
1/2-x,1/2+y,-z
1/2-x,1/2-y,-z
1/2+x,1/2+y,-z
1/2-x,1/2+y,z
1/2+x,1/2-y,z
loop_
_atom_site_type_symbol
_atom_site_label
_atom_site_fract_x
_atom_site_fract_y
_atom_site_fract_z
Si Si1 0.807159 0.182428 0.666226
Si Si2 0.080323 0.263595 0.669731
Si Si3 0.835007 0.660525 0.830272
Si Si4 0.418928 0.500000 0.842607
Si Si5 0.799463 0.553445 0.165026
Si Si6 0.838361 0.072978 0.665205
O O1 0.784007 0.192260 0.500000
O O2 0.864276 0.222025 0.720184
O O3 0.737067 0.182760 0.763402
O O4 0.846477 0.130926 0.681380
O O5 0.087897 0.274049 0.500000
O O6 0.098578 0.313248 0.756048
O O7 0.000000 0.247893 0.707542
O O8 0.845576 0.601991 0.799110
O O9 0.834118 0.671985 0.000000
O O10 0.500000 0.500000 0.871081
O O11 0.401121 0.548859 0.754109
O O12 0.380317 0.500000 0.000000
O O13 0.838878 0.500000 0.183891
O O14 0.734371 0.552674 0.272771
O O15 0.772234 0.558701 0.000000
O O16 0.843102 0.056046 0.500000
#
# Coordination Sequence:
#
# PCOD8268165 Si02
#       6
#    16  16  16   8  16  16
#     4   9  19  35  55  78 104 135 173 217 262 311
#     4  10  21  37  55  74 102 142 180 214 262 320
#     4  10  20  33  53  82 109 135 172 217 262 309
#     4  11  23  35  45  61  95 141 176 205 252 311
#     4   9  17  31  52  75 103 135 163 200 254 312
#     4  10  19  31  50  75  98 123 165 218 258 293
#
# _framework density 18.433980999999999
#
# number of rings (size 3 to 8) (size 9 to 14) (size 15 to 20)
#    0.000    2.273    0.909    1.909    0.000    6.182 
#    0.000    1.818    0.000    0.545    0.000    3.818 
#    0.000    0.000    0.000    0.000    0.000    0.000 
#
# Total GULP energy -545341.201498 kJ/mol
# GULP energy per Si atom -12394.118216 kJ/mol
# Density = 1.839202 g / cm^3
# Si number density = 18.433981 Si / 1000 Ang^3
#
#
#
# Elastic Constant Matrix: (Units=GPa)
#
#
# Indices 1 2 3 4 5 6 
#
# 1 56.8664 37.8110 28.0322 0.0000 0.0000 0.0000
# 2 37.8110 126.3113 38.5642 0.0000 0.0000 0.0000
# 3 28.0322 38.5642 90.4656 0.0000 0.0000 0.0000
# 4 0.0000 0.0000 0.0000 138.5458 0.0000 0.0000
# 5 0.0000 0.0000 0.0000 0.0000 22.2727 0.0000
# 6 0.0000 0.0000 0.0000 0.0000 0.0000 22.6522
#
#
#
# Elastic Compliance Matrix: (Units=1/GPa)
#
#
# Indices 1 2 3 4 5 6 
#
# 1 0.023757 -0.005592 -0.004978 0.000000 0.000000 0.000000
# 2 -0.005592 0.010418 -0.002708 0.000000 0.000000 0.000000
# 3 -0.004978 -0.002708 0.013751 0.000000 0.000000 0.000000
# 4 0.000000 0.000000 0.000000 0.007218 0.000000 0.000000
# 5 0.000000 0.000000 0.000000 0.000000 0.044898 0.000000
# 6 0.000000 0.000000 0.000000 0.000000 0.000000 0.044146
#
#
# Mechanical properties :
#
#
# Convention : Reuss Voigt Hill
#
# Bulk Modulus (GPa) = 46.79478 53.60643 50.20060
# Shear Modulus (GPa) = 28.11107 47.97654 38.04381
#
# Velocity S-wave (km/s) = 3.90931 5.10712 4.54782
# Velocity P-wave (km/s) = 6.76883 7.99501 7.40734
#
# Compressibility (1/GPa) = 0.02136990
#
# Stress axis : x y z
#
# Youngs Moduli (GPa) = 42.09312 95.99069 72.72292
#
# Poissons Ratio (x) = 0.53676 0.36199
# Poissons Ratio (y) = 0.23538 0.19695
# Poissons Ratio (z) = 0.20953 0.25996
#
# Static dielectric constant tensor:
#      x y z
#    x 3.043540 0.000000 0.000000 
#    y 0.000000 3.967080 0.000000 
#    z 0.000000 0.000000 3.585020 
# 
# 
# High freq. dielectric constant tensor:
#      x y z
#    x 1.671790 0.000000 0.000000 
#    y 0.000000 1.733160 0.000000 
#    z 0.000000 0.000000 1.722360 
# 
# From -- ./inp_files/10140.got.cif
#   From: 2010.03.12/outbox.cif.g09.slc.cpg/sg65_6_cif.got.tgz:10140.got - 2010.04.10 20:52:16.
