data_PCOD8268670
_publ_section_title
;
Structure prediction by ZEFSAII (Michael W. Deem and Ramdas Pophale) SiO2 
 PCOD8268670
Probable space group: C M M M
;
_chemical_formula_sum "Si O2"
_cell_formula_units_Z 48
_cell_length_a 38.221742
_cell_length_b 7.581302
_cell_length_c 8.822152
_cell_angle_alpha 90.000000
_cell_angle_beta 90.000000
_cell_angle_gamma 90.000000
_cell_volume 2556.400005
_symmetry_space_group_name_H-M "C M M M"
_symmetry_group_IT_number 65
_symmetry_cell_setting 'orthorhombic'
loop_
_space_group_symop_operation_xyz
x,y,z
-x,-y,z
x,-y,-z
-x,y,-z
-x,-y,-z
x,y,-z
-x,y,z
x,-y,z
1/2+x,1/2+y,z
1/2-x,1/2-y,z
1/2+x,1/2-y,-z
1/2-x,1/2+y,-z
1/2-x,1/2-y,-z
1/2+x,1/2+y,-z
1/2-x,1/2+y,z
1/2+x,1/2-y,z
loop_
_atom_site_type_symbol
_atom_site_label
_atom_site_fract_x
_atom_site_fract_y
_atom_site_fract_z
Si Si1 0.411030 0.000000 0.680736
Si Si2 0.335083 0.000000 0.821524
Si Si3 0.461111 0.696076 0.680139
Si Si4 0.710869 0.704013 0.676508
O O1 0.432106 0.169901 0.742313
O O2 0.407712 0.000000 0.500000
O O3 0.373185 0.000000 0.751356
O O4 0.315596 0.823072 0.770250
O O5 0.337933 0.000000 0.000000
O O6 0.461425 0.702526 0.500000
O O7 0.500000 0.748057 0.738826
O O8 0.451248 0.500000 0.737076
O O9 0.706283 0.749226 0.500000
O O10 0.702558 0.500000 0.710327
O O11 0.750000 0.750000 0.729266
#
# Coordination Sequence:
#
# PCOD8268670 Si02
#       4
#     8   8  16  16
#     4  10  19  32  52  76 106 144 188 228 272 327
#     4  12  26  39  53  81 122 158 188 226 279 339
#     4   8  14  26  48  79 108 133 172 231 288 327
#     4  10  20  39  66  88 107 136 182 236 284 333
#
# _framework density 18.776403999999999
#
# number of rings (size 3 to 8) (size 9 to 14) (size 15 to 20)
#    0.000    2.333    1.667    3.000    0.000    4.667 
#    0.000    3.333    0.000    2.000    0.000    2.333 
#    0.000    0.000    0.000    0.000    0.000    0.000 
#
# Total GULP energy -297564.918995 kJ/mol
# GULP energy per Si atom -12398.538291 kJ/mol
# Density = 1.873367 g / cm^3
# Si number density = 18.776404 Si / 1000 Ang^3
#
#
#
# Elastic Constant Matrix: (Units=GPa)
#
#
# Indices 1 2 3 4 5 6 
#
# 1 170.2471 93.5957 40.4104 0.0000 0.0000 0.0000
# 2 93.5957 143.9484 33.9008 0.0000 0.0000 0.0000
# 3 40.4104 33.9008 42.1727 0.0000 0.0000 0.0000
# 4 0.0000 0.0000 0.0000 13.2158 0.0000 0.0000
# 5 0.0000 0.0000 0.0000 0.0000 -13.7154 0.0000
# 6 0.0000 0.0000 0.0000 0.0000 0.0000 21.7942
#
#
#
# Elastic Compliance Matrix: (Units=1/GPa)
#
#
# Indices 1 2 3 4 5 6 
#
# 1 0.010048 -0.005262 -0.005398 0.000000 0.000000 0.000000
# 2 -0.005262 0.011325 -0.004061 0.000000 0.000000 0.000000
# 3 -0.005398 -0.004061 0.032150 0.000000 0.000000 0.000000
# 4 0.000000 0.000000 0.000000 0.075667 0.000000 0.000000
# 5 0.000000 0.000000 0.000000 0.000000 -0.072911 0.000000
# 6 0.000000 0.000000 0.000000 0.000000 0.000000 0.045884
#
#
# Mechanical properties :
#
#
# Convention : Reuss Voigt Hill
#
# Bulk Modulus (GPa) = 41.52993 76.90908 59.21951
# Shear Modulus (GPa) = 35.80837 16.82300 26.31568
#
# Velocity S-wave (km/s) = 4.37177 2.99651 3.74776
# Velocity P-wave (km/s) = 6.90285 7.28159 7.09475
#
# Compressibility (1/GPa) = 0.02407902
#
# Stress axis : x y z
#
# Youngs Moduli (GPa) = 99.52265 88.30232 31.10462
#
# Poissons Ratio (x) = 0.46464 0.16791
# Poissons Ratio (y) = 0.52368 0.12633
# Poissons Ratio (z) = 0.53725 0.35864
#
# Static dielectric constant tensor:
#      x y z
#    x 3.553500 0.000000 0.000000 
#    y 0.000000 4.481050 0.000000 
#    z 0.000000 0.000000 2.972190 
# 
# 
# High freq. dielectric constant tensor:
#      x y z
#    x 1.733670 0.000000 0.000000 
#    y 0.000000 1.748260 0.000000 
#    z 0.000000 0.000000 1.679020 
# 
# From -- ./inp_files/17530.got.cif
#   From: 2010.03.12/outbox.cif.g09.slc.cpg/sg65_9_cif.got.tgz:17530.got - 2010.04.10 20:52:16.
