data_PCOD8268669
_publ_section_title
;
Structure prediction by ZEFSAII (Michael W. Deem and Ramdas Pophale) SiO2 
 PCOD8268669
Probable space group: C M M M
;
_chemical_formula_sum "Si O2"
_cell_formula_units_Z 72
_cell_length_a 9.013751
_cell_length_b 15.417924
_cell_length_c 24.995838
_cell_angle_alpha 90.000000
_cell_angle_beta 90.000000
_cell_angle_gamma 90.000000
_cell_volume 3473.754790
_symmetry_space_group_name_H-M "C M M M"
_symmetry_group_IT_number 65
_symmetry_cell_setting 'orthorhombic'
loop_
_space_group_symop_operation_xyz
x,y,z
-x,-y,z
x,-y,-z
-x,y,-z
-x,-y,-z
x,y,-z
-x,y,z
x,-y,z
1/2+x,1/2+y,z
1/2-x,1/2-y,z
1/2+x,1/2-y,-z
1/2-x,1/2+y,-z
1/2-x,1/2-y,-z
1/2+x,1/2+y,-z
1/2-x,1/2+y,z
1/2+x,1/2-y,z
loop_
_atom_site_type_symbol
_atom_site_label
_atom_site_fract_x
_atom_site_fract_y
_atom_site_fract_z
Si Si1 0.834063 0.103326 0.338836
Si Si2 0.176179 0.000000 0.939985
Si Si3 0.166896 0.603205 0.558778
Si Si4 0.670929 0.102451 0.766906
Si Si5 0.176417 0.837004 0.128249
O O1 0.770962 0.141866 0.394594
O O2 0.730590 0.135265 0.290304
O O3 0.000000 0.138988 0.330408
O O4 0.834037 0.000000 0.340989
O O5 0.233610 0.084871 0.909104
O O6 0.000000 0.000000 0.941327
O O7 0.241613 0.000000 0.000000
O O8 0.224762 0.633260 0.500000
O O9 0.167899 0.500000 0.561635
O O10 0.000000 0.637026 0.568044
O O11 0.500000 0.130028 0.772859
O O12 0.768394 0.149077 0.811585
O O13 0.691679 0.000000 0.772876
O O14 0.250000 0.750000 0.104732
O O15 0.000000 0.828985 0.128025
#
# Coordination Sequence:
#
# PCOD8268669 Si02
#       5
#    16   8  16  16  16
#     4   9  16  24  37  60  90 127 174 225 282 345
#     4   9  20  40  65  91 123 163 200 237 286 341
#     4   8  13  21  32  48  77 120 169 221 278 338
#     4  10  19  32  52  76 106 143 187 237 290 347
#     4  11  22  38  61  89 121 157 198 242 290 344
#
# _framework density 20.726852000000001
#
# number of rings (size 3 to 8) (size 9 to 14) (size 15 to 20)
#    0.000    2.556    1.111    2.667    0.000    4.444 
#    0.000    2.222    0.000    4.667    0.000    0.000 
#    0.000    0.889    0.000    3.333    0.000    7.778 
#
# Total GULP energy -446362.563279 kJ/mol
# GULP energy per Si atom -12398.960091 kJ/mol
# Density = 2.067968 g / cm^3
# Si number density = 20.726852 Si / 1000 Ang^3
#
#
#
# Elastic Constant Matrix: (Units=GPa)
#
#
# Indices 1 2 3 4 5 6 
#
# 1 108.6667 36.9459 51.5880 0.0000 0.0000 0.0000
# 2 36.9459 75.6763 49.7242 0.0000 0.0000 0.0000
# 3 51.5880 49.7242 159.1941 0.0000 0.0000 0.0000
# 4 0.0000 0.0000 0.0000 0.2813 0.0000 0.0000
# 5 0.0000 0.0000 0.0000 0.0000 24.6400 0.0000
# 6 0.0000 0.0000 0.0000 0.0000 0.0000 21.3730
#
#
#
# Elastic Compliance Matrix: (Units=1/GPa)
#
#
# Indices 1 2 3 4 5 6 
#
# 1 0.011802 -0.004088 -0.002548 0.000000 0.000000 0.000000
# 2 -0.004088 0.018042 -0.004311 0.000000 0.000000 0.000000
# 3 -0.002548 -0.004311 0.008454 0.000000 0.000000 0.000000
# 4 0.000000 0.000000 0.000000 3.555229 0.000000 0.000000
# 5 0.000000 0.000000 0.000000 0.000000 0.040584 0.000000
# 6 0.000000 0.000000 0.000000 0.000000 0.000000 0.046788
#
#
# Mechanical properties :
#
#
# Convention : Reuss Voigt Hill
#
# Bulk Modulus (GPa) = 60.95589 68.89483 64.92536
# Shear Modulus (GPa) = 1.34834 22.94411 12.14623
#
# Velocity S-wave (km/s) = 0.80743 3.33073 2.42340
# Velocity P-wave (km/s) = 5.50838 6.93565 6.26281
#
# Compressibility (1/GPa) = 0.01640531
#
# Stress axis : x y z
#
# Youngs Moduli (GPa) = 84.73345 55.42510 118.29123
#
# Poissons Ratio (x) = 0.22656 0.30136
# Poissons Ratio (y) = 0.34637 0.50994
# Poissons Ratio (z) = 0.21587 0.23893
#
# Static dielectric constant tensor:
#      x y z
#    x 3.721670 0.000000 0.000000 
#    y 0.000000 3.461180 0.000000 
#    z 0.000000 0.000000 3.982990 
# 
# 
# High freq. dielectric constant tensor:
#      x y z
#    x 1.803300 0.000000 0.000000 
#    y 0.000000 1.778320 0.000000 
#    z 0.000000 0.000000 1.816870 
# 
# From -- ./inp_files/72526.got.cif
#   From: 2010.03.12/outbox.cif.g09.slc.cpg/sg65_37_cif.got.tgz:72526.got - 2010.04.10 20:52:16.
