data_PCOD8268581
_publ_section_title
;
Structure prediction by ZEFSAII (Michael W. Deem and Ramdas Pophale) SiO2 
 PCOD8268581
Probable space group: C M M M
;
_chemical_formula_sum "Si O2"
_cell_formula_units_Z 80
_cell_length_a 27.523269
_cell_length_b 8.762996
_cell_length_c 18.633170
_cell_angle_alpha 90.000000
_cell_angle_beta 90.000000
_cell_angle_gamma 90.000000
_cell_volume 4494.065258
_symmetry_space_group_name_H-M "C M M M"
_symmetry_group_IT_number 65
_symmetry_cell_setting 'orthorhombic'
loop_
_space_group_symop_operation_xyz
x,y,z
-x,-y,z
x,-y,-z
-x,y,-z
-x,-y,-z
x,y,-z
-x,y,z
x,-y,z
1/2+x,1/2+y,z
1/2-x,1/2-y,z
1/2+x,1/2-y,-z
1/2-x,1/2+y,-z
1/2-x,1/2-y,-z
1/2+x,1/2+y,-z
1/2-x,1/2+y,z
1/2+x,1/2-y,z
loop_
_atom_site_type_symbol
_atom_site_label
_atom_site_fract_x
_atom_site_fract_y
_atom_site_fract_z
Si Si1 0.552966 0.320690 0.154976
Si Si2 0.148443 0.180604 0.081237
Si Si3 0.555357 0.176623 0.417486
Si Si4 0.611201 0.321866 0.707310
Si Si5 0.198944 0.680185 0.786066
O O1 0.500000 0.244492 0.140135
O O2 0.547656 0.500000 0.146593
O O3 0.593497 0.262261 0.098655
O O4 0.569587 0.278433 0.235363
O O5 0.185959 0.261823 0.134080
O O6 0.152309 0.000000 0.094123
O O7 0.161424 0.226234 0.000000
O O8 0.569303 0.204470 0.500000
O O9 0.500000 0.229500 0.403521
O O10 0.592332 0.276074 0.370851
O O11 0.561234 0.000000 0.397063
O O12 0.623555 0.500000 0.709653
O O13 0.659955 0.231431 0.726824
O O14 0.202571 0.500000 0.787488
O O15 0.250000 0.750000 0.762263
#
# Coordination Sequence:
#
# PCOD8268581 Si02
#       5
#    16  16  16  16  16
#     4   8  14  25  43  69  99 130 164 202 243 286
#     4   9  18  32  49  72 102 132 165 207 253 302
#     4   9  18  32  50  76 112 149 179 207 244 290
#     4  10  19  32  51  76 104 133 170 213 254 300
#     4  11  22  37  56  75  96 125 164 210 261 313
#
# _framework density 17.801254
#
# number of rings (size 3 to 8) (size 9 to 14) (size 15 to 20)
#    0.000    2.600    0.000    4.800    0.000    2.800 
#    0.000    3.000    0.000    6.000    0.000    5.600 
#    0.000    0.000    0.000    0.000    0.000    0.000 
#
# Total GULP energy -495928.082669 kJ/mol
# GULP energy per Si atom -12398.202067 kJ/mol
# Density = 1.776074 g / cm^3
# Si number density = 17.801254 Si / 1000 Ang^3
#
#
#
# Elastic Constant Matrix: (Units=GPa)
#
#
# Indices 1 2 3 4 5 6 
#
# 1 100.1194 35.6482 33.7215 0.0000 0.0000 0.0000
# 2 35.6482 75.4434 36.2177 0.0000 0.0000 0.0000
# 3 33.7215 36.2177 91.0327 0.0000 0.0000 0.0000
# 4 0.0000 0.0000 0.0000 27.2280 0.0000 0.0000
# 5 0.0000 0.0000 0.0000 0.0000 37.0813 0.0000
# 6 0.0000 0.0000 0.0000 0.0000 0.0000 23.3873
#
#
#
# Elastic Compliance Matrix: (Units=1/GPa)
#
#
# Indices 1 2 3 4 5 6 
#
# 1 0.012574 -0.004580 -0.002836 0.000000 0.000000 0.000000
# 2 -0.004580 0.018053 -0.005486 0.000000 0.000000 0.000000
# 3 -0.002836 -0.005486 0.014218 0.000000 0.000000 0.000000
# 4 0.000000 0.000000 0.000000 0.036727 0.000000 0.000000
# 5 0.000000 0.000000 0.000000 0.000000 0.026968 0.000000
# 6 0.000000 0.000000 0.000000 0.000000 0.000000 0.042758
#
#
# Mechanical properties :
#
#
# Convention : Reuss Voigt Hill
#
# Bulk Modulus (GPa) = 52.51617 53.08558 52.80087
# Shear Modulus (GPa) = 27.25578 28.27320 27.76449
#
# Velocity S-wave (km/s) = 3.91719 3.98963 3.95358
# Velocity P-wave (km/s) = 7.07281 7.14905 7.11103
#
# Compressibility (1/GPa) = 0.01904176
#
# Stress axis : x y z
#
# Youngs Moduli (GPa) = 79.52974 55.39364 70.33362
#
# Poissons Ratio (x) = 0.25371 0.19944
# Poissons Ratio (y) = 0.36426 0.38583
# Poissons Ratio (z) = 0.22551 0.30387
#
# Static dielectric constant tensor:
#      x y z
#    x 3.610950 0.000000 0.000000 
#    y 0.000000 3.088140 0.000000 
#    z 0.000000 0.000000 3.201950 
# 
# 
# High freq. dielectric constant tensor:
#      x y z
#    x 1.687370 0.000000 0.000000 
#    y 0.000000 1.672130 0.000000 
#    z 0.000000 0.000000 1.678260 
# 
# From -- ./inp_files/49838.got.cif
#   From: 2010.03.12/outbox.cif.g09.slc.cpg/sg65_25_cif.got.tgz:49838.got - 2010.04.10 20:52:16.
