data_PCOD8268060
_publ_section_title
;
Structure prediction by ZEFSAII (Michael W. Deem and Ramdas Pophale) SiO2 
 PCOD8268060
Probable space group: C M M M
;
_chemical_formula_sum "Si O2"
_cell_formula_units_Z 128
_cell_length_a 17.472526
_cell_length_b 22.111881
_cell_length_c 19.592312
_cell_angle_alpha 90.000000
_cell_angle_beta 90.000000
_cell_angle_gamma 90.000000
_cell_volume 7569.497885
_symmetry_space_group_name_H-M "C M M M"
_symmetry_group_IT_number 65
_symmetry_cell_setting 'orthorhombic'
loop_
_space_group_symop_operation_xyz
x,y,z
-x,-y,z
x,-y,-z
-x,y,-z
-x,-y,-z
x,y,-z
-x,y,z
x,-y,z
1/2+x,1/2+y,z
1/2-x,1/2-y,z
1/2+x,1/2-y,-z
1/2-x,1/2+y,-z
1/2-x,1/2-y,-z
1/2+x,1/2+y,-z
1/2-x,1/2+y,z
1/2+x,1/2-y,z
loop_
_atom_site_type_symbol
_atom_site_label
_atom_site_fract_x
_atom_site_fract_y
_atom_site_fract_z
Si Si1 0.911626 0.253987 0.186667
Si Si2 0.314049 0.873781 0.801765
Si Si3 0.411104 0.068682 0.690205
Si Si4 0.914544 0.155221 0.078329
Si Si5 0.276083 0.570386 0.921105
Si Si6 0.669122 0.280058 0.426355
Si Si7 0.695317 0.692307 0.284716
Si Si8 0.589931 0.158716 0.575526
O O1 0.861022 0.313706 0.181331
O O2 0.898257 0.217637 0.117039
O O3 0.883132 0.210671 0.247495
O O4 0.000000 0.271005 0.199485
O O5 0.366939 0.920331 0.760706
O O6 0.291221 0.904046 0.873381
O O7 0.238280 0.860461 0.756480
O O8 0.500000 0.082876 0.703324
O O9 0.376153 0.112472 0.631619
O O10 0.398879 0.000000 0.666088
O O11 0.855397 0.102927 0.098681
O O12 0.000000 0.130978 0.095202
O O13 0.905735 0.172851 0.000000
O O14 0.288335 0.500000 0.906689
O O15 0.253338 0.582273 0.000000
O O16 0.644314 0.309693 0.500000
O O17 0.750000 0.250000 0.438544
O O18 0.673257 0.327496 0.362911
O O19 0.610133 0.227193 0.404187
O O20 0.750000 0.750000 0.290216
O O21 0.623717 0.143609 0.500000
O O22 0.500000 0.150655 0.574188
#
# Coordination Sequence:
#
# PCOD8268060 Si02
#       8
#    16  16  16  16  16  16  16  16
#     4  10  19  31  49  73  99 128 157 195 246 294
#     4  11  20  33  49  71  98 130 162 203 238 292
#     4  10  20  32  47  67  92 128 171 210 246 285
#     4   9  18  33  52  76 102 124 152 191 242 303
#     4  10  21  36  54  74  97 129 166 203 243 285
#     4   9  16  26  41  62  89 120 154 190 233 288
#     4   9  17  28  44  67  93 123 158 195 235 289
#     4   9  17  29  45  66  92 123 161 204 247 287
#
# _framework density 16.909972
#
# number of rings (size 3 to 8) (size 9 to 14) (size 15 to 20)
#    0.000    2.375    1.250    3.000    0.000    2.500 
#    0.000    3.750    0.000    1.125    0.000    4.375 
#    0.000    0.000    0.000    0.000    0.000    4.000 
#
# Total GULP energy -793259.296449 kJ/mol
# GULP energy per Si atom -12394.676507 kJ/mol
# Density = 1.687148 g / cm^3
# Si number density = 16.909972 Si / 1000 Ang^3
#
#
#
# Elastic Constant Matrix: (Units=GPa)
#
#
# Indices 1 2 3 4 5 6 
#
# 1 64.3093 31.5811 46.8880 0.0000 0.0000 0.0000
# 2 31.5811 54.6461 35.7945 0.0000 0.0000 0.0000
# 3 46.8880 35.7945 109.4576 0.0000 0.0000 0.0000
# 4 0.0000 0.0000 0.0000 23.0941 0.0000 0.0000
# 5 0.0000 0.0000 0.0000 0.0000 24.6450 0.0000
# 6 0.0000 0.0000 0.0000 0.0000 0.0000 19.2445
#
#
#
# Elastic Compliance Matrix: (Units=1/GPa)
#
#
# Indices 1 2 3 4 5 6 
#
# 1 0.026263 -0.009937 -0.008001 0.000000 0.000000 0.000000
# 2 -0.009937 0.027048 -0.004588 0.000000 0.000000 0.000000
# 3 -0.008001 -0.004588 0.014064 0.000000 0.000000 0.000000
# 4 0.000000 0.000000 0.000000 0.043301 0.000000 0.000000
# 5 0.000000 0.000000 0.000000 0.000000 0.040576 0.000000
# 6 0.000000 0.000000 0.000000 0.000000 0.000000 0.051963
#
#
# Mechanical properties :
#
#
# Convention : Reuss Voigt Hill
#
# Bulk Modulus (GPa) = 44.79850 50.77116 47.78483
# Shear Modulus (GPa) = 19.55353 21.00668 20.28011
#
# Velocity S-wave (km/s) = 3.40418 3.52840 3.46685
# Velocity P-wave (km/s) = 6.48082 6.83294 6.65921
#
# Compressibility (1/GPa) = 0.02232218
#
# Stress axis : x y z
#
# Youngs Moduli (GPa) = 38.07617 36.97124 71.10558
#
# Poissons Ratio (x) = 0.36740 0.56888
# Poissons Ratio (y) = 0.37838 0.32625
# Poissons Ratio (z) = 0.30463 0.16964
#
# Static dielectric constant tensor:
#      x y z
#    x 3.269200 0.000000 0.000000 
#    y 0.000000 2.996040 0.000000 
#    z 0.000000 0.000000 3.578530 
# 
# 
# High freq. dielectric constant tensor:
#      x y z
#    x 1.646990 0.000000 0.000000 
#    y 0.000000 1.614320 0.000000 
#    z 0.000000 0.000000 1.668990 
# 
# From -- ./inp_files/64136.got.cif
#   From: 2010.03.12/outbox.cif.g09.slc.cpg/sg65_33_cif.got.tgz:64136.got - 2010.04.10 20:52:16.
