data_PCOD8268714
_publ_section_title
;
Structure prediction by ZEFSAII (Michael W. Deem and Ramdas Pophale) SiO2 
 PCOD8268714
Probable space group: C M M M
;
_chemical_formula_sum "Si O2"
_cell_formula_units_Z 104
_cell_length_a 19.337704
_cell_length_b 14.333663
_cell_length_c 20.387793
_cell_angle_alpha 90.000000
_cell_angle_beta 90.000000
_cell_angle_gamma 90.000000
_cell_volume 5651.091162
_symmetry_space_group_name_H-M "C M M M"
_symmetry_group_IT_number 65
_symmetry_cell_setting 'orthorhombic'
loop_
_space_group_symop_operation_xyz
x,y,z
-x,-y,z
x,-y,-z
-x,y,-z
-x,-y,-z
x,y,-z
-x,y,z
x,-y,z
1/2+x,1/2+y,z
1/2-x,1/2-y,z
1/2+x,1/2-y,-z
1/2-x,1/2+y,-z
1/2-x,1/2-y,-z
1/2+x,1/2+y,-z
1/2-x,1/2+y,z
1/2+x,1/2-y,z
loop_
_atom_site_type_symbol
_atom_site_label
_atom_site_fract_x
_atom_site_fract_y
_atom_site_fract_z
Si Si1 0.920456 0.895805 0.600744
Si Si2 0.689260 0.108077 0.304896
Si Si3 0.656403 0.398031 0.728983
Si Si4 0.671152 0.231807 0.183419
Si Si5 0.328865 0.775919 0.428850
Si Si6 0.919802 0.795866 0.077240
Si Si7 0.918351 0.000000 0.071355
O O1 0.906367 0.895852 0.678277
O O2 0.874004 0.817926 0.566836
O O3 0.000000 0.870971 0.587754
O O4 0.903298 0.000000 0.572932
O O5 0.771777 0.126106 0.309072
O O6 0.662751 0.146439 0.234456
O O7 0.651481 0.159033 0.366436
O O8 0.669656 0.000000 0.308999
O O9 0.662910 0.500000 0.762302
O O10 0.639438 0.323353 0.783445
O O11 0.750000 0.250000 0.162960
O O12 0.625632 0.219364 0.117363
O O13 0.339904 0.826746 0.500000
O O14 0.250000 0.750000 0.420563
O O15 0.000000 0.775544 0.091194
O O16 0.898095 0.900427 0.104008
O O17 0.903948 0.785786 0.000000
O O18 0.000000 0.000000 0.062384
O O19 0.883154 0.000000 0.000000
#
# Coordination Sequence:
#
# PCOD8268714 Si02
#       7
#    16  16  16  16  16  16   8
#     4  10  20  35  55  81 115 147 173 214 277 341
#     4  10  19  36  56  75 105 140 181 235 281 312
#     4   9  17  31  52  78 110 141 174 217 268 325
#     4  10  19  32  52  78 106 141 181 221 268 318
#     4  11  21  35  56  82 110 144 189 229 266 324
#     4   9  18  32  51  77 110 142 171 210 262 321
#     4   7  12  26  46  72 108 142 164 188 240 318
#
# _framework density 18.403525999999999
#
# number of rings (size 3 to 8) (size 9 to 14) (size 15 to 20)
#    0.000    2.385    3.077    1.385    1.077    1.846 
#    0.000    2.308    0.000    2.308    0.000    2.154 
#    0.000    0.000    0.000    0.000    0.000    0.000 
#
# Total GULP energy -644193.491554 kJ/mol
# GULP energy per Si atom -12388.336376 kJ/mol
# Density = 1.836164 g / cm^3
# Si number density = 18.403526 Si / 1000 Ang^3
#
#
#
# Elastic Constant Matrix: (Units=GPa)
#
#
# Indices 1 2 3 4 5 6 
#
# 1 67.5401 42.2590 44.1065 0.0000 0.0000 0.0000
# 2 42.2590 90.1033 49.5456 0.0000 0.0000 0.0000
# 3 44.1065 49.5456 103.9066 0.0000 0.0000 0.0000
# 4 0.0000 0.0000 0.0000 14.3509 0.0000 0.0000
# 5 0.0000 0.0000 0.0000 0.0000 103.7261 0.0000
# 6 0.0000 0.0000 0.0000 0.0000 0.0000 25.3289
#
#
#
# Elastic Compliance Matrix: (Units=1/GPa)
#
#
# Indices 1 2 3 4 5 6 
#
# 1 0.023787 -0.007596 -0.006475 0.000000 0.000000 0.000000
# 2 -0.007596 0.017468 -0.005105 0.000000 0.000000 0.000000
# 3 -0.006475 -0.005105 0.014807 0.000000 0.000000 0.000000
# 4 0.000000 0.000000 0.000000 0.069682 0.000000 0.000000
# 5 0.000000 0.000000 0.000000 0.000000 0.009641 0.000000
# 6 0.000000 0.000000 0.000000 0.000000 0.000000 0.039481
#
#
# Mechanical properties :
#
#
# Convention : Reuss Voigt Hill
#
# Bulk Modulus (GPa) = 56.46548 59.26357 57.86453
# Shear Modulus (GPa) = 22.81843 37.05710 29.93776
#
# Velocity S-wave (km/s) = 3.52503 4.49217 4.03766
# Velocity P-wave (km/s) = 6.87868 7.69274 7.29708
#
# Compressibility (1/GPa) = 0.01770994
#
# Stress axis : x y z
#
# Youngs Moduli (GPa) = 42.03923 57.24788 67.53600
#
# Poissons Ratio (x) = 0.43484 0.43732
# Poissons Ratio (y) = 0.31932 0.34477
# Poissons Ratio (z) = 0.27222 0.29225
#
# Static dielectric constant tensor:
#      x y z
#    x 3.086430 0.000000 0.000000 
#    y 0.000000 3.416790 0.000000 
#    z 0.000000 0.000000 3.359810 
# 
# 
# High freq. dielectric constant tensor:
#      x y z
#    x 1.681590 0.000000 0.000000 
#    y 0.000000 1.698160 0.000000 
#    z 0.000000 0.000000 1.715470 
# 
# From -- ./inp_files/63790.got.cif
#   From: 2010.03.12/outbox.cif.g09.slc.cpg/sg65_32_cif.got.tgz:63790.got - 2010.04.10 20:52:16.
