data_PCOD8268762
_publ_section_title
;
Structure prediction by ZEFSAII (Michael W. Deem and Ramdas Pophale) SiO2 
 PCOD8268762
Probable space group: C M M M
;
_chemical_formula_sum "Si O2"
_cell_formula_units_Z 88
_cell_length_a 17.099594
_cell_length_b 16.549574
_cell_length_c 16.964610
_cell_angle_alpha 90.000000
_cell_angle_beta 90.000000
_cell_angle_gamma 90.000000
_cell_volume 4800.831885
_symmetry_space_group_name_H-M "C M M M"
_symmetry_group_IT_number 65
_symmetry_cell_setting 'orthorhombic'
loop_
_space_group_symop_operation_xyz
x,y,z
-x,-y,z
x,-y,-z
-x,y,-z
-x,-y,-z
x,y,-z
-x,y,z
x,-y,z
1/2+x,1/2+y,z
1/2-x,1/2-y,z
1/2+x,1/2-y,-z
1/2-x,1/2+y,-z
1/2-x,1/2-y,-z
1/2+x,1/2+y,-z
1/2-x,1/2+y,z
1/2+x,1/2-y,z
loop_
_atom_site_type_symbol
_atom_site_label
_atom_site_fract_x
_atom_site_fract_y
_atom_site_fract_z
Si Si1 0.411176 0.329825 0.000000
Si Si2 0.909213 0.263906 0.739399
Si Si3 0.085204 0.000000 0.593282
Si Si4 0.804113 0.175001 0.140927
Si Si5 0.592729 0.325812 0.587116
Si Si6 0.345831 0.909178 0.167950
Si Si7 0.912863 0.638136 0.000000
O O1 0.361731 0.359982 0.074640
O O2 0.500000 0.365251 0.000000
O O3 0.415129 0.233877 0.000000
O O4 0.858452 0.201096 0.787839
O O5 0.886670 0.246563 0.648017
O O6 0.889763 0.354612 0.767022
O O7 0.000000 0.246836 0.755859
O O8 0.127709 0.085873 0.615461
O O9 0.075500 0.000000 0.500000
O O10 0.000000 0.000000 0.634514
O O11 0.750000 0.250000 0.110431
O O12 0.747405 0.104346 0.171527
O O13 0.625136 0.301920 0.500000
O O14 0.500000 0.337150 0.582259
O O15 0.370656 0.892073 0.078301
O O16 0.366303 0.000000 0.191694
O O17 0.000000 0.602301 0.000000
#
# Coordination Sequence:
#
# PCOD8268762 Si02
#       7
#     8  16   8  16  16  16   8
#     4  11  18  30  55  79  99 128 167 218 270 318
#     4  10  19  32  53  79 106 134 171 219 266 311
#     4   7  10  20  40  68 102 131 155 195 251 305
#     4  10  19  33  51  70 101 138 176 205 251 316
#     4   8  14  26  47  76 107 136 168 211 264 316
#     4  11  23  36  52  74 105 143 179 218 263 309
#     4  11  20  32  54  82 103 125 168 229 278 309
#
# _framework density 18.330155999999999
#
# number of rings (size 3 to 8) (size 9 to 14) (size 15 to 20)
#    0.000    2.273    3.636    3.273    0.000    1.818 
#    1.636    0.000    0.000    7.636    0.000    2.545 
#    0.000    0.000    0.000    0.000    0.000    0.000 
#
# Total GULP energy -545123.577508 kJ/mol
# GULP energy per Si atom -12389.172216 kJ/mol
# Density = 1.828844 g / cm^3
# Si number density = 18.330156 Si / 1000 Ang^3
#
#
#
# Elastic Constant Matrix: (Units=GPa)
#
#
# Indices 1 2 3 4 5 6 
#
# 1 94.4808 17.5377 38.4613 0.0000 0.0000 0.0000
# 2 17.5377 94.6119 58.1730 0.0000 0.0000 0.0000
# 3 38.4613 58.1730 119.7790 0.0000 0.0000 0.0000
# 4 0.0000 0.0000 0.0000 71.8696 0.0000 0.0000
# 5 0.0000 0.0000 0.0000 0.0000 -5.1224 0.0000
# 6 0.0000 0.0000 0.0000 0.0000 0.0000 14.2538
#
#
#
# Elastic Compliance Matrix: (Units=1/GPa)
#
#
# Indices 1 2 3 4 5 6 
#
# 1 0.012179 0.000210 -0.004012 0.000000 0.000000 0.000000
# 2 0.000210 0.015073 -0.007388 0.000000 0.000000 0.000000
# 3 -0.004012 -0.007388 0.013225 0.000000 0.000000 0.000000
# 4 0.000000 0.000000 0.000000 0.013914 0.000000 0.000000
# 5 0.000000 0.000000 0.000000 0.000000 -0.195222 0.000000
# 6 0.000000 0.000000 0.000000 0.000000 0.000000 0.070157
#
#
# Mechanical properties :
#
#
# Convention : Reuss Voigt Hill
#
# Bulk Modulus (GPa) = 55.26211 59.69064 57.47637
# Shear Modulus (GPa) = -118.31261 29.18019 -44.56621
#
# Velocity S-wave (km/s) = -8.04273 3.99422 -4.93618
# Velocity P-wave (km/s) = 7.48556 7.34211 1.03127
#
# Compressibility (1/GPa) = 0.01809558
#
# Stress axis : x y z
#
# Youngs Moduli (GPa) = 82.11111 66.34318 75.61359
#
# Poissons Ratio (x) = -0.01390 0.30339
# Poissons Ratio (y) = -0.01721 0.55862
# Poissons Ratio (z) = 0.32946 0.49013
#
# Static dielectric constant tensor:
#      x y z
#    x 3.464670 0.000000 0.000000 
#    y 0.000000 3.342320 0.000000 
#    z 0.000000 0.000000 3.508710 
# 
# 
# High freq. dielectric constant tensor:
#      x y z
#    x 1.695960 0.000000 0.000000 
#    y 0.000000 1.686910 0.000000 
#    z 0.000000 0.000000 1.697050 
# 
# From -- ./inp_files/54358.got.cif
#   From: 2010.03.12/outbox.cif.g09.slc.cpg/sg65_28_cif.got.tgz:54358.got - 2010.04.10 20:52:16.
