data_PCOD8268524
_publ_section_title
;
Structure prediction by ZEFSAII (Michael W. Deem and Ramdas Pophale) SiO2 
 PCOD8268524
Probable space group: C M M M
;
_chemical_formula_sum "Si O2"
_cell_formula_units_Z 80
_cell_length_a 27.758803
_cell_length_b 8.703100
_cell_length_c 18.752105
_cell_angle_alpha 90.000000
_cell_angle_beta 90.000000
_cell_angle_gamma 90.000000
_cell_volume 4530.276762
_symmetry_space_group_name_H-M "C M M M"
_symmetry_group_IT_number 65
_symmetry_cell_setting 'orthorhombic'
loop_
_space_group_symop_operation_xyz
x,y,z
-x,-y,z
x,-y,-z
-x,y,-z
-x,-y,-z
x,y,-z
-x,y,z
x,-y,z
1/2+x,1/2+y,z
1/2-x,1/2-y,z
1/2+x,1/2-y,-z
1/2-x,1/2+y,-z
1/2-x,1/2-y,-z
1/2+x,1/2+y,-z
1/2-x,1/2+y,z
1/2+x,1/2-y,z
loop_
_atom_site_type_symbol
_atom_site_label
_atom_site_fract_x
_atom_site_fract_y
_atom_site_fract_z
Si Si1 0.699211 0.818983 0.337047
Si Si2 0.384832 0.321191 0.419176
Si Si3 0.699143 0.819617 0.081656
Si Si4 0.855033 0.182345 0.206399
Si Si5 0.447143 0.318813 0.288512
O O1 0.750000 0.750000 0.360637
O O2 0.661949 0.777567 0.399610
O O3 0.683833 0.745388 0.262031
O O4 0.702940 0.000000 0.327598
O O5 0.400555 0.285953 0.500000
O O6 0.371861 0.500000 0.407797
O O7 0.428799 0.273026 0.367558
O O8 0.750000 0.750000 0.106356
O O9 0.656180 0.748469 0.128384
O O10 0.701460 0.000000 0.093482
O O11 0.688111 0.775619 0.000000
O O12 0.908594 0.238947 0.229582
O O13 0.851746 0.000000 0.205544
O O14 0.500000 0.243625 0.275500
O O15 0.451785 0.500000 0.282803
#
# Coordination Sequence:
#
# PCOD8268524 Si02
#       5
#    16  16  16  16  16
#     4  11  21  33  49  68  94 128 165 201 239 286
#     4   9  18  32  49  71  98 125 157 199 245 292
#     4  10  20  33  50  74 104 135 165 196 233 280
#     4  10  19  32  51  74 100 128 161 201 241 283
#     4   8  15  29  50  75  98 122 157 201 246 287
#
# _framework density 17.658964999999998
#
# number of rings (size 3 to 8) (size 9 to 14) (size 15 to 20)
#    0.000    2.400    0.000    4.800    0.000    2.400 
#    0.000    2.000    0.000   15.600    0.000    9.800 
#    0.000    0.000    0.000    0.000    0.000    0.000 
#
# Total GULP energy -495973.736211 kJ/mol
# GULP energy per Si atom -12399.343405 kJ/mol
# Density = 1.761877 g / cm^3
# Si number density = 17.658965 Si / 1000 Ang^3
#
#
#
# Elastic Constant Matrix: (Units=GPa)
#
#
# Indices 1 2 3 4 5 6 
#
# 1 140.9731 33.9128 67.0597 0.0000 0.0000 0.0000
# 2 33.9128 70.6433 35.5153 0.0000 0.0000 0.0000
# 3 67.0597 35.5153 118.3131 0.0000 0.0000 0.0000
# 4 0.0000 0.0000 0.0000 28.1911 0.0000 0.0000
# 5 0.0000 0.0000 0.0000 0.0000 19.5241 0.0000
# 6 0.0000 0.0000 0.0000 0.0000 0.0000 18.3425
#
#
#
# Elastic Compliance Matrix: (Units=1/GPa)
#
#
# Indices 1 2 3 4 5 6 
#
# 1 0.010020 -0.002302 -0.004988 0.000000 0.000000 0.000000
# 2 -0.002302 0.017201 -0.003858 0.000000 0.000000 0.000000
# 3 -0.004988 -0.003858 0.012438 0.000000 0.000000 0.000000
# 4 0.000000 0.000000 0.000000 0.035472 0.000000 0.000000
# 5 0.000000 0.000000 0.000000 0.000000 0.051219 0.000000
# 6 0.000000 0.000000 0.000000 0.000000 0.000000 0.054518
#
#
# Mechanical properties :
#
#
# Convention : Reuss Voigt Hill
#
# Bulk Modulus (GPa) = 57.60197 66.98948 62.29572
# Shear Modulus (GPa) = 23.92885 26.10767 25.01826
#
# Velocity S-wave (km/s) = 3.68510 3.84922 3.76805
# Velocity P-wave (km/s) = 7.12717 7.60084 7.36781
#
# Compressibility (1/GPa) = 0.01736052
#
# Stress axis : x y z
#
# Youngs Moduli (GPa) = 99.79672 58.13734 80.40059
#
# Poissons Ratio (x) = 0.13386 0.40107
# Poissons Ratio (y) = 0.22978 0.31021
# Poissons Ratio (z) = 0.49782 0.22431
#
# Static dielectric constant tensor:
#      x y z
#    x 3.494830 0.000000 0.000000 
#    y 0.000000 3.162310 0.000000 
#    z 0.000000 0.000000 3.298900 
# 
# 
# High freq. dielectric constant tensor:
#      x y z
#    x 1.674270 0.000000 0.000000 
#    y 0.000000 1.673630 0.000000 
#    z 0.000000 0.000000 1.676980 
# 
# From -- ./inp_files/49846.got.cif
#   From: 2010.03.12/outbox.cif.g09.slc.cpg/sg65_25_cif.got.tgz:49846.got - 2010.04.10 20:52:16.
