data_PCOD8268036
_publ_section_title
;
Structure prediction by ZEFSAII (Michael W. Deem and Ramdas Pophale) SiO2 
 PCOD8268036
Probable space group: C M M M
;
_chemical_formula_sum "Si O2"
_cell_formula_units_Z 104
_cell_length_a 23.057891
_cell_length_b 27.703292
_cell_length_c 9.362291
_cell_angle_alpha 90.000000
_cell_angle_beta 90.000000
_cell_angle_gamma 90.000000
_cell_volume 5980.439445
_symmetry_space_group_name_H-M "C M M M"
_symmetry_group_IT_number 65
_symmetry_cell_setting 'orthorhombic'
loop_
_space_group_symop_operation_xyz
x,y,z
-x,-y,z
x,-y,-z
-x,y,-z
-x,-y,-z
x,y,-z
-x,y,z
x,-y,z
1/2+x,1/2+y,z
1/2-x,1/2-y,z
1/2+x,1/2-y,-z
1/2-x,1/2+y,-z
1/2-x,1/2-y,-z
1/2+x,1/2+y,-z
1/2-x,1/2+y,z
1/2+x,1/2-y,z
loop_
_atom_site_type_symbol
_atom_site_label
_atom_site_fract_x
_atom_site_fract_y
_atom_site_fract_z
Si Si1 0.433694 0.741107 0.335343
Si Si2 0.748905 0.693136 0.332191
Si Si3 0.069232 0.500000 0.339388
Si Si4 0.639158 0.183149 0.833229
Si Si5 0.369684 0.353845 0.334813
Si Si6 0.933313 0.589108 0.162819
Si Si7 0.434438 0.446227 0.329956
O O1 0.421292 0.755355 0.500000
O O2 0.500000 0.751653 0.293103
O O3 0.390381 0.770195 0.235261
O O4 0.421146 0.684614 0.311432
O O5 0.757688 0.683684 0.500000
O O6 0.750000 0.750000 0.299654
O O7 0.800821 0.669782 0.242903
O O8 0.690412 0.667649 0.271803
O O9 0.092584 0.500000 0.500000
O O10 0.093795 0.452647 0.261275
O O11 0.000000 0.500000 0.330852
O O12 0.597716 0.138618 0.803233
O O13 0.649334 0.192949 0.000000
O O14 0.357874 0.362637 0.500000
O O15 0.391079 0.404951 0.266163
O O16 0.000000 0.597871 0.200713
O O17 0.925106 0.572587 0.000000
O O18 0.435113 0.442376 0.500000
O O19 0.500000 0.437511 0.273334
O O20 0.413211 0.500000 0.283094
#
# Coordination Sequence:
#
# PCOD8268036 Si02
#       7
#    16  16   8  16  16  16  16
#     4  10  19  31  49  73 101 132 165 201 246 302
#     4  10  19  34  52  68  93 131 173 211 250 297
#     4   9  17  29  49  77 101 121 153 199 242 285
#     4  11  22  34  50  72 100 132 169 210 249 297
#     4   9  16  28  46  67  94 132 169 202 244 300
#     4   9  18  33  51  70  96 131 163 194 244 305
#     4   8  13  22  40  69 101 128 157 198 249 303
#
# _framework density 17.390025999999999
#
# number of rings (size 3 to 8) (size 9 to 14) (size 15 to 20)
#    0.000    2.538    1.538    2.077    0.000    5.231 
#    0.000    1.538    1.692    0.000    0.000    0.000 
#    0.000    1.846    0.000    8.462    0.000    7.692 
#
# Total GULP energy -644580.965298 kJ/mol
# GULP energy per Si atom -12395.787794 kJ/mol
# Density = 1.735045 g / cm^3
# Si number density = 17.390026 Si / 1000 Ang^3
#
#
#
# Elastic Constant Matrix: (Units=GPa)
#
#
# Indices 1 2 3 4 5 6 
#
# 1 99.2450 54.4278 29.7350 0.0000 0.0000 0.0000
# 2 54.4278 118.8338 35.3087 0.0000 0.0000 0.0000
# 3 29.7350 35.3087 49.8820 0.0000 0.0000 0.0000
# 4 0.0000 0.0000 0.0000 17.1535 0.0000 0.0000
# 5 0.0000 0.0000 0.0000 0.0000 18.5159 0.0000
# 6 0.0000 0.0000 0.0000 0.0000 0.0000 17.3638
#
#
#
# Elastic Compliance Matrix: (Units=1/GPa)
#
#
# Indices 1 2 3 4 5 6 
#
# 1 0.014358 -0.005107 -0.004944 0.000000 0.000000 0.000000
# 2 -0.005107 0.012473 -0.005784 0.000000 0.000000 0.000000
# 3 -0.004944 -0.005784 0.027089 0.000000 0.000000 0.000000
# 4 0.000000 0.000000 0.000000 0.058297 0.000000 0.000000
# 5 0.000000 0.000000 0.000000 0.000000 0.054008 0.000000
# 6 0.000000 0.000000 0.000000 0.000000 0.000000 0.057591
#
#
# Mechanical properties :
#
#
# Convention : Reuss Voigt Hill
#
# Bulk Modulus (GPa) = 44.94608 56.32261 50.63435
# Shear Modulus (GPa) = 19.01836 20.50592 19.76214
#
# Velocity S-wave (km/s) = 3.31060 3.43764 3.37472
# Velocity P-wave (km/s) = 6.36518 6.94368 6.66071
#
# Compressibility (1/GPa) = 0.02224888
#
# Stress axis : x y z
#
# Youngs Moduli (GPa) = 69.64616 80.17262 36.91557
#
# Poissons Ratio (x) = 0.40947 0.18250
# Poissons Ratio (y) = 0.35571 0.21354
# Poissons Ratio (z) = 0.34432 0.46375
#
# Static dielectric constant tensor:
#      x y z
#    x 3.304310 0.000000 0.000000 
#    y 0.000000 3.419350 0.000000 
#    z 0.000000 0.000000 2.954860 
# 
# 
# High freq. dielectric constant tensor:
#      x y z
#    x 1.661730 0.000000 0.000000 
#    y 0.000000 1.675190 0.000000 
#    z 0.000000 0.000000 1.636160 
# 
# From -- ./inp_files/14724.got.cif
#   From: 2010.03.12/outbox.cif.g09.slc.cpg/sg65_8_cif.got.tgz:14724.got - 2010.04.10 20:52:16.
