data_PCOD8268181
_publ_section_title
;
Structure prediction by ZEFSAII (Michael W. Deem and Ramdas Pophale) SiO2 
 PCOD8268181
Probable space group: C M M M
;
_chemical_formula_sum "Si O2"
_cell_formula_units_Z 112
_cell_length_a 17.340927
_cell_length_b 24.785796
_cell_length_c 13.913438
_cell_angle_alpha 90.000000
_cell_angle_beta 90.000000
_cell_angle_gamma 90.000000
_cell_volume 5980.116408
_symmetry_space_group_name_H-M "C M M M"
_symmetry_group_IT_number 65
_symmetry_cell_setting 'orthorhombic'
loop_
_space_group_symop_operation_xyz
x,y,z
-x,-y,z
x,-y,-z
-x,y,-z
-x,-y,-z
x,y,-z
-x,y,z
x,-y,z
1/2+x,1/2+y,z
1/2-x,1/2-y,z
1/2+x,1/2-y,-z
1/2-x,1/2+y,-z
1/2-x,1/2-y,-z
1/2+x,1/2+y,-z
1/2-x,1/2+y,z
1/2+x,1/2-y,z
loop_
_atom_site_type_symbol
_atom_site_label
_atom_site_fract_x
_atom_site_fract_y
_atom_site_fract_z
Si Si1 0.296643 0.560166 0.238662
Si Si2 0.656867 0.061983 0.109567
Si Si3 0.088648 0.350747 0.762222
Si Si4 0.090445 0.254651 0.106808
Si Si5 0.089415 0.840278 0.240515
Si Si6 0.812046 0.791211 0.605362
Si Si7 0.702287 0.111378 0.606279
O O1 0.332891 0.500000 0.237572
O O2 0.244852 0.570687 0.144493
O O3 0.364873 0.603613 0.239107
O O4 0.238292 0.563232 0.329989
O O5 0.596893 0.096751 0.171082
O O6 0.631923 0.000000 0.121338
O O7 0.652274 0.081206 0.000000
O O8 0.124939 0.299629 0.820300
O O9 0.132569 0.358822 0.661433
O O10 0.000000 0.341162 0.735857
O O11 0.105984 0.193780 0.143835
O O12 0.000000 0.265901 0.100795
O O13 0.127222 0.260118 0.000000
O O14 0.114141 0.800110 0.327013
O O15 0.000000 0.854583 0.253029
O O16 0.838971 0.769534 0.500000
O O17 0.750000 0.750000 0.651661
O O18 0.772339 0.848307 0.592510
O O19 0.674877 0.091205 0.500000
#
# Coordination Sequence:
#
# PCOD8268181 Si02
#       7
#    16  16  16  16  16  16  16
#     4   9  19  35  53  73  99 133 174 217 264 325
#     4   9  18  33  52  73  99 133 174 220 265 309
#     4  10  19  31  50  76 106 139 176 217 261 311
#     4   9  18  32  48  69 102 139 168 200 251 313
#     4  10  20  33  52  78 105 133 170 220 272 316
#     4   9  17  31  51  72  98 133 169 207 253 307
#     4   9  18  32  50  72  99 133 172 212 255 308
#
# _framework density 18.728732000000001
#
# number of rings (size 3 to 8) (size 9 to 14) (size 15 to 20)
#    0.000    2.714    0.000    1.286    0.000    2.857 
#    0.000    0.714    0.000   14.143    0.000   12.000 
#    0.000    0.000    0.000    0.000    0.000    0.000 
#
# Total GULP energy -694062.576556 kJ/mol
# GULP energy per Si atom -12393.974581 kJ/mol
# Density = 1.868610 g / cm^3
# Si number density = 18.728732 Si / 1000 Ang^3
#
#
#
# Elastic Constant Matrix: (Units=GPa)
#
#
# Indices 1 2 3 4 5 6 
#
# 1 63.7626 26.0976 30.9301 0.0000 0.0000 0.0000
# 2 26.0976 81.1872 21.8225 0.0000 0.0000 0.0000
# 3 30.9301 21.8225 113.9846 0.0000 0.0000 0.0000
# 4 0.0000 0.0000 0.0000 20.8287 0.0000 0.0000
# 5 0.0000 0.0000 0.0000 0.0000 19.6629 0.0000
# 6 0.0000 0.0000 0.0000 0.0000 0.0000 27.8776
#
#
#
# Elastic Compliance Matrix: (Units=1/GPa)
#
#
# Indices 1 2 3 4 5 6 
#
# 1 0.019967 -0.005231 -0.004417 0.000000 0.000000 0.000000
# 2 -0.005231 0.014356 -0.001329 0.000000 0.000000 0.000000
# 3 -0.004417 -0.001329 0.010226 0.000000 0.000000 0.000000
# 4 0.000000 0.000000 0.000000 0.048011 0.000000 0.000000
# 5 0.000000 0.000000 0.000000 0.000000 0.050857 0.000000
# 6 0.000000 0.000000 0.000000 0.000000 0.000000 0.035871
#
#
# Mechanical properties :
#
#
# Convention : Reuss Voigt Hill
#
# Bulk Modulus (GPa) = 44.25694 46.29277 45.27485
# Shear Modulus (GPa) = 23.94949 25.67944 24.81447
#
# Velocity S-wave (km/s) = 3.57985 3.70689 3.64392
# Velocity P-wave (km/s) = 6.38505 6.56449 6.47539
#
# Compressibility (1/GPa) = 0.02259532
#
# Stress axis : x y z
#
# Youngs Moduli (GPa) = 50.08365 69.65736 97.79006
#
# Poissons Ratio (x) = 0.36439 0.43189
# Poissons Ratio (y) = 0.26199 0.12996
# Poissons Ratio (z) = 0.22119 0.09257
#
# Static dielectric constant tensor:
#      x y z
#    x 3.109390 0.000000 0.000000 
#    y 0.000000 3.387800 0.000000 
#    z 0.000000 0.000000 3.895510 
# 
# 
# High freq. dielectric constant tensor:
#      x y z
#    x 1.697350 0.000000 0.000000 
#    y 0.000000 1.726530 0.000000 
#    z 0.000000 0.000000 1.733590 
# 
# From -- ./inp_files/41114.got.cif
#   From: 2010.03.12/outbox.cif.g09.slc.cpg/sg65_21_cif.got.tgz:41114.got - 2010.04.10 20:52:16.
