data_PCOD8268874
_publ_section_title
;
Structure prediction by ZEFSAII (Michael W. Deem and Ramdas Pophale) SiO2 
 PCOD8268874
Probable space group: C M M M
;
_chemical_formula_sum "Si O2"
_cell_formula_units_Z 104
_cell_length_a 8.020004
_cell_length_b 29.136035
_cell_length_c 24.952937
_cell_angle_alpha 90.000000
_cell_angle_beta 90.000000
_cell_angle_gamma 90.000000
_cell_volume 5830.780667
_symmetry_space_group_name_H-M "C M M M"
_symmetry_group_IT_number 65
_symmetry_cell_setting 'orthorhombic'
loop_
_space_group_symop_operation_xyz
x,y,z
-x,-y,z
x,-y,-z
-x,y,-z
-x,-y,-z
x,y,-z
-x,y,z
x,-y,z
1/2+x,1/2+y,z
1/2-x,1/2-y,z
1/2+x,1/2-y,-z
1/2-x,1/2+y,-z
1/2-x,1/2-y,-z
1/2+x,1/2+y,-z
1/2-x,1/2+y,z
1/2+x,1/2-y,z
loop_
_atom_site_type_symbol
_atom_site_label
_atom_site_fract_x
_atom_site_fract_y
_atom_site_fract_z
Si Si1 0.805848 0.949270 0.156007
Si Si2 0.696317 0.201163 0.104375
Si Si3 0.194864 0.604233 0.258565
Si Si4 0.000000 0.054279 0.559684
Si Si5 0.691623 0.946171 0.632195
Si Si6 0.304352 0.798387 0.774901
Si Si7 0.194271 0.108572 0.941485
O O1 0.783675 0.923039 0.211508
O O2 0.722071 0.921578 0.106197
O O3 0.000000 0.953971 0.144993
O O4 0.724096 0.000000 0.159404
O O5 0.500000 0.194662 0.103234
O O6 0.750000 0.250000 0.079645
O O7 0.769059 0.197684 0.164990
O O8 0.778918 0.162225 0.068656
O O9 0.240660 0.581492 0.314801
O O10 0.257613 0.657388 0.259085
O O11 0.000000 0.601407 0.247013
O O12 0.172174 0.070085 0.588393
O O13 0.000000 0.075698 0.500000
O O14 0.000000 0.000000 0.556375
O O15 0.500000 0.935277 0.613619
O O16 0.709740 0.000000 0.644655
O O17 0.500000 0.798813 0.777992
O O18 0.250000 0.750000 0.747857
O O19 0.000000 0.098298 0.942786
O O20 0.271162 0.095816 0.000000
#
# Coordination Sequence:
#
# PCOD8268874 Si02
#       7
#    16  16  16   8  16  16  16
#     4  10  21  34  50  72  93 121 162 203 249 302
#     4  10  19  33  52  72  93 118 152 193 242 300
#     4  10  19  33  51  73 102 134 163 203 252 302
#     4   9  18  32  50  74 108 148 187 223 255 295
#     4   9  18  31  48  74 108 145 181 218 259 301
#     4   9  18  31  48  71  98 127 157 193 245 304
#     4  10  21  36  51  68  92 121 157 201 249 302
#
# _framework density 17.836376999999999
#
# number of rings (size 3 to 8) (size 9 to 14) (size 15 to 20)
#    0.000    2.385    1.538    0.923    1.077    3.385 
#    0.000    3.077    0.000    0.000    0.000    2.154 
#    0.000    0.615    0.308    0.000    0.000    0.000 
#
# Total GULP energy -644527.283550 kJ/mol
# GULP energy per Si atom -12394.755453 kJ/mol
# Density = 1.779578 g / cm^3
# Si number density = 17.836377 Si / 1000 Ang^3
#
#
#
# Elastic Constant Matrix: (Units=GPa)
#
#
# Indices 1 2 3 4 5 6 
#
# 1 46.0244 20.5984 42.9269 0.0000 0.0000 0.0000
# 2 20.5984 121.5737 60.1703 0.0000 0.0000 0.0000
# 3 42.9269 60.1703 123.1807 0.0000 0.0000 0.0000
# 4 0.0000 0.0000 0.0000 13.8395 0.0000 0.0000
# 5 0.0000 0.0000 0.0000 0.0000 14.1215 0.0000
# 6 0.0000 0.0000 0.0000 0.0000 0.0000 17.6361
#
#
#
# Elastic Compliance Matrix: (Units=1/GPa)
#
#
# Indices 1 2 3 4 5 6 
#
# 1 0.032192 0.000129 -0.011282 0.000000 0.000000 0.000000
# 2 0.000129 0.010849 -0.005344 0.000000 0.000000 0.000000
# 3 -0.011282 -0.005344 0.014660 0.000000 0.000000 0.000000
# 4 0.000000 0.000000 0.000000 0.072257 0.000000 0.000000
# 5 0.000000 0.000000 0.000000 0.000000 0.070814 0.000000
# 6 0.000000 0.000000 0.000000 0.000000 0.000000 0.056702
#
#
# Mechanical properties :
#
#
# Convention : Reuss Voigt Hill
#
# Bulk Modulus (GPa) = 40.47341 59.79667 50.13504
# Shear Modulus (GPa) = 16.73904 20.25832 18.49868
#
# Velocity S-wave (km/s) = 3.06678 3.37380 3.22395
# Velocity P-wave (km/s) = 5.93978 6.98388 6.48288
#
# Compressibility (1/GPa) = 0.02470758
#
# Stress axis : x y z
#
# Youngs Moduli (GPa) = 31.06342 92.17780 68.21175
#
# Poissons Ratio (x) = -0.01192 0.76955
# Poissons Ratio (y) = -0.00402 0.36454
# Poissons Ratio (z) = 0.35045 0.49263
#
# Static dielectric constant tensor:
#      x y z
#    x 3.223240 0.000000 0.000000 
#    y 0.000000 3.864210 0.000000 
#    z 0.000000 0.000000 3.276400 
# 
# 
# High freq. dielectric constant tensor:
#      x y z
#    x 1.685630 0.000000 0.000000 
#    y 0.000000 1.685460 0.000000 
#    z 0.000000 0.000000 1.658740 
# 
# From -- ./inp_files/60858.got.cif
#   From: 2010.03.12/outbox.cif.g09.slc.cpg/sg65_31_cif.got.tgz:60858.got - 2010.04.10 20:52:16.
