data_PCOD8268083
_publ_section_title
;
Structure prediction by ZEFSAII (Michael W. Deem and Ramdas Pophale) SiO2 
 PCOD8268083
Probable space group: C M M M
;
_chemical_formula_sum "Si O2"
_cell_formula_units_Z 104
_cell_length_a 28.393098
_cell_length_b 8.660173
_cell_length_c 23.256987
_cell_angle_alpha 90.000000
_cell_angle_beta 90.000000
_cell_angle_gamma 90.000000
_cell_volume 5718.640548
_symmetry_space_group_name_H-M "C M M M"
_symmetry_group_IT_number 65
_symmetry_cell_setting 'orthorhombic'
loop_
_space_group_symop_operation_xyz
x,y,z
-x,-y,z
x,-y,-z
-x,y,-z
-x,-y,-z
x,y,-z
-x,y,z
x,-y,z
1/2+x,1/2+y,z
1/2-x,1/2-y,z
1/2+x,1/2-y,-z
1/2-x,1/2+y,-z
1/2-x,1/2-y,-z
1/2+x,1/2+y,-z
1/2-x,1/2+y,z
1/2+x,1/2-y,z
loop_
_atom_site_type_symbol
_atom_site_label
_atom_site_fract_x
_atom_site_fract_y
_atom_site_fract_z
Si Si1 0.108410 0.681498 0.111135
Si Si2 0.947170 0.316784 0.563099
Si Si3 0.797830 0.679537 0.275057
Si Si4 0.052810 0.316337 0.000000
Si Si5 0.896343 0.319746 0.675378
Si Si6 0.445019 0.321153 0.783446
Si Si7 0.299136 0.318074 0.849001
O O1 0.116698 0.500000 0.107569
O O2 0.079406 0.744496 0.056581
O O3 0.080118 0.718524 0.168776
O O4 0.159090 0.763388 0.109508
O O5 0.931057 0.255017 0.500000
O O6 0.947193 0.500000 0.562037
O O7 0.911635 0.258238 0.612454
O O8 0.000000 0.257136 0.576714
O O9 0.789998 0.500000 0.262313
O O10 0.750000 0.750000 0.301963
O O11 0.840423 0.708979 0.319112
O O12 0.810341 0.760693 0.215181
O O13 0.050864 0.500000 0.000000
O O14 0.000000 0.247771 0.000000
O O15 0.908536 0.500000 0.684102
O O16 0.925156 0.222151 0.721402
O O17 0.500000 0.283534 0.784792
O O18 0.434523 0.500000 0.796041
O O19 0.295715 0.500000 0.848981
O O20 0.250000 0.250000 0.872078
#
# Coordination Sequence:
#
# PCOD8268083 Si02
#       7
#    16  16  16   8  16  16  16
#     4  11  21  37  59  82 107 139 179 220 265 318
#     4   8  14  26  46  73 103 134 172 220 268 312
#     4  10  19  31  49  75 104 137 175 216 263 319
#     4   9  20  38  60  83 106 139 182 223 262 311
#     4  10  19  31  51  77 103 134 176 219 267 321
#     4  11  23  35  49  75 109 141 173 215 268 319
#     4  11  21  35  56  81 110 141 175 217 266 319
#
# _framework density 18.186140000000002
#
# number of rings (size 3 to 8) (size 9 to 14) (size 15 to 20)
#    0.000    1.923    1.538    5.077    0.000    3.077 
#    0.000    1.923    0.000    3.692    0.000    2.154 
#    0.000    0.000    0.000    0.000    0.000    0.615 
#
# Total GULP energy -644838.396257 kJ/mol
# GULP energy per Si atom -12400.738390 kJ/mol
# Density = 1.814475 g / cm^3
# Si number density = 18.186140 Si / 1000 Ang^3
#
#
#
# Elastic Constant Matrix: (Units=GPa)
#
#
# Indices 1 2 3 4 5 6 
#
# 1 152.7194 45.8229 74.2450 0.0000 0.0000 0.0000
# 2 45.8229 79.5226 24.3248 0.0000 0.0000 0.0000
# 3 74.2450 24.3248 119.0515 0.0000 0.0000 0.0000
# 4 0.0000 0.0000 0.0000 7.7391 0.0000 0.0000
# 5 0.0000 0.0000 0.0000 0.0000 31.8323 0.0000
# 6 0.0000 0.0000 0.0000 0.0000 0.0000 28.8162
#
#
#
# Elastic Compliance Matrix: (Units=1/GPa)
#
#
# Indices 1 2 3 4 5 6 
#
# 1 0.010659 -0.004383 -0.005752 0.000000 0.000000 0.000000
# 2 -0.004383 0.015215 -0.000376 0.000000 0.000000 0.000000
# 3 -0.005752 -0.000376 0.012064 0.000000 0.000000 0.000000
# 4 0.000000 0.000000 0.000000 0.129215 0.000000 0.000000
# 5 0.000000 0.000000 0.000000 0.000000 0.031415 0.000000
# 6 0.000000 0.000000 0.000000 0.000000 0.000000 0.034703
#
#
# Mechanical properties :
#
#
# Convention : Reuss Voigt Hill
#
# Bulk Modulus (GPa) = 59.11003 71.11987 65.11495
# Shear Modulus (GPa) = 19.23592 27.47089 23.35341
#
# Velocity S-wave (km/s) = 3.25580 3.89078 3.58737
# Velocity P-wave (km/s) = 6.83425 7.70557 7.28295
#
# Compressibility (1/GPa) = 0.01691760
#
# Stress axis : x y z
#
# Youngs Moduli (GPa) = 93.81410 65.72301 82.89333
#
# Poissons Ratio (x) = 0.28805 0.47681
# Poissons Ratio (y) = 0.41116 0.03113
# Poissons Ratio (z) = 0.53963 0.02469
#
# Static dielectric constant tensor:
#      x y z
#    x 3.593700 0.000000 0.000000 
#    y 0.000000 3.214960 0.000000 
#    z 0.000000 0.000000 3.441440 
# 
# 
# High freq. dielectric constant tensor:
#      x y z
#    x 1.716410 0.000000 0.000000 
#    y 0.000000 1.693060 0.000000 
#    z 0.000000 0.000000 1.686170 
# 
# From -- ./inp_files/72179.got.cif
#   From: 2010.03.12/outbox.cif.g09.slc.cpg/sg65_37_cif.got.tgz:72179.got - 2010.04.10 20:52:16.
