data_PCOD8268903
_publ_section_title
;
Structure prediction by ZEFSAII (Michael W. Deem and Ramdas Pophale) SiO2 
 PCOD8268903
Probable space group: C M M M
;
_chemical_formula_sum "Si O2"
_cell_formula_units_Z 88
_cell_length_a 27.428326
_cell_length_b 8.611918
_cell_length_c 21.411012
_cell_angle_alpha 90.000000
_cell_angle_beta 90.000000
_cell_angle_gamma 90.000000
_cell_volume 5057.505730
_symmetry_space_group_name_H-M "C M M M"
_symmetry_group_IT_number 65
_symmetry_cell_setting 'orthorhombic'
loop_
_space_group_symop_operation_xyz
x,y,z
-x,-y,z
x,-y,-z
-x,y,-z
-x,-y,-z
x,y,-z
-x,y,z
x,-y,z
1/2+x,1/2+y,z
1/2-x,1/2-y,z
1/2+x,1/2-y,-z
1/2-x,1/2+y,-z
1/2-x,1/2-y,-z
1/2+x,1/2+y,-z
1/2-x,1/2+y,z
1/2+x,1/2-y,z
loop_
_atom_site_type_symbol
_atom_site_label
_atom_site_fract_x
_atom_site_fract_y
_atom_site_fract_z
Si Si1 0.302788 0.684284 0.931094
Si Si2 0.445166 0.680781 0.262233
Si Si3 0.555865 0.316015 0.500000
Si Si4 0.353552 0.682564 0.810025
Si Si5 0.697309 0.684221 0.314609
Si Si6 0.105415 0.682328 0.621953
O O1 0.300073 0.500000 0.928704
O O2 0.250000 0.750000 0.916208
O O3 0.338630 0.752737 0.877465
O O4 0.320800 0.739096 0.000000
O O5 0.500000 0.716795 0.240521
O O6 0.437854 0.500000 0.279895
O O7 0.409555 0.727486 0.205032
O O8 0.432348 0.780660 0.322695
O O9 0.557107 0.500000 0.500000
O O10 0.500000 0.255776 0.500000
O O11 0.583928 0.253931 0.559716
O O12 0.347151 0.500000 0.813642
O O13 0.318813 0.744836 0.754267
O O14 0.698320 0.500000 0.317448
O O15 0.750000 0.750000 0.331763
O O16 0.658485 0.744945 0.365059
O O17 0.111204 0.500000 0.614094
#
# Coordination Sequence:
#
# PCOD8268903 Si02
#       6
#    16  16   8  16  16  16
#     4   9  16  26  41  62  90 122 155 193 237 284
#     4   9  17  31  50  69  92 124 160 198 242 290
#     4  11  23  39  58  77 100 131 163 195 237 287
#     4   8  15  27  44  67  93 123 159 197 237 284
#     4  10  19  33  52  73  99 130 164 200 240 286
#     4  11  22  35  52  76 103 128 158 197 240 284
#
# _framework density 17.39988
#
# number of rings (size 3 to 8) (size 9 to 14) (size 15 to 20)
#    0.000    2.455    0.000    4.636    0.000    3.273 
#    0.000    4.091    0.000    0.545    0.000    3.818 
#    0.000    0.000    0.000   11.091    0.000   12.000 
#
# Total GULP energy -545444.622215 kJ/mol
# GULP energy per Si atom -12396.468687 kJ/mol
# Density = 1.736028 g / cm^3
# Si number density = 17.399880 Si / 1000 Ang^3
#
#
#
# Elastic Constant Matrix: (Units=GPa)
#
#
# Indices 1 2 3 4 5 6 
#
# 1 158.1146 35.1255 88.3738 0.0000 0.0000 0.0000
# 2 35.1255 55.5823 28.7082 0.0000 0.0000 0.0000
# 3 88.3738 28.7082 148.7036 0.0000 0.0000 0.0000
# 4 0.0000 0.0000 0.0000 7.7902 0.0000 0.0000
# 5 0.0000 0.0000 0.0000 0.0000 23.1893 0.0000
# 6 0.0000 0.0000 0.0000 0.0000 0.0000 24.8936
#
#
#
# Elastic Compliance Matrix: (Units=1/GPa)
#
#
# Indices 1 2 3 4 5 6 
#
# 1 0.010094 -0.003644 -0.005295 0.000000 0.000000 0.000000
# 2 -0.003644 0.021299 -0.001947 0.000000 0.000000 0.000000
# 3 -0.005295 -0.001947 0.010247 0.000000 0.000000 0.000000
# 4 0.000000 0.000000 0.000000 0.128366 0.000000 0.000000
# 5 0.000000 0.000000 0.000000 0.000000 0.043123 0.000000
# 6 0.000000 0.000000 0.000000 0.000000 0.000000 0.040171
#
#
# Mechanical properties :
#
#
# Convention : Reuss Voigt Hill
#
# Bulk Modulus (GPa) = 50.32805 74.09059 62.20932
# Shear Modulus (GPa) = 17.74974 25.18751 21.46863
#
# Velocity S-wave (km/s) = 3.19738 3.80882 3.51641
# Velocity P-wave (km/s) = 6.52826 7.87505 7.23306
#
# Compressibility (1/GPa) = 0.01986964
#
# Stress axis : x y z
#
# Youngs Moduli (GPa) = 99.07336 46.94968 97.58554
#
# Poissons Ratio (x) = 0.17107 0.51672
# Poissons Ratio (y) = 0.36100 0.18995
# Poissons Ratio (z) = 0.52460 0.09139
#
# Static dielectric constant tensor:
#      x y z
#    x 3.433140 0.000000 0.000000 
#    y 0.000000 3.117330 0.000000 
#    z 0.000000 0.000000 3.577710 
# 
# 
# High freq. dielectric constant tensor:
#      x y z
#    x 1.671650 0.000000 0.000000 
#    y 0.000000 1.660900 0.000000 
#    z 0.000000 0.000000 1.665760 
# 
# From -- ./inp_files/60710.got.cif
#   From: 2010.03.12/outbox.cif.g09.slc.cpg/sg65_31_cif.got.tgz:60710.got - 2010.04.10 20:52:16.
