data_PCOD8268672
_publ_section_title
;
Structure prediction by ZEFSAII (Michael W. Deem and Ramdas Pophale) SiO2 
 PCOD8268672
Probable space group: C M M M
;
_chemical_formula_sum "Si O2"
_cell_formula_units_Z 88
_cell_length_a 27.674107
_cell_length_b 19.460618
_cell_length_c 8.435118
_cell_angle_alpha 90.000000
_cell_angle_beta 90.000000
_cell_angle_gamma 90.000000
_cell_volume 4542.776871
_symmetry_space_group_name_H-M "C M M M"
_symmetry_group_IT_number 65
_symmetry_cell_setting 'orthorhombic'
loop_
_space_group_symop_operation_xyz
x,y,z
-x,-y,z
x,-y,-z
-x,y,-z
-x,-y,-z
x,y,-z
-x,y,z
x,-y,z
1/2+x,1/2+y,z
1/2-x,1/2-y,z
1/2+x,1/2-y,-z
1/2-x,1/2+y,-z
1/2-x,1/2-y,-z
1/2+x,1/2+y,-z
1/2-x,1/2+y,z
1/2+x,1/2-y,z
loop_
_atom_site_type_symbol
_atom_site_label
_atom_site_fract_x
_atom_site_fract_y
_atom_site_fract_z
Si Si1 0.500000 0.578496 0.187033
Si Si2 0.120566 0.304910 0.689294
Si Si3 0.553976 0.075465 0.688455
Si Si4 0.728129 0.179469 0.311207
Si Si5 0.095234 0.152788 0.311764
Si Si6 0.191427 0.923027 0.688950
O O1 0.500000 0.500000 0.253981
O O2 0.547163 0.618818 0.244058
O O3 0.500000 0.576747 0.000000
O O4 0.121129 0.304536 0.500000
O O5 0.086573 0.364280 0.761049
O O6 0.173682 0.323940 0.754372
O O7 0.101234 0.231157 0.749401
O O8 0.553876 0.080787 0.500000
O O9 0.500000 0.085658 0.754178
O O10 0.573580 0.000000 0.739530
O O11 0.728224 0.178443 0.500000
O O12 0.750000 0.250000 0.246813
O O13 0.761503 0.117472 0.246385
O O14 0.091929 0.150595 0.500000
O O15 0.141996 0.111439 0.249545
O O16 0.191418 0.922359 0.500000
O O17 0.194128 0.000000 0.756583
#
# Coordination Sequence:
#
# PCOD8268672 Si02
#       6
#     8  16  16  16  16  16
#     4  11  25  41  53  69  98 131 160 198 249 299
#     4   9  16  24  40  65  93 125 162 200 238 283
#     4   8  14  23  33  49  81 123 158 189 230 281
#     4   9  14  23  35  54  89 125 152 183 231 280
#     4  10  19  32  52  76  98 125 164 207 246 286
#     4   9  16  25  40  64  93 125 161 199 238 285
#
# _framework density 19.371411999999999
#
# number of rings (size 3 to 8) (size 9 to 14) (size 15 to 20)
#    0.000    2.818    1.818    1.364    1.273    2.182 
#    0.000    3.636    0.000    0.000    0.000    2.545 
#    0.000    1.455    0.000    0.000    0.000    0.000 
#
# Total GULP energy -545340.860085 kJ/mol
# GULP energy per Si atom -12394.110456 kJ/mol
# Density = 1.932732 g / cm^3
# Si number density = 19.371412 Si / 1000 Ang^3
#
#
#
# Elastic Constant Matrix: (Units=GPa)
#
#
# Indices 1 2 3 4 5 6 
#
# 1 184.3347 126.9436 10.3247 0.0000 0.0000 0.0000
# 2 126.9436 220.8955 9.8039 0.0000 0.0000 0.0000
# 3 10.3247 9.8039 9.6363 0.0000 0.0000 0.0000
# 4 0.0000 0.0000 0.0000 5.4735 0.0000 0.0000
# 5 0.0000 0.0000 0.0000 0.0000 -1.6764 0.0000
# 6 0.0000 0.0000 0.0000 0.0000 0.0000 45.9133
#
#
#
# Elastic Compliance Matrix: (Units=1/GPa)
#
#
# Indices 1 2 3 4 5 6 
#
# 1 0.009175 -0.005065 -0.004677 0.000000 0.000000 0.000000
# 2 -0.005065 0.007537 -0.002241 0.000000 0.000000 0.000000
# 3 -0.004677 -0.002241 0.111066 0.000000 0.000000 0.000000
# 4 0.000000 0.000000 0.000000 0.182699 0.000000 0.000000
# 5 0.000000 0.000000 0.000000 0.000000 -0.596502 0.000000
# 6 0.000000 0.000000 0.000000 0.000000 0.000000 0.021780
#
#
# Mechanical properties :
#
#
# Convention : Reuss Voigt Hill
#
# Bulk Modulus (GPa) = 9.63296 78.77899 44.20597
# Shear Modulus (GPa) = -24.31025 27.79503 1.74239
#
# Velocity S-wave (km/s) = -3.54638 3.79205 0.94943
# Velocity P-wave (km/s) = 3.43300 7.74137 4.90629
#
# Compressibility (1/GPa) = 0.10381030
#
# Stress axis : x y z
#
# Youngs Moduli (GPa) = 108.99195 132.67366 9.00369
#
# Poissons Ratio (x) = 0.67200 0.04211
# Poissons Ratio (y) = 0.55205 0.02018
# Poissons Ratio (z) = 0.50978 0.29739
#
# Static dielectric constant tensor:
#      x y z
#    x 3.847510 0.000000 0.000000 
#    y 0.000000 3.946790 0.000000 
#    z 0.000000 0.000000 2.689230 
# 
# 
# High freq. dielectric constant tensor:
#      x y z
#    x 1.766930 0.000000 0.000000 
#    y 0.000000 1.771040 0.000000 
#    z 0.000000 0.000000 1.671570 
# 
# From -- ./inp_files/13998.got.cif
#   From: 2010.03.12/outbox.cif.g09.slc.cpg/sg65_7_cif.got.tgz:13998.got - 2010.04.10 20:52:16.
