data_PCOD8268540
_publ_section_title
;
Structure prediction by ZEFSAII (Michael W. Deem and Ramdas Pophale) SiO2 
 PCOD8268540
Probable space group: C M M M
;
_chemical_formula_sum "Si O2"
_cell_formula_units_Z 80
_cell_length_a 25.850075
_cell_length_b 18.351038
_cell_length_c 8.969214
_cell_angle_alpha 90.000000
_cell_angle_beta 90.000000
_cell_angle_gamma 90.000000
_cell_volume 4254.777247
_symmetry_space_group_name_H-M "C M M M"
_symmetry_group_IT_number 65
_symmetry_cell_setting 'orthorhombic'
loop_
_space_group_symop_operation_xyz
x,y,z
-x,-y,z
x,-y,-z
-x,y,-z
-x,-y,-z
x,y,-z
-x,y,z
x,-y,z
1/2+x,1/2+y,z
1/2-x,1/2-y,z
1/2+x,1/2-y,-z
1/2-x,1/2+y,-z
1/2-x,1/2-y,-z
1/2+x,1/2+y,-z
1/2-x,1/2+y,z
1/2+x,1/2-y,z
loop_
_atom_site_type_symbol
_atom_site_label
_atom_site_fract_x
_atom_site_fract_y
_atom_site_fract_z
Si Si1 0.899238 0.666746 0.322832
Si Si2 0.000000 0.417751 0.322586
Si Si3 0.700291 0.584432 0.672696
Si Si4 0.000000 0.917515 0.678066
Si Si5 0.599467 0.332368 0.677112
Si Si6 0.193973 0.415907 0.174560
O O1 0.895565 0.662438 0.500000
O O2 0.949208 0.623354 0.262614
O O3 0.903772 0.749549 0.266456
O O4 0.848126 0.632336 0.255930
O O5 0.000000 0.500000 0.259775
O O6 0.000000 0.417671 0.500000
O O7 0.711655 0.601414 0.500000
O O8 0.686559 0.500000 0.696418
O O9 0.652239 0.630949 0.735027
O O10 0.749991 0.608324 0.766991
O O11 0.949463 0.876512 0.741449
O O12 0.000000 0.916488 0.500000
O O13 0.000000 0.000000 0.738182
O O14 0.598151 0.335812 0.500000
O O15 0.183630 0.500000 0.215186
O O16 0.191250 0.401573 0.000000
#
# Coordination Sequence:
#
# PCOD8268540 Si02
#       6
#    16   8  16   8  16  16
#     4  10  19  32  51  74 102 132 162 201 247 294
#     4   9  17  29  48  73  96 122 160 199 236 285
#     4   9  17  31  51  73  98 130 167 203 240 287
#     4   9  15  25  45  74 108 139 164 198 246 293
#     4   9  17  28  45  73 105 133 163 201 245 291
#     4  10  21  36  52  71  96 127 166 209 249 292
#
# _framework density 18.802395000000001
#
# number of rings (size 3 to 8) (size 9 to 14) (size 15 to 20)
#    0.000    2.600    0.000    2.400    0.000    7.600 
#    0.000    5.500    0.000    1.800    0.000    2.100 
#    0.000    6.400    0.000    0.000    0.000    0.000 
#
# Total GULP energy -496061.770547 kJ/mol
# GULP energy per Si atom -12401.544264 kJ/mol
# Density = 1.875960 g / cm^3
# Si number density = 18.802395 Si / 1000 Ang^3
#
#
#
# Elastic Constant Matrix: (Units=GPa)
#
#
# Indices 1 2 3 4 5 6 
#
# 1 171.6403 108.3594 23.7642 0.0000 0.0000 0.0000
# 2 108.3594 157.7244 26.7052 0.0000 0.0000 0.0000
# 3 23.7642 26.7052 21.9147 0.0000 0.0000 0.0000
# 4 0.0000 0.0000 0.0000 12.4543 0.0000 0.0000
# 5 0.0000 0.0000 0.0000 0.0000 -3.2967 0.0000
# 6 0.0000 0.0000 0.0000 0.0000 0.0000 28.7844
#
#
#
# Elastic Compliance Matrix: (Units=1/GPa)
#
#
# Indices 1 2 3 4 5 6 
#
# 1 0.010470 -0.006641 -0.003261 0.000000 0.000000 0.000000
# 2 -0.006641 0.012201 -0.007666 0.000000 0.000000 0.000000
# 3 -0.003261 -0.007666 0.058510 0.000000 0.000000 0.000000
# 4 0.000000 0.000000 0.000000 0.080294 0.000000 0.000000
# 5 0.000000 0.000000 0.000000 0.000000 -0.303330 0.000000
# 6 0.000000 0.000000 0.000000 0.000000 0.000000 0.034741
#
#
# Mechanical properties :
#
#
# Convention : Reuss Voigt Hill
#
# Bulk Modulus (GPa) = 21.71834 74.32634 48.02234
# Shear Modulus (GPa) = -88.29300 20.41842 -33.93729
#
# Velocity S-wave (km/s) = -6.86005 3.29895 -4.25307
# Velocity P-wave (km/s) = 7.15340 7.35709 1.21565
#
# Compressibility (1/GPa) = 0.04604404
#
# Stress axis : x y z
#
# Youngs Moduli (GPa) = 95.50823 81.96206 17.09115
#
# Poissons Ratio (x) = 0.54432 0.05573
# Poissons Ratio (y) = 0.63428 0.13103
# Poissons Ratio (z) = 0.31146 0.62834
#
# Static dielectric constant tensor:
#      x y z
#    x 3.640830 0.000000 0.000000 
#    y 0.000000 3.621860 0.000000 
#    z 0.000000 0.000000 2.932040 
# 
# 
# High freq. dielectric constant tensor:
#      x y z
#    x 1.748200 0.000000 0.000000 
#    y 0.000000 1.738250 0.000000 
#    z 0.000000 0.000000 1.676160 
# 
# From -- ./inp_files/16114.got.cif
#   From: 2010.03.12/outbox.cif.g09.slc.cpg/sg65_9_cif.got.tgz:16114.got - 2010.04.10 20:52:16.
