data_PCOD8268709
_publ_section_title
;
Structure prediction by ZEFSAII (Michael W. Deem and Ramdas Pophale) SiO2 
 PCOD8268709
Probable space group: C M M M
;
_chemical_formula_sum "Si O2"
_cell_formula_units_Z 88
_cell_length_a 18.280920
_cell_length_b 8.890474
_cell_length_c 28.730227
_cell_angle_alpha 90.000000
_cell_angle_beta 90.000000
_cell_angle_gamma 90.000000
_cell_volume 4669.410136
_symmetry_space_group_name_H-M "C M M M"
_symmetry_group_IT_number 65
_symmetry_cell_setting 'orthorhombic'
loop_
_space_group_symop_operation_xyz
x,y,z
-x,-y,z
x,-y,-z
-x,y,-z
-x,-y,-z
x,y,-z
-x,y,z
x,-y,z
1/2+x,1/2+y,z
1/2-x,1/2-y,z
1/2+x,1/2-y,-z
1/2-x,1/2+y,-z
1/2-x,1/2-y,-z
1/2+x,1/2+y,-z
1/2-x,1/2+y,z
1/2+x,1/2-y,z
loop_
_atom_site_type_symbol
_atom_site_label
_atom_site_fract_x
_atom_site_fract_y
_atom_site_fract_z
Si Si1 0.586087 0.824161 0.415098
Si Si2 0.173290 0.173597 0.231138
Si Si3 0.913702 0.330581 0.948284
Si Si4 0.169481 0.178539 0.667611
Si Si5 0.170071 0.179203 0.500000
Si Si6 0.828268 0.824619 0.869005
O O1 0.500000 0.796897 0.419995
O O2 0.612775 0.759324 0.366138
O O3 0.626831 0.732807 0.454925
O O4 0.605537 0.000000 0.419125
O O5 0.250000 0.250000 0.231840
O O6 0.134857 0.212006 0.280574
O O7 0.134838 0.218676 0.181818
O O8 0.190630 0.000000 0.230267
O O9 0.887082 0.500000 0.938208
O O10 0.882088 0.221265 0.909773
O O11 0.000000 0.320632 0.945546
O O12 0.887415 0.281249 0.000000
O O13 0.250000 0.250000 0.661509
O O14 0.174269 0.000000 0.657374
O O15 0.250000 0.250000 0.500000
O O16 0.176528 0.000000 0.500000
O O17 0.750000 0.750000 0.875840
O O18 0.815352 0.000000 0.872652
#
# Coordination Sequence:
#
# PCOD8268709 Si02
#       6
#    16  16  16  16   8  16
#     4  11  24  41  59  82 115 149 181 222 270 314
#     4   8  16  30  49  75 105 137 172 214 261 307
#     4   9  19  36  54  71  96 132 172 214 262 316
#     4  10  19  34  57  82 109 142 182 222 261 311
#     4  12  25  42  65  89 113 143 183 224 265 318
#     4  10  19  32  52  78 106 135 171 215 263 313
#
# _framework density 18.846062
#
# number of rings (size 3 to 8) (size 9 to 14) (size 15 to 20)
#    0.000    2.182    0.000    3.818    0.000    5.091 
#    0.000    1.818    0.000    5.455    0.000    0.000 
#    0.000    0.000    0.000    0.000    0.000    0.000 
#
# Total GULP energy -545134.504882 kJ/mol
# GULP energy per Si atom -12389.420565 kJ/mol
# Density = 1.880317 g / cm^3
# Si number density = 18.846062 Si / 1000 Ang^3
#
#
#
# Elastic Constant Matrix: (Units=GPa)
#
#
# Indices 1 2 3 4 5 6 
#
# 1 67.2418 44.8675 56.0525 0.0000 0.0000 0.0000
# 2 44.8675 100.0798 70.2750 0.0000 0.0000 0.0000
# 3 56.0525 70.2750 177.4426 0.0000 0.0000 0.0000
# 4 0.0000 0.0000 0.0000 29.6111 0.0000 0.0000
# 5 0.0000 0.0000 0.0000 0.0000 -79.3189 0.0000
# 6 0.0000 0.0000 0.0000 0.0000 0.0000 30.1427
#
#
#
# Elastic Compliance Matrix: (Units=1/GPa)
#
#
# Indices 1 2 3 4 5 6 
#
# 1 0.023572 -0.007396 -0.004517 0.000000 0.000000 0.000000
# 2 -0.007396 0.016162 -0.004064 0.000000 0.000000 0.000000
# 3 -0.004517 -0.004064 0.008672 0.000000 0.000000 0.000000
# 4 0.000000 0.000000 0.000000 0.033771 0.000000 0.000000
# 5 0.000000 0.000000 0.000000 0.000000 -0.012607 0.000000
# 6 0.000000 0.000000 0.000000 0.000000 0.000000 0.033176
#
#
# Mechanical properties :
#
#
# Convention : Reuss Voigt Hill
#
# Bulk Modulus (GPa) = 60.78605 76.35046 68.56826
# Shear Modulus (GPa) = 35.66735 7.65824 21.66280
#
# Velocity S-wave (km/s) = 4.35508 2.01802 3.39405
# Velocity P-wave (km/s) = 7.59032 6.78458 7.19873
#
# Compressibility (1/GPa) = 0.01645114
#
# Stress axis : x y z
#
# Youngs Moduli (GPa) = 42.42299 61.87441 115.31045
#
# Poissons Ratio (x) = 0.45762 0.52087
# Poissons Ratio (y) = 0.31376 0.46867
# Poissons Ratio (z) = 0.19163 0.25149
#
# Static dielectric constant tensor:
#      x y z
#    x 3.130880 0.000000 0.000000 
#    y 0.000000 3.559810 0.000000 
#    z 0.000000 0.000000 4.357790 
# 
# 
# High freq. dielectric constant tensor:
#      x y z
#    x 1.697710 0.000000 0.000000 
#    y 0.000000 1.743150 0.000000 
#    z 0.000000 0.000000 1.763450 
# 
# From -- ./inp_files/77897.got.cif
#   From: 2010.03.12/outbox.cif.g09.slc.cpg/sg65_39_cif.got.tgz:77897.got - 2010.04.10 20:52:16.
