data_PCOD8268832
_publ_section_title
;
Structure prediction by ZEFSAII (Michael W. Deem and Ramdas Pophale) SiO2 
 PCOD8268832
Probable space group: C M M M
;
_chemical_formula_sum "Si O2"
_cell_formula_units_Z 96
_cell_length_a 16.188771
_cell_length_b 22.147110
_cell_length_c 19.629785
_cell_angle_alpha 90.000000
_cell_angle_beta 90.000000
_cell_angle_gamma 90.000000
_cell_volume 7037.954995
_symmetry_space_group_name_H-M "C M M M"
_symmetry_group_IT_number 65
_symmetry_cell_setting 'orthorhombic'
loop_
_space_group_symop_operation_xyz
x,y,z
-x,-y,z
x,-y,-z
-x,y,-z
-x,-y,-z
x,y,-z
-x,y,z
x,-y,z
1/2+x,1/2+y,z
1/2-x,1/2-y,z
1/2+x,1/2-y,-z
1/2-x,1/2+y,-z
1/2-x,1/2-y,-z
1/2+x,1/2+y,-z
1/2-x,1/2+y,z
1/2+x,1/2-y,z
loop_
_atom_site_type_symbol
_atom_site_label
_atom_site_fract_x
_atom_site_fract_y
_atom_site_fract_z
Si Si1 0.500000 0.932019 0.419244
Si Si2 0.592826 0.571601 0.071940
Si Si3 0.660949 0.860677 0.420459
Si Si4 0.594985 0.270140 0.577112
Si Si5 0.330404 0.383421 0.352445
Si Si6 0.597674 0.570955 0.780280
Si Si7 0.404268 0.500000 0.578583
O O1 0.500000 0.932398 0.500000
O O2 0.581385 0.897271 0.394078
O O3 0.500000 0.000000 0.389773
O O4 0.500000 0.596595 0.069487
O O5 0.590551 0.500000 0.074022
O O6 0.630989 0.592424 0.144496
O O7 0.637288 0.592676 0.000000
O O8 0.680638 0.874864 0.500000
O O9 0.648155 0.789590 0.410211
O O10 0.734332 0.880891 0.371097
O O11 0.607972 0.293261 0.500000
O O12 0.500000 0.253869 0.590725
O O13 0.624171 0.322190 0.626945
O O14 0.346026 0.391463 0.272038
O O15 0.368100 0.439931 0.390465
O O16 0.500000 0.585224 0.771457
O O17 0.612709 0.500000 0.768266
O O18 0.500000 0.500000 0.594872
O O19 0.382809 0.500000 0.500000
#
# Coordination Sequence:
#
# PCOD8268832 Si02
#       7
#     8  16  16  16  16  16   8
#     4   9  18  32  50  64  76  95 126 178 236 268
#     4   7  10  18  34  53  73 104 142 168 187 222
#     4  10  20  34  47  61  77  98 138 185 222 256
#     4  10  19  33  48  59  75 103 139 180 220 252
#     4  12  21  28  42  61  83 111 139 169 208 249
#     4   9  16  26  37  54  85 116 138 163 198 240
#     4  11  22  32  38  53  82 114 146 169 191 236
#
# _framework density 13.640326999999999
#
# number of rings (size 3 to 8) (size 9 to 14) (size 15 to 20)
#    0.000    2.333    1.667    5.000    1.167    2.667 
#    0.000    0.000    0.000    0.000    0.000    0.000 
#    0.000    2.667    0.000    1.083    0.000    8.917 
#
# Total GULP energy -594741.083044 kJ/mol
# GULP energy per Si atom -12390.439230 kJ/mol
# Density = 1.360928 g / cm^3
# Si number density = 13.640327 Si / 1000 Ang^3
#
#
#
# Elastic Constant Matrix: (Units=GPa)
#
#
# Indices 1 2 3 4 5 6 
#
# 1 81.8562 31.8187 43.9497 0.0000 0.0000 0.0000
# 2 31.8187 64.9649 36.2800 0.0000 0.0000 0.0000
# 3 43.9497 36.2800 122.6699 0.0000 0.0000 0.0000
# 4 0.0000 0.0000 0.0000 6.3617 0.0000 0.0000
# 5 0.0000 0.0000 0.0000 0.0000 12.4997 0.0000
# 6 0.0000 0.0000 0.0000 0.0000 0.0000 19.3514
#
#
#
# Elastic Compliance Matrix: (Units=1/GPa)
#
#
# Indices 1 2 3 4 5 6 
#
# 1 0.016784 -0.005824 -0.004291 0.000000 0.000000 0.000000
# 2 -0.005824 0.020459 -0.003964 0.000000 0.000000 0.000000
# 3 -0.004291 -0.003964 0.010862 0.000000 0.000000 0.000000
# 4 0.000000 0.000000 0.000000 0.157191 0.000000 0.000000
# 5 0.000000 0.000000 0.000000 0.000000 0.080002 0.000000
# 6 0.000000 0.000000 0.000000 0.000000 0.000000 0.051676
#
#
# Mechanical properties :
#
#
# Convention : Reuss Voigt Hill
#
# Bulk Modulus (GPa) = 50.13398 54.84313 52.48855
# Shear Modulus (GPa) = 13.44876 18.13874 15.79375
#
# Velocity S-wave (km/s) = 3.14340 3.65058 3.40644
# Velocity P-wave (km/s) = 7.07168 7.61990 7.35090
#
# Compressibility (1/GPa) = 0.01994655
#
# Stress axis : x y z
#
# Youngs Moduli (GPa) = 59.57903 48.87712 92.06668
#
# Poissons Ratio (x) = 0.28468 0.39504
# Poissons Ratio (y) = 0.34702 0.36497
# Poissons Ratio (z) = 0.25565 0.19376
#
# Static dielectric constant tensor:
#      x y z
#    x 2.614030 0.000000 0.000000 
#    y 0.000000 2.560620 0.000000 
#    z 0.000000 0.000000 2.954750 
# 
# 
# High freq. dielectric constant tensor:
#      x y z
#    x 1.501220 0.000000 0.000000 
#    y 0.000000 1.506400 0.000000 
#    z 0.000000 0.000000 1.501130 
# 
# From -- ./inp_files/64051.got.cif
#   From: 2010.03.12/outbox.cif.g09.slc.cpg/sg65_33_cif.got.tgz:64051.got - 2010.04.10 20:52:16.
