data_PCOD8268849
_publ_section_title
;
Structure prediction by ZEFSAII (Michael W. Deem and Ramdas Pophale) SiO2 
 PCOD8268849
Probable space group: C M M M
;
_chemical_formula_sum "Si O2"
_cell_formula_units_Z 112
_cell_length_a 27.484881
_cell_length_b 24.637532
_cell_length_c 9.834732
_cell_angle_alpha 90.000000
_cell_angle_beta 90.000000
_cell_angle_gamma 90.000000
_cell_volume 6659.683533
_symmetry_space_group_name_H-M "C M M M"
_symmetry_group_IT_number 65
_symmetry_cell_setting 'orthorhombic'
loop_
_space_group_symop_operation_xyz
x,y,z
-x,-y,z
x,-y,-z
-x,y,-z
-x,-y,-z
x,y,-z
-x,y,z
x,-y,z
1/2+x,1/2+y,z
1/2-x,1/2-y,z
1/2+x,1/2-y,-z
1/2-x,1/2+y,-z
1/2-x,1/2-y,-z
1/2+x,1/2+y,-z
1/2-x,1/2+y,z
1/2+x,1/2-y,z
loop_
_atom_site_type_symbol
_atom_site_label
_atom_site_fract_x
_atom_site_fract_y
_atom_site_fract_z
Si Si1 0.187111 0.938982 0.847251
Si Si2 0.057086 0.331255 0.841458
Si Si3 0.175385 0.843187 0.658228
Si Si4 0.398449 0.941353 0.845495
Si Si5 0.626817 0.233382 0.659411
Si Si6 0.792892 0.559300 0.250676
Si Si7 0.281267 0.828239 0.350730
O O1 0.161542 0.896777 0.743897
O O2 0.245638 0.934888 0.844256
O O3 0.170514 0.000000 0.806923
O O4 0.170117 0.925073 0.000000
O O5 0.074005 0.389784 0.779872
O O6 0.081179 0.284181 0.750490
O O7 0.000000 0.325392 0.823180
O O8 0.072415 0.324882 0.000000
O O9 0.181007 0.859987 0.500000
O O10 0.133920 0.798002 0.677554
O O11 0.227465 0.819178 0.713029
O O12 0.340463 0.933313 0.841723
O O13 0.412500 0.000000 0.776441
O O14 0.415658 0.943896 0.000000
O O15 0.618070 0.218723 0.500000
O O16 0.674531 0.203042 0.723043
O O17 0.793090 0.500000 0.323445
O O18 0.792234 0.607262 0.360906
O O19 0.280359 0.802604 0.500000
#
# Coordination Sequence:
#
# PCOD8268849 Si02
#       7
#    16  16  16  16  16  16  16
#     4   9  17  28  43  66  97 128 156 188 225 265
#     4  10  21  35  50  69  91 116 153 202 249 290
#     4   9  18  30  46  68  94 124 157 189 224 272
#     4   9  16  27  44  63  84 114 153 197 243 286
#     4  10  19  33  50  67  90 121 155 192 235 283
#     4   9  15  24  40  61  87 121 158 195 232 274
#     4   9  16  27  43  63  89 121 154 191 232 274
#
# _framework density 16.817616999999998
#
# number of rings (size 3 to 8) (size 9 to 14) (size 15 to 20)
#    0.000    2.714    1.429    0.857    0.000    5.143 
#    0.000    4.286    0.000    3.000    0.000    1.000 
#    0.000    0.571    0.000    6.286    0.000    4.714 
#
# Total GULP energy -693764.318070 kJ/mol
# GULP energy per Si atom -12388.648537 kJ/mol
# Density = 1.677934 g / cm^3
# Si number density = 16.817617 Si / 1000 Ang^3
#
#
#
# Elastic Constant Matrix: (Units=GPa)
#
#
# Indices 1 2 3 4 5 6 
#
# 1 53.4224 46.0899 26.7188 0.0000 0.0000 0.0000
# 2 46.0899 112.1863 48.9866 0.0000 0.0000 0.0000
# 3 26.7188 48.9866 58.7862 0.0000 0.0000 0.0000
# 4 0.0000 0.0000 0.0000 25.6169 0.0000 0.0000
# 5 0.0000 0.0000 0.0000 0.0000 19.0136 0.0000
# 6 0.0000 0.0000 0.0000 0.0000 0.0000 20.4326
#
#
#
# Elastic Compliance Matrix: (Units=1/GPa)
#
#
# Indices 1 2 3 4 5 6 
#
# 1 0.030008 -0.010018 -0.005291 0.000000 0.000000 0.000000
# 2 -0.010018 0.017357 -0.009910 0.000000 0.000000 0.000000
# 3 -0.005291 -0.009910 0.027674 0.000000 0.000000 0.000000
# 4 0.000000 0.000000 0.000000 0.039037 0.000000 0.000000
# 5 0.000000 0.000000 0.000000 0.000000 0.052594 0.000000
# 6 0.000000 0.000000 0.000000 0.000000 0.000000 0.048941
#
#
# Mechanical properties :
#
#
# Convention : Reuss Voigt Hill
#
# Bulk Modulus (GPa) = 40.64982 51.99839 46.32411
# Shear Modulus (GPa) = 18.23164 19.85259 19.04212
#
# Velocity S-wave (km/s) = 3.29611 3.43952 3.36858
# Velocity P-wave (km/s) = 6.22167 6.83811 6.53716
#
# Compressibility (1/GPa) = 0.02460035
#
# Stress axis : x y z
#
# Youngs Moduli (GPa) = 33.32466 57.61438 36.13539
#
# Poissons Ratio (x) = 0.57718 0.19119
# Poissons Ratio (y) = 0.33384 0.35811
# Poissons Ratio (z) = 0.17632 0.57097
#
# Static dielectric constant tensor:
#      x y z
#    x 2.797240 0.000000 0.000000 
#    y 0.000000 3.356730 0.000000 
#    z 0.000000 0.000000 2.856630 
# 
# 
# High freq. dielectric constant tensor:
#      x y z
#    x 1.603810 0.000000 0.000000 
#    y 0.000000 1.657230 0.000000 
#    z 0.000000 0.000000 1.616760 
# 
# From -- ./inp_files/32768.got.cif
#   From: 2010.03.12/outbox.cif.g09.slc.cpg/sg65_17_cif.got.tgz:32768.got - 2010.04.10 20:52:16.
