data_PCOD8268776
_publ_section_title
;
Structure prediction by ZEFSAII (Michael W. Deem and Ramdas Pophale) SiO2 
 PCOD8268776
Probable space group: C M M M
;
_chemical_formula_sum "Si O2"
_cell_formula_units_Z 112
_cell_length_a 14.596028
_cell_length_b 30.338874
_cell_length_c 13.944013
_cell_angle_alpha 90.000000
_cell_angle_beta 90.000000
_cell_angle_gamma 90.000000
_cell_volume 6174.786203
_symmetry_space_group_name_H-M "C M M M"
_symmetry_group_IT_number 65
_symmetry_cell_setting 'orthorhombic'
loop_
_space_group_symop_operation_xyz
x,y,z
-x,-y,z
x,-y,-z
-x,y,-z
-x,-y,-z
x,y,-z
-x,y,z
x,-y,z
1/2+x,1/2+y,z
1/2-x,1/2-y,z
1/2+x,1/2-y,-z
1/2-x,1/2+y,-z
1/2-x,1/2-y,-z
1/2+x,1/2+y,-z
1/2-x,1/2+y,z
1/2+x,1/2-y,z
loop_
_atom_site_type_symbol
_atom_site_label
_atom_site_fract_x
_atom_site_fract_y
_atom_site_fract_z
Si Si1 0.151870 0.228064 0.606924
Si Si2 0.896063 0.738564 0.196048
Si Si3 0.391661 0.549039 0.731090
Si Si4 0.717583 0.410380 0.888884
Si Si5 0.401115 0.049449 0.886117
Si Si6 0.105159 0.130943 0.610176
Si Si7 0.234097 0.189135 0.111905
O O1 0.106174 0.232568 0.500000
O O2 0.250000 0.250000 0.605125
O O3 0.095464 0.253293 0.689308
O O4 0.160142 0.176012 0.633621
O O5 0.849547 0.780338 0.144724
O O6 0.828718 0.697777 0.170665
O O7 0.000000 0.730698 0.157650
O O8 0.500000 0.550659 0.731540
O O9 0.359313 0.500000 0.697429
O O10 0.355883 0.558452 0.837785
O O11 0.352472 0.588388 0.664271
O O12 0.819568 0.419911 0.847966
O O13 0.697326 0.359538 0.867857
O O14 0.710204 0.422316 0.000000
O O15 0.500000 0.066913 0.848090
O O16 0.384422 0.000000 0.848263
O O17 0.402348 0.049677 0.000000
O O18 0.113183 0.118247 0.500000
O O19 0.000000 0.139495 0.640387
O O20 0.255971 0.196717 0.000000
#
# Coordination Sequence:
#
# PCOD8268776 Si02
#       7
#    16  16  16  16  16  16  16
#     4  10  19  32  53  80 107 135 170 213 262 320
#     4  11  21  35  54  73 101 137 170 215 268 313
#     4  10  21  34  50  76 107 139 175 212 252 305
#     4  10  20  33  50  69  98 136 170 211 257 302
#     4   8  14  26  45  67  88 113 150 196 246 295
#     4   9  18  33  53  76 102 135 174 213 255 304
#     4  10  22  37  50  72 100 132 183 226 257 311
#
# _framework density 18.138280000000002
#
# number of rings (size 3 to 8) (size 9 to 14) (size 15 to 20)
#    0.000    2.286    1.429    3.000    0.000    5.714 
#    0.000    5.000    0.000    0.000    0.000    0.000 
#    0.000    0.571    0.000    3.000    0.000    0.286 
#
# Total GULP energy -693947.690852 kJ/mol
# GULP energy per Si atom -12391.923051 kJ/mol
# Density = 1.809700 g / cm^3
# Si number density = 18.138280 Si / 1000 Ang^3
#
#
#
# Elastic Constant Matrix: (Units=GPa)
#
#
# Indices 1 2 3 4 5 6 
#
# 1 48.8073 25.2588 16.4448 0.0000 0.0000 0.0000
# 2 25.2588 95.8290 32.6053 0.0000 0.0000 0.0000
# 3 16.4448 32.6053 73.3212 0.0000 0.0000 0.0000
# 4 0.0000 0.0000 0.0000 23.7904 0.0000 0.0000
# 5 0.0000 0.0000 0.0000 0.0000 18.4238 0.0000
# 6 0.0000 0.0000 0.0000 0.0000 0.0000 24.0240
#
#
#
# Elastic Compliance Matrix: (Units=1/GPa)
#
#
# Indices 1 2 3 4 5 6 
#
# 1 0.024296 -0.005361 -0.003065 0.000000 0.000000 0.000000
# 2 -0.005361 0.013479 -0.004791 0.000000 0.000000 0.000000
# 3 -0.003065 -0.004791 0.016457 0.000000 0.000000 0.000000
# 4 0.000000 0.000000 0.000000 0.042034 0.000000 0.000000
# 5 0.000000 0.000000 0.000000 0.000000 0.054278 0.000000
# 6 0.000000 0.000000 0.000000 0.000000 0.000000 0.041625
#
#
# Mechanical properties :
#
#
# Convention : Reuss Voigt Hill
#
# Bulk Modulus (GPa) = 35.97638 40.73060 38.35349
# Shear Modulus (GPa) = 21.94247 22.82419 22.38333
#
# Velocity S-wave (km/s) = 3.48189 3.55116 3.51670
# Velocity P-wave (km/s) = 6.00353 6.27046 6.13845
#
# Compressibility (1/GPa) = 0.02779602
#
# Stress axis : x y z
#
# Youngs Moduli (GPa) = 41.15905 74.19172 60.76518
#
# Poissons Ratio (x) = 0.39775 0.18626
# Poissons Ratio (y) = 0.22066 0.29115
# Poissons Ratio (z) = 0.12616 0.35548
#
# Static dielectric constant tensor:
#      x y z
#    x 3.359700 0.000000 0.000000 
#    y 0.000000 3.537460 0.000000 
#    z 0.000000 0.000000 3.467350 
# 
# 
# High freq. dielectric constant tensor:
#      x y z
#    x 1.688890 0.000000 0.000000 
#    y 0.000000 1.704260 0.000000 
#    z 0.000000 0.000000 1.686940 
# 
# From -- ./inp_files/41344.got.cif
#   From: 2010.03.12/outbox.cif.g09.slc.cpg/sg65_21_cif.got.tgz:41344.got - 2010.04.10 20:52:16.
