data_PCOD8268000
_publ_section_title
;
Structure prediction by ZEFSAII (Michael W. Deem and Ramdas Pophale) SiO2 
 PCOD8268000
Probable space group: C M M M
;
_chemical_formula_sum "Si O2"
_cell_formula_units_Z 72
_cell_length_a 33.551337
_cell_length_b 13.852197
_cell_length_c 7.731314
_cell_angle_alpha 90.000000
_cell_angle_beta 90.000000
_cell_angle_gamma 90.000000
_cell_volume 3593.203405
_symmetry_space_group_name_H-M "C M M M"
_symmetry_group_IT_number 65
_symmetry_cell_setting 'orthorhombic'
loop_
_space_group_symop_operation_xyz
x,y,z
-x,-y,z
x,-y,-z
-x,y,-z
-x,-y,-z
x,y,-z
-x,y,z
x,-y,z
1/2+x,1/2+y,z
1/2-x,1/2-y,z
1/2+x,1/2-y,-z
1/2-x,1/2+y,-z
1/2-x,1/2-y,-z
1/2+x,1/2+y,-z
1/2-x,1/2+y,z
1/2+x,1/2-y,z
loop_
_atom_site_type_symbol
_atom_site_label
_atom_site_fract_x
_atom_site_fract_y
_atom_site_fract_z
Si Si1 0.545754 0.742963 0.194369
Si Si2 0.952735 0.107300 0.500000
Si Si3 0.769811 0.893730 0.294203
Si Si4 0.689899 0.795633 0.705473
Si Si5 0.109304 0.610203 0.294539
O O1 0.500000 0.768441 0.237435
O O2 0.562242 0.662915 0.328450
O O3 0.570340 0.841314 0.213299
O O4 0.549922 0.701577 0.000000
O O5 0.000000 0.099388 0.500000
O O6 0.933828 0.000000 0.500000
O O7 0.769054 0.896157 0.500000
O O8 0.726068 0.862486 0.226824
O O9 0.802540 0.814997 0.231845
O O10 0.780365 0.000000 0.219583
O O11 0.688809 0.800091 0.500000
O O12 0.648292 0.834967 0.780106
O O13 0.107236 0.617113 0.500000
O O14 0.110725 0.500000 0.231869
#
# Coordination Sequence:
#
# PCOD8268000 Si02
#       5
#    16   8  16  16  16
#     4  10  21  37  57  82 112 144 182 227 273 325
#     4   9  18  36  61  85 109 138 176 221 269 322
#     4   8  12  20  36  59  90 129 172 219 270 323
#     4   8  14  23  37  61  95 132 175 224 271 324
#     4  10  19  31  49  72 104 145 186 229 278 331
#
# _framework density 20.037828999999999
#
# number of rings (size 3 to 8) (size 9 to 14) (size 15 to 20)
#    0.000    3.000    1.111    2.000    0.000    4.000 
#    0.000    5.556    0.000    0.000    0.000    3.111 
#    0.000    1.778    0.000    0.000    0.000    0.000 
#
# Total GULP energy -446214.807897 kJ/mol
# GULP energy per Si atom -12394.855775 kJ/mol
# Density = 1.999222 g / cm^3
# Si number density = 20.037829 Si / 1000 Ang^3
#
#
#
# Elastic Constant Matrix: (Units=GPa)
#
#
# Indices 1 2 3 4 5 6 
#
# 1 100.8905 75.7713 26.6597 0.0000 0.0000 0.0000
# 2 75.7713 193.8876 40.1239 0.0000 0.0000 0.0000
# 3 26.6597 40.1239 65.3127 0.0000 0.0000 0.0000
# 4 0.0000 0.0000 0.0000 3.6193 0.0000 0.0000
# 5 0.0000 0.0000 0.0000 0.0000 1.7040 0.0000
# 6 0.0000 0.0000 0.0000 0.0000 0.0000 31.2747
#
#
#
# Elastic Compliance Matrix: (Units=1/GPa)
#
#
# Indices 1 2 3 4 5 6 
#
# 1 0.014458 -0.005074 -0.002784 0.000000 0.000000 0.000000
# 2 -0.005074 0.007690 -0.002653 0.000000 0.000000 0.000000
# 3 -0.002784 -0.002653 0.018077 0.000000 0.000000 0.000000
# 4 0.000000 0.000000 0.000000 0.276298 0.000000 0.000000
# 5 0.000000 0.000000 0.000000 0.000000 0.586865 0.000000
# 6 0.000000 0.000000 0.000000 0.000000 0.000000 0.031975
#
#
# Mechanical properties :
#
#
# Convention : Reuss Voigt Hill
#
# Bulk Modulus (GPa) = 52.07684 71.68892 61.88288
# Shear Modulus (GPa) = 5.19326 21.82198 13.50762
#
# Velocity S-wave (km/s) = 1.61163 3.30364 2.59917
# Velocity P-wave (km/s) = 5.43220 7.09975 6.32121
#
# Compressibility (1/GPa) = 0.01920239
#
# Stress axis : x y z
#
# Youngs Moduli (GPa) = 69.16460 130.04657 55.31811
#
# Poissons Ratio (x) = 0.65986 0.15403
# Poissons Ratio (y) = 0.35095 0.14675
# Poissons Ratio (z) = 0.19259 0.34499
#
# Static dielectric constant tensor:
#      x y z
#    x 3.605950 0.000000 0.000000 
#    y 0.000000 3.983390 0.000000 
#    z 0.000000 0.000000 3.280460 
# 
# 
# High freq. dielectric constant tensor:
#      x y z
#    x 1.763340 0.000000 0.000000 
#    y 0.000000 1.783270 0.000000 
#    z 0.000000 0.000000 1.751940 
# 
# From -- ./inp_files/18029.got.cif
#   From: 2010.03.12/outbox.cif.g09.slc.cpg/sg65_10_cif.got.tgz:18029.got - 2010.04.10 20:52:16.
