data_PCOD8268914
_publ_section_title
;
Structure prediction by ZEFSAII (Michael W. Deem and Ramdas Pophale) SiO2 
 PCOD8268914
Probable space group: C M M M
;
_chemical_formula_sum "Si O2"
_cell_formula_units_Z 80
_cell_length_a 8.991142
_cell_length_b 28.778634
_cell_length_c 18.112677
_cell_angle_alpha 90.000000
_cell_angle_beta 90.000000
_cell_angle_gamma 90.000000
_cell_volume 4686.705615
_symmetry_space_group_name_H-M "C M M M"
_symmetry_group_IT_number 65
_symmetry_cell_setting 'orthorhombic'
loop_
_space_group_symop_operation_xyz
x,y,z
-x,-y,z
x,-y,-z
-x,y,-z
-x,-y,-z
x,y,-z
-x,y,z
x,-y,z
1/2+x,1/2+y,z
1/2-x,1/2-y,z
1/2+x,1/2-y,-z
1/2-x,1/2+y,-z
1/2-x,1/2-y,-z
1/2+x,1/2+y,-z
1/2-x,1/2+y,z
1/2+x,1/2-y,z
loop_
_atom_site_type_symbol
_atom_site_label
_atom_site_fract_x
_atom_site_fract_y
_atom_site_fract_z
Si Si1 0.329384 0.948379 0.855218
Si Si2 0.175332 0.800388 0.339780
Si Si3 0.836031 0.944913 0.000000
Si Si4 0.172794 0.354840 0.211294
Si Si5 0.170120 0.797896 0.500000
Si Si6 0.673420 0.299165 0.084510
O O1 0.500000 0.951581 0.878759
O O2 0.307343 0.911027 0.789549
O O3 0.272343 0.000000 0.830710
O O4 0.244862 0.928191 0.926275
O O5 0.250000 0.750000 0.330037
O O6 0.244733 0.836466 0.283215
O O7 0.208150 0.822778 0.421783
O O8 0.000000 0.795094 0.324775
O O9 0.000000 0.922521 0.000000
O O10 0.842277 0.000000 0.000000
O O11 0.246440 0.335589 0.137140
O O12 0.000000 0.340559 0.213849
O O13 0.250000 0.750000 0.500000
O O14 0.000000 0.784381 0.500000
O O15 0.500000 0.294935 0.105008
O O16 0.750000 0.250000 0.098161
O O17 0.695057 0.315734 0.000000
#
# Coordination Sequence:
#
# PCOD8268914 Si02
#       6
#    16  16   8  16   8  16
#     4   9  19  35  51  67  91 125 163 202 246 294
#     4  10  19  33  52  75 104 132 161 195 234 284
#     4   9  17  29  47  69  90 113 148 199 251 293
#     4  11  22  33  49  72  97 127 163 201 244 289
#     4   8  16  30  50  74  99 130 159 189 232 281
#     4  10  21  36  51  67  91 126 165 204 241 282
#
# _framework density 17.069559999999999
#
# number of rings (size 3 to 8) (size 9 to 14) (size 15 to 20)
#    0.000    2.300    0.000    2.700    1.400    4.800 
#    0.000    0.000    0.000    0.000    0.000    0.700 
#    0.000    5.600    0.000    0.000    0.000    0.000 
#
# Total GULP energy -495693.691398 kJ/mol
# GULP energy per Si atom -12392.342285 kJ/mol
# Density = 1.703071 g / cm^3
# Si number density = 17.069560 Si / 1000 Ang^3
#
#
#
# Elastic Constant Matrix: (Units=GPa)
#
#
# Indices 1 2 3 4 5 6 
#
# 1 103.0092 44.5847 58.2435 0.0000 0.0000 0.0000
# 2 44.5847 79.8826 63.9887 0.0000 0.0000 0.0000
# 3 58.2435 63.9887 123.4485 0.0000 0.0000 0.0000
# 4 0.0000 0.0000 0.0000 14.1386 0.0000 0.0000
# 5 0.0000 0.0000 0.0000 0.0000 22.3700 0.0000
# 6 0.0000 0.0000 0.0000 0.0000 0.0000 19.2516
#
#
#
# Elastic Compliance Matrix: (Units=1/GPa)
#
#
# Indices 1 2 3 4 5 6 
#
# 1 0.014066 -0.004334 -0.004390 0.000000 0.000000 0.000000
# 2 -0.004334 0.022742 -0.009743 0.000000 0.000000 0.000000
# 3 -0.004390 -0.009743 0.015222 0.000000 0.000000 0.000000
# 4 0.000000 0.000000 0.000000 0.070728 0.000000 0.000000
# 5 0.000000 0.000000 0.000000 0.000000 0.044703 0.000000
# 6 0.000000 0.000000 0.000000 0.000000 0.000000 0.051944
#
#
# Mechanical properties :
#
#
# Convention : Reuss Voigt Hill
#
# Bulk Modulus (GPa) = 66.24498 71.10823 68.67661
# Shear Modulus (GPa) = 19.12986 20.45359 19.79172
#
# Velocity S-wave (km/s) = 3.35132 3.46533 3.40880
# Velocity P-wave (km/s) = 7.33950 7.59998 7.47087
#
# Compressibility (1/GPa) = 0.01509548
#
# Stress axis : x y z
#
# Youngs Moduli (GPa) = 71.09421 43.97108 65.69420
#
# Poissons Ratio (x) = 0.19058 0.28838
# Poissons Ratio (y) = 0.30814 0.64008
# Poissons Ratio (z) = 0.31208 0.42843
#
# Static dielectric constant tensor:
#      x y z
#    x 3.399640 0.000000 0.000000 
#    y 0.000000 3.190020 0.000000 
#    z 0.000000 0.000000 3.977440 
# 
# 
# High freq. dielectric constant tensor:
#      x y z
#    x 1.675460 0.000000 0.000000 
#    y 0.000000 1.637930 0.000000 
#    z 0.000000 0.000000 1.646220 
# 
# From -- ./inp_files/49966.got.cif
#   From: 2010.03.12/outbox.cif.g09.slc.cpg/sg65_25_cif.got.tgz:49966.got - 2010.04.10 20:52:16.
