data_PCOD8268920
_publ_section_title
;
Structure prediction by ZEFSAII (Michael W. Deem and Ramdas Pophale) SiO2 
 PCOD8268920
Probable space group: C M M M
;
_chemical_formula_sum "Si O2"
_cell_formula_units_Z 104
_cell_length_a 18.208053
_cell_length_b 23.056724
_cell_length_c 13.877776
_cell_angle_alpha 90.000000
_cell_angle_beta 90.000000
_cell_angle_gamma 90.000000
_cell_volume 5826.140895
_symmetry_space_group_name_H-M "C M M M"
_symmetry_group_IT_number 65
_symmetry_cell_setting 'orthorhombic'
loop_
_space_group_symop_operation_xyz
x,y,z
-x,-y,z
x,-y,-z
-x,y,-z
-x,-y,-z
x,y,-z
-x,y,z
x,-y,z
1/2+x,1/2+y,z
1/2-x,1/2-y,z
1/2+x,1/2-y,-z
1/2-x,1/2+y,-z
1/2-x,1/2-y,-z
1/2+x,1/2+y,-z
1/2-x,1/2+y,z
1/2+x,1/2-y,z
loop_
_atom_site_type_symbol
_atom_site_label
_atom_site_fract_x
_atom_site_fract_y
_atom_site_fract_z
Si Si1 0.419447 0.437173 0.387089
Si Si2 0.000000 0.563465 0.885145
Si Si3 0.775072 0.067553 0.890897
Si Si4 0.871121 0.641549 0.110082
Si Si5 0.702552 0.807100 0.392675
Si Si6 0.410914 0.762287 0.744227
Si Si7 0.327078 0.356164 0.271043
O O1 0.426865 0.436875 0.500000
O O2 0.500000 0.427168 0.341071
O O3 0.388696 0.500000 0.352433
O O4 0.367245 0.384804 0.360646
O O5 0.929493 0.596848 0.846132
O O6 0.000000 0.500000 0.838209
O O7 0.000000 0.558720 0.000000
O O8 0.705215 0.108869 0.880749
O O9 0.831261 0.097230 0.816500
O O10 0.758313 0.000000 0.864798
O O11 0.806071 0.070770 0.000000
O O12 0.878884 0.701514 0.166428
O O13 0.888845 0.657290 0.000000
O O14 0.695155 0.836067 0.500000
O O15 0.750000 0.750000 0.404817
O O16 0.620689 0.791647 0.353804
O O17 0.744297 0.845450 0.311216
O O18 0.500000 0.758986 0.741000
O O19 0.373018 0.700063 0.760203
#
# Coordination Sequence:
#
# PCOD8268920 Si02
#       7
#    16   8  16  16  16  16  16
#     4   9  18  33  54  81 110 139 179 233 284 324
#     4   9  16  28  50  76 101 133 172 219 271 307
#     4  10  21  36  55  80 108 139 180 228 278 329
#     4  10  19  33  52  76 107 138 176 227 270 313
#     4   9  19  35  53  75 104 137 176 222 268 317
#     4  11  22  35  52  79 110 146 184 216 265 329
#     4  11  20  34  55  80 110 146 179 223 268 328
#
# _framework density 17.850581999999999
#
# number of rings (size 3 to 8) (size 9 to 14) (size 15 to 20)
#    0.000    2.077    2.308    2.308    0.000    3.385 
#    0.000    1.538    0.000    1.385    0.000    5.385 
#    0.000    1.846    0.000    0.000    0.000    0.000 
#
# Total GULP energy -644275.118550 kJ/mol
# GULP energy per Si atom -12389.906126 kJ/mol
# Density = 1.780995 g / cm^3
# Si number density = 17.850582 Si / 1000 Ang^3
#
#
#
# Elastic Constant Matrix: (Units=GPa)
#
#
# Indices 1 2 3 4 5 6 
#
# 1 76.0969 37.6919 29.2622 0.0000 0.0000 0.0000
# 2 37.6919 117.6279 46.7110 0.0000 0.0000 0.0000
# 3 29.2622 46.7110 86.1575 0.0000 0.0000 0.0000
# 4 0.0000 0.0000 0.0000 32.2259 0.0000 0.0000
# 5 0.0000 0.0000 0.0000 0.0000 13.0572 0.0000
# 6 0.0000 0.0000 0.0000 0.0000 0.0000 31.8406
#
#
#
# Elastic Compliance Matrix: (Units=1/GPa)
#
#
# Indices 1 2 3 4 5 6 
#
# 1 0.016394 -0.003877 -0.003466 0.000000 0.000000 0.000000
# 2 -0.003877 0.011751 -0.005054 0.000000 0.000000 0.000000
# 3 -0.003466 -0.005054 0.015524 0.000000 0.000000 0.000000
# 4 0.000000 0.000000 0.000000 0.031031 0.000000 0.000000
# 5 0.000000 0.000000 0.000000 0.000000 0.076586 0.000000
# 6 0.000000 0.000000 0.000000 0.000000 0.000000 0.031406
#
#
# Mechanical properties :
#
#
# Convention : Reuss Voigt Hill
#
# Bulk Modulus (GPa) = 52.98071 56.35694 54.66883
# Shear Modulus (GPa) = 23.38873 26.50588 24.94731
#
# Velocity S-wave (km/s) = 3.62367 3.85759 3.74245
# Velocity P-wave (km/s) = 6.87404 7.17505 7.02616
#
# Compressibility (1/GPa) = 0.01887480
#
# Stress axis : x y z
#
# Youngs Moduli (GPa) = 60.99689 85.10184 64.41649
#
# Poissons Ratio (x) = 0.32992 0.22328
# Poissons Ratio (y) = 0.23647 0.32556
# Poissons Ratio (z) = 0.21143 0.43010
#
# Static dielectric constant tensor:
#      x y z
#    x 0.740660 0.000000 0.000000 
#    y 0.000000 3.463510 0.000000 
#    z 0.000000 0.000000 3.343400 
# 
# 
# High freq. dielectric constant tensor:
#      x y z
#    x 1.681910 0.000000 0.000000 
#    y 0.000000 1.693490 0.000000 
#    z 0.000000 0.000000 1.681160 
# 
# From -- ./inp_files/42823.got.cif
#   From: 2010.03.12/outbox.cif.g09.slc.cpg/sg65_22_cif.got.tgz:42823.got - 2010.04.10 20:52:16.
