data_PCOD8268822
_publ_section_title
;
Structure prediction by ZEFSAII (Michael W. Deem and Ramdas Pophale) SiO2 
 PCOD8268822
Probable space group: C M M M
;
_chemical_formula_sum "Si O2"
_cell_formula_units_Z 64
_cell_length_a 22.384697
_cell_length_b 16.973448
_cell_length_c 8.960852
_cell_angle_alpha 90.000000
_cell_angle_beta 90.000000
_cell_angle_gamma 90.000000
_cell_volume 3404.635309
_symmetry_space_group_name_H-M "C M M M"
_symmetry_group_IT_number 65
_symmetry_cell_setting 'orthorhombic'
loop_
_space_group_symop_operation_xyz
x,y,z
-x,-y,z
x,-y,-z
-x,y,-z
-x,-y,-z
x,y,-z
-x,y,z
x,-y,z
1/2+x,1/2+y,z
1/2-x,1/2-y,z
1/2+x,1/2-y,-z
1/2-x,1/2+y,-z
1/2-x,1/2-y,-z
1/2+x,1/2+y,-z
1/2-x,1/2+y,z
1/2+x,1/2-y,z
loop_
_atom_site_type_symbol
_atom_site_label
_atom_site_fract_x
_atom_site_fract_y
_atom_site_fract_z
Si Si1 0.000000 0.910446 0.822824
Si Si2 0.933767 0.500000 0.322351
Si Si3 0.862202 0.351395 0.677470
Si Si4 0.232942 0.158957 0.334867
Si Si5 0.616264 0.314689 0.823524
O O1 0.059180 0.864558 0.766298
O O2 0.000000 0.000000 0.759336
O O3 0.000000 0.913179 0.000000
O O4 0.931511 0.500000 0.500000
O O5 0.903191 0.578769 0.261520
O O6 0.000000 0.500000 0.258337
O O7 0.865863 0.338223 0.500000
O O8 0.794889 0.379355 0.722661
O O9 0.885561 0.271867 0.753319
O O10 0.215355 0.128320 0.500000
O O11 0.250000 0.250000 0.341904
O O12 0.177303 0.140997 0.226362
O O13 0.616128 0.306948 0.000000
#
# Coordination Sequence:
#
# PCOD8268822 Si02
#       5
#     8   8  16  16  16
#     4   9  20  38  53  70 101 136 168 207 257 311
#     4   9  18  32  51  77 105 138 177 204 234 295
#     4   9  18  33  53  77 106 137 167 205 250 296
#     4   8  15  30  50  74 103 132 162 202 253 299
#     4  10  19  32  55  78  97 130 173 211 252 303
#
# _framework density 18.797901
#
# number of rings (size 3 to 8) (size 9 to 14) (size 15 to 20)
#    0.000    3.000    0.000    2.250    1.750    4.500 
#    2.250    2.500    0.000    6.000    0.000    0.000 
#    0.000    0.000    0.000    0.000    0.000    0.000 
#
# Total GULP energy -396552.584689 kJ/mol
# GULP energy per Si atom -12392.268272 kJ/mol
# Density = 1.875512 g / cm^3
# Si number density = 18.797901 Si / 1000 Ang^3
#
#
#
# Elastic Constant Matrix: (Units=GPa)
#
#
# Indices 1 2 3 4 5 6 
#
# 1 196.8451 89.9873 44.6133 0.0000 0.0000 0.0000
# 2 89.9873 110.2541 34.0312 0.0000 0.0000 0.0000
# 3 44.6133 34.0312 48.1441 0.0000 0.0000 0.0000
# 4 0.0000 0.0000 0.0000 15.0104 0.0000 0.0000
# 5 0.0000 0.0000 0.0000 0.0000 26.9178 0.0000
# 6 0.0000 0.0000 0.0000 0.0000 0.0000 32.8193
#
#
#
# Elastic Compliance Matrix: (Units=1/GPa)
#
#
# Indices 1 2 3 4 5 6 
#
# 1 0.008631 -0.005852 -0.003861 0.000000 0.000000 0.000000
# 2 -0.005852 0.015570 -0.005582 0.000000 0.000000 0.000000
# 3 -0.003861 -0.005582 0.028295 0.000000 0.000000 0.000000
# 4 0.000000 0.000000 0.000000 0.066620 0.000000 0.000000
# 5 0.000000 0.000000 0.000000 0.000000 0.037150 0.000000
# 6 0.000000 0.000000 0.000000 0.000000 0.000000 0.030470
#
#
# Mechanical properties :
#
#
# Convention : Reuss Voigt Hill
#
# Bulk Modulus (GPa) = 45.65442 76.94523 61.29982
# Shear Modulus (GPa) = 22.25905 27.39026 24.82466
#
# Velocity S-wave (km/s) = 3.44484 3.82133 3.63796
# Velocity P-wave (km/s) = 6.33737 7.77765 7.09416
#
# Compressibility (1/GPa) = 0.02190369
#
# Stress axis : x y z
#
# Youngs Moduli (GPa) = 115.86703 64.22742 35.34244
#
# Poissons Ratio (x) = 0.37589 0.13645
# Poissons Ratio (y) = 0.67811 0.19729
# Poissons Ratio (z) = 0.44734 0.35854
#
# Static dielectric constant tensor:
#      x y z
#    x 4.190850 0.000000 0.000000 
#    y 0.000000 3.419380 0.000000 
#    z 0.000000 0.000000 3.124720 
# 
# 
# High freq. dielectric constant tensor:
#      x y z
#    x 1.749330 0.000000 0.000000 
#    y 0.000000 1.711000 0.000000 
#    z 0.000000 0.000000 1.695830 
# 
# From -- ./inp_files/10838.got.cif
#   From: 2010.03.12/outbox.cif.g09.slc.cpg/sg65_6_cif.got.tgz:10838.got - 2010.04.10 20:52:16.
