data_PCOD8268423
_publ_section_title
;
Structure prediction by ZEFSAII (Michael W. Deem and Ramdas Pophale) SiO2 
 PCOD8268423
Probable space group: C M M M
;
_chemical_formula_sum "Si O2"
_cell_formula_units_Z 96
_cell_length_a 8.622841
_cell_length_b 20.235688
_cell_length_c 29.965210
_cell_angle_alpha 90.000000
_cell_angle_beta 90.000000
_cell_angle_gamma 90.000000
_cell_volume 5228.603128
_symmetry_space_group_name_H-M "C M M M"
_symmetry_group_IT_number 65
_symmetry_cell_setting 'orthorhombic'
loop_
_space_group_symop_operation_xyz
x,y,z
-x,-y,z
x,-y,-z
-x,y,-z
-x,-y,-z
x,y,-z
-x,y,z
x,-y,z
1/2+x,1/2+y,z
1/2-x,1/2-y,z
1/2+x,1/2-y,-z
1/2-x,1/2+y,-z
1/2-x,1/2-y,-z
1/2+x,1/2+y,-z
1/2-x,1/2+y,z
1/2+x,1/2-y,z
loop_
_atom_site_type_symbol
_atom_site_label
_atom_site_fract_x
_atom_site_fract_y
_atom_site_fract_z
Si Si1 0.821421 0.575518 0.551864
Si Si2 0.683850 0.819606 0.050415
Si Si3 0.815761 0.679248 0.710748
Si Si4 0.818614 0.819598 0.384588
Si Si5 0.684471 0.926404 0.880779
Si Si6 0.684317 0.926296 0.781231
O O1 0.787609 0.587362 0.500000
O O2 0.782528 0.500000 0.564831
O O3 0.711268 0.623883 0.579268
O O4 0.000000 0.591283 0.562994
O O5 0.500000 0.816981 0.053185
O O6 0.750000 0.750000 0.066942
O O7 0.753456 0.875636 0.083013
O O8 0.739296 0.835201 0.000000
O O9 0.750000 0.750000 0.725159
O O10 0.759732 0.658841 0.661690
O O11 0.748568 0.625547 0.745533
O O12 0.000000 0.681793 0.711317
O O13 0.750000 0.750000 0.401793
O O14 0.000000 0.810510 0.376802
O O15 0.500000 0.925297 0.882578
O O16 0.740716 0.906459 0.831013
O O17 0.744384 0.000000 0.892557
O O18 0.500000 0.925684 0.779642
O O19 0.744527 0.000000 0.769286
#
# Coordination Sequence:
#
# PCOD8268423 Si02
#       6
#    16  16  16  16  16  16
#     4   9  19  37  59  81 106 136 169 205 246 293
#     4   9  17  28  43  65  92 121 152 188 232 280
#     4  10  19  32  50  71  96 125 159 199 242 290
#     4  11  22  36  54  76 104 136 170 208 249 293
#     4   8  14  26  44  66  91 117 151 196 237 275
#     4   8  15  28  46  68  92 120 155 194 237 284
#
# _framework density 18.360543
#
# number of rings (size 3 to 8) (size 9 to 14) (size 15 to 20)
#    0.000    2.833    0.000    4.500    0.000    2.667 
#    0.000    4.167    0.000    3.000    0.000    7.000 
#    0.000    0.000    0.000    0.000    0.000    0.000 
#
# Total GULP energy -595090.883870 kJ/mol
# GULP energy per Si atom -12397.726747 kJ/mol
# Density = 1.831875 g / cm^3
# Si number density = 18.360543 Si / 1000 Ang^3
#
#
#
# Elastic Constant Matrix: (Units=GPa)
#
#
# Indices 1 2 3 4 5 6 
#
# 1 46.8921 26.9376 23.5177 0.0000 0.0000 0.0000
# 2 26.9376 140.9712 96.7532 0.0000 0.0000 0.0000
# 3 23.5177 96.7532 112.0192 0.0000 0.0000 0.0000
# 4 0.0000 0.0000 0.0000 46.2172 0.0000 0.0000
# 5 0.0000 0.0000 0.0000 0.0000 16.0882 0.0000
# 6 0.0000 0.0000 0.0000 0.0000 0.0000 27.0296
#
#
#
# Elastic Compliance Matrix: (Units=1/GPa)
#
#
# Indices 1 2 3 4 5 6 
#
# 1 0.024278 -0.002802 -0.002677 0.000000 0.000000 0.000000
# 2 -0.002802 0.017744 -0.014738 0.000000 0.000000 0.000000
# 3 -0.002677 -0.014738 0.022218 0.000000 0.000000 0.000000
# 4 0.000000 0.000000 0.000000 0.021637 0.000000 0.000000
# 5 0.000000 0.000000 0.000000 0.000000 0.062157 0.000000
# 6 0.000000 0.000000 0.000000 0.000000 0.000000 0.036996
#
#
# Mechanical properties :
#
#
# Convention : Reuss Voigt Hill
#
# Bulk Modulus (GPa) = 42.00430 66.03328 54.01879
# Shear Modulus (GPa) = 21.42259 28.04529 24.73394
#
# Velocity S-wave (km/s) = 3.41951 3.91253 3.67430
# Velocity P-wave (km/s) = 6.20628 7.51355 6.89098
#
# Compressibility (1/GPa) = 0.02380709
#
# Stress axis : x y z
#
# Youngs Moduli (GPa) = 41.19013 56.35747 45.00832
#
# Poissons Ratio (x) = 0.15790 0.12048
# Poissons Ratio (y) = 0.11541 0.66331
# Poissons Ratio (z) = 0.11026 0.83057
#
# Static dielectric constant tensor:
#      x y z
#    x 3.021760 0.000000 0.000000 
#    y 0.000000 3.591420 0.000000 
#    z 0.000000 0.000000 3.562750 
# 
# 
# High freq. dielectric constant tensor:
#      x y z
#    x 1.679870 0.000000 0.000000 
#    y 0.000000 1.718020 0.000000 
#    z 0.000000 0.000000 1.714750 
# 
# From -- ./inp_files/73219.got.cif
#   From: 2010.03.12/outbox.cif.g09.slc.cpg/sg65_37_cif.got.tgz:73219.got - 2010.04.10 20:52:16.
