data_PCOD8268718
_publ_section_title
;
Structure prediction by ZEFSAII (Michael W. Deem and Ramdas Pophale) SiO2 
 PCOD8268718
Probable space group: C M M M
;
_chemical_formula_sum "Si O2"
_cell_formula_units_Z 104
_cell_length_a 8.577778
_cell_length_b 21.246145
_cell_length_c 29.015475
_cell_angle_alpha 90.000000
_cell_angle_beta 90.000000
_cell_angle_gamma 90.000000
_cell_volume 5287.916977
_symmetry_space_group_name_H-M "C M M M"
_symmetry_group_IT_number 65
_symmetry_cell_setting 'orthorhombic'
loop_
_space_group_symop_operation_xyz
x,y,z
-x,-y,z
x,-y,-z
-x,y,-z
-x,-y,-z
x,y,-z
-x,y,z
x,-y,z
1/2+x,1/2+y,z
1/2-x,1/2-y,z
1/2+x,1/2-y,-z
1/2-x,1/2+y,-z
1/2-x,1/2-y,-z
1/2+x,1/2+y,-z
1/2-x,1/2+y,z
1/2+x,1/2-y,z
loop_
_atom_site_type_symbol
_atom_site_label
_atom_site_fract_x
_atom_site_fract_y
_atom_site_fract_z
Si Si1 0.314149 0.816451 0.115301
Si Si2 0.685135 0.570900 0.718127
Si Si3 0.819117 0.500000 0.549800
Si Si4 0.680026 0.401189 0.384011
Si Si5 0.320087 0.184310 0.549796
Si Si6 0.314896 0.930014 0.948142
Si Si7 0.685772 0.316640 0.216835
O O1 0.500000 0.813799 0.116193
O O2 0.250000 0.750000 0.095532
O O3 0.249927 0.874354 0.084351
O O4 0.249719 0.828279 0.166026
O O5 0.500000 0.572584 0.718756
O O6 0.743299 0.500000 0.731535
O O7 0.747281 0.588624 0.667267
O O8 0.748381 0.624411 0.752917
O O9 0.733786 0.500000 0.500000
O O10 0.775404 0.560035 0.578940
O O11 0.000000 0.500000 0.541636
O O12 0.500000 0.420354 0.384217
O O13 0.714465 0.333451 0.405327
O O14 0.305118 0.146165 0.500000
O O15 0.500000 0.186020 0.565186
O O16 0.250000 0.250000 0.536629
O O17 0.500000 0.927885 0.947724
O O18 0.259671 0.000000 0.931375
O O19 0.253364 0.918118 0.000000
O O20 0.500000 0.313424 0.216218
O O21 0.750000 0.250000 0.236553
#
# Coordination Sequence:
#
# PCOD8268718 Si02
#       7
#    16  16   8  16  16  16  16
#     4  10  19  32  52  78 108 139 178 227 272 322
#     4   9  19  37  58  80 106 138 177 221 269 323
#     4  11  23  37  53  77 109 141 173 211 256 307
#     4  11  21  36  58  80 104 135 173 215 260 315
#     4  10  21  37  55  77 107 139 172 211 255 309
#     4   8  15  29  49  74 106 145 185 225 272 323
#     4  10  20  36  58  79 106 142 179 223 274 329
#
# _framework density 19.667479
#
# number of rings (size 3 to 8) (size 9 to 14) (size 15 to 20)
#    0.000    2.231    0.769    3.923    0.000    4.923 
#    0.000    4.615    0.000    2.769    0.000    4.308 
#    0.000    0.000    0.000    0.000    0.000    0.000 
#
# Total GULP energy -644186.116471 kJ/mol
# GULP energy per Si atom -12388.194548 kJ/mol
# Density = 1.962272 g / cm^3
# Si number density = 19.667479 Si / 1000 Ang^3
#
#
#
# Elastic Constant Matrix: (Units=GPa)
#
#
# Indices 1 2 3 4 5 6 
#
# 1 53.2247 24.2055 24.6706 0.0000 0.0000 0.0000
# 2 24.2055 163.1753 97.1623 0.0000 0.0000 0.0000
# 3 24.6706 97.1623 122.0445 0.0000 0.0000 0.0000
# 4 0.0000 0.0000 0.0000 107.5437 0.0000 0.0000
# 5 0.0000 0.0000 0.0000 0.0000 20.6301 0.0000
# 6 0.0000 0.0000 0.0000 0.0000 0.0000 26.4733
#
#
#
# Elastic Compliance Matrix: (Units=1/GPa)
#
#
# Indices 1 2 3 4 5 6 
#
# 1 0.020836 -0.001108 -0.003330 0.000000 0.000000 0.000000
# 2 -0.001108 0.011711 -0.009099 0.000000 0.000000 0.000000
# 3 -0.003330 -0.009099 0.016111 0.000000 0.000000 0.000000
# 4 0.000000 0.000000 0.000000 0.009299 0.000000 0.000000
# 5 0.000000 0.000000 0.000000 0.000000 0.048473 0.000000
# 6 0.000000 0.000000 0.000000 0.000000 0.000000 0.037774
#
#
# Mechanical properties :
#
#
# Convention : Reuss Voigt Hill
#
# Bulk Modulus (GPa) = 46.33200 70.05791 58.19495
# Shear Modulus (GPa) = 28.01571 43.75648 35.88609
#
# Velocity S-wave (km/s) = 3.77831 4.72191 4.27622
# Velocity P-wave (km/s) = 6.53016 8.08870 7.35085
#
# Compressibility (1/GPa) = 0.02158336
#
# Stress axis : x y z
#
# Youngs Moduli (GPa) = 47.99485 85.39022 62.06954
#
# Poissons Ratio (x) = 0.09463 0.20666
# Poissons Ratio (y) = 0.05319 0.56479
# Poissons Ratio (z) = 0.15980 0.77699
#
# Static dielectric constant tensor:
#      x y z
#    x 3.270460 0.000000 0.000000 
#    y 0.000000 6.315260 0.000000 
#    z 0.000000 0.000000 3.715700 
# 
# 
# High freq. dielectric constant tensor:
#      x y z
#    x 1.740560 0.000000 0.000000 
#    y 0.000000 1.779240 0.000000 
#    z 0.000000 0.000000 1.764470 
# 
# From -- ./inp_files/73322.got.cif
#   From: 2010.03.12/outbox.cif.g09.slc.cpg/sg65_37_cif.got.tgz:73322.got - 2010.04.10 20:52:16.
