data_PCOD8268925
_publ_section_title
;
Structure prediction by ZEFSAII (Michael W. Deem and Ramdas Pophale) SiO2 
 PCOD8268925
Probable space group: C M M M
;
_chemical_formula_sum "Si O2"
_cell_formula_units_Z 80
_cell_length_a 18.523495
_cell_length_b 19.108264
_cell_length_c 12.592365
_cell_angle_alpha 90.000000
_cell_angle_beta 90.000000
_cell_angle_gamma 90.000000
_cell_volume 4457.090669
_symmetry_space_group_name_H-M "C M M M"
_symmetry_group_IT_number 65
_symmetry_cell_setting 'orthorhombic'
loop_
_space_group_symop_operation_xyz
x,y,z
-x,-y,z
x,-y,-z
-x,y,-z
-x,-y,-z
x,y,-z
-x,y,z
x,-y,z
1/2+x,1/2+y,z
1/2-x,1/2-y,z
1/2+x,1/2-y,-z
1/2-x,1/2+y,-z
1/2-x,1/2-y,-z
1/2+x,1/2+y,-z
1/2-x,1/2+y,z
1/2+x,1/2-y,z
loop_
_atom_site_type_symbol
_atom_site_label
_atom_site_fract_x
_atom_site_fract_y
_atom_site_fract_z
Si Si1 0.170109 0.718673 0.000000
Si Si2 0.735826 0.922554 0.620843
Si Si3 0.655109 0.578284 0.804735
Si Si4 0.828030 0.280703 0.378048
Si Si5 0.760663 0.421564 0.000000
Si Si6 0.916830 0.219310 0.193937
O O1 0.250000 0.750000 0.000000
O O2 0.174301 0.634116 0.000000
O O3 0.128529 0.742335 0.104098
O O4 0.763273 0.914353 0.500000
O O5 0.806078 0.910765 0.692268
O O6 0.674648 0.864469 0.643912
O O7 0.702504 0.000000 0.641603
O O8 0.621917 0.500000 0.814117
O O9 0.712899 0.591434 0.896492
O O10 0.591961 0.635294 0.814636
O O11 0.846836 0.263910 0.500000
O O12 0.750000 0.250000 0.346608
O O13 0.890265 0.246565 0.307807
O O14 0.793418 0.500000 0.000000
O O15 0.000000 0.238304 0.179193
#
# Coordination Sequence:
#
# PCOD8268925 Si02
#       6
#     8  16  16  16   8  16
#     4  12  21  38  63  80 103 143 184 227 265 310
#     4   9  17  30  53  82 106 132 176 230 272 308
#     4  10  19  33  52  78 110 142 175 211 262 323
#     4  10  19  34  57  80 105 142 186 228 266 309
#     4  10  20  34  58  86 105 129 174 228 271 309
#     4  12  24  36  53  81 115 147 178 217 269 322
#
# _framework density 17.948927999999999
#
# number of rings (size 3 to 8) (size 9 to 14) (size 15 to 20)
#    0.000    1.600    4.000    2.100    0.000    0.800 
#    0.000    0.000    0.000    6.000    0.000    7.000 
#    0.000    0.000    0.000    0.000    0.000    0.000 
#
# Total GULP energy -495990.536617 kJ/mol
# GULP energy per Si atom -12399.763415 kJ/mol
# Density = 1.790808 g / cm^3
# Si number density = 17.948928 Si / 1000 Ang^3
#
#
#
# Elastic Constant Matrix: (Units=GPa)
#
#
# Indices 1 2 3 4 5 6 
#
# 1 100.2798 53.8842 45.0280 0.0000 0.0000 0.0000
# 2 53.8842 140.7799 42.3601 0.0000 0.0000 0.0000
# 3 45.0280 42.3601 96.1318 0.0000 0.0000 0.0000
# 4 0.0000 0.0000 0.0000 39.8500 0.0000 0.0000
# 5 0.0000 0.0000 0.0000 0.0000 -41.7438 0.0000
# 6 0.0000 0.0000 0.0000 0.0000 0.0000 20.1438
#
#
#
# Elastic Compliance Matrix: (Units=1/GPa)
#
#
# Indices 1 2 3 4 5 6 
#
# 1 0.014348 -0.004000 -0.004958 0.000000 0.000000 0.000000
# 2 -0.004000 0.009304 -0.002226 0.000000 0.000000 0.000000
# 3 -0.004958 -0.002226 0.013706 0.000000 0.000000 0.000000
# 4 0.000000 0.000000 0.000000 0.025094 0.000000 0.000000
# 5 0.000000 0.000000 0.000000 0.000000 -0.023956 0.000000
# 6 0.000000 0.000000 0.000000 0.000000 0.000000 0.049643
#
#
# Mechanical properties :
#
#
# Convention : Reuss Voigt Hill
#
# Bulk Modulus (GPa) = 66.71408 68.85958 67.78683
# Shear Modulus (GPa) = 43.28879 16.71127 30.00003
#
# Velocity S-wave (km/s) = 4.91631 3.05461 4.09272
# Velocity P-wave (km/s) = 8.33525 7.13361 7.75773
#
# Compressibility (1/GPa) = 0.01498934
#
# Stress axis : x y z
#
# Youngs Moduli (GPa) = 69.69829 107.47925 72.96251
#
# Poissons Ratio (x) = 0.42989 0.36174
# Poissons Ratio (y) = 0.27878 0.16244
# Poissons Ratio (z) = 0.34556 0.23928
#
# Static dielectric constant tensor:
#      x y z
#    x 2.795330 0.000000 0.000000 
#    y 0.000000 3.855060 0.000000 
#    z 0.000000 0.000000 3.497090 
# 
# 
# High freq. dielectric constant tensor:
#      x y z
#    x 1.631280 0.000000 0.000000 
#    y 0.000000 1.720260 0.000000 
#    z 0.000000 0.000000 1.717100 
# 
# From -- ./inp_files/26662.got.cif
#   From: 2010.03.12/outbox.cif.g09.slc.cpg/sg65_14_cif.got.tgz:26662.got - 2010.04.10 20:52:16.
