data_PCOD8268262
_publ_section_title
;
Structure prediction by ZEFSAII (Michael W. Deem and Ramdas Pophale) SiO2 
 PCOD8268262
Probable space group: C M M M
;
_chemical_formula_sum "Si O2"
_cell_formula_units_Z 72
_cell_length_a 8.936713
_cell_length_b 17.877714
_cell_length_c 23.531239
_cell_angle_alpha 90.000000
_cell_angle_beta 90.000000
_cell_angle_gamma 90.000000
_cell_volume 3759.538972
_symmetry_space_group_name_H-M "C M M M"
_symmetry_group_IT_number 65
_symmetry_cell_setting 'orthorhombic'
loop_
_space_group_symop_operation_xyz
x,y,z
-x,-y,z
x,-y,-z
-x,y,-z
-x,-y,-z
x,y,-z
-x,y,z
x,-y,z
1/2+x,1/2+y,z
1/2-x,1/2-y,z
1/2+x,1/2-y,-z
1/2-x,1/2+y,-z
1/2-x,1/2-y,-z
1/2+x,1/2+y,-z
1/2-x,1/2+y,z
1/2+x,1/2-y,z
loop_
_atom_site_type_symbol
_atom_site_label
_atom_site_fract_x
_atom_site_fract_y
_atom_site_fract_z
Si Si1 0.676103 0.169237 0.683200
Si Si2 0.329436 0.911584 0.000000
Si Si3 0.326879 0.414172 0.782927
Si Si4 0.177200 0.169547 0.102825
Si Si5 0.674595 0.170664 0.559921
O O1 0.500000 0.180019 0.690410
O O2 0.750000 0.250000 0.692934
O O3 0.732077 0.109898 0.728659
O O4 0.718718 0.133729 0.620633
O O5 0.243600 0.884067 0.944628
O O6 0.500000 0.881571 0.000000
O O7 0.325727 0.000000 0.000000
O O8 0.500000 0.402457 0.768364
O O9 0.290875 0.500000 0.797424
O O10 0.278648 0.364266 0.836351
O O11 0.250000 0.250000 0.096494
O O12 0.000000 0.175270 0.094845
O O13 0.716946 0.126981 0.500000
O O14 0.500000 0.185366 0.560866
O O15 0.750000 0.250000 0.557704
#
# Coordination Sequence:
#
# PCOD8268262 Si02
#       5
#    16   8  16  16  16
#     4  10  19  31  51  78 106 138 176 219 268 320
#     4  11  24  41  62  89 119 149 182 221 264 309
#     4  10  22  39  57  78 106 141 180 223 271 320
#     4  11  23  40  62  86 113 145 182 222 266 316
#     4   8  14  25  42  67  99 132 168 212 261 313
#
# _framework density 19.151284
#
# number of rings (size 3 to 8) (size 9 to 14) (size 15 to 20)
#    0.000    2.111    0.000    3.333    0.000    6.667 
#    0.000    0.000    0.000    0.667    0.000    4.667 
#    0.000    0.000    0.000    0.000    0.000    0.000 
#
# Total GULP energy -446080.617817 kJ/mol
# GULP energy per Si atom -12391.128273 kJ/mol
# Density = 1.910769 g / cm^3
# Si number density = 19.151284 Si / 1000 Ang^3
#
#
#
# Elastic Constant Matrix: (Units=GPa)
#
#
# Indices 1 2 3 4 5 6 
#
# 1 71.2419 27.1495 58.0050 0.0000 0.0000 0.0000
# 2 27.1495 61.4261 33.8983 0.0000 0.0000 0.0000
# 3 58.0050 33.8983 160.1406 0.0000 0.0000 0.0000
# 4 0.0000 0.0000 0.0000 2.1714 0.0000 0.0000
# 5 0.0000 0.0000 0.0000 0.0000 59.5194 0.0000
# 6 0.0000 0.0000 0.0000 0.0000 0.0000 24.4599
#
#
#
# Elastic Compliance Matrix: (Units=1/GPa)
#
#
# Indices 1 2 3 4 5 6 
#
# 1 0.021666 -0.005939 -0.006591 0.000000 0.000000 0.000000
# 2 -0.005939 0.020061 -0.002095 0.000000 0.000000 0.000000
# 3 -0.006591 -0.002095 0.009075 0.000000 0.000000 0.000000
# 4 0.000000 0.000000 0.000000 0.460539 0.000000 0.000000
# 5 0.000000 0.000000 0.000000 0.000000 0.016801 0.000000
# 6 0.000000 0.000000 0.000000 0.000000 0.000000 0.040883
#
#
# Mechanical properties :
#
#
# Convention : Reuss Voigt Hill
#
# Bulk Modulus (GPa) = 46.39838 58.99046 52.69442
# Shear Modulus (GPa) = 8.25820 28.81384 18.53602
#
# Velocity S-wave (km/s) = 2.07881 3.88305 3.11444
# Velocity P-wave (km/s) = 5.48104 7.13956 6.36455
#
# Compressibility (1/GPa) = 0.02155248
#
# Stress axis : x y z
#
# Youngs Moduli (GPa) = 46.15535 49.84801 110.19020
#
# Poissons Ratio (x) = 0.29605 0.72621
# Poissons Ratio (y) = 0.27412 0.23088
# Poissons Ratio (z) = 0.30419 0.10445
#
# Static dielectric constant tensor:
#      x y z
#    x 3.566050 0.000000 0.000000 
#    y 0.000000 3.182470 0.000000 
#    z 0.000000 0.000000 4.256720 
# 
# 
# High freq. dielectric constant tensor:
#      x y z
#    x 1.751840 0.000000 0.000000 
#    y 0.000000 1.711700 0.000000 
#    z 0.000000 0.000000 1.777460 
# 
# From -- ./inp_files/67064.got.cif
#   From: 2010.03.12/outbox.cif.g09.slc.cpg/sg65_34_cif.got.tgz:67064.got - 2010.04.10 20:52:16.
