data_PCOD8268402
_publ_section_title
;
Structure prediction by ZEFSAII (Michael W. Deem and Ramdas Pophale) SiO2 
 PCOD8268402
Probable space group: C M M M
;
_chemical_formula_sum "Si O2"
_cell_formula_units_Z 128
_cell_length_a 18.367955
_cell_length_b 17.497319
_cell_length_c 22.106843
_cell_angle_alpha 90.000000
_cell_angle_beta 90.000000
_cell_angle_gamma 90.000000
_cell_volume 7104.917565
_symmetry_space_group_name_H-M "C M M M"
_symmetry_group_IT_number 65
_symmetry_cell_setting 'orthorhombic'
loop_
_space_group_symop_operation_xyz
x,y,z
-x,-y,z
x,-y,-z
-x,y,-z
-x,-y,-z
x,y,-z
-x,y,z
x,-y,z
1/2+x,1/2+y,z
1/2-x,1/2-y,z
1/2+x,1/2-y,-z
1/2-x,1/2+y,-z
1/2-x,1/2-y,-z
1/2+x,1/2+y,-z
1/2-x,1/2+y,z
1/2+x,1/2-y,z
loop_
_atom_site_type_symbol
_atom_site_label
_atom_site_fract_x
_atom_site_fract_y
_atom_site_fract_z
Si Si1 0.082283 0.370230 0.690981
Si Si2 0.085081 0.149857 0.568041
Si Si3 0.583135 0.912911 0.071421
Si Si4 0.586262 0.821918 0.435264
Si Si5 0.815417 0.298638 0.855169
Si Si6 0.282921 0.083235 0.757164
Si Si7 0.581088 0.280193 0.764194
Si Si8 0.356997 0.413299 0.687866
O O1 0.109802 0.374459 0.621190
O O2 0.134838 0.420986 0.731759
O O3 0.088006 0.282371 0.711366
O O4 0.000000 0.401595 0.698370
O O5 0.097933 0.117342 0.500000
O O6 0.115820 0.235952 0.571424
O O7 0.129909 0.101545 0.616987
O O8 0.000000 0.145296 0.584959
O O9 0.500000 0.895499 0.092166
O O10 0.637965 0.851002 0.099521
O O11 0.603698 0.000000 0.091184
O O12 0.589525 0.905228 0.000000
O O13 0.613062 0.856805 0.500000
O O14 0.500000 0.815351 0.435128
O O15 0.750000 0.250000 0.887558
O O16 0.774109 0.353160 0.808013
O O17 0.867105 0.238966 0.820564
O O18 0.228143 0.101843 0.702196
O O19 0.265811 0.000000 0.785429
O O20 0.500000 0.281917 0.791072
O O21 0.596738 0.361051 0.733207
O O22 0.379481 0.500000 0.702420
#
# Coordination Sequence:
#
# PCOD8268402 Si02
#       8
#    16  16  16  16  16  16  16  16
#     4   9  17  30  51  71  91 120 160 214 266 316
#     4   9  17  30  48  69  93 123 165 220 275 329
#     4   9  19  37  61  89 121 155 189 226 269 316
#     4   8  13  24  44  67  88 110 145 199 258 314
#     4  11  20  34  56  83 112 149 179 223 266 309
#     4  10  22  36  49  71 103 138 174 213 262 317
#     4  10  19  32  49  74 100 130 177 221 260 312
#     4  11  21  33  47  65  98 141 172 212 271 329
#
# _framework density 18.015692000000001
#
# number of rings (size 3 to 8) (size 9 to 14) (size 15 to 20)
#    0.000    2.375    2.500    2.250    0.000    2.250 
#    0.000    1.250    0.000    2.625    0.000    1.750 
#    0.000    0.000    0.000    8.250    0.000    0.000 
#
# Total GULP energy -793119.346805 kJ/mol
# GULP energy per Si atom -12392.489794 kJ/mol
# Density = 1.797469 g / cm^3
# Si number density = 18.015692 Si / 1000 Ang^3
#
#
#
# Elastic Constant Matrix: (Units=GPa)
#
#
# Indices 1 2 3 4 5 6 
#
# 1 87.7554 35.6961 33.2631 0.0000 0.0000 0.0000
# 2 35.6961 73.4574 28.4342 0.0000 0.0000 0.0000
# 3 33.2631 28.4342 61.7691 0.0000 0.0000 0.0000
# 4 0.0000 0.0000 0.0000 19.9726 0.0000 0.0000
# 5 0.0000 0.0000 0.0000 0.0000 26.7796 0.0000
# 6 0.0000 0.0000 0.0000 0.0000 0.0000 21.3837
#
#
#
# Elastic Compliance Matrix: (Units=1/GPa)
#
#
# Indices 1 2 3 4 5 6 
#
# 1 0.015883 -0.005363 -0.006084 0.000000 0.000000 0.000000
# 2 -0.005363 0.018376 -0.005571 0.000000 0.000000 0.000000
# 3 -0.006084 -0.005571 0.022030 0.000000 0.000000 0.000000
# 4 0.000000 0.000000 0.000000 0.050068 0.000000 0.000000
# 5 0.000000 0.000000 0.000000 0.000000 0.037342 0.000000
# 6 0.000000 0.000000 0.000000 0.000000 0.000000 0.046765
#
#
# Mechanical properties :
#
#
# Convention : Reuss Voigt Hill
#
# Bulk Modulus (GPa) = 44.93883 46.41877 45.67880
# Shear Modulus (GPa) = 21.55929 21.99974 21.77952
#
# Velocity S-wave (km/s) = 3.46308 3.49828 3.48072
# Velocity P-wave (km/s) = 6.40227 6.49145 6.44701
#
# Compressibility (1/GPa) = 0.02225247
#
# Stress axis : x y z
#
# Youngs Moduli (GPa) = 62.95997 54.41900 45.39213
#
# Poissons Ratio (x) = 0.29186 0.27618
# Poissons Ratio (y) = 0.33766 0.25288
# Poissons Ratio (z) = 0.38307 0.30316
#
# Static dielectric constant tensor:
#      x y z
#    x 3.282060 0.000000 0.000000 
#    y 0.000000 3.210050 0.000000 
#    z 0.000000 0.000000 3.311980 
# 
# 
# High freq. dielectric constant tensor:
#      x y z
#    x 1.686060 0.000000 0.000000 
#    y 0.000000 1.686170 0.000000 
#    z 0.000000 0.000000 1.678670 
# 
# From -- ./inp_files/64860.got.cif
#   From: 2010.03.12/outbox.cif.g09.slc.cpg/sg65_33_cif.got.tgz:64860.got - 2010.04.10 20:52:16.
