data_PCOD8268175
_publ_section_title
;
Structure prediction by ZEFSAII (Michael W. Deem and Ramdas Pophale) SiO2 
 PCOD8268175
Probable space group: C M M M
;
_chemical_formula_sum "Si O2"
_cell_formula_units_Z 96
_cell_length_a 9.135037
_cell_length_b 18.253006
_cell_length_c 30.885437
_cell_angle_alpha 90.000000
_cell_angle_beta 90.000000
_cell_angle_gamma 90.000000
_cell_volume 5149.895990
_symmetry_space_group_name_H-M "C M M M"
_symmetry_group_IT_number 65
_symmetry_cell_setting 'orthorhombic'
loop_
_space_group_symop_operation_xyz
x,y,z
-x,-y,z
x,-y,-z
-x,y,-z
-x,-y,-z
x,y,-z
-x,y,z
x,-y,z
1/2+x,1/2+y,z
1/2-x,1/2-y,z
1/2+x,1/2-y,-z
1/2-x,1/2+y,-z
1/2-x,1/2-y,-z
1/2+x,1/2+y,-z
1/2-x,1/2+y,z
1/2+x,1/2-y,z
loop_
_atom_site_type_symbol
_atom_site_label
_atom_site_fract_x
_atom_site_fract_y
_atom_site_fract_z
Si Si1 0.669210 0.325795 0.045669
Si Si2 0.827322 0.828348 0.139818
Si Si3 0.169434 0.414802 0.787273
Si Si4 0.828043 0.672874 0.297635
Si Si5 0.830323 0.415334 0.381962
Si Si6 0.829548 0.175909 0.449834
O O1 0.500000 0.306380 0.046594
O O2 0.750000 0.250000 0.043820
O O3 0.708303 0.363283 0.091810
O O4 0.705769 0.369686 0.000000
O O5 0.750000 0.750000 0.146447
O O6 0.766749 0.886955 0.173261
O O7 0.000000 0.817496 0.147219
O O8 0.199862 0.500000 0.780090
O O9 0.219651 0.373792 0.743918
O O10 0.000000 0.399434 0.797767
O O11 0.750000 0.750000 0.295937
O O12 0.777173 0.629466 0.340176
O O13 0.000000 0.686222 0.298173
O O14 0.800692 0.500000 0.372360
O O15 0.735291 0.391719 0.423217
O O16 0.000000 0.400610 0.392294
O O17 0.799170 0.159391 0.500000
O O18 0.750000 0.250000 0.434731
O O19 0.000000 0.185077 0.439863
#
# Coordination Sequence:
#
# PCOD8268175 Si02
#       6
#    16  16  16  16  16  16
#     4   8  14  25  42  66  96 128 162 203 251 299
#     4  10  19  31  50  76 104 133 169 212 255 304
#     4  10  21  37  55  74 101 137 173 211 258 309
#     4  10  21  37  57  80 105 135 172 213 258 308
#     4  10  21  37  57  81 110 143 178 216 259 309
#     4  10  21  37  57  81 110 144 182 223 265 310
#
# _framework density 18.641154
#
# number of rings (size 3 to 8) (size 9 to 14) (size 15 to 20)
#    0.000    2.333    0.000    2.500    0.000    8.667 
#    0.000    1.667    0.000    3.500    0.000    3.500 
#    0.000    0.000    0.000    0.000    0.000    0.000 
#
# Total GULP energy -594941.443812 kJ/mol
# GULP energy per Si atom -12394.613413 kJ/mol
# Density = 1.859873 g / cm^3
# Si number density = 18.641154 Si / 1000 Ang^3
#
#
#
# Elastic Constant Matrix: (Units=GPa)
#
#
# Indices 1 2 3 4 5 6 
#
# 1 65.9206 45.7993 59.3696 0.0000 0.0000 0.0000
# 2 45.7993 108.8996 69.8586 0.0000 0.0000 0.0000
# 3 59.3696 69.8586 148.0140 0.0000 0.0000 0.0000
# 4 0.0000 0.0000 0.0000 7.0061 0.0000 0.0000
# 5 0.0000 0.0000 0.0000 0.0000 28.3671 0.0000
# 6 0.0000 0.0000 0.0000 0.0000 0.0000 30.1426
#
#
#
# Elastic Compliance Matrix: (Units=1/GPa)
#
#
# Indices 1 2 3 4 5 6 
#
# 1 0.026354 -0.006171 -0.007659 0.000000 0.000000 0.000000
# 2 -0.006171 0.014615 -0.004423 0.000000 0.000000 0.000000
# 3 -0.007659 -0.004423 0.011915 0.000000 0.000000 0.000000
# 4 0.000000 0.000000 0.000000 0.142732 0.000000 0.000000
# 5 0.000000 0.000000 0.000000 0.000000 0.035252 0.000000
# 6 0.000000 0.000000 0.000000 0.000000 0.000000 0.033176
#
#
# Mechanical properties :
#
#
# Convention : Reuss Voigt Hill
#
# Bulk Modulus (GPa) = 61.04708 74.76546 67.90627
# Shear Modulus (GPa) = 16.33935 22.95695 19.64815
#
# Velocity S-wave (km/s) = 2.96382 3.51311 3.25009
# Velocity P-wave (km/s) = 6.67323 7.52667 7.11276
#
# Compressibility (1/GPa) = 0.01638080
#
# Stress axis : x y z
#
# Youngs Moduli (GPa) = 37.94421 68.42185 83.92460
#
# Poissons Ratio (x) = 0.42222 0.64274
# Poissons Ratio (y) = 0.23415 0.37118
# Poissons Ratio (z) = 0.29060 0.30262
#
# Static dielectric constant tensor:
#      x y z
#    x 3.394770 0.000000 0.000000 
#    y 0.000000 3.140890 0.000000 
#    z 0.000000 0.000000 3.968500 
# 
# 
# High freq. dielectric constant tensor:
#      x y z
#    x 1.723380 0.000000 0.000000 
#    y 0.000000 1.697120 0.000000 
#    z 0.000000 0.000000 1.749400 
# 
# From -- ./inp_files/73121.got.cif
#   From: 2010.03.12/outbox.cif.g09.slc.cpg/sg65_37_cif.got.tgz:73121.got - 2010.04.10 20:52:16.
