data_PCOD8268988
_publ_section_title
;
Structure prediction by ZEFSAII (Michael W. Deem and Ramdas Pophale) SiO2 
 PCOD8268988
Probable space group: C M M M
;
_chemical_formula_sum "Si O2"
_cell_formula_units_Z 80
_cell_length_a 27.145361
_cell_length_b 8.884954
_cell_length_c 18.445889
_cell_angle_alpha 90.000000
_cell_angle_beta 90.000000
_cell_angle_gamma 90.000000
_cell_volume 4448.876973
_symmetry_space_group_name_H-M "C M M M"
_symmetry_group_IT_number 65
_symmetry_cell_setting 'orthorhombic'
loop_
_space_group_symop_operation_xyz
x,y,z
-x,-y,z
x,-y,-z
-x,y,-z
-x,-y,-z
x,y,-z
-x,y,z
x,-y,z
1/2+x,1/2+y,z
1/2-x,1/2-y,z
1/2+x,1/2-y,-z
1/2-x,1/2+y,-z
1/2-x,1/2-y,-z
1/2+x,1/2+y,-z
1/2-x,1/2+y,z
1/2+x,1/2-y,z
loop_
_atom_site_type_symbol
_atom_site_label
_atom_site_fract_x
_atom_site_fract_y
_atom_site_fract_z
Si Si1 0.944784 0.176458 0.212546
Si Si2 0.557720 0.823469 0.500000
Si Si3 0.855742 0.676716 0.144937
Si Si4 0.696881 0.821461 0.000000
Si Si5 0.106935 0.177692 0.361244
Si Si6 0.302663 0.178334 0.708400
O O1 0.909655 0.251597 0.152977
O O2 0.927326 0.218875 0.293099
O O3 0.000000 0.238781 0.201798
O O4 0.942719 0.000000 0.200169
O O5 0.500000 0.788928 0.500000
O O6 0.581396 0.748087 0.430349
O O7 0.568943 0.000000 0.500000
O O8 0.863001 0.500000 0.143113
O O9 0.820474 0.725384 0.211176
O O10 0.832024 0.736569 0.070731
O O11 0.750000 0.750000 0.000000
O O12 0.702499 0.000000 0.000000
O O13 0.160323 0.252839 0.350827
O O14 0.113349 0.000000 0.371336
O O15 0.250000 0.250000 0.693723
O O16 0.300024 0.000000 0.698966
#
# Coordination Sequence:
#
# PCOD8268988 Si02
#       6
#    16   8  16   8  16  16
#     4   9  18  33  53  76 101 131 170 213 253 297
#     4  11  23  37  54  79 110 139 167 205 253 303
#     4   9  19  33  50  74 103 134 170 211 253 303
#     4  10  20  34  51  74 103 133 168 209 255 304
#     4  10  20  35  55  78 104 135 172 212 254 301
#     4  10  19  33  53  77 104 135 172 212 256 304
#
# _framework density 17.982066
#
# number of rings (size 3 to 8) (size 9 to 14) (size 15 to 20)
#    0.000    2.300    0.000    2.700    0.000    4.400 
#    0.000    1.000    0.000    3.000    0.000    0.000 
#    0.000    0.000    0.000    0.000    0.000    0.000 
#
# Total GULP energy -496116.686494 kJ/mol
# GULP energy per Si atom -12402.917162 kJ/mol
# Density = 1.794114 g / cm^3
# Si number density = 17.982066 Si / 1000 Ang^3
#
#
#
# Elastic Constant Matrix: (Units=GPa)
#
#
# Indices 1 2 3 4 5 6 
#
# 1 177.1519 58.9867 74.2140 0.0000 0.0000 0.0000
# 2 58.9867 64.5691 46.0671 0.0000 0.0000 0.0000
# 3 74.2140 46.0671 118.3410 0.0000 0.0000 0.0000
# 4 0.0000 0.0000 0.0000 26.3365 0.0000 0.0000
# 5 0.0000 0.0000 0.0000 0.0000 26.1827 0.0000
# 6 0.0000 0.0000 0.0000 0.0000 0.0000 36.2800
#
#
#
# Elastic Compliance Matrix: (Units=1/GPa)
#
#
# Indices 1 2 3 4 5 6 
#
# 1 0.008994 -0.005804 -0.003381 0.000000 0.000000 0.000000
# 2 -0.005804 0.025188 -0.006165 0.000000 0.000000 0.000000
# 3 -0.003381 -0.006165 0.012970 0.000000 0.000000 0.000000
# 4 0.000000 0.000000 0.000000 0.037970 0.000000 0.000000
# 5 0.000000 0.000000 0.000000 0.000000 0.038193 0.000000
# 6 0.000000 0.000000 0.000000 0.000000 0.000000 0.027563
#
#
# Mechanical properties :
#
#
# Convention : Reuss Voigt Hill
#
# Bulk Modulus (GPa) = 60.78301 79.84418 70.31359
# Shear Modulus (GPa) = 26.72890 29.81279 28.27085
#
# Velocity S-wave (km/s) = 3.85959 4.07617 3.96936
# Velocity P-wave (km/s) = 7.33058 8.16407 7.75853
#
# Compressibility (1/GPa) = 0.01645197
#
# Stress axis : x y z
#
# Youngs Moduli (GPa) = 111.18747 39.70095 77.09941
#
# Poissons Ratio (x) = 0.23043 0.26065
# Poissons Ratio (y) = 0.64536 0.47534
# Poissons Ratio (z) = 0.37590 0.24477
#
# Static dielectric constant tensor:
#      x y z
#    x 3.489690 0.000000 0.000000 
#    y 0.000000 3.327880 0.000000 
#    z 0.000000 0.000000 3.433040 
# 
# 
# High freq. dielectric constant tensor:
#      x y z
#    x 1.706020 0.000000 0.000000 
#    y 0.000000 1.700430 0.000000 
#    z 0.000000 0.000000 1.686940 
# 
# From -- ./inp_files/49901.got.cif
#   From: 2010.03.12/outbox.cif.g09.slc.cpg/sg65_25_cif.got.tgz:49901.got - 2010.04.10 20:52:16.
