data_PCOD8268767
_publ_section_title
;
Structure prediction by ZEFSAII (Michael W. Deem and Ramdas Pophale) SiO2 
 PCOD8268767
Probable space group: C M M M
;
_chemical_formula_sum "Si O2"
_cell_formula_units_Z 64
_cell_length_a 7.595501
_cell_length_b 18.127718
_cell_length_c 22.522145
_cell_angle_alpha 90.000000
_cell_angle_beta 90.000000
_cell_angle_gamma 90.000000
_cell_volume 3101.053880
_symmetry_space_group_name_H-M "C M M M"
_symmetry_group_IT_number 65
_symmetry_cell_setting 'orthorhombic'
loop_
_space_group_symop_operation_xyz
x,y,z
-x,-y,z
x,-y,-z
-x,y,-z
-x,-y,-z
x,y,-z
-x,y,z
x,-y,z
1/2+x,1/2+y,z
1/2-x,1/2-y,z
1/2+x,1/2-y,-z
1/2-x,1/2+y,-z
1/2-x,1/2-y,-z
1/2+x,1/2+y,-z
1/2-x,1/2+y,z
1/2+x,1/2-y,z
loop_
_atom_site_type_symbol
_atom_site_label
_atom_site_fract_x
_atom_site_fract_y
_atom_site_fract_z
Si Si1 0.000000 0.915109 0.929916
Si Si2 0.206532 0.164601 0.627864
Si Si3 0.294284 0.334738 0.500000
Si Si4 0.707927 0.835678 0.142569
Si Si5 0.699931 0.919483 0.743032
O O1 0.821099 0.876572 0.907481
O O2 0.000000 0.000000 0.909209
O O3 0.000000 0.907637 0.000000
O O4 0.250000 0.250000 0.637458
O O5 0.279420 0.134689 0.563221
O O6 0.294747 0.116877 0.678550
O O7 0.000000 0.153002 0.631994
O O8 0.500000 0.347867 0.500000
O O9 0.250000 0.250000 0.500000
O O10 0.500000 0.849386 0.131306
O O11 0.750000 0.750000 0.141079
O O12 0.778562 0.866537 0.206109
O O13 0.500000 0.932060 0.760400
O O14 0.794940 0.000000 0.742458
#
# Coordination Sequence:
#
# PCOD8268767 Si02
#       5
#     8  16   8  16  16
#     4  11  26  46  70 102 137 174 216 260 314 380
#     4  10  19  32  53  79 107 147 191 245 301 362
#     4   8  16  30  47  72 105 139 189 241 297 358
#     4  11  23  43  68  99 131 170 215 269 317 372
#     4  10  22  38  57  83 117 154 198 249 307 368
#
# _framework density 20.638142999999999
#
# number of rings (size 3 to 8) (size 9 to 14) (size 15 to 20)
#    0.000    1.875    1.250    2.250    1.750    6.000 
#    0.000    1.875    0.000    3.750    0.000    0.000 
#    0.000    0.000    0.000    0.000    0.000    0.000 
#
# Total GULP energy -396476.156715 kJ/mol
# GULP energy per Si atom -12389.879897 kJ/mol
# Density = 2.059117 g / cm^3
# Si number density = 20.638143 Si / 1000 Ang^3
#
#
#
# Elastic Constant Matrix: (Units=GPa)
#
#
# Indices 1 2 3 4 5 6 
#
# 1 79.7307 31.5051 33.5157 0.0000 0.0000 0.0000
# 2 31.5051 151.2035 77.0795 0.0000 0.0000 0.0000
# 3 33.5157 77.0795 144.7426 0.0000 0.0000 0.0000
# 4 0.0000 0.0000 0.0000 24.7532 0.0000 0.0000
# 5 0.0000 0.0000 0.0000 0.0000 18.9409 0.0000
# 6 0.0000 0.0000 0.0000 0.0000 0.0000 3.2887
#
#
#
# Elastic Compliance Matrix: (Units=1/GPa)
#
#
# Indices 1 2 3 4 5 6 
#
# 1 0.014229 -0.001764 -0.002355 0.000000 0.000000 0.000000
# 2 -0.001764 0.009297 -0.004542 0.000000 0.000000 0.000000
# 3 -0.002355 -0.004542 0.009873 0.000000 0.000000 0.000000
# 4 0.000000 0.000000 0.000000 0.040399 0.000000 0.000000
# 5 0.000000 0.000000 0.000000 0.000000 0.052796 0.000000
# 6 0.000000 0.000000 0.000000 0.000000 0.000000 0.304072
#
#
# Mechanical properties :
#
#
# Convention : Reuss Voigt Hill
#
# Bulk Modulus (GPa) = 62.20613 73.31972 67.76292
# Shear Modulus (GPa) = 11.02905 24.96831 17.99868
#
# Velocity S-wave (km/s) = 2.31422 3.48201 2.95635
# Velocity P-wave (km/s) = 6.11127 7.19509 6.67521
#
# Compressibility (1/GPa) = 0.01607559
#
# Stress axis : x y z
#
# Youngs Moduli (GPa) = 70.27682 107.56501 101.28530
#
# Poissons Ratio (x) = 0.18976 0.23857
# Poissons Ratio (y) = 0.12398 0.46006
# Poissons Ratio (z) = 0.16553 0.48859
#
# Static dielectric constant tensor:
#      x y z
#    x 3.738340 0.000000 0.000000 
#    y 0.000000 3.758440 0.000000 
#    z 0.000000 0.000000 4.085690 
# 
# 
# High freq. dielectric constant tensor:
#      x y z
#    x 1.805550 0.000000 0.000000 
#    y 0.000000 1.794850 0.000000 
#    z 0.000000 0.000000 1.820810 
# 
# From -- ./inp_files/58764.got.cif
#   From: 2010.03.12/outbox.cif.g09.slc.cpg/sg65_30_cif.got.tgz:58764.got - 2010.04.10 20:52:16.
