data_PCOD8268111
_publ_section_title
;
Structure prediction by ZEFSAII (Michael W. Deem and Ramdas Pophale) SiO2 
 PCOD8268111
Probable space group: C M M M
;
_chemical_formula_sum "Si O2"
_cell_formula_units_Z 88
_cell_length_a 9.243575
_cell_length_b 18.519962
_cell_length_c 27.986954
_cell_angle_alpha 90.000000
_cell_angle_beta 90.000000
_cell_angle_gamma 90.000000
_cell_volume 4791.105064
_symmetry_space_group_name_H-M "C M M M"
_symmetry_group_IT_number 65
_symmetry_cell_setting 'orthorhombic'
loop_
_space_group_symop_operation_xyz
x,y,z
-x,-y,z
x,-y,-z
-x,y,-z
-x,-y,-z
x,y,-z
-x,y,z
x,-y,z
1/2+x,1/2+y,z
1/2-x,1/2-y,z
1/2+x,1/2-y,-z
1/2-x,1/2+y,-z
1/2-x,1/2-y,-z
1/2+x,1/2+y,-z
1/2-x,1/2+y,z
1/2+x,1/2-y,z
loop_
_atom_site_type_symbol
_atom_site_label
_atom_site_fract_x
_atom_site_fract_y
_atom_site_fract_z
Si Si1 0.172038 0.326457 0.909224
Si Si2 0.671302 0.080413 0.819644
Si Si3 0.831102 0.322634 0.374612
Si Si4 0.162379 0.085183 0.446505
Si Si5 0.328780 0.918660 0.000000
Si Si6 0.331388 0.177668 0.733940
O O1 0.250000 0.250000 0.912213
O O2 0.226604 0.368028 0.861971
O O3 0.000000 0.314072 0.909344
O O4 0.223766 0.375291 0.953531
O O5 0.500000 0.074553 0.822781
O O6 0.719884 0.113500 0.768767
O O7 0.738705 0.000000 0.824368
O O8 0.750000 0.250000 0.389235
O O9 0.778239 0.385314 0.409269
O O10 0.794029 0.345191 0.320224
O O11 0.000000 0.310104 0.381870
O O12 0.198796 0.112985 0.500000
O O13 0.000000 0.109850 0.432366
O O14 0.173963 0.000000 0.445061
O O15 0.500000 0.924724 0.000000
O O16 0.263004 0.000000 0.000000
O O17 0.500000 0.193818 0.740289
O O18 0.250000 0.250000 0.749109
#
# Coordination Sequence:
#
# PCOD8268111 Si02
#       6
#    16  16  16  16   8  16
#     4  10  19  31  50  73  97 128 163 201 244 289
#     4   9  17  30  49  72  96 125 163 202 240 284
#     4  10  20  33  51  75 101 130 164 203 246 291
#     4   9  19  36  55  74  99 131 164 200 245 295
#     4   9  17  30  49  73  98 125 164 208 242 281
#     4   9  18  32  50  71  96 126 159 198 241 287
#
# _framework density 18.367370999999999
#
# number of rings (size 3 to 8) (size 9 to 14) (size 15 to 20)
#    0.000    2.636    0.000    2.455    0.000    4.727 
#    0.000    2.727    0.000    4.364    0.000    0.000 
#    0.000    0.000    0.000    0.000    0.000    0.000 
#
# Total GULP energy -545574.366340 kJ/mol
# GULP energy per Si atom -12399.417417 kJ/mol
# Density = 1.832557 g / cm^3
# Si number density = 18.367371 Si / 1000 Ang^3
#
#
#
# Elastic Constant Matrix: (Units=GPa)
#
#
# Indices 1 2 3 4 5 6 
#
# 1 46.0844 38.6917 37.9908 0.0000 0.0000 0.0000
# 2 38.6917 137.1677 75.6764 0.0000 0.0000 0.0000
# 3 37.9908 75.6764 125.1542 0.0000 0.0000 0.0000
# 4 0.0000 0.0000 0.0000 35.3917 0.0000 0.0000
# 5 0.0000 0.0000 0.0000 0.0000 17.6594 0.0000
# 6 0.0000 0.0000 0.0000 0.0000 0.0000 30.0713
#
#
#
# Elastic Compliance Matrix: (Units=1/GPa)
#
#
# Indices 1 2 3 4 5 6 
#
# 1 0.031398 -0.005400 -0.006266 0.000000 0.000000 0.000000
# 2 -0.005400 0.011868 -0.005537 0.000000 0.000000 0.000000
# 3 -0.006266 -0.005537 0.013240 0.000000 0.000000 0.000000
# 4 0.000000 0.000000 0.000000 0.028255 0.000000 0.000000
# 5 0.000000 0.000000 0.000000 0.000000 0.056627 0.000000
# 6 0.000000 0.000000 0.000000 0.000000 0.000000 0.033254
#
#
# Mechanical properties :
#
#
# Convention : Reuss Voigt Hill
#
# Bulk Modulus (GPa) = 45.24657 68.12491 56.68574
# Shear Modulus (GPa) = 23.10354 27.02765 25.06560
#
# Velocity S-wave (km/s) = 3.55048 3.84018 3.69817
# Velocity P-wave (km/s) = 6.44170 7.53879 7.01174
#
# Compressibility (1/GPa) = 0.02210112
#
# Stress axis : x y z
#
# Youngs Moduli (GPa) = 31.84877 84.25677 75.52609
#
# Poissons Ratio (x) = 0.45496 0.47325
# Poissons Ratio (y) = 0.17197 0.41822
# Poissons Ratio (z) = 0.19956 0.46656
#
# Static dielectric constant tensor:
#      x y z
#    x 3.157570 0.000000 0.000000 
#    y 0.000000 3.435280 0.000000 
#    z 0.000000 0.000000 3.608590 
# 
# 
# High freq. dielectric constant tensor:
#      x y z
#    x 1.679200 0.000000 0.000000 
#    y 0.000000 1.714160 0.000000 
#    z 0.000000 0.000000 1.727040 
# 
# From -- ./inp_files/67511.got.cif
#   From: 2010.03.12/outbox.cif.g09.slc.cpg/sg65_34_cif.got.tgz:67511.got - 2010.04.10 20:52:16.
