data_PCOD8268464
_publ_section_title
;
Structure prediction by ZEFSAII (Michael W. Deem and Ramdas Pophale) SiO2 
 PCOD8268464
Probable space group: C M M M
;
_chemical_formula_sum "Si O2"
_cell_formula_units_Z 96
_cell_length_a 14.633934
_cell_length_b 29.073263
_cell_length_c 13.753103
_cell_angle_alpha 90.000000
_cell_angle_beta 90.000000
_cell_angle_gamma 90.000000
_cell_volume 5851.343104
_symmetry_space_group_name_H-M "C M M M"
_symmetry_group_IT_number 65
_symmetry_cell_setting 'orthorhombic'
loop_
_space_group_symop_operation_xyz
x,y,z
-x,-y,z
x,-y,-z
-x,y,-z
-x,-y,-z
x,y,-z
-x,y,z
x,-y,z
1/2+x,1/2+y,z
1/2-x,1/2-y,z
1/2+x,1/2-y,-z
1/2-x,1/2+y,-z
1/2-x,1/2-y,-z
1/2+x,1/2+y,-z
1/2-x,1/2+y,z
1/2+x,1/2-y,z
loop_
_atom_site_type_symbol
_atom_site_label
_atom_site_fract_x
_atom_site_fract_y
_atom_site_fract_z
Si Si1 0.192299 0.636335 0.387897
Si Si2 0.605140 0.449594 0.195309
Si Si3 0.191125 0.051523 0.393189
Si Si4 0.000000 0.340884 0.391242
Si Si5 0.000000 0.232566 0.389223
Si Si6 0.892625 0.854838 0.112097
Si Si7 0.683529 0.293536 0.275993
O O1 0.186888 0.652087 0.500000
O O2 0.221823 0.583733 0.375030
O O3 0.265344 0.668626 0.338127
O O4 0.092182 0.641393 0.338165
O O5 0.500000 0.452562 0.168548
O O6 0.649437 0.500000 0.167759
O O7 0.615041 0.440302 0.310866
O O8 0.647222 0.406076 0.137426
O O9 0.147326 0.061782 0.500000
O O10 0.229926 0.000000 0.388648
O O11 0.000000 0.361385 0.500000
O O12 0.000000 0.286670 0.392413
O O13 0.909289 0.217325 0.332956
O O14 0.000000 0.212793 0.500000
O O15 0.840699 0.815188 0.171400
O O16 0.000000 0.853158 0.137389
O O17 0.873461 0.844537 0.000000
O O18 0.750000 0.250000 0.260754
#
# Coordination Sequence:
#
# PCOD8268464 Si02
#       7
#    16  16  16   8   8  16  16
#     4  10  19  32  50  74 102 134 166 201 245 296
#     4   9  17  30  49  73 100 130 165 201 243 297
#     4   9  17  29  46  70 102 135 164 198 241 296
#     4   9  18  32  49  71 100 132 166 204 245 287
#     4  11  22  34  49  76 108 135 169 206 243 292
#     4  10  21  37  53  71  99 131 168 213 258 299
#     4  12  22  34  53  75 101 134 172 208 250 296
#
# _framework density 16.406489000000001
#
# number of rings (size 3 to 8) (size 9 to 14) (size 15 to 20)
#    0.000    2.000    4.167    0.500    0.000    1.667 
#    0.000    3.750    0.000    2.500    0.000    0.000 
#    0.000    0.000    0.000    3.667    0.000    0.167 
#
# Total GULP energy -594799.869200 kJ/mol
# GULP energy per Si atom -12391.663942 kJ/mol
# Density = 1.636915 g / cm^3
# Si number density = 16.406489 Si / 1000 Ang^3
#
#
#
# Elastic Constant Matrix: (Units=GPa)
#
#
# Indices 1 2 3 4 5 6 
#
# 1 79.1602 38.6604 32.4438 0.0000 0.0000 0.0000
# 2 38.6604 95.7299 46.2872 0.0000 0.0000 0.0000
# 3 32.4438 46.2872 80.9401 0.0000 0.0000 0.0000
# 4 0.0000 0.0000 0.0000 22.1632 0.0000 0.0000
# 5 0.0000 0.0000 0.0000 0.0000 29.3757 0.0000
# 6 0.0000 0.0000 0.0000 0.0000 0.0000 33.1182
#
#
#
# Elastic Compliance Matrix: (Units=1/GPa)
#
#
# Indices 1 2 3 4 5 6 
#
# 1 0.016579 -0.004813 -0.003893 0.000000 0.000000 0.000000
# 2 -0.004813 0.015836 -0.007127 0.000000 0.000000 0.000000
# 3 -0.003893 -0.007127 0.017991 0.000000 0.000000 0.000000
# 4 0.000000 0.000000 0.000000 0.045120 0.000000 0.000000
# 5 0.000000 0.000000 0.000000 0.000000 0.034042 0.000000
# 6 0.000000 0.000000 0.000000 0.000000 0.000000 0.030195
#
#
# Mechanical properties :
#
#
# Convention : Reuss Voigt Hill
#
# Bulk Modulus (GPa) = 53.36215 54.51256 53.93736
# Shear Modulus (GPa) = 25.29421 26.16067 25.72744
#
# Velocity S-wave (km/s) = 3.93073 3.99749 3.96425
# Velocity P-wave (km/s) = 7.29360 7.38951 7.34171
#
# Compressibility (1/GPa) = 0.01873987
#
# Stress axis : x y z
#
# Youngs Moduli (GPa) = 60.31838 63.14849 55.58389
#
# Poissons Ratio (x) = 0.30393 0.21639
# Poissons Ratio (y) = 0.29031 0.39613
# Poissons Ratio (z) = 0.23482 0.45004
#
# Static dielectric constant tensor:
#      x y z
#    x 3.208710 0.000000 0.000000 
#    y 0.000000 3.394560 0.000000 
#    z 0.000000 0.000000 3.016080 
# 
# 
# High freq. dielectric constant tensor:
#      x y z
#    x 1.609170 0.000000 0.000000 
#    y 0.000000 1.645160 0.000000 
#    z 0.000000 0.000000 1.612980 
# 
# From -- ./inp_files/25490.got.cif
#   From: 2010.03.12/outbox.cif.g09.slc.cpg/sg65_13_cif.got.tgz:25490.got - 2010.04.10 20:52:16.
