data_PCOD8268110
_publ_section_title
;
Structure prediction by ZEFSAII (Michael W. Deem and Ramdas Pophale) SiO2 
 PCOD8268110
Probable space group: C M M M
;
_chemical_formula_sum "Si O2"
_cell_formula_units_Z 112
_cell_length_a 29.198069
_cell_length_b 14.944778
_cell_length_c 14.754082
_cell_angle_alpha 90.000000
_cell_angle_beta 90.000000
_cell_angle_gamma 90.000000
_cell_volume 6438.071440
_symmetry_space_group_name_H-M "C M M M"
_symmetry_group_IT_number 65
_symmetry_cell_setting 'orthorhombic'
loop_
_space_group_symop_operation_xyz
x,y,z
-x,-y,z
x,-y,-z
-x,y,-z
-x,-y,-z
x,y,-z
-x,y,z
x,-y,z
1/2+x,1/2+y,z
1/2-x,1/2-y,z
1/2+x,1/2-y,-z
1/2-x,1/2+y,-z
1/2-x,1/2-y,-z
1/2+x,1/2+y,-z
1/2-x,1/2+y,z
1/2+x,1/2-y,z
loop_
_atom_site_type_symbol
_atom_site_label
_atom_site_fract_x
_atom_site_fract_y
_atom_site_fract_z
Si Si1 0.630607 0.601097 0.895345
Si Si2 0.447508 0.396833 0.758196
Si Si3 0.449394 0.106073 0.897980
Si Si4 0.138727 0.396916 0.791185
Si Si5 0.946383 0.774956 0.598516
Si Si6 0.302955 0.240877 0.894624
Si Si7 0.605124 0.099960 0.600794
O O1 0.646924 0.500000 0.872550
O O2 0.583478 0.625044 0.844834
O O3 0.671335 0.667655 0.866533
O O4 0.618524 0.611790 0.000000
O O5 0.500000 0.370551 0.781354
O O6 0.444274 0.500000 0.729384
O O7 0.426122 0.339338 0.675615
O O8 0.500000 0.142694 0.869044
O O9 0.410280 0.140392 0.828869
O O10 0.450936 0.000000 0.896379
O O11 0.437531 0.139254 0.000000
O O12 0.145347 0.500000 0.819646
O O13 0.179336 0.341549 0.835538
O O14 0.141663 0.385371 0.681843
O O15 0.926646 0.804467 0.500000
O O16 0.935204 0.670944 0.615571
O O17 0.000000 0.786570 0.599031
O O18 0.250000 0.250000 0.870927
O O19 0.310637 0.218580 0.000000
O O20 0.627807 0.111001 0.500000
O O21 0.583933 0.000000 0.610520
#
# Coordination Sequence:
#
# PCOD8268110 Si02
#       7
#    16  16  16  16  16  16  16
#     4   9  18  33  51  69  92 124 158 191 231 278
#     4   9  17  29  47  71  96 123 157 197 238 278
#     4   8  14  25  41  63  93 126 156 186 223 271
#     4  10  19  31  50  73  97 128 162 196 237 284
#     4   9  17  28  42  62  91 127 163 198 235 275
#     4  10  21  35  51  73  99 124 154 195 238 283
#     4   9  18  31  46  66  92 123 160 199 238 281
#
# _framework density 17.396514
#
# number of rings (size 3 to 8) (size 9 to 14) (size 15 to 20)
#    0.000    2.857    0.000    1.714    0.000    2.857 
#    0.000    7.857    0.000    1.286    0.000    0.000 
#    0.000    2.286    0.000    0.000    0.000    0.000 
#
# Total GULP energy -694057.284439 kJ/mol
# GULP energy per Si atom -12393.880079 kJ/mol
# Density = 1.735692 g / cm^3
# Si number density = 17.396514 Si / 1000 Ang^3
#
#
#
# Elastic Constant Matrix: (Units=GPa)
#
#
# Indices 1 2 3 4 5 6 
#
# 1 88.2851 46.2989 54.7637 0.0000 0.0000 0.0000
# 2 46.2989 81.8517 55.0646 0.0000 0.0000 0.0000
# 3 54.7637 55.0646 103.3595 0.0000 0.0000 0.0000
# 4 0.0000 0.0000 0.0000 25.7261 0.0000 0.0000
# 5 0.0000 0.0000 0.0000 0.0000 15.2696 0.0000
# 6 0.0000 0.0000 0.0000 0.0000 0.0000 25.1374
#
#
#
# Elastic Compliance Matrix: (Units=1/GPa)
#
#
# Indices 1 2 3 4 5 6 
#
# 1 0.018627 -0.006074 -0.006634 0.000000 0.000000 0.000000
# 2 -0.006074 0.021022 -0.007981 0.000000 0.000000 0.000000
# 3 -0.006634 -0.007981 0.017442 0.000000 0.000000 0.000000
# 4 0.000000 0.000000 0.000000 0.038871 0.000000 0.000000
# 5 0.000000 0.000000 0.000000 0.000000 0.065489 0.000000
# 6 0.000000 0.000000 0.000000 0.000000 0.000000 0.039781
#
#
# Mechanical properties :
#
#
# Convention : Reuss Voigt Hill
#
# Bulk Modulus (GPa) = 63.63911 65.08341 64.36126
# Shear Modulus (GPa) = 20.17367 21.05122 20.61244
#
# Velocity S-wave (km/s) = 3.40904 3.48240 3.44591
# Velocity P-wave (km/s) = 7.22194 7.32546 7.27388
#
# Compressibility (1/GPa) = 0.01571361
#
# Stress axis : x y z
#
# Youngs Moduli (GPa) = 53.68585 47.56891 57.33357
#
# Poissons Ratio (x) = 0.28891 0.38032
# Poissons Ratio (y) = 0.32606 0.45761
# Poissons Ratio (z) = 0.35613 0.37967
#
# Static dielectric constant tensor:
#      x y z
#    x 2.968620 0.000000 0.000000 
#    y 0.000000 3.304700 0.000000 
#    z 0.000000 0.000000 3.530350 
# 
# 
# High freq. dielectric constant tensor:
#      x y z
#    x 1.628470 0.000000 0.000000 
#    y 0.000000 1.674690 0.000000 
#    z 0.000000 0.000000 1.677050 
# 
# From -- ./inp_files/41388.got.cif
#   From: 2010.03.12/outbox.cif.g09.slc.cpg/sg65_21_cif.got.tgz:41388.got - 2010.04.10 20:52:16.
