data_PCOD8268363
_publ_section_title
;
Structure prediction by ZEFSAII (Michael W. Deem and Ramdas Pophale) SiO2 
 PCOD8268363
Probable space group: C M M M
;
_chemical_formula_sum "Si O2"
_cell_formula_units_Z 80
_cell_length_a 19.887590
_cell_length_b 8.621830
_cell_length_c 25.771152
_cell_angle_alpha 90.000000
_cell_angle_beta 90.000000
_cell_angle_gamma 90.000000
_cell_volume 4418.912946
_symmetry_space_group_name_H-M "C M M M"
_symmetry_group_IT_number 65
_symmetry_cell_setting 'orthorhombic'
loop_
_space_group_symop_operation_xyz
x,y,z
-x,-y,z
x,-y,-z
-x,y,-z
-x,-y,-z
x,y,-z
-x,y,z
x,-y,z
1/2+x,1/2+y,z
1/2-x,1/2-y,z
1/2+x,1/2-y,-z
1/2-x,1/2+y,-z
1/2-x,1/2-y,-z
1/2+x,1/2+y,-z
1/2-x,1/2+y,z
1/2+x,1/2-y,z
loop_
_atom_site_type_symbol
_atom_site_label
_atom_site_fract_x
_atom_site_fract_y
_atom_site_fract_z
Si Si1 0.920153 0.173521 0.054905
Si Si2 0.422707 0.678324 0.559969
Si Si3 0.178947 0.318997 0.362644
Si Si4 0.822370 0.183997 0.252703
Si Si5 0.424354 0.314309 0.833845
O O1 0.897678 0.251408 0.109766
O O2 0.000000 0.165827 0.057281
O O3 0.890753 0.000000 0.052735
O O4 0.897993 0.257837 0.000000
O O5 0.408410 0.714431 0.500000
O O6 0.500000 0.713838 0.573510
O O7 0.405605 0.500000 0.572618
O O8 0.376433 0.790131 0.593657
O O9 0.188229 0.500000 0.353038
O O10 0.250000 0.250000 0.381352
O O11 0.154754 0.240853 0.309268
O O12 0.750000 0.250000 0.237471
O O13 0.875758 0.248774 0.211049
O O14 0.819669 0.000000 0.252564
O O15 0.500000 0.255113 0.821972
O O16 0.423808 0.500000 0.836017
#
# Coordination Sequence:
#
# PCOD8268363 Si02
#       5
#    16  16  16  16  16
#     4   7   9  15  30  54  84 113 141 181 232 278
#     4   9  19  37  59  81 106 135 164 195 236 286
#     4  11  22  36  54  75 100 130 167 208 246 288
#     4  10  19  32  49  67  92 126 160 196 239 288
#     4   8  14  24  40  64  89 115 152 194 235 280
#
# _framework density 18.103999999999999
#
# number of rings (size 3 to 8) (size 9 to 14) (size 15 to 20)
#    0.000    3.000    0.000    6.000    0.000    2.000 
#    0.000    3.000    0.000    2.400    0.000    0.000 
#    0.000    2.400    0.000   20.000    0.000   16.800 
#
# Total GULP energy -495557.787083 kJ/mol
# GULP energy per Si atom -12388.944677 kJ/mol
# Density = 1.806279 g / cm^3
# Si number density = 18.104000 Si / 1000 Ang^3
#
#
#
# Elastic Constant Matrix: (Units=GPa)
#
#
# Indices 1 2 3 4 5 6 
#
# 1 82.2701 22.3155 77.7139 0.0000 0.0000 0.0000
# 2 22.3155 53.8825 27.9845 0.0000 0.0000 0.0000
# 3 77.7139 27.9845 136.8423 0.0000 0.0000 0.0000
# 4 0.0000 0.0000 0.0000 12.0442 0.0000 0.0000
# 5 0.0000 0.0000 0.0000 0.0000 10.2346 0.0000
# 6 0.0000 0.0000 0.0000 0.0000 0.0000 22.1057
#
#
#
# Elastic Compliance Matrix: (Units=1/GPa)
#
#
# Indices 1 2 3 4 5 6 
#
# 1 0.026825 -0.003577 -0.014502 0.000000 0.000000 0.000000
# 2 -0.003577 0.021241 -0.002312 0.000000 0.000000 0.000000
# 3 -0.014502 -0.002312 0.016017 0.000000 0.000000 0.000000
# 4 0.000000 0.000000 0.000000 0.083027 0.000000 0.000000
# 5 0.000000 0.000000 0.000000 0.000000 0.097707 0.000000
# 6 0.000000 0.000000 0.000000 0.000000 0.000000 0.045237
#
#
# Mechanical properties :
#
#
# Convention : Reuss Voigt Hill
#
# Bulk Modulus (GPa) = 42.92124 58.78030 50.85077
# Shear Modulus (GPa) = 14.76647 18.54231 16.65439
#
# Velocity S-wave (km/s) = 2.85905 3.20380 3.03632
# Velocity P-wave (km/s) = 5.88715 6.79885 6.35936
#
# Compressibility (1/GPa) = 0.02329849
#
# Stress axis : x y z
#
# Youngs Moduli (GPa) = 37.27920 47.07783 62.43555
#
# Poissons Ratio (x) = 0.16842 0.90546
# Poissons Ratio (y) = 0.13337 0.14437
# Poissons Ratio (z) = 0.54063 0.10885
#
# Static dielectric constant tensor:
#      x y z
#    x 3.172400 0.000000 0.000000 
#    y 0.000000 2.949620 0.000000 
#    z 0.000000 0.000000 3.817580 
# 
# 
# High freq. dielectric constant tensor:
#      x y z
#    x 1.673950 0.000000 0.000000 
#    y 0.000000 1.662540 0.000000 
#    z 0.000000 0.000000 1.723130 
# 
# From -- ./inp_files/75021.got.cif
#   From: 2010.03.12/outbox.cif.g09.slc.cpg/sg65_38_cif.got.tgz:75021.got - 2010.04.10 20:52:16.
