data_PCOD8268720
_publ_section_title
;
Structure prediction by ZEFSAII (Michael W. Deem and Ramdas Pophale) SiO2 
 PCOD8268720
Probable space group: C M M M
;
_chemical_formula_sum "Si O2"
_cell_formula_units_Z 64
_cell_length_a 15.488400
_cell_length_b 8.885478
_cell_length_c 22.356310
_cell_angle_alpha 90.000000
_cell_angle_beta 90.000000
_cell_angle_gamma 90.000000
_cell_volume 3076.716461
_symmetry_space_group_name_H-M "C M M M"
_symmetry_group_IT_number 65
_symmetry_cell_setting 'orthorhombic'
loop_
_space_group_symop_operation_xyz
x,y,z
-x,-y,z
x,-y,-z
-x,y,-z
-x,-y,-z
x,y,-z
-x,y,z
x,-y,z
1/2+x,1/2+y,z
1/2-x,1/2-y,z
1/2+x,1/2-y,-z
1/2-x,1/2+y,-z
1/2-x,1/2-y,-z
1/2+x,1/2+y,-z
1/2-x,1/2+y,z
1/2+x,1/2-y,z
loop_
_atom_site_type_symbol
_atom_site_label
_atom_site_fract_x
_atom_site_fract_y
_atom_site_fract_z
Si Si1 0.603100 0.330017 0.500000
Si Si2 0.602778 0.830450 0.381411
Si Si3 0.000000 0.321017 0.932747
Si Si4 0.162506 0.678455 0.857284
Si Si5 0.101729 0.174075 0.261040
O O1 0.637843 0.500000 0.500000
O O2 0.500000 0.327924 0.500000
O O3 0.639651 0.246007 0.558566
O O4 0.500000 0.830513 0.383490
O O5 0.635274 0.734996 0.324661
O O6 0.638456 0.000000 0.376769
O O7 0.084522 0.261233 0.898469
O O8 0.000000 0.500000 0.933377
O O9 0.000000 0.256127 0.000000
O O10 0.169035 0.500000 0.858775
O O11 0.250000 0.750000 0.883462
O O12 0.149641 0.731594 0.789566
O O13 0.000000 0.199816 0.254344
O O14 0.126920 0.000000 0.255110
#
# Coordination Sequence:
#
# PCOD8268720 Si02
#       5
#     8  16   8  16  16
#     4   9  15  23  35  57  94 137 184 238 295 350
#     4   9  16  25  40  64  97 139 187 237 294 355
#     4   9  20  40  65  91 123 162 199 238 289 349
#     4  11  22  38  61  89 121 158 200 244 294 350
#     4  10  19  32  52  78 110 147 192 244 298 353
#
# _framework density 20.801397000000001
#
# number of rings (size 3 to 8) (size 9 to 14) (size 15 to 20)
#    0.000    2.250    1.250    2.625    0.000    6.000 
#    0.000    0.000    0.000    5.250    0.000    0.875 
#    0.000    0.000    0.000    0.000    0.000    0.000 
#
# Total GULP energy -396886.020627 kJ/mol
# GULP energy per Si atom -12402.688145 kJ/mol
# Density = 2.075405 g / cm^3
# Si number density = 20.801397 Si / 1000 Ang^3
#
#
#
# Elastic Constant Matrix: (Units=GPa)
#
#
# Indices 1 2 3 4 5 6 
#
# 1 89.5385 39.4515 57.1260 0.0000 0.0000 0.0000
# 2 39.4515 116.4258 43.4702 0.0000 0.0000 0.0000
# 3 57.1260 43.4702 160.2363 0.0000 0.0000 0.0000
# 4 0.0000 0.0000 0.0000 21.2718 0.0000 0.0000
# 5 0.0000 0.0000 0.0000 0.0000 1.8733 0.0000
# 6 0.0000 0.0000 0.0000 0.0000 0.0000 23.4918
#
#
#
# Elastic Compliance Matrix: (Units=1/GPa)
#
#
# Indices 1 2 3 4 5 6 
#
# 1 0.015701 -0.003595 -0.004623 0.000000 0.000000 0.000000
# 2 -0.003595 0.010380 -0.001535 0.000000 0.000000 0.000000
# 3 -0.004623 -0.001535 0.008305 0.000000 0.000000 0.000000
# 4 0.000000 0.000000 0.000000 0.047011 0.000000 0.000000
# 5 0.000000 0.000000 0.000000 0.000000 0.533826 0.000000
# 6 0.000000 0.000000 0.000000 0.000000 0.000000 0.042568
#
#
# Mechanical properties :
#
#
# Convention : Reuss Voigt Hill
#
# Bulk Modulus (GPa) = 67.18918 71.81066 69.49992
# Shear Modulus (GPa) = 7.32863 24.40423 15.86643
#
# Velocity S-wave (km/s) = 1.87904 3.42892 2.76480
# Velocity P-wave (km/s) = 6.08918 7.09039 6.60877
#
# Compressibility (1/GPa) = 0.01488335
#
# Stress axis : x y z
#
# Youngs Moduli (GPa) = 63.68858 96.33778 120.40834
#
# Poissons Ratio (x) = 0.34629 0.55660
# Poissons Ratio (y) = 0.22893 0.18477
# Poissons Ratio (z) = 0.29440 0.14783
#
# Static dielectric constant tensor:
#      x y z
#    x 3.546600 0.000000 0.000000 
#    y 0.000000 3.729410 0.000000 
#    z 0.000000 0.000000 3.891700 
# 
# 
# High freq. dielectric constant tensor:
#      x y z
#    x 1.788000 0.000000 0.000000 
#    y 0.000000 1.812710 0.000000 
#    z 0.000000 0.000000 1.817760 
# 
# From -- ./inp_files/63233.got.cif
#   From: 2010.03.12/outbox.cif.g09.slc.cpg/sg65_32_cif.got.tgz:63233.got - 2010.04.10 20:52:16.
