data_PCOD8268041
_publ_section_title
;
Structure prediction by ZEFSAII (Michael W. Deem and Ramdas Pophale) SiO2 
 PCOD8268041
Probable space group: C M M M
;
_chemical_formula_sum "Si O2"
_cell_formula_units_Z 88
_cell_length_a 8.651102
_cell_length_b 18.009614
_cell_length_c 28.504623
_cell_angle_alpha 90.000000
_cell_angle_beta 90.000000
_cell_angle_gamma 90.000000
_cell_volume 4441.105997
_symmetry_space_group_name_H-M "C M M M"
_symmetry_group_IT_number 65
_symmetry_cell_setting 'orthorhombic'
loop_
_space_group_symop_operation_xyz
x,y,z
-x,-y,z
x,-y,-z
-x,y,-z
-x,-y,-z
x,y,-z
-x,y,z
x,-y,z
1/2+x,1/2+y,z
1/2-x,1/2-y,z
1/2+x,1/2-y,-z
1/2-x,1/2+y,-z
1/2-x,1/2-y,-z
1/2+x,1/2+y,-z
1/2-x,1/2+y,z
1/2+x,1/2-y,z
loop_
_atom_site_type_symbol
_atom_site_label
_atom_site_fract_x
_atom_site_fract_y
_atom_site_fract_z
Si Si1 0.678936 0.087458 0.088837
Si Si2 0.816382 0.830498 0.359014
Si Si3 0.816291 0.083303 0.448310
Si Si4 0.817450 0.831697 0.000000
Si Si5 0.816637 0.168478 0.823497
Si Si6 0.683633 0.583182 0.268036
O O1 0.500000 0.110400 0.088563
O O2 0.757077 0.114347 0.136364
O O3 0.701392 0.000000 0.084537
O O4 0.762683 0.125213 0.045583
O O5 0.750000 0.750000 0.350351
O O6 0.749827 0.862922 0.408033
O O7 0.757116 0.882682 0.316931
O O8 0.000000 0.826517 0.359822
O O9 0.762944 0.111556 0.500000
O O10 0.000000 0.081928 0.445561
O O11 0.753561 0.000000 0.439782
O O12 0.750000 0.750000 0.000000
O O13 0.000000 0.826522 0.000000
O O14 0.750000 0.250000 0.830638
O O15 0.756428 0.134562 0.774393
O O16 0.000000 0.172601 0.825452
O O17 0.500000 0.580045 0.267377
O O18 0.751525 0.500000 0.262858
#
# Coordination Sequence:
#
# PCOD8268041 Si02
#       6
#    16  16  16   8  16  16
#     4  11  24  42  63  88 119 152 188 231 278 327
#     4  10  19  31  49  73 102 134 169 213 265 319
#     4   8  14  26  46  71  96 126 170 219 260 304
#     4  12  25  42  65  91 121 155 193 234 277 326
#     4  11  22  37  58  83 113 146 183 226 273 327
#     4   9  18  33  54  78 102 134 179 226 268 315
#
# _framework density 19.814885
#
# number of rings (size 3 to 8) (size 9 to 14) (size 15 to 20)
#    0.000    2.000    0.000    4.909    0.000    5.818 
#    0.000    0.909    0.000    4.364    0.000    1.273 
#    0.000    0.000    0.000    0.000    0.000    0.000 
#
# Total GULP energy -545636.848011 kJ/mol
# GULP energy per Si atom -12400.837455 kJ/mol
# Density = 1.976979 g / cm^3
# Si number density = 19.814885 Si / 1000 Ang^3
#
#
#
# Elastic Constant Matrix: (Units=GPa)
#
#
# Indices 1 2 3 4 5 6 
#
# 1 66.9112 36.4726 41.9507 0.0000 0.0000 0.0000
# 2 36.4726 109.5610 52.3941 0.0000 0.0000 0.0000
# 3 41.9507 52.3941 159.4997 0.0000 0.0000 0.0000
# 4 0.0000 0.0000 0.0000 -928.1237 0.0000 0.0000
# 5 0.0000 0.0000 0.0000 0.0000 35.1966 0.0000
# 6 0.0000 0.0000 0.0000 0.0000 0.0000 27.8169
#
#
#
# Elastic Compliance Matrix: (Units=1/GPa)
#
#
# Indices 1 2 3 4 5 6 
#
# 1 0.019880 -0.004885 -0.003624 0.000000 0.000000 0.000000
# 2 -0.004885 0.012029 -0.002667 0.000000 0.000000 0.000000
# 3 -0.003624 -0.002667 0.008099 0.000000 0.000000 0.000000
# 4 0.000000 0.000000 0.000000 -0.001077 0.000000 0.000000
# 5 0.000000 0.000000 0.000000 0.000000 0.028412 0.000000
# 6 0.000000 0.000000 0.000000 0.000000 0.000000 0.035949
#
#
# Mechanical properties :
#
#
# Convention : Reuss Voigt Hill
#
# Bulk Modulus (GPa) = 56.63659 66.40075 61.51867
# Shear Modulus (GPa) = 38.01482 -159.34507 -60.66513
#
# Velocity S-wave (km/s) = 4.38482 -8.97727 -5.53917
# Velocity P-wave (km/s) = 7.36752 8.59488 3.12982
#
# Compressibility (1/GPa) = 0.01765643
#
# Stress axis : x y z
#
# Youngs Moduli (GPa) = 50.30172 83.13460 123.47645
#
# Poissons Ratio (x) = 0.40610 0.44749
# Poissons Ratio (y) = 0.24572 0.32925
# Poissons Ratio (z) = 0.18230 0.22168
#
# Static dielectric constant tensor:
#      x y z
#    x 3.328990 0.000000 0.000000 
#    y 0.000000 3.745590 0.000000 
#    z 0.000000 0.000000 3.977000 
# 
# 
# High freq. dielectric constant tensor:
#      x y z
#    x 1.738600 0.000000 0.000000 
#    y 0.000000 1.785000 0.000000 
#    z 0.000000 0.000000 1.795520 
# 
# From -- ./inp_files/76613.got.cif
#   From: 2010.03.12/outbox.cif.g09.slc.cpg/sg65_39_cif.got.tgz:76613.got - 2010.04.10 20:52:16.
