data_PCOD8268794
_publ_section_title
;
Structure prediction by ZEFSAII (Michael W. Deem and Ramdas Pophale) SiO2 
 PCOD8268794
Probable space group: C M M M
;
_chemical_formula_sum "Si O2"
_cell_formula_units_Z 88
_cell_length_a 18.909224
_cell_length_b 13.593032
_cell_length_c 18.014448
_cell_angle_alpha 90.000000
_cell_angle_beta 90.000000
_cell_angle_gamma 90.000000
_cell_volume 4630.319987
_symmetry_space_group_name_H-M "C M M M"
_symmetry_group_IT_number 65
_symmetry_cell_setting 'orthorhombic'
loop_
_space_group_symop_operation_xyz
x,y,z
-x,-y,z
x,-y,-z
-x,y,-z
-x,-y,-z
x,y,-z
-x,y,z
x,-y,z
1/2+x,1/2+y,z
1/2-x,1/2-y,z
1/2+x,1/2-y,-z
1/2-x,1/2+y,-z
1/2-x,1/2-y,-z
1/2+x,1/2+y,-z
1/2-x,1/2+y,z
1/2+x,1/2-y,z
loop_
_atom_site_type_symbol
_atom_site_label
_atom_site_fract_x
_atom_site_fract_y
_atom_site_fract_z
Si Si1 0.416988 0.795969 0.916012
Si Si2 0.634932 0.386672 0.662209
Si Si3 0.000000 0.385917 0.687565
Si Si4 0.750000 0.250000 0.698081
Si Si5 0.859270 0.612279 0.222203
Si Si6 0.500000 0.704833 0.587573
Si Si7 0.418881 0.391288 0.175749
O O1 0.500000 0.819342 0.911093
O O2 0.373855 0.872313 0.865286
O O3 0.399883 0.685510 0.888387
O O4 0.389633 0.806431 0.000000
O O5 0.651549 0.500000 0.643481
O O6 0.702019 0.317346 0.643402
O O7 0.568131 0.354138 0.614793
O O8 0.624907 0.370014 0.750172
O O9 0.068798 0.358754 0.735355
O O10 0.000000 0.317466 0.615311
O O11 0.000000 0.500000 0.662929
O O12 0.795708 0.320652 0.750559
O O13 0.837779 0.500000 0.236573
O O14 0.500000 0.708330 0.500000
O O15 0.500000 0.382456 0.200374
O O16 0.402096 0.500000 0.144242
#
# Coordination Sequence:
#
# PCOD8268794 Si02
#       7
#    16  16   8   8  16   8  16
#     4  10  19  32  53  83 118 150 194 256 308 349
#     4  11  22  38  62  92 119 154 202 246 293 353
#     4  10  20  40  68  90 117 157 209 252 278 337
#     4  12  22  38  64  88 122 154 198 250 294 352
#     4  11  22  38  62  88 113 155 205 250 296 346
#     4  12  23  41  68  96 127 155 190 243 297 347
#     4   9  16  30  55  80 108 149 197 246 289 338
#
# _framework density 19.005165000000002
#
# number of rings (size 3 to 8) (size 9 to 14) (size 15 to 20)
#    0.000    1.455    5.455    0.818    0.000    1.636 
#    0.000    3.636    0.000    0.000    0.000    0.000 
#    0.000    0.000    0.000    0.000    0.000    0.000 
#
# Total GULP energy -545652.617705 kJ/mol
# GULP energy per Si atom -12401.195857 kJ/mol
# Density = 1.896191 g / cm^3
# Si number density = 19.005165 Si / 1000 Ang^3
#
#
#
# Elastic Constant Matrix: (Units=GPa)
#
#
# Indices 1 2 3 4 5 6 
#
# 1 107.8120 65.3128 43.2758 0.0000 0.0000 0.0000
# 2 65.3128 123.7169 48.1733 0.0000 0.0000 0.0000
# 3 43.2758 48.1733 96.8189 0.0000 0.0000 0.0000
# 4 0.0000 0.0000 0.0000 19.9433 0.0000 0.0000
# 5 0.0000 0.0000 0.0000 0.0000 0.6849 0.0000
# 6 0.0000 0.0000 0.0000 0.0000 0.0000 28.3947
#
#
#
# Elastic Compliance Matrix: (Units=1/GPa)
#
#
# Indices 1 2 3 4 5 6 
#
# 1 0.014440 -0.006338 -0.003301 0.000000 0.000000 0.000000
# 2 -0.006338 0.012807 -0.003539 0.000000 0.000000 0.000000
# 3 -0.003301 -0.003539 0.013565 0.000000 0.000000 0.000000
# 4 0.000000 0.000000 0.000000 0.050142 0.000000 0.000000
# 5 0.000000 0.000000 0.000000 0.000000 1.460068 0.000000
# 6 0.000000 0.000000 0.000000 0.000000 0.000000 0.035218
#
#
# Mechanical properties :
#
#
# Convention : Reuss Voigt Hill
#
# Bulk Modulus (GPa) = 69.17649 71.31906 70.24778
# Shear Modulus (GPa) = 3.09135 21.24364 12.16750
#
# Velocity S-wave (km/s) = 1.27676 3.34695 2.53300
# Velocity P-wave (km/s) = 6.21702 7.24871 6.75259
#
# Compressibility (1/GPa) = 0.01445578
#
# Stress axis : x y z
#
# Youngs Moduli (GPa) = 69.25298 78.08212 73.71896
#
# Poissons Ratio (x) = 0.49487 0.24333
# Poissons Ratio (y) = 0.43891 0.26092
# Poissons Ratio (z) = 0.22859 0.27637
#
# Static dielectric constant tensor:
#      x y z
#    x 3.461710 0.000000 0.000000 
#    y 0.000000 3.740770 0.000000 
#    z 0.000000 0.000000 3.155700 
# 
# 
# High freq. dielectric constant tensor:
#      x y z
#    x 1.728880 0.000000 0.000000 
#    y 0.000000 1.761460 0.000000 
#    z 0.000000 0.000000 1.702250 
# 
# From -- ./inp_files/54378.got.cif
#   From: 2010.03.12/outbox.cif.g09.slc.cpg/sg65_28_cif.got.tgz:54378.got - 2010.04.10 20:52:16.
