data_PCOD8268473
_publ_section_title
;
Structure prediction by ZEFSAII (Michael W. Deem and Ramdas Pophale) SiO2 
 PCOD8268473
Probable space group: C M M M
;
_chemical_formula_sum "Si O2"
_cell_formula_units_Z 112
_cell_length_a 17.253885
_cell_length_b 19.603646
_cell_length_c 18.442866
_cell_angle_alpha 90.000000
_cell_angle_beta 90.000000
_cell_angle_gamma 90.000000
_cell_volume 6238.097543
_symmetry_space_group_name_H-M "C M M M"
_symmetry_group_IT_number 65
_symmetry_cell_setting 'orthorhombic'
loop_
_space_group_symop_operation_xyz
x,y,z
-x,-y,z
x,-y,-z
-x,y,-z
-x,-y,-z
x,y,-z
-x,y,z
x,-y,z
1/2+x,1/2+y,z
1/2-x,1/2-y,z
1/2+x,1/2-y,-z
1/2-x,1/2+y,-z
1/2-x,1/2-y,-z
1/2+x,1/2+y,-z
1/2-x,1/2+y,z
1/2+x,1/2-y,z
loop_
_atom_site_type_symbol
_atom_site_label
_atom_site_fract_x
_atom_site_fract_y
_atom_site_fract_z
Si Si1 0.306611 0.576682 0.813775
Si Si2 0.723653 0.172571 0.916533
Si Si3 0.254088 0.420632 0.578623
Si Si4 0.586435 0.644568 0.580180
Si Si5 0.588857 0.820208 0.191449
Si Si6 0.911484 0.817568 0.735948
Si Si7 0.161043 0.575771 0.287904
O O1 0.336544 0.500000 0.833840
O O2 0.289814 0.621795 0.885481
O O3 0.368081 0.614697 0.762556
O O4 0.227425 0.569806 0.771211
O O5 0.750000 0.250000 0.905892
O O6 0.641278 0.160659 0.877279
O O7 0.711451 0.153877 0.000000
O O8 0.228984 0.390928 0.500000
O O9 0.238892 0.500000 0.582886
O O10 0.346121 0.411004 0.590127
O O11 0.198864 0.388484 0.640399
O O12 0.594944 0.680330 0.500000
O O13 0.500000 0.610844 0.585092
O O14 0.596840 0.695272 0.648747
O O15 0.500000 0.815377 0.165879
O O16 0.621053 0.749270 0.224202
O O17 0.594123 0.876302 0.255649
O O18 0.000000 0.828358 0.757949
O O19 0.126905 0.500000 0.303518
#
# Coordination Sequence:
#
# PCOD8268473 Si02
#       7
#    16  16  16  16  16  16  16
#     4  10  19  33  53  78 107 140 175 213 257 309
#     4  10  20  36  59  84 108 138 170 207 258 315
#     4   9  16  27  44  68 100 136 177 224 269 317
#     4   9  17  28  43  67 104 145 180 221 272 319
#     4  10  21  36  56  80 105 137 174 219 267 312
#     4  10  19  32  50  75 108 145 183 220 261 313
#     4   9  18  32  51  74 100 133 175 221 270 318
#
# _framework density 17.954191999999999
#
# number of rings (size 3 to 8) (size 9 to 14) (size 15 to 20)
#    0.000    2.429    2.857    0.000    0.000    1.429 
#    0.000    3.571    0.000    3.429    0.000    7.000 
#    0.000    0.000    0.000    0.000    0.000    0.000 
#
# Total GULP energy -693773.551449 kJ/mol
# GULP energy per Si atom -12388.813419 kJ/mol
# Density = 1.791333 g / cm^3
# Si number density = 17.954192 Si / 1000 Ang^3
#
#
#
# Elastic Constant Matrix: (Units=GPa)
#
#
# Indices 1 2 3 4 5 6 
#
# 1 47.1266 16.1533 36.2749 0.0000 0.0000 0.0000
# 2 16.1533 82.3789 38.1095 0.0000 0.0000 0.0000
# 3 36.2749 38.1095 133.6772 0.0000 0.0000 0.0000
# 4 0.0000 0.0000 0.0000 21.0650 0.0000 0.0000
# 5 0.0000 0.0000 0.0000 0.0000 24.3131 0.0000
# 6 0.0000 0.0000 0.0000 0.0000 0.0000 19.3998
#
#
#
# Elastic Compliance Matrix: (Units=1/GPa)
#
#
# Indices 1 2 3 4 5 6 
#
# 1 0.027166 -0.002208 -0.006742 0.000000 0.000000 0.000000
# 2 -0.002208 0.014163 -0.003438 0.000000 0.000000 0.000000
# 3 -0.006742 -0.003438 0.010291 0.000000 0.000000 0.000000
# 4 0.000000 0.000000 0.000000 0.047472 0.000000 0.000000
# 5 0.000000 0.000000 0.000000 0.000000 0.041130 0.000000
# 6 0.000000 0.000000 0.000000 0.000000 0.000000 0.051547
#
#
# Mechanical properties :
#
#
# Convention : Reuss Voigt Hill
#
# Bulk Modulus (GPa) = 37.25504 49.36201 43.30853
# Shear Modulus (GPa) = 22.17364 24.46525 23.31944
#
# Velocity S-wave (km/s) = 3.51809 3.69541 3.60784
# Velocity P-wave (km/s) = 6.10718 6.76469 6.44433
#
# Compressibility (1/GPa) = 0.02684201
#
# Stress axis : x y z
#
# Youngs Moduli (GPa) = 36.81062 70.60844 97.17592
#
# Poissons Ratio (x) = 0.15588 0.65520
# Poissons Ratio (y) = 0.08127 0.33414
# Poissons Ratio (z) = 0.24819 0.24279
#
# Static dielectric constant tensor:
#      x y z
#    x 3.129790 0.000000 0.000000 
#    y 0.000000 3.375520 0.000000 
#    z 0.000000 0.000000 3.551780 
# 
# 
# High freq. dielectric constant tensor:
#      x y z
#    x 1.679310 0.000000 0.000000 
#    y 0.000000 1.671690 0.000000 
#    z 0.000000 0.000000 1.699710 
# 
# From -- ./inp_files/54861.got.cif
#   From: 2010.03.12/outbox.cif.g09.slc.cpg/sg65_28_cif.got.tgz:54861.got - 2010.04.10 20:52:16.
