data_PCOD8268201
_publ_section_title
;
Structure prediction by ZEFSAII (Michael W. Deem and Ramdas Pophale) SiO2 
 PCOD8268201
Probable space group: C M M M
;
_chemical_formula_sum "Si O2"
_cell_formula_units_Z 88
_cell_length_a 24.088873
_cell_length_b 14.795227
_cell_length_c 12.935853
_cell_angle_alpha 90.000000
_cell_angle_beta 90.000000
_cell_angle_gamma 90.000000
_cell_volume 4610.342462
_symmetry_space_group_name_H-M "C M M M"
_symmetry_group_IT_number 65
_symmetry_cell_setting 'orthorhombic'
loop_
_space_group_symop_operation_xyz
x,y,z
-x,-y,z
x,-y,-z
-x,y,-z
-x,-y,-z
x,y,-z
-x,y,z
x,-y,z
1/2+x,1/2+y,z
1/2-x,1/2-y,z
1/2+x,1/2-y,-z
1/2-x,1/2+y,-z
1/2-x,1/2-y,-z
1/2+x,1/2+y,-z
1/2-x,1/2+y,z
1/2+x,1/2-y,z
loop_
_atom_site_type_symbol
_atom_site_label
_atom_site_fract_x
_atom_site_fract_y
_atom_site_fract_z
Si Si1 0.622313 0.895357 0.792981
Si Si2 0.357161 0.399074 0.112232
Si Si3 0.437010 0.602757 0.284929
Si Si4 0.737093 0.854403 0.882970
Si Si5 0.437176 0.107450 0.000000
Si Si6 0.063558 0.715030 0.383588
O O1 0.688463 0.883919 0.805806
O O2 0.592978 0.856651 0.896464
O O3 0.603131 0.838649 0.694109
O O4 0.607235 0.000000 0.774139
O O5 0.379398 0.500000 0.098247
O O6 0.398267 0.354463 0.194812
O O7 0.293821 0.402897 0.152125
O O8 0.360011 0.348421 0.000000
O O9 0.500000 0.601101 0.244057
O O10 0.419429 0.500000 0.319359
O O11 0.430035 0.675481 0.376536
O O12 0.750000 0.750000 0.874786
O O13 0.720715 0.883227 0.000000
O O14 0.500000 0.143980 0.000000
O O15 0.435142 0.000000 0.000000
O O16 0.080012 0.687520 0.500000
O O17 0.000000 0.687585 0.359398
#
# Coordination Sequence:
#
# PCOD8268201 Si02
#       6
#    16  16  16  16   8  16
#     4  11  21  35  57  82 113 150 188 230 279 334
#     4   9  17  29  48  75 109 143 174 213 265 329
#     4   9  18  34  56  81 109 144 187 234 286 340
#     4  10  19  31  50  78 110 146 184 225 269 327
#     4   9  18  32  51  78 111 145 183 228 276 328
#     4  10  22  39  57  80 110 144 189 241 287 336
#
# _framework density 19.087520000000001
#
# number of rings (size 3 to 8) (size 9 to 14) (size 15 to 20)
#    0.000    2.273    0.909    2.182    0.000    2.909 
#    1.636    4.545    0.000    4.909    0.000    5.091 
#    0.000    0.000    0.000    0.000    0.000    0.000 
#
# Total GULP energy -545356.094413 kJ/mol
# GULP energy per Si atom -12394.456691 kJ/mol
# Density = 1.904408 g / cm^3
# Si number density = 19.087520 Si / 1000 Ang^3
#
#
#
# Elastic Constant Matrix: (Units=GPa)
#
#
# Indices 1 2 3 4 5 6 
#
# 1 88.0203 17.0366 52.3828 0.0000 0.0000 0.0000
# 2 17.0366 69.6760 35.2661 0.0000 0.0000 0.0000
# 3 52.3828 35.2661 108.1831 0.0000 0.0000 0.0000
# 4 0.0000 0.0000 0.0000 22.3493 0.0000 0.0000
# 5 0.0000 0.0000 0.0000 0.0000 18.5577 0.0000
# 6 0.0000 0.0000 0.0000 0.0000 0.0000 22.3188
#
#
#
# Elastic Compliance Matrix: (Units=1/GPa)
#
#
# Indices 1 2 3 4 5 6 
#
# 1 0.015960 0.000011 -0.007731 0.000000 0.000000 0.000000
# 2 0.000011 0.017188 -0.005608 0.000000 0.000000 0.000000
# 3 -0.007731 -0.005608 0.014815 0.000000 0.000000 0.000000
# 4 0.000000 0.000000 0.000000 0.044744 0.000000 0.000000
# 5 0.000000 0.000000 0.000000 0.000000 0.053886 0.000000
# 6 0.000000 0.000000 0.000000 0.000000 0.000000 0.044805
#
#
# Mechanical properties :
#
#
# Convention : Reuss Voigt Hill
#
# Bulk Modulus (GPa) = 46.93584 52.80562 49.87073
# Shear Modulus (GPa) = 22.20654 23.39142 22.79898
#
# Velocity S-wave (km/s) = 3.41457 3.50449 3.45982
# Velocity P-wave (km/s) = 6.33948 6.64081 6.49189
#
# Compressibility (1/GPa) = 0.02130568
#
# Stress axis : x y z
#
# Youngs Moduli (GPa) = 62.65627 58.17975 67.49721
#
# Poissons Ratio (x) = -0.00063 0.52185
# Poissons Ratio (y) = -0.00068 0.37854
# Poissons Ratio (z) = 0.48443 0.32629
#
# Static dielectric constant tensor:
#      x y z
#    x 3.737140 0.000000 0.000000 
#    y 0.000000 3.358640 0.000000 
#    z 0.000000 0.000000 3.342510 
# 
# 
# High freq. dielectric constant tensor:
#      x y z
#    x 1.742610 0.000000 0.000000 
#    y 0.000000 1.744750 0.000000 
#    z 0.000000 0.000000 1.707630 
# 
# From -- ./inp_files/30537.got.cif
#   From: 2010.03.12/outbox.cif.g09.slc.cpg/sg65_16_cif.got.tgz:30537.got - 2010.04.10 20:52:16.
