data_PCOD8268051
_publ_section_title
;
Structure prediction by ZEFSAII (Michael W. Deem and Ramdas Pophale) SiO2 
 PCOD8268051
Probable space group: C M M M
;
_chemical_formula_sum "Si O2"
_cell_formula_units_Z 72
_cell_length_a 28.383521
_cell_length_b 15.647911
_cell_length_c 9.106605
_cell_angle_alpha 90.000000
_cell_angle_beta 90.000000
_cell_angle_gamma 90.000000
_cell_volume 4044.633139
_symmetry_space_group_name_H-M "C M M M"
_symmetry_group_IT_number 65
_symmetry_cell_setting 'orthorhombic'
loop_
_space_group_symop_operation_xyz
x,y,z
-x,-y,z
x,-y,-z
-x,y,-z
-x,-y,-z
x,y,-z
-x,y,z
x,-y,z
1/2+x,1/2+y,z
1/2-x,1/2-y,z
1/2+x,1/2-y,-z
1/2-x,1/2+y,-z
1/2-x,1/2-y,-z
1/2+x,1/2+y,-z
1/2-x,1/2+y,z
1/2+x,1/2-y,z
loop_
_atom_site_type_symbol
_atom_site_label
_atom_site_fract_x
_atom_site_fract_y
_atom_site_fract_z
Si Si1 0.276364 0.000000 0.165126
Si Si2 0.722101 0.167364 0.670648
Si Si3 0.887789 0.668823 0.328406
Si Si4 0.555569 0.500000 0.159889
Si Si5 0.054529 0.814878 0.825918
Si Si6 0.888417 0.500000 0.166356
O O1 0.257546 0.915198 0.245409
O O2 0.332416 0.000000 0.170066
O O3 0.256916 0.000000 0.000000
O O4 0.731644 0.151468 0.500000
O O5 0.750000 0.250000 0.728616
O O6 0.667266 0.181581 0.703464
O O7 0.898445 0.660440 0.500000
O O8 0.914075 0.749490 0.262825
O O9 0.907375 0.583760 0.249554
O O10 0.500000 0.500000 0.137350
O O11 0.569169 0.590190 0.236594
O O12 0.579717 0.500000 0.000000
O O13 0.000000 0.795574 0.792483
O O14 0.064254 0.808457 0.000000
O O15 0.907718 0.500000 0.000000
#
# Coordination Sequence:
#
# PCOD8268051 Si02
#       6
#     8  16  16   8  16   8
#     4   9  17  29  48  73  96 120 155 200 242 277
#     4   9  18  33  51  69  93 129 165 192 228 284
#     4  10  19  31  49  73  98 123 156 199 240 277
#     4   7  12  26  48  69  88 118 160 193 218 265
#     4   9  17  31  51  72  95 126 161 194 233 284
#     4   9  17  31  50  69  92 125 161 193 232 287
#
# _framework density 17.801368
#
# number of rings (size 3 to 8) (size 9 to 14) (size 15 to 20)
#    0.000    3.000    0.000    2.667    0.000    4.444 
#    0.000    2.222    0.000    9.333    0.000    0.000 
#    0.000    0.000    0.000    0.000    0.000    0.000 
#
# Total GULP energy -446178.143811 kJ/mol
# GULP energy per Si atom -12393.837328 kJ/mol
# Density = 1.776085 g / cm^3
# Si number density = 17.801368 Si / 1000 Ang^3
#
#
#
# Elastic Constant Matrix: (Units=GPa)
#
#
# Indices 1 2 3 4 5 6 
#
# 1 36.0452 53.7159 36.4293 0.0000 0.0000 0.0000
# 2 53.7159 209.5520 86.8690 0.0000 0.0000 0.0000
# 3 36.4293 86.8690 96.8180 0.0000 0.0000 0.0000
# 4 0.0000 0.0000 0.0000 28.1278 0.0000 0.0000
# 5 0.0000 0.0000 0.0000 0.0000 21.1406 0.0000
# 6 0.0000 0.0000 0.0000 0.0000 0.0000 32.1692
#
#
#
# Elastic Compliance Matrix: (Units=1/GPa)
#
#
# Indices 1 2 3 4 5 6 
#
# 1 0.052694 -0.008420 -0.012272 0.000000 0.000000 0.000000
# 2 -0.008420 0.008944 -0.004856 0.000000 0.000000 0.000000
# 3 -0.012272 -0.004856 0.019304 0.000000 0.000000 0.000000
# 4 0.000000 0.000000 0.000000 0.035552 0.000000 0.000000
# 5 0.000000 0.000000 0.000000 0.000000 0.047302 0.000000
# 6 0.000000 0.000000 0.000000 0.000000 0.000000 0.031086
#
#
# Mechanical properties :
#
#
# Convention : Reuss Voigt Hill
#
# Bulk Modulus (GPa) = 33.50771 77.38262 55.44517
# Shear Modulus (GPa) = 19.53691 27.31425 23.42558
#
# Velocity S-wave (km/s) = 3.31644 3.92138 3.63153
# Velocity P-wave (km/s) = 5.79042 8.00421 6.98557
#
# Compressibility (1/GPa) = 0.02984388
#
# Stress axis : x y z
#
# Youngs Moduli (GPa) = 18.97766 111.81100 51.80371
#
# Poissons Ratio (x) = 0.94144 0.63574
# Poissons Ratio (y) = 0.15979 0.25158
# Poissons Ratio (z) = 0.23289 0.54301
#
# Static dielectric constant tensor:
#      x y z
#    x 2.909840 0.000000 0.000000 
#    y 0.000000 3.715750 0.000000 
#    z 0.000000 0.000000 3.226740 
# 
# 
# High freq. dielectric constant tensor:
#      x y z
#    x 1.644960 0.000000 0.000000 
#    y 0.000000 1.711670 0.000000 
#    z 0.000000 0.000000 1.679570 
# 
# From -- ./inp_files/7392.got.cif
#   From: 2010.03.12/outbox.cif.g09.slc.cpg/sg65_4_cif.got.tgz:7392.got - 2010.04.10 20:52:16.
