data_PCOD8268188
_publ_section_title
;
Structure prediction by ZEFSAII (Michael W. Deem and Ramdas Pophale) SiO2 
 PCOD8268188
Probable space group: C M M M
;
_chemical_formula_sum "Si O2"
_cell_formula_units_Z 128
_cell_length_a 26.914527
_cell_length_b 10.320509
_cell_length_c 25.514960
_cell_angle_alpha 90.000000
_cell_angle_beta 90.000000
_cell_angle_gamma 90.000000
_cell_volume 7087.331726
_symmetry_space_group_name_H-M "C M M M"
_symmetry_group_IT_number 65
_symmetry_cell_setting 'orthorhombic'
loop_
_space_group_symop_operation_xyz
x,y,z
-x,-y,z
x,-y,-z
-x,y,-z
-x,-y,-z
x,y,-z
-x,y,z
x,-y,z
1/2+x,1/2+y,z
1/2-x,1/2-y,z
1/2+x,1/2-y,-z
1/2-x,1/2+y,-z
1/2-x,1/2-y,-z
1/2+x,1/2+y,-z
1/2-x,1/2+y,z
1/2+x,1/2-y,z
loop_
_atom_site_type_symbol
_atom_site_label
_atom_site_fract_x
_atom_site_fract_y
_atom_site_fract_z
Si Si1 0.289805 0.645256 0.940163
Si Si2 0.791468 0.141706 0.637216
Si Si3 0.601202 0.147162 0.716215
Si Si4 0.558563 0.850202 0.609535
Si Si5 0.693459 0.285037 0.250111
Si Si6 0.120923 0.146719 0.440868
Si Si7 0.632554 0.356661 0.148876
Si Si8 0.443126 0.150519 0.822371
O O1 0.267396 0.500000 0.934227
O O2 0.250000 0.750000 0.921021
O O3 0.337457 0.662040 0.904285
O O4 0.305930 0.672342 0.000000
O O5 0.750000 0.250000 0.631703
O O6 0.807888 0.125574 0.698117
O O7 0.835805 0.184813 0.599502
O O8 0.771384 0.000000 0.619731
O O9 0.585004 0.211084 0.661498
O O10 0.659022 0.163134 0.732712
O O11 0.565146 0.196603 0.762518
O O12 0.589091 0.000000 0.706382
O O13 0.500000 0.839403 0.616000
O O14 0.576902 0.752809 0.564144
O O15 0.573727 0.000000 0.597179
O O16 0.750000 0.250000 0.235247
O O17 0.668723 0.349750 0.199425
O O18 0.141738 0.155466 0.500000
O O19 0.101565 0.000000 0.429467
O O20 0.608014 0.500000 0.150233
O O21 0.590948 0.245793 0.143566
O O22 0.500000 0.169758 0.838809
O O23 0.426744 0.000000 0.830046
#
# Coordination Sequence:
#
# PCOD8268188 Si02
#       8
#    16  16  16  16  16  16  16  16
#     4   9  18  33  52  75 106 144 183 220 257 302
#     4  10  21  36  54  76 102 134 166 203 247 298
#     4   9  17  31  52  76 102 135 171 205 247 302
#     4  10  20  35  56  80 103 127 163 211 257 302
#     4  10  19  31  50  77 107 139 166 202 244 304
#     4  10  22  40  57  74 100 133 169 208 251 303
#     4  10  20  32  49  77 110 139 171 215 262 304
#     4   9  18  33  52  74 102 137 176 215 257 308
#
# _framework density 18.060393999999999
#
# number of rings (size 3 to 8) (size 9 to 14) (size 15 to 20)
#    0.000    2.375    1.250    1.125    0.000    6.250 
#    0.000    3.750    0.000    1.875    0.000    2.625 
#    0.000    0.000    0.000    0.000    0.000    0.000 
#
# Total GULP energy -793022.019955 kJ/mol
# GULP energy per Si atom -12390.969062 kJ/mol
# Density = 1.801929 g / cm^3
# Si number density = 18.060394 Si / 1000 Ang^3
#
#
#
# Elastic Constant Matrix: (Units=GPa)
#
#
# Indices 1 2 3 4 5 6 
#
# 1 96.2287 58.8352 34.6706 0.0000 0.0000 0.0000
# 2 58.8352 106.4977 38.7410 0.0000 0.0000 0.0000
# 3 34.6706 38.7410 66.7608 0.0000 0.0000 0.0000
# 4 0.0000 0.0000 0.0000 21.9786 0.0000 0.0000
# 5 0.0000 0.0000 0.0000 0.0000 19.3055 0.0000
# 6 0.0000 0.0000 0.0000 0.0000 0.0000 30.4934
#
#
#
# Elastic Compliance Matrix: (Units=1/GPa)
#
#
# Indices 1 2 3 4 5 6 
#
# 1 0.016561 -0.007632 -0.004172 0.000000 0.000000 0.000000
# 2 -0.007632 0.015419 -0.004984 0.000000 0.000000 0.000000
# 3 -0.004172 -0.004984 0.020038 0.000000 0.000000 0.000000
# 4 0.000000 0.000000 0.000000 0.045499 0.000000 0.000000
# 5 0.000000 0.000000 0.000000 0.000000 0.051799 0.000000
# 6 0.000000 0.000000 0.000000 0.000000 0.000000 0.032794
#
#
# Mechanical properties :
#
#
# Convention : Reuss Voigt Hill
#
# Bulk Modulus (GPa) = 54.22359 59.33121 56.77740
# Shear Modulus (GPa) = 22.53944 23.50484 23.02214
#
# Velocity S-wave (km/s) = 3.53654 3.61149 3.57421
# Velocity P-wave (km/s) = 6.83848 7.09319 6.96700
#
# Compressibility (1/GPa) = 0.01844216
#
# Stress axis : x y z
#
# Youngs Moduli (GPa) = 60.38243 64.85430 49.90536
#
# Poissons Ratio (x) = 0.49494 0.20821
# Poissons Ratio (y) = 0.46081 0.24875
# Poissons Ratio (z) = 0.25192 0.32326
#
# Static dielectric constant tensor:
#      x y z
#    x 3.166640 0.000000 0.000000 
#    y 0.000000 3.433720 0.000000 
#    z 0.000000 0.000000 3.391020 
# 
# 
# High freq. dielectric constant tensor:
#      x y z
#    x 1.682490 0.000000 0.000000 
#    y 0.000000 1.701670 0.000000 
#    z 0.000000 0.000000 1.694170 
# 
# From -- ./inp_files/72017.got.cif
#   From: 2010.03.12/outbox.cif.g09.slc.cpg/sg65_37_cif.got.tgz:72017.got - 2010.04.10 20:52:16.
