data_PCOD8268171
_publ_section_title
;
Structure prediction by ZEFSAII (Michael W. Deem and Ramdas Pophale) SiO2 
 PCOD8268171
Probable space group: C M M M
;
_chemical_formula_sum "Si O2"
_cell_formula_units_Z 80
_cell_length_a 19.339551
_cell_length_b 8.894576
_cell_length_c 25.758292
_cell_angle_alpha 90.000000
_cell_angle_beta 90.000000
_cell_angle_gamma 90.000000
_cell_volume 4430.866850
_symmetry_space_group_name_H-M "C M M M"
_symmetry_group_IT_number 65
_symmetry_cell_setting 'orthorhombic'
loop_
_space_group_symop_operation_xyz
x,y,z
-x,-y,z
x,-y,-z
-x,y,-z
-x,-y,-z
x,y,-z
-x,y,z
x,-y,z
1/2+x,1/2+y,z
1/2-x,1/2-y,z
1/2+x,1/2-y,-z
1/2-x,1/2+y,-z
1/2-x,1/2-y,-z
1/2+x,1/2+y,-z
1/2-x,1/2+y,z
1/2+x,1/2-y,z
loop_
_atom_site_type_symbol
_atom_site_label
_atom_site_fract_x
_atom_site_fract_y
_atom_site_fract_z
Si Si1 0.821139 0.324588 0.060339
Si Si2 0.081119 0.173350 0.139910
Si Si3 0.419289 0.824643 0.246317
Si Si4 0.676539 0.675178 0.554739
Si Si5 0.825418 0.822007 0.667584
O O1 0.817527 0.500000 0.072687
O O2 0.750000 0.250000 0.079201
O O3 0.884022 0.250488 0.090723
O O4 0.834297 0.291939 0.000000
O O5 0.106329 0.254591 0.192227
O O6 0.000000 0.193863 0.132031
O O7 0.102846 0.000000 0.143250
O O8 0.500000 0.792496 0.254968
O O9 0.378809 0.745686 0.292277
O O10 0.402163 0.000000 0.245663
O O11 0.636100 0.717719 0.500000
O O12 0.690307 0.500000 0.555783
O O13 0.750000 0.750000 0.552506
O O14 0.642302 0.719052 0.610127
O O15 0.750000 0.750000 0.675265
O O16 0.819176 0.000000 0.676120
#
# Coordination Sequence:
#
# PCOD8268171 Si02
#       5
#    16  16  16  16  16
#     4  10  21  37  57  81 110 142 174 209 251 299
#     4  10  21  37  57  80 105 134 171 213 255 302
#     4  10  21  37  55  74 100 134 171 212 258 306
#     4   8  14  25  42  66  96 128 161 200 247 296
#     4  10  19  31  50  76 104 132 167 210 253 302
#
# _framework density 18.055157000000001
#
# number of rings (size 3 to 8) (size 9 to 14) (size 15 to 20)
#    0.000    2.400    0.000    2.400    0.000    5.600 
#    0.000    6.000    0.000    0.600    0.000    4.200 
#    0.000    0.000    0.000    0.000    0.000    0.000 
#
# Total GULP energy -495678.416016 kJ/mol
# GULP energy per Si atom -12391.960400 kJ/mol
# Density = 1.801406 g / cm^3
# Si number density = 18.055157 Si / 1000 Ang^3
#
#
#
# Elastic Constant Matrix: (Units=GPa)
#
#
# Indices 1 2 3 4 5 6 
#
# 1 46.7858 44.1215 57.0349 0.0000 0.0000 0.0000
# 2 44.1215 107.9641 70.9504 0.0000 0.0000 0.0000
# 3 57.0349 70.9504 138.1248 0.0000 0.0000 0.0000
# 4 0.0000 0.0000 0.0000 28.1604 0.0000 0.0000
# 5 0.0000 0.0000 0.0000 0.0000 -2.2378 0.0000
# 6 0.0000 0.0000 0.0000 0.0000 0.0000 30.0463
#
#
#
# Elastic Compliance Matrix: (Units=1/GPa)
#
#
# Indices 1 2 3 4 5 6 
#
# 1 0.049598 -0.010281 -0.015199 0.000000 0.000000 0.000000
# 2 -0.010281 0.016113 -0.004032 0.000000 0.000000 0.000000
# 3 -0.015199 -0.004032 0.015587 0.000000 0.000000 0.000000
# 4 0.000000 0.000000 0.000000 0.035511 0.000000 0.000000
# 5 0.000000 0.000000 0.000000 0.000000 -0.446869 0.000000
# 6 0.000000 0.000000 0.000000 0.000000 0.000000 0.033282
#
#
# Mechanical properties :
#
#
# Convention : Reuss Voigt Hill
#
# Bulk Modulus (GPa) = 44.89368 70.78762 57.84065
# Shear Modulus (GPa) = -21.70805 19.24498 -1.23153
#
# Velocity S-wave (km/s) = -3.47121 3.26835 -0.82679
# Velocity P-wave (km/s) = 2.97540 7.31671 5.58513
#
# Compressibility (1/GPa) = 0.02227485
#
# Stress axis : x y z
#
# Youngs Moduli (GPa) = 20.16199 62.06070 64.15607
#
# Poissons Ratio (x) = 0.63803 0.97513
# Poissons Ratio (y) = 0.20728 0.25866
# Poissons Ratio (z) = 0.30645 0.25021
#
# Static dielectric constant tensor:
#      x y z
#    x 3.008130 0.000000 0.000000 
#    y 0.000000 3.535280 0.000000 
#    z 0.000000 0.000000 3.891800 
# 
# 
# High freq. dielectric constant tensor:
#      x y z
#    x 1.662830 0.000000 0.000000 
#    y 0.000000 1.716350 0.000000 
#    z 0.000000 0.000000 1.723440 
# 
# From -- ./inp_files/72777.got.cif
#   From: 2010.03.12/outbox.cif.g09.slc.cpg/sg65_37_cif.got.tgz:72777.got - 2010.04.10 20:52:16.
