data_PCOD8268915
_publ_section_title
;
Structure prediction by ZEFSAII (Michael W. Deem and Ramdas Pophale) SiO2 
 PCOD8268915
Probable space group: C M M M
;
_chemical_formula_sum "Si O2"
_cell_formula_units_Z 96
_cell_length_a 29.196898
_cell_length_b 14.672455
_cell_length_c 11.771966
_cell_angle_alpha 90.000000
_cell_angle_beta 90.000000
_cell_angle_gamma 90.000000
_cell_volume 5042.994540
_symmetry_space_group_name_H-M "C M M M"
_symmetry_group_IT_number 65
_symmetry_cell_setting 'orthorhombic'
loop_
_space_group_symop_operation_xyz
x,y,z
-x,-y,z
x,-y,-z
-x,y,-z
-x,-y,-z
x,y,-z
-x,y,z
x,-y,z
1/2+x,1/2+y,z
1/2-x,1/2-y,z
1/2+x,1/2-y,-z
1/2-x,1/2+y,-z
1/2-x,1/2-y,-z
1/2+x,1/2+y,-z
1/2-x,1/2+y,z
1/2+x,1/2-y,z
loop_
_atom_site_type_symbol
_atom_site_label
_atom_site_fract_x
_atom_site_fract_y
_atom_site_fract_z
Si Si1 0.745197 0.643924 0.500000
Si Si2 0.385985 0.891260 0.738954
Si Si3 0.288832 0.395601 0.741901
Si Si4 0.148888 0.603045 0.500000
Si Si5 0.447237 0.760403 0.869541
Si Si6 0.797279 0.608494 0.126826
Si Si7 0.123127 0.895317 0.130896
O O1 0.750000 0.750000 0.500000
O O2 0.715214 0.612729 0.606865
O O3 0.795880 0.602064 0.500000
O O4 0.372799 0.853170 0.613444
O O5 0.430950 0.841262 0.785881
O O6 0.344873 0.859401 0.820128
O O7 0.393737 0.000000 0.740720
O O8 0.289802 0.500000 0.779749
O O9 0.244464 0.349053 0.800171
O O10 0.335922 0.353916 0.790943
O O11 0.132699 0.500000 0.500000
O O12 0.500000 0.741539 0.842804
O O13 0.421214 0.665914 0.844504
O O14 0.439942 0.791661 0.000000
O O15 0.795175 0.500000 0.129552
O O16 0.794075 0.647320 0.000000
O O17 0.110890 0.000000 0.162495
O O18 0.138826 0.888463 0.000000
#
# Coordination Sequence:
#
# PCOD8268915 Si02
#       7
#     8  16  16   8  16  16  16
#     4  12  24  32  48  78 113 154 192 227 264 312
#     4  10  20  35  57  81 110 147 185 226 274 329
#     4  10  19  33  52  75 109 146 182 224 268 317
#     4  10  20  38  57  75 107 153 193 227 266 318
#     4  10  22  39  59  83 111 142 179 230 287 339
#     4   9  16  27  48  77 107 141 177 212 259 319
#     4   9  19  36  58  83 111 145 185 229 276 328
#
# _framework density 19.036307999999998
#
# number of rings (size 3 to 8) (size 9 to 14) (size 15 to 20)
#    0.000    2.167    1.667    1.750    2.333    3.667 
#    0.000    2.917    0.000    5.500    0.000    0.000 
#    0.000    4.000    0.000    0.000    0.000    0.000 
#
# Total GULP energy -595147.334547 kJ/mol
# GULP energy per Si atom -12398.902803 kJ/mol
# Density = 1.899298 g / cm^3
# Si number density = 19.036308 Si / 1000 Ang^3
#
#
#
# Elastic Constant Matrix: (Units=GPa)
#
#
# Indices 1 2 3 4 5 6 
#
# 1 139.0044 34.0469 66.5573 0.0000 0.0000 0.0000
# 2 34.0469 49.4018 22.5752 0.0000 0.0000 0.0000
# 3 66.5573 22.5752 138.8941 0.0000 0.0000 0.0000
# 4 0.0000 0.0000 0.0000 18.3027 0.0000 0.0000
# 5 0.0000 0.0000 0.0000 0.0000 22.9308 0.0000
# 6 0.0000 0.0000 0.0000 0.0000 0.0000 27.7557
#
#
#
# Elastic Compliance Matrix: (Units=1/GPa)
#
#
# Indices 1 2 3 4 5 6 
#
# 1 0.010492 -0.005329 -0.004161 0.000000 0.000000 0.000000
# 2 -0.005329 0.024573 -0.001440 0.000000 0.000000 0.000000
# 3 -0.004161 -0.001440 0.009428 0.000000 0.000000 0.000000
# 4 0.000000 0.000000 0.000000 0.054637 0.000000 0.000000
# 5 0.000000 0.000000 0.000000 0.000000 0.043610 0.000000
# 6 0.000000 0.000000 0.000000 0.000000 0.000000 0.036029
#
#
# Mechanical properties :
#
#
# Convention : Reuss Voigt Hill
#
# Bulk Modulus (GPa) = 44.18696 63.73990 53.96343
# Shear Modulus (GPa) = 24.01843 27.40589 25.71216
#
# Velocity S-wave (km/s) = 3.55592 3.79841 3.67916
# Velocity P-wave (km/s) = 6.33417 7.26589 6.81597
#
# Compressibility (1/GPa) = 0.02263111
#
# Stress axis : x y z
#
# Youngs Moduli (GPa) = 95.31182 40.69491 106.06719
#
# Poissons Ratio (x) = 0.21687 0.44140
# Poissons Ratio (y) = 0.50793 0.15277
# Poissons Ratio (z) = 0.39664 0.05861
#
# Static dielectric constant tensor:
#      x y z
#    x 3.342180 0.000000 0.000000 
#    y 0.000000 3.279990 0.000000 
#    z 0.000000 0.000000 3.630060 
# 
# 
# High freq. dielectric constant tensor:
#      x y z
#    x 1.721510 0.000000 0.000000 
#    y 0.000000 1.730030 0.000000 
#    z 0.000000 0.000000 1.742130 
# 
# From -- ./inp_files/33889.got.cif
#   From: 2010.03.12/outbox.cif.g09.slc.cpg/sg65_17_cif.got.tgz:33889.got - 2010.04.10 20:52:16.
