data_PCOD8268184
_publ_section_title
;
Structure prediction by ZEFSAII (Michael W. Deem and Ramdas Pophale) SiO2 
 PCOD8268184
Probable space group: C M M M
;
_chemical_formula_sum "Si O2"
_cell_formula_units_Z 96
_cell_length_a 28.467906
_cell_length_b 14.772301
_cell_length_c 11.802055
_cell_angle_alpha 90.000000
_cell_angle_beta 90.000000
_cell_angle_gamma 90.000000
_cell_volume 4963.194622
_symmetry_space_group_name_H-M "C M M M"
_symmetry_group_IT_number 65
_symmetry_cell_setting 'orthorhombic'
loop_
_space_group_symop_operation_xyz
x,y,z
-x,-y,z
x,-y,-z
-x,y,-z
-x,-y,-z
x,y,-z
-x,y,z
x,-y,z
1/2+x,1/2+y,z
1/2-x,1/2-y,z
1/2+x,1/2-y,-z
1/2-x,1/2+y,-z
1/2-x,1/2-y,-z
1/2+x,1/2+y,-z
1/2-x,1/2+y,z
1/2+x,1/2-y,z
loop_
_atom_site_type_symbol
_atom_site_label
_atom_site_fract_x
_atom_site_fract_y
_atom_site_fract_z
Si Si1 0.752407 0.607102 0.500000
Si Si2 0.394646 0.892171 0.740204
Si Si3 0.274763 0.343328 0.743614
Si Si4 0.141785 0.606318 0.500000
Si Si5 0.446593 0.746988 0.870384
Si Si6 0.807142 0.599858 0.122520
Si Si7 0.132539 0.894918 0.131607
O O1 0.752713 0.500000 0.500000
O O2 0.724320 0.642511 0.609003
O O3 0.805430 0.647971 0.500000
O O4 0.387828 0.864079 0.609365
O O5 0.437382 0.834881 0.791752
O O6 0.347995 0.853939 0.803414
O O7 0.403816 0.000000 0.752644
O O8 0.250000 0.250000 0.778616
O O9 0.240968 0.413726 0.807514
O O10 0.326884 0.351852 0.791264
O O11 0.149773 0.500000 0.500000
O O12 0.500000 0.716002 0.850633
O O13 0.414631 0.660449 0.839503
O O14 0.437888 0.777102 0.000000
O O15 0.825990 0.500000 0.098467
O O16 0.800472 0.649579 0.000000
O O17 0.124352 0.000000 0.163576
O O18 0.146580 0.885472 0.000000
#
# Coordination Sequence:
#
# PCOD8268184 Si02
#       7
#     8  16  16   8  16  16  16
#     4  11  21  37  55  75 111 158 198 225 260 320
#     4  10  19  34  56  85 119 153 188 228 280 344
#     4  12  23  34  52  82 117 149 186 234 281 334
#     4   9  18  33  56  80 110 157 198 224 258 326
#     4  10  22  40  61  85 111 143 188 242 299 351
#     4  10  19  31  50  76 109 150 186 214 260 332
#     4  10  22  40  60  83 113 151 195 241 287 335
#
# _framework density 19.342381
#
# number of rings (size 3 to 8) (size 9 to 14) (size 15 to 20)
#    0.000    1.667    1.667    3.750    0.000    5.667 
#    0.000    2.917    0.000    1.500    0.000    0.000 
#    0.000    3.333    0.000    0.000    0.000    0.000 
#
# Total GULP energy -595030.840679 kJ/mol
# GULP energy per Si atom -12396.475847 kJ/mol
# Density = 1.929836 g / cm^3
# Si number density = 19.342381 Si / 1000 Ang^3
#
#
#
# Elastic Constant Matrix: (Units=GPa)
#
#
# Indices 1 2 3 4 5 6 
#
# 1 130.9877 53.6970 62.7411 0.0000 0.0000 0.0000
# 2 53.6970 93.5713 44.4398 0.0000 0.0000 0.0000
# 3 62.7411 44.4398 145.9059 0.0000 0.0000 0.0000
# 4 0.0000 0.0000 0.0000 18.2805 0.0000 0.0000
# 5 0.0000 0.0000 0.0000 0.0000 45.0785 0.0000
# 6 0.0000 0.0000 0.0000 0.0000 0.0000 25.2763
#
#
#
# Elastic Compliance Matrix: (Units=1/GPa)
#
#
# Indices 1 2 3 4 5 6 
#
# 1 0.011228 -0.004852 -0.003350 0.000000 0.000000 0.000000
# 2 -0.004852 0.014591 -0.002358 0.000000 0.000000 0.000000
# 3 -0.003350 -0.002358 0.009013 0.000000 0.000000 0.000000
# 4 0.000000 0.000000 0.000000 0.054703 0.000000 0.000000
# 5 0.000000 0.000000 0.000000 0.000000 0.022184 0.000000
# 6 0.000000 0.000000 0.000000 0.000000 0.000000 0.039563
#
#
# Mechanical properties :
#
#
# Convention : Reuss Voigt Hill
#
# Bulk Modulus (GPa) = 72.93178 76.91343 74.92261
# Shear Modulus (GPa) = 28.25298 31.69953 29.97626
#
# Velocity S-wave (km/s) = 3.82603 4.05268 3.94098
# Velocity P-wave (km/s) = 7.57004 7.85808 7.71541
#
# Compressibility (1/GPa) = 0.01371144
#
# Stress axis : x y z
#
# Youngs Moduli (GPa) = 89.06144 68.53406 110.95678
#
# Poissons Ratio (x) = 0.33254 0.37174
# Poissons Ratio (y) = 0.43215 0.26160
# Poissons Ratio (z) = 0.29839 0.16158
#
# Static dielectric constant tensor:
#      x y z
#    x 3.344300 0.000000 0.000000 
#    y 0.000000 3.514320 0.000000 
#    z 0.000000 0.000000 3.754090 
# 
# 
# High freq. dielectric constant tensor:
#      x y z
#    x 1.728300 0.000000 0.000000 
#    y 0.000000 1.748900 0.000000 
#    z 0.000000 0.000000 1.756880 
# 
# From -- ./inp_files/33887.got.cif
#   From: 2010.03.12/outbox.cif.g09.slc.cpg/sg65_17_cif.got.tgz:33887.got - 2010.04.10 20:52:16.
