data_PCOD8268647
_publ_section_title
;
Structure prediction by ZEFSAII (Michael W. Deem and Ramdas Pophale) SiO2 
 PCOD8268647
Probable space group: C M M M
;
_chemical_formula_sum "Si O2"
_cell_formula_units_Z 80
_cell_length_a 26.005546
_cell_length_b 9.032292
_cell_length_c 18.208168
_cell_angle_alpha 90.000000
_cell_angle_beta 90.000000
_cell_angle_gamma 90.000000
_cell_volume 4276.910848
_symmetry_space_group_name_H-M "C M M M"
_symmetry_group_IT_number 65
_symmetry_cell_setting 'orthorhombic'
loop_
_space_group_symop_operation_xyz
x,y,z
-x,-y,z
x,-y,-z
-x,y,-z
-x,-y,-z
x,y,-z
-x,y,z
x,-y,z
1/2+x,1/2+y,z
1/2-x,1/2-y,z
1/2+x,1/2-y,-z
1/2-x,1/2+y,-z
1/2-x,1/2-y,-z
1/2+x,1/2+y,-z
1/2-x,1/2+y,z
1/2+x,1/2-y,z
loop_
_atom_site_type_symbol
_atom_site_label
_atom_site_fract_x
_atom_site_fract_y
_atom_site_fract_z
Si Si1 0.598389 0.672673 0.170424
Si Si2 0.300356 0.832352 0.343267
Si Si3 0.299693 0.166019 0.831598
Si Si4 0.096159 0.826244 0.658567
Si Si5 0.000000 0.330749 0.413145
Si Si6 0.000000 0.823737 0.082913
O O1 0.607134 0.500000 0.156843
O O2 0.648868 0.754360 0.140476
O O3 0.587898 0.705912 0.255563
O O4 0.550301 0.735777 0.124731
O O5 0.250000 0.750000 0.375138
O O6 0.298038 0.832421 0.255880
O O7 0.350731 0.744792 0.370117
O O8 0.301989 0.000000 0.373667
O O9 0.250000 0.250000 0.863636
O O10 0.299110 0.000000 0.862453
O O11 0.050103 0.751926 0.615350
O O12 0.097386 0.000000 0.641771
O O13 0.000000 0.500000 0.384981
O O14 0.000000 0.323731 0.500000
O O15 0.000000 0.000000 0.084825
O O16 0.000000 0.762845 0.000000
#
# Coordination Sequence:
#
# PCOD8268647 Si02
#       6
#    16  16  16  16   8   8
#     4   9  17  30  49  74 101 128 162 203 242 285
#     4   9  16  27  45  72 104 133 162 198 242 291
#     4   9  16  26  43  69  99 129 159 196 243 290
#     4  10  19  32  52  76 101 130 165 205 247 292
#     4  11  24  39  53  71  98 131 166 206 250 295
#     4   9  17  30  49  71  96 129 166 202 244 293
#
# _framework density 18.705089000000001
#
# number of rings (size 3 to 8) (size 9 to 14) (size 15 to 20)
#    0.000    2.600    0.000    2.700    0.000    8.000 
#    0.000    0.500    0.000    2.400    0.000    0.000 
#    0.000    0.000    0.000    0.000    0.000    0.000 
#
# Total GULP energy -496024.309966 kJ/mol
# GULP energy per Si atom -12400.607749 kJ/mol
# Density = 1.866252 g / cm^3
# Si number density = 18.705089 Si / 1000 Ang^3
#
#
#
# Elastic Constant Matrix: (Units=GPa)
#
#
# Indices 1 2 3 4 5 6 
#
# 1 209.2223 92.1909 47.2807 0.0000 0.0000 0.0000
# 2 92.1909 131.0971 35.6592 0.0000 0.0000 0.0000
# 3 47.2807 35.6592 38.9090 0.0000 0.0000 0.0000
# 4 0.0000 0.0000 0.0000 11.1319 0.0000 0.0000
# 5 0.0000 0.0000 0.0000 0.0000 -3.9074 0.0000
# 6 0.0000 0.0000 0.0000 0.0000 0.0000 39.4710
#
#
#
# Elastic Compliance Matrix: (Units=1/GPa)
#
#
# Indices 1 2 3 4 5 6 
#
# 1 0.007842 -0.003893 -0.005962 0.000000 0.000000 0.000000
# 2 -0.003893 0.012094 -0.006353 0.000000 0.000000 0.000000
# 3 -0.005962 -0.006353 0.038767 0.000000 0.000000 0.000000
# 4 0.000000 0.000000 0.000000 0.089832 0.000000 0.000000
# 5 0.000000 0.000000 0.000000 0.000000 -0.255922 0.000000
# 6 0.000000 0.000000 0.000000 0.000000 0.000000 0.025335
#
#
# Mechanical properties :
#
#
# Convention : Reuss Voigt Hill
#
# Bulk Modulus (GPa) = 38.03963 81.05441 59.54702
# Shear Modulus (GPa) = -122.32670 22.94561 -49.69055
#
# Velocity S-wave (km/s) = -8.09565 3.50623 -5.15974
# Velocity P-wave (km/s) = 8.18568 7.73424 1.89564
#
# Compressibility (1/GPa) = 0.02628837
#
# Stress axis : x y z
#
# Youngs Moduli (GPa) = 127.51227 82.68689 25.79495
#
# Poissons Ratio (x) = 0.32193 0.15378
# Poissons Ratio (y) = 0.49645 0.16387
# Poissons Ratio (z) = 0.76017 0.52528
#
# Static dielectric constant tensor:
#      x y z
#    x 3.692410 0.000000 0.000000 
#    y 0.000000 3.520680 0.000000 
#    z 0.000000 0.000000 2.969180 
# 
# 
# High freq. dielectric constant tensor:
#      x y z
#    x 1.747440 0.000000 0.000000 
#    y 0.000000 1.728330 0.000000 
#    z 0.000000 0.000000 1.671450 
# 
# From -- ./inp_files/57303.got.cif
#   From: 2010.03.12/outbox.cif.g09.slc.cpg/sg65_29_cif.got.tgz:57303.got - 2010.04.10 20:52:16.
