data_PCOD8268025
_publ_section_title
;
Structure prediction by ZEFSAII (Michael W. Deem and Ramdas Pophale) SiO2 
 PCOD8268025
Probable space group: C M M M
;
_chemical_formula_sum "Si O2"
_cell_formula_units_Z 88
_cell_length_a 19.154142
_cell_length_b 9.029075
_cell_length_c 28.687419
_cell_angle_alpha 90.000000
_cell_angle_beta 90.000000
_cell_angle_gamma 90.000000
_cell_volume 4961.322289
_symmetry_space_group_name_H-M "C M M M"
_symmetry_group_IT_number 65
_symmetry_cell_setting 'orthorhombic'
loop_
_space_group_symop_operation_xyz
x,y,z
-x,-y,z
x,-y,-z
-x,y,-z
-x,-y,-z
x,y,-z
-x,y,z
x,-y,z
1/2+x,1/2+y,z
1/2-x,1/2-y,z
1/2+x,1/2-y,-z
1/2-x,1/2+y,-z
1/2-x,1/2-y,-z
1/2+x,1/2+y,-z
1/2-x,1/2+y,z
1/2+x,1/2-y,z
loop_
_atom_site_type_symbol
_atom_site_label
_atom_site_fract_x
_atom_site_fract_y
_atom_site_fract_z
Si Si1 0.825006 0.827036 0.449340
Si Si2 0.175486 0.672551 0.362742
Si Si3 0.676215 0.171747 0.259868
Si Si4 0.581968 0.331178 0.813158
Si Si5 0.577380 0.324327 0.917417
Si Si6 0.824907 0.823520 0.000000
O O1 0.862296 0.802780 0.500000
O O2 0.750000 0.750000 0.451600
O O3 0.867056 0.750616 0.405823
O O4 0.816205 0.000000 0.438971
O O5 0.182845 0.500000 0.373832
O O6 0.250000 0.750000 0.361153
O O7 0.142606 0.699390 0.311489
O O8 0.750000 0.250000 0.252880
O O9 0.620799 0.226718 0.222730
O O10 0.690334 0.000000 0.251813
O O11 0.500000 0.316190 0.804584
O O12 0.606348 0.500000 0.805548
O O13 0.600886 0.277116 0.865477
O O14 0.500000 0.260114 0.928771
O O15 0.572686 0.500000 0.919976
O O16 0.633301 0.265294 0.954663
O O17 0.750000 0.750000 0.000000
O O18 0.817039 0.000000 0.000000
#
# Coordination Sequence:
#
# PCOD8268025 Si02
#       6
#    16  16  16  16  16   8
#     4   9  15  21  31  49  74 106 143 181 222 269
#     4   9  16  25  37  54  78 110 147 185 225 271
#     4  10  20  32  47  68  94 125 160 196 237 285
#     4   9  18  33  52  73  96 122 156 198 240 283
#     4   8  15  30  52  73  91 119 160 196 226 269
#     4  10  19  31  49  73 101 128 154 190 232 272
#
# _framework density 17.737207000000001
#
# number of rings (size 3 to 8) (size 9 to 14) (size 15 to 20)
#    0.000    2.909    0.000    4.091    0.000    5.455 
#    0.000    2.727    0.000    2.182    0.000    0.000 
#    0.000    0.727    0.000    8.000    0.000    8.909 
#
# Total GULP energy -545081.460699 kJ/mol
# GULP energy per Si atom -12388.215016 kJ/mol
# Density = 1.769684 g / cm^3
# Si number density = 17.737207 Si / 1000 Ang^3
#
#
#
# Elastic Constant Matrix: (Units=GPa)
#
#
# Indices 1 2 3 4 5 6 
#
# 1 54.8004 31.2456 63.5267 0.0000 0.0000 0.0000
# 2 31.2456 90.9341 68.9145 0.0000 0.0000 0.0000
# 3 63.5267 68.9145 184.8458 0.0000 0.0000 0.0000
# 4 0.0000 0.0000 0.0000 26.1129 0.0000 0.0000
# 5 0.0000 0.0000 0.0000 0.0000 0.7112 0.0000
# 6 0.0000 0.0000 0.0000 0.0000 0.0000 21.5021
#
#
#
# Elastic Compliance Matrix: (Units=1/GPa)
#
#
# Indices 1 2 3 4 5 6 
#
# 1 0.031161 -0.003612 -0.009363 0.000000 0.000000 0.000000
# 2 -0.003612 0.015746 -0.004629 0.000000 0.000000 0.000000
# 3 -0.009363 -0.004629 0.010354 0.000000 0.000000 0.000000
# 4 0.000000 0.000000 0.000000 0.038295 0.000000 0.000000
# 5 0.000000 0.000000 0.000000 0.000000 1.406094 0.000000
# 6 0.000000 0.000000 0.000000 0.000000 0.000000 0.046507
#
#
# Mechanical properties :
#
#
# Convention : Reuss Voigt Hill
#
# Bulk Modulus (GPa) = 45.34437 73.10597 59.22517
# Shear Modulus (GPa) = 3.14324 20.79148 11.96736
#
# Velocity S-wave (km/s) = 1.33265 3.42745 2.60032
# Velocity P-wave (km/s) = 5.29037 7.54777 6.51755
#
# Compressibility (1/GPa) = 0.02205345
#
# Stress axis : x y z
#
# Youngs Moduli (GPa) = 32.09159 63.50702 96.58518
#
# Poissons Ratio (x) = 0.22936 0.90430
# Poissons Ratio (y) = 0.11590 0.44713
# Poissons Ratio (z) = 0.30046 0.29400
#
# Static dielectric constant tensor:
#      x y z
#    x 2.807840 0.000000 0.000000 
#    y 0.000000 3.203830 0.000000 
#    z 0.000000 0.000000 4.455280 
# 
# 
# High freq. dielectric constant tensor:
#      x y z
#    x 1.624510 0.000000 0.000000 
#    y 0.000000 1.676920 0.000000 
#    z 0.000000 0.000000 1.717700 
# 
# From -- ./inp_files/77788.got.cif
#   From: 2010.03.12/outbox.cif.g09.slc.cpg/sg65_39_cif.got.tgz:77788.got - 2010.04.10 20:52:16.
