data_PCOD8268682
_publ_section_title
;
Structure prediction by ZEFSAII (Michael W. Deem and Ramdas Pophale) SiO2 
 PCOD8268682
Probable space group: C M M M
;
_chemical_formula_sum "Si O2"
_cell_formula_units_Z 80
_cell_length_a 8.621599
_cell_length_b 19.322471
_cell_length_c 25.442183
_cell_angle_alpha 90.000000
_cell_angle_beta 90.000000
_cell_angle_gamma 90.000000
_cell_volume 4238.428446
_symmetry_space_group_name_H-M "C M M M"
_symmetry_group_IT_number 65
_symmetry_cell_setting 'orthorhombic'
loop_
_space_group_symop_operation_xyz
x,y,z
-x,-y,z
x,-y,-z
-x,y,-z
-x,-y,-z
x,y,-z
-x,y,z
x,-y,z
1/2+x,1/2+y,z
1/2-x,1/2-y,z
1/2+x,1/2-y,-z
1/2-x,1/2+y,-z
1/2-x,1/2-y,-z
1/2+x,1/2+y,-z
1/2-x,1/2+y,z
1/2+x,1/2-y,z
loop_
_atom_site_type_symbol
_atom_site_label
_atom_site_fract_x
_atom_site_fract_y
_atom_site_fract_z
Si Si1 0.817263 0.175489 0.739503
Si Si2 0.684268 0.922685 0.057924
Si Si3 0.184631 0.324413 0.851001
Si Si4 0.182527 0.322159 0.558790
Si Si5 0.317662 0.080152 0.651626
O O1 0.750000 0.250000 0.722239
O O2 0.747073 0.150456 0.794799
O O3 0.775798 0.116859 0.697814
O O4 0.000000 0.183425 0.744915
O O5 0.500000 0.922875 0.060598
O O6 0.751432 0.874523 0.103817
O O7 0.747879 0.000000 0.067332
O O8 0.737694 0.896293 0.000000
O O9 0.250000 0.250000 0.865315
O O10 0.000000 0.322901 0.849190
O O11 0.246341 0.337735 0.500000
O O12 0.250000 0.250000 0.580573
O O13 0.232777 0.384840 0.596603
O O14 0.000000 0.314223 0.557866
O O15 0.500000 0.089297 0.662011
O O16 0.269739 0.000000 0.649173
#
# Coordination Sequence:
#
# PCOD8268682 Si02
#       5
#    16  16  16  16  16
#     4  11  22  37  56  76 102 136 175 218 262 310
#     4   8  15  29  49  73 100 131 168 207 247 296
#     4  10  19  32  52  77 103 132 167 209 257 306
#     4   9  18  33  54  79 105 136 174 213 254 302
#     4  10  21  36  54  78 108 140 174 213 258 308
#
# _framework density 18.874918999999998
#
# number of rings (size 3 to 8) (size 9 to 14) (size 15 to 20)
#    0.000    2.400    0.000    4.800    0.000    4.400 
#    0.000    4.000    0.000    3.600    0.000    9.800 
#    0.000    0.000    0.000    0.000    0.000    0.000 
#
# Total GULP energy -495957.733091 kJ/mol
# GULP energy per Si atom -12398.943327 kJ/mol
# Density = 1.883196 g / cm^3
# Si number density = 18.874919 Si / 1000 Ang^3
#
#
#
# Elastic Constant Matrix: (Units=GPa)
#
#
# Indices 1 2 3 4 5 6 
#
# 1 63.0568 34.7199 38.5738 0.0000 0.0000 0.0000
# 2 34.7199 129.1233 97.8468 0.0000 0.0000 0.0000
# 3 38.5738 97.8468 149.3762 0.0000 0.0000 0.0000
# 4 0.0000 0.0000 0.0000 -1.9722 0.0000 0.0000
# 5 0.0000 0.0000 0.0000 0.0000 15.6292 0.0000
# 6 0.0000 0.0000 0.0000 0.0000 0.0000 25.2170
#
#
#
# Elastic Compliance Matrix: (Units=1/GPa)
#
#
# Indices 1 2 3 4 5 6 
#
# 1 0.019334 -0.002810 -0.003152 0.000000 0.000000 0.000000
# 2 -0.002810 0.015786 -0.009615 0.000000 0.000000 0.000000
# 3 -0.003152 -0.009615 0.013806 0.000000 0.000000 0.000000
# 4 0.000000 0.000000 0.000000 -0.507053 0.000000 0.000000
# 5 0.000000 0.000000 0.000000 0.000000 0.063983 0.000000
# 6 0.000000 0.000000 0.000000 0.000000 0.000000 0.039656
#
#
# Mechanical properties :
#
#
# Convention : Reuss Voigt Hill
#
# Bulk Modulus (GPa) = 56.26567 75.98193 66.12380
# Shear Modulus (GPa) = -15.75250 19.13586 1.69168
#
# Velocity S-wave (km/s) = -2.89203 3.18752 0.94774
# Velocity P-wave (km/s) = 4.32697 7.34097 6.02547
#
# Compressibility (1/GPa) = 0.01777283
#
# Stress axis : x y z
#
# Youngs Moduli (GPa) = 51.72177 63.34722 72.43032
#
# Poissons Ratio (x) = 0.17803 0.22829
# Poissons Ratio (y) = 0.14536 0.69639
# Poissons Ratio (z) = 0.16302 0.60906
#
# Static dielectric constant tensor:
#      x y z
#    x 3.237840 0.000000 0.000000 
#    y 0.000000 3.537520 0.000000 
#    z 0.000000 0.000000 3.849110 
# 
# 
# High freq. dielectric constant tensor:
#      x y z
#    x 1.714040 0.000000 0.000000 
#    y 0.000000 1.728800 0.000000 
#    z 0.000000 0.000000 1.747530 
# 
# From -- ./inp_files/72741.got.cif
#   From: 2010.03.12/outbox.cif.g09.slc.cpg/sg65_37_cif.got.tgz:72741.got - 2010.04.10 20:52:16.
