data_PCOD8268014
_publ_section_title
;
Structure prediction by ZEFSAII (Michael W. Deem and Ramdas Pophale) SiO2 
 PCOD8268014
Probable space group: C M M M
;
_chemical_formula_sum "Si O2"
_cell_formula_units_Z 88
_cell_length_a 18.414770
_cell_length_b 9.158412
_cell_length_c 28.217658
_cell_angle_alpha 90.000000
_cell_angle_beta 90.000000
_cell_angle_gamma 90.000000
_cell_volume 4758.909448
_symmetry_space_group_name_H-M "C M M M"
_symmetry_group_IT_number 65
_symmetry_cell_setting 'orthorhombic'
loop_
_space_group_symop_operation_xyz
x,y,z
-x,-y,z
x,-y,-z
-x,y,-z
-x,-y,-z
x,y,-z
-x,y,z
x,-y,z
1/2+x,1/2+y,z
1/2-x,1/2-y,z
1/2+x,1/2-y,-z
1/2-x,1/2+y,-z
1/2-x,1/2-y,-z
1/2+x,1/2+y,-z
1/2-x,1/2+y,z
1/2+x,1/2-y,z
loop_
_atom_site_type_symbol
_atom_site_label
_atom_site_fract_x
_atom_site_fract_y
_atom_site_fract_z
Si Si1 0.676899 0.170455 0.445918
Si Si2 0.172537 0.826253 0.000000
Si Si3 0.414125 0.663033 0.626890
Si Si4 0.673459 0.673440 0.180526
Si Si5 0.580742 0.326818 0.268340
Si Si6 0.081551 0.827075 0.909693
O O1 0.656564 0.209692 0.500000
O O2 0.750000 0.250000 0.429967
O O3 0.612758 0.224703 0.412456
O O4 0.688405 0.000000 0.438998
O O5 0.250000 0.750000 0.000000
O O6 0.127702 0.771436 0.954420
O O7 0.183738 0.000000 0.000000
O O8 0.500000 0.659657 0.624728
O O9 0.383517 0.500000 0.616782
O O10 0.390209 0.717381 0.679363
O O11 0.684819 0.500000 0.180682
O O12 0.750000 0.750000 0.173853
O O13 0.636803 0.731236 0.229078
O O14 0.621271 0.724349 0.138038
O O15 0.500000 0.261280 0.259167
O O16 0.574877 0.500000 0.265159
O O17 0.000000 0.760711 0.911186
O O18 0.076099 0.000000 0.911214
#
# Coordination Sequence:
#
# PCOD8268014 Si02
#       6
#    16   8  16  16  16  16
#     4  10  21  36  53  73  99 131 166 204 245 291
#     4  10  19  31  49  73 101 128 158 202 248 290
#     4   9  18  33  53  76 101 129 162 201 245 293
#     4  10  19  31  49  72  98 127 160 200 244 289
#     4   8  15  30  51  72  94 124 163 201 235 279
#     4   9  17  30  50  73  94 124 168 208 239 279
#
# _framework density 18.491630000000001
#
# number of rings (size 3 to 8) (size 9 to 14) (size 15 to 20)
#    0.000    2.727    0.000    3.000    0.000    5.818 
#    0.000    4.545    0.000    5.455    0.000    0.000 
#    0.000    0.000    0.000    0.000    0.000    0.000 
#
# Total GULP energy -545530.467222 kJ/mol
# GULP energy per Si atom -12398.419710 kJ/mol
# Density = 1.844954 g / cm^3
# Si number density = 18.491630 Si / 1000 Ang^3
#
#
#
# Elastic Constant Matrix: (Units=GPa)
#
#
# Indices 1 2 3 4 5 6 
#
# 1 123.6894 31.8933 75.0788 0.0000 0.0000 0.0000
# 2 31.8933 38.7641 37.2093 0.0000 0.0000 0.0000
# 3 75.0788 37.2093 146.1090 0.0000 0.0000 0.0000
# 4 0.0000 0.0000 0.0000 10.5391 0.0000 0.0000
# 5 0.0000 0.0000 0.0000 0.0000 28.3271 0.0000
# 6 0.0000 0.0000 0.0000 0.0000 0.0000 29.7768
#
#
#
# Elastic Compliance Matrix: (Units=1/GPa)
#
#
# Indices 1 2 3 4 5 6 
#
# 1 0.012572 -0.005483 -0.005064 0.000000 0.000000 0.000000
# 2 -0.005483 0.036535 -0.006487 0.000000 0.000000 0.000000
# 3 -0.005064 -0.006487 0.011098 0.000000 0.000000 0.000000
# 4 0.000000 0.000000 0.000000 0.094885 0.000000 0.000000
# 5 0.000000 0.000000 0.000000 0.000000 0.035302 0.000000
# 6 0.000000 0.000000 0.000000 0.000000 0.000000 0.033583
#
#
# Mechanical properties :
#
#
# Convention : Reuss Voigt Hill
#
# Bulk Modulus (GPa) = 38.25866 66.32505 52.29186
# Shear Modulus (GPa) = 18.74371 24.68732 21.71552
#
# Velocity S-wave (km/s) = 3.18721 3.65780 3.43059
# Velocity P-wave (km/s) = 5.85483 7.33381 6.63566
#
# Compressibility (1/GPa) = 0.02613787
#
# Stress axis : x y z
#
# Youngs Moduli (GPa) = 79.53913 27.37114 90.10348
#
# Poissons Ratio (x) = 0.15008 0.45629
# Poissons Ratio (y) = 0.43612 0.58448
# Poissons Ratio (z) = 0.40279 0.17755
#
# Static dielectric constant tensor:
#      x y z
#    x 3.417850 0.000000 0.000000 
#    y 0.000000 3.100980 0.000000 
#    z 0.000000 0.000000 3.753630 
# 
# 
# High freq. dielectric constant tensor:
#      x y z
#    x 1.719620 0.000000 0.000000 
#    y 0.000000 1.672560 0.000000 
#    z 0.000000 0.000000 1.734510 
# 
# From -- ./inp_files/70970.got.cif
#   From: 2010.03.12/outbox.cif.g09.slc.cpg/sg65_36_cif.got.tgz:70970.got - 2010.04.10 20:52:16.
