data_PCOD8268336
_publ_section_title
;
Structure prediction by ZEFSAII (Michael W. Deem and Ramdas Pophale) SiO2 
 PCOD8268336
Probable space group: C M M M
;
_chemical_formula_sum "Si O2"
_cell_formula_units_Z 80
_cell_length_a 25.833862
_cell_length_b 11.789868
_cell_length_c 16.582208
_cell_angle_alpha 90.000000
_cell_angle_beta 90.000000
_cell_angle_gamma 90.000000
_cell_volume 5050.572812
_symmetry_space_group_name_H-M "C M M M"
_symmetry_group_IT_number 65
_symmetry_cell_setting 'orthorhombic'
loop_
_space_group_symop_operation_xyz
x,y,z
-x,-y,z
x,-y,-z
-x,y,-z
-x,-y,-z
x,y,-z
-x,y,z
x,-y,z
1/2+x,1/2+y,z
1/2-x,1/2-y,z
1/2+x,1/2-y,-z
1/2-x,1/2+y,-z
1/2-x,1/2-y,-z
1/2+x,1/2+y,-z
1/2-x,1/2+y,z
1/2+x,1/2-y,z
loop_
_atom_site_type_symbol
_atom_site_label
_atom_site_fract_x
_atom_site_fract_y
_atom_site_fract_z
Si Si1 0.444746 0.500000 0.343788
Si Si2 0.558849 0.688215 0.789198
Si Si3 0.397636 0.133812 0.686595
Si Si4 0.561807 0.500000 0.908786
Si Si5 0.000000 0.366497 0.410803
Si Si6 0.809959 0.238757 0.404492
Si Si7 0.841009 0.000000 0.410893
O O1 0.500000 0.500000 0.387725
O O2 0.438987 0.610556 0.289391
O O3 0.402993 0.500000 0.414419
O O4 0.500000 0.728192 0.807216
O O5 0.595304 0.798100 0.771378
O O6 0.581366 0.615006 0.864510
O O7 0.447835 0.171434 0.634604
O O8 0.344711 0.167542 0.640705
O O9 0.395953 0.000000 0.704165
O O10 0.500000 0.500000 0.903029
O O11 0.582561 0.500000 0.000000
O O12 0.000000 0.500000 0.418908
O O13 0.000000 0.310979 0.500000
O O14 0.821561 0.248876 0.500000
O O15 0.750000 0.250000 0.384503
O O16 0.822854 0.114837 0.367580
O O17 0.816975 0.000000 0.500000
#
# Coordination Sequence:
#
# PCOD8268336 Si02
#       7
#     8  16  16   8   8  16   8
#     4   9  16  28  44  64  89 119 148 181 241 285
#     4   9  16  28  46  68  98 127 151 190 233 281
#     4  11  20  30  47  68  93 130 165 201 250 295
#     4   8  15  28  50  77 101 132 164 187 220 282
#     4   9  18  30  42  61  89 122 168 209 236 282
#     4  10  22  36  48  62  86 125 171 219 258 288
#     4  10  19  32  47  62  83 117 160 204 249 289
#
# _framework density 15.839788
#
# number of rings (size 3 to 8) (size 9 to 14) (size 15 to 20)
#    0.000    2.400    3.000    1.800    1.400    1.400 
#    0.000    0.000    0.000    0.600    0.000    2.800 
#    0.000    0.800    0.000    0.000    0.000    0.000 
#
# Total GULP energy -495641.638785 kJ/mol
# GULP energy per Si atom -12391.040970 kJ/mol
# Density = 1.580374 g / cm^3
# Si number density = 15.839788 Si / 1000 Ang^3
#
#
#
# Elastic Constant Matrix: (Units=GPa)
#
#
# Indices 1 2 3 4 5 6 
#
# 1 93.7979 40.9504 26.5856 0.0000 0.0000 0.0000
# 2 40.9504 117.9738 41.4070 0.0000 0.0000 0.0000
# 3 26.5856 41.4070 66.0664 0.0000 0.0000 0.0000
# 4 0.0000 0.0000 0.0000 13.8701 0.0000 0.0000
# 5 0.0000 0.0000 0.0000 0.0000 9.9690 0.0000
# 6 0.0000 0.0000 0.0000 0.0000 0.0000 18.2011
#
#
#
# Elastic Compliance Matrix: (Units=1/GPa)
#
#
# Indices 1 2 3 4 5 6 
#
# 1 0.013040 -0.003442 -0.003090 0.000000 0.000000 0.000000
# 2 -0.003442 0.011775 -0.005995 0.000000 0.000000 0.000000
# 3 -0.003090 -0.005995 0.020137 0.000000 0.000000 0.000000
# 4 0.000000 0.000000 0.000000 0.072097 0.000000 0.000000
# 5 0.000000 0.000000 0.000000 0.000000 0.100311 0.000000
# 6 0.000000 0.000000 0.000000 0.000000 0.000000 0.054942
#
#
# Mechanical properties :
#
#
# Convention : Reuss Voigt Hill
#
# Bulk Modulus (GPa) = 50.25596 55.08047 52.66821
# Shear Modulus (GPa) = 16.44795 19.66772 18.05784
#
# Velocity S-wave (km/s) = 3.22591 3.52755 3.38010
# Velocity P-wave (km/s) = 6.75810 7.17220 6.96823
#
# Compressibility (1/GPa) = 0.01989814
#
# Stress axis : x y z
#
# Youngs Moduli (GPa) = 76.68920 84.92327 49.65904
#
# Poissons Ratio (x) = 0.29227 0.15346
# Poissons Ratio (y) = 0.26394 0.29772
# Poissons Ratio (z) = 0.23699 0.50914
#
# Static dielectric constant tensor:
#      x y z
#    x 2.888870 0.000000 0.000000 
#    y 0.000000 3.190800 0.000000 
#    z 0.000000 0.000000 2.762730 
# 
# 
# High freq. dielectric constant tensor:
#      x y z
#    x 1.588610 0.000000 0.000000 
#    y 0.000000 1.620730 0.000000 
#    z 0.000000 0.000000 1.556350 
# 
# From -- ./inp_files/55636.got.cif
#   From: 2010.03.12/outbox.cif.g09.slc.cpg/sg65_28_cif.got.tgz:55636.got - 2010.04.10 20:52:16.
