data_PCOD8268690
_publ_section_title
;
Structure prediction by ZEFSAII (Michael W. Deem and Ramdas Pophale) SiO2 
 PCOD8268690
Probable space group: C M M M
;
_chemical_formula_sum "Si O2"
_cell_formula_units_Z 104
_cell_length_a 28.061626
_cell_length_b 8.593930
_cell_length_c 23.893013
_cell_angle_alpha 90.000000
_cell_angle_beta 90.000000
_cell_angle_gamma 90.000000
_cell_volume 5762.030641
_symmetry_space_group_name_H-M "C M M M"
_symmetry_group_IT_number 65
_symmetry_cell_setting 'orthorhombic'
loop_
_space_group_symop_operation_xyz
x,y,z
-x,-y,z
x,-y,-z
-x,y,-z
-x,-y,-z
x,y,-z
-x,y,z
x,-y,z
1/2+x,1/2+y,z
1/2-x,1/2-y,z
1/2+x,1/2-y,-z
1/2-x,1/2+y,-z
1/2-x,1/2-y,-z
1/2+x,1/2+y,-z
1/2-x,1/2+y,z
1/2+x,1/2-y,z
loop_
_atom_site_type_symbol
_atom_site_label
_atom_site_fract_x
_atom_site_fract_y
_atom_site_fract_z
Si Si1 0.373185 0.819896 0.173668
Si Si2 0.700043 0.680577 0.250652
Si Si3 0.000000 0.671748 0.064788
Si Si4 0.053497 0.682682 0.266981
Si Si5 0.300201 0.317181 0.563841
Si Si6 0.098001 0.818053 0.063830
Si Si7 0.861916 0.682462 0.344222
O O1 0.333644 0.705402 0.197675
O O2 0.422969 0.781769 0.206121
O O3 0.372043 0.783366 0.107555
O O4 0.359659 0.000000 0.183417
O O5 0.703059 0.500000 0.266814
O O6 0.750000 0.750000 0.232618
O O7 0.681142 0.778820 0.302822
O O8 0.044351 0.777454 0.080867
O O9 0.000000 0.500000 0.095226
O O10 0.000000 0.635571 0.000000
O O11 0.049008 0.500000 0.275302
O O12 0.088249 0.747105 0.317003
O O13 0.000000 0.757259 0.270149
O O14 0.307297 0.262310 0.500000
O O15 0.297056 0.500000 0.569480
O O16 0.250000 0.250000 0.587403
O O17 0.347321 0.259187 0.596854
O O18 0.107038 0.000000 0.072253
O O19 0.110241 0.767925 0.000000
O O20 0.865965 0.500000 0.353170
#
# Coordination Sequence:
#
# PCOD8268690 Si02
#       7
#    16  16   8  16  16  16  16
#     4  10  20  33  52  77 102 130 169 209 254 307
#     4  11  21  35  54  75 103 133 167 208 254 303
#     4   9  17  29  45  65  89 123 165 203 242 291
#     4   8  16  31  50  73 100 130 166 210 252 292
#     4  10  20  33  50  74 105 138 171 209 255 306
#     4  10  20  33  48  69 100 134 167 207 255 307
#     4  10  19  32  52  77 104 135 172 210 252 301
#
# _framework density 18.049192999999999
#
# number of rings (size 3 to 8) (size 9 to 14) (size 15 to 20)
#    0.000    2.231    0.000    4.846    1.077    2.769 
#    0.000    0.000    0.000   10.154    0.000    3.231 
#    0.000    0.000    0.000    0.000    0.000    0.000 
#
# Total GULP energy -644435.202870 kJ/mol
# GULP energy per Si atom -12392.984671 kJ/mol
# Density = 1.800811 g / cm^3
# Si number density = 18.049193 Si / 1000 Ang^3
#
#
#
# Elastic Constant Matrix: (Units=GPa)
#
#
# Indices 1 2 3 4 5 6 
#
# 1 98.0203 19.7942 42.7379 0.0000 0.0000 0.0000
# 2 19.7942 48.3435 19.0337 0.0000 0.0000 0.0000
# 3 42.7379 19.0337 100.5798 0.0000 0.0000 0.0000
# 4 0.0000 0.0000 0.0000 29.3562 0.0000 0.0000
# 5 0.0000 0.0000 0.0000 0.0000 19.7306 0.0000
# 6 0.0000 0.0000 0.0000 0.0000 0.0000 26.7279
#
#
#
# Elastic Compliance Matrix: (Units=1/GPa)
#
#
# Indices 1 2 3 4 5 6 
#
# 1 0.013021 -0.003407 -0.004888 0.000000 0.000000 0.000000
# 2 -0.003407 0.023242 -0.002951 0.000000 0.000000 0.000000
# 3 -0.004888 -0.002951 0.012578 0.000000 0.000000 0.000000
# 4 0.000000 0.000000 0.000000 0.034064 0.000000 0.000000
# 5 0.000000 0.000000 0.000000 0.000000 0.050683 0.000000
# 6 0.000000 0.000000 0.000000 0.000000 0.000000 0.037414
#
#
# Mechanical properties :
#
#
# Convention : Reuss Voigt Hill
#
# Bulk Modulus (GPa) = 37.95145 45.56390 41.75768
# Shear Modulus (GPa) = 24.71858 26.18813 25.45335
#
# Velocity S-wave (km/s) = 3.70471 3.81324 3.75937
# Velocity P-wave (km/s) = 6.27472 6.68482 6.48301
#
# Compressibility (1/GPa) = 0.02634945
#
# Stress axis : x y z
#
# Youngs Moduli (GPa) = 76.79737 43.02554 79.50513
#
# Poissons Ratio (x) = 0.14659 0.38864
# Poissons Ratio (y) = 0.26165 0.23459
# Poissons Ratio (z) = 0.37540 0.12695
#
# Static dielectric constant tensor:
#      x y z
#    x 3.125270 0.000000 0.000000 
#    y 0.000000 3.249050 0.000000 
#    z 0.000000 0.000000 3.426220 
# 
# 
# High freq. dielectric constant tensor:
#      x y z
#    x 1.678440 0.000000 0.000000 
#    y 0.000000 1.697010 0.000000 
#    z 0.000000 0.000000 1.692730 
# 
# From -- ./inp_files/68184.got.cif
#   From: 2010.03.12/outbox.cif.g09.slc.cpg/sg65_35_cif.got.tgz:68184.got - 2010.04.10 20:52:16.
