data_PCOD8268797
_publ_section_title
;
Structure prediction by ZEFSAII (Michael W. Deem and Ramdas Pophale) SiO2 
 PCOD8268797
Probable space group: C M M M
;
_chemical_formula_sum "Si O2"
_cell_formula_units_Z 88
_cell_length_a 19.446703
_cell_length_b 30.075921
_cell_length_c 8.004262
_cell_angle_alpha 90.000000
_cell_angle_beta 90.000000
_cell_angle_gamma 90.000000
_cell_volume 4681.512773
_symmetry_space_group_name_H-M "C M M M"
_symmetry_group_IT_number 65
_symmetry_cell_setting 'orthorhombic'
loop_
_space_group_symop_operation_xyz
x,y,z
-x,-y,z
x,-y,-z
-x,y,-z
-x,-y,-z
x,y,-z
-x,y,z
x,-y,z
1/2+x,1/2+y,z
1/2-x,1/2-y,z
1/2+x,1/2-y,-z
1/2-x,1/2+y,-z
1/2-x,1/2-y,-z
1/2+x,1/2+y,-z
1/2-x,1/2+y,z
1/2+x,1/2-y,z
loop_
_atom_site_type_symbol
_atom_site_label
_atom_site_fract_x
_atom_site_fract_y
_atom_site_fract_z
Si Si1 0.207299 0.790189 0.308778
Si Si2 0.924504 0.653683 0.198172
Si Si3 0.425959 0.746972 0.195048
Si Si4 0.077505 0.052634 0.500000
Si Si5 0.781456 0.623591 0.193625
Si Si6 0.171897 0.051776 0.191684
O O1 0.200620 0.778333 0.500000
O O2 0.250000 0.750000 0.220291
O O3 0.130126 0.790109 0.237869
O O4 0.239828 0.838142 0.286396
O O5 0.907414 0.703574 0.263735
O O6 0.860971 0.622214 0.259113
O O7 0.000000 0.638243 0.268109
O O8 0.928395 0.652499 0.000000
O O9 0.500000 0.731998 0.269707
O O10 0.432872 0.751356 0.000000
O O11 0.116056 0.068179 0.329136
O O12 0.000000 0.072570 0.500000
O O13 0.073386 0.000000 0.500000
O O14 0.743919 0.576814 0.227368
O O15 0.780714 0.636282 0.000000
O O16 0.187881 0.000000 0.215764
O O17 0.146098 0.061295 0.000000
#
# Coordination Sequence:
#
# PCOD8268797 Si02
#       6
#    16  16  16   8  16  16
#     4  11  22  32  45  71 103 133 166 210 257 305
#     4   8  14  26  47  74  98 125 168 214 251 294
#     4   9  17  31  50  68  90 125 168 211 250 293
#     4   9  18  34  58  84 106 137 177 217 271 325
#     4  10  19  32  54  76  98 135 174 213 258 307
#     4   9  19  35  55  83 112 138 176 222 267 317
#
# _framework density 18.797342
#
# number of rings (size 3 to 8) (size 9 to 14) (size 15 to 20)
#    0.000    2.636    1.818    1.636    1.273    1.455 
#    0.000    2.727    0.000    2.182    0.000    3.818 
#    0.000    2.182    0.000    0.182    0.000    0.000 
#
# Total GULP energy -545108.822226 kJ/mol
# GULP energy per Si atom -12388.836869 kJ/mol
# Density = 1.875456 g / cm^3
# Si number density = 18.797342 Si / 1000 Ang^3
#
#
#
# Elastic Constant Matrix: (Units=GPa)
#
#
# Indices 1 2 3 4 5 6 
#
# 1 187.8061 51.6342 43.7541 0.0000 0.0000 0.0000
# 2 51.6342 55.3898 17.5712 0.0000 0.0000 0.0000
# 3 43.7541 17.5712 54.6350 0.0000 0.0000 0.0000
# 4 0.0000 0.0000 0.0000 14.7615 0.0000 0.0000
# 5 0.0000 0.0000 0.0000 0.0000 4.7563 0.0000
# 6 0.0000 0.0000 0.0000 0.0000 0.0000 26.3929
#
#
#
# Elastic Compliance Matrix: (Units=1/GPa)
#
#
# Indices 1 2 3 4 5 6 
#
# 1 0.008039 -0.006071 -0.004485 0.000000 0.000000 0.000000
# 2 -0.006071 0.024690 -0.003079 0.000000 0.000000 0.000000
# 3 -0.004485 -0.003079 0.022885 0.000000 0.000000 0.000000
# 4 0.000000 0.000000 0.000000 0.067744 0.000000 0.000000
# 5 0.000000 0.000000 0.000000 0.000000 0.210248 0.000000
# 6 0.000000 0.000000 0.000000 0.000000 0.000000 0.037889
#
#
# Mechanical properties :
#
#
# Convention : Reuss Voigt Hill
#
# Bulk Modulus (GPa) = 35.28054 58.19441 46.73747
# Shear Modulus (GPa) = 12.24853 21.50690 16.87772
#
# Velocity S-wave (km/s) = 2.55543 3.38619 2.99971
# Velocity P-wave (km/s) = 5.24563 6.80547 6.07582
#
# Compressibility (1/GPa) = 0.02834424
#
# Stress axis : x y z
#
# Youngs Moduli (GPa) = 124.39894 40.50274 43.69584
#
# Poissons Ratio (x) = 0.24588 0.19599
# Poissons Ratio (y) = 0.75520 0.13453
# Poissons Ratio (z) = 0.55796 0.12470
#
# Static dielectric constant tensor:
#      x y z
#    x 4.340690 0.000000 0.000000 
#    y 0.000000 3.076150 0.000000 
#    z 0.000000 0.000000 3.324490 
# 
# 
# High freq. dielectric constant tensor:
#      x y z
#    x 1.743530 0.000000 0.000000 
#    y 0.000000 1.684100 0.000000 
#    z 0.000000 0.000000 1.716430 
# 
# From -- ./inp_files/10116.got.cif
#   From: 2010.03.12/outbox.cif.g09.slc.cpg/sg65_6_cif.got.tgz:10116.got - 2010.04.10 20:52:16.
