data_PCOD8268278
_publ_section_title
;
Structure prediction by ZEFSAII (Michael W. Deem and Ramdas Pophale) SiO2 
 PCOD8268278
Probable space group: C M M M
;
_chemical_formula_sum "Si O2"
_cell_formula_units_Z 80
_cell_length_a 15.335522
_cell_length_b 25.889367
_cell_length_c 11.143696
_cell_angle_alpha 90.000000
_cell_angle_beta 90.000000
_cell_angle_gamma 90.000000
_cell_volume 4424.347715
_symmetry_space_group_name_H-M "C M M M"
_symmetry_group_IT_number 65
_symmetry_cell_setting 'orthorhombic'
loop_
_space_group_symop_operation_xyz
x,y,z
-x,-y,z
x,-y,-z
-x,y,-z
-x,-y,-z
x,y,-z
-x,y,z
x,-y,z
1/2+x,1/2+y,z
1/2-x,1/2-y,z
1/2+x,1/2-y,-z
1/2-x,1/2+y,-z
1/2-x,1/2-y,-z
1/2+x,1/2+y,-z
1/2-x,1/2+y,z
1/2+x,1/2-y,z
loop_
_atom_site_type_symbol
_atom_site_label
_atom_site_fract_x
_atom_site_fract_y
_atom_site_fract_z
Si Si1 0.830544 0.899743 0.748852
Si Si2 0.336328 0.941281 0.863336
Si Si3 0.500000 0.556692 0.139301
Si Si4 0.500000 0.122432 0.856714
Si Si5 0.396368 0.560848 0.500000
Si Si6 0.500000 0.761958 0.858280
Si Si7 0.176105 0.207960 0.859866
O O1 0.750562 0.936157 0.784984
O O2 0.853123 0.910113 0.611476
O O3 0.802939 0.840897 0.776073
O O4 0.914932 0.911597 0.827821
O O5 0.413265 0.905982 0.808936
O O6 0.368942 0.000000 0.857931
O O7 0.314663 0.924753 0.000000
O O8 0.500000 0.500000 0.204438
O O9 0.500000 0.547436 0.000000
O O10 0.500000 0.180328 0.804111
O O11 0.500000 0.120113 0.000000
O O12 0.374047 0.500000 0.500000
O O13 0.500000 0.569545 0.500000
O O14 0.584741 0.731286 0.815107
O O15 0.500000 0.767850 0.000000
O O16 0.250000 0.250000 0.837212
O O17 0.173375 0.191677 0.000000
#
# Coordination Sequence:
#
# PCOD8268278 Si02
#       7
#    16  16   8   8   8   8  16
#     4  12  22  36  56  79 109 150 192 232 282 343
#     4  10  19  31  51  81 113 143 178 224 281 344
#     4  11  21  32  51  82 116 143 176 235 303 365
#     4   9  17  31  51  77 112 147 176 214 270 334
#     4  11  24  42  59  77 109 155 202 244 286 341
#     4   9  17  29  46  71 104 141 174 205 254 321
#     4  10  20  34  54  83 115 145 180 227 282 341
#
# _framework density 18.081761
#
# number of rings (size 3 to 8) (size 9 to 14) (size 15 to 20)
#    0.000    1.600    1.000    5.700    0.000    6.800 
#    0.000    0.500    0.000    0.600    0.000    2.100 
#    0.000    0.000    0.000    0.000    0.000    0.000 
#
# Total GULP energy -496098.476614 kJ/mol
# GULP energy per Si atom -12402.461915 kJ/mol
# Density = 1.804061 g / cm^3
# Si number density = 18.081761 Si / 1000 Ang^3
#
#
#
# Elastic Constant Matrix: (Units=GPa)
#
#
# Indices 1 2 3 4 5 6 
#
# 1 101.6166 25.0642 30.0912 0.0000 0.0000 0.0000
# 2 25.0642 112.4083 39.4840 0.0000 0.0000 0.0000
# 3 30.0912 39.4840 81.3019 0.0000 0.0000 0.0000
# 4 0.0000 0.0000 0.0000 17.9858 0.0000 0.0000
# 5 0.0000 0.0000 0.0000 0.0000 37.0146 0.0000
# 6 0.0000 0.0000 0.0000 0.0000 0.0000 34.6679
#
#
#
# Elastic Compliance Matrix: (Units=1/GPa)
#
#
# Indices 1 2 3 4 5 6 
#
# 1 0.011197 -0.001255 -0.003535 0.000000 0.000000 0.000000
# 2 -0.001255 0.010867 -0.004813 0.000000 0.000000 0.000000
# 3 -0.003535 -0.004813 0.015945 0.000000 0.000000 0.000000
# 4 0.000000 0.000000 0.000000 0.055600 0.000000 0.000000
# 5 0.000000 0.000000 0.000000 0.000000 0.027016 0.000000
# 6 0.000000 0.000000 0.000000 0.000000 0.000000 0.028845
#
#
# Mechanical properties :
#
#
# Convention : Reuss Voigt Hill
#
# Bulk Modulus (GPa) = 53.18035 53.84505 53.51270
# Shear Modulus (GPa) = 28.58070 31.31282 29.94676
#
# Velocity S-wave (km/s) = 3.98004 4.16593 4.07404
# Velocity P-wave (km/s) = 7.11307 7.27896 7.19649
#
# Compressibility (1/GPa) = 0.01880394
#
# Stress axis : x y z
#
# Youngs Moduli (GPa) = 89.30793 92.02594 62.71399
#
# Poissons Ratio (x) = 0.11550 0.22168
# Poissons Ratio (y) = 0.11209 0.30183
# Poissons Ratio (z) = 0.31568 0.44290
#
# Static dielectric constant tensor:
#      x y z
#    x 3.493460 0.000000 0.000000 
#    y 0.000000 3.481960 0.000000 
#    z 0.000000 0.000000 2.938750 
# 
# 
# High freq. dielectric constant tensor:
#      x y z
#    x 1.715540 0.000000 0.000000 
#    y 0.000000 1.715950 0.000000 
#    z 0.000000 0.000000 1.644200 
# 
# From -- ./inp_files/24755.got.cif
#   From: 2010.03.12/outbox.cif.g09.slc.cpg/sg65_13_cif.got.tgz:24755.got - 2010.04.10 20:52:16.
