data_PCOD8268893
_publ_section_title
;
Structure prediction by ZEFSAII (Michael W. Deem and Ramdas Pophale) SiO2 
 PCOD8268893
Probable space group: C M M M
;
_chemical_formula_sum "Si O2"
_cell_formula_units_Z 96
_cell_length_a 14.966013
_cell_length_b 26.947083
_cell_length_c 11.896700
_cell_angle_alpha 90.000000
_cell_angle_beta 90.000000
_cell_angle_gamma 90.000000
_cell_volume 4797.824836
_symmetry_space_group_name_H-M "C M M M"
_symmetry_group_IT_number 65
_symmetry_cell_setting 'orthorhombic'
loop_
_space_group_symop_operation_xyz
x,y,z
-x,-y,z
x,-y,-z
-x,y,-z
-x,-y,-z
x,y,-z
-x,y,z
x,-y,z
1/2+x,1/2+y,z
1/2-x,1/2-y,z
1/2+x,1/2-y,-z
1/2-x,1/2+y,-z
1/2-x,1/2-y,-z
1/2+x,1/2+y,-z
1/2-x,1/2+y,z
1/2+x,1/2-y,z
loop_
_atom_site_type_symbol
_atom_site_label
_atom_site_fract_x
_atom_site_fract_y
_atom_site_fract_z
Si Si1 0.600074 0.910847 0.733002
Si Si2 0.392757 0.000000 0.125763
Si Si3 0.000000 0.943789 0.868258
Si Si4 0.107390 0.375734 0.500000
Si Si5 0.100364 0.238305 0.257932
Si Si6 0.832496 0.327489 0.129451
Si Si7 0.633389 0.358979 0.129455
Si Si8 0.605434 0.764040 0.500000
O O1 0.500000 0.928971 0.710099
O O2 0.647544 0.952809 0.808151
O O3 0.646007 0.903246 0.610969
O O4 0.595920 0.859778 0.802595
O O5 0.500000 0.000000 0.118386
O O6 0.352588 0.000000 0.000000
O O7 0.911093 0.911761 0.833883
O O8 0.000000 0.000000 0.813638
O O9 0.000000 0.951596 0.000000
O O10 0.144206 0.319787 0.500000
O O11 0.000000 0.374988 0.500000
O O12 0.166529 0.272355 0.182419
O O13 0.093513 0.183466 0.208354
O O14 0.138359 0.236491 0.386143
O O15 0.000000 0.261132 0.256722
O O16 0.739846 0.357288 0.145206
O O17 0.860077 0.322916 0.000000
O O18 0.607872 0.347501 0.000000
O O19 0.500000 0.764774 0.500000
#
# Coordination Sequence:
#
# PCOD8268893 Si02
#       8
#    16   8   8   8  16  16  16   8
#     4  10  19  33  52  72 103 146 189 231 276 330
#     4   9  18  31  47  71 103 137 180 231 272 325
#     4   9  18  38  66  87 107 143 189 235 287 336
#     4   9  16  31  51  72 100 135 189 242 265 308
#     4  11  20  34  56  79 112 153 186 222 276 340
#     4  11  22  33  49  79 116 149 180 222 283 344
#     4  10  21  37  55  83 116 139 179 238 283 335
#     4   9  18  32  51  78 106 142 189 234 261 318
#
# _framework density 20.009067000000002
#
# number of rings (size 3 to 8) (size 9 to 14) (size 15 to 20)
#    0.000    2.000    2.500    2.000    0.000    4.333 
#    1.500    4.167    0.000    0.000    0.000    1.167 
#    0.000    0.000    0.000    0.000    0.000    0.000 
#
# Total GULP energy -594819.916139 kJ/mol
# GULP energy per Si atom -12392.081586 kJ/mol
# Density = 1.996353 g / cm^3
# Si number density = 20.009067 Si / 1000 Ang^3
#
#
#
# Elastic Constant Matrix: (Units=GPa)
#
#
# Indices 1 2 3 4 5 6 
#
# 1 38.1634 19.6408 13.8210 0.0000 0.0000 0.0000
# 2 19.6408 147.7469 73.7076 0.0000 0.0000 0.0000
# 3 13.8210 73.7076 178.6041 0.0000 0.0000 0.0000
# 4 0.0000 0.0000 0.0000 28.6083 0.0000 0.0000
# 5 0.0000 0.0000 0.0000 0.0000 8.8982 0.0000
# 6 0.0000 0.0000 0.0000 0.0000 0.0000 18.6787
#
#
#
# Elastic Compliance Matrix: (Units=1/GPa)
#
#
# Indices 1 2 3 4 5 6 
#
# 1 0.028218 -0.003352 -0.000800 0.000000 0.000000 0.000000
# 2 -0.003352 0.008921 -0.003422 0.000000 0.000000 0.000000
# 3 -0.000800 -0.003422 0.007073 0.000000 0.000000 0.000000
# 4 0.000000 0.000000 0.000000 0.034955 0.000000 0.000000
# 5 0.000000 0.000000 0.000000 0.000000 0.112382 0.000000
# 6 0.000000 0.000000 0.000000 0.000000 0.000000 0.053537
#
#
# Mechanical properties :
#
#
# Convention : Reuss Voigt Hill
#
# Bulk Modulus (GPa) = 34.40751 64.31704 49.36227
# Shear Modulus (GPa) = 18.52378 28.39337 23.45858
#
# Velocity S-wave (km/s) = 3.04595 3.77108 3.42774
# Velocity P-wave (km/s) = 5.44093 7.15368 6.35527
#
# Compressibility (1/GPa) = 0.02906342
#
# Stress axis : x y z
#
# Youngs Moduli (GPa) = 35.43837 112.09219 141.37784
#
# Poissons Ratio (x) = 0.37572 0.11315
# Poissons Ratio (y) = 0.11879 0.48384
# Poissons Ratio (z) = 0.02836 0.38361
#
# Static dielectric constant tensor:
#      x y z
#    x 3.334980 0.000000 0.000000 
#    y 0.000000 3.653600 0.000000 
#    z 0.000000 0.000000 3.855100 
# 
# 
# High freq. dielectric constant tensor:
#      x y z
#    x 1.744600 0.000000 0.000000 
#    y 0.000000 1.771110 0.000000 
#    z 0.000000 0.000000 1.780310 
# 
# From -- ./inp_files/25506.got.cif
#   From: 2010.03.12/outbox.cif.g09.slc.cpg/sg65_13_cif.got.tgz:25506.got - 2010.04.10 20:52:16.
