data_PCOD8268526
_publ_section_title
;
Structure prediction by ZEFSAII (Michael W. Deem and Ramdas Pophale) SiO2 
 PCOD8268526
Probable space group: C M M M
;
_chemical_formula_sum "Si O2"
_cell_formula_units_Z 96
_cell_length_a 8.606991
_cell_length_b 20.206687
_cell_length_c 30.080581
_cell_angle_alpha 90.000000
_cell_angle_beta 90.000000
_cell_angle_gamma 90.000000
_cell_volume 5231.577743
_symmetry_space_group_name_H-M "C M M M"
_symmetry_group_IT_number 65
_symmetry_cell_setting 'orthorhombic'
loop_
_space_group_symop_operation_xyz
x,y,z
-x,-y,z
x,-y,-z
-x,y,-z
-x,-y,-z
x,y,-z
-x,y,z
x,-y,z
1/2+x,1/2+y,z
1/2-x,1/2-y,z
1/2+x,1/2-y,-z
1/2-x,1/2+y,-z
1/2-x,1/2-y,-z
1/2+x,1/2+y,-z
1/2-x,1/2+y,z
1/2+x,1/2-y,z
loop_
_atom_site_type_symbol
_atom_site_label
_atom_site_fract_x
_atom_site_fract_y
_atom_site_fract_z
Si Si1 0.815614 0.927122 0.881623
Si Si2 0.184687 0.073792 0.549563
Si Si3 0.317935 0.180107 0.715203
Si Si4 0.180422 0.076874 0.781123
Si Si5 0.315853 0.319791 0.949788
Si Si6 0.815421 0.820739 0.380132
O O1 0.768891 0.906999 0.831639
O O2 0.745840 0.875393 0.917019
O O3 0.000000 0.929157 0.885190
O O4 0.748927 0.000000 0.892960
O O5 0.242214 0.093313 0.500000
O O6 0.251995 0.125485 0.585247
O O7 0.000000 0.074876 0.550883
O O8 0.244230 0.000000 0.561675
O O9 0.500000 0.188752 0.708133
O O10 0.250000 0.250000 0.732457
O O11 0.285266 0.122409 0.750161
O O12 0.241089 0.159318 0.668750
O O13 0.000000 0.093817 0.773450
O O14 0.212230 0.000000 0.770153
O O15 0.500000 0.317357 0.946908
O O16 0.250000 0.250000 0.933498
O O17 0.260503 0.335649 0.000000
O O18 0.750000 0.750000 0.394853
O O19 0.000000 0.818462 0.380501
#
# Coordination Sequence:
#
# PCOD8268526 Si02
#       6
#    16  16  16  16  16  16
#     4   8  15  29  49  72  96 123 158 199 239 281
#     4   8  15  29  49  73  99 127 162 201 237 279
#     4  11  22  36  53  73 100 131 166 208 250 295
#     4   9  18  34  54  74  99 130 163 201 247 299
#     4   9  17  29  46  69  97 127 159 196 237 282
#     4  10  19  32  51  74 100 130 163 200 244 292
#
# _framework density 18.350103000000001
#
# number of rings (size 3 to 8) (size 9 to 14) (size 15 to 20)
#    0.000    2.833    0.000    4.500    0.000    2.333 
#    0.000    5.833    0.000    4.500    0.000    7.000 
#    0.000    0.000    0.000    0.000    0.000    0.000 
#
# Total GULP energy -595084.051849 kJ/mol
# GULP energy per Si atom -12397.584414 kJ/mol
# Density = 1.830834 g / cm^3
# Si number density = 18.350103 Si / 1000 Ang^3
#
#
#
# Elastic Constant Matrix: (Units=GPa)
#
#
# Indices 1 2 3 4 5 6 
#
# 1 46.6109 26.3246 23.3071 0.0000 0.0000 0.0000
# 2 26.3246 141.1065 105.1299 0.0000 0.0000 0.0000
# 3 23.3071 105.1299 127.5167 0.0000 0.0000 0.0000
# 4 0.0000 0.0000 0.0000 43.9682 0.0000 0.0000
# 5 0.0000 0.0000 0.0000 0.0000 17.2467 0.0000
# 6 0.0000 0.0000 0.0000 0.0000 0.0000 26.8958
#
#
#
# Elastic Compliance Matrix: (Units=1/GPa)
#
#
# Indices 1 2 3 4 5 6 
#
# 1 0.024142 -0.003153 -0.001813 0.000000 0.000000 0.000000
# 2 -0.003153 0.018783 -0.014909 0.000000 0.000000 0.000000
# 3 -0.001813 -0.014909 0.020465 0.000000 0.000000 0.000000
# 4 0.000000 0.000000 0.000000 0.022744 0.000000 0.000000
# 5 0.000000 0.000000 0.000000 0.000000 0.057982 0.000000
# 6 0.000000 0.000000 0.000000 0.000000 0.000000 0.037181
#
#
# Mechanical properties :
#
#
# Convention : Reuss Voigt Hill
#
# Bulk Modulus (GPa) = 42.30241 69.41747 55.85994
# Shear Modulus (GPa) = 21.84111 28.32031 25.08071
#
# Velocity S-wave (km/s) = 3.45373 3.93279 3.70102
# Velocity P-wave (km/s) = 6.24559 7.65075 6.98360
#
# Compressibility (1/GPa) = 0.02363932
#
# Stress axis : x y z
#
# Youngs Moduli (GPa) = 41.42235 53.23979 48.86358
#
# Poissons Ratio (x) = 0.16787 0.08859
# Poissons Ratio (y) = 0.13061 0.72851
# Poissons Ratio (z) = 0.07510 0.79376
#
# Static dielectric constant tensor:
#      x y z
#    x 3.021310 0.000000 0.000000 
#    y 0.000000 3.642340 0.000000 
#    z 0.000000 0.000000 3.573470 
# 
# 
# High freq. dielectric constant tensor:
#      x y z
#    x 1.680130 0.000000 0.000000 
#    y 0.000000 1.717410 0.000000 
#    z 0.000000 0.000000 1.715140 
# 
# From -- ./inp_files/73106.got.cif
#   From: 2010.03.12/outbox.cif.g09.slc.cpg/sg65_37_cif.got.tgz:73106.got - 2010.04.10 20:52:16.
