data_PCOD8268888
_publ_section_title
;
Structure prediction by ZEFSAII (Michael W. Deem and Ramdas Pophale) SiO2 
 PCOD8268888
Probable space group: C M M M
;
_chemical_formula_sum "Si O2"
_cell_formula_units_Z 88
_cell_length_a 17.414730
_cell_length_b 15.557827
_cell_length_c 18.117304
_cell_angle_alpha 90.000000
_cell_angle_beta 90.000000
_cell_angle_gamma 90.000000
_cell_volume 4908.618220
_symmetry_space_group_name_H-M "C M M M"
_symmetry_group_IT_number 65
_symmetry_cell_setting 'orthorhombic'
loop_
_space_group_symop_operation_xyz
x,y,z
-x,-y,z
x,-y,-z
-x,y,-z
-x,-y,-z
x,y,-z
-x,y,z
x,-y,z
1/2+x,1/2+y,z
1/2-x,1/2-y,z
1/2+x,1/2-y,-z
1/2-x,1/2+y,-z
1/2-x,1/2-y,-z
1/2+x,1/2+y,-z
1/2-x,1/2+y,z
1/2+x,1/2-y,z
loop_
_atom_site_type_symbol
_atom_site_label
_atom_site_fract_x
_atom_site_fract_y
_atom_site_fract_z
Si Si1 0.262642 0.000000 0.236695
Si Si2 0.170209 0.000000 0.912317
Si Si3 0.908671 0.164626 0.848991
Si Si4 0.088068 0.901054 0.414223
Si Si5 0.590335 0.837956 0.079704
Si Si6 0.191304 0.169888 0.293855
Si Si7 0.912067 0.500000 0.823889
O O1 0.238808 0.000000 0.148865
O O2 0.237657 0.083366 0.280538
O O3 0.355269 0.000000 0.245146
O O4 0.118392 0.916851 0.896131
O O5 0.195693 0.000000 0.000000
O O6 0.877138 0.248520 0.890681
O O7 0.873727 0.173781 0.768209
O O8 0.000000 0.161299 0.840996
O O9 0.107035 0.890246 0.500000
O O10 0.145693 0.837659 0.370947
O O11 0.000000 0.874650 0.398032
O O12 0.100616 0.000000 0.389401
O O13 0.500000 0.830759 0.072111
O O14 0.611998 0.916240 0.131123
O O15 0.627914 0.855681 0.000000
O O16 0.250000 0.250000 0.294564
O O17 0.000000 0.500000 0.797842
#
# Coordination Sequence:
#
# PCOD8268888 Si02
#       7
#     8   8  16  16  16  16   8
#     4  10  22  37  49  74 107 141 178 225 277 329
#     4  10  21  34  50  74 104 136 173 227 294 348
#     4  10  20  33  50  73 102 139 178 219 268 325
#     4   9  18  35  61  90 116 142 176 219 265 315
#     4   9  17  29  46  68  91 119 167 225 267 301
#     4  11  21  35  54  79 114 147 177 215 268 326
#     4  10  19  33  52  68  88 128 183 232 269 308
#
# _framework density 17.927651999999998
#
# number of rings (size 3 to 8) (size 9 to 14) (size 15 to 20)
#    0.000    2.182    0.909    3.273    0.000    3.636 
#    0.000    0.909    0.000    6.000    0.000    0.000 
#    0.000    2.182    0.000    0.000    0.000    0.000 
#
# Total GULP energy -545282.424867 kJ/mol
# GULP energy per Si atom -12392.782383 kJ/mol
# Density = 1.788685 g / cm^3
# Si number density = 17.927652 Si / 1000 Ang^3
#
#
#
# Elastic Constant Matrix: (Units=GPa)
#
#
# Indices 1 2 3 4 5 6 
#
# 1 87.2796 46.2783 40.8192 0.0000 0.0000 0.0000
# 2 46.2783 120.0137 23.6992 0.0000 0.0000 0.0000
# 3 40.8192 23.6992 77.4102 0.0000 0.0000 0.0000
# 4 0.0000 0.0000 0.0000 -31.5610 0.0000 0.0000
# 5 0.0000 0.0000 0.0000 0.0000 15.4374 0.0000
# 6 0.0000 0.0000 0.0000 0.0000 0.0000 1.7845
#
#
#
# Elastic Compliance Matrix: (Units=1/GPa)
#
#
# Indices 1 2 3 4 5 6 
#
# 1 0.017974 -0.005385 -0.007829 0.000000 0.000000 0.000000
# 2 -0.005385 0.010482 -0.000369 0.000000 0.000000 0.000000
# 3 -0.007829 -0.000369 0.017160 0.000000 0.000000 0.000000
# 4 0.000000 0.000000 0.000000 -0.031685 0.000000 0.000000
# 5 0.000000 0.000000 0.000000 0.000000 0.064778 0.000000
# 6 0.000000 0.000000 0.000000 0.000000 0.000000 0.560377
#
#
# Mechanical properties :
#
#
# Convention : Reuss Voigt Hill
#
# Bulk Modulus (GPa) = 54.20566 56.25523 55.23044
# Shear Modulus (GPa) = 7.43601 8.72596 8.08098
#
# Velocity S-wave (km/s) = 2.03882 2.20859 2.12540
# Velocity P-wave (km/s) = 5.98697 6.16044 6.07432
#
# Compressibility (1/GPa) = 0.01844826
#
# Stress axis : x y z
#
# Youngs Moduli (GPa) = 55.63455 95.40307 58.27546
#
# Poissons Ratio (x) = 0.51375 0.45627
# Poissons Ratio (y) = 0.29959 0.02153
# Poissons Ratio (z) = 0.43559 0.03525
#
# Static dielectric constant tensor:
#      x y z
#    x 3.213240 0.000000 0.000000 
#    y 0.000000 3.524450 0.000000 
#    z 0.000000 0.000000 3.220750 
# 
# 
# High freq. dielectric constant tensor:
#      x y z
#    x 1.691350 0.000000 0.000000 
#    y 0.000000 1.701630 0.000000 
#    z 0.000000 0.000000 1.677490 
# 
# From -- ./inp_files/54349.got.cif
#   From: 2010.03.12/outbox.cif.g09.slc.cpg/sg65_28_cif.got.tgz:54349.got - 2010.04.10 20:52:16.
