data_PCOD8268468
_publ_section_title
;
Structure prediction by ZEFSAII (Michael W. Deem and Ramdas Pophale) SiO2 
 PCOD8268468
Probable space group: C M M M
;
_chemical_formula_sum "Si O2"
_cell_formula_units_Z 104
_cell_length_a 28.959543
_cell_length_b 8.787439
_cell_length_c 23.562196
_cell_angle_alpha 90.000000
_cell_angle_beta 90.000000
_cell_angle_gamma 90.000000
_cell_volume 5996.112765
_symmetry_space_group_name_H-M "C M M M"
_symmetry_group_IT_number 65
_symmetry_cell_setting 'orthorhombic'
loop_
_space_group_symop_operation_xyz
x,y,z
-x,-y,z
x,-y,-z
-x,y,-z
-x,-y,-z
x,y,-z
-x,y,z
x,-y,z
1/2+x,1/2+y,z
1/2-x,1/2-y,z
1/2+x,1/2-y,-z
1/2-x,1/2+y,-z
1/2-x,1/2-y,-z
1/2+x,1/2+y,-z
1/2-x,1/2+y,z
1/2+x,1/2-y,z
loop_
_atom_site_type_symbol
_atom_site_label
_atom_site_fract_x
_atom_site_fract_y
_atom_site_fract_z
Si Si1 0.798762 0.675517 0.000000
Si Si2 0.644236 0.818936 0.562451
Si Si3 0.550271 0.820637 0.610889
Si Si4 0.699234 0.179656 0.876964
Si Si5 0.800083 0.319054 0.329268
Si Si6 0.449145 0.672897 0.728942
Si Si7 0.353397 0.323381 0.774846
O O1 0.750000 0.750000 0.000000
O O2 0.822797 0.717994 0.939768
O O3 0.788107 0.500000 0.000000
O O4 0.660402 0.762186 0.500000
O O5 0.592402 0.754332 0.573549
O O6 0.679288 0.759500 0.610658
O O7 0.642959 0.000000 0.564825
O O8 0.500000 0.754200 0.591504
O O9 0.559653 0.782968 0.676248
O O10 0.549370 0.000000 0.604488
O O11 0.750000 0.250000 0.869349
O O12 0.664402 0.253160 0.832941
O O13 0.702836 0.000000 0.866088
O O14 0.797227 0.500000 0.327153
O O15 0.750000 0.250000 0.320979
O O16 0.832231 0.262383 0.278792
O O17 0.500000 0.704527 0.756108
O O18 0.446320 0.500000 0.706285
O O19 0.408902 0.701125 0.774962
O O20 0.339631 0.500000 0.771498
#
# Coordination Sequence:
#
# PCOD8268468 Si02
#       7
#     8  16  16  16  16  16  16
#     4   8  16  30  48  70  99 136 169 201 236 277
#     4   9  18  32  49  70  95 122 155 196 242 292
#     4   9  16  28  49  74  96 119 150 189 237 294
#     4  10  19  32  50  74 105 137 170 202 238 280
#     4  11  22  36  52  69  93 125 161 203 248 290
#     4   9  18  32  50  71  97 127 156 192 240 290
#     4  11  21  33  51  75 101 128 162 200 242 288
#
# _framework density 17.344570000000001
#
# number of rings (size 3 to 8) (size 9 to 14) (size 15 to 20)
#    0.000    2.308    1.538    1.846    0.000    1.846 
#    0.000    1.538    0.000    3.692    0.000    2.692 
#    0.000    4.308    0.000    0.000    0.000    0.000 
#
# Total GULP energy -644319.293966 kJ/mol
# GULP energy per Si atom -12390.755653 kJ/mol
# Density = 1.730509 g / cm^3
# Si number density = 17.344570 Si / 1000 Ang^3
#
#
#
# Elastic Constant Matrix: (Units=GPa)
#
#
# Indices 1 2 3 4 5 6 
#
# 1 105.9322 27.4848 56.8010 0.0000 0.0000 0.0000
# 2 27.4848 44.9743 29.8875 0.0000 0.0000 0.0000
# 3 56.8010 29.8875 129.1420 0.0000 0.0000 0.0000
# 4 0.0000 0.0000 0.0000 13.9303 0.0000 0.0000
# 5 0.0000 0.0000 0.0000 0.0000 20.7124 0.0000
# 6 0.0000 0.0000 0.0000 0.0000 0.0000 15.5773
#
#
#
# Elastic Compliance Matrix: (Units=1/GPa)
#
#
# Indices 1 2 3 4 5 6 
#
# 1 0.013237 -0.004987 -0.004668 0.000000 0.000000 0.000000
# 2 -0.004987 0.028155 -0.004322 0.000000 0.000000 0.000000
# 3 -0.004668 -0.004322 0.010797 0.000000 0.000000 0.000000
# 4 0.000000 0.000000 0.000000 0.071786 0.000000 0.000000
# 5 0.000000 0.000000 0.000000 0.000000 0.048280 0.000000
# 6 0.000000 0.000000 0.000000 0.000000 0.000000 0.064196
#
#
# Mechanical properties :
#
#
# Convention : Reuss Voigt Hill
#
# Bulk Modulus (GPa) = 41.26467 56.48835 48.87651
# Shear Modulus (GPa) = 18.34970 21.10235 19.72603
#
# Velocity S-wave (km/s) = 3.25614 3.49184 3.37605
# Velocity P-wave (km/s) = 6.16274 6.99259 6.59074
#
# Compressibility (1/GPa) = 0.02423380
#
# Stress axis : x y z
#
# Youngs Moduli (GPa) = 75.54646 35.51737 92.61993
#
# Poissons Ratio (x) = 0.17714 0.43233
# Poissons Ratio (y) = 0.37678 0.40034
# Poissons Ratio (z) = 0.35264 0.15352
#
# Static dielectric constant tensor:
#      x y z
#    x 3.441880 0.000000 0.000000 
#    y 0.000000 3.194080 0.000000 
#    z 0.000000 0.000000 2.757000 
# 
# 
# High freq. dielectric constant tensor:
#      x y z
#    x 1.664430 0.000000 0.000000 
#    y 0.000000 1.662960 0.000000 
#    z 0.000000 0.000000 1.658070 
# 
# From -- ./inp_files/72129.got.cif
#   From: 2010.03.12/outbox.cif.g09.slc.cpg/sg65_37_cif.got.tgz:72129.got - 2010.04.10 20:52:16.
