data_PCOD8268563
_publ_section_title
;
Structure prediction by ZEFSAII (Michael W. Deem and Ramdas Pophale) SiO2 
 PCOD8268563
Probable space group: C M M M
;
_chemical_formula_sum "Si O2"
_cell_formula_units_Z 96
_cell_length_a 20.023241
_cell_length_b 8.606204
_cell_length_c 30.105201
_cell_angle_alpha 90.000000
_cell_angle_beta 90.000000
_cell_angle_gamma 90.000000
_cell_volume 5187.851571
_symmetry_space_group_name_H-M "C M M M"
_symmetry_group_IT_number 65
_symmetry_cell_setting 'orthorhombic'
loop_
_space_group_symop_operation_xyz
x,y,z
-x,-y,z
x,-y,-z
-x,y,-z
-x,-y,-z
x,y,-z
-x,y,z
x,-y,z
1/2+x,1/2+y,z
1/2-x,1/2-y,z
1/2+x,1/2-y,-z
1/2-x,1/2+y,-z
1/2-x,1/2-y,-z
1/2+x,1/2+y,-z
1/2-x,1/2+y,z
1/2+x,1/2-y,z
loop_
_atom_site_type_symbol
_atom_site_label
_atom_site_fract_x
_atom_site_fract_y
_atom_site_fract_z
Si Si1 0.180117 0.316248 0.950157
Si Si2 0.077152 0.180061 0.216343
Si Si3 0.923696 0.319626 0.877399
Si Si4 0.678331 0.315377 0.621292
Si Si5 0.425486 0.684698 0.450579
Si Si6 0.179095 0.317772 0.283874
O O1 0.184146 0.500000 0.950061
O O2 0.250000 0.250000 0.932280
O O3 0.121480 0.257991 0.917846
O O4 0.165466 0.254007 0.000000
O O5 0.095074 0.220332 0.165746
O O6 0.122450 0.283881 0.248021
O O7 0.000000 0.220882 0.226132
O O8 0.092304 0.000000 0.225041
O O9 0.910139 0.500000 0.866711
O O10 0.000000 0.292029 0.891712
O O11 0.680504 0.500000 0.621171
O O12 0.750000 0.250000 0.607557
O O13 0.625612 0.247895 0.585700
O O14 0.656642 0.258186 0.669824
O O15 0.404580 0.741401 0.500000
O O16 0.500000 0.745159 0.439281
O O17 0.424695 0.500000 0.449052
O O18 0.187459 0.500000 0.290755
O O19 0.250000 0.250000 0.267580
#
# Coordination Sequence:
#
# PCOD8268563 Si02
#       6
#    16  16  16  16  16  16
#     4   9  18  32  50  73 101 133 168 207 251 299
#     4  10  21  37  56  78 105 136 171 211 256 308
#     4   9  18  33  52  74 101 133 170 211 253 298
#     4  10  19  32  51  75 103 134 168 208 254 303
#     4   8  15  29  49  73 100 131 169 210 249 293
#     4  11  22  37  56  77 104 136 172 214 259 308
#
# _framework density 18.504770000000001
#
# number of rings (size 3 to 8) (size 9 to 14) (size 15 to 20)
#    0.000    2.500    0.000    4.000    0.000    3.667 
#    0.000    5.000    0.000    3.000    0.000    9.333 
#    0.000    0.000    0.000    0.000    0.000    0.000 
#
# Total GULP energy -595225.590650 kJ/mol
# GULP energy per Si atom -12400.533139 kJ/mol
# Density = 1.846265 g / cm^3
# Si number density = 18.504770 Si / 1000 Ang^3
#
#
#
# Elastic Constant Matrix: (Units=GPa)
#
#
# Indices 1 2 3 4 5 6 
#
# 1 122.1750 27.4901 92.6625 0.0000 0.0000 0.0000
# 2 27.4901 55.4192 25.2116 0.0000 0.0000 0.0000
# 3 92.6625 25.2116 117.7019 0.0000 0.0000 0.0000
# 4 0.0000 0.0000 0.0000 21.8802 0.0000 0.0000
# 5 0.0000 0.0000 0.0000 0.0000 43.7251 0.0000
# 6 0.0000 0.0000 0.0000 0.0000 0.0000 27.1436
#
#
#
# Elastic Compliance Matrix: (Units=1/GPa)
#
#
# Indices 1 2 3 4 5 6 
#
# 1 0.020808 -0.003179 -0.015701 0.000000 0.000000 0.000000
# 2 -0.003179 0.020478 -0.001884 0.000000 0.000000 0.000000
# 3 -0.015701 -0.001884 0.021260 0.000000 0.000000 0.000000
# 4 0.000000 0.000000 0.000000 0.045703 0.000000 0.000000
# 5 0.000000 0.000000 0.000000 0.000000 0.022870 0.000000
# 6 0.000000 0.000000 0.000000 0.000000 0.000000 0.036841
#
#
# Mechanical properties :
#
#
# Convention : Reuss Voigt Hill
#
# Bulk Modulus (GPa) = 47.57422 65.11384 56.34403
# Shear Modulus (GPa) = 23.09528 28.54525 25.82027
#
# Velocity S-wave (km/s) = 3.53664 3.93184 3.73946
# Velocity P-wave (km/s) = 6.51476 7.47506 7.01137
#
# Compressibility (1/GPa) = 0.02101979
#
# Stress axis : x y z
#
# Youngs Moduli (GPa) = 48.05771 48.83249 47.03653
#
# Poissons Ratio (x) = 0.15524 0.73851
# Poissons Ratio (y) = 0.15278 0.08860
# Poissons Ratio (z) = 0.75454 0.09198
#
# Static dielectric constant tensor:
#      x y z
#    x 3.536340 0.000000 0.000000 
#    y 0.000000 3.240600 0.000000 
#    z 0.000000 0.000000 3.579150 
# 
# 
# High freq. dielectric constant tensor:
#      x y z
#    x 1.720680 0.000000 0.000000 
#    y 0.000000 1.705640 0.000000 
#    z 0.000000 0.000000 1.721150 
# 
# From -- ./inp_files/75331.got.cif
#   From: 2010.03.12/outbox.cif.g09.slc.cpg/sg65_38_cif.got.tgz:75331.got - 2010.04.10 20:52:16.
