data_PCOD8268725
_publ_section_title
;
Structure prediction by ZEFSAII (Michael W. Deem and Ramdas Pophale) SiO2 
 PCOD8268725
Probable space group: C M M M
;
_chemical_formula_sum "Si O2"
_cell_formula_units_Z 72
_cell_length_a 9.461182
_cell_length_b 17.839415
_cell_length_c 21.949669
_cell_angle_alpha 90.000000
_cell_angle_beta 90.000000
_cell_angle_gamma 90.000000
_cell_volume 3704.707982
_symmetry_space_group_name_H-M "C M M M"
_symmetry_group_IT_number 65
_symmetry_cell_setting 'orthorhombic'
loop_
_space_group_symop_operation_xyz
x,y,z
-x,-y,z
x,-y,-z
-x,y,-z
-x,-y,-z
x,y,-z
-x,y,z
x,-y,z
1/2+x,1/2+y,z
1/2-x,1/2-y,z
1/2+x,1/2-y,-z
1/2-x,1/2+y,-z
1/2-x,1/2-y,-z
1/2+x,1/2+y,-z
1/2-x,1/2+y,z
1/2+x,1/2-y,z
loop_
_atom_site_type_symbol
_atom_site_label
_atom_site_fract_x
_atom_site_fract_y
_atom_site_fract_z
Si Si1 0.500000 0.656682 0.068735
Si Si2 0.174180 0.329986 0.500000
Si Si3 0.747532 0.161347 0.849740
Si Si4 0.835009 0.911460 0.392813
Si Si5 0.500000 0.834631 0.932896
Si Si6 0.838383 0.411739 0.274005
O O1 0.625139 0.629155 0.111210
O O2 0.500000 0.745536 0.061132
O O3 0.500000 0.621614 0.000000
O O4 0.250000 0.250000 0.500000
O O5 0.232679 0.373666 0.441727
O O6 0.000000 0.325756 0.500000
O O7 0.750000 0.250000 0.838738
O O8 0.627248 0.134495 0.894410
O O9 0.734638 0.123371 0.784648
O O10 0.764994 0.888234 0.328878
O O11 0.000000 0.884131 0.396278
O O12 0.829757 0.000000 0.403472
O O13 0.500000 0.870588 0.000000
O O14 0.842175 0.500000 0.266232
O O15 0.000000 0.381875 0.283549
#
# Coordination Sequence:
#
# PCOD8268725 Si02
#       6
#     8   8  16  16   8  16
#     4   9  18  30  49  77 105 140 183 234 293 351
#     4  12  25  42  65  95 131 163 195 240 293 340
#     4  10  19  32  52  79 109 141 186 238 290 347
#     4  10  22  41  65  91 120 158 203 244 287 347
#     4   9  16  30  51  75 105 140 183 234 285 343
#     4  10  21  38  58  81 112 152 196 238 285 342
#
# _framework density 19.434729999999998
#
# number of rings (size 3 to 8) (size 9 to 14) (size 15 to 20)
#    0.000    2.000    1.111    2.667    1.556    6.222 
#    0.000    2.222    0.000    4.000    0.000    0.000 
#    0.000    0.000    0.000    0.000    0.000    0.000 
#
# Total GULP energy -445991.579086 kJ/mol
# GULP energy per Si atom -12388.654975 kJ/mol
# Density = 1.939050 g / cm^3
# Si number density = 19.434730 Si / 1000 Ang^3
#
#
#
# Elastic Constant Matrix: (Units=GPa)
#
#
# Indices 1 2 3 4 5 6 
#
# 1 196.1899 29.9344 98.9213 0.0000 0.0000 0.0000
# 2 29.9344 18.2691 44.8418 0.0000 0.0000 0.0000
# 3 98.9213 44.8418 198.3947 0.0000 0.0000 0.0000
# 4 0.0000 0.0000 0.0000 37.1564 0.0000 0.0000
# 5 0.0000 0.0000 0.0000 0.0000 52.2184 0.0000
# 6 0.0000 0.0000 0.0000 0.0000 0.0000 24.0157
#
#
#
# Elastic Compliance Matrix: (Units=1/GPa)
#
#
# Indices 1 2 3 4 5 6 
#
# 1 0.007153 -0.006662 -0.002061 0.000000 0.000000 0.000000
# 2 -0.006662 0.129149 -0.025869 0.000000 0.000000 0.000000
# 3 -0.002061 -0.025869 0.011915 0.000000 0.000000 0.000000
# 4 0.000000 0.000000 0.000000 0.026913 0.000000 0.000000
# 5 0.000000 0.000000 0.000000 0.000000 0.019150 0.000000
# 6 0.000000 0.000000 0.000000 0.000000 0.000000 0.041640
#
#
# Mechanical properties :
#
#
# Convention : Reuss Voigt Hill
#
# Bulk Modulus (GPa) = 12.65287 84.47208 48.56247
# Shear Modulus (GPa) = 15.08537 38.62184 26.85360
#
# Velocity S-wave (km/s) = 2.78907 4.46270 3.72120
# Velocity P-wave (km/s) = 4.11053 8.37336 6.59582
#
# Compressibility (1/GPa) = 0.07903346
#
# Stress axis : x y z
#
# Youngs Moduli (GPa) = 139.81060 7.74299 83.92890
#
# Poissons Ratio (x) = 0.05158 0.17294
# Poissons Ratio (y) = 0.93142 2.17115
# Poissons Ratio (z) = 0.28809 0.20030
#
# Static dielectric constant tensor:
#      x y z
#    x 3.980170 0.000000 0.000000 
#    y 0.000000 3.205420 0.000000 
#    z 0.000000 0.000000 3.804040 
# 
# 
# High freq. dielectric constant tensor:
#      x y z
#    x 1.779140 0.000000 0.000000 
#    y 0.000000 1.718650 0.000000 
#    z 0.000000 0.000000 1.777980 
# 
# From -- ./inp_files/59338.got.cif
#   From: 2010.03.12/outbox.cif.g09.slc.cpg/sg65_30_cif.got.tgz:59338.got - 2010.04.10 20:52:16.
