data_PCOD8268322
_publ_section_title
;
Structure prediction by ZEFSAII (Michael W. Deem and Ramdas Pophale) SiO2 
 PCOD8268322
Probable space group: C M M M
;
_chemical_formula_sum "Si O2"
_cell_formula_units_Z 96
_cell_length_a 24.168304
_cell_length_b 23.749551
_cell_length_c 9.305059
_cell_angle_alpha 90.000000
_cell_angle_beta 90.000000
_cell_angle_gamma 90.000000
_cell_volume 5340.977023
_symmetry_space_group_name_H-M "C M M M"
_symmetry_group_IT_number 65
_symmetry_cell_setting 'orthorhombic'
loop_
_space_group_symop_operation_xyz
x,y,z
-x,-y,z
x,-y,-z
-x,y,-z
-x,-y,-z
x,y,-z
-x,y,z
x,-y,z
1/2+x,1/2+y,z
1/2-x,1/2-y,z
1/2+x,1/2-y,-z
1/2-x,1/2+y,-z
1/2-x,1/2-y,-z
1/2+x,1/2+y,-z
1/2-x,1/2+y,z
1/2+x,1/2-y,z
loop_
_atom_site_type_symbol
_atom_site_label
_atom_site_fract_x
_atom_site_fract_y
_atom_site_fract_z
Si Si1 0.845675 0.268744 0.164861
Si Si2 0.726285 0.870002 0.167276
Si Si3 0.063561 0.064511 0.668101
Si Si4 0.352074 0.644437 0.832330
Si Si5 0.937498 0.357015 0.164793
Si Si6 0.360978 0.934241 0.336572
O O1 0.795530 0.308490 0.223238
O O2 0.850950 0.207295 0.237693
O O3 0.903770 0.299734 0.189210
O O4 0.832293 0.255885 0.000000
O O5 0.790856 0.880084 0.192073
O O6 0.695233 0.918589 0.254025
O O7 0.709706 0.875330 0.000000
O O8 0.074028 0.073058 0.500000
O O9 0.103610 0.105966 0.753131
O O10 0.000000 0.078981 0.706781
O O11 0.076528 0.000000 0.711874
O O12 0.368144 0.645049 0.000000
O O13 0.914297 0.406224 0.264282
O O14 0.000000 0.344116 0.210085
O O15 0.932798 0.376938 0.000000
O O16 0.356012 0.913227 0.500000
O O17 0.370285 0.000000 0.327542
#
# Coordination Sequence:
#
# PCOD8268322 Si02
#       6
#    16  16  16  16  16  16
#     4   8  15  30  51  75 104 133 160 196 244 295
#     4   9  18  33  52  74 102 134 165 199 243 296
#     4   9  20  39  56  69  95 136 172 201 241 295
#     4  10  19  31  54  84 104 124 161 206 248 291
#     4   9  18  33  53  75  99 131 169 205 245 296
#     4  10  21  35  50  70  98 133 171 210 252 293
#
# _framework density 17.974239000000001
#
# number of rings (size 3 to 8) (size 9 to 14) (size 15 to 20)
#    0.000    2.833    0.000    2.500    0.000    6.667 
#    0.000   10.833    0.000    5.000    0.000    0.000 
#    0.000    0.000    0.000    0.000    0.000    0.000 
#
# Total GULP energy -595024.129291 kJ/mol
# GULP energy per Si atom -12396.336027 kJ/mol
# Density = 1.793333 g / cm^3
# Si number density = 17.974239 Si / 1000 Ang^3
#
#
#
# Elastic Constant Matrix: (Units=GPa)
#
#
# Indices 1 2 3 4 5 6 
#
# 1 114.1681 36.2691 41.4537 0.0000 0.0000 0.0000
# 2 36.2691 66.3633 31.7581 0.0000 0.0000 0.0000
# 3 41.4537 31.7581 61.3282 0.0000 0.0000 0.0000
# 4 0.0000 0.0000 0.0000 -7.5269 0.0000 0.0000
# 5 0.0000 0.0000 0.0000 0.0000 21.0649 0.0000
# 6 0.0000 0.0000 0.0000 0.0000 0.0000 22.9396
#
#
#
# Elastic Compliance Matrix: (Units=1/GPa)
#
#
# Indices 1 2 3 4 5 6 
#
# 1 0.012231 -0.003627 -0.006389 0.000000 0.000000 0.000000
# 2 -0.003627 0.021109 -0.008479 0.000000 0.000000 0.000000
# 3 -0.006389 -0.008479 0.025015 0.000000 0.000000 0.000000
# 4 0.000000 0.000000 0.000000 -0.132857 0.000000 0.000000
# 5 0.000000 0.000000 0.000000 0.000000 0.047472 0.000000
# 6 0.000000 0.000000 0.000000 0.000000 0.000000 0.043593
#
#
# Mechanical properties :
#
#
# Convention : Reuss Voigt Hill
#
# Bulk Modulus (GPa) = 46.80758 51.20236 49.00497
# Shear Modulus (GPa) = 82.40559 16.12076 49.26317
#
# Velocity S-wave (km/s) = 6.77835 2.99805 5.24091
# Velocity P-wave (km/s) = 9.34662 6.36653 7.99663
#
# Compressibility (1/GPa) = 0.02136406
#
# Stress axis : x y z
#
# Youngs Moduli (GPa) = 81.75856 47.37416 39.97573
#
# Poissons Ratio (x) = 0.17183 0.25541
# Poissons Ratio (y) = 0.29654 0.33896
# Poissons Ratio (z) = 0.52237 0.40169
#
# Static dielectric constant tensor:
#      x y z
#    x 3.419260 0.000000 0.000000 
#    y 0.000000 3.335370 0.000000 
#    z 0.000000 0.000000 3.172100 
# 
# 
# High freq. dielectric constant tensor:
#      x y z
#    x 1.702620 0.000000 0.000000 
#    y 0.000000 1.695910 0.000000 
#    z 0.000000 0.000000 1.671320 
# 
# From -- ./inp_files/12200.got.cif
#   From: 2010.03.12/outbox.cif.g09.slc.cpg/sg65_7_cif.got.tgz:12200.got - 2010.04.10 20:52:16.
