data_PCOD8268969
_publ_section_title
;
Structure prediction by ZEFSAII (Michael W. Deem and Ramdas Pophale) SiO2 
 PCOD8268969
Probable space group: C M M M
;
_chemical_formula_sum "Si O2"
_cell_formula_units_Z 104
_cell_length_a 28.681374
_cell_length_b 9.038950
_cell_length_c 23.217727
_cell_angle_alpha 90.000000
_cell_angle_beta 90.000000
_cell_angle_gamma 90.000000
_cell_volume 6019.184244
_symmetry_space_group_name_H-M "C M M M"
_symmetry_group_IT_number 65
_symmetry_cell_setting 'orthorhombic'
loop_
_space_group_symop_operation_xyz
x,y,z
-x,-y,z
x,-y,-z
-x,y,-z
-x,-y,-z
x,y,-z
-x,y,z
x,-y,z
1/2+x,1/2+y,z
1/2-x,1/2-y,z
1/2+x,1/2-y,-z
1/2-x,1/2+y,-z
1/2-x,1/2-y,-z
1/2+x,1/2+y,-z
1/2-x,1/2+y,z
1/2+x,1/2-y,z
loop_
_atom_site_type_symbol
_atom_site_label
_atom_site_fract_x
_atom_site_fract_y
_atom_site_fract_z
Si Si1 0.554589 0.669865 0.500000
Si Si2 0.796089 0.171733 0.113618
Si Si3 0.389800 0.175260 0.275625
Si Si4 0.053163 0.673414 0.835728
Si Si5 0.106833 0.173813 0.934414
Si Si6 0.796991 0.826440 0.247666
Si Si7 0.944735 0.172397 0.375377
O O1 0.567859 0.500000 0.500000
O O2 0.500000 0.692434 0.500000
O O3 0.573137 0.732455 0.561397
O O4 0.750000 0.250000 0.088990
O O5 0.841262 0.232728 0.080095
O O6 0.803336 0.209007 0.180461
O O7 0.788895 0.000000 0.102453
O O8 0.415437 0.228772 0.217386
O O9 0.340154 0.254947 0.281180
O O10 0.420764 0.223255 0.329225
O O11 0.382914 0.000000 0.276220
O O12 0.058647 0.500000 0.844722
O O13 0.068578 0.750676 0.894501
O O14 0.000000 0.717778 0.822398
O O15 0.104898 0.000000 0.922666
O O16 0.094629 0.213810 0.000000
O O17 0.750000 0.750000 0.270943
O O18 0.794737 0.000000 0.260488
O O19 0.000000 0.191469 0.369747
O O20 0.931269 0.000000 0.366191
#
# Coordination Sequence:
#
# PCOD8268969 Si02
#       7
#     8  16  16  16  16  16  16
#     4   7  12  26  47  71 102 139 178 215 249 291
#     4   9  18  32  51  74  99 124 154 194 244 300
#     4  11  21  33  51  76 106 136 169 210 256 301
#     4  10  22  38  53  70  96 130 167 208 252 297
#     4  10  21  37  54  73  97 125 161 205 252 304
#     4  10  19  33  53  76 102 131 165 204 252 305
#     4   9  17  30  50  76 106 142 180 215 252 296
#
# _framework density 17.278089000000001
#
# number of rings (size 3 to 8) (size 9 to 14) (size 15 to 20)
#    0.000    2.385    1.538    2.308    0.000    4.000 
#    0.000    1.923    0.000    1.385    0.000    0.538 
#    0.000    0.000    0.000    0.000    0.000    0.000 
#
# Total GULP energy -644673.464624 kJ/mol
# GULP energy per Si atom -12397.566627 kJ/mol
# Density = 1.723876 g / cm^3
# Si number density = 17.278089 Si / 1000 Ang^3
#
#
#
# Elastic Constant Matrix: (Units=GPa)
#
#
# Indices 1 2 3 4 5 6 
#
# 1 97.8582 40.1906 44.0441 0.0000 0.0000 0.0000
# 2 40.1906 51.9236 34.9141 0.0000 0.0000 0.0000
# 3 44.0441 34.9141 98.3709 0.0000 0.0000 0.0000
# 4 0.0000 0.0000 0.0000 21.7350 0.0000 0.0000
# 5 0.0000 0.0000 0.0000 0.0000 14.4443 0.0000
# 6 0.0000 0.0000 0.0000 0.0000 0.0000 31.4254
#
#
#
# Elastic Compliance Matrix: (Units=1/GPa)
#
#
# Indices 1 2 3 4 5 6 
#
# 1 0.015903 -0.009879 -0.003614 0.000000 0.000000 0.000000
# 2 -0.009879 0.031433 -0.006733 0.000000 0.000000 0.000000
# 3 -0.003614 -0.006733 0.014173 0.000000 0.000000 0.000000
# 4 0.000000 0.000000 0.000000 0.046009 0.000000 0.000000
# 5 0.000000 0.000000 0.000000 0.000000 0.069231 0.000000
# 6 0.000000 0.000000 0.000000 0.000000 0.000000 0.031821
#
#
# Mechanical properties :
#
#
# Convention : Reuss Voigt Hill
#
# Bulk Modulus (GPa) = 47.49002 54.05001 50.77001
# Shear Modulus (GPa) = 19.52797 22.12119 20.82458
#
# Velocity S-wave (km/s) = 3.36552 3.58201 3.47545
# Velocity P-wave (km/s) = 6.53051 6.96118 6.74928
#
# Compressibility (1/GPa) = 0.02105706
#
# Stress axis : x y z
#
# Youngs Moduli (GPa) = 62.88179 31.81328 70.55467
#
# Poissons Ratio (x) = 0.31429 0.25498
# Poissons Ratio (y) = 0.62123 0.47505
# Poissons Ratio (z) = 0.22725 0.21420
#
# Static dielectric constant tensor:
#      x y z
#    x 3.207940 0.000000 0.000000 
#    y 0.000000 3.094390 0.000000 
#    z 0.000000 0.000000 3.287340 
# 
# 
# High freq. dielectric constant tensor:
#      x y z
#    x 1.660800 0.000000 0.000000 
#    y 0.000000 1.658490 0.000000 
#    z 0.000000 0.000000 1.656390 
# 
# From -- ./inp_files/60457.got.cif
#   From: 2010.03.12/outbox.cif.g09.slc.cpg/sg65_31_cif.got.tgz:60457.got - 2010.04.10 20:52:16.
