data_PCOD8268058
_publ_section_title
;
Structure prediction by ZEFSAII (Michael W. Deem and Ramdas Pophale) SiO2 
 PCOD8268058
Probable space group: C M M M
;
_chemical_formula_sum "Si O2"
_cell_formula_units_Z 96
_cell_length_a 8.997698
_cell_length_b 27.451979
_cell_length_c 23.122686
_cell_angle_alpha 90.000000
_cell_angle_beta 90.000000
_cell_angle_gamma 90.000000
_cell_volume 5711.410189
_symmetry_space_group_name_H-M "C M M M"
_symmetry_group_IT_number 65
_symmetry_cell_setting 'orthorhombic'
loop_
_space_group_symop_operation_xyz
x,y,z
-x,-y,z
x,-y,-z
-x,y,-z
-x,-y,-z
x,y,-z
-x,y,z
x,-y,z
1/2+x,1/2+y,z
1/2-x,1/2-y,z
1/2+x,1/2-y,-z
1/2-x,1/2+y,-z
1/2-x,1/2-y,-z
1/2+x,1/2+y,-z
1/2-x,1/2+y,z
1/2+x,1/2-y,z
loop_
_atom_site_type_symbol
_atom_site_label
_atom_site_fract_x
_atom_site_fract_y
_atom_site_fract_z
Si Si1 0.172761 0.886522 0.336559
Si Si2 0.172470 0.944200 0.777629
Si Si3 0.670676 0.055715 0.566791
Si Si4 0.672616 0.300052 0.932975
Si Si5 0.173670 0.360747 0.839596
Si Si6 0.674417 0.801827 0.725277
O O1 0.206887 0.926016 0.286966
O O2 0.225346 0.908555 0.397040
O O3 0.261284 0.836909 0.324215
O O4 0.000000 0.873644 0.340237
O O5 0.269022 0.914461 0.823848
O O6 0.000000 0.937090 0.792847
O O7 0.222117 0.000000 0.781831
O O8 0.691975 0.069495 0.500000
O O9 0.500000 0.062907 0.585583
O O10 0.719428 0.000000 0.577586
O O11 0.500000 0.295003 0.918209
O O12 0.750000 0.250000 0.914194
O O13 0.742747 0.344118 0.897277
O O14 0.700791 0.311592 0.000000
O O15 0.213111 0.323582 0.788081
O O16 0.000000 0.363045 0.852265
O O17 0.500000 0.796410 0.715893
O O18 0.750000 0.750000 0.719289
#
# Coordination Sequence:
#
# PCOD8268058 Si02
#       6
#    16  16  16  16  16  16
#     4  10  19  31  49  73  99 127 160 198 239 283
#     4   9  18  32  49  70  98 130 161 196 239 284
#     4   9  18  32  49  70  98 131 163 196 237 283
#     4  10  20  33  50  72  98 128 160 195 237 284
#     4  10  20  32  49  73  99 128 160 196 238 283
#     4  10  20  33  49  71  98 128 161 196 237 284
#
# _framework density 16.808458999999999
#
# number of rings (size 3 to 8) (size 9 to 14) (size 15 to 20)
#    0.000    2.333    0.000    3.500    0.000    6.667 
#    0.000    0.833    0.000    1.000    0.000    3.500 
#    0.000    0.000    0.000    0.000    0.000    0.000 
#
# Total GULP energy -595404.549806 kJ/mol
# GULP energy per Si atom -12404.261454 kJ/mol
# Density = 1.677020 g / cm^3
# Si number density = 16.808459 Si / 1000 Ang^3
#
#
#
# Elastic Constant Matrix: (Units=GPa)
#
#
# Indices 1 2 3 4 5 6 
#
# 1 89.9312 59.7540 47.0981 0.0000 0.0000 0.0000
# 2 59.7540 127.8712 51.2904 0.0000 0.0000 0.0000
# 3 47.0981 51.2904 72.6238 0.0000 0.0000 0.0000
# 4 0.0000 0.0000 0.0000 26.6279 0.0000 0.0000
# 5 0.0000 0.0000 0.0000 0.0000 30.1249 0.0000
# 6 0.0000 0.0000 0.0000 0.0000 0.0000 33.4128
#
#
#
# Elastic Compliance Matrix: (Units=1/GPa)
#
#
# Indices 1 2 3 4 5 6 
#
# 1 0.019331 -0.005588 -0.008590 0.000000 0.000000 0.000000
# 2 -0.005588 0.012527 -0.005223 0.000000 0.000000 0.000000
# 3 -0.008590 -0.005223 0.023029 0.000000 0.000000 0.000000
# 4 0.000000 0.000000 0.000000 0.037555 0.000000 0.000000
# 5 0.000000 0.000000 0.000000 0.000000 0.033195 0.000000
# 6 0.000000 0.000000 0.000000 0.000000 0.000000 0.029929
#
#
# Mechanical properties :
#
#
# Convention : Reuss Voigt Hill
#
# Bulk Modulus (GPa) = 62.17055 67.41235 64.79145
# Shear Modulus (GPa) = 25.03385 26.85205 25.94295
#
# Velocity S-wave (km/s) = 3.86341 4.00125 3.93293
# Velocity P-wave (km/s) = 7.54779 7.84474 7.69770
#
# Compressibility (1/GPa) = 0.01608479
#
# Stress axis : x y z
#
# Youngs Moduli (GPa) = 51.72964 79.83052 43.42270
#
# Poissons Ratio (x) = 0.44607 0.37302
# Poissons Ratio (y) = 0.28905 0.22680
# Poissons Ratio (z) = 0.44438 0.41696
#
# Static dielectric constant tensor:
#      x y z
#    x 3.218630 0.000000 0.000000 
#    y 0.000000 3.087530 0.000000 
#    z 0.000000 0.000000 3.012470 
# 
# 
# High freq. dielectric constant tensor:
#      x y z
#    x 1.660670 0.000000 0.000000 
#    y 0.000000 1.640660 0.000000 
#    z 0.000000 0.000000 1.633830 
# 
# From -- ./inp_files/60182.got.cif
#   From: 2010.03.12/outbox.cif.g09.slc.cpg/sg65_31_cif.got.tgz:60182.got - 2010.04.10 20:52:16.
