data_PCOD8268382
_publ_section_title
;
Structure prediction by ZEFSAII (Michael W. Deem and Ramdas Pophale) SiO2 
 PCOD8268382
Probable space group: C M M M
;
_chemical_formula_sum "Si O2"
_cell_formula_units_Z 72
_cell_length_a 15.086747
_cell_length_b 17.650718
_cell_length_c 14.666022
_cell_angle_alpha 90.000000
_cell_angle_beta 90.000000
_cell_angle_gamma 90.000000
_cell_volume 3905.443111
_symmetry_space_group_name_H-M "C M M M"
_symmetry_group_IT_number 65
_symmetry_cell_setting 'orthorhombic'
loop_
_space_group_symop_operation_xyz
x,y,z
-x,-y,z
x,-y,-z
-x,y,-z
-x,-y,-z
x,y,-z
-x,y,z
x,-y,z
1/2+x,1/2+y,z
1/2-x,1/2-y,z
1/2+x,1/2-y,-z
1/2-x,1/2+y,-z
1/2-x,1/2-y,-z
1/2+x,1/2+y,-z
1/2-x,1/2+y,z
1/2+x,1/2-y,z
loop_
_atom_site_type_symbol
_atom_site_label
_atom_site_fract_x
_atom_site_fract_y
_atom_site_fract_z
Si Si1 0.900762 0.662969 0.316815
Si Si2 0.835478 0.802442 0.602427
Si Si3 0.766556 0.909770 0.255602
Si Si4 0.598594 0.589860 0.898137
Si Si5 0.104369 0.417303 0.500000
O O1 0.903714 0.753542 0.334858
O O2 0.829405 0.632107 0.243041
O O3 0.864437 0.626530 0.410896
O O4 0.000000 0.636049 0.289229
O O5 0.871968 0.818644 0.500000
O O6 0.750000 0.750000 0.598557
O O7 0.815851 0.882005 0.652235
O O8 0.826227 0.881274 0.170984
O O9 0.754000 0.000000 0.258964
O O10 0.500000 0.619765 0.870617
O O11 0.596915 0.500000 0.896027
O O12 0.622396 0.618618 0.000000
O O13 0.149041 0.500000 0.500000
O O14 0.000000 0.424075 0.500000
#
# Coordination Sequence:
#
# PCOD8268382 Si02
#       5
#    16  16  16  16   8
#     4  10  19  32  49  70 101 142 179 209 243 294
#     4   9  18  32  46  64  98 142 180 206 240 295
#     4  10  20  31  50  81 107 128 163 217 267 308
#     4   8  15  31  54  76  98 126 164 212 262 309
#     4   9  16  26  43  68  94 126 175 221 242 262
#
# _framework density 18.435808000000002
#
# number of rings (size 3 to 8) (size 9 to 14) (size 15 to 20)
#    0.000    2.778    1.111    1.333    1.556    2.667 
#    0.000    0.000    0.000    6.667    0.000    7.778 
#    0.000    0.000    0.000    0.000    0.000    0.000 
#
# Total GULP energy -446011.674182 kJ/mol
# GULP energy per Si atom -12389.213172 kJ/mol
# Density = 1.839385 g / cm^3
# Si number density = 18.435808 Si / 1000 Ang^3
#
#
#
# Elastic Constant Matrix: (Units=GPa)
#
#
# Indices 1 2 3 4 5 6 
#
# 1 125.5682 29.0010 69.0036 0.0000 0.0000 0.0000
# 2 29.0010 57.8454 23.5581 0.0000 0.0000 0.0000
# 3 69.0036 23.5581 92.2616 0.0000 0.0000 0.0000
# 4 0.0000 0.0000 0.0000 15.7051 0.0000 0.0000
# 5 0.0000 0.0000 0.0000 0.0000 29.7933 0.0000
# 6 0.0000 0.0000 0.0000 0.0000 0.0000 20.9701
#
#
#
# Elastic Compliance Matrix: (Units=1/GPa)
#
#
# Indices 1 2 3 4 5 6 
#
# 1 0.013994 -0.003073 -0.009682 0.000000 0.000000 0.000000
# 2 -0.003073 0.019969 -0.002800 0.000000 0.000000 0.000000
# 3 -0.009682 -0.002800 0.018795 0.000000 0.000000 0.000000
# 4 0.000000 0.000000 0.000000 0.063674 0.000000 0.000000
# 5 0.000000 0.000000 0.000000 0.000000 0.033565 0.000000
# 6 0.000000 0.000000 0.000000 0.000000 0.000000 0.047687
#
#
# Mechanical properties :
#
#
# Convention : Reuss Voigt Hill
#
# Bulk Modulus (GPa) = 46.19519 57.64453 51.91986
# Shear Modulus (GPa) = 21.18572 23.56786 22.37679
#
# Velocity S-wave (km/s) = 3.39361 3.57931 3.48770
# Velocity P-wave (km/s) = 6.36138 6.95827 6.66651
#
# Compressibility (1/GPa) = 0.02164728
#
# Stress axis : x y z
#
# Youngs Moduli (GPa) = 71.46016 50.07858 53.20637
#
# Poissons Ratio (x) = 0.15389 0.51512
# Poissons Ratio (y) = 0.21960 0.14900
# Poissons Ratio (z) = 0.69184 0.14024
#
# Static dielectric constant tensor:
#      x y z
#    x 3.515660 0.000000 0.000000 
#    y 0.000000 3.408020 0.000000 
#    z 0.000000 0.000000 3.439780 
# 
# 
# High freq. dielectric constant tensor:
#      x y z
#    x 1.714420 0.000000 0.000000 
#    y 0.000000 1.695760 0.000000 
#    z 0.000000 0.000000 1.681340 
# 
# From -- ./inp_files/39793.got.cif
#   From: 2010.03.12/outbox.cif.g09.slc.cpg/sg65_20_cif.got.tgz:39793.got - 2010.04.10 20:52:16.
