data_PCOD8268828
_publ_section_title
;
Structure prediction by ZEFSAII (Michael W. Deem and Ramdas Pophale) SiO2 
 PCOD8268828
Probable space group: C M M M
;
_chemical_formula_sum "Si O2"
_cell_formula_units_Z 64
_cell_length_a 20.546905
_cell_length_b 22.714086
_cell_length_c 7.723760
_cell_angle_alpha 90.000000
_cell_angle_beta 90.000000
_cell_angle_gamma 90.000000
_cell_volume 3604.710978
_symmetry_space_group_name_H-M "C M M M"
_symmetry_group_IT_number 65
_symmetry_cell_setting 'orthorhombic'
loop_
_space_group_symop_operation_xyz
x,y,z
-x,-y,z
x,-y,-z
-x,y,-z
-x,-y,-z
x,y,-z
-x,y,z
x,-y,z
1/2+x,1/2+y,z
1/2-x,1/2-y,z
1/2+x,1/2-y,-z
1/2-x,1/2+y,-z
1/2-x,1/2-y,-z
1/2+x,1/2+y,-z
1/2-x,1/2+y,z
1/2+x,1/2-y,z
loop_
_atom_site_type_symbol
_atom_site_label
_atom_site_fract_x
_atom_site_fract_y
_atom_site_fract_z
Si Si1 0.772181 0.126139 0.194872
Si Si2 0.226602 0.000000 0.693880
Si Si3 0.119075 0.500000 0.693917
Si Si4 0.427012 0.204960 0.500000
Si Si5 0.379920 0.874016 0.805038
Si Si6 0.310847 0.706559 0.500000
O O1 0.696168 0.129715 0.242792
O O2 0.810756 0.167019 0.327826
O O3 0.797624 0.058850 0.209178
O O4 0.785176 0.148714 0.000000
O O5 0.303730 0.000000 0.691365
O O6 0.198365 0.000000 0.500000
O O7 0.090820 0.500000 0.500000
O O8 0.094799 0.558657 0.791145
O O9 0.500000 0.230291 0.500000
O O10 0.418464 0.166121 0.328299
O O11 0.378319 0.259305 0.500000
O O12 0.392920 0.851624 0.000000
O O13 0.250000 0.750000 0.500000
#
# Coordination Sequence:
#
# PCOD8268828 Si02
#       6
#    16   8   8   8  16   8
#     4  10  19  32  56  87 114 140 174 221 274 322
#     4   9  15  27  51  84 120 141 161 212 277 327
#     4   9  15  27  53  79 108 141 176 220 269 312
#     4  12  26  41  54  73 106 146 187 230 272 315
#     4  10  19  34  55  80 108 142 182 224 268 317
#     4  12  22  37  57  79 107 143 189 229 262 314
#
# _framework density 17.754543999999999
#
# number of rings (size 3 to 8) (size 9 to 14) (size 15 to 20)
#    0.000    1.750    5.000    0.750    0.000    5.000 
#    0.000    1.250    0.000    1.500    0.000    1.750 
#    0.000    2.000    0.000    0.000    0.000    0.000 
#
# Total GULP energy -396773.877464 kJ/mol
# GULP energy per Si atom -12399.183671 kJ/mol
# Density = 1.771413 g / cm^3
# Si number density = 17.754544 Si / 1000 Ang^3
#
#
#
# Elastic Constant Matrix: (Units=GPa)
#
#
# Indices 1 2 3 4 5 6 
#
# 1 72.7643 50.2755 35.8409 0.0000 0.0000 0.0000
# 2 50.2755 112.1522 52.7193 0.0000 0.0000 0.0000
# 3 35.8409 52.7193 126.0095 0.0000 0.0000 0.0000
# 4 0.0000 0.0000 0.0000 5.6580 0.0000 0.0000
# 5 0.0000 0.0000 0.0000 0.0000 9.2297 0.0000
# 6 0.0000 0.0000 0.0000 0.0000 0.0000 12.5072
#
#
#
# Elastic Compliance Matrix: (Units=1/GPa)
#
#
# Indices 1 2 3 4 5 6 
#
# 1 0.020511 -0.008032 -0.002474 0.000000 0.000000 0.000000
# 2 -0.008032 0.014245 -0.003675 0.000000 0.000000 0.000000
# 3 -0.002474 -0.003675 0.010177 0.000000 0.000000 0.000000
# 4 0.000000 0.000000 0.000000 0.176741 0.000000 0.000000
# 5 0.000000 0.000000 0.000000 0.000000 0.108346 0.000000
# 6 0.000000 0.000000 0.000000 0.000000 0.000000 0.079954
#
#
# Mechanical properties :
#
#
# Convention : Reuss Voigt Hill
#
# Bulk Modulus (GPa) = 60.34479 65.39970 62.87224
# Shear Modulus (GPa) = 11.26484 16.95166 14.10825
#
# Velocity S-wave (km/s) = 2.52161 3.09330 2.82197
# Velocity P-wave (km/s) = 6.52228 7.04794 6.79020
#
# Compressibility (1/GPa) = 0.01657144
#
# Stress axis : x y z
#
# Youngs Moduli (GPa) = 48.75458 70.20252 98.26067
#
# Poissons Ratio (x) = 0.56386 0.24306
# Poissons Ratio (y) = 0.39159 0.36111
# Poissons Ratio (z) = 0.12060 0.25800
#
# Static dielectric constant tensor:
#      x y z
#    x 2.724880 0.000000 0.000000 
#    y 0.000000 3.436140 0.000000 
#    z 0.000000 0.000000 3.415040 
# 
# 
# High freq. dielectric constant tensor:
#      x y z
#    x 1.614140 0.000000 0.000000 
#    y 0.000000 1.688010 0.000000 
#    z 0.000000 0.000000 1.706910 
# 
# From -- ./inp_files/11179.got.cif
#   From: 2010.03.12/outbox.cif.g09.slc.cpg/sg65_6_cif.got.tgz:11179.got - 2010.04.10 20:52:16.
