data_PCOD8268478
_publ_section_title
;
Structure prediction by ZEFSAII (Michael W. Deem and Ramdas Pophale) SiO2 
 PCOD8268478
Probable space group: C M M M
;
_chemical_formula_sum "Si O2"
_cell_formula_units_Z 104
_cell_length_a 14.365928
_cell_length_b 21.107192
_cell_length_c 17.562395
_cell_angle_alpha 90.000000
_cell_angle_beta 90.000000
_cell_angle_gamma 90.000000
_cell_volume 5325.346696
_symmetry_space_group_name_H-M "C M M M"
_symmetry_group_IT_number 65
_symmetry_cell_setting 'orthorhombic'
loop_
_space_group_symop_operation_xyz
x,y,z
-x,-y,z
x,-y,-z
-x,y,-z
-x,-y,-z
x,y,-z
-x,y,z
x,-y,z
1/2+x,1/2+y,z
1/2-x,1/2-y,z
1/2+x,1/2-y,-z
1/2-x,1/2+y,-z
1/2-x,1/2-y,-z
1/2+x,1/2+y,-z
1/2-x,1/2+y,z
1/2+x,1/2-y,z
loop_
_atom_site_type_symbol
_atom_site_label
_atom_site_fract_x
_atom_site_fract_y
_atom_site_fract_z
Si Si1 0.889103 0.135488 0.765404
Si Si2 0.389493 0.903186 0.209317
Si Si3 0.248817 0.429972 0.662056
Si Si4 0.389611 0.570536 0.916633
Si Si5 0.681321 0.809165 0.416039
Si Si6 0.395460 0.772743 0.737386
Si Si7 0.389945 0.000000 0.915545
O O1 0.843733 0.086863 0.706520
O O2 0.855679 0.117517 0.850506
O O3 0.843972 0.205456 0.749516
O O4 0.000000 0.131730 0.754191
O O5 0.500000 0.910335 0.223396
O O6 0.337709 0.935204 0.279987
O O7 0.358259 0.828948 0.207463
O O8 0.358882 0.936981 0.130620
O O9 0.260873 0.500000 0.624821
O O10 0.232689 0.376475 0.597821
O O11 0.500000 0.565679 0.914014
O O12 0.347744 0.500000 0.902801
O O13 0.357645 0.595851 0.000000
O O14 0.634489 0.812178 0.500000
O O15 0.750000 0.750000 0.412667
O O16 0.606311 0.796895 0.349974
O O17 0.500000 0.758151 0.761177
O O18 0.500000 0.000000 0.923852
O O19 0.344084 0.000000 0.000000
#
# Coordination Sequence:
#
# PCOD8268478 Si02
#       7
#    16  16  16  16  16  16   8
#     4  10  19  32  50  76 108 142 182 220 253 309
#     4   9  18  33  52  76 103 133 174 223 267 314
#     4  11  21  33  55  81 105 139 177 215 268 315
#     4   8  14  26  44  65  94 134 174 214 257 292
#     4  10  20  36  55  76 102 135 171 216 265 315
#     4   9  18  33  54  78 103 136 175 216 263 316
#     4   9  16  30  52  76 106 142 176 219 276 330
#
# _framework density 19.529243999999998
#
# number of rings (size 3 to 8) (size 9 to 14) (size 15 to 20)
#    0.000    2.538    2.308    0.923    0.000    1.538 
#    0.000    1.538    0.000    5.077    0.000    8.615 
#    0.000    0.000    0.000    0.000    0.000    0.000 
#
# Total GULP energy -644268.266532 kJ/mol
# GULP energy per Si atom -12389.774356 kJ/mol
# Density = 1.948479 g / cm^3
# Si number density = 19.529244 Si / 1000 Ang^3
#
#
#
# Elastic Constant Matrix: (Units=GPa)
#
#
# Indices 1 2 3 4 5 6 
#
# 1 25.4062 18.1193 7.0012 0.0000 0.0000 0.0000
# 2 18.1193 164.2964 57.4760 0.0000 0.0000 0.0000
# 3 7.0012 57.4760 116.6455 0.0000 0.0000 0.0000
# 4 0.0000 0.0000 0.0000 15.7125 0.0000 0.0000
# 5 0.0000 0.0000 0.0000 0.0000 18.4429 0.0000
# 6 0.0000 0.0000 0.0000 0.0000 0.0000 21.1351
#
#
#
# Elastic Compliance Matrix: (Units=1/GPa)
#
#
# Indices 1 2 3 4 5 6 
#
# 1 0.042729 -0.004610 -0.000293 0.000000 0.000000 0.000000
# 2 -0.004610 0.007852 -0.003592 0.000000 0.000000 0.000000
# 3 -0.000293 -0.003592 0.010361 0.000000 0.000000 0.000000
# 4 0.000000 0.000000 0.000000 0.063644 0.000000 0.000000
# 5 0.000000 0.000000 0.000000 0.000000 0.054221 0.000000
# 6 0.000000 0.000000 0.000000 0.000000 0.000000 0.047315
#
#
# Mechanical properties :
#
#
# Convention : Reuss Voigt Hill
#
# Bulk Modulus (GPa) = 22.75269 52.39344 37.57307
# Shear Modulus (GPa) = 19.39781 25.97488 22.68634
#
# Velocity S-wave (km/s) = 3.15504 3.65094 3.41201
# Velocity P-wave (km/s) = 4.99482 6.68273 5.89946
#
# Compressibility (1/GPa) = 0.04395084
#
# Stress axis : x y z
#
# Youngs Moduli (GPa) = 23.40339 127.36302 96.51984
#
# Poissons Ratio (x) = 0.58711 0.02830
# Poissons Ratio (y) = 0.10788 0.34671
# Poissons Ratio (z) = 0.00686 0.45750
#
# Static dielectric constant tensor:
#      x y z
#    x 3.275910 0.000000 0.000000 
#    y 0.000000 3.951830 0.000000 
#    z 0.000000 0.000000 3.700840 
# 
# 
# High freq. dielectric constant tensor:
#      x y z
#    x 1.746390 0.000000 0.000000 
#    y 0.000000 1.771100 0.000000 
#    z 0.000000 0.000000 1.738530 
# 
# From -- ./inp_files/53310.got.cif
#   From: 2010.03.12/outbox.cif.g09.slc.cpg/sg65_27_cif.got.tgz:53310.got - 2010.04.10 20:52:16.
