data_PCOD8268465
_publ_section_title
;
Structure prediction by ZEFSAII (Michael W. Deem and Ramdas Pophale) SiO2 
 PCOD8268465
Probable space group: C M M M
;
_chemical_formula_sum "Si O2"
_cell_formula_units_Z 104
_cell_length_a 8.007011
_cell_length_b 28.924912
_cell_length_c 24.659513
_cell_angle_alpha 90.000000
_cell_angle_beta 90.000000
_cell_angle_gamma 90.000000
_cell_volume 5711.194714
_symmetry_space_group_name_H-M "C M M M"
_symmetry_group_IT_number 65
_symmetry_cell_setting 'orthorhombic'
loop_
_space_group_symop_operation_xyz
x,y,z
-x,-y,z
x,-y,-z
-x,y,-z
-x,-y,-z
x,y,-z
-x,y,z
x,-y,z
1/2+x,1/2+y,z
1/2-x,1/2-y,z
1/2+x,1/2-y,-z
1/2-x,1/2+y,-z
1/2-x,1/2-y,-z
1/2+x,1/2+y,-z
1/2-x,1/2+y,z
1/2+x,1/2-y,z
loop_
_atom_site_type_symbol
_atom_site_label
_atom_site_fract_x
_atom_site_fract_y
_atom_site_fract_z
Si Si1 0.500000 0.445136 0.560615
Si Si2 0.807071 0.895789 0.265556
Si Si3 0.196778 0.299225 0.235621
Si Si4 0.696728 0.798704 0.886905
Si Si5 0.812075 0.553692 0.631467
Si Si6 0.303565 0.890477 0.059776
Si Si7 0.197109 0.948159 0.159366
O O1 0.500000 0.500000 0.557865
O O2 0.500000 0.424187 0.500000
O O3 0.330392 0.427779 0.590232
O O4 0.783559 0.840615 0.268495
O O5 0.699484 0.918871 0.312562
O O6 0.738143 0.915374 0.208056
O O7 0.000000 0.909140 0.274054
O O8 0.250000 0.250000 0.261730
O O9 0.267442 0.301181 0.174266
O O10 0.000000 0.305897 0.238463
O O11 0.500000 0.802479 0.885591
O O12 0.750000 0.750000 0.914007
O O13 0.774127 0.841463 0.920448
O O14 0.779917 0.500000 0.644028
O O15 0.000000 0.561166 0.607470
O O16 0.500000 0.885147 0.055982
O O17 0.260994 0.930909 0.101406
O O18 0.230365 0.902241 0.000000
O O19 0.000000 0.947824 0.158388
O O20 0.265733 0.000000 0.168603
#
# Coordination Sequence:
#
# PCOD8268465 Si02
#       7
#     8  16  16  16  16  16  16
#     4   9  18  34  54  78 116 160 197 237 277 313
#     4  11  20  33  54  77 107 142 175 222 276 324
#     4  10  19  32  50  74 103 135 170 209 264 327
#     4   9  18  32  50  71  96 122 157 201 253 316
#     4  10  20  33  52  81 115 154 196 234 275 323
#     4  10  21  37  53  70  94 124 162 209 261 317
#     4  10  22  37  53  73  96 127 168 212 263 320
#
# _framework density 18.209848999999998
#
# number of rings (size 3 to 8) (size 9 to 14) (size 15 to 20)
#    0.000    2.077    2.308    1.385    0.000    4.000 
#    0.000    3.077    0.000    0.000    0.000    0.000 
#    0.000    0.615    0.308    0.000    0.000    0.000 
#
# Total GULP energy -644753.799408 kJ/mol
# GULP energy per Si atom -12399.111527 kJ/mol
# Density = 1.816840 g / cm^3
# Si number density = 18.209849 Si / 1000 Ang^3
#
#
#
# Elastic Constant Matrix: (Units=GPa)
#
#
# Indices 1 2 3 4 5 6 
#
# 1 65.6996 20.9423 33.8344 0.0000 0.0000 0.0000
# 2 20.9423 100.8427 36.0372 0.0000 0.0000 0.0000
# 3 33.8344 36.0372 100.2454 0.0000 0.0000 0.0000
# 4 0.0000 0.0000 0.0000 -2.8270 0.0000 0.0000
# 5 0.0000 0.0000 0.0000 0.0000 19.3962 0.0000
# 6 0.0000 0.0000 0.0000 0.0000 0.0000 25.4932
#
#
#
# Elastic Compliance Matrix: (Units=1/GPa)
#
#
# Indices 1 2 3 4 5 6 
#
# 1 0.018726 -0.001871 -0.005648 0.000000 0.000000 0.000000
# 2 -0.001871 0.011565 -0.003526 0.000000 0.000000 0.000000
# 3 -0.005648 -0.003526 0.013149 0.000000 0.000000 0.000000
# 4 0.000000 0.000000 0.000000 -0.353731 0.000000 0.000000
# 5 0.000000 0.000000 0.000000 0.000000 0.051557 0.000000
# 6 0.000000 0.000000 0.000000 0.000000 0.000000 0.039226
#
#
# Mechanical properties :
#
#
# Convention : Reuss Voigt Hill
#
# Bulk Modulus (GPa) = 46.83610 49.82394 48.33002
# Shear Modulus (GPa) = -26.27391 20.14408 -3.06491
#
# Velocity S-wave (km/s) = -3.80259 3.32959 -1.29875
# Velocity P-wave (km/s) = 2.54880 6.49631 4.93449
#
# Compressibility (1/GPa) = 0.02135105
#
# Stress axis : x y z
#
# Youngs Moduli (GPa) = 53.40306 86.46784 76.04951
#
# Poissons Ratio (x) = 0.16174 0.42951
# Poissons Ratio (y) = 0.09989 0.26816
# Poissons Ratio (z) = 0.30161 0.30490
#
# Static dielectric constant tensor:
#      x y z
#    x 3.296630 0.000000 0.000000 
#    y 0.000000 3.442330 0.000000 
#    z 0.000000 0.000000 2.668070 
# 
# 
# High freq. dielectric constant tensor:
#      x y z
#    x 1.706990 0.000000 0.000000 
#    y 0.000000 1.698230 0.000000 
#    z 0.000000 0.000000 1.670190 
# 
# From -- ./inp_files/68516.got.cif
#   From: 2010.03.12/outbox.cif.g09.slc.cpg/sg65_35_cif.got.tgz:68516.got - 2010.04.10 20:52:16.
