data_PCOD8268913
_publ_section_title
;
Structure prediction by ZEFSAII (Michael W. Deem and Ramdas Pophale) SiO2 
 PCOD8268913
Probable space group: C M M M
;
_chemical_formula_sum "Si O2"
_cell_formula_units_Z 96
_cell_length_a 8.787606
_cell_length_b 23.110865
_cell_length_c 25.625950
_cell_angle_alpha 90.000000
_cell_angle_beta 90.000000
_cell_angle_gamma 90.000000
_cell_volume 5204.353068
_symmetry_space_group_name_H-M "C M M M"
_symmetry_group_IT_number 65
_symmetry_cell_setting 'orthorhombic'
loop_
_space_group_symop_operation_xyz
x,y,z
-x,-y,z
x,-y,-z
-x,y,-z
-x,-y,-z
x,y,-z
-x,y,z
x,-y,z
1/2+x,1/2+y,z
1/2-x,1/2-y,z
1/2+x,1/2-y,-z
1/2-x,1/2+y,-z
1/2-x,1/2-y,-z
1/2+x,1/2+y,-z
1/2-x,1/2+y,z
1/2+x,1/2-y,z
loop_
_atom_site_type_symbol
_atom_site_label
_atom_site_fract_x
_atom_site_fract_y
_atom_site_fract_z
Si Si1 0.318815 0.500000 0.875155
Si Si2 0.680397 0.621327 0.713453
Si Si3 0.675381 0.190388 0.805095
Si Si4 0.323275 0.883263 0.906886
Si Si5 0.319170 0.500000 0.244366
Si Si6 0.819536 0.186893 0.000000
Si Si7 0.677882 0.688184 0.500000
Si Si8 0.679552 0.313197 0.612595
O O1 0.500000 0.500000 0.878017
O O2 0.252545 0.554197 0.906064
O O3 0.260685 0.500000 0.815249
O O4 0.500000 0.621383 0.718416
O O5 0.744205 0.668011 0.753347
O O6 0.744214 0.557023 0.726027
O O7 0.735697 0.640945 0.655930
O O8 0.500000 0.201280 0.792681
O O9 0.750000 0.250000 0.823539
O O10 0.699685 0.144145 0.850321
O O11 0.500000 0.887641 0.922366
O O12 0.235038 0.845535 0.948671
O O13 0.500000 0.500000 0.245114
O O14 0.750000 0.250000 0.000000
O O15 0.000000 0.191452 0.000000
O O16 0.500000 0.696791 0.500000
O O17 0.750000 0.750000 0.500000
O O18 0.725891 0.659086 0.444503
O O19 0.500000 0.304757 0.616972
O O20 0.750000 0.250000 0.621881
#
# Coordination Sequence:
#
# PCOD8268913 Si02
#       8
#     8  16  16  16   8   8   8  16
#     4  11  21  38  64  89 114 149 190 232 277 330
#     4  10  19  33  52  75 103 139 179 223 271 324
#     4  11  23  36  54  80 110 143 177 218 270 327
#     4  11  24  42  63  88 118 151 187 231 277 326
#     4   9  18  33  54  77 105 142 181 221 268 323
#     4  12  26  45  68  93 120 152 190 230 278 334
#     4   8  14  26  42  65  95 133 173 216 267 320
#     4   9  17  28  46  70 101 135 174 220 270 325
#
# _framework density 18.446096000000001
#
# number of rings (size 3 to 8) (size 9 to 14) (size 15 to 20)
#    0.000    1.833    1.667    3.000    0.000    5.667 
#    0.000    2.083    0.000    0.500    0.000    3.500 
#    0.000    0.000    0.000   13.750    0.000   10.167 
#
# Total GULP energy -595058.347691 kJ/mol
# GULP energy per Si atom -12397.048910 kJ/mol
# Density = 1.840411 g / cm^3
# Si number density = 18.446096 Si / 1000 Ang^3
#
#
#
# Elastic Constant Matrix: (Units=GPa)
#
#
# Indices 1 2 3 4 5 6 
#
# 1 68.1383 41.9240 44.9180 0.0000 0.0000 0.0000
# 2 41.9240 128.0070 52.5110 0.0000 0.0000 0.0000
# 3 44.9180 52.5110 128.7063 0.0000 0.0000 0.0000
# 4 0.0000 0.0000 0.0000 76.2104 0.0000 0.0000
# 5 0.0000 0.0000 0.0000 0.0000 29.7964 0.0000
# 6 0.0000 0.0000 0.0000 0.0000 0.0000 25.9149
#
#
#
# Elastic Compliance Matrix: (Units=1/GPa)
#
#
# Indices 1 2 3 4 5 6 
#
# 1 0.021170 -0.004687 -0.005476 0.000000 0.000000 0.000000
# 2 -0.004687 0.010420 -0.002616 0.000000 0.000000 0.000000
# 3 -0.005476 -0.002616 0.010748 0.000000 0.000000 0.000000
# 4 0.000000 0.000000 0.000000 0.013122 0.000000 0.000000
# 5 0.000000 0.000000 0.000000 0.000000 0.033561 0.000000
# 6 0.000000 0.000000 0.000000 0.000000 0.000000 0.038588
#
#
# Mechanical properties :
#
#
# Convention : Reuss Voigt Hill
#
# Bulk Modulus (GPa) = 59.59242 67.06195 63.32718
# Shear Modulus (GPa) = 31.49437 38.75091 35.12264
#
# Velocity S-wave (km/s) = 4.13652 4.58838 4.36830
# Velocity P-wave (km/s) = 7.42905 8.03154 7.73616
#
# Compressibility (1/GPa) = 0.01678066
#
# Stress axis : x y z
#
# Youngs Moduli (GPa) = 47.23749 95.96848 93.04232
#
# Poissons Ratio (x) = 0.44981 0.50949
# Poissons Ratio (y) = 0.22140 0.24336
# Poissons Ratio (z) = 0.25867 0.25101
#
# Static dielectric constant tensor:
#      x y z
#    x 16.202430 0.000000 0.000000 
#    y 0.000000 3.423860 0.000000 
#    z 0.000000 0.000000 3.923280 
# 
# 
# High freq. dielectric constant tensor:
#      x y z
#    x 1.711640 0.000000 0.000000 
#    y 0.000000 1.706040 0.000000 
#    z 0.000000 0.000000 1.728090 
# 
# From -- ./inp_files/67936.got.cif
#   From: 2010.03.12/outbox.cif.g09.slc.cpg/sg65_34_cif.got.tgz:67936.got - 2010.04.10 20:52:16.
