data_PCOD8268298
_publ_section_title
;
Structure prediction by ZEFSAII (Michael W. Deem and Ramdas Pophale) SiO2 
 PCOD8268298
Probable space group: C M M M
;
_chemical_formula_sum "Si O2"
_cell_formula_units_Z 96
_cell_length_a 14.333304
_cell_length_b 24.308882
_cell_length_c 14.408182
_cell_angle_alpha 90.000000
_cell_angle_beta 90.000000
_cell_angle_gamma 90.000000
_cell_volume 5020.193803
_symmetry_space_group_name_H-M "C M M M"
_symmetry_group_IT_number 65
_symmetry_cell_setting 'orthorhombic'
loop_
_space_group_symop_operation_xyz
x,y,z
-x,-y,z
x,-y,-z
-x,y,-z
-x,-y,-z
x,y,-z
-x,y,z
x,-y,z
1/2+x,1/2+y,z
1/2-x,1/2-y,z
1/2+x,1/2-y,-z
1/2-x,1/2+y,-z
1/2-x,1/2-y,-z
1/2+x,1/2+y,-z
1/2-x,1/2+y,z
1/2+x,1/2-y,z
loop_
_atom_site_type_symbol
_atom_site_label
_atom_site_fract_x
_atom_site_fract_y
_atom_site_fract_z
Si Si1 0.729488 0.686845 0.102024
Si Si2 0.741544 0.618391 0.605072
Si Si3 0.607578 0.207355 0.392414
Si Si4 0.180037 0.500000 0.396542
Si Si5 0.609694 0.684996 0.278200
Si Si6 0.606636 0.107842 0.108600
Si Si7 0.104287 0.500000 0.795809
O O1 0.750000 0.750000 0.092921
O O2 0.645272 0.679295 0.173291
O O3 0.825445 0.657948 0.135740
O O4 0.699615 0.663913 0.000000
O O5 0.716873 0.632920 0.500000
O O6 0.832963 0.653518 0.635386
O O7 0.756806 0.553603 0.617473
O O8 0.652570 0.634303 0.665528
O O9 0.622906 0.224266 0.500000
O O10 0.500000 0.192182 0.373939
O O11 0.640500 0.257872 0.327416
O O12 0.133701 0.500000 0.500000
O O13 0.102804 0.500000 0.316197
O O14 0.500000 0.678358 0.278619
O O15 0.500000 0.122332 0.139643
O O16 0.649982 0.055341 0.163068
O O17 0.609107 0.094795 0.000000
O O18 0.000000 0.500000 0.834496
#
# Coordination Sequence:
#
# PCOD8268298 Si02
#       7
#    16  16  16   8  16  16   8
#     4  10  21  36  53  75 107 145 178 208 251 310
#     4  10  20  36  56  77 105 138 174 218 263 310
#     4   9  18  33  55  82 107 133 168 212 263 314
#     4  10  22  36  50  72 105 145 181 210 249 307
#     4  11  22  35  54  78 104 136 177 224 266 304
#     4   9  18  34  57  83 107 132 167 213 262 310
#     4  10  19  31  52  80 109 139 170 207 252 308
#
# _framework density 19.122768000000001
#
# number of rings (size 3 to 8) (size 9 to 14) (size 15 to 20)
#    0.000    2.167    0.000    3.250    0.000    5.167 
#    0.000    7.917    0.000    1.500    0.000    0.000 
#    0.000    6.667    0.000    0.000    0.000    0.000 
#
# Total GULP energy -595130.065266 kJ/mol
# GULP energy per Si atom -12398.543026 kJ/mol
# Density = 1.907924 g / cm^3
# Si number density = 19.122768 Si / 1000 Ang^3
#
#
#
# Elastic Constant Matrix: (Units=GPa)
#
#
# Indices 1 2 3 4 5 6 
#
# 1 92.7927 53.0078 49.4099 0.0000 0.0000 0.0000
# 2 53.0078 129.1903 45.6288 0.0000 0.0000 0.0000
# 3 49.4099 45.6288 94.6858 0.0000 0.0000 0.0000
# 4 0.0000 0.0000 0.0000 15.5081 0.0000 0.0000
# 5 0.0000 0.0000 0.0000 0.0000 28.6028 0.0000
# 6 0.0000 0.0000 0.0000 0.0000 0.0000 21.4939
#
#
#
# Elastic Compliance Matrix: (Units=1/GPa)
#
#
# Indices 1 2 3 4 5 6 
#
# 1 0.016933 -0.004612 -0.006614 0.000000 0.000000 0.000000
# 2 -0.004612 0.010584 -0.002694 0.000000 0.000000 0.000000
# 3 -0.006614 -0.002694 0.015311 0.000000 0.000000 0.000000
# 4 0.000000 0.000000 0.000000 0.064483 0.000000 0.000000
# 5 0.000000 0.000000 0.000000 0.000000 0.034962 0.000000
# 6 0.000000 0.000000 0.000000 0.000000 0.000000 0.046525
#
#
# Mechanical properties :
#
#
# Convention : Reuss Voigt Hill
#
# Bulk Modulus (GPa) = 66.71582 68.08464 67.40023
# Shear Modulus (GPa) = 22.55995 24.36244 23.46119
#
# Velocity S-wave (km/s) = 3.43846 3.57319 3.50647
# Velocity P-wave (km/s) = 7.12236 7.25981 7.19141
#
# Compressibility (1/GPa) = 0.01498895
#
# Stress axis : x y z
#
# Youngs Moduli (GPa) = 59.05705 94.48001 65.31398
#
# Poissons Ratio (x) = 0.43572 0.43196
# Poissons Ratio (y) = 0.27236 0.17595
# Poissons Ratio (z) = 0.39058 0.25453
#
# Static dielectric constant tensor:
#      x y z
#    x 3.294730 0.000000 0.000000 
#    y 0.000000 3.419650 0.000000 
#    z 0.000000 0.000000 3.903550 
# 
# 
# High freq. dielectric constant tensor:
#      x y z
#    x 1.717270 0.000000 0.000000 
#    y 0.000000 1.739370 0.000000 
#    z 0.000000 0.000000 1.760830 
# 
# From -- ./inp_files/40684.got.cif
#   From: 2010.03.12/outbox.cif.g09.slc.cpg/sg65_21_cif.got.tgz:40684.got - 2010.04.10 20:52:16.
