data_PCOD8268466
_publ_section_title
;
Structure prediction by ZEFSAII (Michael W. Deem and Ramdas Pophale) SiO2 
 PCOD8268466
Probable space group: C M M M
;
_chemical_formula_sum "Si O2"
_cell_formula_units_Z 64
_cell_length_a 24.264387
_cell_length_b 17.528342
_cell_length_c 8.032492
_cell_angle_alpha 90.000000
_cell_angle_beta 90.000000
_cell_angle_gamma 90.000000
_cell_volume 3416.335108
_symmetry_space_group_name_H-M "C M M M"
_symmetry_group_IT_number 65
_symmetry_cell_setting 'orthorhombic'
loop_
_space_group_symop_operation_xyz
x,y,z
-x,-y,z
x,-y,-z
-x,y,-z
-x,-y,-z
x,y,-z
-x,y,z
x,-y,z
1/2+x,1/2+y,z
1/2-x,1/2-y,z
1/2+x,1/2-y,-z
1/2-x,1/2+y,-z
1/2-x,1/2-y,-z
1/2+x,1/2+y,-z
1/2-x,1/2+y,z
1/2+x,1/2-y,z
loop_
_atom_site_type_symbol
_atom_site_label
_atom_site_fract_x
_atom_site_fract_y
_atom_site_fract_z
Si Si1 0.211545 0.408887 0.500000
Si Si2 0.586696 0.909672 0.500000
Si Si3 0.500000 0.329995 0.813473
Si Si4 0.000000 0.325225 0.675354
Si Si5 0.105135 0.085959 0.308123
Si Si6 0.278667 0.409387 0.815962
O O1 0.214012 0.500000 0.500000
O O2 0.148970 0.378940 0.500000
O O3 0.240504 0.375874 0.667725
O O4 0.554900 0.879176 0.667294
O O5 0.585188 0.000000 0.500000
O O6 0.500000 0.237054 0.820935
O O7 0.554089 0.358814 0.721014
O O8 0.500000 0.361386 0.000000
O O9 0.000000 0.277254 0.500000
O O10 0.122239 0.086774 0.500000
O O11 0.157990 0.116687 0.207279
O O12 0.088983 0.000000 0.252579
O O13 0.276337 0.500000 0.804977
O O14 0.258640 0.381561 0.000000
#
# Coordination Sequence:
#
# PCOD8268466 Si02
#       6
#     8   8   8   8  16  16
#     4   9  15  28  49  78 105 130 165 204 259 319
#     4   8  16  33  62  83  96 122 164 212 262 328
#     4  12  23  33  48  72 106 144 180 216 256 309
#     4   8  18  35  55  75  98 127 170 205 264 312
#     4  10  19  32  50  74 104 141 186 225 253 289
#     4   9  16  27  45  73 109 141 170 211 258 300
#
# _framework density 18.733526000000001
#
# number of rings (size 3 to 8) (size 9 to 14) (size 15 to 20)
#    0.750    1.750    1.250    3.000    0.000    3.000 
#    0.000    1.250    0.000    6.000    0.000    3.500 
#    0.000    0.000    0.000    0.000    0.000    0.000 
#
# Total GULP energy -396437.610847 kJ/mol
# GULP energy per Si atom -12388.675339 kJ/mol
# Density = 1.869089 g / cm^3
# Si number density = 18.733526 Si / 1000 Ang^3
#
#
#
# Elastic Constant Matrix: (Units=GPa)
#
#
# Indices 1 2 3 4 5 6 
#
# 1 154.0954 34.4190 56.6129 0.0000 0.0000 0.0000
# 2 34.4190 51.1644 12.5227 0.0000 0.0000 0.0000
# 3 56.6129 12.5227 110.3870 0.0000 0.0000 0.0000
# 4 0.0000 0.0000 0.0000 14.4227 0.0000 0.0000
# 5 0.0000 0.0000 0.0000 0.0000 8.3803 0.0000
# 6 0.0000 0.0000 0.0000 0.0000 0.0000 -2.7407
#
#
#
# Elastic Compliance Matrix: (Units=1/GPa)
#
#
# Indices 1 2 3 4 5 6 
#
# 1 0.009149 -0.005149 -0.004108 0.000000 0.000000 0.000000
# 2 -0.005149 0.023001 0.000031 0.000000 0.000000 0.000000
# 3 -0.004108 0.000031 0.011162 0.000000 0.000000 0.000000
# 4 0.000000 0.000000 0.000000 0.069335 0.000000 0.000000
# 5 0.000000 0.000000 0.000000 0.000000 0.119327 0.000000
# 6 0.000000 0.000000 0.000000 0.000000 0.000000 -0.364864
#
#
# Mechanical properties :
#
#
# Convention : Reuss Voigt Hill
#
# Bulk Modulus (GPa) = 40.22378 58.08402 49.15390
# Shear Modulus (GPa) = -47.10248 18.15193 -14.47527
#
# Velocity S-wave (km/s) = -5.01976 3.11618 -2.78275
# Velocity P-wave (km/s) = 3.47551 6.63477 3.99631
#
# Compressibility (1/GPa) = 0.02486092
#
# Stress axis : x y z
#
# Youngs Moduli (GPa) = 109.30406 43.47637 89.58772
#
# Poissons Ratio (x) = 0.22386 0.36802
# Poissons Ratio (y) = 0.56282 -0.00282
# Poissons Ratio (z) = 0.44901 -0.00137
#
# Static dielectric constant tensor:
#      x y z
#    x 3.495090 0.000000 0.000000 
#    y 0.000000 2.906660 0.000000 
#    z 0.000000 0.000000 3.437950 
# 
# 
# High freq. dielectric constant tensor:
#      x y z
#    x 1.732090 0.000000 0.000000 
#    y 0.000000 1.678430 0.000000 
#    z 0.000000 0.000000 1.716220 
# 
# From -- ./inp_files/13738.got.cif
#   From: 2010.03.12/outbox.cif.g09.slc.cpg/sg65_7_cif.got.tgz:13738.got - 2010.04.10 20:52:16.
