data_PCOD8268129
_publ_section_title
;
Structure prediction by ZEFSAII (Michael W. Deem and Ramdas Pophale) SiO2 
 PCOD8268129
Probable space group: C M M M
;
_chemical_formula_sum "Si O2"
_cell_formula_units_Z 112
_cell_length_a 18.114072
_cell_length_b 35.909984
_cell_length_c 9.405759
_cell_angle_alpha 90.000000
_cell_angle_beta 90.000000
_cell_angle_gamma 90.000000
_cell_volume 6118.220827
_symmetry_space_group_name_H-M "C M M M"
_symmetry_group_IT_number 65
_symmetry_cell_setting 'orthorhombic'
loop_
_space_group_symop_operation_xyz
x,y,z
-x,-y,z
x,-y,-z
-x,y,-z
-x,-y,-z
x,y,-z
-x,y,z
x,-y,z
1/2+x,1/2+y,z
1/2-x,1/2-y,z
1/2+x,1/2-y,-z
1/2-x,1/2+y,-z
1/2-x,1/2-y,-z
1/2+x,1/2+y,-z
1/2-x,1/2+y,z
1/2+x,1/2-y,z
loop_
_atom_site_type_symbol
_atom_site_label
_atom_site_fract_x
_atom_site_fract_y
_atom_site_fract_z
Si Si1 0.084378 0.394005 0.163245
Si Si2 0.180634 0.040875 0.331197
Si Si3 0.325626 0.823635 0.168999
Si Si4 0.156975 0.177026 0.168769
Si Si5 0.583302 0.753686 0.169057
Si Si6 0.086164 0.890187 0.334983
Si Si7 0.153026 0.457296 0.335589
O O1 0.135295 0.361021 0.225865
O O2 0.097244 0.431831 0.248369
O O3 0.000000 0.381251 0.180146
O O4 0.104309 0.401798 0.000000
O O5 0.179352 0.039316 0.500000
O O6 0.125991 0.072732 0.274758
O O7 0.263706 0.049870 0.280324
O O8 0.156331 0.000000 0.272665
O O9 0.241432 0.823190 0.221682
O O10 0.368812 0.787865 0.231367
O O11 0.329439 0.822127 0.000000
O O12 0.120793 0.215520 0.219700
O O13 0.112379 0.144435 0.243470
O O14 0.151245 0.171661 0.000000
O O15 0.500000 0.755940 0.229355
O O16 0.582135 0.755436 0.000000
O O17 0.105820 0.883253 0.500000
O O18 0.000000 0.896344 0.312535
O O19 0.146010 0.446607 0.500000
O O20 0.130204 0.500000 0.310372
#
# Coordination Sequence:
#
# PCOD8268129 Si02
#       7
#    16  16  16  16  16  16  16
#     4  10  20  32  47  69  96 125 157 195 239 281
#     4   8  15  30  51  72  93 120 158 199 233 272
#     4   9  17  30  48  70  96 125 159 198 236 275
#     4  10  19  31  50  74  97 124 160 197 232 276
#     4   9  16  27  46  72  99 125 156 196 238 277
#     4  10  20  32  48  72 100 128 156 190 236 283
#     4   9  18  33  52  71  92 122 158 194 234 281
#
# _framework density 18.305975
#
# number of rings (size 3 to 8) (size 9 to 14) (size 15 to 20)
#    0.000    2.714    0.000    3.000    0.000    5.429 
#    0.000    2.857    0.000    3.857    0.000    1.000 
#    0.000    0.000    0.000    0.000    0.000    0.000 
#
# Total GULP energy -694370.197425 kJ/mol
# GULP energy per Si atom -12399.467811 kJ/mol
# Density = 1.826431 g / cm^3
# Si number density = 18.305975 Si / 1000 Ang^3
#
#
#
# Elastic Constant Matrix: (Units=GPa)
#
#
# Indices 1 2 3 4 5 6 
#
# 1 74.1173 33.8975 18.4861 0.0000 0.0000 0.0000
# 2 33.8975 116.9169 30.7537 0.0000 0.0000 0.0000
# 3 18.4861 30.7537 26.8145 0.0000 0.0000 0.0000
# 4 0.0000 0.0000 0.0000 18.2495 0.0000 0.0000
# 5 0.0000 0.0000 0.0000 0.0000 19.8121 0.0000
# 6 0.0000 0.0000 0.0000 0.0000 0.0000 34.8105
#
#
#
# Elastic Compliance Matrix: (Units=1/GPa)
#
#
# Indices 1 2 3 4 5 6 
#
# 1 0.016835 -0.002618 -0.008604 0.000000 0.000000 0.000000
# 2 -0.002618 0.012655 -0.012710 0.000000 0.000000 0.000000
# 3 -0.008604 -0.012710 0.057802 0.000000 0.000000 0.000000
# 4 0.000000 0.000000 0.000000 0.054796 0.000000 0.000000
# 5 0.000000 0.000000 0.000000 0.000000 0.050474 0.000000
# 6 0.000000 0.000000 0.000000 0.000000 0.000000 0.028727
#
#
# Mechanical properties :
#
#
# Convention : Reuss Voigt Hill
#
# Bulk Modulus (GPa) = 25.36180 42.68036 34.02108
# Shear Modulus (GPa) = 17.71194 23.55517 20.63356
#
# Velocity S-wave (km/s) = 3.11392 3.59102 3.36095
# Velocity P-wave (km/s) = 5.17814 6.36863 5.80399
#
# Compressibility (1/GPa) = 0.03942938
#
# Stress axis : x y z
#
# Youngs Moduli (GPa) = 59.39870 79.01899 17.30054
#
# Poissons Ratio (x) = 0.20686 0.14885
# Poissons Ratio (y) = 0.15550 0.21988
# Poissons Ratio (z) = 0.51107 1.00430
#
# Static dielectric constant tensor:
#      x y z
#    x 3.527640 0.000000 0.000000 
#    y 0.000000 3.643120 0.000000 
#    z 0.000000 0.000000 2.861460 
# 
# 
# High freq. dielectric constant tensor:
#      x y z
#    x 1.721150 0.000000 0.000000 
#    y 0.000000 1.725230 0.000000 
#    z 0.000000 0.000000 1.652800 
# 
# From -- ./inp_files/25537.got.cif
#   From: 2010.03.12/outbox.cif.g09.slc.cpg/sg65_13_cif.got.tgz:25537.got - 2010.04.10 20:52:16.
