data_PCOD8268641
_publ_section_title
;
Structure prediction by ZEFSAII (Michael W. Deem and Ramdas Pophale) SiO2 
 PCOD8268641
Probable space group: C M M M
;
_chemical_formula_sum "Si O2"
_cell_formula_units_Z 72
_cell_length_a 15.664110
_cell_length_b 27.123035
_cell_length_c 8.646340
_cell_angle_alpha 90.000000
_cell_angle_beta 90.000000
_cell_angle_gamma 90.000000
_cell_volume 3673.468482
_symmetry_space_group_name_H-M "C M M M"
_symmetry_group_IT_number 65
_symmetry_cell_setting 'orthorhombic'
loop_
_space_group_symop_operation_xyz
x,y,z
-x,-y,z
x,-y,-z
-x,y,-z
-x,-y,-z
x,y,-z
-x,y,z
x,-y,z
1/2+x,1/2+y,z
1/2-x,1/2-y,z
1/2+x,1/2-y,-z
1/2-x,1/2+y,-z
1/2-x,1/2-y,-z
1/2+x,1/2+y,-z
1/2-x,1/2+y,z
1/2+x,1/2-y,z
loop_
_atom_site_type_symbol
_atom_site_label
_atom_site_fract_x
_atom_site_fract_y
_atom_site_fract_z
Si Si1 0.000000 0.388941 0.815448
Si Si2 0.663494 0.389978 0.183803
Si Si3 0.166855 0.222050 0.184227
Si Si4 0.000000 0.943671 0.317352
Si Si5 0.500000 0.777580 0.815553
Si Si6 0.832942 0.444420 0.184154
O O1 0.000000 0.333248 0.752038
O O2 0.083710 0.416553 0.751176
O O3 0.000000 0.389097 0.000000
O O4 0.666098 0.333934 0.244324
O O5 0.583005 0.417174 0.253534
O O6 0.748830 0.416661 0.244331
O O7 0.656669 0.391961 0.000000
O O8 0.250000 0.250000 0.249808
O O9 0.083293 0.249672 0.248554
O O10 0.167927 0.223008 0.000000
O O11 0.000000 0.940503 0.500000
O O12 0.000000 0.000000 0.259200
O O13 0.500000 0.777470 0.000000
O O14 0.832546 0.500000 0.249035
O O15 0.834745 0.444570 0.000000
#
# Coordination Sequence:
#
# PCOD8268641 Si02
#       6
#     8  16  16   8   8  16
#     4   9  15  23  36  59  95 131 155 182 230 287
#     4  10  19  32  52  76 100 129 167 208 248 296
#     4   9  16  26  42  68 100 128 156 194 239 285
#     4  11  24  39  53  71  98 133 171 215 270 321
#     4   9  15  22  33  52  83 122 154 179 218 273
#     4   9  16  25  39  62  92 124 156 191 233 281
#
# _framework density 19.600003000000001
#
# number of rings (size 3 to 8) (size 9 to 14) (size 15 to 20)
#    0.000    2.556    0.000    3.333    0.000   10.222 
#    0.000    0.000    0.000    0.667    0.000    0.778 
#    0.000    3.556    0.000    0.000    0.000    0.000 
#
# Total GULP energy -446411.997064 kJ/mol
# GULP energy per Si atom -12400.333252 kJ/mol
# Density = 1.955539 g / cm^3
# Si number density = 19.600003 Si / 1000 Ang^3
#
#
#
# Elastic Constant Matrix: (Units=GPa)
#
#
# Indices 1 2 3 4 5 6 
#
# 1 232.8402 132.2064 14.4478 0.0000 0.0000 0.0000
# 2 132.2064 232.4524 15.5678 0.0000 0.0000 0.0000
# 3 14.4478 15.5678 10.2425 0.0000 0.0000 0.0000
# 4 0.0000 0.0000 0.0000 7.5203 0.0000 0.0000
# 5 0.0000 0.0000 0.0000 0.0000 -7.0098 0.0000
# 6 0.0000 0.0000 0.0000 0.0000 0.0000 50.8557
#
#
#
# Elastic Compliance Matrix: (Units=1/GPa)
#
#
# Indices 1 2 3 4 5 6 
#
# 1 0.006483 -0.003423 -0.003942 0.000000 0.000000 0.000000
# 2 -0.003423 0.006597 -0.005198 0.000000 0.000000 0.000000
# 3 -0.003942 -0.005198 0.111093 0.000000 0.000000 0.000000
# 4 0.000000 0.000000 0.000000 0.132974 0.000000 0.000000
# 5 0.000000 0.000000 0.000000 0.000000 -0.142657 0.000000
# 6 0.000000 0.000000 0.000000 0.000000 0.000000 0.019663
#
#
# Mechanical properties :
#
#
# Convention : Reuss Voigt Hill
#
# Bulk Modulus (GPa) = 10.09625 88.88658 49.49142
# Shear Modulus (GPa) = 26.00162 31.16078 28.58120
#
# Velocity S-wave (km/s) = 3.64622 3.99160 3.82281
# Velocity P-wave (km/s) = 4.78424 8.16655 6.69259
#
# Compressibility (1/GPa) = 0.09904664
#
# Stress axis : x y z
#
# Youngs Moduli (GPa) = 154.24728 151.58287 9.00146
#
# Poissons Ratio (x) = 0.51891 0.03548
# Poissons Ratio (y) = 0.52803 0.04679
# Poissons Ratio (z) = 0.60801 0.78797
#
# Static dielectric constant tensor:
#      x y z
#    x 3.733770 0.000000 0.000000 
#    y 0.000000 3.928490 0.000000 
#    z 0.000000 0.000000 2.740700 
# 
# 
# High freq. dielectric constant tensor:
#      x y z
#    x 1.786100 0.000000 0.000000 
#    y 0.000000 1.786520 0.000000 
#    z 0.000000 0.000000 1.679610 
# 
# From -- ./inp_files/7365.got.cif
#   From: 2010.03.12/outbox.cif.g09.slc.cpg/sg65_4_cif.got.tgz:7365.got - 2010.04.10 20:52:16.
