data_PCOD8268191
_publ_section_title
;
Structure prediction by ZEFSAII (Michael W. Deem and Ramdas Pophale) SiO2 
 PCOD8268191
Probable space group: C M M M
;
_chemical_formula_sum "Si O2"
_cell_formula_units_Z 72
_cell_length_a 8.737392
_cell_length_b 15.773598
_cell_length_c 24.782709
_cell_angle_alpha 90.000000
_cell_angle_beta 90.000000
_cell_angle_gamma 90.000000
_cell_volume 3415.555655
_symmetry_space_group_name_H-M "C M M M"
_symmetry_group_IT_number 65
_symmetry_cell_setting 'orthorhombic'
loop_
_space_group_symop_operation_xyz
x,y,z
-x,-y,z
x,-y,-z
-x,y,-z
-x,-y,-z
x,y,-z
-x,y,z
x,-y,z
1/2+x,1/2+y,z
1/2-x,1/2-y,z
1/2+x,1/2-y,-z
1/2-x,1/2+y,-z
1/2-x,1/2-y,-z
1/2+x,1/2+y,-z
1/2-x,1/2+y,z
1/2+x,1/2-y,z
loop_
_atom_site_type_symbol
_atom_site_label
_atom_site_fract_x
_atom_site_fract_y
_atom_site_fract_z
Si Si1 0.325295 0.500000 0.563826
Si Si2 0.173636 0.903837 0.721774
Si Si3 0.680712 0.162308 0.618765
Si Si4 0.181271 0.656690 0.173479
Si Si5 0.320500 0.841802 0.943054
O O1 0.500000 0.500000 0.584648
O O2 0.316244 0.500000 0.500000
O O3 0.243496 0.584334 0.584469
O O4 0.271711 0.846317 0.681397
O O5 0.244725 0.902324 0.781372
O O6 0.000000 0.869764 0.723020
O O7 0.179184 0.000000 0.700479
O O8 0.500000 0.165184 0.613504
O O9 0.750000 0.250000 0.595749
O O10 0.250000 0.750000 0.179244
O O11 0.225313 0.615451 0.114365
O O12 0.000000 0.660403 0.181855
O O13 0.500000 0.829504 0.942498
O O14 0.250000 0.750000 0.944148
O O15 0.272841 0.889594 0.000000
#
# Coordination Sequence:
#
# PCOD8268191 Si02
#       5
#     8  16  16  16  16
#     4  11  25  47  73 103 141 179 218 265 314 367
#     4  11  23  39  59  82 116 156 200 254 313 374
#     4  12  25  43  70 100 134 174 219 267 318 377
#     4  10  19  31  50  77 109 142 186 239 296 366
#     4   8  14  25  42  66  97 134 176 228 289 353
#
# _framework density 21.080024999999999
#
# number of rings (size 3 to 8) (size 9 to 14) (size 15 to 20)
#    0.000    1.667    1.111    4.333    0.000    3.556 
#    0.000    0.000    0.000    0.667    0.000    4.667 
#    0.000    0.000    0.000    0.000    0.000    0.000 
#
# Total GULP energy -446089.598187 kJ/mol
# GULP energy per Si atom -12391.377727 kJ/mol
# Density = 2.103205 g / cm^3
# Si number density = 21.080025 Si / 1000 Ang^3
#
#
#
# Elastic Constant Matrix: (Units=GPa)
#
#
# Indices 1 2 3 4 5 6 
#
# 1 146.1521 51.9707 52.0489 0.0000 0.0000 0.0000
# 2 51.9707 102.9235 38.0874 0.0000 0.0000 0.0000
# 3 52.0489 38.0874 113.1156 0.0000 0.0000 0.0000
# 4 0.0000 0.0000 0.0000 33.2116 0.0000 0.0000
# 5 0.0000 0.0000 0.0000 0.0000 30.8528 0.0000
# 6 0.0000 0.0000 0.0000 0.0000 0.0000 28.4058
#
#
#
# Elastic Compliance Matrix: (Units=1/GPa)
#
#
# Indices 1 2 3 4 5 6 
#
# 1 0.009171 -0.003506 -0.003040 0.000000 0.000000 0.000000
# 2 -0.003506 0.012439 -0.002575 0.000000 0.000000 0.000000
# 3 -0.003040 -0.002575 0.011106 0.000000 0.000000 0.000000
# 4 0.000000 0.000000 0.000000 0.030110 0.000000 0.000000
# 5 0.000000 0.000000 0.000000 0.000000 0.032412 0.000000
# 6 0.000000 0.000000 0.000000 0.000000 0.000000 0.035204
#
#
# Mechanical properties :
#
#
# Convention : Reuss Voigt Hill
#
# Bulk Modulus (GPa) = 69.08386 71.82279 70.45332
# Shear Modulus (GPa) = 32.57120 33.16634 32.86877
#
# Velocity S-wave (km/s) = 3.93507 3.97086 3.95300
# Velocity P-wave (km/s) = 7.31366 7.42759 7.37085
#
# Compressibility (1/GPa) = 0.01447516
#
# Stress axis : x y z
#
# Youngs Moduli (GPa) = 109.03387 80.38995 90.03988
#
# Poissons Ratio (x) = 0.28187 0.27368
# Poissons Ratio (y) = 0.38230 0.23186
# Poissons Ratio (z) = 0.33141 0.20701
#
# Static dielectric constant tensor:
#      x y z
#    x 3.812860 0.000000 0.000000 
#    y 0.000000 3.326490 0.000000 
#    z 0.000000 0.000000 4.438860 
# 
# 
# High freq. dielectric constant tensor:
#      x y z
#    x 1.832880 0.000000 0.000000 
#    y 0.000000 1.795650 0.000000 
#    z 0.000000 0.000000 1.849940 
# 
# From -- ./inp_files/72509.got.cif
#   From: 2010.03.12/outbox.cif.g09.slc.cpg/sg65_37_cif.got.tgz:72509.got - 2010.04.10 20:52:16.
