data_PCOD8268808
_publ_section_title
;
Structure prediction by ZEFSAII (Michael W. Deem and Ramdas Pophale) SiO2 
 PCOD8268808
Probable space group: C M M M
;
_chemical_formula_sum "Si O2"
_cell_formula_units_Z 96
_cell_length_a 29.000673
_cell_length_b 20.087968
_cell_length_c 8.713439
_cell_angle_alpha 90.000000
_cell_angle_beta 90.000000
_cell_angle_gamma 90.000000
_cell_volume 5076.141029
_symmetry_space_group_name_H-M "C M M M"
_symmetry_group_IT_number 65
_symmetry_cell_setting 'orthorhombic'
loop_
_space_group_symop_operation_xyz
x,y,z
-x,-y,z
x,-y,-z
-x,y,-z
-x,-y,-z
x,y,-z
-x,y,z
x,-y,z
1/2+x,1/2+y,z
1/2-x,1/2-y,z
1/2+x,1/2-y,-z
1/2-x,1/2+y,-z
1/2-x,1/2-y,-z
1/2+x,1/2+y,-z
1/2-x,1/2+y,z
1/2+x,1/2-y,z
loop_
_atom_site_type_symbol
_atom_site_label
_atom_site_fract_x
_atom_site_fract_y
_atom_site_fract_z
Si Si1 0.788136 0.666450 0.179762
Si Si2 0.198791 0.808579 0.319529
Si Si3 0.945918 0.927457 0.169393
Si Si4 0.947406 0.672835 0.682454
Si Si5 0.126077 0.576242 0.180204
Si Si6 0.902787 0.807751 0.321718
O O1 0.796314 0.730478 0.284735
O O2 0.735691 0.645498 0.226221
O O3 0.825233 0.610337 0.225202
O O4 0.790940 0.683933 0.000000
O O5 0.204770 0.821731 0.500000
O O6 0.147791 0.825758 0.257367
O O7 0.933900 0.871607 0.292171
O O8 0.000000 0.933129 0.162488
O O9 0.925832 0.000000 0.218618
O O10 0.926959 0.908073 0.000000
O O11 0.947509 0.674144 0.500000
O O12 0.917135 0.610755 0.738011
O O13 0.925207 0.740990 0.751760
O O14 0.000000 0.665911 0.743496
O O15 0.128497 0.500000 0.235782
O O16 0.117724 0.581210 0.000000
O O17 0.898936 0.793459 0.500000
#
# Coordination Sequence:
#
# PCOD8268808 Si02
#       6
#    16  16  16  16  16  16
#     4  10  19  33  54  79 105 136 175 216 261 317
#     4  10  19  32  54  80 108 136 169 215 265 315
#     4   9  19  35  53  75 105 141 180 220 264 317
#     4  10  21  37  56  80 110 143 184 231 277 326
#     4  10  22  39  57  78 108 146 186 229 277 329
#     4  10  20  34  54  81 111 143 177 221 269 318
#
# _framework density 18.912005000000001
#
# number of rings (size 3 to 8) (size 9 to 14) (size 15 to 20)
#    0.000    2.167    1.667    3.000    0.000    5.000 
#    0.000    3.333    0.000    3.000    0.000    0.000 
#    0.000    0.000    0.000    0.000    0.000    0.000 
#
# Total GULP energy -594923.638437 kJ/mol
# GULP energy per Si atom -12394.242467 kJ/mol
# Density = 1.886896 g / cm^3
# Si number density = 18.912005 Si / 1000 Ang^3
#
#
#
# Elastic Constant Matrix: (Units=GPa)
#
#
# Indices 1 2 3 4 5 6 
#
# 1 145.5448 64.9078 31.0972 0.0000 0.0000 0.0000
# 2 64.9078 111.0273 15.1662 0.0000 0.0000 0.0000
# 3 31.0972 15.1662 24.0487 0.0000 0.0000 0.0000
# 4 0.0000 0.0000 0.0000 14.4905 0.0000 0.0000
# 5 0.0000 0.0000 0.0000 0.0000 30.0445 0.0000
# 6 0.0000 0.0000 0.0000 0.0000 0.0000 29.0487
#
#
#
# Elastic Compliance Matrix: (Units=1/GPa)
#
#
# Indices 1 2 3 4 5 6 
#
# 1 0.011749 -0.005245 -0.011885 0.000000 0.000000 0.000000
# 2 -0.005245 0.012198 -0.000910 0.000000 0.000000 0.000000
# 3 -0.011885 -0.000910 0.057524 0.000000 0.000000 0.000000
# 4 0.000000 0.000000 0.000000 0.069011 0.000000 0.000000
# 5 0.000000 0.000000 0.000000 0.000000 0.033284 0.000000
# 6 0.000000 0.000000 0.000000 0.000000 0.000000 0.034425
#
#
# Mechanical properties :
#
#
# Convention : Reuss Voigt Hill
#
# Bulk Modulus (GPa) = 22.03071 55.88481 38.95776
# Shear Modulus (GPa) = 18.55970 26.01338 22.28654
#
# Velocity S-wave (km/s) = 3.13608 3.71279 3.43656
# Velocity P-wave (km/s) = 4.97873 6.92776 6.03248
#
# Compressibility (1/GPa) = 0.04539118
#
# Stress axis : x y z
#
# Youngs Moduli (GPa) = 85.11133 81.98391 17.38397
#
# Poissons Ratio (x) = 0.43003 0.20661
# Poissons Ratio (y) = 0.44643 0.01581
# Poissons Ratio (z) = 1.01155 0.07458
#
# Static dielectric constant tensor:
#      x y z
#    x 4.106160 0.000000 0.000000 
#    y 0.000000 3.391920 0.000000 
#    z 0.000000 0.000000 3.311970 
# 
# 
# High freq. dielectric constant tensor:
#      x y z
#    x 1.748280 0.000000 0.000000 
#    y 0.000000 1.715500 0.000000 
#    z 0.000000 0.000000 1.723310 
# 
# From -- ./inp_files/16306.got.cif
#   From: 2010.03.12/outbox.cif.g09.slc.cpg/sg65_9_cif.got.tgz:16306.got - 2010.04.10 20:52:16.
