data_PCOD8268896
_publ_section_title
;
Structure prediction by ZEFSAII (Michael W. Deem and Ramdas Pophale) SiO2 
 PCOD8268896
Probable space group: C M M M
;
_chemical_formula_sum "Si O2"
_cell_formula_units_Z 64
_cell_length_a 15.331533
_cell_length_b 8.754489
_cell_length_c 24.508471
_cell_angle_alpha 90.000000
_cell_angle_beta 90.000000
_cell_angle_gamma 90.000000
_cell_volume 3289.520532
_symmetry_space_group_name_H-M "C M M M"
_symmetry_group_IT_number 65
_symmetry_cell_setting 'orthorhombic'
loop_
_space_group_symop_operation_xyz
x,y,z
-x,-y,z
x,-y,-z
-x,y,-z
-x,-y,-z
x,y,-z
-x,y,z
x,-y,z
1/2+x,1/2+y,z
1/2-x,1/2-y,z
1/2+x,1/2-y,-z
1/2-x,1/2+y,-z
1/2-x,1/2-y,-z
1/2+x,1/2+y,-z
1/2-x,1/2+y,z
1/2+x,1/2-y,z
loop_
_atom_site_type_symbol
_atom_site_label
_atom_site_fract_x
_atom_site_fract_y
_atom_site_fract_z
Si Si1 0.500000 0.181324 0.744759
Si Si2 0.655320 0.321129 0.558962
Si Si3 0.500000 0.182259 0.132728
Si Si4 0.153988 0.680942 0.332273
Si Si5 0.840056 0.319356 0.938100
O O1 0.500000 0.248309 0.805949
O O2 0.411994 0.237927 0.714715
O O3 0.500000 0.000000 0.745759
O O4 0.607355 0.294258 0.500000
O O5 0.662123 0.500000 0.571668
O O6 0.750000 0.250000 0.554449
O O7 0.610402 0.238475 0.610511
O O8 0.415462 0.244579 0.101049
O O9 0.500000 0.000000 0.132827
O O10 0.162121 0.500000 0.333607
O O11 0.250000 0.750000 0.321876
O O12 0.834063 0.500000 0.934972
O O13 0.750000 0.250000 0.916514
O O14 0.859521 0.265748 0.000000
#
# Coordination Sequence:
#
# PCOD8268896 Si02
#       5
#     8  16   8  16  16
#     4   9  20  35  50  71  98 131 170 207 242 286
#     4   9  16  27  46  72  98 124 156 195 243 297
#     4   9  17  32  52  71  97 134 172 205 238 286
#     4  10  19  33  52  72  96 127 163 202 246 293
#     4   9  17  30  51  78 104 131 164 202 245 292
#
# _framework density 19.455722999999999
#
# number of rings (size 3 to 8) (size 9 to 14) (size 15 to 20)
#    0.000    2.750    0.000    3.375    0.000    4.000 
#    0.000    3.750    0.000   11.250    0.000    0.000 
#    0.000    0.000    0.000    0.000    0.000    0.000 
#
# Total GULP energy -396534.350080 kJ/mol
# GULP energy per Si atom -12391.698440 kJ/mol
# Density = 1.941144 g / cm^3
# Si number density = 19.455723 Si / 1000 Ang^3
#
#
#
# Elastic Constant Matrix: (Units=GPa)
#
#
# Indices 1 2 3 4 5 6 
#
# 1 134.2987 29.0498 98.6317 0.0000 0.0000 0.0000
# 2 29.0498 54.3109 31.7985 0.0000 0.0000 0.0000
# 3 98.6317 31.7985 179.9077 0.0000 0.0000 0.0000
# 4 0.0000 0.0000 0.0000 19.2372 0.0000 0.0000
# 5 0.0000 0.0000 0.0000 0.0000 16.8864 0.0000
# 6 0.0000 0.0000 0.0000 0.0000 0.0000 22.3353
#
#
#
# Elastic Compliance Matrix: (Units=1/GPa)
#
#
# Indices 1 2 3 4 5 6 
#
# 1 0.012911 -0.003080 -0.006534 0.000000 0.000000 0.000000
# 2 -0.003080 0.021273 -0.002071 0.000000 0.000000 0.000000
# 3 -0.006534 -0.002071 0.009507 0.000000 0.000000 0.000000
# 4 0.000000 0.000000 0.000000 0.051983 0.000000 0.000000
# 5 0.000000 0.000000 0.000000 0.000000 0.059219 0.000000
# 6 0.000000 0.000000 0.000000 0.000000 0.000000 0.044772
#
#
# Mechanical properties :
#
#
# Convention : Reuss Voigt Hill
#
# Bulk Modulus (GPa) = 49.21349 76.38635 62.79992
# Shear Modulus (GPa) = 21.75730 25.62761 23.69246
#
# Velocity S-wave (km/s) = 3.34772 3.63330 3.49343
# Velocity P-wave (km/s) = 6.34768 7.54639 6.97284
#
# Compressibility (1/GPa) = 0.02031963
#
# Stress axis : x y z
#
# Youngs Moduli (GPa) = 77.45378 47.00847 105.19085
#
# Poissons Ratio (x) = 0.14480 0.68729
# Poissons Ratio (y) = 0.23858 0.21787
# Poissons Ratio (z) = 0.50607 0.09736
#
# Static dielectric constant tensor:
#      x y z
#    x 3.467110 0.000000 0.000000 
#    y 0.000000 3.298210 0.000000 
#    z 0.000000 0.000000 4.220400 
# 
# 
# High freq. dielectric constant tensor:
#      x y z
#    x 1.743060 0.000000 0.000000 
#    y 0.000000 1.734050 0.000000 
#    z 0.000000 0.000000 1.767010 
# 
# From -- ./inp_files/69535.got.cif
#   From: 2010.03.12/outbox.cif.g09.slc.cpg/sg65_35_cif.got.tgz:69535.got - 2010.04.10 20:52:16.
