data_PCOD8268789
_publ_section_title
;
Structure prediction by ZEFSAII (Michael W. Deem and Ramdas Pophale) SiO2 
 PCOD8268789
Probable space group: C M M M
;
_chemical_formula_sum "Si O2"
_cell_formula_units_Z 120
_cell_length_a 19.006584
_cell_length_b 15.614607
_cell_length_c 19.977545
_cell_angle_alpha 90.000000
_cell_angle_beta 90.000000
_cell_angle_gamma 90.000000
_cell_volume 5928.942589
_symmetry_space_group_name_H-M "C M M M"
_symmetry_group_IT_number 65
_symmetry_cell_setting 'orthorhombic'
loop_
_space_group_symop_operation_xyz
x,y,z
-x,-y,z
x,-y,-z
-x,y,-z
-x,-y,-z
x,y,-z
-x,y,z
x,-y,z
1/2+x,1/2+y,z
1/2-x,1/2-y,z
1/2+x,1/2-y,-z
1/2-x,1/2+y,-z
1/2-x,1/2-y,-z
1/2+x,1/2+y,-z
1/2-x,1/2+y,z
1/2+x,1/2-y,z
loop_
_atom_site_type_symbol
_atom_site_label
_atom_site_fract_x
_atom_site_fract_y
_atom_site_fract_z
Si Si1 0.807143 0.683365 0.302097
Si Si2 0.078349 0.898672 0.000000
Si Si3 0.197368 0.598182 0.832328
Si Si4 0.851877 0.102173 0.137560
Si Si5 0.730153 0.399966 0.575171
Si Si6 0.576495 0.401376 0.608016
Si Si7 0.422164 0.102149 0.925035
Si Si8 0.578316 0.309107 0.262181
O O1 0.750000 0.750000 0.275243
O O2 0.809533 0.608075 0.247572
O O3 0.783809 0.648497 0.375015
O O4 0.881803 0.731512 0.300616
O O5 0.118684 0.867956 0.066138
O O6 0.000000 0.859164 0.000000
O O7 0.074114 0.000000 0.000000
O O8 0.192471 0.500000 0.850315
O O9 0.271219 0.632071 0.860145
O O10 0.133257 0.643726 0.872411
O O11 0.890388 0.158199 0.193190
O O12 0.861759 0.000000 0.150345
O O13 0.758631 0.385337 0.500000
O O14 0.729793 0.500000 0.594691
O O15 0.649614 0.362460 0.578215
O O16 0.500000 0.362279 0.582049
O O17 0.575814 0.500000 0.588698
O O18 0.579698 0.389997 0.687827
O O19 0.500000 0.136266 0.906271
O O20 0.422221 0.000000 0.921627
O O21 0.401713 0.132051 0.000000
O O22 0.500000 0.275278 0.248945
#
# Coordination Sequence:
#
# PCOD8268789 Si02
#       8
#    16   8  16  16  16  16  16  16
#     4  12  22  38  56  82 114 147 185 233 272 328
#     4   9  18  30  46  73 109 147 188 233 275 325
#     4  10  20  33  56  82 108 145 187 235 285 332
#     4  10  19  32  53  82 112 147 192 236 280 335
#     4  10  21  38  62  88 114 148 185 223 276 338
#     4   9  17  31  53  84 119 150 184 224 266 322
#     4   8  15  29  51  80 110 140 183 241 295 334
#     4  11  22  36  55  79 110 151 190 231 284 337
#
# _framework density 20.239695999999999
#
# number of rings (size 3 to 8) (size 9 to 14) (size 15 to 20)
#    0.000    2.067    2.667    1.600    0.933    4.533 
#    0.000    1.333    1.467    2.800    0.000    0.933 
#    0.000    0.000    0.000    0.000    0.000    0.000 
#
# Total GULP energy -743410.643250 kJ/mol
# GULP energy per Si atom -12390.177388 kJ/mol
# Density = 2.019363 g / cm^3
# Si number density = 20.239696 Si / 1000 Ang^3
#
#
#
# Elastic Constant Matrix: (Units=GPa)
#
#
# Indices 1 2 3 4 5 6 
#
# 1 171.0248 37.4057 83.5450 0.0000 0.0000 0.0000
# 2 37.4057 28.5736 26.9423 0.0000 0.0000 0.0000
# 3 83.5450 26.9423 148.8238 0.0000 0.0000 0.0000
# 4 0.0000 0.0000 0.0000 20.2741 0.0000 0.0000
# 5 0.0000 0.0000 0.0000 0.0000 22.2247 0.0000
# 6 0.0000 0.0000 0.0000 0.0000 0.0000 24.1533
#
#
#
# Elastic Compliance Matrix: (Units=1/GPa)
#
#
# Indices 1 2 3 4 5 6 
#
# 1 0.009692 -0.009114 -0.003791 0.000000 0.000000 0.000000
# 2 -0.009114 0.050770 -0.004075 0.000000 0.000000 0.000000
# 3 -0.003791 -0.004075 0.009585 0.000000 0.000000 0.000000
# 4 0.000000 0.000000 0.000000 0.049324 0.000000 0.000000
# 5 0.000000 0.000000 0.000000 0.000000 0.044995 0.000000
# 6 0.000000 0.000000 0.000000 0.000000 0.000000 0.041402
#
#
# Mechanical properties :
#
#
# Convention : Reuss Voigt Hill
#
# Bulk Modulus (GPa) = 27.70976 71.57869 49.64423
# Shear Modulus (GPa) = 19.86033 26.69904 23.27969
#
# Velocity S-wave (km/s) = 3.13590 3.63594 3.39514
# Velocity P-wave (km/s) = 5.17999 7.28485 6.32066
#
# Compressibility (1/GPa) = 0.03608837
#
# Stress axis : x y z
#
# Youngs Moduli (GPa) = 103.17472 19.69654 104.32644
#
# Poissons Ratio (x) = 0.17950 0.39551
# Poissons Ratio (y) = 0.94029 0.42515
# Poissons Ratio (z) = 0.39114 0.08027
#
# Static dielectric constant tensor:
#      x y z
#    x 4.276080 0.000000 0.000000 
#    y 0.000000 3.328490 0.000000 
#    z 0.000000 0.000000 3.662540 
# 
# 
# High freq. dielectric constant tensor:
#      x y z
#    x 1.799090 0.000000 0.000000 
#    y 0.000000 1.753350 0.000000 
#    z 0.000000 0.000000 1.789740 
# 
# From -- ./inp_files/64003.got.cif
#   From: 2010.03.12/outbox.cif.g09.slc.cpg/sg65_33_cif.got.tgz:64003.got - 2010.04.10 20:52:16.
