data_PCOD8268542
_publ_section_title
;
Structure prediction by ZEFSAII (Michael W. Deem and Ramdas Pophale) SiO2 
 PCOD8268542
Probable space group: C M M M
;
_chemical_formula_sum "Si O2"
_cell_formula_units_Z 72
_cell_length_a 28.390317
_cell_length_b 17.490067
_cell_length_c 7.881305
_cell_angle_alpha 90.000000
_cell_angle_beta 90.000000
_cell_angle_gamma 90.000000
_cell_volume 3913.450542
_symmetry_space_group_name_H-M "C M M M"
_symmetry_group_IT_number 65
_symmetry_cell_setting 'orthorhombic'
loop_
_space_group_symop_operation_xyz
x,y,z
-x,-y,z
x,-y,-z
-x,y,-z
-x,-y,-z
x,y,-z
-x,y,z
x,-y,z
1/2+x,1/2+y,z
1/2-x,1/2-y,z
1/2+x,1/2-y,-z
1/2-x,1/2+y,-z
1/2-x,1/2-y,-z
1/2+x,1/2+y,-z
1/2-x,1/2+y,z
1/2+x,1/2-y,z
loop_
_atom_site_type_symbol
_atom_site_label
_atom_site_fract_x
_atom_site_fract_y
_atom_site_fract_z
Si Si1 0.603244 0.586357 0.500000
Si Si2 0.215402 0.179756 0.813454
Si Si3 0.785056 0.083274 0.500000
Si Si4 0.392655 0.308207 0.191000
Si Si5 0.054139 0.337133 0.695562
Si Si6 0.446134 0.000000 0.199154
O O1 0.581593 0.500000 0.500000
O O2 0.658967 0.579667 0.500000
O O3 0.586727 0.631668 0.329746
O O4 0.250000 0.250000 0.808479
O O5 0.233791 0.122487 0.670410
O O6 0.162394 0.206857 0.772660
O O7 0.217236 0.140466 0.000000
O O8 0.762458 0.000000 0.500000
O O9 0.417866 0.226456 0.200340
O O10 0.400433 0.341105 0.000000
O O11 0.058436 0.315655 0.500000
O O12 0.076604 0.421614 0.728018
O O13 0.000000 0.336076 0.758229
O O14 0.500000 0.000000 0.260063
O O15 0.440177 0.000000 0.000000
#
# Coordination Sequence:
#
# PCOD8268542 Si02
#       6
#     8  16   8  16  16   8
#     4   9  18  33  50  74 103 126 160 208 255 300
#     4   9  18  32  51  73  98 131 165 200 245 296
#     4   9  17  29  49  74  97 124 160 207 249 287
#     4  10  19  32  53  77 100 131 169 206 248 299
#     4  10  19  32  51  74 102 134 168 207 248 293
#     4   9  17  29  47  73 101 131 169 208 245 289
#
# _framework density 18.398085999999999
#
# number of rings (size 3 to 8) (size 9 to 14) (size 15 to 20)
#    0.000    2.556    1.111    1.333    0.000    3.556 
#    0.000    4.444    2.444    1.333    0.000    1.556 
#    0.000    0.000    0.000    0.000    0.000    0.000 
#
# Total GULP energy -446215.731533 kJ/mol
# GULP energy per Si atom -12394.881431 kJ/mol
# Density = 1.835621 g / cm^3
# Si number density = 18.398086 Si / 1000 Ang^3
#
#
#
# Elastic Constant Matrix: (Units=GPa)
#
#
# Indices 1 2 3 4 5 6 
#
# 1 32.8475 28.7178 24.8387 0.0000 0.0000 0.0000
# 2 28.7178 134.5826 72.9282 0.0000 0.0000 0.0000
# 3 24.8387 72.9282 140.3898 0.0000 0.0000 0.0000
# 4 0.0000 0.0000 0.0000 -162.7919 0.0000 0.0000
# 5 0.0000 0.0000 0.0000 0.0000 21.8914 0.0000
# 6 0.0000 0.0000 0.0000 0.0000 0.0000 18.3093
#
#
#
# Elastic Compliance Matrix: (Units=1/GPa)
#
#
# Indices 1 2 3 4 5 6 
#
# 1 0.038660 -0.006323 -0.003556 0.000000 0.000000 0.000000
# 2 -0.006323 0.011375 -0.004791 0.000000 0.000000 0.000000
# 3 -0.003556 -0.004791 0.010241 0.000000 0.000000 0.000000
# 4 0.000000 0.000000 0.000000 -0.006143 0.000000 0.000000
# 5 0.000000 0.000000 0.000000 0.000000 0.045680 0.000000
# 6 0.000000 0.000000 0.000000 0.000000 0.000000 0.054617
#
#
# Mechanical properties :
#
#
# Convention : Reuss Voigt Hill
#
# Bulk Modulus (GPa) = 32.32205 62.30990 47.31598
# Shear Modulus (GPa) = 25.76239 -12.42924 6.66657
#
# Velocity S-wave (km/s) = 3.74608 -2.60200 1.90562
# Velocity P-wave (km/s) = 6.02637 4.99139 5.53313
#
# Compressibility (1/GPa) = 0.03093863
#
# Stress axis : x y z
#
# Youngs Moduli (GPa) = 25.86634 87.90827 97.65022
#
# Poissons Ratio (x) = 0.55583 0.34720
# Poissons Ratio (y) = 0.16355 0.46780
# Poissons Ratio (z) = 0.09197 0.42113
#
# Static dielectric constant tensor:
#      x y z
#    x 3.009750 0.000000 0.000000 
#    y 0.000000 3.517340 0.000000 
#    z 0.000000 0.000000 3.769550 
# 
# 
# High freq. dielectric constant tensor:
#      x y z
#    x 1.664950 0.000000 0.000000 
#    y 0.000000 1.709020 0.000000 
#    z 0.000000 0.000000 1.735000 
# 
# From -- ./inp_files/7407.got.cif
#   From: 2010.03.12/outbox.cif.g09.slc.cpg/sg65_4_cif.got.tgz:7407.got - 2010.04.10 20:52:16.
