data_PCOD8268192
_publ_section_title
;
Structure prediction by ZEFSAII (Michael W. Deem and Ramdas Pophale) SiO2 
 PCOD8268192
Probable space group: C M M M
;
_chemical_formula_sum "Si O2"
_cell_formula_units_Z 96
_cell_length_a 23.658149
_cell_length_b 8.789096
_cell_length_c 25.969627
_cell_angle_alpha 90.000000
_cell_angle_beta 90.000000
_cell_angle_gamma 90.000000
_cell_volume 5399.961740
_symmetry_space_group_name_H-M "C M M M"
_symmetry_group_IT_number 65
_symmetry_cell_setting 'orthorhombic'
loop_
_space_group_symop_operation_xyz
x,y,z
-x,-y,z
x,-y,-z
-x,y,-z
-x,-y,-z
x,y,-z
-x,y,z
x,-y,z
1/2+x,1/2+y,z
1/2-x,1/2-y,z
1/2+x,1/2-y,-z
1/2-x,1/2+y,-z
1/2-x,1/2-y,-z
1/2+x,1/2+y,-z
1/2-x,1/2+y,z
1/2+x,1/2-y,z
loop_
_atom_site_type_symbol
_atom_site_label
_atom_site_fract_x
_atom_site_fract_y
_atom_site_fract_z
Si Si1 0.810570 0.320734 0.146851
Si Si2 0.500000 0.680379 0.899569
Si Si3 0.384518 0.179821 0.244128
Si Si4 0.000000 0.819539 0.782750
Si Si5 0.689323 0.322537 0.554318
Si Si6 0.812173 0.819537 0.666057
Si Si7 0.381282 0.678377 0.059095
O O1 0.803720 0.500000 0.144712
O O2 0.750000 0.250000 0.158424
O O3 0.852395 0.268460 0.192322
O O4 0.834428 0.263027 0.092619
O O5 0.500000 0.500000 0.901854
O O6 0.500000 0.740838 0.841328
O O7 0.556058 0.742078 0.927974
O O8 0.445569 0.256107 0.246137
O O9 0.351740 0.238739 0.293399
O O10 0.390756 0.000000 0.246698
O O11 0.000000 0.000000 0.780321
O O12 0.656986 0.276334 0.500000
O O13 0.699606 0.500000 0.554665
O O14 0.750000 0.250000 0.553134
O O15 0.660758 0.279784 0.609213
O O16 0.750000 0.750000 0.671492
O O17 0.809558 0.000000 0.676304
O O18 0.377921 0.500000 0.071358
O O19 0.367467 0.713852 0.000000
#
# Coordination Sequence:
#
# PCOD8268192 Si02
#       7
#    16   8  16   8  16  16  16
#     4  11  24  39  56  76 103 138 175 212 255 307
#     4   9  17  33  58  85 107 130 162 204 251 304
#     4  11  23  38  55  78 107 138 174 219 264 312
#     4  11  21  36  61  83 103 135 170 212 261 315
#     4   8  14  25  42  67 101 139 177 216 257 303
#     4  10  19  31  50  77 109 145 182 219 262 312
#     4  10  20  36  59  84 108 134 167 208 255 308
#
# _framework density 17.777903999999999
#
# number of rings (size 3 to 8) (size 9 to 14) (size 15 to 20)
#    0.000    2.000    1.667    2.500    0.000    5.667 
#    0.000    0.417    0.000    1.000    0.000    0.583 
#    0.000    4.667    0.000    0.000    0.000    0.000 
#
# Total GULP energy -594911.518311 kJ/mol
# GULP energy per Si atom -12393.989965 kJ/mol
# Density = 1.773744 g / cm^3
# Si number density = 17.777904 Si / 1000 Ang^3
#
#
#
# Elastic Constant Matrix: (Units=GPa)
#
#
# Indices 1 2 3 4 5 6 
#
# 1 106.7081 36.7573 55.6614 0.0000 0.0000 0.0000
# 2 36.7573 53.0481 43.5340 0.0000 0.0000 0.0000
# 3 55.6614 43.5340 145.2118 0.0000 0.0000 0.0000
# 4 0.0000 0.0000 0.0000 20.9467 0.0000 0.0000
# 5 0.0000 0.0000 0.0000 0.0000 8.8404 0.0000
# 6 0.0000 0.0000 0.0000 0.0000 0.0000 21.6006
#
#
#
# Elastic Compliance Matrix: (Units=1/GPa)
#
#
# Indices 1 2 3 4 5 6 
#
# 1 0.013280 -0.006664 -0.003093 0.000000 0.000000 0.000000
# 2 -0.006664 0.028346 -0.005944 0.000000 0.000000 0.000000
# 3 -0.003093 -0.005944 0.009854 0.000000 0.000000 0.000000
# 4 0.000000 0.000000 0.000000 0.047740 0.000000 0.000000
# 5 0.000000 0.000000 0.000000 0.000000 0.113117 0.000000
# 6 0.000000 0.000000 0.000000 0.000000 0.000000 0.046295
#
#
# Mechanical properties :
#
#
# Convention : Reuss Voigt Hill
#
# Bulk Modulus (GPa) = 49.80198 64.09703 56.94951
# Shear Modulus (GPa) = 16.85063 21.54525 19.19794
#
# Velocity S-wave (km/s) = 3.08204 3.48503 3.28971
# Velocity P-wave (km/s) = 6.38275 7.23371 6.82151
#
# Compressibility (1/GPa) = 0.02007952
#
# Stress axis : x y z
#
# Youngs Moduli (GPa) = 75.30138 35.27845 101.48359
#
# Poissons Ratio (x) = 0.23509 0.31385
# Poissons Ratio (y) = 0.50180 0.60319
# Poissons Ratio (z) = 0.23288 0.20968
#
# Static dielectric constant tensor:
#      x y z
#    x 3.112190 0.000000 0.000000 
#    y 0.000000 3.222430 0.000000 
#    z 0.000000 0.000000 3.855480 
# 
# 
# High freq. dielectric constant tensor:
#      x y z
#    x 1.660200 0.000000 0.000000 
#    y 0.000000 1.688360 0.000000 
#    z 0.000000 0.000000 1.705460 
# 
# From -- ./inp_files/71489.got.cif
#   From: 2010.03.12/outbox.cif.g09.slc.cpg/sg65_36_cif.got.tgz:71489.got - 2010.04.10 20:52:16.
