data_PCOD8268974
_publ_section_title
;
Structure prediction by ZEFSAII (Michael W. Deem and Ramdas Pophale) SiO2 
 PCOD8268974
Probable space group: C M M M
;
_chemical_formula_sum "Si O2"
_cell_formula_units_Z 80
_cell_length_a 18.072787
_cell_length_b 8.944371
_cell_length_c 27.613796
_cell_angle_alpha 90.000000
_cell_angle_beta 90.000000
_cell_angle_gamma 90.000000
_cell_volume 4463.762169
_symmetry_space_group_name_H-M "C M M M"
_symmetry_group_IT_number 65
_symmetry_cell_setting 'orthorhombic'
loop_
_space_group_symop_operation_xyz
x,y,z
-x,-y,z
x,-y,-z
-x,y,-z
-x,-y,-z
x,y,-z
-x,y,z
x,-y,z
1/2+x,1/2+y,z
1/2-x,1/2-y,z
1/2+x,1/2-y,-z
1/2-x,1/2+y,-z
1/2-x,1/2-y,-z
1/2+x,1/2+y,-z
1/2-x,1/2+y,z
1/2+x,1/2-y,z
loop_
_atom_site_type_symbol
_atom_site_label
_atom_site_fract_x
_atom_site_fract_y
_atom_site_fract_z
Si Si1 0.675382 0.166419 0.871213
Si Si2 0.327027 0.328190 0.500000
Si Si3 0.914556 0.175897 0.787855
Si Si4 0.912854 0.500000 0.943812
Si Si5 0.669945 0.675964 0.604785
Si Si6 0.412478 0.168819 0.309788
O O1 0.750000 0.250000 0.886845
O O2 0.633183 0.263585 0.831842
O O3 0.693407 0.000000 0.850240
O O4 0.623127 0.147781 0.918805
O O5 0.307093 0.500000 0.500000
O O6 0.250000 0.250000 0.500000
O O7 0.366767 0.289009 0.551284
O O8 0.884063 0.250501 0.738764
O O9 0.000000 0.219117 0.796826
O O10 0.903741 0.000000 0.783288
O O11 0.000000 0.500000 0.934584
O O12 0.892732 0.500000 0.000000
O O13 0.678021 0.500000 0.613710
O O14 0.750000 0.750000 0.609996
O O15 0.615041 0.743377 0.643654
O O16 0.500000 0.171709 0.311366
O O17 0.381752 0.000000 0.310160
#
# Coordination Sequence:
#
# PCOD8268974 Si02
#       6
#    16   8  16   8  16  16
#     4  10  21  35  57  85 119 151 190 236 285 330
#     4   8  16  30  49  72  97 129 169 217 269 328
#     4  10  20  35  57  81 109 146 187 230 278 338
#     4   9  20  38  62  88 117 159 203 236 279 343
#     4  10  19  33  53  76 102 133 174 221 274 330
#     4  10  21  36  53  76 107 143 182 224 273 329
#
# _framework density 17.922101000000001
#
# number of rings (size 3 to 8) (size 9 to 14) (size 15 to 20)
#    0.600    1.700    0.000    3.000    0.000    4.000 
#    0.000    4.500    0.000    3.000    0.000    4.200 
#    0.000    0.000    0.000    0.000    0.000    0.000 
#
# Total GULP energy -495701.340385 kJ/mol
# GULP energy per Si atom -12392.533510 kJ/mol
# Density = 1.788131 g / cm^3
# Si number density = 17.922101 Si / 1000 Ang^3
#
#
#
# Elastic Constant Matrix: (Units=GPa)
#
#
# Indices 1 2 3 4 5 6 
#
# 1 63.4947 38.8548 58.0860 0.0000 0.0000 0.0000
# 2 38.8548 99.3806 58.0136 0.0000 0.0000 0.0000
# 3 58.0860 58.0136 163.0020 0.0000 0.0000 0.0000
# 4 0.0000 0.0000 0.0000 29.2810 0.0000 0.0000
# 5 0.0000 0.0000 0.0000 0.0000 20.8171 0.0000
# 6 0.0000 0.0000 0.0000 0.0000 0.0000 32.4049
#
#
#
# Elastic Compliance Matrix: (Units=1/GPa)
#
#
# Indices 1 2 3 4 5 6 
#
# 1 0.025909 -0.005983 -0.007103 0.000000 0.000000 0.000000
# 2 -0.005983 0.014083 -0.002880 0.000000 0.000000 0.000000
# 3 -0.007103 -0.002880 0.009691 0.000000 0.000000 0.000000
# 4 0.000000 0.000000 0.000000 0.034152 0.000000 0.000000
# 5 0.000000 0.000000 0.000000 0.000000 0.048038 0.000000
# 6 0.000000 0.000000 0.000000 0.000000 0.000000 0.030860
#
#
# Mechanical properties :
#
#
# Convention : Reuss Voigt Hill
#
# Bulk Modulus (GPa) = 56.33800 70.64290 63.49045
# Shear Modulus (GPa) = 24.92760 27.89546 26.41153
#
# Velocity S-wave (km/s) = 3.73350 3.94951 3.84303
# Velocity P-wave (km/s) = 7.07733 7.76533 7.42930
#
# Compressibility (1/GPa) = 0.01775001
#
# Stress axis : x y z
#
# Youngs Moduli (GPa) = 38.59708 71.00878 103.18654
#
# Poissons Ratio (x) = 0.42485 0.73296
# Poissons Ratio (y) = 0.23093 0.29719
# Poissons Ratio (z) = 0.27416 0.20451
#
# Static dielectric constant tensor:
#      x y z
#    x 3.090480 0.000000 0.000000 
#    y 0.000000 3.448890 0.000000 
#    z 0.000000 0.000000 3.538760 
# 
# 
# High freq. dielectric constant tensor:
#      x y z
#    x 1.674700 0.000000 0.000000 
#    y 0.000000 1.702380 0.000000 
#    z 0.000000 0.000000 1.702290 
# 
# From -- ./inp_files/70789.got.cif
#   From: 2010.03.12/outbox.cif.g09.slc.cpg/sg65_36_cif.got.tgz:70789.got - 2010.04.10 20:52:16.
