data_PCOD8268078
_publ_section_title
;
Structure prediction by ZEFSAII (Michael W. Deem and Ramdas Pophale) SiO2 
 PCOD8268078
Probable space group: C M M M
;
_chemical_formula_sum "Si O2"
_cell_formula_units_Z 80
_cell_length_a 13.913859
_cell_length_b 20.178762
_cell_length_c 13.736302
_cell_angle_alpha 90.000000
_cell_angle_beta 90.000000
_cell_angle_gamma 90.000000
_cell_volume 3856.665266
_symmetry_space_group_name_H-M "C M M M"
_symmetry_group_IT_number 65
_symmetry_cell_setting 'orthorhombic'
loop_
_space_group_symop_operation_xyz
x,y,z
-x,-y,z
x,-y,-z
-x,y,-z
-x,-y,-z
x,y,-z
-x,y,z
x,-y,z
1/2+x,1/2+y,z
1/2-x,1/2-y,z
1/2+x,1/2-y,-z
1/2-x,1/2+y,-z
1/2-x,1/2-y,-z
1/2+x,1/2+y,-z
1/2-x,1/2+y,z
1/2+x,1/2-y,z
loop_
_atom_site_type_symbol
_atom_site_label
_atom_site_fract_x
_atom_site_fract_y
_atom_site_fract_z
Si Si1 0.110872 0.426979 0.204493
Si Si2 0.105167 0.267052 0.606429
Si Si3 0.107879 0.137344 0.722830
Si Si4 0.783287 0.396933 0.388917
Si Si5 0.758759 0.828121 0.886865
O O1 0.126805 0.500000 0.156242
O O2 0.145107 0.434863 0.316830
O O3 0.164252 0.368072 0.147350
O O4 0.000000 0.406992 0.202328
O O5 0.116746 0.232945 0.500000
O O6 0.109329 0.212906 0.689192
O O7 0.190813 0.319178 0.620348
O O8 0.000000 0.302735 0.611855
O O9 0.174014 0.093724 0.649913
O O10 0.150982 0.138776 0.831490
O O11 0.000000 0.107699 0.723861
O O12 0.793004 0.423058 0.500000
O O13 0.750000 0.750000 0.863518
O O14 0.776132 0.840184 0.000000
#
# Coordination Sequence:
#
# PCOD8268078 Si02
#       5
#    16  16  16  16  16
#     4  10  22  40  62  90 124 159 193 233 289 357
#     4   9  16  26  44  73 109 149 191 234 284 343
#     4  10  19  31  49  74 107 147 192 241 291 343
#     4  10  19  31  49  76 113 154 194 235 279 332
#     4  10  22  39  59  85 115 148 192 248 305 357
#
# _framework density 20.743309
#
# number of rings (size 3 to 8) (size 9 to 14) (size 15 to 20)
#    0.000    2.200    0.000    4.200    0.000    8.000 
#    0.000    4.000    0.000    9.600    0.000   11.200 
#    0.000    0.000    0.000    0.000    0.000    0.000 
#
# Total GULP energy -495704.260877 kJ/mol
# GULP energy per Si atom -12392.606522 kJ/mol
# Density = 2.069610 g / cm^3
# Si number density = 20.743309 Si / 1000 Ang^3
#
#
#
# Elastic Constant Matrix: (Units=GPa)
#
#
# Indices 1 2 3 4 5 6 
#
# 1 152.3529 30.6646 42.3592 0.0000 0.0000 0.0000
# 2 30.6646 75.2785 22.6583 0.0000 0.0000 0.0000
# 3 42.3592 22.6583 103.1743 0.0000 0.0000 0.0000
# 4 0.0000 0.0000 0.0000 5.3029 0.0000 0.0000
# 5 0.0000 0.0000 0.0000 0.0000 18.0523 0.0000
# 6 0.0000 0.0000 0.0000 0.0000 0.0000 21.5950
#
#
#
# Elastic Compliance Matrix: (Units=1/GPa)
#
#
# Indices 1 2 3 4 5 6 
#
# 1 0.007784 -0.002365 -0.002676 0.000000 0.000000 0.000000
# 2 -0.002365 0.014943 -0.002311 0.000000 0.000000 0.000000
# 3 -0.002676 -0.002311 0.011299 0.000000 0.000000 0.000000
# 4 0.000000 0.000000 0.000000 0.188577 0.000000 0.000000
# 5 0.000000 0.000000 0.000000 0.000000 0.055395 0.000000
# 6 0.000000 0.000000 0.000000 0.000000 0.000000 0.046307
#
#
# Mechanical properties :
#
#
# Convention : Reuss Voigt Hill
#
# Bulk Modulus (GPa) = 51.75675 58.01888 54.88782
# Shear Modulus (GPa) = 14.47392 24.66494 19.56943
#
# Velocity S-wave (km/s) = 2.64439 3.45201 3.07483
# Velocity P-wave (km/s) = 5.85909 6.62715 6.25492
#
# Compressibility (1/GPa) = 0.01932115
#
# Stress axis : x y z
#
# Youngs Moduli (GPa) = 128.47084 66.92129 88.50687
#
# Poissons Ratio (x) = 0.15828 0.23687
# Poissons Ratio (y) = 0.30386 0.20450
# Poissons Ratio (z) = 0.34383 0.15463
#
# Static dielectric constant tensor:
#      x y z
#    x 4.029660 0.000000 0.000000 
#    y 0.000000 3.387480 0.000000 
#    z 0.000000 0.000000 3.776910 
# 
# 
# High freq. dielectric constant tensor:
#      x y z
#    x 1.820790 0.000000 0.000000 
#    y 0.000000 1.778310 0.000000 
#    z 0.000000 0.000000 1.807470 
# 
# From -- ./inp_files/40004.got.cif
#   From: 2010.03.12/outbox.cif.g09.slc.cpg/sg65_21_cif.got.tgz:40004.got - 2010.04.10 20:52:16.
