data_PCOD8268512
_publ_section_title
;
Structure prediction by ZEFSAII (Michael W. Deem and Ramdas Pophale) SiO2 
 PCOD8268512
Probable space group: C M M M
;
_chemical_formula_sum "Si O2"
_cell_formula_units_Z 80
_cell_length_a 9.278045
_cell_length_b 18.212203
_cell_length_c 27.277926
_cell_angle_alpha 90.000000
_cell_angle_beta 90.000000
_cell_angle_gamma 90.000000
_cell_volume 4609.250420
_symmetry_space_group_name_H-M "C M M M"
_symmetry_group_IT_number 65
_symmetry_cell_setting 'orthorhombic'
loop_
_space_group_symop_operation_xyz
x,y,z
-x,-y,z
x,-y,-z
-x,y,-z
-x,-y,-z
x,y,-z
-x,y,z
x,-y,z
1/2+x,1/2+y,z
1/2-x,1/2-y,z
1/2+x,1/2-y,-z
1/2-x,1/2+y,-z
1/2-x,1/2-y,-z
1/2+x,1/2+y,-z
1/2-x,1/2+y,z
1/2+x,1/2-y,z
loop_
_atom_site_type_symbol
_atom_site_label
_atom_site_fract_x
_atom_site_fract_y
_atom_site_fract_z
Si Si1 0.664103 0.676419 0.500000
Si Si2 0.832201 0.584119 0.204959
Si Si3 0.668170 0.326606 0.605927
Si Si4 0.000000 0.086295 0.057169
Si Si5 0.160293 0.178861 0.871899
Si Si6 0.839907 0.586446 0.316433
O O1 0.500000 0.701363 0.500000
O O2 0.750000 0.750000 0.500000
O O3 0.697029 0.635424 0.448148
O O4 0.783369 0.500000 0.196461
O O5 0.739436 0.637748 0.171855
O O6 0.802297 0.608385 0.260787
O O7 0.000000 0.592623 0.191924
O O8 0.500000 0.312345 0.614531
O O9 0.750000 0.250000 0.610391
O O10 0.722367 0.381001 0.647376
O O11 0.142575 0.123432 0.081625
O O12 0.000000 0.000000 0.068100
O O13 0.000000 0.103680 0.000000
O O14 0.250000 0.250000 0.888568
O O15 0.000000 0.203011 0.853782
O O16 0.835731 0.500000 0.321851
O O17 0.000000 0.615519 0.329861
#
# Coordination Sequence:
#
# PCOD8268512 Si02
#       6
#     8  16  16   8  16  16
#     4   8  16  30  47  68  93 123 163 209 259 316
#     4   9  18  34  56  77 104 142 181 222 268 322
#     4  10  19  32  51  73  97 128 167 213 264 315
#     4   9  20  38  60  84 113 151 191 228 271 325
#     4  10  21  34  55  83 114 145 183 225 273 319
#     4   9  19  35  52  73 102 137 173 213 262 314
#
# _framework density 17.356401000000002
#
# number of rings (size 3 to 8) (size 9 to 14) (size 15 to 20)
#    0.600    2.100    0.000    3.000    0.000    3.200 
#    0.000    2.500    0.000    3.000    0.000    4.200 
#    0.000    0.000    0.000    0.000    0.000    0.000 
#
# Total GULP energy -495608.058771 kJ/mol
# GULP energy per Si atom -12390.201469 kJ/mol
# Density = 1.731690 g / cm^3
# Si number density = 17.356401 Si / 1000 Ang^3
#
#
#
# Elastic Constant Matrix: (Units=GPa)
#
#
# Indices 1 2 3 4 5 6 
#
# 1 93.1923 46.9162 64.7797 0.0000 0.0000 0.0000
# 2 46.9162 75.3306 63.1011 0.0000 0.0000 0.0000
# 3 64.7797 63.1011 131.7061 0.0000 0.0000 0.0000
# 4 0.0000 0.0000 0.0000 24.9372 0.0000 0.0000
# 5 0.0000 0.0000 0.0000 0.0000 27.5893 0.0000
# 6 0.0000 0.0000 0.0000 0.0000 0.0000 32.7898
#
#
#
# Elastic Compliance Matrix: (Units=1/GPa)
#
#
# Indices 1 2 3 4 5 6 
#
# 1 0.017941 -0.006317 -0.005798 0.000000 0.000000 0.000000
# 2 -0.006317 0.024398 -0.008582 0.000000 0.000000 0.000000
# 3 -0.005798 -0.008582 0.014556 0.000000 0.000000 0.000000
# 4 0.000000 0.000000 0.000000 0.040101 0.000000 0.000000
# 5 0.000000 0.000000 0.000000 0.000000 0.036246 0.000000
# 6 0.000000 0.000000 0.000000 0.000000 0.000000 0.030497
#
#
# Mechanical properties :
#
#
# Convention : Reuss Voigt Hill
#
# Bulk Modulus (GPa) = 64.51203 72.20254 68.35729
# Shear Modulus (GPa) = 23.77559 25.42538 24.60049
#
# Velocity S-wave (km/s) = 3.70516 3.83155 3.76889
# Velocity P-wave (km/s) = 7.45345 7.82717 7.64260
#
# Compressibility (1/GPa) = 0.01550098
#
# Stress axis : x y z
#
# Youngs Moduli (GPa) = 55.73884 40.98681 68.70041
#
# Poissons Ratio (x) = 0.25892 0.39830
# Poissons Ratio (y) = 0.35211 0.58960
# Poissons Ratio (z) = 0.32315 0.35175
#
# Static dielectric constant tensor:
#      x y z
#    x 3.195170 0.000000 0.000000 
#    y 0.000000 2.967510 0.000000 
#    z 0.000000 0.000000 3.406220 
# 
# 
# High freq. dielectric constant tensor:
#      x y z
#    x 1.671320 0.000000 0.000000 
#    y 0.000000 1.653030 0.000000 
#    z 0.000000 0.000000 1.675470 
# 
# From -- ./inp_files/72998.got.cif
#   From: 2010.03.12/outbox.cif.g09.slc.cpg/sg65_37_cif.got.tgz:72998.got - 2010.04.10 20:52:16.
