data_PCOD8268787
_publ_section_title
;
Structure prediction by ZEFSAII (Michael W. Deem and Ramdas Pophale) SiO2 
 PCOD8268787
Probable space group: C M M M
;
_chemical_formula_sum "Si O2"
_cell_formula_units_Z 72
_cell_length_a 14.707753
_cell_length_b 27.213901
_cell_length_c 8.947392
_cell_angle_alpha 90.000000
_cell_angle_beta 90.000000
_cell_angle_gamma 90.000000
_cell_volume 3581.241374
_symmetry_space_group_name_H-M "C M M M"
_symmetry_group_IT_number 65
_symmetry_cell_setting 'orthorhombic'
loop_
_space_group_symop_operation_xyz
x,y,z
-x,-y,z
x,-y,-z
-x,y,-z
-x,-y,-z
x,y,-z
-x,y,z
x,-y,z
1/2+x,1/2+y,z
1/2-x,1/2-y,z
1/2+x,1/2-y,-z
1/2-x,1/2+y,-z
1/2-x,1/2-y,-z
1/2+x,1/2+y,-z
1/2-x,1/2+y,z
1/2+x,1/2-y,z
loop_
_atom_site_type_symbol
_atom_site_label
_atom_site_fract_x
_atom_site_fract_y
_atom_site_fract_z
Si Si1 0.775730 0.908897 0.675852
Si Si2 0.901065 0.163692 0.170602
Si Si3 0.101986 0.373895 0.822795
Si Si4 0.844579 0.732366 0.173117
Si Si5 0.396172 0.500000 0.322270
O O1 0.763027 0.912036 0.500000
O O2 0.825255 0.858368 0.720785
O O3 0.675587 0.910750 0.749549
O O4 0.839897 0.952842 0.735861
O O5 0.912882 0.222174 0.197006
O O6 0.000000 0.140081 0.203462
O O7 0.870356 0.153395 0.000000
O O8 0.117353 0.318429 0.758227
O O9 0.000000 0.390449 0.776720
O O10 0.113133 0.376093 0.000000
O O11 0.750000 0.750000 0.247720
O O12 0.827793 0.720854 0.000000
O O13 0.500000 0.500000 0.258180
O O14 0.400919 0.500000 0.500000
#
# Coordination Sequence:
#
# PCOD8268787 Si02
#       5
#    16  16  16  16   8
#     4  11  22  37  58  81 108 140 180 229 279 330
#     4  10  19  32  53  81 111 143 182 225 267 317
#     4  10  20  36  58  82 111 149 188 224 266 318
#     4   9  15  28  52  78 108 146 187 223 256 308
#     4   9  20  40  62  81 104 140 181 219 270 337
#
# _framework density 20.104761
#
# number of rings (size 3 to 8) (size 9 to 14) (size 15 to 20)
#    0.000    2.111    2.222    2.000    0.000    4.444 
#    0.000    5.000    0.000   10.000    0.000    0.000 
#    0.000    0.000    0.000    0.000    0.000    0.000 
#
# Total GULP energy -446155.181860 kJ/mol
# GULP energy per Si atom -12393.199496 kJ/mol
# Density = 2.005900 g / cm^3
# Si number density = 20.104761 Si / 1000 Ang^3
#
#
#
# Elastic Constant Matrix: (Units=GPa)
#
#
# Indices 1 2 3 4 5 6 
#
# 1 184.5979 58.8225 42.3219 0.0000 0.0000 0.0000
# 2 58.8225 79.7670 21.3281 0.0000 0.0000 0.0000
# 3 42.3219 21.3281 38.8601 0.0000 0.0000 0.0000
# 4 0.0000 0.0000 0.0000 20.1781 0.0000 0.0000
# 5 0.0000 0.0000 0.0000 0.0000 27.8363 0.0000
# 6 0.0000 0.0000 0.0000 0.0000 0.0000 32.6911
#
#
#
# Elastic Compliance Matrix: (Units=1/GPa)
#
#
# Indices 1 2 3 4 5 6 
#
# 1 0.008341 -0.004362 -0.006690 0.000000 0.000000 0.000000
# 2 -0.004362 0.016974 -0.004565 0.000000 0.000000 0.000000
# 3 -0.006690 -0.004565 0.035525 0.000000 0.000000 0.000000
# 4 0.000000 0.000000 0.000000 0.049559 0.000000 0.000000
# 5 0.000000 0.000000 0.000000 0.000000 0.035924 0.000000
# 6 0.000000 0.000000 0.000000 0.000000 0.000000 0.030589
#
#
# Mechanical properties :
#
#
# Convention : Reuss Voigt Hill
#
# Bulk Modulus (GPa) = 33.77799 60.90778 47.34289
# Shear Modulus (GPa) = 22.93420 28.19127 25.56273
#
# Velocity S-wave (km/s) = 3.38114 3.74868 3.56965
# Velocity P-wave (km/s) = 5.66395 7.00698 6.37095
#
# Compressibility (1/GPa) = 0.02960508
#
# Stress axis : x y z
#
# Youngs Moduli (GPa) = 119.89084 58.91381 28.14933
#
# Poissons Ratio (x) = 0.25699 0.18831
# Poissons Ratio (y) = 0.52298 0.12851
# Poissons Ratio (z) = 0.80205 0.26896
#
# Static dielectric constant tensor:
#      x y z
#    x 3.930840 0.000000 0.000000 
#    y 0.000000 3.621290 0.000000 
#    z 0.000000 0.000000 3.128410 
# 
# 
# High freq. dielectric constant tensor:
#      x y z
#    x 1.804600 0.000000 0.000000 
#    y 0.000000 1.767330 0.000000 
#    z 0.000000 0.000000 1.730390 
# 
# From -- ./inp_files/7216.got.cif
#   From: 2010.03.12/outbox.cif.g09.slc.cpg/sg65_4_cif.got.tgz:7216.got - 2010.04.10 20:52:16.
