data_PCOD8268003
_publ_section_title
;
Structure prediction by ZEFSAII (Michael W. Deem and Ramdas Pophale) SiO2 
 PCOD8268003
Probable space group: C M M M
;
_chemical_formula_sum "Si O2"
_cell_formula_units_Z 80
_cell_length_a 8.580516
_cell_length_b 19.384193
_cell_length_c 25.635660
_cell_angle_alpha 90.000000
_cell_angle_beta 90.000000
_cell_angle_gamma 90.000000
_cell_volume 4263.886480
_symmetry_space_group_name_H-M "C M M M"
_symmetry_group_IT_number 65
_symmetry_cell_setting 'orthorhombic'
loop_
_space_group_symop_operation_xyz
x,y,z
-x,-y,z
x,-y,-z
-x,y,-z
-x,-y,-z
x,y,-z
-x,y,z
x,-y,z
1/2+x,1/2+y,z
1/2-x,1/2-y,z
1/2+x,1/2-y,-z
1/2-x,1/2+y,-z
1/2-x,1/2-y,-z
1/2+x,1/2+y,-z
1/2-x,1/2+y,z
1/2+x,1/2-y,z
loop_
_atom_site_type_symbol
_atom_site_label
_atom_site_fract_x
_atom_site_fract_y
_atom_site_fract_z
Si Si1 0.315020 0.325190 0.758424
Si Si2 0.314838 0.077088 0.557581
Si Si3 0.685443 0.824836 0.351996
Si Si4 0.314731 0.422427 0.851619
Si Si5 0.684495 0.323046 0.058727
O O1 0.500000 0.320169 0.755751
O O2 0.250000 0.250000 0.773024
O O3 0.249467 0.351647 0.703255
O O4 0.257146 0.380148 0.801208
O O5 0.260380 0.102557 0.500000
O O6 0.500000 0.077086 0.560023
O O7 0.247509 0.126186 0.602518
O O8 0.251542 0.000000 0.567648
O O9 0.500000 0.823344 0.350043
O O10 0.750000 0.750000 0.364839
O O11 0.500000 0.425629 0.852226
O O12 0.245186 0.500000 0.850330
O O13 0.253416 0.383550 0.903511
O O14 0.500000 0.318432 0.061160
O O15 0.750000 0.250000 0.078411
O O16 0.742726 0.339298 0.000000
#
# Coordination Sequence:
#
# PCOD8268003 Si02
#       5
#    16  16  16  16  16
#     4  10  19  32  50  68  91 124 157 191 230 274
#     4   8  15  29  48  69  93 122 155 189 227 272
#     4  10  19  31  49  72  96 121 152 192 233 273
#     4   9  18  31  47  70  97 123 154 192 234 277
#     4   9  17  30  50  73  95 122 156 193 231 273
#
# _framework density 18.762225000000001
#
# number of rings (size 3 to 8) (size 9 to 14) (size 15 to 20)
#    0.000    2.800    0.000    3.600    0.000    1.600 
#    0.000    3.000    0.000    8.400    0.000    8.400 
#    0.000    0.000    0.000    0.000    0.000    0.000 
#
# Total GULP energy -495876.499848 kJ/mol
# GULP energy per Si atom -12396.912496 kJ/mol
# Density = 1.871952 g / cm^3
# Si number density = 18.762225 Si / 1000 Ang^3
#
#
#
# Elastic Constant Matrix: (Units=GPa)
#
#
# Indices 1 2 3 4 5 6 
#
# 1 37.5160 18.9121 23.0498 0.0000 0.0000 0.0000
# 2 18.9121 150.9089 120.1045 0.0000 0.0000 0.0000
# 3 23.0498 120.1045 178.7340 0.0000 0.0000 0.0000
# 4 0.0000 0.0000 0.0000 35.5628 0.0000 0.0000
# 5 0.0000 0.0000 0.0000 0.0000 18.3246 0.0000
# 6 0.0000 0.0000 0.0000 0.0000 0.0000 18.9780
#
#
#
# Elastic Compliance Matrix: (Units=1/GPa)
#
#
# Indices 1 2 3 4 5 6 
#
# 1 0.029090 -0.001419 -0.002798 0.000000 0.000000 0.000000
# 2 -0.001419 0.014314 -0.009436 0.000000 0.000000 0.000000
# 3 -0.002798 -0.009436 0.012296 0.000000 0.000000 0.000000
# 4 0.000000 0.000000 0.000000 0.028119 0.000000 0.000000
# 5 0.000000 0.000000 0.000000 0.000000 0.054571 0.000000
# 6 0.000000 0.000000 0.000000 0.000000 0.000000 0.052693
#
#
# Mechanical properties :
#
#
# Convention : Reuss Voigt Hill
#
# Bulk Modulus (GPa) = 35.21743 76.81019 56.01381
# Shear Modulus (GPa) = 21.94401 28.24592 25.09496
#
# Velocity S-wave (km/s) = 3.42363 3.88424 3.66119
# Velocity P-wave (km/s) = 5.86851 7.81947 6.91316
#
# Compressibility (1/GPa) = 0.02839503
#
# Stress axis : x y z
#
# Youngs Moduli (GPa) = 34.37651 69.86258 81.32579
#
# Poissons Ratio (x) = 0.09910 0.22757
# Poissons Ratio (y) = 0.04876 0.76736
# Poissons Ratio (z) = 0.09619 0.65919
#
# Static dielectric constant tensor:
#      x y z
#    x 3.077450 0.000000 0.000000 
#    y 0.000000 3.660060 0.000000 
#    z 0.000000 0.000000 3.862510 
# 
# 
# High freq. dielectric constant tensor:
#      x y z
#    x 1.694250 0.000000 0.000000 
#    y 0.000000 1.725350 0.000000 
#    z 0.000000 0.000000 1.744040 
# 
# From -- ./inp_files/72812.got.cif
#   From: 2010.03.12/outbox.cif.g09.slc.cpg/sg65_37_cif.got.tgz:72812.got - 2010.04.10 20:52:16.
