data_PCOD8268346
_publ_section_title
;
Structure prediction by ZEFSAII (Michael W. Deem and Ramdas Pophale) SiO2 
 PCOD8268346
Probable space group: C M M M
;
_chemical_formula_sum "Si O2"
_cell_formula_units_Z 104
_cell_length_a 8.632143
_cell_length_b 27.539613
_cell_length_c 27.186882
_cell_angle_alpha 90.000000
_cell_angle_beta 90.000000
_cell_angle_gamma 90.000000
_cell_volume 6463.025382
_symmetry_space_group_name_H-M "C M M M"
_symmetry_group_IT_number 65
_symmetry_cell_setting 'orthorhombic'
loop_
_space_group_symop_operation_xyz
x,y,z
-x,-y,z
x,-y,-z
-x,y,-z
-x,-y,-z
x,y,-z
-x,y,z
x,-y,z
1/2+x,1/2+y,z
1/2-x,1/2-y,z
1/2+x,1/2-y,-z
1/2-x,1/2+y,-z
1/2-x,1/2-y,-z
1/2+x,1/2+y,-z
1/2-x,1/2+y,z
1/2+x,1/2-y,z
loop_
_atom_site_type_symbol
_atom_site_label
_atom_site_fract_x
_atom_site_fract_y
_atom_site_fract_z
Si Si1 0.182971 0.196324 0.104999
Si Si2 0.182030 0.300880 0.610650
Si Si3 0.180204 0.886725 0.555578
Si Si4 0.317225 0.553213 0.647357
Si Si5 0.817807 0.696175 0.204032
Si Si6 0.316422 0.352807 0.297268
Si Si7 0.680991 0.697140 0.000000
O O1 0.250000 0.250000 0.102388
O O2 0.262992 0.171557 0.152309
O O3 0.000000 0.197511 0.114041
O O4 0.225350 0.170326 0.051983
O O5 0.250000 0.250000 0.592429
O O6 0.219774 0.339315 0.567959
O O7 0.264307 0.314560 0.661743
O O8 0.000000 0.297515 0.619478
O O9 0.214808 0.903568 0.500000
O O10 0.229212 0.930156 0.592196
O O11 0.000000 0.873449 0.563352
O O12 0.500000 0.549199 0.651331
O O13 0.242630 0.500000 0.657738
O O14 0.259166 0.593170 0.686787
O O15 0.750000 0.750000 0.211771
O O16 0.762119 0.659686 0.245913
O O17 0.000000 0.700712 0.205130
O O18 0.500000 0.350119 0.291733
O O19 0.750000 0.750000 0.000000
O O20 0.500000 0.705559 0.000000
#
# Coordination Sequence:
#
# PCOD8268346 Si02
#       7
#    16  16  16  16  16  16   8
#     4   9  15  24  36  53  77 108 146 184 220 253
#     4  11  21  33  48  65  87 115 146 177 210 249
#     4   9  18  32  49  70  94 116 140 170 203 243
#     4   8  15  29  50  73  91 108 134 169 209 252
#     4  11  20  29  41  60  86 116 150 184 218 254
#     4  10  19  32  48  66  88 112 140 175 213 254
#     4   8  14  22  34  50  72 104 143 184 219 252
#
# _framework density 16.091536000000001
#
# number of rings (size 3 to 8) (size 9 to 14) (size 15 to 20)
#    0.000    2.462    0.000    6.000    0.000    1.538 
#    0.000    1.538    0.000   11.538    0.000    4.308 
#    0.000    0.000    0.000    0.692    0.000   15.923 
#
# Total GULP energy -644311.680851 kJ/mol
# GULP energy per Si atom -12390.609247 kJ/mol
# Density = 1.605491 g / cm^3
# Si number density = 16.091536 Si / 1000 Ang^3
#
#
#
# Elastic Constant Matrix: (Units=GPa)
#
#
# Indices 1 2 3 4 5 6 
#
# 1 78.5226 23.1623 38.7659 0.0000 0.0000 0.0000
# 2 23.1623 83.7169 44.2613 0.0000 0.0000 0.0000
# 3 38.7659 44.2613 150.2351 0.0000 0.0000 0.0000
# 4 0.0000 0.0000 0.0000 12.9506 0.0000 0.0000
# 5 0.0000 0.0000 0.0000 0.0000 23.1353 0.0000
# 6 0.0000 0.0000 0.0000 0.0000 0.0000 12.2890
#
#
#
# Elastic Compliance Matrix: (Units=1/GPa)
#
#
# Indices 1 2 3 4 5 6 
#
# 1 0.015022 -0.002496 -0.003141 0.000000 0.000000 0.000000
# 2 -0.002496 0.014563 -0.003647 0.000000 0.000000 0.000000
# 3 -0.003141 -0.003647 0.008541 0.000000 0.000000 0.000000
# 4 0.000000 0.000000 0.000000 0.077217 0.000000 0.000000
# 5 0.000000 0.000000 0.000000 0.000000 0.043224 0.000000
# 6 0.000000 0.000000 0.000000 0.000000 0.000000 0.081374
#
#
# Mechanical properties :
#
#
# Convention : Reuss Voigt Hill
#
# Bulk Modulus (GPa) = 51.12434 58.31708 54.72071
# Shear Modulus (GPa) = 18.86598 23.42730 21.14664
#
# Velocity S-wave (km/s) = 3.42777 3.81974 3.62905
# Velocity P-wave (km/s) = 6.89247 7.46816 7.18608
#
# Compressibility (1/GPa) = 0.01956015
#
# Stress axis : x y z
#
# Youngs Moduli (GPa) = 66.56909 68.66489 117.08138
#
# Poissons Ratio (x) = 0.17136 0.36775
# Poissons Ratio (y) = 0.16613 0.42696
# Poissons Ratio (z) = 0.20909 0.25040
#
# Static dielectric constant tensor:
#      x y z
#    x 2.816360 0.000000 0.000000 
#    y 0.000000 2.918610 0.000000 
#    z 0.000000 0.000000 3.664700 
# 
# 
# High freq. dielectric constant tensor:
#      x y z
#    x 1.619370 0.000000 0.000000 
#    y 0.000000 1.567080 0.000000 
#    z 0.000000 0.000000 1.629910 
# 
# From -- ./inp_files/73813.got.cif
#   From: 2010.03.12/outbox.cif.g09.slc.cpg/sg65_37_cif.got.tgz:73813.got - 2010.04.10 20:52:16.
