data_PCOD8268984
_publ_section_title
;
Structure prediction by ZEFSAII (Michael W. Deem and Ramdas Pophale) SiO2 
 PCOD8268984
Probable space group: C M M M
;
_chemical_formula_sum "Si O2"
_cell_formula_units_Z 64
_cell_length_a 35.788089
_cell_length_b 8.519094
_cell_length_c 10.369271
_cell_angle_alpha 90.000000
_cell_angle_beta 90.000000
_cell_angle_gamma 90.000000
_cell_volume 3161.405059
_symmetry_space_group_name_H-M "C M M M"
_symmetry_group_IT_number 65
_symmetry_cell_setting 'orthorhombic'
loop_
_space_group_symop_operation_xyz
x,y,z
-x,-y,z
x,-y,-z
-x,y,-z
-x,-y,-z
x,y,-z
-x,y,z
x,-y,z
1/2+x,1/2+y,z
1/2-x,1/2-y,z
1/2+x,1/2-y,-z
1/2-x,1/2+y,-z
1/2-x,1/2-y,-z
1/2+x,1/2+y,-z
1/2-x,1/2+y,z
1/2+x,1/2-y,z
loop_
_atom_site_type_symbol
_atom_site_label
_atom_site_fract_x
_atom_site_fract_y
_atom_site_fract_z
Si Si1 0.172884 0.186901 0.500000
Si Si2 0.916785 0.814604 0.000000
Si Si3 0.041780 0.186098 0.258576
Si Si4 0.588486 0.687421 0.500000
Si Si5 0.335624 0.816767 0.000000
Si Si6 0.709237 0.314399 0.763028
O O1 0.130679 0.253312 0.500000
O O2 0.194454 0.250703 0.374108
O O3 0.171866 0.000000 0.500000
O O4 0.940556 0.762863 0.123508
O O5 0.879366 0.714807 0.000000
O O6 0.907516 0.000000 0.000000
O O7 0.067213 0.252956 0.374165
O O8 0.000000 0.256359 0.269719
O O9 0.039856 0.000000 0.268092
O O10 0.588990 0.500000 0.500000
O O11 0.318731 0.739839 0.127047
O O12 0.326822 0.000000 0.000000
O O13 0.710678 0.500000 0.761841
O O14 0.750000 0.250000 0.793081
#
# Coordination Sequence:
#
# PCOD8268984 Si02
#       6
#     8   8  16   8   8  16
#     4   9  19  34  56  85 116 149 184 225 275 331
#     4  10  19  33  53  76 105 140 180 228 279 327
#     4   9  16  26  45  75 108 140 176 220 270 323
#     4   9  15  25  42  70 108 143 174 213 265 321
#     4  12  25  40  57  81 112 148 191 234 279 331
#     4  11  22  39  61  86 115 147 184 227 278 332
#
# _framework density 20.244163
#
# number of rings (size 3 to 8) (size 9 to 14) (size 15 to 20)
#    0.000    2.000    0.000    4.875    0.000    7.000 
#    0.000    1.875    0.000    1.500    0.000    0.000 
#    0.000    4.000    0.000    0.000    0.000    0.000 
#
# Total GULP energy -396884.257724 kJ/mol
# GULP energy per Si atom -12402.633054 kJ/mol
# Density = 2.019809 g / cm^3
# Si number density = 20.244163 Si / 1000 Ang^3
#
#
#
# Elastic Constant Matrix: (Units=GPa)
#
#
# Indices 1 2 3 4 5 6 
#
# 1 116.2914 12.5877 24.7067 0.0000 0.0000 0.0000
# 2 12.5877 38.8975 17.2284 0.0000 0.0000 0.0000
# 3 24.7067 17.2284 135.7295 0.0000 0.0000 0.0000
# 4 0.0000 0.0000 0.0000 -235.8548 0.0000 0.0000
# 5 0.0000 0.0000 0.0000 0.0000 51.3022 0.0000
# 6 0.0000 0.0000 0.0000 0.0000 0.0000 22.3250
#
#
#
# Elastic Compliance Matrix: (Units=1/GPa)
#
#
# Indices 1 2 3 4 5 6 
#
# 1 0.009144 -0.002354 -0.001366 0.000000 0.000000 0.000000
# 2 -0.002354 0.027846 -0.003106 0.000000 0.000000 0.000000
# 3 -0.001366 -0.003106 0.008010 0.000000 0.000000 0.000000
# 4 0.000000 0.000000 0.000000 -0.004240 0.000000 0.000000
# 5 0.000000 0.000000 0.000000 0.000000 0.019492 0.000000
# 6 0.000000 0.000000 0.000000 0.000000 0.000000 0.044793
#
#
# Mechanical properties :
#
#
# Convention : Reuss Voigt Hill
#
# Bulk Modulus (GPa) = 31.89913 44.44045 38.16979
# Shear Modulus (GPa) = 38.71543 -16.68582 11.01480
#
# Velocity S-wave (km/s) = 4.37787 -2.87405 2.33512
# Velocity P-wave (km/s) = 6.43007 3.31456 5.11527
#
# Compressibility (1/GPa) = 0.03134882
#
# Stress axis : x y z
#
# Youngs Moduli (GPa) = 109.36066 35.91155 124.83715
#
# Poissons Ratio (x) = 0.08454 0.17048
# Poissons Ratio (y) = 0.25746 0.38775
# Poissons Ratio (z) = 0.14935 0.11154
#
# Static dielectric constant tensor:
#      x y z
#    x 3.895590 0.000000 0.000000 
#    y 0.000000 3.114660 0.000000 
#    z 0.000000 0.000000 3.965350 
# 
# 
# High freq. dielectric constant tensor:
#      x y z
#    x 1.810410 0.000000 0.000000 
#    y 0.000000 1.735210 0.000000 
#    z 0.000000 0.000000 1.812340 
# 
# From -- ./inp_files/21044.got.cif
#   From: 2010.03.12/outbox.cif.g09.slc.cpg/sg65_11_cif.got.tgz:21044.got - 2010.04.10 20:52:16.
