data_PCOD8268176
_publ_section_title
;
Structure prediction by ZEFSAII (Michael W. Deem and Ramdas Pophale) SiO2 
 PCOD8268176
Probable space group: C M M M
;
_chemical_formula_sum "Si O2"
_cell_formula_units_Z 88
_cell_length_a 27.169620
_cell_length_b 8.913378
_cell_length_c 20.788490
_cell_angle_alpha 90.000000
_cell_angle_beta 90.000000
_cell_angle_gamma 90.000000
_cell_volume 5034.412926
_symmetry_space_group_name_H-M "C M M M"
_symmetry_group_IT_number 65
_symmetry_cell_setting 'orthorhombic'
loop_
_space_group_symop_operation_xyz
x,y,z
-x,-y,z
x,-y,-z
-x,y,-z
-x,-y,-z
x,y,-z
-x,y,z
x,-y,z
1/2+x,1/2+y,z
1/2-x,1/2-y,z
1/2+x,1/2-y,-z
1/2-x,1/2+y,-z
1/2-x,1/2-y,-z
1/2+x,1/2+y,-z
1/2-x,1/2+y,z
1/2+x,1/2-y,z
loop_
_atom_site_type_symbol
_atom_site_label
_atom_site_fract_x
_atom_site_fract_y
_atom_site_fract_z
Si Si1 0.301815 0.825783 0.751600
Si Si2 0.556918 0.828336 0.073140
Si Si3 0.196311 0.821958 0.500000
Si Si4 0.390032 0.326049 0.813806
Si Si5 0.943554 0.824964 0.684108
Si Si6 0.144593 0.324762 0.619652
O O1 0.250000 0.750000 0.762703
O O2 0.339603 0.763005 0.803924
O O3 0.320881 0.789756 0.680244
O O4 0.295754 0.000000 0.763548
O O5 0.500000 0.785352 0.079570
O O6 0.587734 0.718879 0.118008
O O7 0.565451 0.000000 0.094312
O O8 0.574614 0.804083 0.000000
O O9 0.250000 0.750000 0.500000
O O10 0.165999 0.771130 0.438221
O O11 0.202270 0.000000 0.500000
O O12 0.377144 0.500000 0.814188
O O13 0.428713 0.286550 0.757353
O O14 0.910865 0.729071 0.634535
O O15 0.000000 0.777466 0.674008
O O16 0.935335 0.000000 0.669523
O O17 0.143947 0.500000 0.601816
#
# Coordination Sequence:
#
# PCOD8268176 Si02
#       6
#    16  16   8  16  16  16
#     4  10  20  34  53  76 102 132 166 207 253 299
#     4   9  18  32  49  71 102 138 172 207 249 296
#     4  12  24  38  57  78 103 134 166 205 253 303
#     4  10  19  31  50  76 104 134 169 209 251 298
#     4   9  18  33  52  75 105 138 170 207 252 298
#     4  10  21  36  54  78 105 133 168 208 250 298
#
# _framework density 17.479695
#
# number of rings (size 3 to 8) (size 9 to 14) (size 15 to 20)
#    0.000    2.182    0.000    4.091    0.000    6.182 
#    0.000    1.364    0.000    3.273    0.000    0.000 
#    0.000    0.000    0.000    0.000    0.000    0.000 
#
# Total GULP energy -545758.236368 kJ/mol
# GULP energy per Si atom -12403.596281 kJ/mol
# Density = 1.743991 g / cm^3
# Si number density = 17.479695 Si / 1000 Ang^3
#
#
#
# Elastic Constant Matrix: (Units=GPa)
#
#
# Indices 1 2 3 4 5 6 
#
# 1 125.8246 53.1751 51.8811 0.0000 0.0000 0.0000
# 2 53.1751 87.3688 49.6155 0.0000 0.0000 0.0000
# 3 51.8811 49.6155 90.2143 0.0000 0.0000 0.0000
# 4 0.0000 0.0000 0.0000 31.7342 0.0000 0.0000
# 5 0.0000 0.0000 0.0000 0.0000 33.4825 0.0000
# 6 0.0000 0.0000 0.0000 0.0000 0.0000 35.5636
#
#
#
# Elastic Compliance Matrix: (Units=1/GPa)
#
#
# Indices 1 2 3 4 5 6 
#
# 1 0.011644 -0.004776 -0.004070 0.000000 0.000000 0.000000
# 2 -0.004776 0.018603 -0.007485 0.000000 0.000000 0.000000
# 3 -0.004070 -0.007485 0.017542 0.000000 0.000000 0.000000
# 4 0.000000 0.000000 0.000000 0.031512 0.000000 0.000000
# 5 0.000000 0.000000 0.000000 0.000000 0.029866 0.000000
# 6 0.000000 0.000000 0.000000 0.000000 0.000000 0.028119
#
#
# Mechanical properties :
#
#
# Convention : Reuss Voigt Hill
#
# Bulk Modulus (GPa) = 66.10211 68.08347 67.09279
# Shear Modulus (GPa) = 28.57343 30.07177 29.32260
#
# Velocity S-wave (km/s) = 4.04748 4.15225 4.10020
# Velocity P-wave (km/s) = 7.72926 7.87546 7.80270
#
# Compressibility (1/GPa) = 0.01512811
#
# Stress axis : x y z
#
# Youngs Moduli (GPa) = 85.88181 53.75556 57.00750
#
# Poissons Ratio (x) = 0.25672 0.23201
# Poissons Ratio (y) = 0.41014 0.42668
# Poissons Ratio (z) = 0.34952 0.40234
#
# Static dielectric constant tensor:
#      x y z
#    x 3.984280 0.000000 0.000000 
#    y 0.000000 3.316130 0.000000 
#    z 0.000000 0.000000 3.144740 
# 
# 
# High freq. dielectric constant tensor:
#      x y z
#    x 1.675020 0.000000 0.000000 
#    y 0.000000 1.686220 0.000000 
#    z 0.000000 0.000000 1.663500 
# 
# From -- ./inp_files/57966.got.cif
#   From: 2010.03.12/outbox.cif.g09.slc.cpg/sg65_29_cif.got.tgz:57966.got - 2010.04.10 20:52:16.
