data_PCOD8268281
_publ_section_title
;
Structure prediction by ZEFSAII (Michael W. Deem and Ramdas Pophale) SiO2 
 PCOD8268281
Probable space group: C M M M
;
_chemical_formula_sum "Si O2"
_cell_formula_units_Z 80
_cell_length_a 9.359745
_cell_length_b 19.774408
_cell_length_c 22.081420
_cell_angle_alpha 90.000000
_cell_angle_beta 90.000000
_cell_angle_gamma 90.000000
_cell_volume 4086.904653
_symmetry_space_group_name_H-M "C M M M"
_symmetry_group_IT_number 65
_symmetry_cell_setting 'orthorhombic'
loop_
_space_group_symop_operation_xyz
x,y,z
-x,-y,z
x,-y,-z
-x,y,-z
-x,-y,-z
x,y,-z
-x,y,z
x,-y,z
1/2+x,1/2+y,z
1/2-x,1/2-y,z
1/2+x,1/2-y,-z
1/2-x,1/2+y,-z
1/2-x,1/2-y,-z
1/2+x,1/2+y,-z
1/2-x,1/2+y,z
1/2+x,1/2-y,z
loop_
_atom_site_type_symbol
_atom_site_label
_atom_site_fract_x
_atom_site_fract_y
_atom_site_fract_z
Si Si1 0.161492 0.373648 0.432377
Si Si2 0.170720 0.821777 0.000000
Si Si3 0.842423 0.000000 0.571599
Si Si4 0.836525 0.313889 0.690697
Si Si5 0.163428 0.078622 0.761118
Si Si6 0.831150 0.074772 0.101506
O O1 0.207051 0.348218 0.500000
O O2 0.260888 0.433327 0.407389
O O3 0.174391 0.314372 0.382835
O O4 0.000000 0.401511 0.434717
O O5 0.250000 0.750000 0.000000
O O6 0.223561 0.865418 0.942096
O O7 0.000000 0.809896 0.000000
O O8 0.852256 0.000000 0.500000
O O9 0.000000 0.000000 0.601350
O O10 0.750000 0.250000 0.715899
O O11 0.769451 0.381607 0.717555
O O12 0.000000 0.307895 0.711930
O O13 0.213079 0.092462 0.829987
O O14 0.000000 0.102692 0.751529
O O15 0.177811 0.000000 0.744730
O O16 0.000000 0.069966 0.096356
O O17 0.769681 0.000000 0.083490
#
# Coordination Sequence:
#
# PCOD8268281 Si02
#       6
#    16   8   8  16  16  16
#     4   9  19  36  55  75 103 139 176 218 271 329
#     4  10  19  31  51  81 115 148 182 222 264 314
#     4   9  17  29  49  79 107 131 165 210 259 312
#     4  11  24  39  56  79 108 143 183 225 274 332
#     4   9  19  37  60  84 110 142 181 228 277 325
#     4   8  15  31  56  82 106 139 185 227 264 309
#
# _framework density 19.574715999999999
#
# number of rings (size 3 to 8) (size 9 to 14) (size 15 to 20)
#    0.000    2.700    0.000    2.400    1.400    5.600 
#    0.000    3.000    0.000    2.400    0.000    0.000 
#    0.000    0.000    0.000    0.000    0.000    0.000 
#
# Total GULP energy -495794.390180 kJ/mol
# GULP energy per Si atom -12394.859755 kJ/mol
# Density = 1.953016 g / cm^3
# Si number density = 19.574716 Si / 1000 Ang^3
#
#
#
# Elastic Constant Matrix: (Units=GPa)
#
#
# Indices 1 2 3 4 5 6 
#
# 1 96.0873 51.3075 36.1101 0.0000 0.0000 0.0000
# 2 51.3075 103.0458 50.6376 0.0000 0.0000 0.0000
# 3 36.1101 50.6376 91.0686 0.0000 0.0000 0.0000
# 4 0.0000 0.0000 0.0000 21.1091 0.0000 0.0000
# 5 0.0000 0.0000 0.0000 0.0000 19.3777 0.0000
# 6 0.0000 0.0000 0.0000 0.0000 0.0000 29.6840
#
#
#
# Elastic Compliance Matrix: (Units=1/GPa)
#
#
# Indices 1 2 3 4 5 6 
#
# 1 0.014546 -0.006066 -0.002395 0.000000 0.000000 0.000000
# 2 -0.006066 0.015882 -0.006426 0.000000 0.000000 0.000000
# 3 -0.002395 -0.006426 0.015504 0.000000 0.000000 0.000000
# 4 0.000000 0.000000 0.000000 0.047373 0.000000 0.000000
# 5 0.000000 0.000000 0.000000 0.000000 0.051606 0.000000
# 6 0.000000 0.000000 0.000000 0.000000 0.000000 0.033688
#
#
# Mechanical properties :
#
#
# Convention : Reuss Voigt Hill
#
# Bulk Modulus (GPa) = 61.88695 62.92356 62.40526
# Shear Modulus (GPa) = 23.39086 24.17726 23.78406
#
# Velocity S-wave (km/s) = 3.46056 3.51825 3.48952
# Velocity P-wave (km/s) = 6.90302 6.97992 6.94157
#
# Compressibility (1/GPa) = 0.01615849
#
# Stress axis : x y z
#
# Youngs Moduli (GPa) = 68.74664 62.96256 64.50143
#
# Poissons Ratio (x) = 0.38192 0.15448
# Poissons Ratio (y) = 0.41700 0.41449
# Poissons Ratio (z) = 0.16465 0.40460
#
# Static dielectric constant tensor:
#      x y z
#    x 3.414030 0.000000 0.000000 
#    y 0.000000 3.458280 0.000000 
#    z 0.000000 0.000000 3.768310 
# 
# 
# High freq. dielectric constant tensor:
#      x y z
#    x 1.738190 0.000000 0.000000 
#    y 0.000000 1.751250 0.000000 
#    z 0.000000 0.000000 1.766020 
# 
# From -- ./inp_files/72938.got.cif
#   From: 2010.03.12/outbox.cif.g09.slc.cpg/sg65_37_cif.got.tgz:72938.got - 2010.04.10 20:52:16.
