data_PCOD8268121
_publ_section_title
;
Structure prediction by ZEFSAII (Michael W. Deem and Ramdas Pophale) SiO2 
 PCOD8268121
Probable space group: C M M M
;
_chemical_formula_sum "Si O2"
_cell_formula_units_Z 88
_cell_length_a 18.836033
_cell_length_b 8.865387
_cell_length_c 27.958940
_cell_angle_alpha 90.000000
_cell_angle_beta 90.000000
_cell_angle_gamma 90.000000
_cell_volume 4668.827662
_symmetry_space_group_name_H-M "C M M M"
_symmetry_group_IT_number 65
_symmetry_cell_setting 'orthorhombic'
loop_
_space_group_symop_operation_xyz
x,y,z
-x,-y,z
x,-y,-z
-x,y,-z
-x,-y,-z
x,y,-z
-x,y,z
x,-y,z
1/2+x,1/2+y,z
1/2-x,1/2-y,z
1/2+x,1/2-y,-z
1/2-x,1/2+y,-z
1/2-x,1/2-y,-z
1/2+x,1/2+y,-z
1/2-x,1/2+y,z
1/2+x,1/2-y,z
loop_
_atom_site_type_symbol
_atom_site_label
_atom_site_fract_x
_atom_site_fract_y
_atom_site_fract_z
Si Si1 0.327348 0.178407 0.145284
Si Si2 0.323068 0.676217 0.312142
Si Si3 0.323485 0.322680 0.577723
Si Si4 0.826796 0.176617 0.948156
Si Si5 0.081512 0.323526 0.763830
Si Si6 0.416543 0.174411 0.500000
O O1 0.250000 0.250000 0.152881
O O2 0.365294 0.242809 0.096791
O O3 0.376572 0.228388 0.189065
O O4 0.320216 0.000000 0.141319
O O5 0.315244 0.500000 0.304204
O O6 0.250000 0.750000 0.293885
O O7 0.337909 0.717963 0.367137
O O8 0.388929 0.737315 0.282136
O O9 0.319433 0.500000 0.568812
O O10 0.250000 0.250000 0.560090
O O11 0.387182 0.253006 0.547539
O O12 0.750000 0.250000 0.951002
O O13 0.819595 0.000000 0.937447
O O14 0.865196 0.203167 0.000000
O O15 0.090711 0.500000 0.754634
O O16 0.000000 0.277716 0.770770
O O17 0.500000 0.197508 0.500000
O O18 0.394675 0.000000 0.500000
#
# Coordination Sequence:
#
# PCOD8268121 Si02
#       6
#    16  16  16  16  16   8
#     4  10  19  31  50  74 100 132 170 211 256 308
#     4  10  21  37  59  85 109 138 177 219 265 316
#     4  10  21  38  60  84 111 142 178 221 266 314
#     4   9  16  26  43  69  99 128 161 205 256 306
#     4  10  22  38  54  75 106 142 177 217 265 314
#     4  11  24  39  56  81 113 149 186 221 262 313
#
# _framework density 18.848413000000001
#
# number of rings (size 3 to 8) (size 9 to 14) (size 15 to 20)
#    0.000    2.091    0.000    4.364    0.000    8.000 
#    0.000    3.636    0.000    0.545    0.000    3.818 
#    0.000    0.000    0.000    0.000    0.000    0.000 
#
# Total GULP energy -545567.284239 kJ/mol
# GULP energy per Si atom -12399.256460 kJ/mol
# Density = 1.880551 g / cm^3
# Si number density = 18.848413 Si / 1000 Ang^3
#
#
#
# Elastic Constant Matrix: (Units=GPa)
#
#
# Indices 1 2 3 4 5 6 
#
# 1 92.6239 46.2406 66.6172 0.0000 0.0000 0.0000
# 2 46.2406 95.1205 59.2882 0.0000 0.0000 0.0000
# 3 66.6172 59.2882 135.4345 0.0000 0.0000 0.0000
# 4 0.0000 0.0000 0.0000 33.7525 0.0000 0.0000
# 5 0.0000 0.0000 0.0000 0.0000 9.1131 0.0000
# 6 0.0000 0.0000 0.0000 0.0000 0.0000 26.3837
#
#
#
# Elastic Compliance Matrix: (Units=1/GPa)
#
#
# Indices 1 2 3 4 5 6 
#
# 1 0.017973 -0.004438 -0.006898 0.000000 0.000000 0.000000
# 2 -0.004438 0.015554 -0.004626 0.000000 0.000000 0.000000
# 3 -0.006898 -0.004626 0.012802 0.000000 0.000000 0.000000
# 4 0.000000 0.000000 0.000000 0.029627 0.000000 0.000000
# 5 0.000000 0.000000 0.000000 0.000000 0.109732 0.000000
# 6 0.000000 0.000000 0.000000 0.000000 0.000000 0.037902
#
#
# Mechanical properties :
#
#
# Convention : Reuss Voigt Hill
#
# Bulk Modulus (GPa) = 69.41986 74.16343 71.79164
# Shear Modulus (GPa) = 19.20753 23.91873 21.56313
#
# Velocity S-wave (km/s) = 3.19572 3.56617 3.38602
# Velocity P-wave (km/s) = 7.10827 7.50930 7.31153
#
# Compressibility (1/GPa) = 0.01440510
#
# Stress axis : x y z
#
# Youngs Moduli (GPa) = 55.63959 64.29369 78.11536
#
# Poissons Ratio (x) = 0.28532 0.53882
# Poissons Ratio (y) = 0.24691 0.36136
# Poissons Ratio (z) = 0.38379 0.29742
#
# Static dielectric constant tensor:
#      x y z
#    x 3.173250 0.000000 0.000000 
#    y 0.000000 3.557980 0.000000 
#    z 0.000000 0.000000 3.996560 
# 
# 
# High freq. dielectric constant tensor:
#      x y z
#    x 1.697000 0.000000 0.000000 
#    y 0.000000 1.745610 0.000000 
#    z 0.000000 0.000000 1.754510 
# 
# From -- ./inp_files/77974.got.cif
#   From: 2010.03.12/outbox.cif.g09.slc.cpg/sg65_39_cif.got.tgz:77974.got - 2010.04.10 20:52:16.
