data_PCOD8268261
_publ_section_title
;
Structure prediction by ZEFSAII (Michael W. Deem and Ramdas Pophale) SiO2 
 PCOD8268261
Probable space group: C M M M
;
_chemical_formula_sum "Si O2"
_cell_formula_units_Z 88
_cell_length_a 8.957705
_cell_length_b 17.921153
_cell_length_c 28.764768
_cell_angle_alpha 90.000000
_cell_angle_beta 90.000000
_cell_angle_gamma 90.000000
_cell_volume 4617.677295
_symmetry_space_group_name_H-M "C M M M"
_symmetry_group_IT_number 65
_symmetry_cell_setting 'orthorhombic'
loop_
_space_group_symop_operation_xyz
x,y,z
-x,-y,z
x,-y,-z
-x,y,-z
-x,-y,-z
x,y,-z
-x,y,z
x,-y,z
1/2+x,1/2+y,z
1/2-x,1/2-y,z
1/2+x,1/2-y,-z
1/2-x,1/2+y,-z
1/2-x,1/2-y,-z
1/2+x,1/2+y,-z
1/2-x,1/2+y,z
1/2+x,1/2-y,z
loop_
_atom_site_type_symbol
_atom_site_label
_atom_site_fract_x
_atom_site_fract_y
_atom_site_fract_z
Si Si1 0.173003 0.585855 0.268688
Si Si2 0.826014 0.828933 0.549021
Si Si3 0.824200 0.169466 0.649913
Si Si4 0.831031 0.411124 0.000000
Si Si5 0.676583 0.169992 0.175741
Si Si6 0.169566 0.911400 0.907625
O O1 0.207859 0.500000 0.257493
O O2 0.266894 0.610228 0.313152
O O3 0.224187 0.634318 0.224703
O O4 0.000000 0.598630 0.279869
O O5 0.784370 0.872660 0.500000
O O6 0.750000 0.750000 0.547176
O O7 0.782534 0.865948 0.598669
O O8 0.000000 0.813609 0.549836
O O9 0.750000 0.250000 0.657723
O O10 0.000000 0.180033 0.656197
O O11 0.744849 0.380676 0.045246
O O12 0.831685 0.500000 0.000000
O O13 0.000000 0.380125 0.000000
O O14 0.500000 0.176941 0.171169
O O15 0.750000 0.250000 0.171149
O O16 0.735762 0.116949 0.135527
O O17 0.000000 0.881524 0.905108
O O18 0.172941 0.000000 0.906809
#
# Coordination Sequence:
#
# PCOD8268261 Si02
#       6
#    16  16  16   8  16  16
#     4  10  22  39  57  77 103 136 174 218 266 316
#     4   8  14  25  42  67  99 132 167 208 253 302
#     4  10  19  31  51  78 106 137 173 214 261 312
#     4   9  17  31  54  83 114 149 186 221 259 307
#     4  11  23  39  58  80 107 139 176 217 266 320
#     4  10  20  35  57  85 115 146 182 223 264 307
#
# _framework density 19.057200999999999
#
# number of rings (size 3 to 8) (size 9 to 14) (size 15 to 20)
#    0.000    2.273    0.000    3.000    0.000    6.909 
#    0.000    0.455    0.000    0.545    0.000    3.818 
#    0.000    0.000    0.000    0.000    0.000    0.000 
#
# Total GULP energy -545280.733668 kJ/mol
# GULP energy per Si atom -12392.743947 kJ/mol
# Density = 1.901383 g / cm^3
# Si number density = 19.057201 Si / 1000 Ang^3
#
#
#
# Elastic Constant Matrix: (Units=GPa)
#
#
# Indices 1 2 3 4 5 6 
#
# 1 80.4821 19.5174 58.4964 0.0000 0.0000 0.0000
# 2 19.5174 25.6855 15.0262 0.0000 0.0000 0.0000
# 3 58.4964 15.0262 160.6014 0.0000 0.0000 0.0000
# 4 0.0000 0.0000 0.0000 3.4276 0.0000 0.0000
# 5 0.0000 0.0000 0.0000 0.0000 31.4528 0.0000
# 6 0.0000 0.0000 0.0000 0.0000 0.0000 25.7821
#
#
#
# Elastic Compliance Matrix: (Units=1/GPa)
#
#
# Indices 1 2 3 4 5 6 
#
# 1 0.019588 -0.011330 -0.006074 0.000000 0.000000 0.000000
# 2 -0.011330 0.047741 -0.000340 0.000000 0.000000 0.000000
# 3 -0.006074 -0.000340 0.008471 0.000000 0.000000 0.000000
# 4 0.000000 0.000000 0.000000 0.291751 0.000000 0.000000
# 5 0.000000 0.000000 0.000000 0.000000 0.031794 0.000000
# 6 0.000000 0.000000 0.000000 0.000000 0.000000 0.038787
#
#
# Mechanical properties :
#
#
# Convention : Reuss Voigt Hill
#
# Bulk Modulus (GPa) = 24.80763 50.31656 37.56209
# Shear Modulus (GPa) = 10.26573 23.71442 16.99008
#
# Velocity S-wave (km/s) = 2.32347 3.53141 2.98909
# Velocity P-wave (km/s) = 4.49930 6.56414 5.62724
#
# Compressibility (1/GPa) = 0.04031018
#
# Stress axis : x y z
#
# Youngs Moduli (GPa) = 51.05190 20.94641 118.05107
#
# Poissons Ratio (x) = 0.23733 0.71710
# Poissons Ratio (y) = 0.57844 0.04011
# Poissons Ratio (z) = 0.31011 0.00712
#
# Static dielectric constant tensor:
#      x y z
#    x 3.585010 0.000000 0.000000 
#    y 0.000000 3.070300 0.000000 
#    z 0.000000 0.000000 4.116290 
# 
# 
# High freq. dielectric constant tensor:
#      x y z
#    x 1.750780 0.000000 0.000000 
#    y 0.000000 1.697360 0.000000 
#    z 0.000000 0.000000 1.770950 
# 
# From -- ./inp_files/76450.got.cif
#   From: 2010.03.12/outbox.cif.g09.slc.cpg/sg65_39_cif.got.tgz:76450.got - 2010.04.10 20:52:16.
