data_PCOD8268413
_publ_section_title
;
Structure prediction by ZEFSAII (Michael W. Deem and Ramdas Pophale) SiO2 
 PCOD8268413
Probable space group: C M M M
;
_chemical_formula_sum "Si O2"
_cell_formula_units_Z 104
_cell_length_a 32.833168
_cell_length_b 8.675006
_cell_length_c 21.008492
_cell_angle_alpha 90.000000
_cell_angle_beta 90.000000
_cell_angle_gamma 90.000000
_cell_volume 5983.805276
_symmetry_space_group_name_H-M "C M M M"
_symmetry_group_IT_number 65
_symmetry_cell_setting 'orthorhombic'
loop_
_space_group_symop_operation_xyz
x,y,z
-x,-y,z
x,-y,-z
-x,y,-z
-x,-y,-z
x,y,-z
-x,y,z
x,-y,z
1/2+x,1/2+y,z
1/2-x,1/2-y,z
1/2+x,1/2-y,-z
1/2-x,1/2+y,-z
1/2-x,1/2-y,-z
1/2+x,1/2+y,-z
1/2-x,1/2+y,z
1/2+x,1/2-y,z
loop_
_atom_site_type_symbol
_atom_site_label
_atom_site_fract_x
_atom_site_fract_y
_atom_site_fract_z
Si Si1 0.370512 0.680725 0.185544
Si Si2 0.339746 0.182398 0.372351
Si Si3 0.584296 0.683363 0.690370
Si Si4 0.578330 0.317068 0.928542
Si Si5 0.000000 0.317885 0.862502
Si Si6 0.292766 0.681839 0.744270
Si Si7 0.795043 0.681445 0.500000
Si Si8 0.000000 0.682693 0.283218
O O1 0.376467 0.500000 0.188759
O O2 0.399131 0.747787 0.241716
O O3 0.384274 0.740410 0.116099
O O4 0.323660 0.724714 0.198350
O O5 0.384302 0.258817 0.363747
O O6 0.307753 0.239726 0.320086
O O7 0.320983 0.236475 0.439235
O O8 0.344603 0.000000 0.367860
O O9 0.582043 0.500000 0.687490
O O10 0.539529 0.753319 0.679818
O O11 0.573282 0.500000 0.927664
O O12 0.538183 0.243300 0.900733
O O13 0.586573 0.257290 0.000000
O O14 0.000000 0.256389 0.789842
O O15 0.000000 0.500000 0.862923
O O16 0.290134 0.500000 0.732707
O O17 0.250000 0.750000 0.765764
O O18 0.789474 0.500000 0.500000
O O19 0.750000 0.750000 0.500000
O O20 0.000000 0.500000 0.286481
#
# Coordination Sequence:
#
# PCOD8268413 Si02
#       8
#    16  16  16  16   8  16   8   8
#     4   8  16  30  47  68  94 123 161 207 252 299
#     4  10  20  35  53  77 108 138 170 205 247 301
#     4  10  19  33  53  75 101 135 171 213 258 297
#     4  10  19  32  50  69  92 130 173 208 248 303
#     4  11  22  32  45  70 103 133 163 204 255 300
#     4  10  19  32  50  74 100 129 165 208 258 302
#     4  10  22  36  54  79 110 145 172 204 247 294
#     4  11  21  32  50  76 103 136 173 212 256 305
#
# _framework density 17.380244000000001
#
# number of rings (size 3 to 8) (size 9 to 14) (size 15 to 20)
#    0.000    2.154    1.538    3.462    0.000    4.308 
#    0.000    0.769    0.000    0.923    0.000    3.231 
#    0.000    0.000    0.000    0.000    0.000    0.615 
#
# Total GULP energy -644678.106802 kJ/mol
# GULP energy per Si atom -12397.655900 kJ/mol
# Density = 1.734069 g / cm^3
# Si number density = 17.380244 Si / 1000 Ang^3
#
#
#
# Elastic Constant Matrix: (Units=GPa)
#
#
# Indices 1 2 3 4 5 6 
#
# 1 164.6740 38.1250 76.2737 0.0000 0.0000 0.0000
# 2 38.1250 54.7905 30.4900 0.0000 0.0000 0.0000
# 3 76.2737 30.4900 119.4448 0.0000 0.0000 0.0000
# 4 0.0000 0.0000 0.0000 19.5435 0.0000 0.0000
# 5 0.0000 0.0000 0.0000 0.0000 28.1351 0.0000
# 6 0.0000 0.0000 0.0000 0.0000 0.0000 29.7441
#
#
#
# Elastic Compliance Matrix: (Units=1/GPa)
#
#
# Indices 1 2 3 4 5 6 
#
# 1 0.009211 -0.003655 -0.004949 0.000000 0.000000 0.000000
# 2 -0.003655 0.022724 -0.003466 0.000000 0.000000 0.000000
# 3 -0.004949 -0.003466 0.012417 0.000000 0.000000 0.000000
# 4 0.000000 0.000000 0.000000 0.051168 0.000000 0.000000
# 5 0.000000 0.000000 0.000000 0.000000 0.035543 0.000000
# 6 0.000000 0.000000 0.000000 0.000000 0.000000 0.033620
#
#
# Mechanical properties :
#
#
# Convention : Reuss Voigt Hill
#
# Bulk Modulus (GPa) = 49.47844 69.85407 59.66625
# Shear Modulus (GPa) = 25.56748 28.41925 26.99336
#
# Velocity S-wave (km/s) = 3.83961 4.04808 3.94522
# Velocity P-wave (km/s) = 6.94167 7.88214 7.42681
#
# Compressibility (1/GPa) = 0.02021082
#
# Stress axis : x y z
#
# Youngs Moduli (GPa) = 108.56475 44.00659 80.53433
#
# Poissons Ratio (x) = 0.16086 0.39855
# Poissons Ratio (y) = 0.39685 0.27916
# Poissons Ratio (z) = 0.53727 0.15254
#
# Static dielectric constant tensor:
#      x y z
#    x 3.315720 0.000000 0.000000 
#    y 0.000000 3.160780 0.000000 
#    z 0.000000 0.000000 3.452500 
# 
# 
# High freq. dielectric constant tensor:
#      x y z
#    x 1.676280 0.000000 0.000000 
#    y 0.000000 1.668400 0.000000 
#    z 0.000000 0.000000 1.651950 
# 
# From -- ./inp_files/66450.got.cif
#   From: 2010.03.12/outbox.cif.g09.slc.cpg/sg65_34_cif.got.tgz:66450.got - 2010.04.10 20:52:16.
