data_PCOD8268160
_publ_section_title
;
Structure prediction by ZEFSAII (Michael W. Deem and Ramdas Pophale) SiO2 
 PCOD8268160
Probable space group: C M M M
;
_chemical_formula_sum "Si O2"
_cell_formula_units_Z 72
_cell_length_a 27.344192
_cell_length_b 7.765862
_cell_length_c 17.606024
_cell_angle_alpha 90.000000
_cell_angle_beta 90.000000
_cell_angle_gamma 90.000000
_cell_volume 3738.660703
_symmetry_space_group_name_H-M "C M M M"
_symmetry_group_IT_number 65
_symmetry_cell_setting 'orthorhombic'
loop_
_space_group_symop_operation_xyz
x,y,z
-x,-y,z
x,-y,-z
-x,y,-z
-x,-y,-z
x,y,-z
-x,y,z
x,-y,z
1/2+x,1/2+y,z
1/2-x,1/2-y,z
1/2+x,1/2-y,-z
1/2-x,1/2+y,-z
1/2-x,1/2-y,-z
1/2+x,1/2+y,-z
1/2-x,1/2+y,z
1/2+x,1/2-y,z
loop_
_atom_site_type_symbol
_atom_site_label
_atom_site_fract_x
_atom_site_fract_y
_atom_site_fract_z
Si Si1 0.145152 0.703850 0.083301
Si Si2 0.695651 0.798780 0.231285
Si Si3 0.945144 0.198464 0.828198
Si Si4 0.556121 0.500000 0.589753
Si Si5 0.396791 0.804645 0.679778
O O1 0.148237 0.500000 0.081934
O O2 0.181198 0.781408 0.148625
O O3 0.089679 0.760221 0.100870
O O4 0.159771 0.777666 0.000000
O O5 0.750000 0.750000 0.256168
O O6 0.657658 0.738296 0.296230
O O7 0.690048 0.000000 0.223147
O O8 0.929934 0.309552 0.755135
O O9 0.000000 0.247387 0.852889
O O10 0.940995 0.000000 0.803866
O O11 0.500000 0.500000 0.618310
O O12 0.559177 0.500000 0.500000
O O13 0.582378 0.326414 0.617879
O O14 0.395825 0.000000 0.646366
#
# Coordination Sequence:
#
# PCOD8268160 Si02
#       5
#    16  16  16   8  16
#     4   9  19  34  47  67 106 147 188 239 292 346
#     4   9  19  33  55  84 106 143 197 241 291 342
#     4  10  19  31  50  75 103 140 192 241 282 336
#     4  11  24  40  62  94 125 155 189 223 277 346
#     4  10  21  38  59  86 119 153 189 238 283 332
#
# _framework density 19.258234000000002
#
# number of rings (size 3 to 8) (size 9 to 14) (size 15 to 20)
#    0.000    2.333    1.111    2.667    1.556    5.778 
#    0.000    3.333    0.000    0.667    0.000    0.000 
#    0.000    0.000    0.000    0.000    0.000    0.000 
#
# Total GULP energy -446253.990818 kJ/mol
# GULP energy per Si atom -12395.944189 kJ/mol
# Density = 1.921440 g / cm^3
# Si number density = 19.258234 Si / 1000 Ang^3
#
#
#
# Elastic Constant Matrix: (Units=GPa)
#
#
# Indices 1 2 3 4 5 6 
#
# 1 137.2882 28.4991 48.0826 0.0000 0.0000 0.0000
# 2 28.4991 62.8272 36.6325 0.0000 0.0000 0.0000
# 3 48.0826 36.6325 78.1040 0.0000 0.0000 0.0000
# 4 0.0000 0.0000 0.0000 22.4759 0.0000 0.0000
# 5 0.0000 0.0000 0.0000 0.0000 20.7178 0.0000
# 6 0.0000 0.0000 0.0000 0.0000 0.0000 27.7468
#
#
#
# Elastic Compliance Matrix: (Units=1/GPa)
#
#
# Indices 1 2 3 4 5 6 
#
# 1 0.009353 -0.001219 -0.005187 0.000000 0.000000 0.000000
# 2 -0.001219 0.022067 -0.009599 0.000000 0.000000 0.000000
# 3 -0.005187 -0.009599 0.020499 0.000000 0.000000 0.000000
# 4 0.000000 0.000000 0.000000 0.044492 0.000000 0.000000
# 5 0.000000 0.000000 0.000000 0.000000 0.048268 0.000000
# 6 0.000000 0.000000 0.000000 0.000000 0.000000 0.036040
#
#
# Mechanical properties :
#
#
# Convention : Reuss Voigt Hill
#
# Bulk Modulus (GPa) = 50.22771 56.07197 53.14984
# Shear Modulus (GPa) = 22.79307 25.18844 23.99076
#
# Velocity S-wave (km/s) = 3.44401 3.62046 3.53333
# Velocity P-wave (km/s) = 6.47709 6.83052 6.65615
#
# Compressibility (1/GPa) = 0.01990933
#
# Stress axis : x y z
#
# Youngs Moduli (GPa) = 106.91257 45.31725 48.78335
#
# Poissons Ratio (x) = 0.05523 0.25302
# Poissons Ratio (y) = 0.13029 0.46830
# Poissons Ratio (z) = 0.55451 0.43502
#
# Static dielectric constant tensor:
#      x y z
#    x 2.903420 0.000000 0.000000 
#    y 0.000000 3.504870 0.000000 
#    z 0.000000 0.000000 3.345360 
# 
# 
# High freq. dielectric constant tensor:
#      x y z
#    x 1.749820 0.000000 0.000000 
#    y 0.000000 1.750310 0.000000 
#    z 0.000000 0.000000 1.716590 
# 
# From -- ./inp_files/57146.got.cif
#   From: 2010.03.12/outbox.cif.g09.slc.cpg/sg65_29_cif.got.tgz:57146.got - 2010.04.10 20:52:16.
