data_PCOD8268279
_publ_section_title
;
Structure prediction by ZEFSAII (Michael W. Deem and Ramdas Pophale) SiO2 
 PCOD8268279
Probable space group: C M M M
;
_chemical_formula_sum "Si O2"
_cell_formula_units_Z 80
_cell_length_a 17.810908
_cell_length_b 10.275337
_cell_length_c 23.079966
_cell_angle_alpha 90.000000
_cell_angle_beta 90.000000
_cell_angle_gamma 90.000000
_cell_volume 4223.935710
_symmetry_space_group_name_H-M "C M M M"
_symmetry_group_IT_number 65
_symmetry_cell_setting 'orthorhombic'
loop_
_space_group_symop_operation_xyz
x,y,z
-x,-y,z
x,-y,-z
-x,y,-z
-x,-y,-z
x,y,-z
-x,y,z
x,-y,z
1/2+x,1/2+y,z
1/2-x,1/2-y,z
1/2+x,1/2-y,-z
1/2-x,1/2+y,-z
1/2-x,1/2-y,-z
1/2+x,1/2+y,-z
1/2-x,1/2+y,z
1/2+x,1/2-y,z
loop_
_atom_site_type_symbol
_atom_site_label
_atom_site_fract_x
_atom_site_fract_y
_atom_site_fract_z
Si Si1 0.417029 0.500000 0.931424
Si Si2 0.416822 0.152309 0.610539
Si Si3 0.679315 0.844355 0.722419
Si Si4 0.582517 0.145709 0.171476
Si Si5 0.178792 0.656011 0.500000
Si Si6 0.661642 0.758913 0.933664
O O1 0.500000 0.500000 0.904041
O O2 0.371488 0.376055 0.910168
O O3 0.421542 0.500000 0.000000
O O4 0.500000 0.217454 0.610165
O O5 0.374503 0.189574 0.669187
O O6 0.368923 0.198875 0.555760
O O7 0.427422 0.000000 0.606145
O O8 0.750000 0.750000 0.715904
O O9 0.636532 0.792827 0.780059
O O10 0.700504 0.000000 0.724421
O O11 0.500000 0.214817 0.167317
O O12 0.624191 0.137626 0.109030
O O13 0.568235 0.000000 0.192114
O O14 0.199045 0.500000 0.500000
O O15 0.250000 0.750000 0.500000
O O16 0.750000 0.750000 0.926980
O O17 0.639244 0.791861 0.000000
#
# Coordination Sequence:
#
# PCOD8268279 Si02
#       6
#     8  16  16  16   8  16
#     4   9  18  34  54  74 101 137 171 204 255 325
#     4   9  17  31  54  81 108 142 184 226 266 312
#     4  10  20  36  57  79 106 140 177 219 268 320
#     4  10  21  36  54  76 102 133 172 215 261 316
#     4  10  19  31  51  81 113 144 184 228 268 314
#     4  10  21  35  54  78 105 134 170 215 264 318
#
# _framework density 18.939682999999999
#
# number of rings (size 3 to 8) (size 9 to 14) (size 15 to 20)
#    0.000    2.300    0.000    2.700    1.400    5.200 
#    1.800    1.000    0.000    4.200    0.000    0.000 
#    0.000    0.000    0.000    0.000    0.000    0.000 
#
# Total GULP energy -495694.188181 kJ/mol
# GULP energy per Si atom -12392.354705 kJ/mol
# Density = 1.889658 g / cm^3
# Si number density = 18.939683 Si / 1000 Ang^3
#
#
#
# Elastic Constant Matrix: (Units=GPa)
#
#
# Indices 1 2 3 4 5 6 
#
# 1 167.7996 45.3403 74.7960 0.0000 0.0000 0.0000
# 2 45.3403 51.2841 22.0042 0.0000 0.0000 0.0000
# 3 74.7960 22.0042 139.9089 0.0000 0.0000 0.0000
# 4 0.0000 0.0000 0.0000 16.3058 0.0000 0.0000
# 5 0.0000 0.0000 0.0000 0.0000 -191.5776 0.0000
# 6 0.0000 0.0000 0.0000 0.0000 0.0000 30.7954
#
#
#
# Elastic Compliance Matrix: (Units=1/GPa)
#
#
# Indices 1 2 3 4 5 6 
#
# 1 0.009593 -0.006735 -0.004069 0.000000 0.000000 0.000000
# 2 -0.006735 0.025639 -0.000432 0.000000 0.000000 0.000000
# 3 -0.004069 -0.000432 0.009391 0.000000 0.000000 0.000000
# 4 0.000000 0.000000 0.000000 0.061328 0.000000 0.000000
# 5 0.000000 0.000000 0.000000 0.000000 -0.005220 0.000000
# 6 0.000000 0.000000 0.000000 0.000000 0.000000 0.032472
#
#
# Mechanical properties :
#
#
# Convention : Reuss Voigt Hill
#
# Bulk Modulus (GPa) = 45.14542 71.47485 58.31013
# Shear Modulus (GPa) = 30.66351 -14.43848 8.11251
#
# Velocity S-wave (km/s) = 4.02806 -2.76405 2.07187
# Velocity P-wave (km/s) = 6.74699 5.25675 6.04794
#
# Compressibility (1/GPa) = 0.02215064
#
# Stress axis : x y z
#
# Youngs Moduli (GPa) = 104.23906 39.00276 106.48644
#
# Poissons Ratio (x) = 0.26270 0.43333
# Poissons Ratio (y) = 0.70210 0.04596
# Poissons Ratio (z) = 0.42418 0.01683
#
# Static dielectric constant tensor:
#      x y z
#    x 3.657020 0.000000 0.000000 
#    y 0.000000 3.187680 0.000000 
#    z 0.000000 0.000000 3.607560 
# 
# 
# High freq. dielectric constant tensor:
#      x y z
#    x 1.753820 0.000000 0.000000 
#    y 0.000000 1.696330 0.000000 
#    z 0.000000 0.000000 1.742970 
# 
# From -- ./inp_files/63542.got.cif
#   From: 2010.03.12/outbox.cif.g09.slc.cpg/sg65_32_cif.got.tgz:63542.got - 2010.04.10 20:52:16.
