data_PCOD8268695
_publ_section_title
;
Structure prediction by ZEFSAII (Michael W. Deem and Ramdas Pophale) SiO2 
 PCOD8268695
Probable space group: C M M M
;
_chemical_formula_sum "Si O2"
_cell_formula_units_Z 88
_cell_length_a 14.012107
_cell_length_b 28.605816
_cell_length_c 12.061013
_cell_angle_alpha 90.000000
_cell_angle_beta 90.000000
_cell_angle_gamma 90.000000
_cell_volume 4834.388759
_symmetry_space_group_name_H-M "C M M M"
_symmetry_group_IT_number 65
_symmetry_cell_setting 'orthorhombic'
loop_
_space_group_symop_operation_xyz
x,y,z
-x,-y,z
x,-y,-z
-x,y,-z
-x,-y,-z
x,y,-z
-x,y,z
x,-y,z
1/2+x,1/2+y,z
1/2-x,1/2-y,z
1/2+x,1/2-y,-z
1/2-x,1/2+y,-z
1/2-x,1/2-y,-z
1/2+x,1/2+y,-z
1/2-x,1/2+y,z
1/2+x,1/2-y,z
loop_
_atom_site_type_symbol
_atom_site_label
_atom_site_fract_x
_atom_site_fract_y
_atom_site_fract_z
Si Si1 0.607419 0.317570 0.224957
Si Si2 0.112992 0.599498 0.203740
Si Si3 0.386693 0.000000 0.878056
Si Si4 0.113512 0.334513 0.000000
Si Si5 0.386055 0.272999 0.000000
Si Si6 0.603593 0.769598 0.378936
Si Si7 0.237578 0.354924 0.627278
O O1 0.500000 0.337831 0.216706
O O2 0.609165 0.268830 0.286933
O O3 0.669342 0.355352 0.293312
O O4 0.649088 0.304108 0.104213
O O5 0.149745 0.547249 0.179115
O O6 0.160478 0.609795 0.322275
O O7 0.000000 0.601175 0.215918
O O8 0.146929 0.636777 0.109598
O O9 0.500000 0.000000 0.883716
O O10 0.342598 0.000000 0.000000
O O11 0.155372 0.280851 0.000000
O O12 0.000000 0.332209 0.000000
O O13 0.500000 0.268458 0.000000
O O14 0.609898 0.745390 0.500000
O O15 0.500000 0.795705 0.367186
O O16 0.691871 0.803819 0.365621
O O17 0.261882 0.368816 0.500000
#
# Coordination Sequence:
#
# PCOD8268695 Si02
#       7
#    16  16   8   8   8  16  16
#     4  10  20  34  49  66  94 132 174 217 257 296
#     4  10  19  32  52  77 105 133 163 200 246 303
#     4   9  16  32  55  79 106 135 161 192 242 306
#     4   9  16  28  49  75 102 133 167 205 247 291
#     4   9  18  31  46  66  95 130 168 212 259 295
#     4   9  17  30  47  65  91 132 176 213 247 285
#     4  11  22  33  47  70  99 133 175 216 251 293
#
# _framework density 18.202922999999998
#
# number of rings (size 3 to 8) (size 9 to 14) (size 15 to 20)
#    0.000    2.273    0.909    2.727    0.000    7.273 
#    0.000    3.182    0.000    1.636    0.000    0.636 
#    0.000    2.182    0.000    0.000    0.000    0.000 
#
# Total GULP energy -545282.827093 kJ/mol
# GULP energy per Si atom -12392.791525 kJ/mol
# Density = 1.816149 g / cm^3
# Si number density = 18.202923 Si / 1000 Ang^3
#
#
#
# Elastic Constant Matrix: (Units=GPa)
#
#
# Indices 1 2 3 4 5 6 
#
# 1 46.7918 12.3604 36.1791 0.0000 0.0000 0.0000
# 2 12.3604 63.9526 46.3848 0.0000 0.0000 0.0000
# 3 36.1791 46.3848 145.9314 0.0000 0.0000 0.0000
# 4 0.0000 0.0000 0.0000 10.8993 0.0000 0.0000
# 5 0.0000 0.0000 0.0000 0.0000 24.0855 0.0000
# 6 0.0000 0.0000 0.0000 0.0000 0.0000 11.2877
#
#
#
# Elastic Compliance Matrix: (Units=1/GPa)
#
#
# Indices 1 2 3 4 5 6 
#
# 1 0.026450 -0.000463 -0.006410 0.000000 0.000000 0.000000
# 2 -0.000463 0.020330 -0.006347 0.000000 0.000000 0.000000
# 3 -0.006410 -0.006347 0.010459 0.000000 0.000000 0.000000
# 4 0.000000 0.000000 0.000000 0.091749 0.000000 0.000000
# 5 0.000000 0.000000 0.000000 0.000000 0.041519 0.000000
# 6 0.000000 0.000000 0.000000 0.000000 0.000000 0.088592
#
#
# Mechanical properties :
#
#
# Convention : Reuss Voigt Hill
#
# Bulk Modulus (GPa) = 32.46915 49.61382 41.04148
# Shear Modulus (GPa) = 15.83254 20.03793 17.93523
#
# Velocity S-wave (km/s) = 2.95240 3.32144 3.14234
# Velocity P-wave (km/s) = 5.43123 6.48263 5.98008
#
# Compressibility (1/GPa) = 0.03079847
#
# Stress axis : x y z
#
# Youngs Moduli (GPa) = 37.80724 49.18950 95.60918
#
# Poissons Ratio (x) = 0.02276 0.61289
# Poissons Ratio (y) = 0.01749 0.60684
# Poissons Ratio (z) = 0.24236 0.31221
#
# Static dielectric constant tensor:
#      x y z
#    x 3.464180 0.000000 0.000000 
#    y 0.000000 3.054080 0.000000 
#    z 0.000000 0.000000 3.660030 
# 
# 
# High freq. dielectric constant tensor:
#      x y z
#    x 1.691440 0.000000 0.000000 
#    y 0.000000 1.650100 0.000000 
#    z 0.000000 0.000000 1.722460 
# 
# From -- ./inp_files/25411.got.cif
#   From: 2010.03.12/outbox.cif.g09.slc.cpg/sg65_13_cif.got.tgz:25411.got - 2010.04.10 20:52:16.
