data_PCOD8268528
_publ_section_title
;
Structure prediction by ZEFSAII (Michael W. Deem and Ramdas Pophale) SiO2 
 PCOD8268528
Probable space group: C M M M
;
_chemical_formula_sum "Si O2"
_cell_formula_units_Z 104
_cell_length_a 18.640202
_cell_length_b 9.116657
_cell_length_c 33.331751
_cell_angle_alpha 90.000000
_cell_angle_beta 90.000000
_cell_angle_gamma 90.000000
_cell_volume 5664.275372
_symmetry_space_group_name_H-M "C M M M"
_symmetry_group_IT_number 65
_symmetry_cell_setting 'orthorhombic'
loop_
_space_group_symop_operation_xyz
x,y,z
-x,-y,z
x,-y,-z
-x,y,-z
-x,-y,-z
x,y,-z
-x,y,z
x,-y,z
1/2+x,1/2+y,z
1/2-x,1/2-y,z
1/2+x,1/2-y,-z
1/2-x,1/2+y,-z
1/2-x,1/2-y,-z
1/2+x,1/2+y,-z
1/2-x,1/2+y,z
1/2+x,1/2-y,z
loop_
_atom_site_type_symbol
_atom_site_label
_atom_site_fract_x
_atom_site_fract_y
_atom_site_fract_z
Si Si1 0.826131 0.828335 0.913241
Si Si2 0.920488 0.326103 0.759081
Si Si3 0.084621 0.334458 0.151717
Si Si4 0.321058 0.670084 0.544969
Si Si5 0.583384 0.330076 0.618504
Si Si6 0.176624 0.831885 0.000000
Si Si7 0.826459 0.325419 0.314670
O O1 0.750000 0.750000 0.908462
O O2 0.880594 0.773275 0.880051
O O3 0.862318 0.794815 0.957503
O O4 0.813734 0.000000 0.906891
O O5 0.926279 0.500000 0.757832
O O6 0.895009 0.278212 0.803550
O O7 0.863195 0.270002 0.726615
O O8 0.000000 0.261040 0.749552
O O9 0.112921 0.500000 0.144922
O O10 0.000000 0.329124 0.146053
O O11 0.341280 0.723784 0.500000
O O12 0.302348 0.500000 0.545081
O O13 0.250000 0.750000 0.561149
O O14 0.387467 0.704986 0.574013
O O15 0.500000 0.290759 0.618970
O O16 0.597073 0.500000 0.629932
O O17 0.623097 0.224391 0.649277
O O18 0.250000 0.750000 0.000000
O O19 0.197879 0.000000 0.000000
O O20 0.817241 0.500000 0.315960
O O21 0.750000 0.250000 0.318727
#
# Coordination Sequence:
#
# PCOD8268528 Si02
#       7
#    16  16  16  16  16   8  16
#     4  10  19  32  51  74 100 130 168 210 252 299
#     4   8  16  33  55  75  97 130 169 206 248 300
#     4   9  18  34  54  75 102 134 166 203 249 299
#     4   9  18  33  53  76 103 137 174 211 254 303
#     4  10  21  36  54  78 107 137 172 215 259 303
#     4   8  16  30  47  68  95 129 165 205 251 296
#     4  11  22  36  55  78 105 136 171 210 254 304
#
# _framework density 18.360689000000001
#
# number of rings (size 3 to 8) (size 9 to 14) (size 15 to 20)
#    0.000    2.615    0.000    2.769    0.000    4.615 
#    0.000    5.000    0.000    4.154    0.000    3.231 
#    0.000    0.000    0.000    0.000    0.000    0.000 
#
# Total GULP energy -644518.839565 kJ/mol
# GULP energy per Si atom -12394.593069 kJ/mol
# Density = 1.831890 g / cm^3
# Si number density = 18.360689 Si / 1000 Ang^3
#
#
#
# Elastic Constant Matrix: (Units=GPa)
#
#
# Indices 1 2 3 4 5 6 
#
# 1 100.8883 41.3025 72.1059 0.0000 0.0000 0.0000
# 2 41.3025 62.5176 51.5779 0.0000 0.0000 0.0000
# 3 72.1059 51.5779 144.1062 0.0000 0.0000 0.0000
# 4 0.0000 0.0000 0.0000 27.0027 0.0000 0.0000
# 5 0.0000 0.0000 0.0000 0.0000 20.4282 0.0000
# 6 0.0000 0.0000 0.0000 0.0000 0.0000 23.3698
#
#
#
# Elastic Compliance Matrix: (Units=1/GPa)
#
#
# Indices 1 2 3 4 5 6 
#
# 1 0.016847 -0.005925 -0.006309 0.000000 0.000000 0.000000
# 2 -0.005925 0.024782 -0.005905 0.000000 0.000000 0.000000
# 3 -0.006309 -0.005905 0.012210 0.000000 0.000000 0.000000
# 4 0.000000 0.000000 0.000000 0.037033 0.000000 0.000000
# 5 0.000000 0.000000 0.000000 0.000000 0.048952 0.000000
# 6 0.000000 0.000000 0.000000 0.000000 0.000000 0.042790
#
#
# Mechanical properties :
#
#
# Convention : Reuss Voigt Hill
#
# Bulk Modulus (GPa) = 56.94733 70.83165 63.88949
# Shear Modulus (GPa) = 22.24749 23.66183 22.95466
#
# Velocity S-wave (km/s) = 3.48471 3.59377 3.53966
# Velocity P-wave (km/s) = 6.87562 7.47542 7.18179
#
# Compressibility (1/GPa) = 0.01756009
#
# Stress axis : x y z
#
# Youngs Moduli (GPa) = 59.35949 40.35251 81.90274
#
# Poissons Ratio (x) = 0.23908 0.51671
# Poissons Ratio (y) = 0.35169 0.48365
# Poissons Ratio (z) = 0.37449 0.23829
#
# Static dielectric constant tensor:
#      x y z
#    x 3.263810 0.000000 0.000000 
#    y 0.000000 3.251360 0.000000 
#    z 0.000000 0.000000 3.933180 
# 
# 
# High freq. dielectric constant tensor:
#      x y z
#    x 1.696470 0.000000 0.000000 
#    y 0.000000 1.698930 0.000000 
#    z 0.000000 0.000000 1.731310 
# 
# From -- ./inp_files/78176.got.cif
#   From: 2010.03.12/outbox.cif.g09.slc.cpg/sg65_40_cif.got.tgz:78176.got - 2010.04.10 20:52:16.
