data_PCOD8268479
_publ_section_title
;
Structure prediction by ZEFSAII (Michael W. Deem and Ramdas Pophale) SiO2 
 PCOD8268479
Probable space group: C M M M
;
_chemical_formula_sum "Si O2"
_cell_formula_units_Z 104
_cell_length_a 28.627965
_cell_length_b 8.985388
_cell_length_c 23.502657
_cell_angle_alpha 90.000000
_cell_angle_beta 90.000000
_cell_angle_gamma 90.000000
_cell_volume 6045.667739
_symmetry_space_group_name_H-M "C M M M"
_symmetry_group_IT_number 65
_symmetry_cell_setting 'orthorhombic'
loop_
_space_group_symop_operation_xyz
x,y,z
-x,-y,z
x,-y,-z
-x,y,-z
-x,-y,-z
x,y,-z
-x,y,z
x,-y,z
1/2+x,1/2+y,z
1/2-x,1/2-y,z
1/2+x,1/2-y,-z
1/2-x,1/2+y,-z
1/2-x,1/2-y,-z
1/2+x,1/2+y,-z
1/2-x,1/2+y,z
1/2+x,1/2-y,z
loop_
_atom_site_type_symbol
_atom_site_label
_atom_site_fract_x
_atom_site_fract_y
_atom_site_fract_z
Si Si1 0.051849 0.670221 0.878846
Si Si2 0.447254 0.672257 0.760856
Si Si3 0.300472 0.324903 0.376690
Si Si4 0.201773 0.170211 0.500000
Si Si5 0.359529 0.174501 0.720057
Si Si6 0.299275 0.175246 0.829946
Si Si7 0.355478 0.824285 0.937727
O O1 0.060620 0.500000 0.858101
O O2 0.057372 0.778179 0.825823
O O3 0.090497 0.716571 0.925098
O O4 0.000000 0.686043 0.905935
O O5 0.500000 0.699522 0.738837
O O6 0.433314 0.500000 0.756756
O O7 0.412698 0.768649 0.721973
O O8 0.294794 0.500000 0.365198
O O9 0.250000 0.250000 0.370214
O O10 0.323447 0.292279 0.439739
O O11 0.335309 0.256379 0.331751
O O12 0.250000 0.250000 0.500000
O O13 0.215442 0.000000 0.500000
O O14 0.334018 0.217012 0.778894
O O15 0.358619 0.000000 0.708648
O O16 0.250000 0.250000 0.817988
O O17 0.321378 0.239448 0.888695
O O18 0.291654 0.000000 0.833565
O O19 0.349573 0.000000 0.939178
O O20 0.342486 0.757145 0.000000
#
# Coordination Sequence:
#
# PCOD8268479 Si02
#       7
#    16  16  16   8  16  16  16
#     4   9  16  29  50  73  96 122 153 194 246 304
#     4  10  20  33  51  75 101 129 160 198 248 305
#     4  10  19  32  50  76 108 143 179 212 249 292
#     4   8  16  30  48  70 103 142 177 212 246 287
#     4  11  21  34  52  75 102 132 168 209 254 299
#     4  10  21  35  49  68  93 125 162 204 250 293
#     4   9  17  31  49  69  94 123 159 203 247 296
#
# _framework density 17.202400999999998
#
# number of rings (size 3 to 8) (size 9 to 14) (size 15 to 20)
#    0.000    2.308    1.538    1.846    0.000    4.615 
#    0.000    1.538    0.000    1.385    0.000    2.692 
#    0.000    4.308    0.000    0.000    0.000    0.000 
#
# Total GULP energy -644492.613317 kJ/mol
# GULP energy per Si atom -12394.088718 kJ/mol
# Density = 1.716325 g / cm^3
# Si number density = 17.202401 Si / 1000 Ang^3
#
#
#
# Elastic Constant Matrix: (Units=GPa)
#
#
# Indices 1 2 3 4 5 6 
#
# 1 94.2101 39.8334 47.5102 0.0000 0.0000 0.0000
# 2 39.8334 59.0427 46.5651 0.0000 0.0000 0.0000
# 3 47.5102 46.5651 122.0156 0.0000 0.0000 0.0000
# 4 0.0000 0.0000 0.0000 21.0028 0.0000 0.0000
# 5 0.0000 0.0000 0.0000 0.0000 69.3715 0.0000
# 6 0.0000 0.0000 0.0000 0.0000 0.0000 24.4872
#
#
#
# Elastic Compliance Matrix: (Units=1/GPa)
#
#
# Indices 1 2 3 4 5 6 
#
# 1 0.015552 -0.008178 -0.002935 0.000000 0.000000 0.000000
# 2 -0.008178 0.028530 -0.007704 0.000000 0.000000 0.000000
# 3 -0.002935 -0.007704 0.012278 0.000000 0.000000 0.000000
# 4 0.000000 0.000000 0.000000 0.047613 0.000000 0.000000
# 5 0.000000 0.000000 0.000000 0.000000 0.014415 0.000000
# 6 0.000000 0.000000 0.000000 0.000000 0.000000 0.040838
#
#
# Mechanical properties :
#
#
# Convention : Reuss Voigt Hill
#
# Bulk Modulus (GPa) = 53.39630 60.34290 56.86960
# Shear Modulus (GPa) = 24.61828 32.39626 28.50727
#
# Velocity S-wave (km/s) = 3.78709 4.34434 4.07525
# Velocity P-wave (km/s) = 7.08732 7.76651 7.43468
#
# Compressibility (1/GPa) = 0.01872789
#
# Stress axis : x y z
#
# Youngs Moduli (GPa) = 64.29909 35.05120 81.44413
#
# Poissons Ratio (x) = 0.28664 0.23902
# Poissons Ratio (y) = 0.52583 0.62741
# Poissons Ratio (z) = 0.18870 0.27002
#
# Static dielectric constant tensor:
#      x y z
#    x 3.277300 0.000000 0.000000 
#    y 0.000000 3.153100 0.000000 
#    z 0.000000 0.000000 3.592460 
# 
# 
# High freq. dielectric constant tensor:
#      x y z
#    x 1.655120 0.000000 0.000000 
#    y 0.000000 1.656760 0.000000 
#    z 0.000000 0.000000 1.655190 
# 
# From -- ./inp_files/66315.got.cif
#   From: 2010.03.12/outbox.cif.g09.slc.cpg/sg65_34_cif.got.tgz:66315.got - 2010.04.10 20:52:16.
