data_PCOD8268680
_publ_section_title
;
Structure prediction by ZEFSAII (Michael W. Deem and Ramdas Pophale) SiO2 
 PCOD8268680
Probable space group: C M M M
;
_chemical_formula_sum "Si O2"
_cell_formula_units_Z 80
_cell_length_a 25.845008
_cell_length_b 9.031143
_cell_length_c 18.845141
_cell_angle_alpha 90.000000
_cell_angle_beta 90.000000
_cell_angle_gamma 90.000000
_cell_volume 4398.643665
_symmetry_space_group_name_H-M "C M M M"
_symmetry_group_IT_number 65
_symmetry_cell_setting 'orthorhombic'
loop_
_space_group_symop_operation_xyz
x,y,z
-x,-y,z
x,-y,-z
-x,y,-z
-x,-y,-z
x,y,-z
-x,y,z
x,-y,z
1/2+x,1/2+y,z
1/2-x,1/2-y,z
1/2+x,1/2-y,-z
1/2-x,1/2+y,-z
1/2-x,1/2-y,-z
1/2+x,1/2+y,-z
1/2-x,1/2+y,z
1/2+x,1/2-y,z
loop_
_atom_site_type_symbol
_atom_site_label
_atom_site_fract_x
_atom_site_fract_y
_atom_site_fract_z
Si Si1 0.896355 0.826165 0.161830
Si Si2 0.802620 0.328906 0.916504
Si Si3 0.500000 0.167983 0.160724
Si Si4 0.601881 0.327657 0.327172
Si Si5 0.000000 0.334147 0.670591
Si Si6 0.697814 0.326213 0.418768
O O1 0.849414 0.752403 0.121222
O O2 0.888762 0.793111 0.244817
O O3 0.949290 0.753338 0.132895
O O4 0.898164 0.000000 0.145653
O O5 0.800529 0.500000 0.893253
O O6 0.750000 0.250000 0.891767
O O7 0.810667 0.312186 0.000000
O O8 0.500000 0.169760 0.245005
O O9 0.500000 0.000000 0.131354
O O10 0.593111 0.500000 0.340729
O O11 0.551202 0.246896 0.357614
O O12 0.650902 0.267080 0.370711
O O13 0.000000 0.500000 0.640802
O O14 0.686278 0.282175 0.500000
O O15 0.705157 0.500000 0.409514
O O16 0.750000 0.250000 0.391169
#
# Coordination Sequence:
#
# PCOD8268680 Si02
#       6
#    16  16   8  16   8  16
#     4  10  19  32  52  77 103 130 163 204 248 294
#     4  10  21  37  55  74  99 132 167 203 245 293
#     4   9  17  31  50  73 102 133 165 201 244 293
#     4   9  18  32  50  73 100 130 163 200 243 291
#     4   9  17  29  48  73  98 128 163 200 244 289
#     4   9  18  33  51  70  95 129 166 202 243 290
#
# _framework density 18.187424
#
# number of rings (size 3 to 8) (size 9 to 14) (size 15 to 20)
#    0.000    2.600    0.000    1.800    0.000    6.000 
#    0.000    3.000    0.000    6.000    0.000    0.000 
#    0.000    0.000    0.000    0.000    0.000    0.000 
#
# Total GULP energy -496070.573607 kJ/mol
# GULP energy per Si atom -12401.764340 kJ/mol
# Density = 1.814603 g / cm^3
# Si number density = 18.187424 Si / 1000 Ang^3
#
#
#
# Elastic Constant Matrix: (Units=GPa)
#
#
# Indices 1 2 3 4 5 6 
#
# 1 207.2886 90.4664 57.0199 0.0000 0.0000 0.0000
# 2 90.4664 111.3905 36.8729 0.0000 0.0000 0.0000
# 3 57.0199 36.8729 34.9885 0.0000 0.0000 0.0000
# 4 0.0000 0.0000 0.0000 20.9823 0.0000 0.0000
# 5 0.0000 0.0000 0.0000 0.0000 -57.9354 0.0000
# 6 0.0000 0.0000 0.0000 0.0000 0.0000 42.6800
#
#
#
# Elastic Compliance Matrix: (Units=1/GPa)
#
#
# Indices 1 2 3 4 5 6 
#
# 1 0.009838 -0.004120 -0.011691 0.000000 0.000000 0.000000
# 2 -0.004120 0.015513 -0.009633 0.000000 0.000000 0.000000
# 3 -0.011691 -0.009633 0.057786 0.000000 0.000000 0.000000
# 4 0.000000 0.000000 0.000000 0.047659 0.000000 0.000000
# 5 0.000000 0.000000 0.000000 0.000000 -0.017261 0.000000
# 6 0.000000 0.000000 0.000000 0.000000 0.000000 0.023430
#
#
# Mechanical properties :
#
#
# Convention : Reuss Voigt Hill
#
# Bulk Modulus (GPa) = 31.01053 80.26510 55.63781
# Shear Modulus (GPa) = 25.17575 12.43261 18.80418
#
# Velocity S-wave (km/s) = 3.72457 2.61738 3.21894
# Velocity P-wave (km/s) = 5.96524 7.30495 6.66882
#
# Compressibility (1/GPa) = 0.03224711
#
# Stress axis : x y z
#
# Youngs Moduli (GPa) = 101.64374 64.46393 17.30531
#
# Poissons Ratio (x) = 0.26560 0.20232
# Poissons Ratio (y) = 0.41879 0.16671
# Poissons Ratio (z) = 1.18833 0.62101
#
# Static dielectric constant tensor:
#      x y z
#    x 3.587780 0.000000 0.000000 
#    y 0.000000 3.472720 0.000000 
#    z 0.000000 0.000000 3.129140 
# 
# 
# High freq. dielectric constant tensor:
#      x y z
#    x 1.720880 0.000000 0.000000 
#    y 0.000000 1.713110 0.000000 
#    z 0.000000 0.000000 1.673680 
# 
# From -- ./inp_files/65085.got.cif
#   From: 2010.03.12/outbox.cif.g09.slc.cpg/sg65_33_cif.got.tgz:65085.got - 2010.04.10 20:52:16.
