data_PCOD8268349
_publ_section_title
;
Structure prediction by ZEFSAII (Michael W. Deem and Ramdas Pophale) SiO2 
 PCOD8268349
Probable space group: C M M M
;
_chemical_formula_sum "Si O2"
_cell_formula_units_Z 88
_cell_length_a 29.842355
_cell_length_b 19.453926
_cell_length_c 9.527873
_cell_angle_alpha 90.000000
_cell_angle_beta 90.000000
_cell_angle_gamma 90.000000
_cell_volume 5531.415873
_symmetry_space_group_name_H-M "C M M M"
_symmetry_group_IT_number 65
_symmetry_cell_setting 'orthorhombic'
loop_
_space_group_symop_operation_xyz
x,y,z
-x,-y,z
x,-y,-z
-x,y,-z
-x,-y,-z
x,y,-z
-x,y,z
x,-y,z
1/2+x,1/2+y,z
1/2-x,1/2-y,z
1/2+x,1/2-y,-z
1/2-x,1/2+y,-z
1/2-x,1/2-y,-z
1/2+x,1/2+y,-z
1/2-x,1/2+y,z
1/2+x,1/2-y,z
loop_
_atom_site_type_symbol
_atom_site_label
_atom_site_fract_x
_atom_site_fract_y
_atom_site_fract_z
Si Si1 0.798644 0.219272 0.661754
Si Si2 0.374310 0.207879 0.160716
Si Si3 0.048780 0.500000 0.334551
Si Si4 0.052888 0.650184 0.337183
Si Si5 0.236254 0.076099 0.660545
Si Si6 0.820106 0.575690 0.843576
O O1 0.809386 0.238647 0.500000
O O2 0.750000 0.250000 0.703599
O O3 0.837144 0.245922 0.763932
O O4 0.799888 0.136377 0.683786
O O5 0.421517 0.207974 0.244201
O O6 0.360105 0.128785 0.167625
O O7 0.380551 0.233301 0.000000
O O8 0.042201 0.500000 0.500000
O O9 0.071411 0.573272 0.294029
O O10 0.000000 0.500000 0.262428
O O11 0.063399 0.665116 0.500000
O O12 0.000000 0.656471 0.307561
O O13 0.251115 0.073902 0.500000
O O14 0.280451 0.098245 0.742267
O O15 0.218259 0.000000 0.707617
O O16 0.838707 0.500000 0.802833
O O17 0.799828 0.575283 0.000000
#
# Coordination Sequence:
#
# PCOD8268349 Si02
#       6
#    16  16   8  16  16  16
#     4  10  19  32  48  67  93 122 154 192 231 273
#     4  11  22  31  45  67  92 124 157 193 234 277
#     4   7  12  26  47  67  85 111 151 197 239 273
#     4   9  18  33  50  66  87 117 155 197 237 276
#     4   9  17  30  48  67  87 116 155 195 230 265
#     4   9  18  30  41  58  88 123 156 189 227 271
#
# _framework density 15.909128000000001
#
# number of rings (size 3 to 8) (size 9 to 14) (size 15 to 20)
#    0.000    2.636    1.818    1.636    1.273    2.182 
#    0.000    0.000    0.000    1.636    0.000    0.000 
#    0.000    0.727    0.000    8.364    0.000    2.364 
#
# Total GULP energy -545078.179744 kJ/mol
# GULP energy per Si atom -12388.140449 kJ/mol
# Density = 1.587292 g / cm^3
# Si number density = 15.909128 Si / 1000 Ang^3
#
#
#
# Elastic Constant Matrix: (Units=GPa)
#
#
# Indices 1 2 3 4 5 6 
#
# 1 64.4253 28.9975 46.0558 0.0000 0.0000 0.0000
# 2 28.9975 56.1017 32.2132 0.0000 0.0000 0.0000
# 3 46.0558 32.2132 76.8270 0.0000 0.0000 0.0000
# 4 0.0000 0.0000 0.0000 19.5598 0.0000 0.0000
# 5 0.0000 0.0000 0.0000 0.0000 36.9918 0.0000
# 6 0.0000 0.0000 0.0000 0.0000 0.0000 21.2107
#
#
#
# Elastic Compliance Matrix: (Units=1/GPa)
#
#
# Indices 1 2 3 4 5 6 
#
# 1 0.028891 -0.006570 -0.014564 0.000000 0.000000 0.000000
# 2 -0.006570 0.024971 -0.006532 0.000000 0.000000 0.000000
# 3 -0.014564 -0.006532 0.024486 0.000000 0.000000 0.000000
# 4 0.000000 0.000000 0.000000 0.051125 0.000000 0.000000
# 5 0.000000 0.000000 0.000000 0.000000 0.027033 0.000000
# 6 0.000000 0.000000 0.000000 0.000000 0.000000 0.047146
#
#
# Mechanical properties :
#
#
# Convention : Reuss Voigt Hill
#
# Bulk Modulus (GPa) = 43.44914 45.76524 44.60719
# Shear Modulus (GPa) = 18.75071 21.55828 20.15450
#
# Velocity S-wave (km/s) = 3.43682 3.68515 3.56315
# Velocity P-wave (km/s) = 6.56651 6.85100 6.71026
#
# Compressibility (1/GPa) = 0.02301541
#
# Stress axis : x y z
#
# Youngs Moduli (GPa) = 34.61316 40.04619 40.83966
#
# Poissons Ratio (x) = 0.26311 0.59481
# Poissons Ratio (y) = 0.22741 0.26675
# Poissons Ratio (z) = 0.50412 0.26157
#
# Static dielectric constant tensor:
#      x y z
#    x 2.669040 0.000000 0.000000 
#    y 0.000000 3.139240 0.000000 
#    z 0.000000 0.000000 3.094630 
# 
# 
# High freq. dielectric constant tensor:
#      x y z
#    x 1.575300 0.000000 0.000000 
#    y 0.000000 1.595520 0.000000 
#    z 0.000000 0.000000 1.612410 
# 
# From -- ./inp_files/12653.got.cif
#   From: 2010.03.12/outbox.cif.g09.slc.cpg/sg65_7_cif.got.tgz:12653.got - 2010.04.10 20:52:16.
