data_PCOD8268136
_publ_section_title
;
Structure prediction by ZEFSAII (Michael W. Deem and Ramdas Pophale) SiO2 
 PCOD8268136
Probable space group: C M M M
;
_chemical_formula_sum "Si O2"
_cell_formula_units_Z 80
_cell_length_a 8.724290
_cell_length_b 19.322996
_cell_length_c 25.317362
_cell_angle_alpha 90.000000
_cell_angle_beta 90.000000
_cell_angle_gamma 90.000000
_cell_volume 4267.986221
_symmetry_space_group_name_H-M "C M M M"
_symmetry_group_IT_number 65
_symmetry_cell_setting 'orthorhombic'
loop_
_space_group_symop_operation_xyz
x,y,z
-x,-y,z
x,-y,-z
-x,y,-z
-x,-y,-z
x,y,-z
-x,y,z
x,-y,z
1/2+x,1/2+y,z
1/2-x,1/2-y,z
1/2+x,1/2-y,-z
1/2-x,1/2+y,-z
1/2-x,1/2-y,-z
1/2+x,1/2+y,-z
1/2-x,1/2+y,z
1/2+x,1/2-y,z
loop_
_atom_site_type_symbol
_atom_site_label
_atom_site_fract_x
_atom_site_fract_y
_atom_site_fract_z
Si Si1 0.318601 0.324280 0.760580
Si Si2 0.317962 0.077282 0.558261
Si Si3 0.682798 0.824482 0.349852
Si Si4 0.319960 0.420801 0.857089
Si Si5 0.820026 0.321482 0.060445
O O1 0.500000 0.316654 0.754191
O O2 0.250000 0.250000 0.776625
O O3 0.246394 0.351650 0.706005
O O4 0.271527 0.380002 0.804468
O O5 0.264655 0.103205 0.500000
O O6 0.500000 0.076891 0.560735
O O7 0.252569 0.126300 0.603976
O O8 0.255040 0.000000 0.568202
O O9 0.500000 0.821765 0.347765
O O10 0.750000 0.750000 0.362690
O O11 0.500000 0.416177 0.866408
O O12 0.264949 0.500000 0.851554
O O13 0.238755 0.387211 0.907386
O O14 0.750000 0.250000 0.082946
O O15 0.000000 0.315717 0.066365
O O16 0.768498 0.332545 0.000000
#
# Coordination Sequence:
#
# PCOD8268136 Si02
#       5
#    16  16  16  16  16
#     4  10  20  35  54  74 100 134 171 211 254 302
#     4   8  15  29  48  70  97 129 165 204 245 292
#     4  10  19  31  50  75 100 128 164 206 253 301
#     4  10  22  38  55  78 108 141 175 212 259 311
#     4  10  21  37  58  83 109 139 176 216 258 305
#
# _framework density 18.744204
#
# number of rings (size 3 to 8) (size 9 to 14) (size 15 to 20)
#    0.000    2.400    0.000    4.200    0.000    6.400 
#    0.000    2.000    0.000    3.600    0.000    5.600 
#    0.000    0.000    0.000    0.000    0.000    0.000 
#
# Total GULP energy -496008.138465 kJ/mol
# GULP energy per Si atom -12400.203462 kJ/mol
# Density = 1.870154 g / cm^3
# Si number density = 18.744204 Si / 1000 Ang^3
#
#
#
# Elastic Constant Matrix: (Units=GPa)
#
#
# Indices 1 2 3 4 5 6 
#
# 1 55.1732 39.1813 44.5953 0.0000 0.0000 0.0000
# 2 39.1813 135.6514 100.9760 0.0000 0.0000 0.0000
# 3 44.5953 100.9760 148.1413 0.0000 0.0000 0.0000
# 4 0.0000 0.0000 0.0000 30.6700 0.0000 0.0000
# 5 0.0000 0.0000 0.0000 0.0000 23.8786 0.0000
# 6 0.0000 0.0000 0.0000 0.0000 0.0000 23.5277
#
#
#
# Elastic Compliance Matrix: (Units=1/GPa)
#
#
# Indices 1 2 3 4 5 6 
#
# 1 0.024634 -0.003238 -0.005208 0.000000 0.000000 0.000000
# 2 -0.003238 0.015390 -0.009516 0.000000 0.000000 0.000000
# 3 -0.005208 -0.009516 0.014804 0.000000 0.000000 0.000000
# 4 0.000000 0.000000 0.000000 0.032605 0.000000 0.000000
# 5 0.000000 0.000000 0.000000 0.000000 0.041878 0.000000
# 6 0.000000 0.000000 0.000000 0.000000 0.000000 0.042503
#
#
# Mechanical properties :
#
#
# Convention : Reuss Voigt Hill
#
# Bulk Modulus (GPa) = 52.89799 78.71902 65.80850
# Shear Modulus (GPa) = 23.35998 25.89616 24.62807
#
# Velocity S-wave (km/s) = 3.53406 3.72096 3.62871
# Velocity P-wave (km/s) = 6.70336 7.78128 7.26235
#
# Compressibility (1/GPa) = 0.01890431
#
# Stress axis : x y z
#
# Youngs Moduli (GPa) = 40.59388 64.97586 67.54849
#
# Poissons Ratio (x) = 0.21041 0.35182
# Poissons Ratio (y) = 0.13145 0.64276
# Poissons Ratio (z) = 0.21143 0.61828
#
# Static dielectric constant tensor:
#      x y z
#    x 3.273150 0.000000 0.000000 
#    y 0.000000 3.539760 0.000000 
#    z 0.000000 0.000000 3.717710 
# 
# 
# High freq. dielectric constant tensor:
#      x y z
#    x 1.715790 0.000000 0.000000 
#    y 0.000000 1.724700 0.000000 
#    z 0.000000 0.000000 1.740570 
# 
# From -- ./inp_files/72786.got.cif
#   From: 2010.03.12/outbox.cif.g09.slc.cpg/sg65_37_cif.got.tgz:72786.got - 2010.04.10 20:52:16.
