data_PCOD8268697
_publ_section_title
;
Structure prediction by ZEFSAII (Michael W. Deem and Ramdas Pophale) SiO2 
 PCOD8268697
Probable space group: C M M M
;
_chemical_formula_sum "Si O2"
_cell_formula_units_Z 104
_cell_length_a 32.547075
_cell_length_b 8.765987
_cell_length_c 20.676540
_cell_angle_alpha 90.000000
_cell_angle_beta 90.000000
_cell_angle_gamma 90.000000
_cell_volume 5899.166484
_symmetry_space_group_name_H-M "C M M M"
_symmetry_group_IT_number 65
_symmetry_cell_setting 'orthorhombic'
loop_
_space_group_symop_operation_xyz
x,y,z
-x,-y,z
x,-y,-z
-x,y,-z
-x,-y,-z
x,y,-z
-x,y,z
x,-y,z
1/2+x,1/2+y,z
1/2-x,1/2-y,z
1/2+x,1/2-y,-z
1/2-x,1/2+y,-z
1/2-x,1/2-y,-z
1/2+x,1/2+y,-z
1/2-x,1/2+y,z
1/2+x,1/2-y,z
loop_
_atom_site_type_symbol
_atom_site_label
_atom_site_fract_x
_atom_site_fract_y
_atom_site_fract_z
Si Si1 0.368140 0.678578 0.176756
Si Si2 0.342105 0.177413 0.372829
Si Si3 0.583676 0.677893 0.693245
Si Si4 0.577464 0.824233 0.925141
Si Si5 0.000000 0.178395 0.863194
Si Si6 0.205780 0.678416 0.756287
Si Si7 0.704870 0.819260 0.500000
Si Si8 0.000000 0.679862 0.277687
O O1 0.367230 0.500000 0.161772
O O2 0.398618 0.717053 0.235939
O O3 0.382757 0.770760 0.114165
O O4 0.322744 0.737265 0.191937
O O5 0.384810 0.265500 0.361691
O O6 0.310387 0.212120 0.315500
O O7 0.320510 0.237886 0.437771
O O8 0.352909 0.000000 0.377457
O O9 0.576651 0.500000 0.684175
O O10 0.540189 0.761010 0.684728
O O11 0.539379 0.719964 0.905266
O O12 0.567070 0.000000 0.909855
O O13 0.587359 0.799262 0.000000
O O14 0.000000 0.265269 0.795806
O O15 0.000000 0.000000 0.847399
O O16 0.206823 0.500000 0.771636
O O17 0.250000 0.750000 0.763586
O O18 0.750000 0.750000 0.500000
O O19 0.709810 0.000000 0.500000
O O20 0.000000 0.500000 0.278923
#
# Coordination Sequence:
#
# PCOD8268697 Si02
#       8
#    16  16  16  16   8  16   8   8
#     4  10  20  34  53  75 102 135 173 217 266 317
#     4   9  19  34  52  77 110 146 180 216 262 316
#     4  10  20  34  53  78 106 137 177 223 265 313
#     4  11  23  37  53  75 105 141 178 216 263 318
#     4  12  23  35  52  77 107 141 179 218 261 311
#     4  10  19  32  52  77 106 136 173 217 264 316
#     4  10  20  34  54  81 114 149 184 220 261 316
#     4  12  22  33  55  79 107 141 175 220 270 316
#
# _framework density 17.62961
#
# number of rings (size 3 to 8) (size 9 to 14) (size 15 to 20)
#    0.000    1.692    1.538    3.923    0.000    4.615 
#    0.000    0.000    0.000    0.923    0.000    3.231 
#    0.000    0.000    0.000    0.000    0.000    0.000 
#
# Total GULP energy -645053.295134 kJ/mol
# GULP energy per Si atom -12404.871060 kJ/mol
# Density = 1.758948 g / cm^3
# Si number density = 17.629610 Si / 1000 Ang^3
#
#
#
# Elastic Constant Matrix: (Units=GPa)
#
#
# Indices 1 2 3 4 5 6 
#
# 1 149.8543 62.6523 60.2702 0.0000 0.0000 0.0000
# 2 62.6523 83.5657 37.8916 0.0000 0.0000 0.0000
# 3 60.2702 37.8916 94.8152 0.0000 0.0000 0.0000
# 4 0.0000 0.0000 0.0000 20.7592 0.0000 0.0000
# 5 0.0000 0.0000 0.0000 0.0000 21.7856 0.0000
# 6 0.0000 0.0000 0.0000 0.0000 0.0000 37.1435
#
#
#
# Elastic Compliance Matrix: (Units=1/GPa)
#
#
# Indices 1 2 3 4 5 6 
#
# 1 0.011135 -0.006276 -0.004570 0.000000 0.000000 0.000000
# 2 -0.006276 0.018153 -0.003265 0.000000 0.000000 0.000000
# 3 -0.004570 -0.003265 0.014757 0.000000 0.000000 0.000000
# 4 0.000000 0.000000 0.000000 0.048171 0.000000 0.000000
# 5 0.000000 0.000000 0.000000 0.000000 0.045902 0.000000
# 6 0.000000 0.000000 0.000000 0.000000 0.000000 0.026923
#
#
# Mechanical properties :
#
#
# Convention : Reuss Voigt Hill
#
# Bulk Modulus (GPa) = 63.20269 72.20704 67.70486
# Shear Modulus (GPa) = 25.18431 27.09908 26.14169
#
# Velocity S-wave (km/s) = 3.78368 3.92488 3.85493
# Velocity P-wave (km/s) = 7.41731 7.84770 7.63554
#
# Compressibility (1/GPa) = 0.01582211
#
# Stress axis : x y z
#
# Youngs Moduli (GPa) = 89.80542 55.08850 67.76659
#
# Poissons Ratio (x) = 0.34575 0.30969
# Poissons Ratio (y) = 0.56364 0.22125
# Poissons Ratio (z) = 0.41041 0.17986
#
# Static dielectric constant tensor:
#      x y z
#    x 3.325730 0.000000 0.000000 
#    y 0.000000 3.383480 0.000000 
#    z 0.000000 0.000000 3.224930 
# 
# 
# High freq. dielectric constant tensor:
#      x y z
#    x 1.685510 0.000000 0.000000 
#    y 0.000000 1.695360 0.000000 
#    z 0.000000 0.000000 1.659210 
# 
# From -- ./inp_files/66451.got.cif
#   From: 2010.03.12/outbox.cif.g09.slc.cpg/sg65_34_cif.got.tgz:66451.got - 2010.04.10 20:52:16.
