data_PCOD8268487
_publ_section_title
;
Structure prediction by ZEFSAII (Michael W. Deem and Ramdas Pophale) SiO2 
 PCOD8268487
Probable space group: C M M M
;
_chemical_formula_sum "Si O2"
_cell_formula_units_Z 80
_cell_length_a 20.682954
_cell_length_b 23.154378
_cell_length_c 9.045700
_cell_angle_alpha 90.000000
_cell_angle_beta 90.000000
_cell_angle_gamma 90.000000
_cell_volume 4331.994188
_symmetry_space_group_name_H-M "C M M M"
_symmetry_group_IT_number 65
_symmetry_cell_setting 'orthorhombic'
loop_
_space_group_symop_operation_xyz
x,y,z
-x,-y,z
x,-y,-z
-x,y,-z
-x,-y,-z
x,y,-z
-x,y,z
x,-y,z
1/2+x,1/2+y,z
1/2-x,1/2-y,z
1/2+x,1/2-y,-z
1/2-x,1/2+y,-z
1/2-x,1/2-y,-z
1/2+x,1/2+y,-z
1/2-x,1/2+y,z
1/2+x,1/2-y,z
loop_
_atom_site_type_symbol
_atom_site_label
_atom_site_fract_x
_atom_site_fract_y
_atom_site_fract_z
Si Si1 0.881419 0.876635 0.175107
Si Si2 0.750852 0.434156 0.176007
Si Si3 0.426660 0.252677 0.175280
Si Si4 0.876028 0.367848 0.823865
Si Si5 0.500000 0.567795 0.664597
Si Si6 0.500000 0.935635 0.176221
O O1 0.813416 0.901805 0.231859
O O2 0.888604 0.810031 0.225408
O O3 0.936999 0.913731 0.247827
O O4 0.888284 0.882683 0.000000
O O5 0.753094 0.500000 0.236716
O O6 0.811032 0.397181 0.239689
O O7 0.753098 0.435407 0.000000
O O8 0.500000 0.252547 0.239964
O O9 0.385267 0.197905 0.233493
O O10 0.431817 0.249570 0.000000
O O11 0.936613 0.403944 0.763173
O O12 0.873909 0.369156 0.000000
O O13 0.500000 0.500000 0.653806
O O14 0.500000 0.595031 0.500000
O O15 0.500000 0.000000 0.239872
O O16 0.500000 0.935461 0.000000
#
# Coordination Sequence:
#
# PCOD8268487 Si02
#       6
#    16  16  16  16   8   8
#     4  10  19  32  51  71  96 129 160 195 240 287
#     4   9  17  27  39  61  93 126 161 198 237 285
#     4   9  15  25  41  63  90 118 156 200 236 276
#     4   9  15  23  36  57  89 123 155 198 240 275
#     4  11  23  36  51  73  97 123 162 205 240 282
#     4   9  14  19  30  48  76 122 164 187 226 286
#
# _framework density 18.467244999999998
#
# number of rings (size 3 to 8) (size 9 to 14) (size 15 to 20)
#    0.000    2.600    2.000    1.500    0.000    4.800 
#    0.000    4.000    0.000    0.000    0.000    2.800 
#    0.000    0.000    0.000    0.000    0.000   15.100 
#
# Total GULP energy -495843.259859 kJ/mol
# GULP energy per Si atom -12396.081496 kJ/mol
# Density = 1.842521 g / cm^3
# Si number density = 18.467245 Si / 1000 Ang^3
#
#
#
# Elastic Constant Matrix: (Units=GPa)
#
#
# Indices 1 2 3 4 5 6 
#
# 1 190.2284 96.6996 15.6858 0.0000 0.0000 0.0000
# 2 96.6996 173.1198 11.8569 0.0000 0.0000 0.0000
# 3 15.6858 11.8569 10.5705 0.0000 0.0000 0.0000
# 4 0.0000 0.0000 0.0000 4.7290 0.0000 0.0000
# 5 0.0000 0.0000 0.0000 0.0000 -7.0790 0.0000
# 6 0.0000 0.0000 0.0000 0.0000 0.0000 35.6002
#
#
#
# Elastic Compliance Matrix: (Units=1/GPa)
#
#
# Indices 1 2 3 4 5 6 
#
# 1 0.007825 -0.003873 -0.007267 0.000000 0.000000 0.000000
# 2 -0.003873 0.008174 -0.003422 0.000000 0.000000 0.000000
# 3 -0.007267 -0.003422 0.109225 0.000000 0.000000 0.000000
# 4 0.000000 0.000000 0.000000 0.211461 0.000000 0.000000
# 5 0.000000 0.000000 0.000000 0.000000 -0.141262 0.000000
# 6 0.000000 0.000000 0.000000 0.000000 0.000000 0.028090
#
#
# Mechanical properties :
#
#
# Convention : Reuss Voigt Hill
#
# Bulk Modulus (GPa) = 10.40576 69.15594 39.78085
# Shear Modulus (GPa) = 17.56424 23.29512 20.42968
#
# Velocity S-wave (km/s) = 3.08734 3.55551 3.32967
# Velocity P-wave (km/s) = 4.28437 7.37460 6.03078
#
# Compressibility (1/GPa) = 0.09610061
#
# Stress axis : x y z
#
# Youngs Moduli (GPa) = 127.79791 122.33856 9.15539
#
# Poissons Ratio (x) = 0.47382 0.06653
# Poissons Ratio (y) = 0.49496 0.03133
# Poissons Ratio (z) = 0.92873 0.41859
#
# Static dielectric constant tensor:
#      x y z
#    x 3.597560 0.000000 0.000000 
#    y 0.000000 3.762980 0.000000 
#    z 0.000000 0.000000 2.640750 
# 
# 
# High freq. dielectric constant tensor:
#      x y z
#    x 1.726260 0.000000 0.000000 
#    y 0.000000 1.737560 0.000000 
#    z 0.000000 0.000000 1.627750 
# 
# From -- ./inp_files/11547.got.cif
#   From: 2010.03.12/outbox.cif.g09.slc.cpg/sg65_6_cif.got.tgz:11547.got - 2010.04.10 20:52:16.
