data_PCOD8268504
_publ_section_title
;
Structure prediction by ZEFSAII (Michael W. Deem and Ramdas Pophale) SiO2 
 PCOD8268504
Probable space group: C M M M
;
_chemical_formula_sum "Si O2"
_cell_formula_units_Z 104
_cell_length_a 21.809275
_cell_length_b 8.810409
_cell_length_c 29.411912
_cell_angle_alpha 90.000000
_cell_angle_beta 90.000000
_cell_angle_gamma 90.000000
_cell_volume 5651.458677
_symmetry_space_group_name_H-M "C M M M"
_symmetry_group_IT_number 65
_symmetry_cell_setting 'orthorhombic'
loop_
_space_group_symop_operation_xyz
x,y,z
-x,-y,z
x,-y,-z
-x,y,-z
-x,-y,-z
x,y,-z
-x,y,z
x,-y,z
1/2+x,1/2+y,z
1/2-x,1/2-y,z
1/2+x,1/2-y,-z
1/2-x,1/2+y,-z
1/2-x,1/2-y,-z
1/2+x,1/2+y,-z
1/2-x,1/2+y,z
1/2+x,1/2-y,z
loop_
_atom_site_type_symbol
_atom_site_label
_atom_site_fract_x
_atom_site_fract_y
_atom_site_fract_z
Si Si1 0.572349 0.669310 0.205188
Si Si2 0.813665 0.321205 0.052259
Si Si3 0.572946 0.171923 0.295556
Si Si4 0.430019 0.179873 0.889188
Si Si5 0.186973 0.674773 0.548999
Si Si6 0.899113 0.176276 0.388084
Si Si7 0.500000 0.821338 0.449445
O O1 0.500000 0.659961 0.210073
O O2 0.600564 0.500000 0.203815
O O3 0.598974 0.759598 0.248481
O O4 0.590148 0.757193 0.159568
O O5 0.807700 0.500000 0.058334
O O6 0.750000 0.250000 0.072021
O O7 0.876538 0.262728 0.076506
O O8 0.820995 0.272268 0.000000
O O9 0.500000 0.177783 0.297078
O O10 0.599150 0.272625 0.336088
O O11 0.596626 0.000000 0.300142
O O12 0.500000 0.235041 0.902747
O O13 0.430509 0.000000 0.886805
O O14 0.149912 0.681041 0.500000
O O15 0.190908 0.500000 0.565468
O O16 0.250000 0.750000 0.536650
O O17 0.165528 0.782811 0.590207
O O18 0.942181 0.272509 0.420653
O O19 0.915707 0.000000 0.390508
O O20 0.500000 0.748167 0.500000
O O21 0.500000 0.000000 0.453266
#
# Coordination Sequence:
#
# PCOD8268504 Si02
#       7
#    16  16  16  16  16  16   8
#     4   9  17  29  47  72 102 132 166 209 257 306
#     4   9  18  32  50  73 103 141 182 222 264 315
#     4  10  19  32  51  73 102 137 172 207 251 308
#     4   9  17  30  49  74 103 135 175 220 268 317
#     4  10  21  38  58  77  98 127 166 209 251 299
#     4  12  23  34  52  77 105 134 167 207 253 305
#     4  11  23  37  51  71 103 139 171 205 250 303
#
# _framework density 18.402329000000002
#
# number of rings (size 3 to 8) (size 9 to 14) (size 15 to 20)
#    0.000    2.077    0.769    3.462    0.000    6.769 
#    0.000    1.538    0.000    0.923    0.000    8.615 
#    0.000    0.000    0.000    0.000    0.000    0.000 
#
# Total GULP energy -644345.340602 kJ/mol
# GULP energy per Si atom -12391.256550 kJ/mol
# Density = 1.836044 g / cm^3
# Si number density = 18.402329 Si / 1000 Ang^3
#
#
#
# Elastic Constant Matrix: (Units=GPa)
#
#
# Indices 1 2 3 4 5 6 
#
# 1 75.9604 25.2203 53.6113 0.0000 0.0000 0.0000
# 2 25.2203 68.2129 36.0108 0.0000 0.0000 0.0000
# 3 53.6113 36.0108 125.5304 0.0000 0.0000 0.0000
# 4 0.0000 0.0000 0.0000 24.2520 0.0000 0.0000
# 5 0.0000 0.0000 0.0000 0.0000 15.5274 0.0000
# 6 0.0000 0.0000 0.0000 0.0000 0.0000 23.4500
#
#
#
# Elastic Compliance Matrix: (Units=1/GPa)
#
#
# Indices 1 2 3 4 5 6 
#
# 1 0.019459 -0.003308 -0.007361 0.000000 0.000000 0.000000
# 2 -0.003308 0.017839 -0.003705 0.000000 0.000000 0.000000
# 3 -0.007361 -0.003705 0.012173 0.000000 0.000000 0.000000
# 4 0.000000 0.000000 0.000000 0.041234 0.000000 0.000000
# 5 0.000000 0.000000 0.000000 0.000000 0.064402 0.000000
# 6 0.000000 0.000000 0.000000 0.000000 0.000000 0.042644
#
#
# Mechanical properties :
#
#
# Convention : Reuss Voigt Hill
#
# Bulk Modulus (GPa) = 48.25783 55.48762 51.87272
# Shear Modulus (GPa) = 21.42195 22.96999 22.19597
#
# Velocity S-wave (km/s) = 3.41558 3.53684 3.47673
# Velocity P-wave (km/s) = 6.46804 6.84813 6.66080
#
# Compressibility (1/GPa) = 0.02072203
#
# Stress axis : x y z
#
# Youngs Moduli (GPa) = 51.39106 56.05752 82.15053
#
# Poissons Ratio (x) = 0.18545 0.60474
# Poissons Ratio (y) = 0.17001 0.30433
# Poissons Ratio (z) = 0.37831 0.20767
#
# Static dielectric constant tensor:
#      x y z
#    x 2.696100 0.000000 0.000000 
#    y 0.000000 3.433550 0.000000 
#    z 0.000000 0.000000 3.525490 
# 
# 
# High freq. dielectric constant tensor:
#      x y z
#    x 1.681530 0.000000 0.000000 
#    y 0.000000 1.719280 0.000000 
#    z 0.000000 0.000000 1.717420 
# 
# From -- ./inp_files/73553.got.cif
#   From: 2010.03.12/outbox.cif.g09.slc.cpg/sg65_37_cif.got.tgz:73553.got - 2010.04.10 20:52:16.
