data_PCOD8268470
_publ_section_title
;
Structure prediction by ZEFSAII (Michael W. Deem and Ramdas Pophale) SiO2 
 PCOD8268470
Probable space group: C M M M
;
_chemical_formula_sum "Si O2"
_cell_formula_units_Z 72
_cell_length_a 13.672038
_cell_length_b 27.236544
_cell_length_c 10.409650
_cell_angle_alpha 90.000000
_cell_angle_beta 90.000000
_cell_angle_gamma 90.000000
_cell_volume 3876.335729
_symmetry_space_group_name_H-M "C M M M"
_symmetry_group_IT_number 65
_symmetry_cell_setting 'orthorhombic'
loop_
_space_group_symop_operation_xyz
x,y,z
-x,-y,z
x,-y,-z
-x,y,-z
-x,-y,-z
x,y,-z
-x,y,z
x,-y,z
1/2+x,1/2+y,z
1/2-x,1/2-y,z
1/2+x,1/2-y,-z
1/2-x,1/2+y,-z
1/2-x,1/2-y,-z
1/2+x,1/2+y,-z
1/2-x,1/2+y,z
1/2+x,1/2-y,z
loop_
_atom_site_type_symbol
_atom_site_label
_atom_site_fract_x
_atom_site_fract_y
_atom_site_fract_z
Si Si1 0.778044 0.943839 0.142439
Si Si2 0.768661 0.304178 0.647802
Si Si3 0.112990 0.886206 0.355230
Si Si4 0.885811 0.613679 0.249386
Si Si5 0.384191 0.054857 0.500000
O O1 0.854141 0.925864 0.249887
O O2 0.677736 0.911793 0.138569
O O3 0.750550 0.000000 0.171884
O O4 0.825029 0.938653 0.000000
O O5 0.802348 0.300332 0.500000
O O6 0.750000 0.250000 0.704706
O O7 0.669879 0.335255 0.664962
O O8 0.856564 0.329461 0.729035
O O9 0.131824 0.906800 0.500000
O O10 0.000000 0.874095 0.333832
O O11 0.848908 0.584644 0.376276
O O12 0.000000 0.608756 0.218284
O O13 0.500000 0.051997 0.500000
O O14 0.339285 0.000000 0.500000
#
# Coordination Sequence:
#
# PCOD8268470 Si02
#       5
#    16  16  16  16   8
#     4  10  22  37  53  77 108 142 178 217 264 316
#     4   9  17  30  50  78 111 141 171 216 271 321
#     4   9  19  36  56  79 106 137 177 222 267 314
#     4  10  19  32  50  75 107 140 175 214 260 315
#     4   9  16  26  43  70 101 133 168 205 248 298
#
# _framework density 18.574242000000002
#
# number of rings (size 3 to 8) (size 9 to 14) (size 15 to 20)
#    0.000    2.556    1.111    0.667    1.556    4.000 
#    0.000    5.556    0.000   10.667    0.000   12.444 
#    0.000    0.000    0.000    0.000    0.000    0.000 
#
# Total GULP energy -446314.033295 kJ/mol
# GULP energy per Si atom -12397.612036 kJ/mol
# Density = 1.853197 g / cm^3
# Si number density = 18.574242 Si / 1000 Ang^3
#
#
#
# Elastic Constant Matrix: (Units=GPa)
#
#
# Indices 1 2 3 4 5 6 
#
# 1 86.2994 20.8907 30.4635 0.0000 0.0000 0.0000
# 2 20.8907 129.4354 40.7505 0.0000 0.0000 0.0000
# 3 30.4635 40.7505 79.8540 0.0000 0.0000 0.0000
# 4 0.0000 0.0000 0.0000 18.3823 0.0000 0.0000
# 5 0.0000 0.0000 0.0000 0.0000 18.6815 0.0000
# 6 0.0000 0.0000 0.0000 0.0000 0.0000 18.4902
#
#
#
# Elastic Compliance Matrix: (Units=1/GPa)
#
#
# Indices 1 2 3 4 5 6 
#
# 1 0.013438 -0.000661 -0.004789 0.000000 0.000000 0.000000
# 2 -0.000661 0.009237 -0.004462 0.000000 0.000000 0.000000
# 3 -0.004789 -0.004462 0.016627 0.000000 0.000000 0.000000
# 4 0.000000 0.000000 0.000000 0.054400 0.000000 0.000000
# 5 0.000000 0.000000 0.000000 0.000000 0.053529 0.000000
# 6 0.000000 0.000000 0.000000 0.000000 0.000000 0.054083
#
#
# Mechanical properties :
#
#
# Convention : Reuss Voigt Hill
#
# Bulk Modulus (GPa) = 51.33933 53.31091 52.32512
# Shear Modulus (GPa) = 21.96541 24.67640 23.32091
#
# Velocity S-wave (km/s) = 3.44259 3.64885 3.54722
# Velocity P-wave (km/s) = 6.59560 6.82026 6.70887
#
# Compressibility (1/GPa) = 0.01947825
#
# Stress axis : x y z
#
# Youngs Moduli (GPa) = 74.41497 108.25734 60.14418
#
# Poissons Ratio (x) = 0.07157 0.28804
# Poissons Ratio (y) = 0.04920 0.26834
# Poissons Ratio (z) = 0.35638 0.48301
#
# Static dielectric constant tensor:
#      x y z
#    x 3.284230 0.000000 0.000000 
#    y 0.000000 3.447630 0.000000 
#    z 0.000000 0.000000 3.306750 
# 
# 
# High freq. dielectric constant tensor:
#      x y z
#    x 1.715080 0.000000 0.000000 
#    y 0.000000 1.716470 0.000000 
#    z 0.000000 0.000000 1.701030 
# 
# From -- ./inp_files/7260.got.cif
#   From: 2010.03.12/outbox.cif.g09.slc.cpg/sg65_4_cif.got.tgz:7260.got - 2010.04.10 20:52:16.
