data_PCOD8268425
_publ_section_title
;
Structure prediction by ZEFSAII (Michael W. Deem and Ramdas Pophale) SiO2 
 PCOD8268425
Probable space group: C M M M
;
_chemical_formula_sum "Si O2"
_cell_formula_units_Z 88
_cell_length_a 9.414146
_cell_length_b 28.776977
_cell_length_c 18.128547
_cell_angle_alpha 90.000000
_cell_angle_beta 90.000000
_cell_angle_gamma 90.000000
_cell_volume 4911.216685
_symmetry_space_group_name_H-M "C M M M"
_symmetry_group_IT_number 65
_symmetry_cell_setting 'orthorhombic'
loop_
_space_group_symop_operation_xyz
x,y,z
-x,-y,z
x,-y,-z
-x,y,-z
-x,-y,-z
x,y,-z
-x,y,z
x,-y,z
1/2+x,1/2+y,z
1/2-x,1/2-y,z
1/2+x,1/2-y,-z
1/2-x,1/2+y,-z
1/2-x,1/2-y,-z
1/2+x,1/2+y,-z
1/2-x,1/2+y,z
1/2+x,1/2-y,z
loop_
_atom_site_type_symbol
_atom_site_label
_atom_site_fract_x
_atom_site_fract_y
_atom_site_fract_z
Si Si1 0.660717 0.704279 0.000000
Si Si2 0.332635 0.298663 0.160829
Si Si3 0.841697 0.055272 0.919464
Si Si4 0.336440 0.854924 0.280484
Si Si5 0.835356 0.295096 0.417066
Si Si6 0.836932 0.551372 0.783133
O O1 0.750000 0.750000 0.000000
O O2 0.689674 0.678025 0.078405
O O3 0.500000 0.721665 0.000000
O O4 0.500000 0.290897 0.177317
O O5 0.250000 0.250000 0.166425
O O6 0.267970 0.333047 0.220742
O O7 0.738634 0.072517 0.855345
O O8 0.000000 0.074163 0.902941
O O9 0.842400 0.000000 0.920933
O O10 0.791646 0.073972 0.000000
O O11 0.500000 0.842722 0.260391
O O12 0.297750 0.837166 0.362212
O O13 0.313644 0.910940 0.281750
O O14 0.791039 0.310028 0.500000
O O15 0.750000 0.250000 0.390649
O O16 0.000000 0.281864 0.413402
O O17 0.778574 0.500000 0.759568
O O18 0.000000 0.546906 0.804757
#
# Coordination Sequence:
#
# PCOD8268425 Si02
#       6
#     8  16  16  16  16  16
#     4   8  16  30  46  64  89 124 161 195 232 277
#     4  10  19  32  50  71  97 128 162 199 241 288
#     4   8  14  26  44  64  86 115 154 202 252 294
#     4  10  20  33  49  72  99 127 163 202 243 291
#     4   9  18  33  53  76 102 129 154 187 235 292
#     4   9  18  32  48  66  92 127 165 205 248 291
#
# _framework density 17.918167
#
# number of rings (size 3 to 8) (size 9 to 14) (size 15 to 20)
#    0.000    2.909    0.000    1.636    0.000    4.000 
#    1.636    1.818    0.000    0.545    0.000    3.818 
#    0.000    0.000    0.000   10.727    0.000   11.273 
#
# Total GULP energy -545141.176163 kJ/mol
# GULP energy per Si atom -12389.572186 kJ/mol
# Density = 1.787738 g / cm^3
# Si number density = 17.918167 Si / 1000 Ang^3
#
#
#
# Elastic Constant Matrix: (Units=GPa)
#
#
# Indices 1 2 3 4 5 6 
#
# 1 61.1835 36.1654 45.2829 0.0000 0.0000 0.0000
# 2 36.1654 86.5791 67.5684 0.0000 0.0000 0.0000
# 3 45.2829 67.5684 116.4477 0.0000 0.0000 0.0000
# 4 0.0000 0.0000 0.0000 24.6717 0.0000 0.0000
# 5 0.0000 0.0000 0.0000 0.0000 22.5497 0.0000
# 6 0.0000 0.0000 0.0000 0.0000 0.0000 17.8077
#
#
#
# Elastic Compliance Matrix: (Units=1/GPa)
#
#
# Indices 1 2 3 4 5 6 
#
# 1 0.024091 -0.005029 -0.006450 0.000000 0.000000 0.000000
# 2 -0.005029 0.022159 -0.010902 0.000000 0.000000 0.000000
# 3 -0.006450 -0.010902 0.017422 0.000000 0.000000 0.000000
# 4 0.000000 0.000000 0.000000 0.040532 0.000000 0.000000
# 5 0.000000 0.000000 0.000000 0.000000 0.044346 0.000000
# 6 0.000000 0.000000 0.000000 0.000000 0.000000 0.056156
#
#
# Mechanical properties :
#
#
# Convention : Reuss Voigt Hill
#
# Bulk Modulus (GPa) = 52.88509 62.47152 57.67830
# Shear Modulus (GPa) = 19.54871 20.68540 20.11706
#
# Velocity S-wave (km/s) = 3.30661 3.40139 3.35433
# Velocity P-wave (km/s) = 6.64508 7.09694 6.87472
#
# Compressibility (1/GPa) = 0.01890892
#
# Stress axis : x y z
#
# Youngs Moduli (GPa) = 41.50965 45.12797 57.40027
#
# Poissons Ratio (x) = 0.22697 0.37022
# Poissons Ratio (y) = 0.20877 0.62578
# Poissons Ratio (z) = 0.26773 0.49198
#
# Static dielectric constant tensor:
#      x y z
#    x 3.391860 0.000000 0.000000 
#    y 0.000000 3.370870 0.000000 
#    z 0.000000 0.000000 3.545840 
# 
# 
# High freq. dielectric constant tensor:
#      x y z
#    x 1.693420 0.000000 0.000000 
#    y 0.000000 1.678320 0.000000 
#    z 0.000000 0.000000 1.679550 
# 
# From -- ./inp_files/50417.got.cif
#   From: 2010.03.12/outbox.cif.g09.slc.cpg/sg65_26_cif.got.tgz:50417.got - 2010.04.10 20:52:16.
