data_PCOD8268953
_publ_section_title
;
Structure prediction by ZEFSAII (Michael W. Deem and Ramdas Pophale) SiO2 
 PCOD8268953
Probable space group: C M M M
;
_chemical_formula_sum "Si O2"
_cell_formula_units_Z 104
_cell_length_a 27.870140
_cell_length_b 9.176836
_cell_length_c 21.270766
_cell_angle_alpha 90.000000
_cell_angle_beta 90.000000
_cell_angle_gamma 90.000000
_cell_volume 5440.204818
_symmetry_space_group_name_H-M "C M M M"
_symmetry_group_IT_number 65
_symmetry_cell_setting 'orthorhombic'
loop_
_space_group_symop_operation_xyz
x,y,z
-x,-y,z
x,-y,-z
-x,y,-z
-x,-y,-z
x,y,-z
-x,y,z
x,-y,z
1/2+x,1/2+y,z
1/2-x,1/2-y,z
1/2+x,1/2-y,-z
1/2-x,1/2+y,-z
1/2-x,1/2-y,-z
1/2+x,1/2+y,-z
1/2-x,1/2+y,z
1/2+x,1/2-y,z
loop_
_atom_site_type_symbol
_atom_site_label
_atom_site_fract_x
_atom_site_fract_y
_atom_site_fract_z
Si Si1 0.795412 0.832354 0.929183
Si Si2 0.895700 0.169262 0.124379
Si Si3 0.357809 0.667630 0.572435
Si Si4 0.444882 0.168882 0.624496
Si Si5 0.055449 0.829379 0.000000
Si Si6 0.700267 0.173333 0.323973
Si Si7 0.393045 0.833892 0.248113
O O1 0.750000 0.750000 0.900296
O O2 0.839471 0.800629 0.883685
O O3 0.782026 0.000000 0.930684
O O4 0.807386 0.777805 0.000000
O O5 0.922539 0.238670 0.063791
O O6 0.911656 0.241949 0.189076
O O7 0.908413 0.000000 0.129355
O O8 0.343070 0.678222 0.500000
O O9 0.357454 0.500000 0.595613
O O10 0.411292 0.732403 0.580719
O O11 0.318538 0.760648 0.610421
O O12 0.500000 0.214242 0.613592
O O13 0.431147 0.195613 0.696929
O O14 0.436255 0.000000 0.606907
O O15 0.000000 0.795045 0.000000
O O16 0.068348 0.000000 0.000000
O O17 0.750000 0.250000 0.304368
O O18 0.660535 0.209594 0.270876
O O19 0.707371 0.000000 0.331899
O O20 0.393417 0.000000 0.226592
#
# Coordination Sequence:
#
# PCOD8268953 Si02
#       7
#    16  16  16  16   8  16  16
#     4   9  17  30  47  68  95 125 159 198 245 301
#     4  10  19  33  53  75 101 134 171 215 265 316
#     4  10  21  36  55  83 117 148 181 224 271 318
#     4   9  19  37  58  78 105 144 185 226 275 328
#     4   9  18  34  54  75 101 133 171 215 264 321
#     4  10  21  38  59  81 110 148 188 226 267 316
#     4   9  20  36  53  77 107 138 175 221 270 321
#
# _framework density 19.116928000000001
#
# number of rings (size 3 to 8) (size 9 to 14) (size 15 to 20)
#    0.000    2.538    0.769    1.846    0.000    7.077 
#    0.000    5.000    0.000    0.462    0.000    0.000 
#    0.000    0.000    0.000    0.000    0.000    0.000 
#
# Total GULP energy -644767.274857 kJ/mol
# GULP energy per Si atom -12399.370670 kJ/mol
# Density = 1.907342 g / cm^3
# Si number density = 19.116928 Si / 1000 Ang^3
#
#
#
# Elastic Constant Matrix: (Units=GPa)
#
#
# Indices 1 2 3 4 5 6 
#
# 1 52.4598 27.3346 15.0461 0.0000 0.0000 0.0000
# 2 27.3346 65.3299 33.1589 0.0000 0.0000 0.0000
# 3 15.0461 33.1589 87.0733 0.0000 0.0000 0.0000
# 4 0.0000 0.0000 0.0000 29.0923 0.0000 0.0000
# 5 0.0000 0.0000 0.0000 0.0000 12.8493 0.0000
# 6 0.0000 0.0000 0.0000 0.0000 0.0000 26.8625
#
#
#
# Elastic Compliance Matrix: (Units=1/GPa)
#
#
# Indices 1 2 3 4 5 6 
#
# 1 0.024388 -0.009998 -0.000407 0.000000 0.000000 0.000000
# 2 -0.009998 0.023073 -0.007059 0.000000 0.000000 0.000000
# 3 -0.000407 -0.007059 0.014243 0.000000 0.000000 0.000000
# 4 0.000000 0.000000 0.000000 0.034373 0.000000 0.000000
# 5 0.000000 0.000000 0.000000 0.000000 0.077825 0.000000
# 6 0.000000 0.000000 0.000000 0.000000 0.000000 0.037227
#
#
# Mechanical properties :
#
#
# Convention : Reuss Voigt Hill
#
# Bulk Modulus (GPa) = 37.34544 39.54913 38.44728
# Shear Modulus (GPa) = 19.60919 22.38238 20.99578
#
# Velocity S-wave (km/s) = 3.20621 3.42543 3.31763
# Velocity P-wave (km/s) = 5.76923 6.03139 5.90177
#
# Compressibility (1/GPa) = 0.02677703
#
# Stress axis : x y z
#
# Youngs Moduli (GPa) = 41.00328 43.34089 70.20966
#
# Poissons Ratio (x) = 0.43331 0.02857
# Poissons Ratio (y) = 0.40994 0.49561
# Poissons Ratio (z) = 0.01669 0.30594
#
# Static dielectric constant tensor:
#      x y z
#    x 3.514360 0.000000 0.000000 
#    y 0.000000 3.391580 0.000000 
#    z 0.000000 0.000000 3.370280 
# 
# 
# High freq. dielectric constant tensor:
#      x y z
#    x 1.742740 0.000000 0.000000 
#    y 0.000000 1.730730 0.000000 
#    z 0.000000 0.000000 1.738980 
# 
# From -- ./inp_files/65889.got.cif
#   From: 2010.03.12/outbox.cif.g09.slc.cpg/sg65_33_cif.got.tgz:65889.got - 2010.04.10 20:52:16.
