data_PCOD8268154
_publ_section_title
;
Structure prediction by ZEFSAII (Michael W. Deem and Ramdas Pophale) SiO2 
 PCOD8268154
Probable space group: C M M M
;
_chemical_formula_sum "Si O2"
_cell_formula_units_Z 88
_cell_length_a 25.739512
_cell_length_b 8.900468
_cell_length_c 22.305722
_cell_angle_alpha 90.000000
_cell_angle_beta 90.000000
_cell_angle_gamma 90.000000
_cell_volume 5110.100449
_symmetry_space_group_name_H-M "C M M M"
_symmetry_group_IT_number 65
_symmetry_cell_setting 'orthorhombic'
loop_
_space_group_symop_operation_xyz
x,y,z
-x,-y,z
x,-y,-z
-x,y,-z
-x,-y,-z
x,y,-z
-x,y,z
x,-y,z
1/2+x,1/2+y,z
1/2-x,1/2-y,z
1/2+x,1/2-y,-z
1/2-x,1/2+y,-z
1/2-x,1/2-y,-z
1/2+x,1/2+y,-z
1/2-x,1/2+y,z
1/2+x,1/2-y,z
loop_
_atom_site_type_symbol
_atom_site_label
_atom_site_fract_x
_atom_site_fract_y
_atom_site_fract_z
Si Si1 0.413637 0.822801 0.353484
Si Si2 0.057584 0.167953 0.764586
Si Si3 0.500000 0.671807 0.429245
Si Si4 0.646524 0.823268 0.821775
Si Si5 0.195817 0.323816 0.696448
Si Si6 0.804556 0.827388 0.934284
O O1 0.441909 0.774571 0.292993
O O2 0.445874 0.746445 0.407207
O O3 0.352243 0.775455 0.347644
O O4 0.418114 0.000000 0.361740
O O5 0.091970 0.239462 0.816462
O O6 0.000000 0.161861 0.790927
O O7 0.077016 0.000000 0.747655
O O8 0.500000 0.500000 0.407026
O O9 0.500000 0.685552 0.500000
O O10 0.682899 0.776286 0.765200
O O11 0.666648 0.770195 0.885242
O O12 0.637855 0.000000 0.821668
O O13 0.203905 0.500000 0.692306
O O14 0.250000 0.250000 0.675540
O O15 0.750000 0.750000 0.941586
O O16 0.799027 0.000000 0.912704
O O17 0.832300 0.820826 0.000000
#
# Coordination Sequence:
#
# PCOD8268154 Si02
#       6
#    16  16   8  16  16  16
#     4  10  20  34  53  77 107 139 174 213 256 307
#     4  10  19  31  50  75 103 133 166 205 254 306
#     4  11  23  37  55  81 109 137 174 217 260 305
#     4  10  20  32  48  72 101 133 170 210 256 308
#     4   9  19  32  48  75 105 136 169 206 254 306
#     4  10  20  33  49  69  95 128 166 209 257 308
#
# _framework density 17.220797000000001
#
# number of rings (size 3 to 8) (size 9 to 14) (size 15 to 20)
#    0.000    2.091    0.909    4.091    0.000    8.727 
#    0.000    0.000    0.000    1.091    0.000    3.818 
#    0.000    0.000    0.000    0.000    0.000    0.000 
#
# Total GULP energy -545278.992434 kJ/mol
# GULP energy per Si atom -12392.704373 kJ/mol
# Density = 1.718160 g / cm^3
# Si number density = 17.220797 Si / 1000 Ang^3
#
#
#
# Elastic Constant Matrix: (Units=GPa)
#
#
# Indices 1 2 3 4 5 6 
#
# 1 123.5966 58.9196 46.9858 0.0000 0.0000 0.0000
# 2 58.9196 81.1590 27.3694 0.0000 0.0000 0.0000
# 3 46.9858 27.3694 70.3774 0.0000 0.0000 0.0000
# 4 0.0000 0.0000 0.0000 26.2196 0.0000 0.0000
# 5 0.0000 0.0000 0.0000 0.0000 28.9695 0.0000
# 6 0.0000 0.0000 0.0000 0.0000 0.0000 31.4871
#
#
#
# Elastic Compliance Matrix: (Units=1/GPa)
#
#
# Indices 1 2 3 4 5 6 
#
# 1 0.014535 -0.008379 -0.006446 0.000000 0.000000 0.000000
# 2 -0.008379 0.019011 -0.001799 0.000000 0.000000 0.000000
# 3 -0.006446 -0.001799 0.019212 0.000000 0.000000 0.000000
# 4 0.000000 0.000000 0.000000 0.038139 0.000000 0.000000
# 5 0.000000 0.000000 0.000000 0.000000 0.034519 0.000000
# 6 0.000000 0.000000 0.000000 0.000000 0.000000 0.031759
#
#
# Mechanical properties :
#
#
# Convention : Reuss Voigt Hill
#
# Bulk Modulus (GPa) = 51.25343 60.18693 55.72018
# Shear Modulus (GPa) = 25.39002 26.79246 26.09124
#
# Velocity S-wave (km/s) = 3.84393 3.94867 3.89665
# Velocity P-wave (km/s) = 7.03763 7.47097 7.25753
#
# Compressibility (1/GPa) = 0.01951089
#
# Stress axis : x y z
#
# Youngs Moduli (GPa) = 68.79740 52.60096 52.04994
#
# Poissons Ratio (x) = 0.44073 0.33550
# Poissons Ratio (y) = 0.57643 0.09366
# Poissons Ratio (z) = 0.44346 0.09465
#
# Static dielectric constant tensor:
#      x y z
#    x 3.341230 0.000000 0.000000 
#    y 0.000000 3.420210 0.000000 
#    z 0.000000 0.000000 3.205920 
# 
# 
# High freq. dielectric constant tensor:
#      x y z
#    x 1.660640 0.000000 0.000000 
#    y 0.000000 1.683160 0.000000 
#    z 0.000000 0.000000 1.636960 
# 
# From -- ./inp_files/65202.got.cif
#   From: 2010.03.12/outbox.cif.g09.slc.cpg/sg65_33_cif.got.tgz:65202.got - 2010.04.10 20:52:16.
