data_PCOD8268034
_publ_section_title
;
Structure prediction by ZEFSAII (Michael W. Deem and Ramdas Pophale) SiO2 
 PCOD8268034
Probable space group: C M M M
;
_chemical_formula_sum "Si O2"
_cell_formula_units_Z 88
_cell_length_a 19.435024
_cell_length_b 9.174837
_cell_length_c 27.282072
_cell_angle_alpha 90.000000
_cell_angle_beta 90.000000
_cell_angle_gamma 90.000000
_cell_volume 4864.752941
_symmetry_space_group_name_H-M "C M M M"
_symmetry_group_IT_number 65
_symmetry_cell_setting 'orthorhombic'
loop_
_space_group_symop_operation_xyz
x,y,z
-x,-y,z
x,-y,-z
-x,y,-z
-x,-y,-z
x,y,-z
-x,y,z
x,-y,z
1/2+x,1/2+y,z
1/2-x,1/2-y,z
1/2+x,1/2-y,-z
1/2-x,1/2+y,-z
1/2-x,1/2-y,-z
1/2+x,1/2+y,-z
1/2-x,1/2+y,z
1/2+x,1/2-y,z
loop_
_atom_site_type_symbol
_atom_site_label
_atom_site_fract_x
_atom_site_fract_y
_atom_site_fract_z
Si Si1 0.576291 0.827358 0.415026
Si Si2 0.318835 0.329749 0.236400
Si Si3 0.919579 0.334232 0.944243
Si Si4 0.080691 0.665791 0.695063
Si Si5 0.176511 0.326167 0.500000
Si Si6 0.818519 0.830219 0.876606
O O1 0.500000 0.764190 0.427845
O O2 0.598030 0.781440 0.360143
O O3 0.633760 0.770490 0.452734
O O4 0.571288 0.000000 0.418222
O O5 0.309095 0.500000 0.245398
O O6 0.250000 0.250000 0.254523
O O7 0.382776 0.273032 0.267390
O O8 0.334076 0.293114 0.179857
O O9 0.901162 0.500000 0.929747
O O10 0.882289 0.223264 0.908359
O O11 0.000000 0.306129 0.938320
O O12 0.896591 0.303494 0.000000
O O13 0.106089 0.500000 0.703275
O O14 0.000000 0.676699 0.704874
O O15 0.186419 0.500000 0.500000
O O16 0.250000 0.250000 0.500000
O O17 0.750000 0.750000 0.894854
O O18 0.807490 0.000000 0.885184
#
# Coordination Sequence:
#
# PCOD8268034 Si02
#       6
#    16  16  16  16   8  16
#     4   8  15  30  52  74  95 126 169 208 241 287
#     4  10  21  36  53  74 102 135 171 210 253 301
#     4   9  19  36  56  78 105 136 169 206 250 300
#     4   9  18  33  53  77 103 131 167 209 252 302
#     4  10  19  31  49  73 101 130 162 204 250 294
#     4  10  21  36  54  76 102 134 172 212 252 298
#
# _framework density 18.089305
#
# number of rings (size 3 to 8) (size 9 to 14) (size 15 to 20)
#    0.000    2.727    0.000    3.000    0.000    6.182 
#    0.000    7.273    0.000    2.182    0.000    0.000 
#    0.000    0.000    0.000    0.000    0.000    0.000 
#
# Total GULP energy -545608.721118 kJ/mol
# GULP energy per Si atom -12400.198207 kJ/mol
# Density = 1.804813 g / cm^3
# Si number density = 18.089305 Si / 1000 Ang^3
#
#
#
# Elastic Constant Matrix: (Units=GPa)
#
#
# Indices 1 2 3 4 5 6 
#
# 1 96.1048 47.0991 65.4274 0.0000 0.0000 0.0000
# 2 47.0991 70.9242 49.6572 0.0000 0.0000 0.0000
# 3 65.4274 49.6572 96.2659 0.0000 0.0000 0.0000
# 4 0.0000 0.0000 0.0000 24.7464 0.0000 0.0000
# 5 0.0000 0.0000 0.0000 0.0000 26.0569 0.0000
# 6 0.0000 0.0000 0.0000 0.0000 0.0000 36.4910
#
#
#
# Elastic Compliance Matrix: (Units=1/GPa)
#
#
# Indices 1 2 3 4 5 6 
#
# 1 0.020963 -0.006176 -0.011061 0.000000 0.000000 0.000000
# 2 -0.006176 0.023890 -0.008126 0.000000 0.000000 0.000000
# 3 -0.011061 -0.008126 0.022097 0.000000 0.000000 0.000000
# 4 0.000000 0.000000 0.000000 0.040410 0.000000 0.000000
# 5 0.000000 0.000000 0.000000 0.000000 0.038378 0.000000
# 6 0.000000 0.000000 0.000000 0.000000 0.000000 0.027404
#
#
# Mechanical properties :
#
#
# Convention : Reuss Voigt Hill
#
# Bulk Modulus (GPa) = 61.63890 65.29582 63.46736
# Shear Modulus (GPa) = 21.80775 24.19960 23.00367
#
# Velocity S-wave (km/s) = 3.47588 3.66154 3.56992
# Velocity P-wave (km/s) = 7.08927 7.35191 7.22179
#
# Compressibility (1/GPa) = 0.01622352
#
# Stress axis : x y z
#
# Youngs Moduli (GPa) = 47.70373 41.85824 45.25432
#
# Poissons Ratio (x) = 0.25853 0.50058
# Poissons Ratio (y) = 0.29463 0.36772
# Poissons Ratio (z) = 0.52767 0.34013
#
# Static dielectric constant tensor:
#      x y z
#    x 3.327400 0.000000 0.000000 
#    y 0.000000 3.141010 0.000000 
#    z 0.000000 0.000000 3.482560 
# 
# 
# High freq. dielectric constant tensor:
#      x y z
#    x 1.701570 0.000000 0.000000 
#    y 0.000000 1.682400 0.000000 
#    z 0.000000 0.000000 1.705580 
# 
# From -- ./inp_files/67459.got.cif
#   From: 2010.03.12/outbox.cif.g09.slc.cpg/sg65_34_cif.got.tgz:67459.got - 2010.04.10 20:52:16.
