data_PCOD8268145
_publ_section_title
;
Structure prediction by ZEFSAII (Michael W. Deem and Ramdas Pophale) SiO2 
 PCOD8268145
Probable space group: C M M M
;
_chemical_formula_sum "Si O2"
_cell_formula_units_Z 104
_cell_length_a 18.986040
_cell_length_b 9.007770
_cell_length_c 33.407742
_cell_angle_alpha 90.000000
_cell_angle_beta 90.000000
_cell_angle_gamma 90.000000
_cell_volume 5713.454895
_symmetry_space_group_name_H-M "C M M M"
_symmetry_group_IT_number 65
_symmetry_cell_setting 'orthorhombic'
loop_
_space_group_symop_operation_xyz
x,y,z
-x,-y,z
x,-y,-z
-x,y,-z
-x,-y,-z
x,y,-z
-x,y,z
x,-y,z
1/2+x,1/2+y,z
1/2-x,1/2-y,z
1/2+x,1/2-y,-z
1/2-x,1/2+y,-z
1/2-x,1/2-y,-z
1/2+x,1/2+y,-z
1/2-x,1/2+y,z
1/2+x,1/2-y,z
loop_
_atom_site_type_symbol
_atom_site_label
_atom_site_fract_x
_atom_site_fract_y
_atom_site_fract_z
Si Si1 0.080981 0.826532 0.195040
Si Si2 0.179613 0.172315 0.733757
Si Si3 0.583476 0.170277 0.579580
Si Si4 0.916212 0.168013 0.500000
Si Si5 0.323966 0.172481 0.957797
Si Si6 0.322625 0.675822 0.357263
Si Si7 0.825971 0.675120 0.129222
O O1 0.114829 0.784123 0.237772
O O2 0.117904 0.735085 0.160310
O O3 0.000000 0.778753 0.197061
O O4 0.089976 0.000000 0.185815
O O5 0.250000 0.250000 0.749880
O O6 0.161285 0.221327 0.688600
O O7 0.196112 0.000000 0.735331
O O8 0.500000 0.182018 0.582327
O O9 0.611988 0.246004 0.538988
O O10 0.613883 0.258618 0.617137
O O11 0.608690 0.000000 0.580119
O O12 0.000000 0.167201 0.500000
O O13 0.886699 0.000000 0.500000
O O14 0.250000 0.250000 0.959597
O O15 0.359127 0.214673 0.915076
O O16 0.308004 0.000000 0.956965
O O17 0.365673 0.212299 0.000000
O O18 0.318055 0.500000 0.363216
O O19 0.250000 0.750000 0.371687
O O20 0.816372 0.500000 0.135365
O O21 0.750000 0.750000 0.135715
#
# Coordination Sequence:
#
# PCOD8268145 Si02
#       7
#    16  16  16   8  16  16  16
#     4  10  21  36  52  72 101 134 167 207 254 299
#     4   9  19  35  55  76  98 129 167 206 249 300
#     4  10  20  34  53  78 108 140 174 213 256 300
#     4   9  17  31  52  77 104 137 178 217 253 297
#     4   8  14  25  42  66  95 124 156 198 245 290
#     4  10  20  35  55  78 105 135 168 207 252 303
#     4  10  19  31  50  75 101 130 166 205 247 299
#
# _framework density 18.202646000000001
#
# number of rings (size 3 to 8) (size 9 to 14) (size 15 to 20)
#    0.000    2.538    0.000    2.077    0.000    5.846 
#    0.000    1.923    0.000    0.462    0.000    3.231 
#    0.000    0.000    0.000    0.000    0.000    0.000 
#
# Total GULP energy -644447.270695 kJ/mol
# GULP energy per Si atom -12393.216744 kJ/mol
# Density = 1.816122 g / cm^3
# Si number density = 18.202646 Si / 1000 Ang^3
#
#
#
# Elastic Constant Matrix: (Units=GPa)
#
#
# Indices 1 2 3 4 5 6 
#
# 1 78.9079 40.9529 62.2107 0.0000 0.0000 0.0000
# 2 40.9529 82.6569 58.0142 0.0000 0.0000 0.0000
# 3 62.2107 58.0142 141.3843 0.0000 0.0000 0.0000
# 4 0.0000 0.0000 0.0000 18.2709 0.0000 0.0000
# 5 0.0000 0.0000 0.0000 0.0000 2.9143 0.0000
# 6 0.0000 0.0000 0.0000 0.0000 0.0000 26.2074
#
#
#
# Elastic Compliance Matrix: (Units=1/GPa)
#
#
# Indices 1 2 3 4 5 6 
#
# 1 0.021057 -0.005519 -0.007000 0.000000 0.000000 0.000000
# 2 -0.005519 0.018438 -0.005137 0.000000 0.000000 0.000000
# 3 -0.007000 -0.005137 0.012261 0.000000 0.000000 0.000000
# 4 0.000000 0.000000 0.000000 0.054732 0.000000 0.000000
# 5 0.000000 0.000000 0.000000 0.000000 0.343140 0.000000
# 6 0.000000 0.000000 0.000000 0.000000 0.000000 0.038157
#
#
# Mechanical properties :
#
#
# Convention : Reuss Voigt Hill
#
# Bulk Modulus (GPa) = 60.81893 69.47829 65.14861
# Shear Modulus (GPa) = 9.45932 18.92995 14.19463
#
# Velocity S-wave (km/s) = 2.28209 3.22833 2.79554
# Velocity P-wave (km/s) = 6.35835 7.22138 6.80356
#
# Compressibility (1/GPa) = 0.01644225
#
# Stress axis : x y z
#
# Youngs Moduli (GPa) = 47.49110 54.23445 81.55814
#
# Poissons Ratio (x) = 0.29933 0.57094
# Poissons Ratio (y) = 0.26211 0.41899
# Poissons Ratio (z) = 0.33246 0.27862
#
# Static dielectric constant tensor:
#      x y z
#    x 3.024530 0.000000 0.000000 
#    y 0.000000 3.453080 0.000000 
#    z 0.000000 0.000000 3.932230 
# 
# 
# High freq. dielectric constant tensor:
#      x y z
#    x 1.664650 0.000000 0.000000 
#    y 0.000000 1.713810 0.000000 
#    z 0.000000 0.000000 1.728840 
# 
# From -- ./inp_files/78246.got.cif
#   From: 2010.03.12/outbox.cif.g09.slc.cpg/sg65_40_cif.got.tgz:78246.got - 2010.04.10 20:52:16.
