data_PCOD8268578
_publ_section_title
;
Structure prediction by ZEFSAII (Michael W. Deem and Ramdas Pophale) SiO2 
 PCOD8268578
Probable space group: C M M M
;
_chemical_formula_sum "Si O2"
_cell_formula_units_Z 104
_cell_length_a 20.829052
_cell_length_b 18.536604
_cell_length_c 15.092191
_cell_angle_alpha 90.000000
_cell_angle_beta 90.000000
_cell_angle_gamma 90.000000
_cell_volume 5827.093264
_symmetry_space_group_name_H-M "C M M M"
_symmetry_group_IT_number 65
_symmetry_cell_setting 'orthorhombic'
loop_
_space_group_symop_operation_xyz
x,y,z
-x,-y,z
x,-y,-z
-x,y,-z
-x,-y,-z
x,y,-z
-x,y,z
x,-y,z
1/2+x,1/2+y,z
1/2-x,1/2-y,z
1/2+x,1/2-y,-z
1/2-x,1/2+y,-z
1/2-x,1/2-y,-z
1/2+x,1/2+y,-z
1/2-x,1/2+y,z
1/2+x,1/2-y,z
loop_
_atom_site_type_symbol
_atom_site_label
_atom_site_fract_x
_atom_site_fract_y
_atom_site_fract_z
Si Si1 0.656582 0.080448 0.752901
Si Si2 0.352974 0.724004 0.598625
Si Si3 0.233760 0.635225 0.598537
Si Si4 0.742201 0.582267 0.101342
Si Si5 0.119007 0.825165 0.896038
Si Si6 0.500000 0.579892 0.895133
Si Si7 0.424660 0.218693 0.756706
O O1 0.706215 0.079941 0.670463
O O2 0.695769 0.100871 0.840950
O O3 0.598709 0.136713 0.741539
O O4 0.627139 0.000000 0.760058
O O5 0.383315 0.717393 0.500000
O O6 0.308332 0.654324 0.619137
O O7 0.307716 0.792865 0.604098
O O8 0.409436 0.731911 0.670676
O O9 0.228252 0.601255 0.500000
O O10 0.718634 0.500000 0.117175
O O11 0.685777 0.636837 0.127616
O O12 0.762520 0.593994 0.000000
O O13 0.062807 0.878042 0.862958
O O14 0.112571 0.751000 0.841675
O O15 0.113351 0.807269 0.000000
O O16 0.500000 0.500000 0.852662
O O17 0.500000 0.573291 0.000000
O O18 0.500000 0.217850 0.774259
#
# Coordination Sequence:
#
# PCOD8268578 Si02
#       7
#    16  16  16  16  16   8  16
#     4  10  21  35  50  70  98 133 174 220 262 297
#     4   8  15  29  50  74  98 124 156 199 251 304
#     4   8  14  28  51  76  98 120 152 200 258 310
#     4   9  18  33  53  77 103 129 160 200 251 312
#     4  10  19  32  51  76 104 131 161 203 254 305
#     4   9  16  28  48  74 104 134 156 183 236 304
#     4  11  22  34  49  70 100 137 178 217 250 292
#
# _framework density 17.847664000000002
#
# number of rings (size 3 to 8) (size 9 to 14) (size 15 to 20)
#    0.000    2.692    0.769    2.308    0.000    5.231 
#    0.000    1.538    0.000    0.000    0.000    7.538 
#    0.000    0.615    0.000    0.000    0.000    0.000 
#
# Total GULP energy -644649.568694 kJ/mol
# GULP energy per Si atom -12397.107090 kJ/mol
# Density = 1.780704 g / cm^3
# Si number density = 17.847664 Si / 1000 Ang^3
#
#
#
# Elastic Constant Matrix: (Units=GPa)
#
#
# Indices 1 2 3 4 5 6 
#
# 1 56.0781 22.9142 31.2816 0.0000 0.0000 0.0000
# 2 22.9142 64.1245 29.4446 0.0000 0.0000 0.0000
# 3 31.2816 29.4446 86.2887 0.0000 0.0000 0.0000
# 4 0.0000 0.0000 0.0000 21.6216 0.0000 0.0000
# 5 0.0000 0.0000 0.0000 0.0000 22.4136 0.0000
# 6 0.0000 0.0000 0.0000 0.0000 0.0000 20.9481
#
#
#
# Elastic Compliance Matrix: (Units=1/GPa)
#
#
# Indices 1 2 3 4 5 6 
#
# 1 0.023828 -0.005393 -0.006798 0.000000 0.000000 0.000000
# 2 -0.005393 0.019713 -0.004772 0.000000 0.000000 0.000000
# 3 -0.006798 -0.004772 0.015682 0.000000 0.000000 0.000000
# 4 0.000000 0.000000 0.000000 0.046250 0.000000 0.000000
# 5 0.000000 0.000000 0.000000 0.000000 0.044616 0.000000
# 6 0.000000 0.000000 0.000000 0.000000 0.000000 0.047737
#
#
# Mechanical properties :
#
#
# Convention : Reuss Voigt Hill
#
# Bulk Modulus (GPa) = 39.53000 41.53022 40.53011
# Shear Modulus (GPa) = 20.81749 21.18674 21.00211
#
# Velocity S-wave (km/s) = 3.41896 3.44915 3.43409
# Velocity P-wave (km/s) = 6.14674 6.25955 6.20340
#
# Compressibility (1/GPa) = 0.02529724
#
# Stress axis : x y z
#
# Youngs Moduli (GPa) = 41.96748 50.72827 63.76924
#
# Poissons Ratio (x) = 0.27359 0.43349
# Poissons Ratio (y) = 0.22634 0.30428
# Poissons Ratio (z) = 0.28529 0.24205
#
# Static dielectric constant tensor:
#      x y z
#    x 3.078280 0.000000 0.000000 
#    y 0.000000 3.183480 0.000000 
#    z 0.000000 0.000000 3.471440 
# 
# 
# High freq. dielectric constant tensor:
#      x y z
#    x 1.667740 0.000000 0.000000 
#    y 0.000000 1.675160 0.000000 
#    z 0.000000 0.000000 1.693430 
# 
# From -- ./inp_files/42839.got.cif
#   From: 2010.03.12/outbox.cif.g09.slc.cpg/sg65_22_cif.got.tgz:42839.got - 2010.04.10 20:52:16.
