data_PCOD8268728
_publ_section_title
;
Structure prediction by ZEFSAII (Michael W. Deem and Ramdas Pophale) SiO2 
 PCOD8268728
Probable space group: C M M M
;
_chemical_formula_sum "Si O2"
_cell_formula_units_Z 104
_cell_length_a 9.227296
_cell_length_b 24.451494
_cell_length_c 24.837526
_cell_angle_alpha 90.000000
_cell_angle_beta 90.000000
_cell_angle_gamma 90.000000
_cell_volume 5603.871745
_symmetry_space_group_name_H-M "C M M M"
_symmetry_group_IT_number 65
_symmetry_cell_setting 'orthorhombic'
loop_
_space_group_symop_operation_xyz
x,y,z
-x,-y,z
x,-y,-z
-x,y,-z
-x,-y,-z
x,y,-z
-x,y,z
x,-y,z
1/2+x,1/2+y,z
1/2-x,1/2-y,z
1/2+x,1/2-y,-z
1/2-x,1/2+y,-z
1/2-x,1/2-y,-z
1/2+x,1/2+y,-z
1/2-x,1/2+y,z
1/2+x,1/2-y,z
loop_
_atom_site_type_symbol
_atom_site_label
_atom_site_fract_x
_atom_site_fract_y
_atom_site_fract_z
Si Si1 0.670257 0.500000 0.744561
Si Si2 0.164732 0.800742 0.210806
Si Si3 0.835117 0.592742 0.940622
Si Si4 0.670895 0.303613 0.088251
Si Si5 0.329592 0.191369 0.382632
Si Si6 0.836460 0.304215 0.500000
Si Si7 0.333061 0.615336 0.699080
Si Si8 0.171042 0.500000 0.141300
O O1 0.500000 0.500000 0.757736
O O2 0.713448 0.447500 0.708437
O O3 0.750856 0.500000 0.801471
O O4 0.250000 0.750000 0.237320
O O5 0.216510 0.812013 0.150389
O O6 0.192180 0.855613 0.243828
O O7 0.000000 0.782038 0.212055
O O8 0.729915 0.644510 0.943303
O O9 0.780852 0.552095 0.894023
O O10 0.000000 0.611227 0.928410
O O11 0.827247 0.564828 0.000000
O O12 0.500000 0.297996 0.079418
O O13 0.750000 0.250000 0.065073
O O14 0.500000 0.200146 0.370600
O O15 0.250000 0.250000 0.374454
O O16 0.303525 0.165879 0.443075
O O17 0.267206 0.144248 0.344740
O O18 0.750000 0.250000 0.500000
O O19 0.000000 0.284613 0.500000
O O20 0.500000 0.619848 0.680349
O O21 0.000000 0.500000 0.151253
#
# Coordination Sequence:
#
# PCOD8268728 Si02
#       8
#     8  16  16  16  16   8  16   8
#     4  10  22  39  57  76 105 142 175 213 260 309
#     4   9  18  31  48  71  99 129 162 202 250 303
#     4  10  21  37  56  78 104 133 166 208 257 307
#     4  10  20  35  54  76 103 136 172 208 251 307
#     4  10  19  32  52  79 110 142 176 216 260 307
#     4   8  16  30  48  73 106 141 175 212 258 306
#     4  10  20  34  51  74 104 138 175 215 261 308
#     4  10  21  38  60  82 103 131 170 213 259 311
#
# _framework density 18.558599000000001
#
# number of rings (size 3 to 8) (size 9 to 14) (size 15 to 20)
#    0.000    2.308    0.000    2.538    0.000    7.077 
#    0.000    0.000    0.000    1.846    0.000    3.231 
#    0.000    0.000    0.000    0.000    0.000    0.000 
#
# Total GULP energy -644544.458764 kJ/mol
# GULP energy per Si atom -12395.085745 kJ/mol
# Density = 1.851636 g / cm^3
# Si number density = 18.558599 Si / 1000 Ang^3
#
#
#
# Elastic Constant Matrix: (Units=GPa)
#
#
# Indices 1 2 3 4 5 6 
#
# 1 78.0224 51.7065 47.0310 0.0000 0.0000 0.0000
# 2 51.7065 125.4203 52.0691 0.0000 0.0000 0.0000
# 3 47.0310 52.0691 106.6332 0.0000 0.0000 0.0000
# 4 0.0000 0.0000 0.0000 22.2322 0.0000 0.0000
# 5 0.0000 0.0000 0.0000 0.0000 25.6751 0.0000
# 6 0.0000 0.0000 0.0000 0.0000 0.0000 28.4173
#
#
#
# Elastic Compliance Matrix: (Units=1/GPa)
#
#
# Indices 1 2 3 4 5 6 
#
# 1 0.020401 -0.005864 -0.006135 0.000000 0.000000 0.000000
# 2 -0.005864 0.011686 -0.003120 0.000000 0.000000 0.000000
# 3 -0.006135 -0.003120 0.013607 0.000000 0.000000 0.000000
# 4 0.000000 0.000000 0.000000 0.044980 0.000000 0.000000
# 5 0.000000 0.000000 0.000000 0.000000 0.038948 0.000000
# 6 0.000000 0.000000 0.000000 0.000000 0.000000 0.035190
#
#
# Mechanical properties :
#
#
# Convention : Reuss Voigt Hill
#
# Bulk Modulus (GPa) = 64.69508 67.96546 66.33027
# Shear Modulus (GPa) = 24.97500 25.88288 25.42894
#
# Velocity S-wave (km/s) = 3.67241 3.73856 3.70563
# Velocity P-wave (km/s) = 7.27445 7.43891 7.35714
#
# Compressibility (1/GPa) = 0.01545713
#
# Stress axis : x y z
#
# Youngs Moduli (GPa) = 49.01822 85.57326 73.49093
#
# Poissons Ratio (x) = 0.50177 0.45083
# Poissons Ratio (y) = 0.28743 0.22929
# Poissons Ratio (z) = 0.30070 0.26699
#
# Static dielectric constant tensor:
#      x y z
#    x 3.390660 0.000000 0.000000 
#    y 0.000000 3.323190 0.000000 
#    z 0.000000 0.000000 3.294810 
# 
# 
# High freq. dielectric constant tensor:
#      x y z
#    x 1.721560 0.000000 0.000000 
#    y 0.000000 1.703550 0.000000 
#    z 0.000000 0.000000 1.722990 
# 
# From -- ./inp_files/73629.got.cif
#   From: 2010.03.12/outbox.cif.g09.slc.cpg/sg65_37_cif.got.tgz:73629.got - 2010.04.10 20:52:16.
