data_PCOD8268613
_publ_section_title
;
Structure prediction by ZEFSAII (Michael W. Deem and Ramdas Pophale) SiO2 
 PCOD8268613
Probable space group: C M M M
;
_chemical_formula_sum "Si O2"
_cell_formula_units_Z 96
_cell_length_a 30.648369
_cell_length_b 20.622556
_cell_length_c 9.016414
_cell_angle_alpha 90.000000
_cell_angle_beta 90.000000
_cell_angle_gamma 90.000000
_cell_volume 5698.803785
_symmetry_space_group_name_H-M "C M M M"
_symmetry_group_IT_number 65
_symmetry_cell_setting 'orthorhombic'
loop_
_space_group_symop_operation_xyz
x,y,z
-x,-y,z
x,-y,-z
-x,y,-z
-x,-y,-z
x,y,-z
-x,y,z
x,-y,z
1/2+x,1/2+y,z
1/2-x,1/2-y,z
1/2+x,1/2-y,-z
1/2-x,1/2+y,-z
1/2-x,1/2-y,-z
1/2+x,1/2+y,-z
1/2-x,1/2+y,z
1/2+x,1/2-y,z
loop_
_atom_site_type_symbol
_atom_site_label
_atom_site_fract_x
_atom_site_fract_y
_atom_site_fract_z
Si Si1 0.569996 0.068842 0.825707
Si Si2 0.153424 0.599148 0.333366
Si Si3 0.633528 0.246358 0.670418
Si Si4 0.748267 0.427458 0.329822
Si Si5 0.285694 0.303033 0.175188
Si Si6 0.451699 0.208999 0.825632
O O1 0.620573 0.066739 0.781178
O O2 0.547873 0.134409 0.763131
O O3 0.548647 0.000000 0.770523
O O4 0.566091 0.071549 0.000000
O O5 0.138160 0.582152 0.500000
O O6 0.154369 0.676005 0.310255
O O7 0.200364 0.570208 0.299681
O O8 0.629479 0.267705 0.500000
O O9 0.666741 0.293487 0.753840
O O10 0.585028 0.250590 0.741592
O O11 0.738969 0.406798 0.500000
O O12 0.729766 0.500000 0.298373
O O13 0.727355 0.375705 0.219603
O O14 0.250000 0.250000 0.232516
O O15 0.290155 0.297914 0.000000
O O16 0.500000 0.237980 0.794006
O O17 0.440919 0.210283 0.000000
#
# Coordination Sequence:
#
# PCOD8268613 Si02
#       6
#    16  16  16  16  16  16
#     4   9  17  27  40  60  86 119 160 202 244 291
#     4   9  17  29  45  64  89 123 162 204 246 287
#     4  10  19  32  52  72  93 124 164 209 249 294
#     4  10  20  33  49  70  99 134 170 207 248 295
#     4  11  22  34  51  74 101 133 169 209 250 299
#     4   9  18  32  48  66  92 123 156 201 254 302
#
# _framework density 16.845638999999998
#
# number of rings (size 3 to 8) (size 9 to 14) (size 15 to 20)
#    0.000    2.333    1.667    1.500    0.000    4.000 
#    0.000    1.667    0.000    0.000    0.000    4.667 
#    0.000    0.667    0.000    7.000    0.000    3.000 
#
# Total GULP energy -594873.424625 kJ/mol
# GULP energy per Si atom -12393.196346 kJ/mol
# Density = 1.680730 g / cm^3
# Si number density = 16.845639 Si / 1000 Ang^3
#
#
#
# Elastic Constant Matrix: (Units=GPa)
#
#
# Indices 1 2 3 4 5 6 
#
# 1 89.5713 31.7236 36.1418 0.0000 0.0000 0.0000
# 2 31.7236 58.5094 21.8738 0.0000 0.0000 0.0000
# 3 36.1418 21.8738 50.0342 0.0000 0.0000 0.0000
# 4 0.0000 0.0000 0.0000 18.2437 0.0000 0.0000
# 5 0.0000 0.0000 0.0000 0.0000 22.5127 0.0000
# 6 0.0000 0.0000 0.0000 0.0000 0.0000 1.9887
#
#
#
# Elastic Compliance Matrix: (Units=1/GPa)
#
#
# Indices 1 2 3 4 5 6 
#
# 1 0.017157 -0.005582 -0.009953 0.000000 0.000000 0.000000
# 2 -0.005582 0.022246 -0.005694 0.000000 0.000000 0.000000
# 3 -0.009953 -0.005694 0.029665 0.000000 0.000000 0.000000
# 4 0.000000 0.000000 0.000000 0.054813 0.000000 0.000000
# 5 0.000000 0.000000 0.000000 0.000000 0.044419 0.000000
# 6 0.000000 0.000000 0.000000 0.000000 0.000000 0.502846
#
#
# Mechanical properties :
#
#
# Convention : Reuss Voigt Hill
#
# Bulk Modulus (GPa) = 37.57777 41.95481 39.76629
# Shear Modulus (GPa) = 6.92065 15.77407 11.34736
#
# Velocity S-wave (km/s) = 2.02909 3.06337 2.59821
# Velocity P-wave (km/s) = 5.27685 6.12142 5.71476
#
# Compressibility (1/GPa) = 0.02661148
#
# Stress axis : x y z
#
# Youngs Moduli (GPa) = 58.28452 44.95155 33.70965
#
# Poissons Ratio (x) = 0.25090 0.33552
# Poissons Ratio (y) = 0.32532 0.19193
# Poissons Ratio (z) = 0.58012 0.25594
#
# Static dielectric constant tensor:
#      x y z
#    x 3.034260 0.000000 0.000000 
#    y 0.000000 3.127970 0.000000 
#    z 0.000000 0.000000 3.124820 
# 
# 
# High freq. dielectric constant tensor:
#      x y z
#    x 1.634740 0.000000 0.000000 
#    y 0.000000 1.618900 0.000000 
#    z 0.000000 0.000000 1.646030 
# 
# From -- ./inp_files/16315.got.cif
#   From: 2010.03.12/outbox.cif.g09.slc.cpg/sg65_9_cif.got.tgz:16315.got - 2010.04.10 20:52:16.
