data_PCOD8268885
_publ_section_title
;
Structure prediction by ZEFSAII (Michael W. Deem and Ramdas Pophale) SiO2 
 PCOD8268885
Probable space group: C M M M
;
_chemical_formula_sum "Si O2"
_cell_formula_units_Z 60
_cell_length_a 23.865178
_cell_length_b 5.168706
_cell_length_c 27.862714
_cell_angle_alpha 90.000000
_cell_angle_beta 90.000000
_cell_angle_gamma 90.000000
_cell_volume 3436.923969
_symmetry_space_group_name_H-M "C M M M"
_symmetry_group_IT_number 65
_symmetry_cell_setting 'orthorhombic'
loop_
_space_group_symop_operation_xyz
x,y,z
-x,-y,z
x,-y,-z
-x,y,-z
-x,-y,-z
x,y,-z
-x,y,z
x,-y,z
1/2+x,1/2+y,z
1/2-x,1/2-y,z
1/2+x,1/2-y,-z
1/2-x,1/2+y,-z
1/2-x,1/2-y,-z
1/2+x,1/2+y,-z
1/2-x,1/2+y,z
1/2+x,1/2-y,z
loop_
_atom_site_type_symbol
_atom_site_label
_atom_site_fract_x
_atom_site_fract_y
_atom_site_fract_z
Si Si1 0.212236 0.500000 0.222196
Si Si2 0.372333 0.000000 0.690626
Si Si3 0.933800 0.000000 0.279659
Si Si4 0.712767 0.000000 0.500000
Si Si5 0.371416 0.000000 0.863913
Si Si6 0.211152 0.500000 0.395759
Si Si7 0.285700 0.000000 0.055956
Si Si8 0.566445 0.500000 0.830984
O O1 0.250000 0.250000 0.226146
O O2 0.169976 0.500000 0.265757
O O3 0.180365 0.500000 0.172191
O O4 0.411387 0.749884 0.692933
O O5 0.339630 0.000000 0.640904
O O6 0.913507 0.000000 0.224325
O O7 0.000000 0.000000 0.282164
O O8 0.750000 0.750000 0.500000
O O9 0.680582 0.000000 0.551294
O O10 0.345141 0.000000 0.916964
O O11 0.410101 0.750855 0.857407
O O12 0.250000 0.750000 0.387901
O O13 0.250000 0.250000 0.070877
O O14 0.300475 0.000000 0.000000
O O15 0.500000 0.500000 0.834888
#
# Coordination Sequence:
#
# PCOD8268885 Si02
#       8
#     8   8   8   4   8   8   8   8
#     4  12  22  32  47  75 110 138 163 199 252 317
#     4  12  21  35  52  77 107 141 171 217 266 315
#     4  11  22  38  54  74 102 139 185 225 256 306
#     4   8  16  30  50  72 101 138 181 212 244 300
#     4  12  21  37  57  80 106 141 177 213 266 306
#     4  10  19  33  51  77 109 143 173 211 256 315
#     4  10  21  38  59  83 110 141 177 213 252 310
#     4  11  22  38  57  78 104 138 183 225 261 306
#
# _framework density 17.457471000000002
#
# number of rings (size 3 to 8) (size 9 to 14) (size 15 to 20)
#    0.000    1.067    2.667    5.600    0.000    2.133 
#    0.000    0.000    0.000    2.400    0.000    2.800 
#    0.000    0.000    0.000    0.000    0.000    0.000 
#
# Total GULP energy -372039.828398 kJ/mol
# GULP energy per Si atom -12401.327613 kJ/mol
# Density = 1.741774 g / cm^3
# Si number density = 17.457471 Si / 1000 Ang^3
#
#
#
# Elastic Constant Matrix: (Units=GPa)
#
#
# Indices 1 2 3 4 5 6 
#
# 1 79.0390 50.8771 47.0424 0.0000 0.0000 0.0000
# 2 50.8771 170.3936 37.9374 0.0000 0.0000 0.0000
# 3 47.0424 37.9374 106.5770 0.0000 0.0000 0.0000
# 4 0.0000 0.0000 0.0000 19.9730 0.0000 0.0000
# 5 0.0000 0.0000 0.0000 0.0000 125.2703 0.0000
# 6 0.0000 0.0000 0.0000 0.0000 0.0000 42.4724
#
#
#
# Elastic Compliance Matrix: (Units=1/GPa)
#
#
# Indices 1 2 3 4 5 6 
#
# 1 0.019666 -0.004278 -0.007157 0.000000 0.000000 0.000000
# 2 -0.004278 0.007305 -0.000712 0.000000 0.000000 0.000000
# 3 -0.007157 -0.000712 0.012796 0.000000 0.000000 0.000000
# 4 0.000000 0.000000 0.000000 0.050068 0.000000 0.000000
# 5 0.000000 0.000000 0.000000 0.000000 0.007983 0.000000
# 6 0.000000 0.000000 0.000000 0.000000 0.000000 0.023545
#
#
# Mechanical properties :
#
#
# Convention : Reuss Voigt Hill
#
# Bulk Modulus (GPa) = 64.63735 69.74704 67.19219
# Shear Modulus (GPa) = 33.15355 52.21999 42.68677
#
# Velocity S-wave (km/s) = 4.36260 5.47518 4.95025
# Velocity P-wave (km/s) = 7.90458 8.94480 8.44073
#
# Compressibility (1/GPa) = 0.01547093
#
# Stress axis : x y z
#
# Youngs Moduli (GPa) = 50.84930 136.89814 78.15243
#
# Poissons Ratio (x) = 0.58570 0.55937
# Poissons Ratio (y) = 0.21755 0.05562
# Poissons Ratio (z) = 0.36395 0.09744
#
# Static dielectric constant tensor:
#      x y z
#    x 3.133180 0.000000 0.000000 
#    y 0.000000 3.597460 0.000000 
#    z 0.000000 0.000000 3.545290 
# 
# 
# High freq. dielectric constant tensor:
#      x y z
#    x 1.660610 0.000000 0.000000 
#    y 0.000000 1.705180 0.000000 
#    z 0.000000 0.000000 1.669770 
# 
# From -- ./inp_files/75274.got.cif
#   From: 2010.03.12/outbox.cif.g09.slc.cpg/sg65_38_cif.got.tgz:75274.got - 2010.04.10 20:52:16.
