data_PCOD8268930
_publ_section_title
;
Structure prediction by ZEFSAII (Michael W. Deem and Ramdas Pophale) SiO2 
 PCOD8268930
Probable space group: C M M M
;
_chemical_formula_sum "Si O2"
_cell_formula_units_Z 64
_cell_length_a 17.337729
_cell_length_b 17.390741
_cell_length_c 11.648160
_cell_angle_alpha 90.000000
_cell_angle_beta 90.000000
_cell_angle_gamma 90.000000
_cell_volume 3512.106081
_symmetry_space_group_name_H-M "C M M M"
_symmetry_group_IT_number 65
_symmetry_cell_setting 'orthorhombic'
loop_
_space_group_symop_operation_xyz
x,y,z
-x,-y,z
x,-y,-z
-x,y,-z
-x,-y,-z
x,y,-z
-x,y,z
x,-y,z
1/2+x,1/2+y,z
1/2-x,1/2-y,z
1/2+x,1/2-y,-z
1/2-x,1/2+y,-z
1/2-x,1/2-y,-z
1/2+x,1/2+y,-z
1/2-x,1/2+y,z
1/2+x,1/2-y,z
loop_
_atom_site_type_symbol
_atom_site_label
_atom_site_fract_x
_atom_site_fract_y
_atom_site_fract_z
Si Si1 0.190114 0.139536 0.863405
Si Si2 0.084330 0.000000 0.135015
Si Si3 0.584840 0.220892 0.867283
Si Si4 0.155455 0.409095 0.258660
Si Si5 0.413140 0.089506 0.500000
O O1 0.129317 0.075359 0.826193
O O2 0.152135 0.220711 0.827850
O O3 0.263913 0.125256 0.784712
O O4 0.210446 0.135840 0.000000
O O5 0.000000 0.000000 0.193754
O O6 0.074472 0.000000 0.000000
O O7 0.500000 0.255923 0.840723
O O8 0.590114 0.137309 0.809393
O O9 0.595516 0.206100 0.000000
O O10 0.149536 0.500000 0.233071
O O11 0.139657 0.388339 0.391262
O O12 0.500000 0.128059 0.500000
O O13 0.428744 0.000000 0.500000
#
# Coordination Sequence:
#
# PCOD8268930 Si02
#       5
#    16   8  16  16   8
#     4  10  19  33  52  80 114 142 175 217 263 316
#     4   9  16  28  50  77 107 144 180 211 248 306
#     4  10  21  35  52  77 113 151 179 211 261 320
#     4  11  21  35  56  80 104 136 178 227 277 318
#     4   9  20  38  57  76 102 139 182 228 270 316
#
# _framework density 18.222684000000001
#
# number of rings (size 3 to 8) (size 9 to 14) (size 15 to 20)
#    0.000    2.000    1.250    3.000    0.000    8.000 
#    0.000    3.750    0.000    0.000    0.000    3.500 
#    0.000    0.000    0.000    0.000    0.000    0.000 
#
# Total GULP energy -396552.157731 kJ/mol
# GULP energy per Si atom -12392.254929 kJ/mol
# Density = 1.818121 g / cm^3
# Si number density = 18.222684 Si / 1000 Ang^3
#
#
#
# Elastic Constant Matrix: (Units=GPa)
#
#
# Indices 1 2 3 4 5 6 
#
# 1 110.1191 45.7782 83.3588 0.0000 0.0000 0.0000
# 2 45.7782 108.6810 51.6568 0.0000 0.0000 0.0000
# 3 83.3588 51.6568 74.0592 0.0000 0.0000 0.0000
# 4 0.0000 0.0000 0.0000 19.9967 0.0000 0.0000
# 5 0.0000 0.0000 0.0000 0.0000 -195.5601 0.0000
# 6 0.0000 0.0000 0.0000 0.0000 0.0000 29.2759
#
#
#
# Elastic Compliance Matrix: (Units=1/GPa)
#
#
# Indices 1 2 3 4 5 6 
#
# 1 0.070480 0.011996 -0.087697 0.000000 0.000000 0.000000
# 2 0.011996 0.015806 -0.024527 0.000000 0.000000 0.000000
# 3 -0.087697 -0.024527 0.129319 0.000000 0.000000 0.000000
# 4 0.000000 0.000000 0.000000 0.050008 0.000000 0.000000
# 5 0.000000 0.000000 0.000000 0.000000 -0.005114 0.000000
# 6 0.000000 0.000000 0.000000 0.000000 0.000000 0.034158
#
#
# Mechanical properties :
#
#
# Convention : Reuss Voigt Hill
#
# Bulk Modulus (GPa) = 66.01081 72.71632 69.36356
# Shear Modulus (GPa) = 9.99674 -21.78646 -5.89486
#
# Velocity S-wave (km/s) = 2.34474 -3.46145 -1.80054
# Velocity P-wave (km/s) = 6.60557 4.90055 5.81588
#
# Compressibility (1/GPa) = 0.01514903
#
# Stress axis : x y z
#
# Youngs Moduli (GPa) = 14.18849 63.26603 7.73281
#
# Poissons Ratio (x) = -0.75892 0.67814
# Poissons Ratio (y) = -0.17020 0.18966
# Poissons Ratio (z) = 1.24428 1.55172
#
# Static dielectric constant tensor:
#      x y z
#    x 3.718080 0.000000 0.000000 
#    y 0.000000 2.842530 0.000000 
#    z 0.000000 0.000000 3.273390 
# 
# 
# High freq. dielectric constant tensor:
#      x y z
#    x 1.725450 0.000000 0.000000 
#    y 0.000000 1.708690 0.000000 
#    z 0.000000 0.000000 1.666170 
# 
# From -- ./inp_files/23965.got.cif
#   From: 2010.03.12/outbox.cif.g09.slc.cpg/sg65_12_cif.got.tgz:23965.got - 2010.04.10 20:52:16.
