data_PCOD8268554
_publ_section_title
;
Structure prediction by ZEFSAII (Michael W. Deem and Ramdas Pophale) SiO2 
 PCOD8268554
Probable space group: C M M M
;
_chemical_formula_sum "Si O2"
_cell_formula_units_Z 88
_cell_length_a 19.751809
_cell_length_b 8.671043
_cell_length_c 28.156451
_cell_angle_alpha 90.000000
_cell_angle_beta 90.000000
_cell_angle_gamma 90.000000
_cell_volume 4822.321157
_symmetry_space_group_name_H-M "C M M M"
_symmetry_group_IT_number 65
_symmetry_cell_setting 'orthorhombic'
loop_
_space_group_symop_operation_xyz
x,y,z
-x,-y,z
x,-y,-z
-x,y,-z
-x,-y,-z
x,y,-z
-x,y,z
x,-y,z
1/2+x,1/2+y,z
1/2-x,1/2-y,z
1/2+x,1/2-y,-z
1/2-x,1/2+y,-z
1/2-x,1/2-y,-z
1/2+x,1/2+y,-z
1/2-x,1/2+y,z
1/2+x,1/2-y,z
loop_
_atom_site_type_symbol
_atom_site_label
_atom_site_fract_x
_atom_site_fract_y
_atom_site_fract_z
Si Si1 0.580857 0.173737 0.500000
Si Si2 0.420879 0.178601 0.307267
Si Si3 0.924434 0.683244 0.052653
Si Si4 0.177889 0.818434 0.767453
Si Si5 0.080265 0.827719 0.404606
Si Si6 0.677493 0.816300 0.131802
O O1 0.500000 0.177051 0.500000
O O2 0.610122 0.257472 0.453211
O O3 0.608001 0.000000 0.500000
O O4 0.500000 0.215430 0.299860
O O5 0.379196 0.282109 0.270917
O O6 0.397435 0.222459 0.360367
O O7 0.404841 0.000000 0.298467
O O8 0.924146 0.500000 0.054444
O O9 0.874229 0.749266 0.092467
O O10 0.000000 0.744657 0.063503
O O11 0.901504 0.738621 0.000000
O O12 0.250000 0.750000 0.751052
O O13 0.154085 0.744493 0.817006
O O14 0.185969 0.000000 0.773866
O O15 0.000000 0.831624 0.408385
O O16 0.109181 0.000000 0.397651
O O17 0.750000 0.750000 0.117758
O O18 0.679972 0.000000 0.132960
#
# Coordination Sequence:
#
# PCOD8268554 Si02
#       6
#     8  16  16  16  16  16
#     4   9  15  23  37  59  90 129 168 205 250 301
#     4  10  20  34  52  75 103 133 167 208 254 305
#     4   8  15  29  49  73 100 130 165 203 242 288
#     4  11  22  37  55  74 100 133 170 211 255 304
#     4   9  16  26  41  64  95 129 165 206 252 300
#     4  10  19  32  51  74  99 128 163 204 249 296
#
# _framework density 18.248474000000002
#
# number of rings (size 3 to 8) (size 9 to 14) (size 15 to 20)
#    0.000    2.455    0.000    5.182    0.000    5.455 
#    0.000    1.818    0.000    3.273    0.000    5.727 
#    0.000    0.000    0.000    0.000    0.000    0.000 
#
# Total GULP energy -545554.503308 kJ/mol
# GULP energy per Si atom -12398.965984 kJ/mol
# Density = 1.820694 g / cm^3
# Si number density = 18.248474 Si / 1000 Ang^3
#
#
#
# Elastic Constant Matrix: (Units=GPa)
#
#
# Indices 1 2 3 4 5 6 
#
# 1 62.0536 24.8283 68.5334 0.0000 0.0000 0.0000
# 2 24.8283 90.8568 34.4867 0.0000 0.0000 0.0000
# 3 68.5334 34.4867 144.6224 0.0000 0.0000 0.0000
# 4 0.0000 0.0000 0.0000 24.8128 0.0000 0.0000
# 5 0.0000 0.0000 0.0000 0.0000 5.4355 0.0000
# 6 0.0000 0.0000 0.0000 0.0000 0.0000 21.6347
#
#
#
# Elastic Compliance Matrix: (Units=1/GPa)
#
#
# Indices 1 2 3 4 5 6 
#
# 1 0.034836 -0.003577 -0.015655 0.000000 0.000000 0.000000
# 2 -0.003577 0.012469 -0.001278 0.000000 0.000000 0.000000
# 3 -0.015655 -0.001278 0.014638 0.000000 0.000000 0.000000
# 4 0.000000 0.000000 0.000000 0.040302 0.000000 0.000000
# 5 0.000000 0.000000 0.000000 0.000000 0.183977 0.000000
# 6 0.000000 0.000000 0.000000 0.000000 0.000000 0.046222
#
#
# Mechanical properties :
#
#
# Convention : Reuss Voigt Hill
#
# Bulk Modulus (GPa) = 47.79646 61.46994 54.63320
# Shear Modulus (GPa) = 13.14269 21.68887 17.41578
#
# Velocity S-wave (km/s) = 2.68658 3.45125 3.09264
# Velocity P-wave (km/s) = 5.98937 7.04554 6.53881
#
# Compressibility (1/GPa) = 0.02092205
#
# Stress axis : x y z
#
# Youngs Moduli (GPa) = 28.70573 80.19843 68.31568
#
# Poissons Ratio (x) = 0.28690 1.06949
# Poissons Ratio (y) = 0.10269 0.08732
# Poissons Ratio (z) = 0.44939 0.10250
#
# Static dielectric constant tensor:
#      x y z
#    x 3.128980 0.000000 0.000000 
#    y 0.000000 3.338160 0.000000 
#    z 0.000000 0.000000 3.618690 
# 
# 
# High freq. dielectric constant tensor:
#      x y z
#    x 1.668780 0.000000 0.000000 
#    y 0.000000 1.706890 0.000000 
#    z 0.000000 0.000000 1.721060 
# 
# From -- ./inp_files/75381.got.cif
#   From: 2010.03.12/outbox.cif.g09.slc.cpg/sg65_38_cif.got.tgz:75381.got - 2010.04.10 20:52:16.
