data_PCOD8268861
_publ_section_title
;
Structure prediction by ZEFSAII (Michael W. Deem and Ramdas Pophale) SiO2 
 PCOD8268861
Probable space group: C M M M
;
_chemical_formula_sum "Si O2"
_cell_formula_units_Z 104
_cell_length_a 31.683475
_cell_length_b 24.039470
_cell_length_c 7.687244
_cell_angle_alpha 90.000000
_cell_angle_beta 90.000000
_cell_angle_gamma 90.000000
_cell_volume 5855.019732
_symmetry_space_group_name_H-M "C M M M"
_symmetry_group_IT_number 65
_symmetry_cell_setting 'orthorhombic'
loop_
_space_group_symop_operation_xyz
x,y,z
-x,-y,z
x,-y,-z
-x,y,-z
-x,-y,-z
x,y,-z
-x,y,z
x,-y,z
1/2+x,1/2+y,z
1/2-x,1/2-y,z
1/2+x,1/2-y,-z
1/2-x,1/2+y,-z
1/2-x,1/2-y,-z
1/2+x,1/2+y,-z
1/2-x,1/2+y,z
1/2+x,1/2-y,z
loop_
_atom_site_type_symbol
_atom_site_label
_atom_site_fract_x
_atom_site_fract_y
_atom_site_fract_z
Si Si1 0.763065 0.934145 0.000000
Si Si2 0.793964 0.433905 0.692553
Si Si3 0.860313 0.066394 0.000000
Si Si4 0.500000 0.438474 0.293918
Si Si5 0.585488 0.383009 0.301220
Si Si6 0.612112 0.938233 0.706614
Si Si7 0.452670 0.848120 0.706032
Si Si8 0.952255 0.774076 0.201557
O O1 0.740245 0.909601 0.172097
O O2 0.811502 0.916698 0.000000
O O3 0.757919 0.000000 0.000000
O O4 0.784679 0.408967 0.500000
O O5 0.791253 0.500000 0.681707
O O6 0.840948 0.417625 0.757958
O O7 0.878471 0.093531 0.824308
O O8 0.867581 0.000000 0.000000
O O9 0.500000 0.500000 0.213377
O O10 0.500000 0.440287 0.500000
O O11 0.541575 0.407440 0.227799
O O12 0.595613 0.401479 0.500000
O O13 0.580133 0.316234 0.295572
O O14 0.608782 0.940578 0.500000
O O15 0.577963 0.895321 0.785336
O O16 0.603094 0.000000 0.782801
O O17 0.452640 0.851141 0.500000
O O18 0.500000 0.857846 0.779256
O O19 0.435567 0.788129 0.765823
O O20 0.000000 0.780118 0.277992
O O21 0.952036 0.788453 0.000000
#
# Coordination Sequence:
#
# PCOD8268861 Si02
#       8
#     8  16   8   8  16  16  16  16
#     4   9  18  32  49  71  98 129 164 199 245 307
#     4   8  14  27  48  71  96 128 167 209 248 291
#     4  11  24  37  50  76 110 134 160 201 251 316
#     4   9  18  31  49  73  98 127 164 198 236 295
#     4  11  21  35  54  74  99 135 172 208 251 293
#     4   8  14  26  45  72 105 137 171 210 251 300
#     4   9  17  28  45  71 103 138 174 212 254 297
#     4  10  19  33  51  70  95 131 178 224 255 285
#
# _framework density 17.762536999999998
#
# number of rings (size 3 to 8) (size 9 to 14) (size 15 to 20)
#    0.000    2.692    1.538    1.846    0.000    2.769 
#    1.385    3.846    0.000    0.000    0.000    4.308 
#    0.000    4.923    0.000    0.000    0.000    0.000 
#
# Total GULP energy -644591.600205 kJ/mol
# GULP energy per Si atom -12395.992312 kJ/mol
# Density = 1.772211 g / cm^3
# Si number density = 17.762537 Si / 1000 Ang^3
#
#
#
# Elastic Constant Matrix: (Units=GPa)
#
#
# Indices 1 2 3 4 5 6 
#
# 1 126.5194 60.9475 50.6434 0.0000 0.0000 0.0000
# 2 60.9475 95.4553 27.2319 0.0000 0.0000 0.0000
# 3 50.6434 27.2319 76.3889 0.0000 0.0000 0.0000
# 4 0.0000 0.0000 0.0000 15.6562 0.0000 0.0000
# 5 0.0000 0.0000 0.0000 0.0000 20.6676 0.0000
# 6 0.0000 0.0000 0.0000 0.0000 0.0000 8.3621
#
#
#
# Elastic Compliance Matrix: (Units=1/GPa)
#
#
# Indices 1 2 3 4 5 6 
#
# 1 0.013988 -0.006997 -0.006779 0.000000 0.000000 0.000000
# 2 -0.006997 0.015163 -0.000766 0.000000 0.000000 0.000000
# 3 -0.006779 -0.000766 0.017859 0.000000 0.000000 0.000000
# 4 0.000000 0.000000 0.000000 0.063872 0.000000 0.000000
# 5 0.000000 0.000000 0.000000 0.000000 0.048385 0.000000
# 6 0.000000 0.000000 0.000000 0.000000 0.000000 0.119588
#
#
# Mechanical properties :
#
#
# Convention : Reuss Voigt Hill
#
# Bulk Modulus (GPa) = 55.79279 64.00102 59.89691
# Shear Modulus (GPa) = 15.92788 19.57323 17.75056
#
# Velocity S-wave (km/s) = 2.99776 3.32315 3.16464
# Velocity P-wave (km/s) = 6.59247 7.12980 6.86640
#
# Compressibility (1/GPa) = 0.01792346
#
# Stress axis : x y z
#
# Youngs Moduli (GPa) = 71.48774 65.95214 55.99561
#
# Poissons Ratio (x) = 0.46150 0.37961
# Poissons Ratio (y) = 0.50023 0.04290
# Poissons Ratio (z) = 0.48464 0.05053
#
# Static dielectric constant tensor:
#      x y z
#    x 3.327940 0.000000 0.000000 
#    y 0.000000 3.238100 0.000000 
#    z 0.000000 0.000000 3.266170 
# 
# 
# High freq. dielectric constant tensor:
#      x y z
#    x 1.663980 0.000000 0.000000 
#    y 0.000000 1.660030 0.000000 
#    z 0.000000 0.000000 1.687550 
# 
# From -- ./inp_files/16833.got.cif
#   From: 2010.03.12/outbox.cif.g09.slc.cpg/sg65_9_cif.got.tgz:16833.got - 2010.04.10 20:52:16.
