data_PCOD8268210
_publ_section_title
;
Structure prediction by ZEFSAII (Michael W. Deem and Ramdas Pophale) SiO2 
 PCOD8268210
Probable space group: C M M M
;
_chemical_formula_sum "Si O2"
_cell_formula_units_Z 64
_cell_length_a 7.491441
_cell_length_b 18.610652
_cell_length_c 22.214463
_cell_angle_alpha 90.000000
_cell_angle_beta 90.000000
_cell_angle_gamma 90.000000
_cell_volume 3097.153792
_symmetry_space_group_name_H-M "C M M M"
_symmetry_group_IT_number 65
_symmetry_cell_setting 'orthorhombic'
loop_
_space_group_symop_operation_xyz
x,y,z
-x,-y,z
x,-y,-z
-x,y,-z
-x,-y,-z
x,y,-z
-x,y,z
x,-y,z
1/2+x,1/2+y,z
1/2-x,1/2-y,z
1/2+x,1/2-y,-z
1/2-x,1/2+y,-z
1/2-x,1/2-y,-z
1/2+x,1/2+y,-z
1/2-x,1/2+y,z
1/2+x,1/2-y,z
loop_
_atom_site_type_symbol
_atom_site_label
_atom_site_fract_x
_atom_site_fract_y
_atom_site_fract_z
Si Si1 0.713217 0.581186 0.385472
Si Si2 0.708111 0.670212 0.274991
Si Si3 0.708644 0.333745 0.500000
Si Si4 0.290111 0.668848 0.139930
Si Si5 0.000000 0.583690 0.070206
O O1 0.500000 0.583356 0.385121
O O2 0.783978 0.500000 0.391573
O O3 0.790094 0.614563 0.323279
O O4 0.790268 0.628118 0.440838
O O5 0.500000 0.658163 0.270952
O O6 0.750000 0.750000 0.298281
O O7 0.785055 0.657666 0.208022
O O8 0.500000 0.346984 0.500000
O O9 0.750000 0.250000 0.500000
O O10 0.500000 0.651543 0.133870
O O11 0.250000 0.750000 0.119540
O O12 0.180929 0.616037 0.097437
O O13 0.000000 0.500000 0.084434
O O14 0.000000 0.600624 0.000000
#
# Coordination Sequence:
#
# PCOD8268210 Si02
#       5
#    16  16   8  16   8
#     4   9  17  30  48  74 104 137 181 227 275 335
#     4   9  18  31  54  80 108 142 181 233 283 336
#     4  10  19  31  51  73  97 136 180 228 280 330
#     4  10  20  39  65  93 122 160 208 254 302 358
#     4  11  26  44  62  92 131 164 200 252 308 364
#
# _framework density 20.664134000000001
#
# number of rings (size 3 to 8) (size 9 to 14) (size 15 to 20)
#    0.000    2.375    1.250    1.125    1.750    4.000 
#    0.000    3.750    0.000    3.000    0.000    0.000 
#    0.000    0.000    0.000    0.000    0.000    0.000 
#
# Total GULP energy -396741.589005 kJ/mol
# GULP energy per Si atom -12398.174656 kJ/mol
# Density = 2.061710 g / cm^3
# Si number density = 20.664134 Si / 1000 Ang^3
#
#
#
# Elastic Constant Matrix: (Units=GPa)
#
#
# Indices 1 2 3 4 5 6 
#
# 1 68.9030 26.5622 36.1032 0.0000 0.0000 0.0000
# 2 26.5622 178.1608 110.9792 0.0000 0.0000 0.0000
# 3 36.1032 110.9792 147.5079 0.0000 0.0000 0.0000
# 4 0.0000 0.0000 0.0000 42.0014 0.0000 0.0000
# 5 0.0000 0.0000 0.0000 0.0000 -41.8715 0.0000
# 6 0.0000 0.0000 0.0000 0.0000 0.0000 25.0342
#
#
#
# Elastic Compliance Matrix: (Units=1/GPa)
#
#
# Indices 1 2 3 4 5 6 
#
# 1 0.016649 0.000106 -0.004154 0.000000 0.000000 0.000000
# 2 0.000106 0.010564 -0.007974 0.000000 0.000000 0.000000
# 3 -0.004154 -0.007974 0.013795 0.000000 0.000000 0.000000
# 4 0.000000 0.000000 0.000000 0.023809 0.000000 0.000000
# 5 0.000000 0.000000 0.000000 0.000000 -0.023883 0.000000
# 6 0.000000 0.000000 0.000000 0.000000 0.000000 0.039945
#
#
# Mechanical properties :
#
#
# Convention : Reuss Voigt Hill
#
# Bulk Modulus (GPa) = 58.95075 82.42901 70.68988
# Shear Modulus (GPa) = 45.21585 19.76129 32.48857
#
# Velocity S-wave (km/s) = 4.68282 3.09578 3.96943
# Velocity P-wave (km/s) = 7.60450 7.26326 7.43584
#
# Compressibility (1/GPa) = 0.01696331
#
# Stress axis : x y z
#
# Youngs Moduli (GPa) = 60.06280 94.65836 72.48763
#
# Poissons Ratio (x) = -0.01000 0.30114
# Poissons Ratio (y) = -0.00634 0.57802
# Poissons Ratio (z) = 0.24953 0.75481
#
# Static dielectric constant tensor:
#      x y z
#    x 3.528560 0.000000 0.000000 
#    y 0.000000 3.733660 0.000000 
#    z 0.000000 0.000000 4.066780 
# 
# 
# High freq. dielectric constant tensor:
#      x y z
#    x 1.794640 0.000000 0.000000 
#    y 0.000000 1.805000 0.000000 
#    z 0.000000 0.000000 1.813550 
# 
# From -- ./inp_files/59150.got.cif
#   From: 2010.03.12/outbox.cif.g09.slc.cpg/sg65_30_cif.got.tgz:59150.got - 2010.04.10 20:52:16.
