data_PCOD8268927
_publ_section_title
;
Structure prediction by ZEFSAII (Michael W. Deem and Ramdas Pophale) SiO2 
 PCOD8268927
Probable space group: C M M M
;
_chemical_formula_sum "Si O2"
_cell_formula_units_Z 104
_cell_length_a 8.736277
_cell_length_b 28.518420
_cell_length_c 23.483530
_cell_angle_alpha 90.000000
_cell_angle_beta 90.000000
_cell_angle_gamma 90.000000
_cell_volume 5850.799778
_symmetry_space_group_name_H-M "C M M M"
_symmetry_group_IT_number 65
_symmetry_cell_setting 'orthorhombic'
loop_
_space_group_symop_operation_xyz
x,y,z
-x,-y,z
x,-y,-z
-x,y,-z
-x,-y,-z
x,y,-z
-x,y,z
x,-y,z
1/2+x,1/2+y,z
1/2-x,1/2-y,z
1/2+x,1/2-y,-z
1/2-x,1/2+y,-z
1/2-x,1/2-y,-z
1/2+x,1/2+y,-z
1/2-x,1/2+y,z
1/2+x,1/2-y,z
loop_
_atom_site_type_symbol
_atom_site_label
_atom_site_fract_x
_atom_site_fract_y
_atom_site_fract_z
Si Si1 0.676990 0.137448 0.936491
Si Si2 0.323754 0.200307 0.500000
Si Si3 0.324341 0.552609 0.116482
Si Si4 0.680573 0.198877 0.830799
Si Si5 0.821866 0.553008 0.236765
Si Si6 0.319012 0.801787 0.623391
Si Si7 0.179641 0.143225 0.273847
O O1 0.500000 0.125089 0.926547
O O2 0.773552 0.089591 0.931122
O O3 0.732374 0.175992 0.890756
O O4 0.705176 0.157646 0.000000
O O5 0.500000 0.211392 0.500000
O O6 0.250000 0.250000 0.500000
O O7 0.282047 0.175577 0.439643
O O8 0.500000 0.561169 0.134227
O O9 0.301976 0.500000 0.092212
O O10 0.218558 0.561032 0.171024
O O11 0.500000 0.203149 0.826167
O O12 0.750000 0.250000 0.825816
O O13 0.739167 0.167102 0.779596
O O14 0.781207 0.500000 0.255521
O O15 0.723429 0.588293 0.275384
O O16 0.000000 0.563947 0.245148
O O17 0.500000 0.799635 0.635631
O O18 0.250000 0.750000 0.629311
O O19 0.237001 0.835220 0.667600
O O20 0.000000 0.150270 0.267989
#
# Coordination Sequence:
#
# PCOD8268927 Si02
#       7
#    16   8  16  16  16  16  16
#     4  10  22  39  57  76 100 134 176 217 262 319
#     4   8  16  30  50  74 105 146 185 224 262 305
#     4  10  20  34  54  80 107 134 166 208 259 316
#     4  11  23  39  57  76 102 135 174 220 268 315
#     4  10  20  35  56  80 106 137 171 211 262 317
#     4  10  19  33  52  78 112 148 187 224 264 308
#     4  12  23  35  54  81 111 141 177 217 262 312
#
# _framework density 17.775347
#
# number of rings (size 3 to 8) (size 9 to 14) (size 15 to 20)
#    0.000    1.692    1.538    3.692    0.000    4.000 
#    0.000    1.538    0.000    0.000    0.000    0.538 
#    0.000    4.308    0.000    0.000    0.000    0.000 
#
# Total GULP energy -644692.413533 kJ/mol
# GULP energy per Si atom -12397.931029 kJ/mol
# Density = 1.773489 g / cm^3
# Si number density = 17.775347 Si / 1000 Ang^3
#
#
#
# Elastic Constant Matrix: (Units=GPa)
#
#
# Indices 1 2 3 4 5 6 
#
# 1 64.3952 34.3194 34.1813 0.0000 0.0000 0.0000
# 2 34.3194 97.2994 49.3553 0.0000 0.0000 0.0000
# 3 34.1813 49.3553 119.7676 0.0000 0.0000 0.0000
# 4 0.0000 0.0000 0.0000 21.8411 0.0000 0.0000
# 5 0.0000 0.0000 0.0000 0.0000 18.5708 0.0000
# 6 0.0000 0.0000 0.0000 0.0000 0.0000 30.1088
#
#
#
# Elastic Compliance Matrix: (Units=1/GPa)
#
#
# Indices 1 2 3 4 5 6 
#
# 1 0.020276 -0.005331 -0.003590 0.000000 0.000000 0.000000
# 2 -0.005331 0.014395 -0.004411 0.000000 0.000000 0.000000
# 3 -0.003590 -0.004411 0.011192 0.000000 0.000000 0.000000
# 4 0.000000 0.000000 0.000000 0.045785 0.000000 0.000000
# 5 0.000000 0.000000 0.000000 0.000000 0.053848 0.000000
# 6 0.000000 0.000000 0.000000 0.000000 0.000000 0.033213
#
#
# Mechanical properties :
#
#
# Convention : Reuss Voigt Hill
#
# Bulk Modulus (GPa) = 52.08373 57.46379 54.77376
# Shear Modulus (GPa) = 23.61040 25.01122 24.31081
#
# Velocity S-wave (km/s) = 3.64849 3.75517 3.70221
# Velocity P-wave (km/s) = 6.86392 7.15540 7.01117
#
# Compressibility (1/GPa) = 0.01919985
#
# Stress axis : x y z
#
# Youngs Moduli (GPa) = 49.32041 69.46782 89.35198
#
# Poissons Ratio (x) = 0.37031 0.32076
# Poissons Ratio (y) = 0.26291 0.39411
# Poissons Ratio (z) = 0.17705 0.30641
#
# Static dielectric constant tensor:
#      x y z
#    x 3.402100 0.000000 0.000000 
#    y 0.000000 3.333700 0.000000 
#    z 0.000000 0.000000 3.144710 
# 
# 
# High freq. dielectric constant tensor:
#      x y z
#    x 1.702230 0.000000 0.000000 
#    y 0.000000 1.675900 0.000000 
#    z 0.000000 0.000000 1.677900 
# 
# From -- ./inp_files/60785.got.cif
#   From: 2010.03.12/outbox.cif.g09.slc.cpg/sg65_31_cif.got.tgz:60785.got - 2010.04.10 20:52:16.
