data_PCOD8268952
_publ_section_title
;
Structure prediction by ZEFSAII (Michael W. Deem and Ramdas Pophale) SiO2 
 PCOD8268952
Probable space group: C M M M
;
_chemical_formula_sum "Si O2"
_cell_formula_units_Z 88
_cell_length_a 28.773420
_cell_length_b 18.103830
_cell_length_c 9.378238
_cell_angle_alpha 90.000000
_cell_angle_beta 90.000000
_cell_angle_gamma 90.000000
_cell_volume 4885.209556
_symmetry_space_group_name_H-M "C M M M"
_symmetry_group_IT_number 65
_symmetry_cell_setting 'orthorhombic'
loop_
_space_group_symop_operation_xyz
x,y,z
-x,-y,z
x,-y,-z
-x,y,-z
-x,-y,-z
x,y,-z
-x,y,z
x,-y,z
1/2+x,1/2+y,z
1/2-x,1/2-y,z
1/2+x,1/2-y,-z
1/2-x,1/2+y,-z
1/2-x,1/2-y,-z
1/2+x,1/2+y,-z
1/2-x,1/2+y,z
1/2+x,1/2-y,z
loop_
_atom_site_type_symbol
_atom_site_label
_atom_site_fract_x
_atom_site_fract_y
_atom_site_fract_z
Si Si1 0.387375 0.859965 0.169324
Si Si2 0.884006 0.213230 0.330355
Si Si3 0.552861 0.000000 0.169245
Si Si4 0.213216 0.586277 0.838299
Si Si5 0.220028 0.820972 0.334523
Si Si6 0.948012 0.081425 0.669315
O O1 0.402795 0.786191 0.251713
O O2 0.334359 0.876146 0.214910
O O3 0.420400 0.926678 0.222832
O O4 0.391976 0.848797 0.000000
O O5 0.887645 0.225292 0.500000
O O6 0.831933 0.193971 0.281762
O O7 0.914560 0.145109 0.272396
O O8 0.500000 0.000000 0.228541
O O9 0.553022 0.000000 0.000000
O O10 0.205639 0.500000 0.822743
O O11 0.257518 0.609781 0.745732
O O12 0.223563 0.609369 0.000000
O O13 0.221017 0.840451 0.500000
O O14 0.250000 0.750000 0.295711
O O15 0.947597 0.083080 0.500000
O O16 0.000000 0.096616 0.726056
O O17 0.931195 0.000000 0.721448
#
# Coordination Sequence:
#
# PCOD8268952 Si02
#       6
#    16  16   8  16  16  16
#     4  10  19  33  53  75 100 135 175 212 253 301
#     4  10  20  33  52  78 106 132 166 211 255 305
#     4   9  18  34  55  77 103 137 179 223 260 303
#     4  10  20  34  52  73  98 133 177 214 247 296
#     4  10  20  33  48  72 104 135 167 203 249 301
#     4   8  15  30  52  75  98 127 164 205 250 300
#
# _framework density 18.013556000000001
#
# number of rings (size 3 to 8) (size 9 to 14) (size 15 to 20)
#    0.000    2.455    2.727    0.545    0.000    2.909 
#    0.000    2.273    0.000    1.091    0.000    1.273 
#    0.000    0.000    0.000    0.000    0.000    0.000 
#
# Total GULP energy -545556.718901 kJ/mol
# GULP energy per Si atom -12399.016339 kJ/mol
# Density = 1.797256 g / cm^3
# Si number density = 18.013556 Si / 1000 Ang^3
#
#
#
# Elastic Constant Matrix: (Units=GPa)
#
#
# Indices 1 2 3 4 5 6 
#
# 1 119.9399 84.9251 26.9677 0.0000 0.0000 0.0000
# 2 84.9251 141.0282 36.9748 0.0000 0.0000 0.0000
# 3 26.9677 36.9748 27.1214 0.0000 0.0000 0.0000
# 4 0.0000 0.0000 0.0000 31.8865 0.0000 0.0000
# 5 0.0000 0.0000 0.0000 0.0000 7.5748 0.0000
# 6 0.0000 0.0000 0.0000 0.0000 0.0000 35.2757
#
#
#
# Elastic Compliance Matrix: (Units=1/GPa)
#
#
# Indices 1 2 3 4 5 6 
#
# 1 0.014808 -0.007870 -0.003995 0.000000 0.000000 0.000000
# 2 -0.007870 0.015217 -0.012921 0.000000 0.000000 0.000000
# 3 -0.003995 -0.012921 0.058459 0.000000 0.000000 0.000000
# 4 0.000000 0.000000 0.000000 0.031361 0.000000 0.000000
# 5 0.000000 0.000000 0.000000 0.000000 0.132016 0.000000
# 6 0.000000 0.000000 0.000000 0.000000 0.000000 0.028348
#
#
# Mechanical properties :
#
#
# Convention : Reuss Voigt Hill
#
# Bulk Modulus (GPa) = 25.69851 65.09162 45.39507
# Shear Modulus (GPa) = 14.58777 24.22886 19.40832
#
# Velocity S-wave (km/s) = 2.84882 3.67145 3.28598
# Velocity P-wave (km/s) = 5.01181 7.36111 6.29699
#
# Compressibility (1/GPa) = 0.03891276
#
# Stress axis : x y z
#
# Youngs Moduli (GPa) = 67.53063 65.71431 17.10595
#
# Poissons Ratio (x) = 0.51715 0.06835
# Poissons Ratio (y) = 0.53145 0.22102
# Poissons Ratio (z) = 0.26981 0.84909
#
# Static dielectric constant tensor:
#      x y z
#    x 3.531070 0.000000 0.000000 
#    y 0.000000 3.452260 0.000000 
#    z 0.000000 0.000000 2.946130 
# 
# 
# High freq. dielectric constant tensor:
#      x y z
#    x 1.699800 0.000000 0.000000 
#    y 0.000000 1.707510 0.000000 
#    z 0.000000 0.000000 1.658730 
# 
# From -- ./inp_files/10033.got.cif
#   From: 2010.03.12/outbox.cif.g09.slc.cpg/sg65_6_cif.got.tgz:10033.got - 2010.04.10 20:52:16.
