data_PCOD8268607
_publ_section_title
;
Structure prediction by ZEFSAII (Michael W. Deem and Ramdas Pophale) SiO2 
 PCOD8268607
Probable space group: C M M M
;
_chemical_formula_sum "Si O2"
_cell_formula_units_Z 72
_cell_length_a 26.765202
_cell_length_b 9.704457
_cell_length_c 13.815502
_cell_angle_alpha 90.000000
_cell_angle_beta 90.000000
_cell_angle_gamma 90.000000
_cell_volume 3588.462693
_symmetry_space_group_name_H-M "C M M M"
_symmetry_group_IT_number 65
_symmetry_cell_setting 'orthorhombic'
loop_
_space_group_symop_operation_xyz
x,y,z
-x,-y,z
x,-y,-z
-x,y,-z
-x,-y,-z
x,y,-z
-x,y,z
x,-y,z
1/2+x,1/2+y,z
1/2-x,1/2-y,z
1/2+x,1/2-y,-z
1/2-x,1/2+y,-z
1/2-x,1/2-y,-z
1/2+x,1/2+y,-z
1/2-x,1/2+y,z
1/2+x,1/2-y,z
loop_
_atom_site_type_symbol
_atom_site_label
_atom_site_fract_x
_atom_site_fract_y
_atom_site_fract_z
Si Si1 0.558691 0.000000 0.606460
Si Si2 0.609142 0.158154 0.890519
Si Si3 0.057747 0.770602 0.281497
Si Si4 0.797489 0.339008 0.243568
Si Si5 0.852555 0.150374 0.610608
O O1 0.575872 0.869842 0.667272
O O2 0.500000 0.000000 0.594660
O O3 0.583754 0.000000 0.500000
O O4 0.568848 0.251742 0.832668
O O5 0.663609 0.174148 0.843976
O O6 0.591163 0.000000 0.888053
O O7 0.611257 0.213718 0.000000
O O8 0.094614 0.877107 0.333348
O O9 0.000000 0.811354 0.297924
O O10 0.784597 0.500000 0.263863
O O11 0.750000 0.250000 0.210004
O O12 0.818922 0.268438 0.340802
O O13 0.862700 0.194312 0.500000
O O14 0.825609 0.000000 0.614825
#
# Coordination Sequence:
#
# PCOD8268607 Si02
#       5
#     8  16  16  16  16
#     4   9  16  26  43  71 105 141 182 226 267 313
#     4   9  18  33  53  80 114 148 186 232 282 337
#     4  10  19  32  51  78 112 150 192 234 277 324
#     4  10  21  38  61  86 112 143 181 227 280 338
#     4  10  22  38  56  81 114 151 189 229 277 332
#
# _framework density 20.064302999999999
#
# number of rings (size 3 to 8) (size 9 to 14) (size 15 to 20)
#    0.000    2.333    1.111    1.333    1.556    3.556 
#    0.000    2.222    0.000   16.000    0.000    6.222 
#    0.000    0.000    0.000    0.000    0.000    0.000 
#
# Total GULP energy -446170.589427 kJ/mol
# GULP energy per Si atom -12393.627484 kJ/mol
# Density = 2.001864 g / cm^3
# Si number density = 20.064303 Si / 1000 Ang^3
#
#
#
# Elastic Constant Matrix: (Units=GPa)
#
#
# Indices 1 2 3 4 5 6 
#
# 1 56.8876 11.3429 7.4409 0.0000 0.0000 0.0000
# 2 11.3429 90.1728 25.5434 0.0000 0.0000 0.0000
# 3 7.4409 25.5434 146.8436 0.0000 0.0000 0.0000
# 4 0.0000 0.0000 0.0000 19.0717 0.0000 0.0000
# 5 0.0000 0.0000 0.0000 0.0000 18.0077 0.0000
# 6 0.0000 0.0000 0.0000 0.0000 0.0000 24.1275
#
#
#
# Elastic Compliance Matrix: (Units=1/GPa)
#
#
# Indices 1 2 3 4 5 6 
#
# 1 0.018072 -0.002118 -0.000547 0.000000 0.000000 0.000000
# 2 -0.002118 0.011913 -0.001965 0.000000 0.000000 0.000000
# 3 -0.000547 -0.001965 0.007179 0.000000 0.000000 0.000000
# 4 0.000000 0.000000 0.000000 0.052434 0.000000 0.000000
# 5 0.000000 0.000000 0.000000 0.000000 0.055532 0.000000
# 6 0.000000 0.000000 0.000000 0.000000 0.000000 0.041446
#
#
# Mechanical properties :
#
#
# Convention : Reuss Voigt Hill
#
# Bulk Modulus (GPa) = 35.83740 42.50652 39.17196
# Shear Modulus (GPa) = 24.37371 28.87984 26.62677
#
# Velocity S-wave (km/s) = 3.48915 3.79801 3.64685
# Velocity P-wave (km/s) = 5.84228 6.36116 6.10723
#
# Compressibility (1/GPa) = 0.02790381
#
# Stress axis : x y z
#
# Youngs Moduli (GPa) = 55.33274 83.94272 139.28561
#
# Poissons Ratio (x) = 0.17782 0.07623
# Poissons Ratio (y) = 0.11721 0.27368
# Poissons Ratio (z) = 0.03028 0.16494
#
# Static dielectric constant tensor:
#      x y z
#    x 3.484830 0.000000 0.000000 
#    y 0.000000 3.743410 0.000000 
#    z 0.000000 0.000000 3.683720 
# 
# 
# High freq. dielectric constant tensor:
#      x y z
#    x 1.771600 0.000000 0.000000 
#    y 0.000000 1.775110 0.000000 
#    z 0.000000 0.000000 1.781540 
# 
# From -- ./inp_files/46490.got.cif
#   From: 2010.03.12/outbox.cif.g09.slc.cpg/sg65_24_cif.got.tgz:46490.got - 2010.04.10 20:52:16.
