data_PCOD8268671
_publ_section_title
;
Structure prediction by ZEFSAII (Michael W. Deem and Ramdas Pophale) SiO2 
 PCOD8268671
Probable space group: C M M M
;
_chemical_formula_sum "Si O2"
_cell_formula_units_Z 104
_cell_length_a 30.253630
_cell_length_b 7.942349
_cell_length_c 24.023073
_cell_angle_alpha 90.000000
_cell_angle_beta 90.000000
_cell_angle_gamma 90.000000
_cell_volume 5772.381405
_symmetry_space_group_name_H-M "C M M M"
_symmetry_group_IT_number 65
_symmetry_cell_setting 'orthorhombic'
loop_
_space_group_symop_operation_xyz
x,y,z
-x,-y,z
x,-y,-z
-x,y,-z
-x,-y,-z
x,y,-z
-x,y,z
x,-y,z
1/2+x,1/2+y,z
1/2-x,1/2-y,z
1/2+x,1/2-y,-z
1/2-x,1/2+y,-z
1/2-x,1/2-y,-z
1/2+x,1/2+y,-z
1/2-x,1/2+y,z
1/2+x,1/2-y,z
loop_
_atom_site_type_symbol
_atom_site_label
_atom_site_fract_x
_atom_site_fract_y
_atom_site_fract_z
Si Si1 0.947868 0.000000 0.561754
Si Si2 0.393733 0.696576 0.739457
Si Si3 0.663283 0.809403 0.113450
Si Si4 0.299140 0.301684 0.000000
Si Si5 0.500000 0.297968 0.063779
Si Si6 0.298716 0.805644 0.228276
Si Si7 0.925147 0.187386 0.856818
Si Si8 0.551070 0.809840 0.362455
O O1 0.932668 0.170922 0.592913
O O2 0.926496 0.000000 0.500000
O O3 0.000000 0.000000 0.556459
O O4 0.404117 0.500000 0.732513
O O5 0.340282 0.718699 0.740279
O O6 0.417262 0.770338 0.795770
O O7 0.416516 0.798236 0.690046
O O8 0.698007 0.762616 0.162365
O O9 0.622328 0.682789 0.114200
O O10 0.646492 0.000000 0.122671
O O11 0.683332 0.790245 0.053718
O O12 0.250000 0.250000 0.000000
O O13 0.308359 0.500000 0.000000
O O14 0.500000 0.500000 0.059735
O O15 0.458731 0.224600 0.099736
O O16 0.500000 0.226347 0.000000
O O17 0.250000 0.750000 0.249702
O O18 0.303614 0.000000 0.241257
O O19 0.943025 0.000000 0.847280
O O20 0.500000 0.774318 0.345032
O O21 0.555347 0.000000 0.387049
#
# Coordination Sequence:
#
# PCOD8268671 Si02
#       8
#     8  16  16   8   8  16  16  16
#     4   9  18  34  54  80 116 158 196 230 274 322
#     4  10  19  32  52  76 108 143 182 225 272 328
#     4  10  21  36  52  70  95 122 156 200 255 316
#     4  12  24  36  52  71  90 113 148 194 245 310
#     4   9  18  32  49  71  97 125 168 219 266 321
#     4  10  20  34  52  73 101 134 169 213 269 329
#     4   9  19  33  51  74  95 130 171 211 264 319
#     4  10  20  33  52  81 115 154 195 236 276 317
#
# _framework density 18.016828
#
# number of rings (size 3 to 8) (size 9 to 14) (size 15 to 20)
#    0.000    2.154    0.769    2.538    2.154    4.000 
#    0.000    1.923    0.000    0.462    0.000    0.000 
#    0.000    0.615    0.308    0.000    0.000    0.000 
#
# Total GULP energy -644260.018332 kJ/mol
# GULP energy per Si atom -12389.615737 kJ/mol
# Density = 1.797582 g / cm^3
# Si number density = 18.016828 Si / 1000 Ang^3
#
#
#
# Elastic Constant Matrix: (Units=GPa)
#
#
# Indices 1 2 3 4 5 6 
#
# 1 87.2883 18.6871 48.8262 0.0000 0.0000 0.0000
# 2 18.6871 76.9090 30.2460 0.0000 0.0000 0.0000
# 3 48.8262 30.2460 111.6113 0.0000 0.0000 0.0000
# 4 0.0000 0.0000 0.0000 17.6676 0.0000 0.0000
# 5 0.0000 0.0000 0.0000 0.0000 15.4990 0.0000
# 6 0.0000 0.0000 0.0000 0.0000 0.0000 21.9476
#
#
#
# Elastic Compliance Matrix: (Units=1/GPa)
#
#
# Indices 1 2 3 4 5 6 
#
# 1 0.015268 -0.001212 -0.006351 0.000000 0.000000 0.000000
# 2 -0.001212 0.014650 -0.003440 0.000000 0.000000 0.000000
# 3 -0.006351 -0.003440 0.012670 0.000000 0.000000 0.000000
# 4 0.000000 0.000000 0.000000 0.056601 0.000000 0.000000
# 5 0.000000 0.000000 0.000000 0.000000 0.064520 0.000000
# 6 0.000000 0.000000 0.000000 0.000000 0.000000 0.045563
#
#
# Mechanical properties :
#
#
# Convention : Reuss Voigt Hill
#
# Bulk Modulus (GPa) = 48.58495 52.36969 50.47732
# Shear Modulus (GPa) = 20.99619 22.89280 21.94449
#
# Velocity S-wave (km/s) = 3.41745 3.56846 3.49377
# Velocity P-wave (km/s) = 6.52663 6.79034 6.65979
#
# Compressibility (1/GPa) = 0.02058250
#
# Stress axis : x y z
#
# Youngs Moduli (GPa) = 65.49533 68.26108 78.92620
#
# Poissons Ratio (x) = 0.08275 0.50125
# Poissons Ratio (y) = 0.07940 0.27148
# Poissons Ratio (z) = 0.41595 0.23479
#
# Static dielectric constant tensor:
#      x y z
#    x 3.294860 0.000000 0.000000 
#    y 0.000000 3.393510 0.000000 
#    z 0.000000 0.000000 3.230220 
# 
# 
# High freq. dielectric constant tensor:
#      x y z
#    x 1.687070 0.000000 0.000000 
#    y 0.000000 1.699930 0.000000 
#    z 0.000000 0.000000 1.667400 
# 
# From -- ./inp_files/68303.got.cif
#   From: 2010.03.12/outbox.cif.g09.slc.cpg/sg65_35_cif.got.tgz:68303.got - 2010.04.10 20:52:16.
