data_PCOD8268582
_publ_section_title
;
Structure prediction by ZEFSAII (Michael W. Deem and Ramdas Pophale) SiO2 
 PCOD8268582
Probable space group: C M M M
;
_chemical_formula_sum "Si O2"
_cell_formula_units_Z 96
_cell_length_a 14.059147
_cell_length_b 27.743043
_cell_length_c 14.284964
_cell_angle_alpha 90.000000
_cell_angle_beta 90.000000
_cell_angle_gamma 90.000000
_cell_volume 5571.757638
_symmetry_space_group_name_H-M "C M M M"
_symmetry_group_IT_number 65
_symmetry_cell_setting 'orthorhombic'
loop_
_space_group_symop_operation_xyz
x,y,z
-x,-y,z
x,-y,-z
-x,y,-z
-x,-y,-z
x,y,-z
-x,y,z
x,-y,z
1/2+x,1/2+y,z
1/2-x,1/2-y,z
1/2+x,1/2-y,-z
1/2-x,1/2+y,-z
1/2-x,1/2-y,-z
1/2+x,1/2+y,-z
1/2-x,1/2+y,z
1/2+x,1/2-y,z
loop_
_atom_site_type_symbol
_atom_site_label
_atom_site_fract_x
_atom_site_fract_y
_atom_site_fract_z
Si Si1 0.725131 0.368890 0.890012
Si Si2 0.891116 0.056210 0.222314
Si Si3 0.109557 0.677856 0.206444
Si Si4 0.107969 0.367561 0.395686
Si Si5 0.110239 0.225314 0.107323
Si Si6 0.765298 0.945107 0.394554
O O1 0.671520 0.416074 0.853826
O O2 0.829300 0.363840 0.844083
O O3 0.665562 0.321931 0.860179
O O4 0.736222 0.374042 0.000000
O O5 0.852296 0.067768 0.326148
O O6 0.000000 0.073707 0.217703
O O7 0.882843 0.000000 0.198272
O O8 0.124158 0.674477 0.318905
O O9 0.143733 0.730320 0.171858
O O10 0.000000 0.669322 0.177719
O O11 0.129653 0.346832 0.500000
O O12 0.174469 0.412573 0.371394
O O13 0.000000 0.386707 0.389859
O O14 0.000000 0.213830 0.121024
O O15 0.133669 0.239108 0.000000
O O16 0.802375 0.936234 0.500000
O O17 0.731805 0.000000 0.380145
#
# Coordination Sequence:
#
# PCOD8268582 Si02
#       6
#    16  16  16  16  16  16
#     4  11  21  34  53  75 101 134 172 214 257 297
#     4  10  21  36  53  75 102 132 169 210 255 308
#     4  10  19  32  51  76 104 135 167 204 251 301
#     4   9  17  30  50  76 104 134 167 202 245 299
#     4   9  18  32  51  76 102 129 168 215 255 292
#     4   9  17  31  52  76 101 129 165 210 256 301
#
# _framework density 17.229752999999999
#
# number of rings (size 3 to 8) (size 9 to 14) (size 15 to 20)
#    0.000    2.333    1.667    1.500    0.000    4.333 
#    0.000    4.167    0.000    3.500    0.000    3.500 
#    0.000    0.000    0.000    0.000    0.000    0.000 
#
# Total GULP energy -595176.461307 kJ/mol
# GULP energy per Si atom -12399.509611 kJ/mol
# Density = 1.719054 g / cm^3
# Si number density = 17.229753 Si / 1000 Ang^3
#
#
#
# Elastic Constant Matrix: (Units=GPa)
#
#
# Indices 1 2 3 4 5 6 
#
# 1 78.3091 38.3306 41.3915 0.0000 0.0000 0.0000
# 2 38.3306 67.3903 50.4028 0.0000 0.0000 0.0000
# 3 41.3915 50.4028 102.9457 0.0000 0.0000 0.0000
# 4 0.0000 0.0000 0.0000 25.2902 0.0000 0.0000
# 5 0.0000 0.0000 0.0000 0.0000 23.8285 0.0000
# 6 0.0000 0.0000 0.0000 0.0000 0.0000 26.3675
#
#
#
# Elastic Compliance Matrix: (Units=1/GPa)
#
#
# Indices 1 2 3 4 5 6 
#
# 1 0.018510 -0.007828 -0.003609 0.000000 0.000000 0.000000
# 2 -0.007828 0.026723 -0.009936 0.000000 0.000000 0.000000
# 3 -0.003609 -0.009936 0.016030 0.000000 0.000000 0.000000
# 4 0.000000 0.000000 0.000000 0.039541 0.000000 0.000000
# 5 0.000000 0.000000 0.000000 0.000000 0.041967 0.000000
# 6 0.000000 0.000000 0.000000 0.000000 0.000000 0.037925
#
#
# Mechanical properties :
#
#
# Convention : Reuss Voigt Hill
#
# Bulk Modulus (GPa) = 54.01133 56.54387 55.27760
# Shear Modulus (GPa) = 21.77559 22.99860 22.38710
#
# Velocity S-wave (km/s) = 3.55890 3.65748 3.60853
# Velocity P-wave (km/s) = 6.95007 7.12215 7.03664
#
# Compressibility (1/GPa) = 0.01851463
#
# Stress axis : x y z
#
# Youngs Moduli (GPa) = 54.02631 37.42075 62.38363
#
# Poissons Ratio (x) = 0.29295 0.22516
# Poissons Ratio (y) = 0.42294 0.61986
# Poissons Ratio (z) = 0.19500 0.37182
#
# Static dielectric constant tensor:
#      x y z
#    x 3.329720 0.000000 0.000000 
#    y 0.000000 3.086980 0.000000 
#    z 0.000000 0.000000 3.329400 
# 
# 
# High freq. dielectric constant tensor:
#      x y z
#    x 1.673910 0.000000 0.000000 
#    y 0.000000 1.646310 0.000000 
#    z 0.000000 0.000000 1.668610 
# 
# From -- ./inp_files/40390.got.cif
#   From: 2010.03.12/outbox.cif.g09.slc.cpg/sg65_21_cif.got.tgz:40390.got - 2010.04.10 20:52:16.
