data_PCOD8268324
_publ_section_title
;
Structure prediction by ZEFSAII (Michael W. Deem and Ramdas Pophale) SiO2 
 PCOD8268324
Probable space group: C M M M
;
_chemical_formula_sum "Si O2"
_cell_formula_units_Z 96
_cell_length_a 17.167260
_cell_length_b 23.945185
_cell_length_c 12.532453
_cell_angle_alpha 90.000000
_cell_angle_beta 90.000000
_cell_angle_gamma 90.000000
_cell_volume 5151.755767
_symmetry_space_group_name_H-M "C M M M"
_symmetry_group_IT_number 65
_symmetry_cell_setting 'orthorhombic'
loop_
_space_group_symop_operation_xyz
x,y,z
-x,-y,z
x,-y,-z
-x,y,-z
-x,-y,-z
x,y,-z
-x,y,z
x,-y,z
1/2+x,1/2+y,z
1/2-x,1/2-y,z
1/2+x,1/2-y,-z
1/2-x,1/2+y,-z
1/2-x,1/2-y,-z
1/2+x,1/2+y,-z
1/2-x,1/2+y,z
1/2+x,1/2-y,z
loop_
_atom_site_type_symbol
_atom_site_label
_atom_site_fract_x
_atom_site_fract_y
_atom_site_fract_z
Si Si1 0.586846 0.733787 0.878477
Si Si2 0.300353 0.363315 0.806270
Si Si3 0.586551 0.909409 0.000000
Si Si4 0.243608 0.060560 0.000000
Si Si5 0.308705 0.562421 0.381247
Si Si6 0.376333 0.062343 0.379354
Si Si7 0.624021 0.153467 0.211679
O O1 0.500000 0.708883 0.875055
O O2 0.645611 0.685557 0.846585
O O3 0.591507 0.783461 0.790682
O O4 0.607288 0.753656 0.000000
O O5 0.287194 0.409006 0.896346
O O6 0.341308 0.393567 0.704902
O O7 0.216451 0.338749 0.776245
O O8 0.593284 0.870885 0.102157
O O9 0.500000 0.938812 0.000000
O O10 0.662169 0.949294 0.000000
O O11 0.204851 0.000000 0.000000
O O12 0.334088 0.581573 0.500000
O O13 0.340773 0.500000 0.358368
O O14 0.216042 0.561506 0.371670
O O15 0.404286 0.074314 0.500000
O O16 0.409187 0.112461 0.304884
O O17 0.406273 0.000000 0.343700
#
# Coordination Sequence:
#
# PCOD8268324 Si02
#       7
#    16  16   8   8  16  16  16
#     4  11  22  36  54  72 100 140 179 217 265 315
#     4  10  19  32  52  79 105 132 171 218 259 307
#     4  10  20  32  47  72 108 141 168 203 252 312
#     4  10  20  32  50  77 105 134 170 214 262 306
#     4   8  14  27  50  78 106 135 165 204 258 312
#     4   8  15  30  52  79 109 137 169 210 253 300
#     4  10  19  31  55  81 103 136 177 215 255 301
#
# _framework density 18.634423999999999
#
# number of rings (size 3 to 8) (size 9 to 14) (size 15 to 20)
#    0.000    2.500    1.667    2.500    0.000    4.833 
#    0.000    0.833    0.000   11.500    0.000    5.833 
#    0.000    0.000    0.000    0.000    0.000    0.000 
#
# Total GULP energy -594661.873977 kJ/mol
# GULP energy per Si atom -12388.789041 kJ/mol
# Density = 1.859201 g / cm^3
# Si number density = 18.634424 Si / 1000 Ang^3
#
#
#
# Elastic Constant Matrix: (Units=GPa)
#
#
# Indices 1 2 3 4 5 6 
#
# 1 53.5971 42.3249 32.5282 0.0000 0.0000 0.0000
# 2 42.3249 123.5691 65.3075 0.0000 0.0000 0.0000
# 3 32.5282 65.3075 117.0371 0.0000 0.0000 0.0000
# 4 0.0000 0.0000 0.0000 43.1569 0.0000 0.0000
# 5 0.0000 0.0000 0.0000 0.0000 -2.0379 0.0000
# 6 0.0000 0.0000 0.0000 0.0000 0.0000 -7.5729
#
#
#
# Elastic Compliance Matrix: (Units=1/GPa)
#
#
# Indices 1 2 3 4 5 6 
#
# 1 0.026421 -0.007331 -0.003253 0.000000 0.000000 0.000000
# 2 -0.007331 0.013511 -0.005502 0.000000 0.000000 0.000000
# 3 -0.003253 -0.005502 0.012518 0.000000 0.000000 0.000000
# 4 0.000000 0.000000 0.000000 0.023171 0.000000 0.000000
# 5 0.000000 0.000000 0.000000 0.000000 -0.490696 0.000000
# 6 0.000000 0.000000 0.000000 0.000000 0.000000 -0.132050
#
#
# Mechanical properties :
#
#
# Convention : Reuss Voigt Hill
#
# Bulk Modulus (GPa) = 49.30959 63.83607 56.57283
# Shear Modulus (GPa) = -9.83875 16.97873 3.56999
#
# Velocity S-wave (km/s) = -2.30029 3.02180 1.38563
# Velocity P-wave (km/s) = 4.41179 6.81956 5.74327
#
# Compressibility (1/GPa) = 0.02028003
#
# Stress axis : x y z
#
# Youngs Moduli (GPa) = 37.84928 74.01159 79.88182
#
# Poissons Ratio (x) = 0.54255 0.25982
# Poissons Ratio (y) = 0.27746 0.43952
# Poissons Ratio (z) = 0.12311 0.40722
#
# Static dielectric constant tensor:
#      x y z
#    x 3.138390 0.000000 0.000000 
#    y 0.000000 3.505920 0.000000 
#    z 0.000000 0.000000 3.691540 
# 
# 
# High freq. dielectric constant tensor:
#      x y z
#    x 1.687680 0.000000 0.000000 
#    y 0.000000 1.717440 0.000000 
#    z 0.000000 0.000000 1.721780 
# 
# From -- ./inp_files/27424.got.cif
#   From: 2010.03.12/outbox.cif.g09.slc.cpg/sg65_14_cif.got.tgz:27424.got - 2010.04.10 20:52:16.
