data_PCOD8268698
_publ_section_title
;
Structure prediction by ZEFSAII (Michael W. Deem and Ramdas Pophale) SiO2 
 PCOD8268698
Probable space group: C M M M
;
_chemical_formula_sum "Si O2"
_cell_formula_units_Z 88
_cell_length_a 17.978049
_cell_length_b 8.947485
_cell_length_c 28.586881
_cell_angle_alpha 90.000000
_cell_angle_beta 90.000000
_cell_angle_gamma 90.000000
_cell_volume 4598.437759
_symmetry_space_group_name_H-M "C M M M"
_symmetry_group_IT_number 65
_symmetry_cell_setting 'orthorhombic'
loop_
_space_group_symop_operation_xyz
x,y,z
-x,-y,z
x,-y,-z
-x,y,-z
-x,-y,-z
x,y,-z
-x,y,z
x,-y,z
1/2+x,1/2+y,z
1/2-x,1/2-y,z
1/2+x,1/2-y,-z
1/2-x,1/2+y,-z
1/2-x,1/2-y,-z
1/2+x,1/2+y,-z
1/2-x,1/2+y,z
1/2+x,1/2-y,z
loop_
_atom_site_type_symbol
_atom_site_label
_atom_site_fract_x
_atom_site_fract_y
_atom_site_fract_z
Si Si1 0.588369 0.167888 0.948614
Si Si2 0.583478 0.822410 0.500000
Si Si3 0.670010 0.176888 0.225901
Si Si4 0.411732 0.330336 0.857424
Si Si5 0.916513 0.677564 0.682896
Si Si6 0.669879 0.177565 0.591425
O O1 0.500000 0.168321 0.948232
O O2 0.618240 0.278011 0.908295
O O3 0.617304 0.000000 0.938700
O O4 0.616504 0.221989 0.000000
O O5 0.500000 0.756414 0.500000
O O6 0.626292 0.764567 0.454208
O O7 0.579888 0.000000 0.500000
O O8 0.750000 0.250000 0.223891
O O9 0.622669 0.222981 0.181136
O O10 0.627855 0.236561 0.271997
O O11 0.678789 0.000000 0.226714
O O12 0.500000 0.315479 0.854359
O O13 0.385396 0.500000 0.849334
O O14 0.920029 0.500000 0.683059
O O15 0.875278 0.735004 0.636488
O O16 0.000000 0.743842 0.683862
O O17 0.750000 0.250000 0.592099
O O18 0.678357 0.000000 0.591393
#
# Coordination Sequence:
#
# PCOD8268698 Si02
#       6
#    16   8  16  16  16  16
#     4   8  14  26  46  73 104 137 173 212 254 302
#     4   9  17  30  51  77 102 135 180 222 256 297
#     4  11  22  36  54  74 100 134 172 214 261 314
#     4  10  20  33  51  77 107 137 172 215 260 307
#     4   9  18  33  54  78 101 130 171 215 257 306
#     4  10  19  32  52  77 106 137 171 213 259 310
#
# _framework density 19.136932999999999
#
# number of rings (size 3 to 8) (size 9 to 14) (size 15 to 20)
#    0.000    2.455    0.000    3.545    0.000    4.364 
#    0.000    2.727    0.000    5.455    0.000    0.000 
#    0.000    0.000    0.000    0.000    0.000    0.000 
#
# Total GULP energy -545571.426942 kJ/mol
# GULP energy per Si atom -12399.350612 kJ/mol
# Density = 1.909338 g / cm^3
# Si number density = 19.136933 Si / 1000 Ang^3
#
#
#
# Elastic Constant Matrix: (Units=GPa)
#
#
# Indices 1 2 3 4 5 6 
#
# 1 78.3281 29.3644 53.8528 0.0000 0.0000 0.0000
# 2 29.3644 52.5731 38.6217 0.0000 0.0000 0.0000
# 3 53.8528 38.6217 176.4634 0.0000 0.0000 0.0000
# 4 0.0000 0.0000 0.0000 12.0784 0.0000 0.0000
# 5 0.0000 0.0000 0.0000 0.0000 6.0311 0.0000
# 6 0.0000 0.0000 0.0000 0.0000 0.0000 25.0060
#
#
#
# Elastic Compliance Matrix: (Units=1/GPa)
#
#
# Indices 1 2 3 4 5 6 
#
# 1 0.018218 -0.007258 -0.003971 0.000000 0.000000 0.000000
# 2 -0.007258 0.025557 -0.003379 0.000000 0.000000 0.000000
# 3 -0.003971 -0.003379 0.007618 0.000000 0.000000 0.000000
# 4 0.000000 0.000000 0.000000 0.082792 0.000000 0.000000
# 5 0.000000 0.000000 0.000000 0.000000 0.165809 0.000000
# 6 0.000000 0.000000 0.000000 0.000000 0.000000 0.039990
#
#
# Mechanical properties :
#
#
# Convention : Reuss Voigt Hill
#
# Bulk Modulus (GPa) = 45.09055 61.22693 53.15874
# Shear Modulus (GPa) = 13.27693 20.99149 17.13421
#
# Velocity S-wave (km/s) = 2.63684 3.31556 2.99548
# Velocity P-wave (km/s) = 5.73444 6.83526 6.30890
#
# Compressibility (1/GPa) = 0.02217760
#
# Stress axis : x y z
#
# Youngs Moduli (GPa) = 54.89023 39.12793 131.26364
#
# Poissons Ratio (x) = 0.28400 0.52127
# Poissons Ratio (y) = 0.39841 0.44347
# Poissons Ratio (z) = 0.21798 0.13219
#
# Static dielectric constant tensor:
#      x y z
#    x 3.380520 0.000000 0.000000 
#    y 0.000000 3.258110 0.000000 
#    z 0.000000 0.000000 3.976950 
# 
# 
# High freq. dielectric constant tensor:
#      x y z
#    x 1.731140 0.000000 0.000000 
#    y 0.000000 1.714370 0.000000 
#    z 0.000000 0.000000 1.766490 
# 
# From -- ./inp_files/76691.got.cif
#   From: 2010.03.12/outbox.cif.g09.slc.cpg/sg65_39_cif.got.tgz:76691.got - 2010.04.10 20:52:16.
