data_PCOD8268182
_publ_section_title
;
Structure prediction by ZEFSAII (Michael W. Deem and Ramdas Pophale) SiO2 
 PCOD8268182
Probable space group: C M M M
;
_chemical_formula_sum "Si O2"
_cell_formula_units_Z 104
_cell_length_a 18.003876
_cell_length_b 18.206354
_cell_length_c 17.462063
_cell_angle_alpha 90.000000
_cell_angle_beta 90.000000
_cell_angle_gamma 90.000000
_cell_volume 5723.801270
_symmetry_space_group_name_H-M "C M M M"
_symmetry_group_IT_number 65
_symmetry_cell_setting 'orthorhombic'
loop_
_space_group_symop_operation_xyz
x,y,z
-x,-y,z
x,-y,-z
-x,y,-z
-x,-y,-z
x,y,-z
-x,y,z
x,-y,z
1/2+x,1/2+y,z
1/2-x,1/2-y,z
1/2+x,1/2-y,-z
1/2-x,1/2+y,-z
1/2-x,1/2-y,-z
1/2+x,1/2+y,-z
1/2-x,1/2+y,z
1/2+x,1/2-y,z
loop_
_atom_site_type_symbol
_atom_site_label
_atom_site_fract_x
_atom_site_fract_y
_atom_site_fract_z
Si Si1 0.700234 0.082651 0.284625
Si Si2 0.805493 0.869245 0.410444
Si Si3 0.833251 0.775299 0.089020
Si Si4 0.918139 0.317533 0.206288
Si Si5 0.917304 0.000000 0.411036
Si Si6 0.845919 0.084149 0.811079
Si Si7 0.580690 0.321188 0.687939
O O1 0.728960 0.119396 0.364489
O O2 0.628664 0.120623 0.249231
O O3 0.762566 0.086275 0.220135
O O4 0.677876 0.000000 0.305463
O O5 0.787214 0.860826 0.500000
O O6 0.866280 0.931482 0.388658
O O7 0.853889 0.802523 0.374912
O O8 0.750000 0.750000 0.106807
O O9 0.883559 0.712615 0.127699
O O10 0.849776 0.858028 0.118869
O O11 0.852103 0.775408 0.000000
O O12 0.924572 0.250848 0.263305
O O13 0.000000 0.349830 0.188427
O O14 0.930651 0.000000 0.500000
O O15 0.000000 0.000000 0.372045
O O16 0.900604 0.110140 0.743728
O O17 0.866308 0.000000 0.836358
O O18 0.500000 0.336879 0.649017
#
# Coordination Sequence:
#
# PCOD8268182 Si02
#       7
#    16  16  16  16   8  16  16
#     4  10  19  34  55  76 103 138 183 231 272 319
#     4  10  19  31  50  76 106 141 178 222 271 322
#     4  10  19  34  58  83 108 141 175 211 263 325
#     4  10  21  38  57  78 105 139 182 228 271 318
#     4   9  16  26  42  70 107 141 170 207 261 319
#     4   9  18  31  50  78 110 144 180 218 259 311
#     4   9  19  32  49  74 108 147 181 219 267 323
#
# _framework density 18.169743
#
# number of rings (size 3 to 8) (size 9 to 14) (size 15 to 20)
#    0.000    2.385    2.308    0.462    1.077    2.154 
#    0.000    1.538    0.000    1.846    0.000    6.462 
#    0.000    0.000    0.000    0.000    0.000    0.000 
#
# Total GULP energy -644204.081925 kJ/mol
# GULP energy per Si atom -12388.540037 kJ/mol
# Density = 1.812839 g / cm^3
# Si number density = 18.169743 Si / 1000 Ang^3
#
#
#
# Elastic Constant Matrix: (Units=GPa)
#
#
# Indices 1 2 3 4 5 6 
#
# 1 112.9885 38.1103 48.6154 0.0000 0.0000 0.0000
# 2 38.1103 52.7448 34.5122 0.0000 0.0000 0.0000
# 3 48.6154 34.5122 113.3407 0.0000 0.0000 0.0000
# 4 0.0000 0.0000 0.0000 11.5313 0.0000 0.0000
# 5 0.0000 0.0000 0.0000 0.0000 26.7003 0.0000
# 6 0.0000 0.0000 0.0000 0.0000 0.0000 17.8572
#
#
#
# Elastic Compliance Matrix: (Units=1/GPa)
#
#
# Indices 1 2 3 4 5 6 
#
# 1 0.012614 -0.006961 -0.003291 0.000000 0.000000 0.000000
# 2 -0.006961 0.027518 -0.005393 0.000000 0.000000 0.000000
# 3 -0.003291 -0.005393 0.011877 0.000000 0.000000 0.000000
# 4 0.000000 0.000000 0.000000 0.086720 0.000000 0.000000
# 5 0.000000 0.000000 0.000000 0.000000 0.037453 0.000000
# 6 0.000000 0.000000 0.000000 0.000000 0.000000 0.056000
#
#
# Mechanical properties :
#
#
# Convention : Reuss Voigt Hill
#
# Bulk Modulus (GPa) = 48.26676 57.94998 53.10837
# Shear Modulus (GPa) = 18.49258 21.74019 20.11638
#
# Velocity S-wave (km/s) = 3.19371 3.46281 3.33098
# Velocity P-wave (km/s) = 6.34206 6.92466 6.63975
#
# Compressibility (1/GPa) = 0.02071819
#
# Stress axis : x y z
#
# Youngs Moduli (GPa) = 79.27437 36.34008 84.19714
#
# Poissons Ratio (x) = 0.25296 0.27710
# Poissons Ratio (y) = 0.55183 0.45411
# Poissons Ratio (z) = 0.26090 0.19600
#
# Static dielectric constant tensor:
#      x y z
#    x 3.974540 0.000000 0.000000 
#    y 0.000000 3.381220 0.000000 
#    z 0.000000 0.000000 3.223010 
# 
# 
# High freq. dielectric constant tensor:
#      x y z
#    x 1.700640 0.000000 0.000000 
#    y 0.000000 1.693350 0.000000 
#    z 0.000000 0.000000 1.692600 
# 
# From -- ./inp_files/54619.got.cif
#   From: 2010.03.12/outbox.cif.g09.slc.cpg/sg65_28_cif.got.tgz:54619.got - 2010.04.10 20:52:16.
