data_PCOD8268053
_publ_section_title
;
Structure prediction by ZEFSAII (Michael W. Deem and Ramdas Pophale) SiO2 
 PCOD8268053
Probable space group: C M M M
;
_chemical_formula_sum "Si O2"
_cell_formula_units_Z 80
_cell_length_a 9.164652
_cell_length_b 19.244358
_cell_length_c 25.199842
_cell_angle_alpha 90.000000
_cell_angle_beta 90.000000
_cell_angle_gamma 90.000000
_cell_volume 4444.441804
_symmetry_space_group_name_H-M "C M M M"
_symmetry_group_IT_number 65
_symmetry_cell_setting 'orthorhombic'
loop_
_space_group_symop_operation_xyz
x,y,z
-x,-y,z
x,-y,-z
-x,y,-z
-x,-y,-z
x,y,-z
-x,y,z
x,-y,z
1/2+x,1/2+y,z
1/2-x,1/2-y,z
1/2+x,1/2-y,-z
1/2-x,1/2+y,-z
1/2-x,1/2-y,-z
1/2+x,1/2+y,-z
1/2-x,1/2+y,z
1/2+x,1/2-y,z
loop_
_atom_site_type_symbol
_atom_site_label
_atom_site_fract_x
_atom_site_fract_y
_atom_site_fract_z
Si Si1 0.334485 0.081738 0.212075
Si Si2 0.326885 0.577238 0.500000
Si Si3 0.327160 0.077028 0.906754
Si Si4 0.826014 0.323983 0.000000
Si Si5 0.329160 0.679743 0.288914
Si Si6 0.829350 0.180116 0.410165
O O1 0.500000 0.107865 0.221537
O O2 0.281967 0.100569 0.152455
O O3 0.225667 0.116964 0.253098
O O4 0.325209 0.000000 0.221143
O O5 0.257744 0.500000 0.500000
O O6 0.500000 0.571804 0.500000
O O7 0.273592 0.617426 0.447277
O O8 0.500000 0.071721 0.910253
O O9 0.269755 0.133559 0.948619
O O10 0.263005 0.000000 0.919622
O O11 0.750000 0.250000 0.000000
O O12 0.000000 0.314419 0.000000
O O13 0.500000 0.690144 0.280589
O O14 0.250000 0.750000 0.270862
O O15 0.290325 0.661089 0.349650
O O16 0.750000 0.250000 0.428482
O O17 0.000000 0.193203 0.417763
#
# Coordination Sequence:
#
# PCOD8268053 Si02
#       6
#    16   8  16   8  16  16
#     4   9  18  33  52  74 100 129 162 201 245 291
#     4   9  17  30  49  73  98 123 154 194 240 285
#     4   8  15  30  52  73  92 122 164 200 231 278
#     4  10  19  31  49  73  99 124 154 196 242 284
#     4  10  20  33  50  73 100 130 166 204 242 287
#     4   9  18  32  51  72  94 125 161 197 236 282
#
# _framework density 18.000011000000001
#
# number of rings (size 3 to 8) (size 9 to 14) (size 15 to 20)
#    0.000    2.900    0.000    2.400    0.000    4.000 
#    0.000    5.000    0.000    3.600    0.000    0.000 
#    0.000    0.000    0.000    0.000    0.000    0.000 
#
# Total GULP energy -495938.752059 kJ/mol
# GULP energy per Si atom -12398.468801 kJ/mol
# Density = 1.795904 g / cm^3
# Si number density = 18.000011 Si / 1000 Ang^3
#
#
#
# Elastic Constant Matrix: (Units=GPa)
#
#
# Indices 1 2 3 4 5 6 
#
# 1 43.7922 38.0959 36.5877 0.0000 0.0000 0.0000
# 2 38.0959 129.0323 85.6918 0.0000 0.0000 0.0000
# 3 36.5877 85.6918 124.3795 0.0000 0.0000 0.0000
# 4 0.0000 0.0000 0.0000 31.3978 0.0000 0.0000
# 5 0.0000 0.0000 0.0000 0.0000 16.0720 0.0000
# 6 0.0000 0.0000 0.0000 0.0000 0.0000 30.3179
#
#
#
# Elastic Compliance Matrix: (Units=1/GPa)
#
#
# Indices 1 2 3 4 5 6 
#
# 1 0.032620 -0.006007 -0.005457 0.000000 0.000000 0.000000
# 2 -0.006007 0.015393 -0.008838 0.000000 0.000000 0.000000
# 3 -0.005457 -0.008838 0.015734 0.000000 0.000000 0.000000
# 4 0.000000 0.000000 0.000000 0.031849 0.000000 0.000000
# 5 0.000000 0.000000 0.000000 0.000000 0.062220 0.000000
# 6 0.000000 0.000000 0.000000 0.000000 0.000000 0.032984
#
#
# Mechanical properties :
#
#
# Convention : Reuss Voigt Hill
#
# Bulk Modulus (GPa) = 43.20930 68.66164 55.93547
# Shear Modulus (GPa) = 20.91013 24.67943 22.79478
#
# Velocity S-wave (km/s) = 3.41203 3.70683 3.56248
# Velocity P-wave (km/s) = 6.29125 7.51990 6.93285
#
# Compressibility (1/GPa) = 0.02314317
#
# Stress axis : x y z
#
# Youngs Moduli (GPa) = 30.65619 64.96525 63.55563
#
# Poissons Ratio (x) = 0.39022 0.34684
# Poissons Ratio (y) = 0.18414 0.56171
# Poissons Ratio (z) = 0.16730 0.57417
#
# Static dielectric constant tensor:
#      x y z
#    x 3.019760 0.000000 0.000000 
#    y 0.000000 3.425450 0.000000 
#    z 0.000000 0.000000 3.591810 
# 
# 
# High freq. dielectric constant tensor:
#      x y z
#    x 1.662950 0.000000 0.000000 
#    y 0.000000 1.695880 0.000000 
#    z 0.000000 0.000000 1.708490 
# 
# From -- ./inp_files/67359.got.cif
#   From: 2010.03.12/outbox.cif.g09.slc.cpg/sg65_34_cif.got.tgz:67359.got - 2010.04.10 20:52:16.
