data_PCOD8268178
_publ_section_title
;
Structure prediction by ZEFSAII (Michael W. Deem and Ramdas Pophale) SiO2 
 PCOD8268178
Probable space group: C M M M
;
_chemical_formula_sum "Si O2"
_cell_formula_units_Z 72
_cell_length_a 18.765664
_cell_length_b 8.757072
_cell_length_c 23.565865
_cell_angle_alpha 90.000000
_cell_angle_beta 90.000000
_cell_angle_gamma 90.000000
_cell_volume 3872.632108
_symmetry_space_group_name_H-M "C M M M"
_symmetry_group_IT_number 65
_symmetry_cell_setting 'orthorhombic'
loop_
_space_group_symop_operation_xyz
x,y,z
-x,-y,z
x,-y,-z
-x,y,-z
-x,-y,-z
x,y,-z
-x,y,z
x,-y,z
1/2+x,1/2+y,z
1/2-x,1/2-y,z
1/2+x,1/2-y,-z
1/2-x,1/2+y,-z
1/2-x,1/2-y,-z
1/2+x,1/2+y,-z
1/2-x,1/2+y,z
1/2+x,1/2-y,z
loop_
_atom_site_type_symbol
_atom_site_label
_atom_site_fract_x
_atom_site_fract_y
_atom_site_fract_z
Si Si1 0.917289 0.321405 0.099835
Si Si2 0.828316 0.680886 0.682879
Si Si3 0.827961 0.179884 0.000000
Si Si4 0.916639 0.825104 0.782604
Si Si5 0.826833 0.678637 0.559857
O O1 0.902943 0.500000 0.092552
O O2 0.893043 0.269764 0.162236
O O3 0.000000 0.281063 0.089302
O O4 0.870354 0.230526 0.055390
O O5 0.824728 0.500000 0.692507
O O6 0.750000 0.750000 0.689631
O O7 0.879410 0.755712 0.728199
O O8 0.862228 0.723851 0.620377
O O9 0.750000 0.250000 0.000000
O O10 0.820438 0.000000 0.000000
O O11 0.000000 0.809222 0.772114
O O12 0.893557 0.000000 0.791358
O O13 0.867478 0.725450 0.500000
O O14 0.815372 0.500000 0.560524
O O15 0.750000 0.750000 0.558193
#
# Coordination Sequence:
#
# PCOD8268178 Si02
#       5
#    16  16   8  16  16
#     4  10  21  39  62  85 109 139 177 217 258 309
#     4  10  19  31  50  76 105 136 172 215 264 316
#     4  12  25  40  59  85 117 147 177 214 259 306
#     4  10  21  37  56  78 105 138 177 219 262 309
#     4   8  14  25  42  66  96 129 166 209 256 307
#
# _framework density 18.592006999999999
#
# number of rings (size 3 to 8) (size 9 to 14) (size 15 to 20)
#    0.000    2.222    0.000    3.333    0.000    5.778 
#    0.000    4.444    0.000    0.667    0.000    4.667 
#    0.000    0.000    0.000    0.000    0.000    0.000 
#
# Total GULP energy -446047.981430 kJ/mol
# GULP energy per Si atom -12390.221706 kJ/mol
# Density = 1.854969 g / cm^3
# Si number density = 18.592007 Si / 1000 Ang^3
#
#
#
# Elastic Constant Matrix: (Units=GPa)
#
#
# Indices 1 2 3 4 5 6 
#
# 1 51.6737 46.9979 67.3011 0.0000 0.0000 0.0000
# 2 46.9979 93.8585 59.3906 0.0000 0.0000 0.0000
# 3 67.3011 59.3906 181.5338 0.0000 0.0000 0.0000
# 4 0.0000 0.0000 0.0000 28.5964 0.0000 0.0000
# 5 0.0000 0.0000 0.0000 0.0000 45.2758 0.0000
# 6 0.0000 0.0000 0.0000 0.0000 0.0000 27.4715
#
#
#
# Elastic Compliance Matrix: (Units=1/GPa)
#
#
# Indices 1 2 3 4 5 6 
#
# 1 0.054528 -0.018301 -0.014228 0.000000 0.000000 0.000000
# 2 -0.018301 0.019578 0.000380 0.000000 0.000000 0.000000
# 3 -0.014228 0.000380 0.010659 0.000000 0.000000 0.000000
# 4 0.000000 0.000000 0.000000 0.034969 0.000000 0.000000
# 5 0.000000 0.000000 0.000000 0.000000 0.022087 0.000000
# 6 0.000000 0.000000 0.000000 0.000000 0.000000 0.036401
#
#
# Mechanical properties :
#
#
# Convention : Reuss Voigt Hill
#
# Bulk Modulus (GPa) = 48.85999 74.93837 61.89918
# Shear Modulus (GPa) = 20.05256 30.49385 25.27321
#
# Velocity S-wave (km/s) = 3.28770 4.05428 3.69095
# Velocity P-wave (km/s) = 6.38351 7.89370 7.17843
#
# Compressibility (1/GPa) = 0.02046664
#
# Stress axis : x y z
#
# Youngs Moduli (GPa) = 18.33904 51.07797 93.81426
#
# Poissons Ratio (x) = 0.93477 1.33482
# Poissons Ratio (y) = 0.33562 -0.03562
# Poissons Ratio (z) = 0.26093 -0.01939
#
# Static dielectric constant tensor:
#      x y z
#    x 3.093060 0.000000 0.000000 
#    y 0.000000 3.552640 0.000000 
#    z 0.000000 0.000000 4.159220 
# 
# 
# High freq. dielectric constant tensor:
#      x y z
#    x 1.680380 0.000000 0.000000 
#    y 0.000000 1.735800 0.000000 
#    z 0.000000 0.000000 1.754100 
# 
# From -- ./inp_files/66994.got.cif
#   From: 2010.03.12/outbox.cif.g09.slc.cpg/sg65_34_cif.got.tgz:66994.got - 2010.04.10 20:52:16.
