data_PCOD8268401
_publ_section_title
;
Structure prediction by ZEFSAII (Michael W. Deem and Ramdas Pophale) SiO2 
 PCOD8268401
Probable space group: C M M M
;
_chemical_formula_sum "Si O2"
_cell_formula_units_Z 112
_cell_length_a 28.121660
_cell_length_b 15.339115
_cell_length_c 14.149905
_cell_angle_alpha 90.000000
_cell_angle_beta 90.000000
_cell_angle_gamma 90.000000
_cell_volume 6103.722501
_symmetry_space_group_name_H-M "C M M M"
_symmetry_group_IT_number 65
_symmetry_cell_setting 'orthorhombic'
loop_
_space_group_symop_operation_xyz
x,y,z
-x,-y,z
x,-y,-z
-x,y,-z
-x,-y,-z
x,y,-z
-x,y,z
x,-y,z
1/2+x,1/2+y,z
1/2-x,1/2-y,z
1/2+x,1/2-y,-z
1/2-x,1/2+y,-z
1/2-x,1/2-y,-z
1/2+x,1/2+y,-z
1/2-x,1/2+y,z
1/2+x,1/2-y,z
loop_
_atom_site_type_symbol
_atom_site_label
_atom_site_fract_x
_atom_site_fract_y
_atom_site_fract_z
Si Si1 0.864183 0.902239 0.610032
Si Si2 0.713048 0.905258 0.241639
Si Si3 0.107759 0.219465 0.890562
Si Si4 0.553884 0.599572 0.248380
Si Si5 0.784316 0.168277 0.105241
Si Si6 0.373982 0.093746 0.890088
Si Si7 0.804662 0.735572 0.396325
O O1 0.874816 0.896862 0.500000
O O2 0.914140 0.883000 0.660055
O O3 0.827081 0.826872 0.640307
O O4 0.844860 0.000000 0.636300
O O5 0.764706 0.887767 0.193868
O O6 0.677710 0.906380 0.154360
O O7 0.690652 0.839117 0.318033
O O8 0.715930 0.000000 0.291425
O O9 0.071089 0.158498 0.837485
O O10 0.162289 0.195490 0.866709
O O11 0.097037 0.320132 0.858017
O O12 0.096862 0.206490 0.000000
O O13 0.500000 0.624139 0.275317
O O14 0.557908 0.500000 0.214298
O O15 0.750000 0.250000 0.100741
O O16 0.784395 0.123216 0.000000
O O17 0.400014 0.000000 0.867561
O O18 0.363576 0.103571 0.000000
O O19 0.826381 0.708796 0.500000
O O20 0.750000 0.750000 0.412118
#
# Coordination Sequence:
#
# PCOD8268401 Si02
#       7
#    16  16  16  16  16  16  16
#     4   9  19  37  61  84 105 135 177 224 273 322
#     4  11  21  30  47  72 102 144 181 214 256 300
#     4  10  20  34  54  75 104 146 182 217 265 322
#     4  10  22  38  56  80 108 137 175 226 279 328
#     4  10  19  32  49  73 106 142 182 225 265 310
#     4   9  17  30  49  76 106 134 169 211 257 310
#     4  10  22  37  51  72 106 143 176 213 257 314
#
# _framework density 18.349457999999998
#
# number of rings (size 3 to 8) (size 9 to 14) (size 15 to 20)
#    0.000    2.143    1.429    1.714    2.000    3.143 
#    0.000    5.000    0.000    0.429    0.000    2.000 
#    0.000    0.000    0.000   12.286    0.000    0.429 
#
# Total GULP energy -693758.205013 kJ/mol
# GULP energy per Si atom -12388.539375 kJ/mol
# Density = 1.830769 g / cm^3
# Si number density = 18.349458 Si / 1000 Ang^3
#
#
#
# Elastic Constant Matrix: (Units=GPa)
#
#
# Indices 1 2 3 4 5 6 
#
# 1 83.2468 58.4150 29.3073 0.0000 0.0000 0.0000
# 2 58.4150 151.7185 62.5348 0.0000 0.0000 0.0000
# 3 29.3073 62.5348 65.0042 0.0000 0.0000 0.0000
# 4 0.0000 0.0000 0.0000 -5.1286 0.0000 0.0000
# 5 0.0000 0.0000 0.0000 0.0000 0.6674 0.0000
# 6 0.0000 0.0000 0.0000 0.0000 0.0000 23.5622
#
#
#
# Elastic Compliance Matrix: (Units=1/GPa)
#
#
# Indices 1 2 3 4 5 6 
#
# 1 0.016650 -0.005496 -0.002220 0.000000 0.000000 0.000000
# 2 -0.005496 0.012736 -0.009774 0.000000 0.000000 0.000000
# 3 -0.002220 -0.009774 0.025787 0.000000 0.000000 0.000000
# 4 0.000000 0.000000 0.000000 -0.194984 0.000000 0.000000
# 5 0.000000 0.000000 0.000000 0.000000 1.498299 0.000000
# 6 0.000000 0.000000 0.000000 0.000000 0.000000 0.042441
#
#
# Mechanical properties :
#
#
# Convention : Reuss Voigt Hill
#
# Bulk Modulus (GPa) = 49.52002 66.72042 58.12022
# Shear Modulus (GPa) = 3.46587 13.80102 8.63344
#
# Velocity S-wave (km/s) = 1.37583 2.74546 2.17146
# Velocity P-wave (km/s) = 5.43780 6.81836 6.16683
#
# Compressibility (1/GPa) = 0.02019385
#
# Stress axis : x y z
#
# Youngs Moduli (GPa) = 60.05844 78.51828 38.77858
#
# Poissons Ratio (x) = 0.43152 0.08608
# Poissons Ratio (y) = 0.33007 0.37903
# Poissons Ratio (z) = 0.13332 0.76746
#
# Static dielectric constant tensor:
#      x y z
#    x 2.973370 0.000000 0.000000 
#    y 0.000000 3.790980 0.000000 
#    z 0.000000 0.000000 3.703380 
# 
# 
# High freq. dielectric constant tensor:
#      x y z
#    x 1.669240 0.000000 0.000000 
#    y 0.000000 1.718830 0.000000 
#    z 0.000000 0.000000 1.715950 
# 
# From -- ./inp_files/41091.got.cif
#   From: 2010.03.12/outbox.cif.g09.slc.cpg/sg65_21_cif.got.tgz:41091.got - 2010.04.10 20:52:16.
