data_PCOD8268189
_publ_section_title
;
Structure prediction by ZEFSAII (Michael W. Deem and Ramdas Pophale) SiO2 
 PCOD8268189
Probable space group: C M M M
;
_chemical_formula_sum "Si O2"
_cell_formula_units_Z 88
_cell_length_a 17.056905
_cell_length_b 30.409443
_cell_length_c 8.871092
_cell_angle_alpha 90.000000
_cell_angle_beta 90.000000
_cell_angle_gamma 90.000000
_cell_volume 4601.355406
_symmetry_space_group_name_H-M "C M M M"
_symmetry_group_IT_number 65
_symmetry_cell_setting 'orthorhombic'
loop_
_space_group_symop_operation_xyz
x,y,z
-x,-y,z
x,-y,-z
-x,y,-z
-x,-y,-z
x,y,-z
-x,y,z
x,-y,z
1/2+x,1/2+y,z
1/2-x,1/2-y,z
1/2+x,1/2-y,-z
1/2-x,1/2+y,-z
1/2-x,1/2-y,-z
1/2+x,1/2+y,-z
1/2-x,1/2+y,z
1/2+x,1/2-y,z
loop_
_atom_site_type_symbol
_atom_site_label
_atom_site_fract_x
_atom_site_fract_y
_atom_site_fract_z
Si Si1 0.696108 0.623558 0.820760
Si Si2 0.586745 0.451755 0.179103
Si Si3 0.135943 0.383573 0.323224
Si Si4 0.500000 0.949254 0.320920
Si Si5 0.090350 0.297979 0.164595
Si Si6 0.088484 0.202045 0.178888
O O1 0.645963 0.583488 0.753822
O O2 0.782006 0.614586 0.759728
O O3 0.653433 0.667653 0.758967
O O4 0.699933 0.623909 0.000000
O O5 0.500000 0.441982 0.242347
O O6 0.614918 0.500000 0.230906
O O7 0.584732 0.448691 0.000000
O O8 0.148192 0.388140 0.500000
O O9 0.100979 0.335733 0.287424
O O10 0.077302 0.422400 0.264851
O O11 0.500000 0.950002 0.500000
O O12 0.500000 0.000000 0.259039
O O13 0.121412 0.250596 0.224203
O O14 0.000000 0.289782 0.135541
O O15 0.128720 0.310250 0.000000
O O16 0.000000 0.192754 0.243435
O O17 0.084082 0.197800 0.000000
#
# Coordination Sequence:
#
# PCOD8268189 Si02
#       6
#    16  16  16   8  16  16
#     4  10  19  31  50  77 108 137 169 210 252 298
#     4   8  14  26  47  75 104 134 167 205 250 297
#     4  11  22  36  54  75 100 131 168 210 259 313
#     4   9  20  40  61  75  91 127 177 219 258 315
#     4   9  17  32  55  77  99 129 170 215 254 298
#     4   8  15  29  51  78 104 137 177 210 242 291
#
# _framework density 19.124801000000001
#
# number of rings (size 3 to 8) (size 9 to 14) (size 15 to 20)
#    0.000    2.818    0.909    2.727    0.000    3.636 
#    0.000    4.545    0.000    7.091    0.000    1.273 
#    0.000    0.000    0.000    0.000    0.000    0.000 
#
# Total GULP energy -545110.357223 kJ/mol
# GULP energy per Si atom -12388.871755 kJ/mol
# Density = 1.908127 g / cm^3
# Si number density = 19.124801 Si / 1000 Ang^3
#
#
#
# Elastic Constant Matrix: (Units=GPa)
#
#
# Indices 1 2 3 4 5 6 
#
# 1 110.4834 85.1515 13.9084 0.0000 0.0000 0.0000
# 2 85.1515 176.9659 20.2829 0.0000 0.0000 0.0000
# 3 13.9084 20.2829 20.1793 0.0000 0.0000 0.0000
# 4 0.0000 0.0000 0.0000 15.8643 0.0000 0.0000
# 5 0.0000 0.0000 0.0000 0.0000 7.9604 0.0000
# 6 0.0000 0.0000 0.0000 0.0000 0.0000 15.3171
#
#
#
# Elastic Compliance Matrix: (Units=1/GPa)
#
#
# Indices 1 2 3 4 5 6 
#
# 1 0.014589 -0.006631 -0.003390 0.000000 0.000000 0.000000
# 2 -0.006631 0.009401 -0.004878 0.000000 0.000000 0.000000
# 3 -0.003390 -0.004878 0.056796 0.000000 0.000000 0.000000
# 4 0.000000 0.000000 0.000000 0.063035 0.000000 0.000000
# 5 0.000000 0.000000 0.000000 0.000000 0.125622 0.000000
# 6 0.000000 0.000000 0.000000 0.000000 0.000000 0.065287
#
#
# Mechanical properties :
#
#
# Convention : Reuss Voigt Hill
#
# Bulk Modulus (GPa) = 19.61326 60.70158 40.15742
# Shear Modulus (GPa) = 13.10537 20.38073 16.74305
#
# Velocity S-wave (km/s) = 2.62058 3.26800 2.96203
# Velocity P-wave (km/s) = 4.40843 6.78590 5.72200
#
# Compressibility (1/GPa) = 0.05098591
#
# Stress axis : x y z
#
# Youngs Moduli (GPa) = 68.54659 106.37512 17.60699
#
# Poissons Ratio (x) = 0.70539 0.05969
# Poissons Ratio (y) = 0.45454 0.08590
# Poissons Ratio (z) = 0.23237 0.51895
#
# Static dielectric constant tensor:
#      x y z
#    x 3.638620 0.000000 0.000000 
#    y 0.000000 4.053370 0.000000 
#    z 0.000000 0.000000 2.946480 
# 
# 
# High freq. dielectric constant tensor:
#      x y z
#    x 1.743040 0.000000 0.000000 
#    y 0.000000 1.759540 0.000000 
#    z 0.000000 0.000000 1.682250 
# 
# From -- ./inp_files/10129.got.cif
#   From: 2010.03.12/outbox.cif.g09.slc.cpg/sg65_6_cif.got.tgz:10129.got - 2010.04.10 20:52:16.
