data_PCOD8268989
_publ_section_title
;
Structure prediction by ZEFSAII (Michael W. Deem and Ramdas Pophale) SiO2 
 PCOD8268989
Probable space group: C M M M
;
_chemical_formula_sum "Si O2"
_cell_formula_units_Z 120
_cell_length_a 27.699858
_cell_length_b 28.223276
_cell_length_c 8.004788
_cell_angle_alpha 90.000000
_cell_angle_beta 90.000000
_cell_angle_gamma 90.000000
_cell_volume 6257.989066
_symmetry_space_group_name_H-M "C M M M"
_symmetry_group_IT_number 65
_symmetry_cell_setting 'orthorhombic'
loop_
_space_group_symop_operation_xyz
x,y,z
-x,-y,z
x,-y,-z
-x,y,-z
-x,-y,-z
x,y,-z
-x,y,z
x,-y,z
1/2+x,1/2+y,z
1/2-x,1/2-y,z
1/2+x,1/2-y,-z
1/2-x,1/2+y,-z
1/2-x,1/2-y,-z
1/2+x,1/2+y,-z
1/2-x,1/2+y,z
1/2+x,1/2-y,z
loop_
_atom_site_type_symbol
_atom_site_label
_atom_site_fract_x
_atom_site_fract_y
_atom_site_fract_z
Si Si1 0.944049 0.884283 0.688036
Si Si2 0.780060 0.794850 0.690747
Si Si3 0.889146 0.304514 0.308700
Si Si4 0.442829 0.446991 0.000000
Si Si5 0.201140 0.359205 0.191588
Si Si6 0.643740 0.947739 0.198627
Si Si7 0.553903 0.110757 0.803541
Si Si8 0.113803 0.798163 0.189777
O O1 0.937433 0.905640 0.500000
O O2 0.925275 0.920824 0.830091
O O3 0.912785 0.836599 0.696154
O O4 0.000000 0.871711 0.720734
O O5 0.794784 0.785483 0.500000
O O6 0.750000 0.750000 0.762199
O O7 0.747212 0.841837 0.704117
O O8 0.828471 0.801817 0.795004
O O9 0.872996 0.301354 0.500000
O O10 0.843243 0.322732 0.204577
O O11 0.934231 0.339712 0.286469
O O12 0.905011 0.253323 0.243637
O O13 0.420635 0.500000 0.000000
O O14 0.500000 0.450066 0.000000
O O15 0.184362 0.410689 0.262012
O O16 0.216907 0.362819 0.000000
O O17 0.590887 0.929905 0.257513
O O18 0.653383 0.000000 0.274600
O O19 0.644996 0.949591 0.000000
O O20 0.500000 0.094721 0.754153
O O21 0.559235 0.119273 0.000000
O O22 0.098763 0.807966 0.000000
#
# Coordination Sequence:
#
# PCOD8268989 Si02
#       8
#    16  16  16   8  16  16  16  16
#     4  10  21  38  59  87 123 158 194 235 280 336
#     4  11  22  35  54  81 111 143 180 226 278 334
#     4  11  21  33  49  71 102 142 182 222 276 337
#     4   9  18  36  62  90 117 148 190 234 278 329
#     4  10  19  33  53  77 104 135 176 226 279 332
#     4   8  15  29  51  78 104 133 175 228 283 335
#     4   9  18  32  49  72 102 137 182 232 279 330
#     4  12  23  36  57  82 114 151 189 231 279 338
#
# _framework density 19.175488000000001
#
# number of rings (size 3 to 8) (size 9 to 14) (size 15 to 20)
#    0.000    1.933    2.000    4.000    0.000    1.867 
#    0.000    2.667    0.000   10.800    0.000    3.733 
#    0.000    0.000    0.000    0.000    0.000    0.000 
#
# Total GULP energy -743984.337998 kJ/mol
# GULP energy per Si atom -12399.738967 kJ/mol
# Density = 1.913184 g / cm^3
# Si number density = 19.175488 Si / 1000 Ang^3
#
#
#
# Elastic Constant Matrix: (Units=GPa)
#
#
# Indices 1 2 3 4 5 6 
#
# 1 64.7180 40.6398 13.6465 0.0000 0.0000 0.0000
# 2 40.6398 144.8776 29.8966 0.0000 0.0000 0.0000
# 3 13.6465 29.8966 78.4907 0.0000 0.0000 0.0000
# 4 0.0000 0.0000 0.0000 13.2211 0.0000 0.0000
# 5 0.0000 0.0000 0.0000 0.0000 18.8766 0.0000
# 6 0.0000 0.0000 0.0000 0.0000 0.0000 21.7026
#
#
#
# Elastic Compliance Matrix: (Units=1/GPa)
#
#
# Indices 1 2 3 4 5 6 
#
# 1 0.018891 -0.005016 -0.001374 0.000000 0.000000 0.000000
# 2 -0.005016 0.008823 -0.002489 0.000000 0.000000 0.000000
# 3 -0.001374 -0.002489 0.013927 0.000000 0.000000 0.000000
# 4 0.000000 0.000000 0.000000 0.075636 0.000000 0.000000
# 5 0.000000 0.000000 0.000000 0.000000 0.052976 0.000000
# 6 0.000000 0.000000 0.000000 0.000000 0.000000 0.046077
#
#
# Mechanical properties :
#
#
# Convention : Reuss Voigt Hill
#
# Bulk Modulus (GPa) = 41.86792 50.71690 46.29241
# Shear Modulus (GPa) = 20.65705 24.35363 22.50534
#
# Velocity S-wave (km/s) = 3.28573 3.56763 3.42958
# Velocity P-wave (km/s) = 6.02297 6.59370 6.31479
#
# Compressibility (1/GPa) = 0.02388463
#
# Stress axis : x y z
#
# Youngs Moduli (GPa) = 52.93550 113.34217 71.80236
#
# Poissons Ratio (x) = 0.56848 0.09866
# Poissons Ratio (y) = 0.26550 0.17868
# Poissons Ratio (z) = 0.07273 0.28206
#
# Static dielectric constant tensor:
#      x y z
#    x 3.343430 0.000000 0.000000 
#    y 0.000000 3.711480 0.000000 
#    z 0.000000 0.000000 3.430220 
# 
# 
# High freq. dielectric constant tensor:
#      x y z
#    x 1.723520 0.000000 0.000000 
#    y 0.000000 1.735710 0.000000 
#    z 0.000000 0.000000 1.744350 
# 
# From -- ./inp_files/17064.got.cif
#   From: 2010.03.12/outbox.cif.g09.slc.cpg/sg65_9_cif.got.tgz:17064.got - 2010.04.10 20:52:16.
