data_PCOD8268285
_publ_section_title
;
Structure prediction by ZEFSAII (Michael W. Deem and Ramdas Pophale) SiO2 
 PCOD8268285
Probable space group: C M M M
;
_chemical_formula_sum "Si O2"
_cell_formula_units_Z 88
_cell_length_a 19.853300
_cell_length_b 24.134647
_cell_length_c 9.830868
_cell_angle_alpha 90.000000
_cell_angle_beta 90.000000
_cell_angle_gamma 90.000000
_cell_volume 4710.483871
_symmetry_space_group_name_H-M "C M M M"
_symmetry_group_IT_number 65
_symmetry_cell_setting 'orthorhombic'
loop_
_space_group_symop_operation_xyz
x,y,z
-x,-y,z
x,-y,-z
-x,y,-z
-x,-y,-z
x,y,-z
-x,y,z
x,-y,z
1/2+x,1/2+y,z
1/2-x,1/2-y,z
1/2+x,1/2-y,-z
1/2-x,1/2+y,-z
1/2-x,1/2-y,-z
1/2+x,1/2+y,-z
1/2-x,1/2+y,z
1/2+x,1/2-y,z
loop_
_atom_site_type_symbol
_atom_site_label
_atom_site_fract_x
_atom_site_fract_y
_atom_site_fract_z
Si Si1 0.500000 0.563315 0.161522
Si Si2 0.269466 0.562930 0.651653
Si Si3 0.866754 0.126058 0.160200
Si Si4 0.075036 0.658753 0.844491
Si Si5 0.388538 0.937421 0.654180
Si Si6 0.673999 0.747266 0.839371
O O1 0.500000 0.500000 0.218305
O O2 0.434967 0.597079 0.214177
O O3 0.500000 0.561954 0.000000
O O4 0.288605 0.583979 0.500000
O O5 0.293812 0.500000 0.668944
O O6 0.303450 0.599212 0.766815
O O7 0.190671 0.567835 0.675371
O O8 0.865059 0.190817 0.198871
O O9 0.857784 0.116739 0.000000
O O10 0.074365 0.602879 0.757685
O O11 0.128608 0.702469 0.781995
O O12 0.000000 0.684837 0.837528
O O13 0.093800 0.644076 0.000000
O O14 0.408328 0.921470 0.500000
O O15 0.412126 0.000000 0.685455
O O16 0.750000 0.750000 0.777361
O O17 0.678941 0.753041 0.000000
#
# Coordination Sequence:
#
# PCOD8268285 Si02
#       6
#     8  16  16  16  16  16
#     4   9  18  30  45  73 107 135 172 217 258 310
#     4   9  18  33  52  75 104 135 170 217 269 315
#     4  10  19  31  52  75 102 139 177 219 264 312
#     4  10  21  35  53  78 109 139 171 215 263 310
#     4   9  19  36  56  77 103 137 175 214 260 315
#     4   9  18  32  51  76 104 135 174 216 261 314
#
# _framework density 18.681732
#
# number of rings (size 3 to 8) (size 9 to 14) (size 15 to 20)
#    0.000    2.636    0.000    2.727    1.273    4.364 
#    0.000    5.000    0.000    4.909    0.000    0.000 
#    0.000    0.000    0.000    0.000    0.000    0.000 
#
# Total GULP energy -545496.776451 kJ/mol
# GULP energy per Si atom -12397.654010 kJ/mol
# Density = 1.863921 g / cm^3
# Si number density = 18.681732 Si / 1000 Ang^3
#
#
#
# Elastic Constant Matrix: (Units=GPa)
#
#
# Indices 1 2 3 4 5 6 
#
# 1 91.7092 58.9135 29.2849 0.0000 0.0000 0.0000
# 2 58.9135 121.4251 40.3427 0.0000 0.0000 0.0000
# 3 29.2849 40.3427 49.2052 0.0000 0.0000 0.0000
# 4 0.0000 0.0000 0.0000 17.2585 0.0000 0.0000
# 5 0.0000 0.0000 0.0000 0.0000 18.6634 0.0000
# 6 0.0000 0.0000 0.0000 0.0000 0.0000 35.5316
#
#
#
# Elastic Compliance Matrix: (Units=1/GPa)
#
#
# Indices 1 2 3 4 5 6 
#
# 1 0.016531 -0.006531 -0.004484 0.000000 0.000000 0.000000
# 2 -0.006531 0.013899 -0.007509 0.000000 0.000000 0.000000
# 3 -0.004484 -0.007509 0.029148 0.000000 0.000000 0.000000
# 4 0.000000 0.000000 0.000000 0.057943 0.000000 0.000000
# 5 0.000000 0.000000 0.000000 0.000000 0.053581 0.000000
# 6 0.000000 0.000000 0.000000 0.000000 0.000000 0.028144
#
#
# Mechanical properties :
#
#
# Convention : Reuss Voigt Hill
#
# Bulk Modulus (GPa) = 44.38342 57.71352 51.04847
# Shear Modulus (GPa) = 20.50834 23.21059 21.85946
#
# Velocity S-wave (km/s) = 3.31686 3.52862 3.42438
# Velocity P-wave (km/s) = 6.20306 6.89650 6.55895
#
# Compressibility (1/GPa) = 0.02253093
#
# Stress axis : x y z
#
# Youngs Moduli (GPa) = 60.49113 71.94814 34.30765
#
# Poissons Ratio (x) = 0.46989 0.15384
# Poissons Ratio (y) = 0.39506 0.25760
# Poissons Ratio (z) = 0.27125 0.54023
#
# Static dielectric constant tensor:
#      x y z
#    x 3.513840 0.000000 0.000000 
#    y 0.000000 3.611210 0.000000 
#    z 0.000000 0.000000 3.123930 
# 
# 
# High freq. dielectric constant tensor:
#      x y z
#    x 1.733360 0.000000 0.000000 
#    y 0.000000 1.728300 0.000000 
#    z 0.000000 0.000000 1.689170 
# 
# From -- ./inp_files/11718.got.cif
#   From: 2010.03.12/outbox.cif.g09.slc.cpg/sg65_6_cif.got.tgz:11718.got - 2010.04.10 20:52:16.
