data_PCOD8268183
_publ_section_title
;
Structure prediction by ZEFSAII (Michael W. Deem and Ramdas Pophale) SiO2 
 PCOD8268183
Probable space group: C M M M
;
_chemical_formula_sum "Si O2"
_cell_formula_units_Z 96
_cell_length_a 27.307720
_cell_length_b 8.054308
_cell_length_c 22.552117
_cell_angle_alpha 90.000000
_cell_angle_beta 90.000000
_cell_angle_gamma 90.000000
_cell_volume 4960.220585
_symmetry_space_group_name_H-M "C M M M"
_symmetry_group_IT_number 65
_symmetry_cell_setting 'orthorhombic'
loop_
_space_group_symop_operation_xyz
x,y,z
-x,-y,z
x,-y,-z
-x,y,-z
-x,-y,-z
x,y,-z
-x,y,z
x,-y,z
1/2+x,1/2+y,z
1/2-x,1/2-y,z
1/2+x,1/2-y,-z
1/2-x,1/2+y,-z
1/2-x,1/2-y,-z
1/2+x,1/2+y,-z
1/2-x,1/2+y,z
1/2+x,1/2-y,z
loop_
_atom_site_type_symbol
_atom_site_label
_atom_site_fract_x
_atom_site_fract_y
_atom_site_fract_z
Si Si1 0.803707 0.306114 0.792188
Si Si2 0.945655 0.187873 0.755296
Si Si3 0.500000 0.183993 0.429993
Si Si4 0.604820 0.692244 0.434086
Si Si5 0.138186 0.306886 0.317932
Si Si6 0.603650 0.190756 0.134407
Si Si7 0.443648 0.500000 0.929941
O O1 0.804057 0.500000 0.787985
O O2 0.750000 0.250000 0.810831
O O3 0.819095 0.237747 0.726318
O O4 0.842127 0.252131 0.843323
O O5 0.911520 0.211924 0.698720
O O6 0.930982 0.311896 0.808033
O O7 0.000000 0.229519 0.733456
O O8 0.941375 0.000000 0.780073
O O9 0.500000 0.174261 0.500000
O O10 0.450436 0.277276 0.410331
O O11 0.500000 0.000000 0.401819
O O12 0.612579 0.771223 0.500000
O O13 0.615343 0.500000 0.437781
O O14 0.644907 0.769290 0.388026
O O15 0.131508 0.500000 0.306876
O O16 0.584080 0.329642 0.088837
O O17 0.603611 0.000000 0.108292
O O18 0.500000 0.500000 0.905789
O O19 0.443846 0.500000 0.000000
#
# Coordination Sequence:
#
# PCOD8268183 Si02
#       7
#    16  16   8  16  16  16   8
#     4   9  20  36  60  91 114 145 190 242 308 363
#     4  10  19  31  50  76 108 147 186 229 287 345
#     4   9  17  29  45  63  85 125 179 225 269 330
#     4  10  20  33  48  66  94 137 184 230 284 347
#     4  10  21  34  48  75 109 136 179 232 286 353
#     4  10  21  38  59  89 124 160 205 252 296 351
#     4  11  24  40  62  94 130 174 217 245 284 340
#
# _framework density 19.353978000000001
#
# number of rings (size 3 to 8) (size 9 to 14) (size 15 to 20)
#    0.000    2.167    0.833    3.250    2.333    6.000 
#    0.000    0.833    0.000    1.000    0.000    0.000 
#    0.000    0.000    0.000    0.000    0.000    0.000 
#
# Total GULP energy -594747.691698 kJ/mol
# GULP energy per Si atom -12390.576910 kJ/mol
# Density = 1.930993 g / cm^3
# Si number density = 19.353978 Si / 1000 Ang^3
#
#
#
# Elastic Constant Matrix: (Units=GPa)
#
#
# Indices 1 2 3 4 5 6 
#
# 1 111.3824 36.6683 35.8660 0.0000 0.0000 0.0000
# 2 36.6683 78.1523 30.3396 0.0000 0.0000 0.0000
# 3 35.8660 30.3396 76.0903 0.0000 0.0000 0.0000
# 4 0.0000 0.0000 0.0000 27.0501 0.0000 0.0000
# 5 0.0000 0.0000 0.0000 0.0000 20.9435 0.0000
# 6 0.0000 0.0000 0.0000 0.0000 0.0000 25.4226
#
#
#
# Elastic Compliance Matrix: (Units=1/GPa)
#
#
# Indices 1 2 3 4 5 6 
#
# 1 0.011507 -0.003897 -0.003870 0.000000 0.000000 0.000000
# 2 -0.003897 0.016458 -0.004726 0.000000 0.000000 0.000000
# 3 -0.003870 -0.004726 0.016851 0.000000 0.000000 0.000000
# 4 0.000000 0.000000 0.000000 0.036968 0.000000 0.000000
# 5 0.000000 0.000000 0.000000 0.000000 0.047748 0.000000
# 6 0.000000 0.000000 0.000000 0.000000 0.000000 0.039335
#
#
# Mechanical properties :
#
#
# Convention : Reuss Voigt Hill
#
# Bulk Modulus (GPa) = 50.42588 52.37476 51.40032
# Shear Modulus (GPa) = 24.94224 25.53331 25.23777
#
# Velocity S-wave (km/s) = 3.59380 3.63613 3.61502
# Velocity P-wave (km/s) = 6.58267 6.68946 6.63628
#
# Compressibility (1/GPa) = 0.01983109
#
# Stress axis : x y z
#
# Youngs Moduli (GPa) = 86.90252 60.75944 59.34388
#
# Poissons Ratio (x) = 0.23675 0.22968
# Poissons Ratio (y) = 0.33862 0.28045
# Poissons Ratio (z) = 0.33634 0.28714
#
# Static dielectric constant tensor:
#      x y z
#    x 3.000620 0.000000 0.000000 
#    y 0.000000 3.583970 0.000000 
#    z 0.000000 0.000000 3.526420 
# 
# 
# High freq. dielectric constant tensor:
#      x y z
#    x 1.723900 0.000000 0.000000 
#    y 0.000000 1.758210 0.000000 
#    z 0.000000 0.000000 1.736550 
# 
# From -- ./inp_files/71760.got.cif
#   From: 2010.03.12/outbox.cif.g09.slc.cpg/sg65_36_cif.got.tgz:71760.got - 2010.04.10 20:52:16.
