data_PCOD8268710
_publ_section_title
;
Structure prediction by ZEFSAII (Michael W. Deem and Ramdas Pophale) SiO2 
 PCOD8268710
Probable space group: C M M M
;
_chemical_formula_sum "Si O2"
_cell_formula_units_Z 80
_cell_length_a 8.546713
_cell_length_b 19.211690
_cell_length_c 25.297560
_cell_angle_alpha 90.000000
_cell_angle_beta 90.000000
_cell_angle_gamma 90.000000
_cell_volume 4153.778417
_symmetry_space_group_name_H-M "C M M M"
_symmetry_group_IT_number 65
_symmetry_cell_setting 'orthorhombic'
loop_
_space_group_symop_operation_xyz
x,y,z
-x,-y,z
x,-y,-z
-x,y,-z
-x,-y,-z
x,y,-z
-x,y,z
x,-y,z
1/2+x,1/2+y,z
1/2-x,1/2-y,z
1/2+x,1/2-y,-z
1/2-x,1/2+y,-z
1/2-x,1/2-y,-z
1/2+x,1/2+y,-z
1/2-x,1/2+y,z
1/2+x,1/2-y,z
loop_
_atom_site_type_symbol
_atom_site_label
_atom_site_fract_x
_atom_site_fract_y
_atom_site_fract_z
Si Si1 0.817678 0.675914 0.061630
Si Si2 0.314383 0.674277 0.349199
Si Si3 0.682795 0.580824 0.147493
Si Si4 0.314052 0.422174 0.558223
Si Si5 0.183476 0.325365 0.237729
O O1 0.750000 0.750000 0.080328
O O2 0.728570 0.614188 0.091445
O O3 0.000000 0.674025 0.075801
O O4 0.786006 0.664021 0.000000
O O5 0.500000 0.675020 0.349266
O O6 0.250000 0.750000 0.360923
O O7 0.244514 0.625798 0.395505
O O8 0.256453 0.646999 0.292465
O O9 0.500000 0.590977 0.158176
O O10 0.729825 0.500000 0.146333
O O11 0.779324 0.618386 0.193292
O O12 0.261008 0.395140 0.500000
O O13 0.500000 0.422358 0.561308
O O14 0.249875 0.500000 0.567149
O O15 0.250000 0.250000 0.221460
O O16 0.000000 0.317237 0.245057
#
# Coordination Sequence:
#
# PCOD8268710 Si02
#       5
#    16  16  16  16  16
#     4  10  21  38  61  87 115 148 186 226 268 318
#     4  10  19  32  52  78 106 136 173 218 267 318
#     4  11  24  40  58  82 113 147 183 224 271 323
#     4   8  15  29  49  73 101 135 175 216 259 311
#     4  11  22  38  59  80 107 142 181 225 272 325
#
# _framework density 19.259573
#
# number of rings (size 3 to 8) (size 9 to 14) (size 15 to 20)
#    0.000    2.000    0.000    6.000    0.000    4.400 
#    0.000    4.000    0.000    3.600    0.000    5.600 
#    0.000    0.000    0.000    0.000    0.000    0.000 
#
# Total GULP energy -496061.070487 kJ/mol
# GULP energy per Si atom -12401.526762 kJ/mol
# Density = 1.921574 g / cm^3
# Si number density = 19.259573 Si / 1000 Ang^3
#
#
#
# Elastic Constant Matrix: (Units=GPa)
#
#
# Indices 1 2 3 4 5 6 
#
# 1 74.6221 28.0136 25.3664 0.0000 0.0000 0.0000
# 2 28.0136 110.1353 73.1929 0.0000 0.0000 0.0000
# 3 25.3664 73.1929 122.8265 0.0000 0.0000 0.0000
# 4 0.0000 0.0000 0.0000 29.2818 0.0000 0.0000
# 5 0.0000 0.0000 0.0000 0.0000 19.7855 0.0000
# 6 0.0000 0.0000 0.0000 0.0000 0.0000 26.8095
#
#
#
# Elastic Compliance Matrix: (Units=1/GPa)
#
#
# Indices 1 2 3 4 5 6 
#
# 1 0.014952 -0.002899 -0.001360 0.000000 0.000000 0.000000
# 2 -0.002899 0.015595 -0.008695 0.000000 0.000000 0.000000
# 3 -0.001360 -0.008695 0.013604 0.000000 0.000000 0.000000
# 4 0.000000 0.000000 0.000000 0.034151 0.000000 0.000000
# 5 0.000000 0.000000 0.000000 0.000000 0.050542 0.000000
# 6 0.000000 0.000000 0.000000 0.000000 0.000000 0.037300
#
#
# Mechanical properties :
#
#
# Convention : Reuss Voigt Hill
#
# Bulk Modulus (GPa) = 54.81643 62.30331 58.55987
# Shear Modulus (GPa) = 25.23561 27.24273 26.23917
#
# Velocity S-wave (km/s) = 3.62372 3.76507 3.69507
# Velocity P-wave (km/s) = 6.78470 7.16383 6.97684
#
# Compressibility (1/GPa) = 0.01824271
#
# Stress axis : x y z
#
# Youngs Moduli (GPa) = 66.88254 64.12172 73.50955
#
# Poissons Ratio (x) = 0.18589 0.10000
# Poissons Ratio (y) = 0.19389 0.63914
# Poissons Ratio (z) = 0.09098 0.55751
#
# Static dielectric constant tensor:
#      x y z
#    x 3.433110 0.000000 0.000000 
#    y 0.000000 3.610200 0.000000 
#    z 0.000000 0.000000 3.789670 
# 
# 
# High freq. dielectric constant tensor:
#      x y z
#    x 1.744150 0.000000 0.000000 
#    y 0.000000 1.743940 0.000000 
#    z 0.000000 0.000000 1.764070 
# 
# From -- ./inp_files/72820.got.cif
#   From: 2010.03.12/outbox.cif.g09.slc.cpg/sg65_37_cif.got.tgz:72820.got - 2010.04.10 20:52:16.
