data_PCOD8268032
_publ_section_title
;
Structure prediction by ZEFSAII (Michael W. Deem and Ramdas Pophale) SiO2 
 PCOD8268032
Probable space group: C M M M
;
_chemical_formula_sum "Si O2"
_cell_formula_units_Z 96
_cell_length_a 8.947507
_cell_length_b 19.019917
_cell_length_c 31.096540
_cell_angle_alpha 90.000000
_cell_angle_beta 90.000000
_cell_angle_gamma 90.000000
_cell_volume 5292.035314
_symmetry_space_group_name_H-M "C M M M"
_symmetry_group_IT_number 65
_symmetry_cell_setting 'orthorhombic'
loop_
_space_group_symop_operation_xyz
x,y,z
-x,-y,z
x,-y,-z
-x,y,-z
-x,-y,-z
x,y,-z
-x,y,z
x,-y,z
1/2+x,1/2+y,z
1/2-x,1/2-y,z
1/2+x,1/2-y,-z
1/2-x,1/2+y,-z
1/2-x,1/2-y,-z
1/2+x,1/2+y,-z
1/2-x,1/2+y,z
1/2+x,1/2-y,z
loop_
_atom_site_type_symbol
_atom_site_label
_atom_site_fract_x
_atom_site_fract_y
_atom_site_fract_z
Si Si1 0.668776 0.083621 0.297362
Si Si2 0.823157 0.326353 0.138811
Si Si3 0.673839 0.824288 0.045348
Si Si4 0.827164 0.917062 0.788850
Si Si5 0.328745 0.583241 0.616983
Si Si6 0.674660 0.177833 0.549798
O O1 0.500000 0.113018 0.296654
O O2 0.756053 0.111087 0.255488
O O3 0.752312 0.112431 0.339597
O O4 0.669269 0.000000 0.297922
O O5 0.750000 0.250000 0.145059
O O6 0.783416 0.359424 0.091209
O O7 0.756776 0.381090 0.172022
O O8 0.000000 0.319359 0.146008
O O9 0.500000 0.809169 0.046241
O O10 0.750000 0.750000 0.043506
O O11 0.714979 0.865642 0.000000
O O12 0.000000 0.895797 0.789133
O O13 0.804554 0.000000 0.793604
O O14 0.500000 0.607799 0.616991
O O15 0.314622 0.500000 0.614122
O O16 0.244471 0.613690 0.575859
O O17 0.709242 0.163238 0.500000
O O18 0.500000 0.182843 0.559179
O O19 0.750000 0.250000 0.565189
#
# Coordination Sequence:
#
# PCOD8268032 Si02
#       6
#    16  16  16  16  16  16
#     4   9  17  31  52  76 101 130 166 206 248 296
#     4  10  19  31  49  73 101 130 162 203 250 297
#     4   8  14  25  42  65  92 122 157 197 241 290
#     4  10  20  34  52  73  99 132 169 206 246 296
#     4  10  20  34  54  80 108 136 168 208 252 296
#     4  10  21  37  56  77 104 139 176 212 252 300
#
# _framework density 18.140467999999998
#
# number of rings (size 3 to 8) (size 9 to 14) (size 15 to 20)
#    0.000    2.500    0.000    2.500    0.000    6.000 
#    0.000    2.500    0.000    0.500    0.000    3.500 
#    0.000    0.000    0.000    0.000    0.000    0.000 
#
# Total GULP energy -594849.544606 kJ/mol
# GULP energy per Si atom -12392.698846 kJ/mol
# Density = 1.809918 g / cm^3
# Si number density = 18.140468 Si / 1000 Ang^3
#
#
#
# Elastic Constant Matrix: (Units=GPa)
#
#
# Indices 1 2 3 4 5 6 
#
# 1 123.1560 31.6715 76.0223 0.0000 0.0000 0.0000
# 2 31.6715 27.5299 39.2435 0.0000 0.0000 0.0000
# 3 76.0223 39.2435 153.3593 0.0000 0.0000 0.0000
# 4 0.0000 0.0000 0.0000 22.3908 0.0000 0.0000
# 5 0.0000 0.0000 0.0000 0.0000 29.7550 0.0000
# 6 0.0000 0.0000 0.0000 0.0000 0.0000 26.9203
#
#
#
# Elastic Compliance Matrix: (Units=1/GPa)
#
#
# Indices 1 2 3 4 5 6 
#
# 1 0.012998 -0.009081 -0.004119 0.000000 0.000000 0.000000
# 2 -0.009081 0.063528 -0.011755 0.000000 0.000000 0.000000
# 3 -0.004119 -0.011755 0.011571 0.000000 0.000000 0.000000
# 4 0.000000 0.000000 0.000000 0.044661 0.000000 0.000000
# 5 0.000000 0.000000 0.000000 0.000000 0.033608 0.000000
# 6 0.000000 0.000000 0.000000 0.000000 0.000000 0.037147
#
#
# Mechanical properties :
#
#
# Convention : Reuss Voigt Hill
#
# Bulk Modulus (GPa) = 26.18777 66.43553 46.31165
# Shear Modulus (GPa) = 18.78630 26.28706 22.53668
#
# Velocity S-wave (km/s) = 3.22157 3.81081 3.52851
# Velocity P-wave (km/s) = 5.32029 7.48768 6.49503
#
# Compressibility (1/GPa) = 0.03818576
#
# Stress axis : x y z
#
# Youngs Moduli (GPa) = 76.93449 15.74117 86.42564
#
# Poissons Ratio (x) = 0.14295 0.35603
# Poissons Ratio (y) = 0.69866 1.01590
# Poissons Ratio (z) = 0.31693 0.18503
#
# Static dielectric constant tensor:
#      x y z
#    x 3.552360 0.000000 0.000000 
#    y 0.000000 2.868530 0.000000 
#    z 0.000000 0.000000 3.882290 
# 
# 
# High freq. dielectric constant tensor:
#      x y z
#    x 1.721250 0.000000 0.000000 
#    y 0.000000 1.650350 0.000000 
#    z 0.000000 0.000000 1.727850 
# 
# From -- ./inp_files/73069.got.cif
#   From: 2010.03.12/outbox.cif.g09.slc.cpg/sg65_37_cif.got.tgz:73069.got - 2010.04.10 20:52:16.
