data_PCOD8268571
_publ_section_title
;
Structure prediction by ZEFSAII (Michael W. Deem and Ramdas Pophale) SiO2 
 PCOD8268571
Probable space group: C M M M
;
_chemical_formula_sum "Si O2"
_cell_formula_units_Z 104
_cell_length_a 28.109106
_cell_length_b 22.785171
_cell_length_c 9.129486
_cell_angle_alpha 90.000000
_cell_angle_beta 90.000000
_cell_angle_gamma 90.000000
_cell_volume 5847.169082
_symmetry_space_group_name_H-M "C M M M"
_symmetry_group_IT_number 65
_symmetry_cell_setting 'orthorhombic'
loop_
_space_group_symop_operation_xyz
x,y,z
-x,-y,z
x,-y,-z
-x,y,-z
-x,-y,-z
x,y,-z
-x,y,z
x,-y,z
1/2+x,1/2+y,z
1/2-x,1/2-y,z
1/2+x,1/2-y,-z
1/2-x,1/2+y,-z
1/2-x,1/2-y,-z
1/2+x,1/2+y,-z
1/2-x,1/2+y,z
1/2+x,1/2-y,z
loop_
_atom_site_type_symbol
_atom_site_label
_atom_site_fract_x
_atom_site_fract_y
_atom_site_fract_z
Si Si1 0.000000 0.070033 0.336683
Si Si2 0.226206 0.566973 0.830845
Si Si3 0.090493 0.069137 0.167407
Si Si4 0.681538 0.630266 0.168762
Si Si5 0.852977 0.630927 0.674108
Si Si6 0.946865 0.566179 0.673684
Si Si7 0.196383 0.739157 0.830735
O O1 0.953935 0.094996 0.255272
O O2 0.000000 0.094940 0.500000
O O3 0.000000 0.000000 0.333451
O O4 0.242579 0.500000 0.812807
O O5 0.267839 0.609244 0.766607
O O6 0.180327 0.578556 0.731486
O O7 0.214132 0.581648 0.000000
O O8 0.137779 0.095757 0.241908
O O9 0.093508 0.000000 0.180868
O O10 0.084598 0.089484 0.000000
O O11 0.670449 0.698747 0.188624
O O12 0.683779 0.611289 0.000000
O O13 0.849795 0.636064 0.500000
O O14 0.906656 0.613114 0.726057
O O15 0.834703 0.692075 0.742570
O O16 0.945965 0.564000 0.500000
O O17 0.935958 0.500000 0.732756
O O18 0.000000 0.585836 0.727231
O O19 0.250000 0.750000 0.770862
O O20 0.199126 0.718676 0.000000
#
# Coordination Sequence:
#
# PCOD8268571 Si02
#       7
#     8  16  16  16  16  16  16
#     4   9  17  29  45  67  97 129 155 185 238 301
#     4  10  19  32  51  75 104 136 167 200 247 306
#     4   9  16  28  49  74  95 119 159 207 247 288
#     4   9  17  31  51  73  95 127 168 209 246 289
#     4  11  21  32  51  78 106 133 169 215 257 298
#     4   8  15  30  52  76 102 134 170 207 253 310
#     4  10  19  35  55  71  96 136 176 206 240 294
#
# _framework density 17.786384000000002
#
# number of rings (size 3 to 8) (size 9 to 14) (size 15 to 20)
#    0.000    2.538    1.538    2.077    0.000    4.000 
#    0.000    1.538    1.692    3.692    0.000    5.385 
#    0.000    0.000    0.000    0.000    0.000    0.000 
#
# Total GULP energy -644454.394502 kJ/mol
# GULP energy per Si atom -12393.353740 kJ/mol
# Density = 1.774590 g / cm^3
# Si number density = 17.786384 Si / 1000 Ang^3
#
#
#
# Elastic Constant Matrix: (Units=GPa)
#
#
# Indices 1 2 3 4 5 6 
#
# 1 161.6649 52.8883 44.9737 0.0000 0.0000 0.0000
# 2 52.8883 80.8891 27.0415 0.0000 0.0000 0.0000
# 3 44.9737 27.0415 52.8392 0.0000 0.0000 0.0000
# 4 0.0000 0.0000 0.0000 21.2480 0.0000 0.0000
# 5 0.0000 0.0000 0.0000 0.0000 17.9717 0.0000
# 6 0.0000 0.0000 0.0000 0.0000 0.0000 25.1162
#
#
#
# Elastic Compliance Matrix: (Units=1/GPa)
#
#
# Indices 1 2 3 4 5 6 
#
# 1 0.009085 -0.004047 -0.005661 0.000000 0.000000 0.000000
# 2 -0.004047 0.016717 -0.005111 0.000000 0.000000 0.000000
# 3 -0.005661 -0.005111 0.026359 0.000000 0.000000 0.000000
# 4 0.000000 0.000000 0.000000 0.047063 0.000000 0.000000
# 5 0.000000 0.000000 0.000000 0.000000 0.055643 0.000000
# 6 0.000000 0.000000 0.000000 0.000000 0.000000 0.039815
#
#
# Mechanical properties :
#
#
# Convention : Reuss Voigt Hill
#
# Bulk Modulus (GPa) = 44.39857 60.57781 52.48819
# Shear Modulus (GPa) = 21.56773 24.23316 22.90045
#
# Velocity S-wave (km/s) = 3.48602 3.69515 3.59211
# Velocity P-wave (km/s) = 6.42023 7.23450 6.83949
#
# Compressibility (1/GPa) = 0.02252325
#
# Stress axis : x y z
#
# Youngs Moduli (GPa) = 110.07728 59.81800 37.93762
#
# Poissons Ratio (x) = 0.24210 0.21476
# Poissons Ratio (y) = 0.44552 0.19388
# Poissons Ratio (z) = 0.62314 0.30571
#
# Static dielectric constant tensor:
#      x y z
#    x 3.642220 0.000000 0.000000 
#    y 0.000000 3.174160 0.000000 
#    z 0.000000 0.000000 3.022480 
# 
# 
# High freq. dielectric constant tensor:
#      x y z
#    x 1.696210 0.000000 0.000000 
#    y 0.000000 1.676190 0.000000 
#    z 0.000000 0.000000 1.650390 
# 
# From -- ./inp_files/16785.got.cif
#   From: 2010.03.12/outbox.cif.g09.slc.cpg/sg65_9_cif.got.tgz:16785.got - 2010.04.10 20:52:16.
