data_PCOD8268933
_publ_section_title
;
Structure prediction by ZEFSAII (Michael W. Deem and Ramdas Pophale) SiO2 
 PCOD8268933
Probable space group: C M M M
;
_chemical_formula_sum "Si O2"
_cell_formula_units_Z 96
_cell_length_a 14.091859
_cell_length_b 23.981660
_cell_length_c 13.366850
_cell_angle_alpha 90.000000
_cell_angle_beta 90.000000
_cell_angle_gamma 90.000000
_cell_volume 4517.275780
_symmetry_space_group_name_H-M "C M M M"
_symmetry_group_IT_number 65
_symmetry_cell_setting 'orthorhombic'
loop_
_space_group_symop_operation_xyz
x,y,z
-x,-y,z
x,-y,-z
-x,y,-z
-x,-y,-z
x,y,-z
-x,y,z
x,-y,z
1/2+x,1/2+y,z
1/2-x,1/2-y,z
1/2+x,1/2-y,-z
1/2-x,1/2+y,-z
1/2-x,1/2-y,-z
1/2+x,1/2+y,-z
1/2-x,1/2+y,z
1/2+x,1/2-y,z
loop_
_atom_site_type_symbol
_atom_site_label
_atom_site_fract_x
_atom_site_fract_y
_atom_site_fract_z
Si Si1 0.394394 0.223623 0.880794
Si Si2 0.603155 0.843134 0.617897
Si Si3 0.890177 0.062515 0.790251
Si Si4 0.890888 0.779192 0.614340
Si Si5 0.295759 0.610638 0.383765
Si Si6 0.207537 0.833296 0.118033
O O1 0.500000 0.209803 0.837981
O O2 0.317205 0.176769 0.846562
O O3 0.361370 0.284423 0.839110
O O4 0.398308 0.225689 0.000000
O O5 0.597987 0.831389 0.500000
O O6 0.500000 0.864865 0.655428
O O7 0.626430 0.781632 0.666352
O O8 0.682799 0.889751 0.639618
O O9 0.850535 0.062593 0.676243
O O10 0.826939 0.105275 0.852944
O O11 0.000000 0.080262 0.793369
O O12 0.877656 0.000000 0.833167
O O13 0.856074 0.776228 0.500000
O O14 0.830420 0.829710 0.662208
O O15 0.000000 0.796407 0.621354
O O16 0.319426 0.602185 0.500000
O O17 0.203977 0.828627 0.000000
#
# Coordination Sequence:
#
# PCOD8268933 Si02
#       6
#    16  16  16  16  16  16
#     4   8  14  29  58  93 123 148 175 212 263 327
#     4   8  14  26  46  73 103 132 166 213 268 327
#     4  11  25  41  55  76 106 140 186 238 277 320
#     4   8  13  23  42  69  99 129 162 204 258 318
#     4  10  19  33  53  72  98 140 183 225 275 322
#     4   9  18  35  60  88 118 149 178 216 270 325
#
# _framework density 21.251747000000002
#
# number of rings (size 3 to 8) (size 9 to 14) (size 15 to 20)
#    0.000    3.000    0.000    3.500    0.000    4.667 
#    6.000    2.500    0.000    2.000    0.000    4.667 
#    0.000    0.000    0.000    0.000    0.000    0.000 
#
# Total GULP energy -594807.750181 kJ/mol
# GULP energy per Si atom -12391.828129 kJ/mol
# Density = 2.120338 g / cm^3
# Si number density = 21.251747 Si / 1000 Ang^3
#
#
#
# Elastic Constant Matrix: (Units=GPa)
#
#
# Indices 1 2 3 4 5 6 
#
# 1 162.0575 65.2244 14.7111 0.0000 0.0000 0.0000
# 2 65.2244 90.6535 13.1550 0.0000 0.0000 0.0000
# 3 14.7111 13.1550 8.5183 0.0000 0.0000 0.0000
# 4 0.0000 0.0000 0.0000 21.0212 0.0000 0.0000
# 5 0.0000 0.0000 0.0000 0.0000 19.7299 0.0000
# 6 0.0000 0.0000 0.0000 0.0000 0.0000 28.2025
#
#
#
# Elastic Compliance Matrix: (Units=1/GPa)
#
#
# Indices 1 2 3 4 5 6 
#
# 1 0.009012 -0.005446 -0.007153 0.000000 0.000000 0.000000
# 2 -0.005446 0.017508 -0.017633 0.000000 0.000000 0.000000
# 3 -0.007153 -0.017633 0.156980 0.000000 0.000000 0.000000
# 4 0.000000 0.000000 0.000000 0.047571 0.000000 0.000000
# 5 0.000000 0.000000 0.000000 0.000000 0.050684 0.000000
# 6 0.000000 0.000000 0.000000 0.000000 0.000000 0.035458
#
#
# Mechanical properties :
#
#
# Convention : Reuss Voigt Hill
#
# Bulk Modulus (GPa) = 8.12774 49.71227 28.92000
# Shear Modulus (GPa) = 11.94201 24.99997 18.47099
#
# Velocity S-wave (km/s) = 2.37308 3.43355 2.95134
# Velocity P-wave (km/s) = 3.36771 6.25795 5.02511
#
# Compressibility (1/GPa) = 0.12303543
#
# Stress axis : x y z
#
# Youngs Moduli (GPa) = 110.96485 57.11633 6.37023
#
# Poissons Ratio (x) = 0.31105 0.04557
# Poissons Ratio (y) = 0.60431 0.11233
# Poissons Ratio (z) = 0.79376 1.00714
#
# Static dielectric constant tensor:
#      x y z
#    x 4.213340 0.000000 0.000000 
#    y 0.000000 3.379430 0.000000 
#    z 0.000000 0.000000 3.744750 
# 
# 
# High freq. dielectric constant tensor:
#      x y z
#    x 1.847400 0.000000 0.000000 
#    y 0.000000 1.774140 0.000000 
#    z 0.000000 0.000000 1.838430 
# 
# From -- ./inp_files/40347.got.cif
#   From: 2010.03.12/outbox.cif.g09.slc.cpg/sg65_21_cif.got.tgz:40347.got - 2010.04.10 20:52:16.
