data_PCOD8268975
_publ_section_title
;
Structure prediction by ZEFSAII (Michael W. Deem and Ramdas Pophale) SiO2 
 PCOD8268975
Probable space group: C M M M
;
_chemical_formula_sum "Si O2"
_cell_formula_units_Z 88
_cell_length_a 27.573601
_cell_length_b 19.053985
_cell_length_c 8.812228
_cell_angle_alpha 90.000000
_cell_angle_beta 90.000000
_cell_angle_gamma 90.000000
_cell_volume 4629.829855
_symmetry_space_group_name_H-M "C M M M"
_symmetry_group_IT_number 65
_symmetry_cell_setting 'orthorhombic'
loop_
_space_group_symop_operation_xyz
x,y,z
-x,-y,z
x,-y,-z
-x,y,-z
-x,-y,-z
x,y,-z
-x,y,z
x,-y,z
1/2+x,1/2+y,z
1/2-x,1/2-y,z
1/2+x,1/2-y,-z
1/2-x,1/2+y,-z
1/2-x,1/2-y,-z
1/2+x,1/2+y,-z
1/2-x,1/2+y,z
1/2+x,1/2-y,z
loop_
_atom_site_type_symbol
_atom_site_label
_atom_site_fract_x
_atom_site_fract_y
_atom_site_fract_z
Si Si1 0.820161 0.187810 0.321596
Si Si2 0.082645 0.153842 0.827352
Si Si3 0.000000 0.080377 0.665354
Si Si4 0.341991 0.833535 0.819365
Si Si5 0.237329 0.419965 0.322053
Si Si6 0.552280 0.189328 0.827166
O O1 0.817068 0.200538 0.500000
O O2 0.870231 0.151641 0.277448
O O3 0.815355 0.263474 0.241731
O O4 0.778471 0.134177 0.266743
O O5 0.054762 0.227118 0.816858
O O6 0.047356 0.095444 0.763560
O O7 0.097662 0.137040 0.000000
O O8 0.000000 0.119751 0.500000
O O9 0.000000 0.000000 0.629266
O O10 0.312406 0.901236 0.765165
O O11 0.397636 0.841031 0.754484
O O12 0.343809 0.827287 0.000000
O O13 0.227898 0.412305 0.500000
O O14 0.251937 0.500000 0.280564
O O15 0.500000 0.166362 0.750538
O O16 0.550337 0.163991 0.000000
#
# Coordination Sequence:
#
# PCOD8268975 Si02
#       6
#    16  16   8  16  16  16
#     4  10  20  35  56  80 107 142 182 224 271 329
#     4  10  19  33  53  76 102 134 175 225 273 315
#     4  11  23  35  47  67 101 145 186 223 266 323
#     4  10  20  33  55  85 111 138 178 227 274 321
#     4  10  22  39  56  74 104 147 186 222 274 336
#     4   8  14  28  51  77 104 132 162 206 262 315
#
# _framework density 19.007179000000001
#
# number of rings (size 3 to 8) (size 9 to 14) (size 15 to 20)
#    0.000    2.273    0.909    3.545    0.000    5.455 
#    0.000    1.818    0.000    0.545    0.000    3.818 
#    0.000    0.000    0.000    0.000    0.000    0.000 
#
# Total GULP energy -545292.086504 kJ/mol
# GULP energy per Si atom -12393.001966 kJ/mol
# Density = 1.896392 g / cm^3
# Si number density = 19.007179 Si / 1000 Ang^3
#
#
#
# Elastic Constant Matrix: (Units=GPa)
#
#
# Indices 1 2 3 4 5 6 
#
# 1 126.5102 42.8676 20.2313 0.0000 0.0000 0.0000
# 2 42.8676 58.1120 19.5872 0.0000 0.0000 0.0000
# 3 20.2313 19.5872 45.6564 0.0000 0.0000 0.0000
# 4 0.0000 0.0000 0.0000 20.2312 0.0000 0.0000
# 5 0.0000 0.0000 0.0000 0.0000 28.1874 0.0000
# 6 0.0000 0.0000 0.0000 0.0000 0.0000 19.7963
#
#
#
# Elastic Compliance Matrix: (Units=1/GPa)
#
#
# Indices 1 2 3 4 5 6 
#
# 1 0.010635 -0.007314 -0.001575 0.000000 0.000000 0.000000
# 2 -0.007314 0.025148 -0.007548 0.000000 0.000000 0.000000
# 3 -0.001575 -0.007548 0.025838 0.000000 0.000000 0.000000
# 4 0.000000 0.000000 0.000000 0.049429 0.000000 0.000000
# 5 0.000000 0.000000 0.000000 0.000000 0.035477 0.000000
# 6 0.000000 0.000000 0.000000 0.000000 0.000000 0.050514
#
#
# Mechanical properties :
#
#
# Convention : Reuss Voigt Hill
#
# Bulk Modulus (GPa) = 34.78492 43.96121 39.37307
# Shear Modulus (GPa) = 20.87717 23.48248 22.17982
#
# Velocity S-wave (km/s) = 3.31778 3.51871 3.41972
# Velocity P-wave (km/s) = 5.74609 6.29980 6.02930
#
# Compressibility (1/GPa) = 0.02874809
#
# Stress axis : x y z
#
# Youngs Moduli (GPa) = 94.03185 39.76523 38.70197
#
# Poissons Ratio (x) = 0.29085 0.06094
# Poissons Ratio (y) = 0.68777 0.29211
# Poissons Ratio (z) = 0.14806 0.30013
#
# Static dielectric constant tensor:
#      x y z
#    x 3.892320 0.000000 0.000000 
#    y 0.000000 3.197780 0.000000 
#    z 0.000000 0.000000 3.362340 
# 
# 
# High freq. dielectric constant tensor:
#      x y z
#    x 1.756780 0.000000 0.000000 
#    y 0.000000 1.702930 0.000000 
#    z 0.000000 0.000000 1.726630 
# 
# From -- ./inp_files/18340.got.cif
#   From: 2010.03.12/outbox.cif.g09.slc.cpg/sg65_10_cif.got.tgz:18340.got - 2010.04.10 20:52:16.
