data_PCOD8268967
_publ_section_title
;
Structure prediction by ZEFSAII (Michael W. Deem and Ramdas Pophale) SiO2 
 PCOD8268967
Probable space group: C M M M
;
_chemical_formula_sum "Si O2"
_cell_formula_units_Z 120
_cell_length_a 28.631366
_cell_length_b 8.958217
_cell_length_c 28.221709
_cell_angle_alpha 90.000000
_cell_angle_beta 90.000000
_cell_angle_gamma 90.000000
_cell_volume 7238.472962
_symmetry_space_group_name_H-M "C M M M"
_symmetry_group_IT_number 65
_symmetry_cell_setting 'orthorhombic'
loop_
_space_group_symop_operation_xyz
x,y,z
-x,-y,z
x,-y,-z
-x,y,-z
-x,-y,-z
x,y,-z
-x,y,z
x,-y,z
1/2+x,1/2+y,z
1/2-x,1/2-y,z
1/2+x,1/2-y,-z
1/2-x,1/2+y,-z
1/2-x,1/2-y,-z
1/2+x,1/2+y,-z
1/2-x,1/2+y,z
1/2+x,1/2-y,z
loop_
_atom_site_type_symbol
_atom_site_label
_atom_site_fract_x
_atom_site_fract_y
_atom_site_fract_z
Si Si1 0.202624 0.175541 0.294597
Si Si2 0.703481 0.674014 0.404497
Si Si3 0.555717 0.331137 0.000000
Si Si4 0.392893 0.676159 0.446264
Si Si5 0.108985 0.322860 0.272264
Si Si6 0.444646 0.671123 0.811582
Si Si7 0.053230 0.674873 0.364504
Si Si8 0.555564 0.831496 0.093649
O O1 0.250000 0.250000 0.275005
O O2 0.196444 0.215415 0.349693
O O3 0.159365 0.246803 0.266697
O O4 0.204390 0.000000 0.285186
O O5 0.709841 0.500000 0.412366
O O6 0.750000 0.750000 0.425145
O O7 0.658632 0.735944 0.432610
O O8 0.575165 0.246495 0.046278
O O9 0.574803 0.500000 0.000000
O O10 0.500000 0.331201 0.000000
O O11 0.404139 0.722763 0.500000
O O12 0.394494 0.500000 0.439022
O O13 0.431952 0.746842 0.413025
O O14 0.114259 0.500000 0.270776
O O15 0.076793 0.270655 0.229567
O O16 0.084998 0.268637 0.321087
O O17 0.500000 0.684014 0.807597
O O18 0.428080 0.500000 0.807347
O O19 0.426766 0.736768 0.861477
O O20 0.059012 0.500000 0.371863
O O21 0.000000 0.718704 0.353097
O O22 0.500000 0.833777 0.092219
O O23 0.575177 0.000000 0.096752
#
# Coordination Sequence:
#
# PCOD8268967 Si02
#       8
#    16  16   8  16  16  16  16  16
#     4  10  19  33  53  76 100 124 153 188 230 280
#     4   9  18  32  51  74  99 122 147 180 222 273
#     4   9  15  23  37  57  83 119 164 211 254 295
#     4  10  21  37  54  73  97 123 152 188 231 279
#     4  11  21  34  53  74  97 125 158 196 241 288
#     4  10  20  32  46  67  96 130 167 207 250 293
#     4  10  22  38  54  72  94 121 156 196 235 278
#     4   9  16  26  40  59  86 122 165 210 252 293
#
# _framework density 16.578081999999998
#
# number of rings (size 3 to 8) (size 9 to 14) (size 15 to 20)
#    0.000    2.200    1.333    2.200    0.000    6.400 
#    0.000    1.333    0.000    0.000    0.000    0.000 
#    0.000    0.000    0.000    0.600    0.000    8.467 
#
# Total GULP energy -744137.515023 kJ/mol
# GULP energy per Si atom -12402.291917 kJ/mol
# Density = 1.654035 g / cm^3
# Si number density = 16.578082 Si / 1000 Ang^3
#
#
#
# Elastic Constant Matrix: (Units=GPa)
#
#
# Indices 1 2 3 4 5 6 
#
# 1 61.1562 32.9324 28.4766 0.0000 0.0000 0.0000
# 2 32.9324 72.0645 36.6050 0.0000 0.0000 0.0000
# 3 28.4766 36.6050 94.9519 0.0000 0.0000 0.0000
# 4 0.0000 0.0000 0.0000 29.1477 0.0000 0.0000
# 5 0.0000 0.0000 0.0000 0.0000 5.3791 0.0000
# 6 0.0000 0.0000 0.0000 0.0000 0.0000 26.8909
#
#
#
# Elastic Compliance Matrix: (Units=1/GPa)
#
#
# Indices 1 2 3 4 5 6 
#
# 1 0.022574 -0.008552 -0.003473 0.000000 0.000000 0.000000
# 2 -0.008552 0.020495 -0.005336 0.000000 0.000000 0.000000
# 3 -0.003473 -0.005336 0.013631 0.000000 0.000000 0.000000
# 4 0.000000 0.000000 0.000000 0.034308 0.000000 0.000000
# 5 0.000000 0.000000 0.000000 0.000000 0.185903 0.000000
# 6 0.000000 0.000000 0.000000 0.000000 0.000000 0.037187
#
#
# Mechanical properties :
#
#
# Convention : Reuss Voigt Hill
#
# Bulk Modulus (GPa) = 45.50249 47.13341 46.31795
# Shear Modulus (GPa) = 14.03917 20.96080 17.49998
#
# Velocity S-wave (km/s) = 2.91323 3.55965 3.25254
# Velocity P-wave (km/s) = 6.23080 6.73704 6.48886
#
# Compressibility (1/GPa) = 0.02197682
#
# Stress axis : x y z
#
# Youngs Moduli (GPa) = 44.29894 48.79232 73.36477
#
# Poissons Ratio (x) = 0.41726 0.25482
# Poissons Ratio (y) = 0.37883 0.39150
# Poissons Ratio (z) = 0.15386 0.26037
#
# Static dielectric constant tensor:
#      x y z
#    x 2.950400 0.000000 0.000000 
#    y 0.000000 3.186910 0.000000 
#    z 0.000000 0.000000 3.092890 
# 
# 
# High freq. dielectric constant tensor:
#      x y z
#    x 1.607750 0.000000 0.000000 
#    y 0.000000 1.649150 0.000000 
#    z 0.000000 0.000000 1.627610 
# 
# From -- ./inp_files/73901.got.cif
#   From: 2010.03.12/outbox.cif.g09.slc.cpg/sg65_37_cif.got.tgz:73901.got - 2010.04.10 20:52:16.
