data_PCOD8268882
_publ_section_title
;
Structure prediction by ZEFSAII (Michael W. Deem and Ramdas Pophale) SiO2 
 PCOD8268882
Probable space group: C M M M
;
_chemical_formula_sum "Si O2"
_cell_formula_units_Z 104
_cell_length_a 28.036393
_cell_length_b 9.157052
_cell_length_c 20.976280
_cell_angle_alpha 90.000000
_cell_angle_beta 90.000000
_cell_angle_gamma 90.000000
_cell_volume 5385.255228
_symmetry_space_group_name_H-M "C M M M"
_symmetry_group_IT_number 65
_symmetry_cell_setting 'orthorhombic'
loop_
_space_group_symop_operation_xyz
x,y,z
-x,-y,z
x,-y,-z
-x,y,-z
-x,-y,-z
x,y,-z
-x,y,z
x,-y,z
1/2+x,1/2+y,z
1/2-x,1/2-y,z
1/2+x,1/2-y,-z
1/2-x,1/2+y,-z
1/2-x,1/2-y,-z
1/2+x,1/2+y,-z
1/2-x,1/2+y,z
1/2+x,1/2-y,z
loop_
_atom_site_type_symbol
_atom_site_label
_atom_site_fract_x
_atom_site_fract_y
_atom_site_fract_z
Si Si1 0.125804 0.827623 0.162777
Si Si2 0.891939 0.672883 0.376057
Si Si3 0.299415 0.830579 0.925200
Si Si4 0.944460 0.328547 0.753793
Si Si5 0.947601 0.326751 0.500000
Si Si6 0.293609 0.661401 0.387485
Si Si7 0.209993 0.845749 0.241214
O O1 0.154338 0.750688 0.105263
O O2 0.075669 0.753415 0.182783
O O3 0.156850 0.791238 0.226604
O O4 0.117946 0.000000 0.148718
O O5 0.884022 0.500000 0.375756
O O6 0.918057 0.723410 0.311192
O O7 0.922632 0.727908 0.435777
O O8 0.841427 0.746769 0.388657
O O9 0.250000 0.750000 0.906524
O O10 0.297528 0.000000 0.903209
O O11 0.308105 0.819528 0.000000
O O12 0.937155 0.500000 0.764129
O O13 0.000000 0.288281 0.747076
O O14 0.949692 0.500000 0.500000
O O15 0.000000 0.258011 0.500000
O O16 0.299668 0.500000 0.419210
O O17 0.250000 0.750000 0.421291
O O18 0.278844 0.638196 0.314831
O O19 0.250000 0.750000 0.206707
O O20 0.215272 0.000000 0.205937
#
# Coordination Sequence:
#
# PCOD8268882 Si02
#       7
#    16  16  16  16   8  16  16
#     4  11  21  34  53  80 111 146 186 227 276 329
#     4  10  19  34  57  83 110 143 182 227 279 334
#     4  10  21  37  57  84 119 156 191 227 269 321
#     4  10  21  36  55  80 110 144 184 231 284 339
#     4   9  18  34  58  85 110 139 182 233 280 331
#     4  10  19  33  51  75 108 141 176 216 264 323
#     4   9  18  29  44  70 103 136 170 209 255 308
#
# _framework density 19.311990999999999
#
# number of rings (size 3 to 8) (size 9 to 14) (size 15 to 20)
#    0.000    2.077    1.538    2.308    0.000    6.154 
#    0.000    0.769    0.000    2.308    0.000    3.231 
#    0.000    0.000    0.000    0.000    0.000    0.000 
#
# Total GULP energy -644217.323151 kJ/mol
# GULP energy per Si atom -12388.794676 kJ/mol
# Density = 1.926804 g / cm^3
# Si number density = 19.311991 Si / 1000 Ang^3
#
#
#
# Elastic Constant Matrix: (Units=GPa)
#
#
# Indices 1 2 3 4 5 6 
#
# 1 151.5360 60.3110 40.9654 0.0000 0.0000 0.0000
# 2 60.3110 89.4391 36.7960 0.0000 0.0000 0.0000
# 3 40.9654 36.7960 72.9423 0.0000 0.0000 0.0000
# 4 0.0000 0.0000 0.0000 -37.0334 0.0000 0.0000
# 5 0.0000 0.0000 0.0000 0.0000 17.8129 0.0000
# 6 0.0000 0.0000 0.0000 0.0000 0.0000 32.0607
#
#
#
# Elastic Compliance Matrix: (Units=1/GPa)
#
#
# Indices 1 2 3 4 5 6 
#
# 1 0.009403 -0.005259 -0.002628 0.000000 0.000000 0.000000
# 2 -0.005259 0.017051 -0.005648 0.000000 0.000000 0.000000
# 3 -0.002628 -0.005648 0.018034 0.000000 0.000000 0.000000
# 4 0.000000 0.000000 0.000000 -0.027003 0.000000 0.000000
# 5 0.000000 0.000000 0.000000 0.000000 0.056139 0.000000
# 6 0.000000 0.000000 0.000000 0.000000 0.000000 0.031191
#
#
# Mechanical properties :
#
#
# Convention : Reuss Voigt Hill
#
# Bulk Modulus (GPa) = 57.41038 65.56248 61.48643
# Shear Modulus (GPa) = 36.31344 14.29104 25.30224
#
# Velocity S-wave (km/s) = 4.34101 2.72326 3.62357
# Velocity P-wave (km/s) = 7.41068 6.62654 7.02955
#
# Compressibility (1/GPa) = 0.01741845
#
# Stress axis : x y z
#
# Youngs Moduli (GPa) = 106.35304 58.64813 55.45067
#
# Poissons Ratio (x) = 0.30846 0.14570
# Poissons Ratio (y) = 0.55936 0.31316
# Poissons Ratio (z) = 0.27944 0.33122
#
# Static dielectric constant tensor:
#      x y z
#    x 3.558430 0.000000 0.000000 
#    y 0.000000 3.825770 0.000000 
#    z 0.000000 0.000000 3.397930 
# 
# 
# High freq. dielectric constant tensor:
#      x y z
#    x 1.747600 0.000000 0.000000 
#    y 0.000000 1.751670 0.000000 
#    z 0.000000 0.000000 1.735590 
# 
# From -- ./inp_files/65893.got.cif
#   From: 2010.03.12/outbox.cif.g09.slc.cpg/sg65_33_cif.got.tgz:65893.got - 2010.04.10 20:52:16.
