data_PCOD8268237
_publ_section_title
;
Structure prediction by ZEFSAII (Michael W. Deem and Ramdas Pophale) SiO2 
 PCOD8268237
Probable space group: C M M M
;
_chemical_formula_sum "Si O2"
_cell_formula_units_Z 88
_cell_length_a 18.876429
_cell_length_b 8.789891
_cell_length_c 28.666038
_cell_angle_alpha 90.000000
_cell_angle_beta 90.000000
_cell_angle_gamma 90.000000
_cell_volume 4756.319287
_symmetry_space_group_name_H-M "C M M M"
_symmetry_group_IT_number 65
_symmetry_cell_setting 'orthorhombic'
loop_
_space_group_symop_operation_xyz
x,y,z
-x,-y,z
x,-y,-z
-x,y,-z
-x,-y,-z
x,y,-z
-x,y,z
x,-y,z
1/2+x,1/2+y,z
1/2-x,1/2-y,z
1/2+x,1/2-y,-z
1/2-x,1/2+y,-z
1/2-x,1/2-y,-z
1/2+x,1/2+y,-z
1/2-x,1/2+y,z
1/2+x,1/2-y,z
loop_
_atom_site_type_symbol
_atom_site_label
_atom_site_fract_x
_atom_site_fract_y
_atom_site_fract_z
Si Si1 0.674158 0.818848 0.585260
Si Si2 0.327137 0.820911 0.849646
Si Si3 0.675006 0.679527 0.682505
Si Si4 0.418716 0.677332 0.770224
Si Si5 0.920944 0.680511 0.500000
Si Si6 0.326258 0.821529 0.950838
O O1 0.750000 0.750000 0.572166
O O2 0.647442 0.754219 0.634665
O O3 0.619252 0.762494 0.546173
O O4 0.680062 0.000000 0.587730
O O5 0.250000 0.750000 0.840602
O O6 0.383378 0.766739 0.812262
O O7 0.359849 0.773017 0.900902
O O8 0.317664 0.000000 0.845163
O O9 0.684141 0.500000 0.675480
O O10 0.750000 0.750000 0.697676
O O11 0.618207 0.721194 0.721755
O O12 0.500000 0.727619 0.766432
O O13 0.410528 0.500000 0.780688
O O14 0.923828 0.500000 0.500000
O O15 0.000000 0.749726 0.500000
O O16 0.250000 0.750000 0.952881
O O17 0.316107 0.000000 0.950072
O O18 0.366948 0.775192 0.000000
#
# Coordination Sequence:
#
# PCOD8268237 Si02
#       6
#    16  16  16  16   8  16
#     4  10  19  33  55  78 102 132 165 204 246 290
#     4  10  19  31  51  77 102 131 168 208 249 298
#     4  10  20  35  55  77 101 129 165 207 251 300
#     4  10  22  38  53  71 100 136 169 208 258 304
#     4   9  19  34  51  75 106 137 168 202 242 287
#     4   8  14  25  42  67  98 127 157 198 247 294
#
# _framework density 18.501702000000002
#
# number of rings (size 3 to 8) (size 9 to 14) (size 15 to 20)
#    0.000    2.455    0.000    3.545    0.000    4.727 
#    0.000    1.364    0.000    4.364    0.000    3.818 
#    0.000    0.000    0.000    0.000    0.000    0.000 
#
# Total GULP energy -545205.239314 kJ/mol
# GULP energy per Si atom -12391.028166 kJ/mol
# Density = 1.845959 g / cm^3
# Si number density = 18.501702 Si / 1000 Ang^3
#
#
#
# Elastic Constant Matrix: (Units=GPa)
#
#
# Indices 1 2 3 4 5 6 
#
# 1 113.9497 40.0285 100.6428 0.0000 0.0000 0.0000
# 2 40.0285 60.7478 59.5677 0.0000 0.0000 0.0000
# 3 100.6428 59.5677 188.8514 0.0000 0.0000 0.0000
# 4 0.0000 0.0000 0.0000 3.4837 0.0000 0.0000
# 5 0.0000 0.0000 0.0000 0.0000 3.1412 0.0000
# 6 0.0000 0.0000 0.0000 0.0000 0.0000 19.9468
#
#
#
# Elastic Compliance Matrix: (Units=1/GPa)
#
#
# Indices 1 2 3 4 5 6 
#
# 1 0.017042 -0.003364 -0.008021 0.000000 0.000000 0.000000
# 2 -0.003364 0.024497 -0.005934 0.000000 0.000000 0.000000
# 3 -0.008021 -0.005934 0.011441 0.000000 0.000000 0.000000
# 4 0.000000 0.000000 0.000000 0.287049 0.000000 0.000000
# 5 0.000000 0.000000 0.000000 0.000000 0.318346 0.000000
# 6 0.000000 0.000000 0.000000 0.000000 0.000000 0.050133
#
#
# Mechanical properties :
#
#
# Convention : Reuss Voigt Hill
#
# Bulk Modulus (GPa) = 54.51971 84.89187 69.70579
# Shear Modulus (GPa) = 6.67325 16.20168 11.43746
#
# Velocity S-wave (km/s) = 1.90123 2.96241 2.48903
# Velocity P-wave (km/s) = 5.86097 7.59500 6.78362
#
# Compressibility (1/GPa) = 0.01834199
#
# Stress axis : x y z
#
# Youngs Moduli (GPa) = 58.67962 40.82121 87.40314
#
# Poissons Ratio (x) = 0.13734 0.70103
# Poissons Ratio (y) = 0.19742 0.51864
# Poissons Ratio (z) = 0.47065 0.24223
#
# Static dielectric constant tensor:
#      x y z
#    x 3.214350 0.000000 0.000000 
#    y 0.000000 3.373280 0.000000 
#    z 0.000000 0.000000 4.062000 
# 
# 
# High freq. dielectric constant tensor:
#      x y z
#    x 1.683020 0.000000 0.000000 
#    y 0.000000 1.716610 0.000000 
#    z 0.000000 0.000000 1.747290 
# 
# From -- ./inp_files/77956.got.cif
#   From: 2010.03.12/outbox.cif.g09.slc.cpg/sg65_39_cif.got.tgz:77956.got - 2010.04.10 20:52:16.
