data_PCOD8268309
_publ_section_title
;
Structure prediction by ZEFSAII (Michael W. Deem and Ramdas Pophale) SiO2 
 PCOD8268309
Probable space group: C M M M
;
_chemical_formula_sum "Si O2"
_cell_formula_units_Z 100
_cell_length_a 22.428640
_cell_length_b 15.419187
_cell_length_c 15.523684
_cell_angle_alpha 90.000000
_cell_angle_beta 90.000000
_cell_angle_gamma 90.000000
_cell_volume 5368.577283
_symmetry_space_group_name_H-M "C M M M"
_symmetry_group_IT_number 65
_symmetry_cell_setting 'orthorhombic'
loop_
_space_group_symop_operation_xyz
x,y,z
-x,-y,z
x,-y,-z
-x,y,-z
-x,-y,-z
x,y,-z
-x,y,z
x,-y,z
1/2+x,1/2+y,z
1/2-x,1/2-y,z
1/2+x,1/2-y,-z
1/2-x,1/2+y,-z
1/2-x,1/2-y,-z
1/2+x,1/2+y,-z
1/2-x,1/2+y,z
1/2+x,1/2-y,z
loop_
_atom_site_type_symbol
_atom_site_label
_atom_site_fract_x
_atom_site_fract_y
_atom_site_fract_z
Si Si1 0.148701 0.000000 0.000000
Si Si2 0.567659 0.205672 0.401655
Si Si3 0.430892 0.500000 0.173925
Si Si4 0.312833 0.302660 0.000000
Si Si5 0.383116 0.357859 0.698660
Si Si6 0.226567 0.902688 0.405985
Si Si7 0.180904 0.262356 0.826530
Si Si8 0.837228 0.602030 0.299469
O O1 0.108520 0.000000 0.913167
O O2 0.188929 0.089680 0.000000
O O3 0.589733 0.214048 0.500000
O O4 0.500000 0.173358 0.397409
O O5 0.571143 0.299898 0.356330
O O6 0.606086 0.132983 0.353641
O O7 0.500000 0.500000 0.146210
O O8 0.418227 0.582489 0.234290
O O9 0.250000 0.250000 0.000000
O O10 0.349637 0.269195 0.916150
O O11 0.339463 0.408447 0.634231
O O12 0.338440 0.296302 0.748286
O O13 0.224423 0.855998 0.500000
O O14 0.277261 0.859904 0.345383
O O15 0.249054 0.000000 0.419449
O O16 0.250000 0.250000 0.842106
O O17 0.163122 0.360080 0.798491
O O18 0.838819 0.500000 0.289281
#
# Coordination Sequence:
#
# PCOD8268309 Si02
#       8
#     4  16   8   8  16  16  16  16
#     4  12  23  44  68  92 124 168 203 252 300 364
#     4  10  22  38  55  79 114 157 203 252 303 353
#     4  12  25  40  61  88 119 159 209 251 291 357
#     4  10  22  39  61  94 125 156 195 240 304 368
#     4  11  20  36  58  82 116 153 196 244 303 356
#     4  10  19  31  52  83 114 148 191 240 291 349
#     4  10  19  36  56  84 120 150 186 239 299 364
#     4  10  21  36  58  85 116 154 200 248 300 361
#
# _framework density 18.626909999999999
#
# number of rings (size 3 to 8) (size 9 to 14) (size 15 to 20)
#    0.000    1.600    4.000    1.560    0.000    1.280 
#    5.760    3.200    0.000    1.920    0.000    0.000 
#    0.000    2.880    0.000    0.000    0.000    0.000 
#
# Total GULP energy -619464.612332 kJ/mol
# GULP energy per Si atom -12389.292247 kJ/mol
# Density = 1.858451 g / cm^3
# Si number density = 18.626910 Si / 1000 Ang^3
#
#
#
# Elastic Constant Matrix: (Units=GPa)
#
#
# Indices 1 2 3 4 5 6 
#
# 1 75.4772 30.4346 24.9408 0.0000 0.0000 0.0000
# 2 30.4346 110.8963 56.9771 0.0000 0.0000 0.0000
# 3 24.9408 56.9771 130.6607 0.0000 0.0000 0.0000
# 4 0.0000 0.0000 0.0000 24.3168 0.0000 0.0000
# 5 0.0000 0.0000 0.0000 0.0000 21.9214 0.0000
# 6 0.0000 0.0000 0.0000 0.0000 0.0000 21.5424
#
#
#
# Elastic Compliance Matrix: (Units=1/GPa)
#
#
# Indices 1 2 3 4 5 6 
#
# 1 0.015090 -0.003430 -0.001385 0.000000 0.000000 0.000000
# 2 -0.003430 0.012401 -0.004753 0.000000 0.000000 0.000000
# 3 -0.001385 -0.004753 0.009990 0.000000 0.000000 0.000000
# 4 0.000000 0.000000 0.000000 0.041124 0.000000 0.000000
# 5 0.000000 0.000000 0.000000 0.000000 0.045618 0.000000
# 6 0.000000 0.000000 0.000000 0.000000 0.000000 0.046420
#
#
# Mechanical properties :
#
#
# Convention : Reuss Voigt Hill
#
# Bulk Modulus (GPa) = 54.50821 60.19324 57.35072
# Shear Modulus (GPa) = 25.52427 27.20157 26.36292
#
# Velocity S-wave (km/s) = 3.70576 3.82558 3.76615
# Velocity P-wave (km/s) = 6.90195 7.20408 7.05463
#
# Compressibility (1/GPa) = 0.01834586
#
# Stress axis : x y z
#
# Youngs Moduli (GPa) = 66.27089 80.64078 100.09696
#
# Poissons Ratio (x) = 0.27658 0.13861
# Poissons Ratio (y) = 0.22729 0.47575
# Poissons Ratio (z) = 0.09177 0.38328
#
# Static dielectric constant tensor:
#      x y z
#    x 3.141890 0.000000 0.000000 
#    y 0.000000 3.470350 0.000000 
#    z 0.000000 0.000000 4.215960 
# 
# 
# High freq. dielectric constant tensor:
#      x y z
#    x 1.700650 0.000000 0.000000 
#    y 0.000000 1.720780 0.000000 
#    z 0.000000 0.000000 1.738380 
# 
# From -- ./inp_files/44473.got.cif
#   From: 2010.03.12/outbox.cif.g09.slc.cpg/sg65_23_cif.got.tgz:44473.got - 2010.04.10 20:52:16.
