data_PCOD8268726
_publ_section_title
;
Structure prediction by ZEFSAII (Michael W. Deem and Ramdas Pophale) SiO2 
 PCOD8268726
Probable space group: C M M M
;
_chemical_formula_sum "Si O2"
_cell_formula_units_Z 120
_cell_length_a 27.809371
_cell_length_b 8.968553
_cell_length_c 26.041503
_cell_angle_alpha 90.000000
_cell_angle_beta 90.000000
_cell_angle_gamma 90.000000
_cell_volume 6495.006516
_symmetry_space_group_name_H-M "C M M M"
_symmetry_group_IT_number 65
_symmetry_cell_setting 'orthorhombic'
loop_
_space_group_symop_operation_xyz
x,y,z
-x,-y,z
x,-y,-z
-x,y,-z
-x,-y,-z
x,y,-z
-x,y,z
x,-y,z
1/2+x,1/2+y,z
1/2-x,1/2-y,z
1/2+x,1/2-y,-z
1/2-x,1/2+y,-z
1/2-x,1/2-y,-z
1/2+x,1/2+y,-z
1/2-x,1/2+y,z
1/2+x,1/2-y,z
loop_
_atom_site_type_symbol
_atom_site_label
_atom_site_fract_x
_atom_site_fract_y
_atom_site_fract_z
Si Si1 0.444987 0.671367 0.440579
Si Si2 0.639007 0.327943 0.794852
Si Si3 0.198869 0.324337 0.000000
Si Si4 0.112693 0.325127 0.354919
Si Si5 0.945854 0.331428 0.060542
Si Si6 0.054047 0.675221 0.744891
Si Si7 0.643853 0.328738 0.090462
Si Si8 0.198628 0.176420 0.302721
O O1 0.432243 0.694080 0.500000
O O2 0.500000 0.718829 0.430059
O O3 0.437200 0.500000 0.424382
O O4 0.409441 0.776643 0.408989
O O5 0.626466 0.500000 0.786787
O O6 0.588726 0.241301 0.788581
O O7 0.661389 0.299220 0.851305
O O8 0.678477 0.275504 0.753334
O O9 0.250000 0.250000 0.000000
O O10 0.171698 0.277397 0.948456
O O11 0.204527 0.500000 0.000000
O O12 0.123680 0.500000 0.355339
O O13 0.074537 0.281054 0.310908
O O14 0.162562 0.238163 0.346008
O O15 0.931346 0.500000 0.076020
O O16 0.912438 0.211786 0.088683
O O17 0.000000 0.297810 0.078231
O O18 0.940259 0.311588 0.000000
O O19 0.053179 0.500000 0.752672
O O20 0.000000 0.740470 0.750099
O O21 0.651689 0.500000 0.074281
O O22 0.250000 0.250000 0.311032
O O23 0.203470 0.000000 0.308316
#
# Coordination Sequence:
#
# PCOD8268726 Si02
#       8
#    16  16   8  16  16  16  16  16
#     4   9  18  32  50  76 113 155 194 229 268 315
#     4   9  21  37  53  77 108 138 170 210 259 314
#     4  12  26  44  63  82 103 130 166 205 253 311
#     4  10  19  32  52  79 109 143 185 229 272 318
#     4   9  18  33  53  77 105 138 175 210 248 299
#     4   9  18  32  50  75 108 144 181 219 259 307
#     4  11  22  38  58  82 110 137 169 212 259 309
#     4  10  20  37  58  79 104 135 174 221 272 325
#
# _framework density 18.475732000000001
#
# number of rings (size 3 to 8) (size 9 to 14) (size 15 to 20)
#    0.000    2.267    0.667    3.000    0.000    4.800 
#    0.000    5.333    0.000    0.400    0.000    0.000 
#    0.000    0.000    0.000    0.000    0.000    0.000 
#
# Total GULP energy -744084.668814 kJ/mol
# GULP energy per Si atom -12401.411147 kJ/mol
# Density = 1.843368 g / cm^3
# Si number density = 18.475732 Si / 1000 Ang^3
#
#
#
# Elastic Constant Matrix: (Units=GPa)
#
#
# Indices 1 2 3 4 5 6 
#
# 1 122.5018 49.5438 44.7359 0.0000 0.0000 0.0000
# 2 49.5438 83.4980 39.2653 0.0000 0.0000 0.0000
# 3 44.7359 39.2653 84.0458 0.0000 0.0000 0.0000
# 4 0.0000 0.0000 0.0000 27.7387 0.0000 0.0000
# 5 0.0000 0.0000 0.0000 0.0000 16.4483 0.0000
# 6 0.0000 0.0000 0.0000 0.0000 0.0000 34.8544
#
#
#
# Elastic Compliance Matrix: (Units=1/GPa)
#
#
# Indices 1 2 3 4 5 6 
#
# 1 0.011615 -0.005106 -0.003797 0.000000 0.000000 0.000000
# 2 -0.005106 0.017593 -0.005501 0.000000 0.000000 0.000000
# 3 -0.003797 -0.005501 0.016489 0.000000 0.000000 0.000000
# 4 0.000000 0.000000 0.000000 0.036051 0.000000 0.000000
# 5 0.000000 0.000000 0.000000 0.000000 0.060796 0.000000
# 6 0.000000 0.000000 0.000000 0.000000 0.000000 0.028691
#
#
# Mechanical properties :
#
#
# Convention : Reuss Voigt Hill
#
# Bulk Modulus (GPa) = 59.21147 61.90395 60.55771
# Shear Modulus (GPa) = 24.31037 26.24168 25.27603
#
# Velocity S-wave (km/s) = 3.63133 3.77282 3.70275
# Velocity P-wave (km/s) = 7.04982 7.24963 7.15042
#
# Compressibility (1/GPa) = 0.01688862
#
# Stress axis : x y z
#
# Youngs Moduli (GPa) = 86.09711 56.84018 60.64508
#
# Poissons Ratio (x) = 0.29024 0.23025
# Poissons Ratio (y) = 0.43963 0.33363
# Poissons Ratio (z) = 0.32689 0.31270
#
# Static dielectric constant tensor:
#      x y z
#    x 3.525290 0.000000 0.000000 
#    y 0.000000 3.364080 0.000000 
#    z 0.000000 0.000000 3.343200 
# 
# 
# High freq. dielectric constant tensor:
#      x y z
#    x 1.711270 0.000000 0.000000 
#    y 0.000000 1.718970 0.000000 
#    z 0.000000 0.000000 1.707040 
# 
# From -- ./inp_files/76132.got.cif
#   From: 2010.03.12/outbox.cif.g09.slc.cpg/sg65_39_cif.got.tgz:76132.got - 2010.04.10 20:52:16.
