data_PCOD8268873
_publ_section_title
;
Structure prediction by ZEFSAII (Michael W. Deem and Ramdas Pophale) SiO2 
 PCOD8268873
Probable space group: C M M M
;
_chemical_formula_sum "Si O2"
_cell_formula_units_Z 64
_cell_length_a 8.700363
_cell_length_b 28.355670
_cell_length_c 15.624201
_cell_angle_alpha 90.000000
_cell_angle_beta 90.000000
_cell_angle_gamma 90.000000
_cell_volume 3854.562603
_symmetry_space_group_name_H-M "C M M M"
_symmetry_group_IT_number 65
_symmetry_cell_setting 'orthorhombic'
loop_
_space_group_symop_operation_xyz
x,y,z
-x,-y,z
x,-y,-z
-x,y,-z
-x,-y,-z
x,y,-z
-x,y,z
x,-y,z
1/2+x,1/2+y,z
1/2-x,1/2-y,z
1/2+x,1/2-y,-z
1/2-x,1/2+y,-z
1/2-x,1/2-y,-z
1/2+x,1/2+y,-z
1/2-x,1/2+y,z
1/2+x,1/2-y,z
loop_
_atom_site_type_symbol
_atom_site_label
_atom_site_fract_x
_atom_site_fract_y
_atom_site_fract_z
Si Si1 0.822800 0.699888 0.500000
Si Si2 0.181963 0.302332 0.685685
Si Si3 0.822041 0.446764 0.900333
Si Si4 0.318908 0.198424 0.000000
Si Si5 0.320409 0.644218 0.158641
O O1 0.750000 0.750000 0.500000
O O2 0.779879 0.675357 0.590783
O O3 0.000000 0.710378 0.500000
O O4 0.250000 0.250000 0.696162
O O5 0.264713 0.337186 0.750396
O O6 0.000000 0.300479 0.703735
O O7 0.781819 0.500000 0.871970
O O8 0.717176 0.411372 0.845789
O O9 0.000000 0.435673 0.882405
O O10 0.785092 0.439810 0.000000
O O11 0.250000 0.250000 0.000000
O O12 0.268194 0.171062 0.084111
O O13 0.500000 0.202614 0.000000
O O14 0.500000 0.653035 0.147509
#
# Coordination Sequence:
#
# PCOD8268873 Si02
#       5
#     8  16  16   8  16
#     4   8  16  30  50  72  95 126 165 206 248 289
#     4  10  19  33  51  73 101 133 168 207 247 292
#     4   9  18  34  55  75  96 126 164 206 251 293
#     4  12  24  38  51  66  95 134 172 207 243 285
#     4  12  23  34  49  74 102 132 167 202 244 295
#
# _framework density 16.6037
#
# number of rings (size 3 to 8) (size 9 to 14) (size 15 to 20)
#    0.000    1.750    1.250    5.625    0.000    1.500 
#    0.000    1.250    0.000    0.000    0.000    0.875 
#    0.000    7.000    0.000    0.000    0.000    0.000 
#
# Total GULP energy -396644.181324 kJ/mol
# GULP energy per Si atom -12395.130666 kJ/mol
# Density = 1.656591 g / cm^3
# Si number density = 16.603700 Si / 1000 Ang^3
#
#
#
# Elastic Constant Matrix: (Units=GPa)
#
#
# Indices 1 2 3 4 5 6 
#
# 1 106.0214 43.4342 49.5569 0.0000 0.0000 0.0000
# 2 43.4342 98.5431 52.3930 0.0000 0.0000 0.0000
# 3 49.5569 52.3930 120.5166 0.0000 0.0000 0.0000
# 4 0.0000 0.0000 0.0000 3.7527 0.0000 0.0000
# 5 0.0000 0.0000 0.0000 0.0000 18.7714 0.0000
# 6 0.0000 0.0000 0.0000 0.0000 0.0000 29.0793
#
#
#
# Elastic Compliance Matrix: (Units=1/GPa)
#
#
# Indices 1 2 3 4 5 6 
#
# 1 0.012607 -0.003642 -0.003601 0.000000 0.000000 0.000000
# 2 -0.003642 0.014251 -0.004698 0.000000 0.000000 0.000000
# 3 -0.003601 -0.004698 0.011820 0.000000 0.000000 0.000000
# 4 0.000000 0.000000 0.000000 0.266478 0.000000 0.000000
# 5 0.000000 0.000000 0.000000 0.000000 0.053273 0.000000
# 6 0.000000 0.000000 0.000000 0.000000 0.000000 0.034389
#
#
# Mechanical properties :
#
#
# Convention : Reuss Voigt Hill
#
# Bulk Modulus (GPa) = 67.58030 68.42771 68.00400
# Shear Modulus (GPa) = 11.85868 22.30047 17.07958
#
# Velocity S-wave (km/s) = 2.67539 3.66881 3.21075
# Velocity P-wave (km/s) = 7.09464 7.69732 7.40211
#
# Compressibility (1/GPa) = 0.01479721
#
# Stress axis : x y z
#
# Youngs Moduli (GPa) = 79.31904 70.17098 84.59926
#
# Poissons Ratio (x) = 0.25559 0.30461
# Poissons Ratio (y) = 0.28892 0.39741
# Poissons Ratio (z) = 0.28560 0.32964
#
# Static dielectric constant tensor:
#      x y z
#    x 3.191800 0.000000 0.000000 
#    y 0.000000 3.062500 0.000000 
#    z 0.000000 0.000000 3.304700 
# 
# 
# High freq. dielectric constant tensor:
#      x y z
#    x 1.652760 0.000000 0.000000 
#    y 0.000000 1.618740 0.000000 
#    z 0.000000 0.000000 1.635580 
# 
# From -- ./inp_files/36336.got.cif
#   From: 2010.03.12/outbox.cif.g09.slc.cpg/sg65_19_cif.got.tgz:36336.got - 2010.04.10 20:52:16.
