data_PCOD8268141
_publ_section_title
;
Structure prediction by ZEFSAII (Michael W. Deem and Ramdas Pophale) SiO2 
 PCOD8268141
Probable space group: C M M M
;
_chemical_formula_sum "Si O2"
_cell_formula_units_Z 88
_cell_length_a 9.129645
_cell_length_b 18.063951
_cell_length_c 28.833311
_cell_angle_alpha 90.000000
_cell_angle_beta 90.000000
_cell_angle_gamma 90.000000
_cell_volume 4755.116411
_symmetry_space_group_name_H-M "C M M M"
_symmetry_group_IT_number 65
_symmetry_cell_setting 'orthorhombic'
loop_
_space_group_symop_operation_xyz
x,y,z
-x,-y,z
x,-y,-z
-x,y,-z
-x,-y,-z
x,y,-z
-x,y,z
x,-y,z
1/2+x,1/2+y,z
1/2-x,1/2-y,z
1/2+x,1/2-y,-z
1/2-x,1/2+y,-z
1/2-x,1/2-y,-z
1/2+x,1/2+y,-z
1/2-x,1/2+y,z
1/2+x,1/2-y,z
loop_
_atom_site_type_symbol
_atom_site_label
_atom_site_fract_x
_atom_site_fract_y
_atom_site_fract_z
Si Si1 0.672722 0.828175 0.820681
Si Si2 0.673970 0.082977 0.909851
Si Si3 0.168689 0.585931 0.728298
Si Si4 0.827392 0.829080 0.649703
Si Si5 0.330570 0.673307 0.451076
Si Si6 0.826129 0.671387 0.000000
O O1 0.500000 0.815889 0.824118
O O2 0.750000 0.750000 0.820401
O O3 0.731798 0.875035 0.864284
O O4 0.717140 0.871292 0.774335
O O5 0.500000 0.078704 0.909163
O O6 0.739500 0.000000 0.910608
O O7 0.728369 0.126480 0.955134
O O8 0.196769 0.500000 0.737425
O O9 0.268157 0.611967 0.685961
O O10 0.000000 0.601967 0.716066
O O11 0.750000 0.750000 0.656753
O O12 0.791324 0.864606 0.598351
O O13 0.000000 0.817790 0.657360
O O14 0.293672 0.629053 0.500000
O O15 0.500000 0.692670 0.450136
O O16 0.250000 0.750000 0.452970
O O17 0.750000 0.750000 0.000000
O O18 0.000000 0.682433 0.000000
#
# Coordination Sequence:
#
# PCOD8268141 Si02
#       6
#    16  16  16  16  16   8
#     4  10  20  34  53  75  99 128 162 202 247 295
#     4   9  17  31  52  76 100 129 168 207 241 285
#     4  10  21  36  52  70  95 129 167 206 249 295
#     4  10  19  31  50  75 101 129 162 201 245 292
#     4   8  14  25  42  66  95 124 155 193 237 285
#     4  10  19  31  51  77 103 132 166 206 248 288
#
# _framework density 18.506381000000001
#
# number of rings (size 3 to 8) (size 9 to 14) (size 15 to 20)
#    0.000    2.545    0.000    2.455    0.000    6.545 
#    0.000    0.000    0.000    4.364    0.000    3.818 
#    0.000    0.000    0.000    0.000    0.000    0.000 
#
# Total GULP energy -545236.148937 kJ/mol
# GULP energy per Si atom -12391.730658 kJ/mol
# Density = 1.846426 g / cm^3
# Si number density = 18.506381 Si / 1000 Ang^3
#
#
#
# Elastic Constant Matrix: (Units=GPa)
#
#
# Indices 1 2 3 4 5 6 
#
# 1 37.9085 34.9992 46.1385 0.0000 0.0000 0.0000
# 2 34.9992 131.3410 84.4936 0.0000 0.0000 0.0000
# 3 46.1385 84.4936 201.0249 0.0000 0.0000 0.0000
# 4 0.0000 0.0000 0.0000 12.7220 0.0000 0.0000
# 5 0.0000 0.0000 0.0000 0.0000 17.7098 0.0000
# 6 0.0000 0.0000 0.0000 0.0000 0.0000 27.3570
#
#
#
# Elastic Compliance Matrix: (Units=1/GPa)
#
#
# Indices 1 2 3 4 5 6 
#
# 1 0.040360 -0.006573 -0.006500 0.000000 0.000000 0.000000
# 2 -0.006573 0.011506 -0.003327 0.000000 0.000000 0.000000
# 3 -0.006500 -0.003327 0.007865 0.000000 0.000000 0.000000
# 4 0.000000 0.000000 0.000000 0.078604 0.000000 0.000000
# 5 0.000000 0.000000 0.000000 0.000000 0.056466 0.000000
# 6 0.000000 0.000000 0.000000 0.000000 0.000000 0.036554
#
#
# Mechanical properties :
#
#
# Convention : Reuss Voigt Hill
#
# Bulk Modulus (GPa) = 37.13514 77.94856 57.54185
# Shear Modulus (GPa) = 18.30614 25.20064 21.75339
#
# Velocity S-wave (km/s) = 3.14854 3.69416 3.43221
# Velocity P-wave (km/s) = 5.77299 7.77220 6.84596
#
# Compressibility (1/GPa) = 0.02692867
#
# Stress axis : x y z
#
# Youngs Moduli (GPa) = 24.77724 86.91154 127.14451
#
# Poissons Ratio (x) = 0.57127 0.82650
# Poissons Ratio (y) = 0.16286 0.42307
# Poissons Ratio (z) = 0.16106 0.28920
#
# Static dielectric constant tensor:
#      x y z
#    x 3.174180 0.000000 0.000000 
#    y 0.000000 3.181790 0.000000 
#    z 0.000000 0.000000 4.106580 
# 
# 
# High freq. dielectric constant tensor:
#      x y z
#    x 1.695020 0.000000 0.000000 
#    y 0.000000 1.695160 0.000000 
#    z 0.000000 0.000000 1.749900 
# 
# From -- ./inp_files/76506.got.cif
#   From: 2010.03.12/outbox.cif.g09.slc.cpg/sg65_39_cif.got.tgz:76506.got - 2010.04.10 20:52:16.
