data_PCOD8268420
_publ_section_title
;
Structure prediction by ZEFSAII (Michael W. Deem and Ramdas Pophale) SiO2 
 PCOD8268420
Probable space group: C M M M
;
_chemical_formula_sum "Si O2"
_cell_formula_units_Z 80
_cell_length_a 27.026595
_cell_length_b 9.165515
_cell_length_c 18.524705
_cell_angle_alpha 90.000000
_cell_angle_beta 90.000000
_cell_angle_gamma 90.000000
_cell_volume 4588.803986
_symmetry_space_group_name_H-M "C M M M"
_symmetry_group_IT_number 65
_symmetry_cell_setting 'orthorhombic'
loop_
_space_group_symop_operation_xyz
x,y,z
-x,-y,z
x,-y,-z
-x,y,-z
-x,-y,-z
x,y,-z
-x,y,z
x,-y,z
1/2+x,1/2+y,z
1/2-x,1/2-y,z
1/2+x,1/2-y,-z
1/2-x,1/2+y,-z
1/2-x,1/2-y,-z
1/2+x,1/2+y,-z
1/2-x,1/2+y,z
1/2+x,1/2-y,z
loop_
_atom_site_type_symbol
_atom_site_label
_atom_site_fract_x
_atom_site_fract_y
_atom_site_fract_z
Si Si1 0.389685 0.670576 0.643283
Si Si2 0.801579 0.671949 0.289229
Si Si3 0.055757 0.830197 0.210252
Si Si4 0.444643 0.673147 0.500000
Si Si5 0.642947 0.829957 0.143901
Si Si6 0.197872 0.327657 0.000000
O O1 0.375723 0.500000 0.639448
O O2 0.340012 0.764073 0.652841
O O3 0.427425 0.702677 0.708239
O O4 0.415634 0.727125 0.570627
O O5 0.795771 0.500000 0.300995
O O6 0.750000 0.750000 0.302748
O O7 0.820011 0.710628 0.208788
O O8 0.090594 0.749709 0.152889
O O9 0.000000 0.771683 0.200994
O O10 0.058917 0.000000 0.193036
O O11 0.448309 0.500000 0.500000
O O12 0.500000 0.739733 0.500000
O O13 0.631484 0.000000 0.142271
O O14 0.667634 0.776094 0.070019
O O15 0.250000 0.250000 0.000000
O O16 0.206911 0.500000 0.000000
#
# Coordination Sequence:
#
# PCOD8268420 Si02
#       6
#    16  16  16   8  16   8
#     4   9  17  30  49  73  99 125 156 194 235 279
#     4  10  19  32  50  71  95 124 159 196 235 279
#     4   9  17  30  49  72  97 126 160 196 232 273
#     4   9  16  28  50  77 100 123 154 193 236 281
#     4   9  19  33  49  71  97 124 156 194 235 283
#     4  10  20  34  51  72  97 123 154 193 239 286
#
# _framework density 17.433737000000001
#
# number of rings (size 3 to 8) (size 9 to 14) (size 15 to 20)
#    0.000    2.700    0.000    1.800    0.000    4.400 
#    0.000    1.500    0.000    5.400    0.000    0.000 
#    0.000    0.000    0.000    0.000    0.000    0.000 
#
# Total GULP energy -496081.202126 kJ/mol
# GULP energy per Si atom -12402.030053 kJ/mol
# Density = 1.739406 g / cm^3
# Si number density = 17.433737 Si / 1000 Ang^3
#
#
#
# Elastic Constant Matrix: (Units=GPa)
#
#
# Indices 1 2 3 4 5 6 
#
# 1 185.0037 63.3909 83.6768 0.0000 0.0000 0.0000
# 2 63.3909 51.0100 37.5702 0.0000 0.0000 0.0000
# 3 83.6768 37.5702 127.6226 0.0000 0.0000 0.0000
# 4 0.0000 0.0000 0.0000 20.9365 0.0000 0.0000
# 5 0.0000 0.0000 0.0000 0.0000 23.4116 0.0000
# 6 0.0000 0.0000 0.0000 0.0000 0.0000 32.6203
#
#
#
# Elastic Compliance Matrix: (Units=1/GPa)
#
#
# Indices 1 2 3 4 5 6 
#
# 1 0.010806 -0.010484 -0.003999 0.000000 0.000000 0.000000
# 2 -0.010484 0.035202 -0.003489 0.000000 0.000000 0.000000
# 3 -0.003999 -0.003489 0.011485 0.000000 0.000000 0.000000
# 4 0.000000 0.000000 0.000000 0.047764 0.000000 0.000000
# 5 0.000000 0.000000 0.000000 0.000000 0.042714 0.000000
# 6 0.000000 0.000000 0.000000 0.000000 0.000000 0.030656
#
#
# Mechanical properties :
#
#
# Convention : Reuss Voigt Hill
#
# Bulk Modulus (GPa) = 46.40525 81.43467 63.91996
# Shear Modulus (GPa) = 22.54759 27.32691 24.93725
#
# Velocity S-wave (km/s) = 3.60019 3.96343 3.78617
# Velocity P-wave (km/s) = 6.63006 8.23149 7.47379
#
# Compressibility (1/GPa) = 0.02154929
#
# Stress axis : x y z
#
# Youngs Moduli (GPa) = 92.53935 28.40733 87.07220
#
# Poissons Ratio (x) = 0.29781 0.34820
# Poissons Ratio (y) = 0.97016 0.30382
# Poissons Ratio (z) = 0.37006 0.09912
#
# Static dielectric constant tensor:
#      x y z
#    x 3.327570 0.000000 0.000000 
#    y 0.000000 3.096990 0.000000 
#    z 0.000000 0.000000 3.309410 
# 
# 
# High freq. dielectric constant tensor:
#      x y z
#    x 1.681180 0.000000 0.000000 
#    y 0.000000 1.660200 0.000000 
#    z 0.000000 0.000000 1.665220 
# 
# From -- ./inp_files/49903.got.cif
#   From: 2010.03.12/outbox.cif.g09.slc.cpg/sg65_25_cif.got.tgz:49903.got - 2010.04.10 20:52:16.
