data_PCOD8268737
_publ_section_title
;
Structure prediction by ZEFSAII (Michael W. Deem and Ramdas Pophale) SiO2 
 PCOD8268737
Probable space group: C M M M
;
_chemical_formula_sum "Si O2"
_cell_formula_units_Z 88
_cell_length_a 27.172773
_cell_length_b 8.022946
_cell_length_c 22.462534
_cell_angle_alpha 90.000000
_cell_angle_beta 90.000000
_cell_angle_gamma 90.000000
_cell_volume 4896.960234
_symmetry_space_group_name_H-M "C M M M"
_symmetry_group_IT_number 65
_symmetry_cell_setting 'orthorhombic'
loop_
_space_group_symop_operation_xyz
x,y,z
-x,-y,z
x,-y,-z
-x,y,-z
-x,-y,-z
x,y,-z
-x,y,z
x,-y,z
1/2+x,1/2+y,z
1/2-x,1/2-y,z
1/2+x,1/2-y,-z
1/2-x,1/2+y,-z
1/2-x,1/2-y,-z
1/2+x,1/2+y,-z
1/2-x,1/2+y,z
1/2+x,1/2-y,z
loop_
_atom_site_type_symbol
_atom_site_label
_atom_site_fract_x
_atom_site_fract_y
_atom_site_fract_z
Si Si1 0.694742 0.802424 0.297507
Si Si2 0.101469 0.191809 0.361696
Si Si3 0.944769 0.192725 0.235420
Si Si4 0.443241 0.000000 0.570303
Si Si5 0.852292 0.311751 0.823039
Si Si6 0.802378 0.808443 0.064835
O O1 0.750000 0.750000 0.312802
O O2 0.659057 0.718548 0.346234
O O3 0.679603 0.734683 0.231691
O O4 0.687703 0.000000 0.300494
O O5 0.068634 0.224637 0.303735
O O6 0.083795 0.329926 0.408831
O O7 0.094320 0.000000 0.384934
O O8 0.909892 0.298261 0.192131
O O9 0.000000 0.255319 0.224474
O O10 0.938369 0.000000 0.219090
O O11 0.500000 0.000000 0.591896
O O12 0.439969 0.000000 0.500000
O O13 0.836139 0.500000 0.832067
O O14 0.843614 0.222832 0.885741
O O15 0.750000 0.750000 0.090619
O O16 0.799513 0.000000 0.052529
O O17 0.813792 0.722260 0.000000
#
# Coordination Sequence:
#
# PCOD8268737 Si02
#       6
#    16  16  16   8  16  16
#     4  10  19  32  52  83 114 146 181 222 276 328
#     4  10  20  37  58  84 115 149 184 226 275 328
#     4   9  18  32  52  77 105 137 172 213 264 318
#     4  11  24  40  60  86 116 150 187 231 274 318
#     4  10  20  31  47  74 107 136 170 216 264 316
#     4  10  20  33  49  68  94 132 172 212 258 310
#
# _framework density 17.970331999999999
#
# number of rings (size 3 to 8) (size 9 to 14) (size 15 to 20)
#    0.000    2.091    0.909    2.727    1.273    6.545 
#    0.000    0.909    0.000    1.091    0.000    3.818 
#    0.000    0.000    0.000    0.000    0.000    0.000 
#
# Total GULP energy -545457.753062 kJ/mol
# GULP energy per Si atom -12396.767115 kJ/mol
# Density = 1.792943 g / cm^3
# Si number density = 17.970332 Si / 1000 Ang^3
#
#
#
# Elastic Constant Matrix: (Units=GPa)
#
#
# Indices 1 2 3 4 5 6 
#
# 1 118.2798 29.5951 45.1475 0.0000 0.0000 0.0000
# 2 29.5951 82.4506 37.2949 0.0000 0.0000 0.0000
# 3 45.1475 37.2949 81.0179 0.0000 0.0000 0.0000
# 4 0.0000 0.0000 0.0000 24.0256 0.0000 0.0000
# 5 0.0000 0.0000 0.0000 0.0000 24.0750 0.0000
# 6 0.0000 0.0000 0.0000 0.0000 0.0000 29.4443
#
#
#
# Elastic Compliance Matrix: (Units=1/GPa)
#
#
# Indices 1 2 3 4 5 6 
#
# 1 0.010878 -0.001468 -0.005386 0.000000 0.000000 0.000000
# 2 -0.001468 0.015516 -0.006324 0.000000 0.000000 0.000000
# 3 -0.005386 -0.006324 0.018255 0.000000 0.000000 0.000000
# 4 0.000000 0.000000 0.000000 0.041622 0.000000 0.000000
# 5 0.000000 0.000000 0.000000 0.000000 0.041537 0.000000
# 6 0.000000 0.000000 0.000000 0.000000 0.000000 0.033962
#
#
# Mechanical properties :
#
#
# Convention : Reuss Voigt Hill
#
# Bulk Modulus (GPa) = 54.66705 56.20260 55.43482
# Shear Modulus (GPa) = 25.74334 26.82304 26.28319
#
# Velocity S-wave (km/s) = 3.78901 3.86765 3.82853
# Velocity P-wave (km/s) = 7.04477 7.16157 7.10341
#
# Compressibility (1/GPa) = 0.01829256
#
# Stress axis : x y z
#
# Youngs Moduli (GPa) = 91.93165 64.44874 54.77830
#
# Poissons Ratio (x) = 0.09463 0.29502
# Poissons Ratio (y) = 0.13499 0.34644
# Poissons Ratio (z) = 0.49511 0.40759
#
# Static dielectric constant tensor:
#      x y z
#    x 3.304020 0.000000 0.000000 
#    y 0.000000 3.440530 0.000000 
#    z 0.000000 0.000000 3.154750 
# 
# 
# High freq. dielectric constant tensor:
#      x y z
#    x 1.691160 0.000000 0.000000 
#    y 0.000000 1.705600 0.000000 
#    z 0.000000 0.000000 1.669680 
# 
# From -- ./inp_files/65198.got.cif
#   From: 2010.03.12/outbox.cif.g09.slc.cpg/sg65_33_cif.got.tgz:65198.got - 2010.04.10 20:52:16.
