data_PCOD8268390
_publ_section_title
;
Structure prediction by ZEFSAII (Michael W. Deem and Ramdas Pophale) SiO2 
 PCOD8268390
Probable space group: C M M M
;
_chemical_formula_sum "Si O2"
_cell_formula_units_Z 120
_cell_length_a 8.991850
_cell_length_b 26.611014
_cell_length_c 27.713597
_cell_angle_alpha 90.000000
_cell_angle_beta 90.000000
_cell_angle_gamma 90.000000
_cell_volume 6631.371741
_symmetry_space_group_name_H-M "C M M M"
_symmetry_group_IT_number 65
_symmetry_cell_setting 'orthorhombic'
loop_
_space_group_symop_operation_xyz
x,y,z
-x,-y,z
x,-y,-z
-x,y,-z
-x,-y,-z
x,y,-z
-x,y,z
x,-y,z
1/2+x,1/2+y,z
1/2-x,1/2-y,z
1/2+x,1/2-y,-z
1/2-x,1/2+y,-z
1/2-x,1/2-y,-z
1/2+x,1/2+y,-z
1/2-x,1/2+y,z
1/2+x,1/2-y,z
loop_
_atom_site_type_symbol
_atom_site_label
_atom_site_fract_x
_atom_site_fract_y
_atom_site_fract_z
Si Si1 0.829131 0.944485 0.799694
Si Si2 0.325069 0.200438 0.771793
Si Si3 0.822888 0.403812 0.604759
Si Si4 0.827101 0.601844 0.714173
Si Si5 0.323566 0.649684 0.140940
Si Si6 0.826979 0.302780 0.055187
Si Si7 0.326082 0.199348 0.444205
Si Si8 0.673166 0.500000 0.556804
O O1 0.746720 0.939027 0.748818
O O2 0.774925 0.905360 0.840173
O O3 0.000000 0.934552 0.788079
O O4 0.799447 0.000000 0.820443
O O5 0.500000 0.207360 0.780144
O O6 0.250000 0.250000 0.749603
O O7 0.288893 0.157352 0.733211
O O8 0.246197 0.190460 0.823007
O O9 0.768013 0.404706 0.660027
O O10 0.768490 0.350636 0.582785
O O11 0.747864 0.450008 0.577632
O O12 0.000000 0.409132 0.599814
O O13 0.000000 0.591171 0.715837
O O14 0.500000 0.656842 0.137870
O O15 0.251106 0.655397 0.088294
O O16 0.750000 0.250000 0.066020
O O17 0.000000 0.297999 0.067980
O O18 0.802554 0.319409 0.000000
O O19 0.283872 0.192419 0.500000
O O20 0.500000 0.206111 0.436016
O O21 0.250000 0.250000 0.423355
O O22 0.500000 0.500000 0.570374
O O23 0.699421 0.500000 0.500000
#
# Coordination Sequence:
#
# PCOD8268390 Si02
#       8
#    16  16  16  16  16  16  16   8
#     4   9  19  35  54  75 100 131 168 212 257 304
#     4  10  19  32  49  71 103 139 174 211 251 300
#     4  10  21  38  58  80 107 140 177 214 260 320
#     4   9  20  35  51  75 103 132 168 208 250 300
#     4  10  19  32  51  74 100 133 174 215 258 305
#     4  10  20  33  50  74 105 138 171 209 255 306
#     4   9  18  33  54  78 103 134 171 211 256 306
#     4  11  25  41  57  81 109 137 173 219 268 315
#
# _framework density 18.095804000000001
#
# number of rings (size 3 to 8) (size 9 to 14) (size 15 to 20)
#    0.000    2.333    0.000    2.200    0.933    4.800 
#    0.000    1.333    0.000    0.400    0.000    2.800 
#    0.000    0.000    0.000    0.000    0.000    0.000 
#
# Total GULP energy -744058.899353 kJ/mol
# GULP energy per Si atom -12400.981656 kJ/mol
# Density = 1.805462 g / cm^3
# Si number density = 18.095804 Si / 1000 Ang^3
#
#
#
# Elastic Constant Matrix: (Units=GPa)
#
#
# Indices 1 2 3 4 5 6 
#
# 1 68.9920 45.8151 47.2807 0.0000 0.0000 0.0000
# 2 45.8151 127.0264 60.0080 0.0000 0.0000 0.0000
# 3 47.2807 60.0080 114.9140 0.0000 0.0000 0.0000
# 4 0.0000 0.0000 0.0000 20.5367 0.0000 0.0000
# 5 0.0000 0.0000 0.0000 0.0000 26.1613 0.0000
# 6 0.0000 0.0000 0.0000 0.0000 0.0000 27.8032
#
#
#
# Elastic Compliance Matrix: (Units=1/GPa)
#
#
# Indices 1 2 3 4 5 6 
#
# 1 0.022284 -0.004920 -0.006600 0.000000 0.000000 0.000000
# 2 -0.004920 0.011536 -0.004000 0.000000 0.000000 0.000000
# 3 -0.006600 -0.004000 0.013506 0.000000 0.000000 0.000000
# 4 0.000000 0.000000 0.000000 0.048693 0.000000 0.000000
# 5 0.000000 0.000000 0.000000 0.000000 0.038224 0.000000
# 6 0.000000 0.000000 0.000000 0.000000 0.000000 0.035967
#
#
# Mechanical properties :
#
#
# Convention : Reuss Voigt Hill
#
# Bulk Modulus (GPa) = 61.39435 68.57112 64.98273
# Shear Modulus (GPa) = 24.19195 25.42213 24.80704
#
# Velocity S-wave (km/s) = 3.66031 3.75222 3.70655
# Velocity P-wave (km/s) = 7.20172 7.53311 7.36928
#
# Compressibility (1/GPa) = 0.01628815
#
# Stress axis : x y z
#
# Youngs Moduli (GPa) = 44.87493 86.68166 74.03862
#
# Poissons Ratio (x) = 0.42644 0.48863
# Poissons Ratio (y) = 0.22077 0.29617
# Poissons Ratio (z) = 0.29616 0.34674
#
# Static dielectric constant tensor:
#      x y z
#    x 3.361180 0.000000 0.000000 
#    y 0.000000 3.439970 0.000000 
#    z 0.000000 0.000000 3.394800 
# 
# 
# High freq. dielectric constant tensor:
#      x y z
#    x 1.703730 0.000000 0.000000 
#    y 0.000000 1.702090 0.000000 
#    z 0.000000 0.000000 1.695180 
# 
# From -- ./inp_files/73942.got.cif
#   From: 2010.03.12/outbox.cif.g09.slc.cpg/sg65_37_cif.got.tgz:73942.got - 2010.04.10 20:52:16.
