data_PCOD8268162
_publ_section_title
;
Structure prediction by ZEFSAII (Michael W. Deem and Ramdas Pophale) SiO2 
 PCOD8268162
Probable space group: C M M M
;
_chemical_formula_sum "Si O2"
_cell_formula_units_Z 104
_cell_length_a 17.078418
_cell_length_b 19.277129
_cell_length_c 17.295373
_cell_angle_alpha 90.000000
_cell_angle_beta 90.000000
_cell_angle_gamma 90.000000
_cell_volume 5694.032283
_symmetry_space_group_name_H-M "C M M M"
_symmetry_group_IT_number 65
_symmetry_cell_setting 'orthorhombic'
loop_
_space_group_symop_operation_xyz
x,y,z
-x,-y,z
x,-y,-z
-x,y,-z
-x,-y,-z
x,y,-z
-x,y,z
x,-y,z
1/2+x,1/2+y,z
1/2-x,1/2-y,z
1/2+x,1/2-y,-z
1/2-x,1/2+y,-z
1/2-x,1/2-y,-z
1/2+x,1/2+y,-z
1/2-x,1/2+y,z
1/2+x,1/2-y,z
loop_
_atom_site_type_symbol
_atom_site_label
_atom_site_fract_x
_atom_site_fract_y
_atom_site_fract_z
Si Si1 0.685320 0.077782 0.314009
Si Si2 0.813587 0.867231 0.409957
Si Si3 0.777328 0.672677 0.089854
Si Si4 0.910979 0.331795 0.208766
Si Si5 0.913702 0.000000 0.409432
Si Si6 0.821040 0.078219 0.811300
Si Si7 0.588588 0.315368 0.717076
O O1 0.723125 0.116880 0.388667
O O2 0.610983 0.119875 0.282194
O O3 0.749934 0.076461 0.247980
O O4 0.659197 0.000000 0.337371
O O5 0.819950 0.847539 0.500000
O O6 0.852184 0.807577 0.356636
O O7 0.864950 0.933511 0.383935
O O8 0.750000 0.750000 0.111529
O O9 0.856845 0.653371 0.134914
O O10 0.708417 0.618978 0.112528
O O11 0.795821 0.664872 0.000000
O O12 0.899750 0.252555 0.232254
O O13 0.000000 0.348392 0.185284
O O14 0.923894 0.000000 0.500000
O O15 0.000000 0.000000 0.370335
O O16 0.892704 0.119210 0.772172
O O17 0.847782 0.000000 0.833079
O O18 0.500000 0.322274 0.686122
#
# Coordination Sequence:
#
# PCOD8268162 Si02
#       7
#    16  16  16  16   8  16  16
#     4   9  18  33  54  76 102 136 179 228 274 326
#     4  10  19  31  50  75 104 141 181 226 275 324
#     4  10  19  34  58  82 105 139 178 219 270 325
#     4  10  21  37  56  79 108 141 180 226 272 320
#     4   9  16  26  42  70 105 135 166 213 271 321
#     4   9  18  32  51  77 107 141 179 218 262 319
#     4  10  20  33  50  74 109 149 184 222 267 321
#
# _framework density 18.264735999999999
#
# number of rings (size 3 to 8) (size 9 to 14) (size 15 to 20)
#    0.000    2.385    2.308    0.462    1.077    2.154 
#    0.000    1.538    0.000    1.846    0.000    6.462 
#    0.000    0.000    0.000    0.000    0.000    0.000 
#
# Total GULP energy -644651.758928 kJ/mol
# GULP energy per Si atom -12397.149210 kJ/mol
# Density = 1.822316 g / cm^3
# Si number density = 18.264736 Si / 1000 Ang^3
#
#
#
# Elastic Constant Matrix: (Units=GPa)
#
#
# Indices 1 2 3 4 5 6 
#
# 1 72.0868 26.5648 48.8986 0.0000 0.0000 0.0000
# 2 26.5648 77.2280 22.9949 0.0000 0.0000 0.0000
# 3 48.8986 22.9949 85.5144 0.0000 0.0000 0.0000
# 4 0.0000 0.0000 0.0000 17.5669 0.0000 0.0000
# 5 0.0000 0.0000 0.0000 0.0000 22.4503 0.0000
# 6 0.0000 0.0000 0.0000 0.0000 0.0000 27.8093
#
#
#
# Elastic Compliance Matrix: (Units=1/GPa)
#
#
# Indices 1 2 3 4 5 6 
#
# 1 0.024043 -0.004540 -0.012527 0.000000 0.000000 0.000000
# 2 -0.004540 0.014933 -0.001419 0.000000 0.000000 0.000000
# 3 -0.012527 -0.001419 0.019239 0.000000 0.000000 0.000000
# 4 0.000000 0.000000 0.000000 0.056925 0.000000 0.000000
# 5 0.000000 0.000000 0.000000 0.000000 0.044543 0.000000
# 6 0.000000 0.000000 0.000000 0.000000 0.000000 0.035959
#
#
# Mechanical properties :
#
#
# Convention : Reuss Voigt Hill
#
# Bulk Modulus (GPa) = 47.07834 47.97175 47.52504
# Shear Modulus (GPa) = 20.85973 22.65669 21.75821
#
# Velocity S-wave (km/s) = 3.38313 3.52584 3.45522
# Velocity P-wave (km/s) = 6.41032 6.54959 6.48033
#
# Compressibility (1/GPa) = 0.02124119
#
# Stress axis : x y z
#
# Youngs Moduli (GPa) = 41.59228 66.96571 51.97795
#
# Poissons Ratio (x) = 0.30404 0.65114
# Poissons Ratio (y) = 0.18884 0.07377
# Poissons Ratio (z) = 0.52104 0.09505
#
# Static dielectric constant tensor:
#      x y z
#    x 3.337070 0.000000 0.000000 
#    y 0.000000 3.612640 0.000000 
#    z 0.000000 0.000000 3.184470 
# 
# 
# High freq. dielectric constant tensor:
#      x y z
#    x 1.692080 0.000000 0.000000 
#    y 0.000000 1.706970 0.000000 
#    z 0.000000 0.000000 1.690230 
# 
# From -- ./inp_files/54620.got.cif
#   From: 2010.03.12/outbox.cif.g09.slc.cpg/sg65_28_cif.got.tgz:54620.got - 2010.04.10 20:52:16.
