data_PCOD8268163
_publ_section_title
;
Structure prediction by ZEFSAII (Michael W. Deem and Ramdas Pophale) SiO2 
 PCOD8268163
Probable space group: C M M M
;
_chemical_formula_sum "Si O2"
_cell_formula_units_Z 64
_cell_length_a 8.996370
_cell_length_b 17.804910
_cell_length_c 22.416384
_cell_angle_alpha 90.000000
_cell_angle_beta 90.000000
_cell_angle_gamma 90.000000
_cell_volume 3590.646485
_symmetry_space_group_name_H-M "C M M M"
_symmetry_group_IT_number 65
_symmetry_cell_setting 'orthorhombic'
loop_
_space_group_symop_operation_xyz
x,y,z
-x,-y,z
x,-y,-z
-x,y,-z
-x,-y,-z
x,y,-z
-x,y,z
x,-y,z
1/2+x,1/2+y,z
1/2-x,1/2-y,z
1/2+x,1/2-y,-z
1/2-x,1/2+y,-z
1/2-x,1/2-y,-z
1/2+x,1/2+y,-z
1/2-x,1/2+y,z
1/2+x,1/2-y,z
loop_
_atom_site_type_symbol
_atom_site_label
_atom_site_fract_x
_atom_site_fract_y
_atom_site_fract_z
Si Si1 0.825386 0.086989 0.236519
Si Si2 0.832297 0.410604 0.882913
Si Si3 0.165313 0.324830 0.659725
Si Si4 0.500000 0.088642 0.431445
Si Si5 0.667937 0.589658 0.000000
O O1 0.753619 0.118047 0.175598
O O2 0.760305 0.132758 0.291139
O O3 0.000000 0.099923 0.232535
O O4 0.784757 0.000000 0.246113
O O5 0.830927 0.500000 0.884830
O O6 0.750713 0.378625 0.941514
O O7 0.000000 0.379571 0.881524
O O8 0.250000 0.250000 0.640001
O O9 0.000000 0.305806 0.685270
O O10 0.147102 0.377408 0.600912
O O11 0.500000 0.113375 0.500000
O O12 0.500000 0.000000 0.423821
O O13 0.669877 0.500000 0.000000
O O14 0.500000 0.620007 0.000000
#
# Coordination Sequence:
#
# PCOD8268163 Si02
#       5
#    16  16  16   8   8
#     4  10  19  31  50  75 106 142 184 233 285 339
#     4   9  16  25  39  62  93 133 179 229 285 341
#     4  10  21  35  56  81 113 146 185 227 277 330
#     4   9  20  38  62  88 115 150 190 228 272 330
#     4   9  15  23  35  55  90 131 176 229 287 342
#
# _framework density 17.824089000000001
#
# number of rings (size 3 to 8) (size 9 to 14) (size 15 to 20)
#    0.750    1.750    0.000    3.375    0.000    6.000 
#    0.000    0.000    0.000    0.000    0.000    6.125 
#    0.000    0.000    0.000    0.000    0.000    0.000 
#
# Total GULP energy -396687.448157 kJ/mol
# GULP energy per Si atom -12396.482755 kJ/mol
# Density = 1.778352 g / cm^3
# Si number density = 17.824089 Si / 1000 Ang^3
#
#
#
# Elastic Constant Matrix: (Units=GPa)
#
#
# Indices 1 2 3 4 5 6 
#
# 1 119.7668 39.9749 63.1264 0.0000 0.0000 0.0000
# 2 39.9749 59.6709 54.7899 0.0000 0.0000 0.0000
# 3 63.1264 54.7899 169.2702 0.0000 0.0000 0.0000
# 4 0.0000 0.0000 0.0000 0.7073 0.0000 0.0000
# 5 0.0000 0.0000 0.0000 0.0000 17.8212 0.0000
# 6 0.0000 0.0000 0.0000 0.0000 0.0000 25.7142
#
#
#
# Elastic Compliance Matrix: (Units=1/GPa)
#
#
# Indices 1 2 3 4 5 6 
#
# 1 0.011479 -0.005349 -0.002549 0.000000 0.000000 0.000000
# 2 -0.005349 0.026338 -0.006530 0.000000 0.000000 0.000000
# 3 -0.002549 -0.006530 0.008972 0.000000 0.000000 0.000000
# 4 0.000000 0.000000 0.000000 1.413755 0.000000 0.000000
# 5 0.000000 0.000000 0.000000 0.000000 0.056113 0.000000
# 6 0.000000 0.000000 0.000000 0.000000 0.000000 0.038889
#
#
# Mechanical properties :
#
#
# Convention : Reuss Voigt Hill
#
# Bulk Modulus (GPa) = 55.76763 73.83228 64.79995
# Shear Modulus (GPa) = 3.14390 21.56965 12.35678
#
# Velocity S-wave (km/s) = 1.32954 3.48248 2.63584
# Velocity P-wave (km/s) = 5.80626 7.59493 6.76001
#
# Compressibility (1/GPa) = 0.01793155
#
# Stress axis : x y z
#
# Youngs Moduli (GPa) = 87.11858 37.96765 111.45462
#
# Poissons Ratio (x) = 0.20309 0.28414
# Poissons Ratio (y) = 0.46599 0.72785
# Poissons Ratio (z) = 0.22210 0.24795
#
# Static dielectric constant tensor:
#      x y z
#    x 3.394350 0.000000 0.000000 
#    y 0.000000 2.914300 0.000000 
#    z 0.000000 0.000000 3.324760 
# 
# 
# High freq. dielectric constant tensor:
#      x y z
#    x 1.697480 0.000000 0.000000 
#    y 0.000000 1.649200 0.000000 
#    z 0.000000 0.000000 1.692760 
# 
# From -- ./inp_files/67201.got.cif
#   From: 2010.03.12/outbox.cif.g09.slc.cpg/sg65_34_cif.got.tgz:67201.got - 2010.04.10 20:52:16.
