data_PCOD8268637
_publ_section_title
;
Structure prediction by ZEFSAII (Michael W. Deem and Ramdas Pophale) SiO2 
 PCOD8268637
Probable space group: C M M M
;
_chemical_formula_sum "Si O2"
_cell_formula_units_Z 96
_cell_length_a 29.165287
_cell_length_b 8.897553
_cell_length_c 20.722704
_cell_angle_alpha 90.000000
_cell_angle_beta 90.000000
_cell_angle_gamma 90.000000
_cell_volume 5377.535199
_symmetry_space_group_name_H-M "C M M M"
_symmetry_group_IT_number 65
_symmetry_cell_setting 'orthorhombic'
loop_
_space_group_symop_operation_xyz
x,y,z
-x,-y,z
x,-y,-z
-x,y,-z
-x,-y,-z
x,y,-z
-x,y,z
x,-y,z
1/2+x,1/2+y,z
1/2-x,1/2-y,z
1/2+x,1/2-y,-z
1/2-x,1/2+y,-z
1/2-x,1/2-y,-z
1/2+x,1/2+y,-z
1/2-x,1/2+y,z
1/2+x,1/2-y,z
loop_
_atom_site_type_symbol
_atom_site_label
_atom_site_fract_x
_atom_site_fract_y
_atom_site_fract_z
Si Si1 0.797261 0.323350 0.928010
Si Si2 0.145594 0.674215 0.192287
Si Si3 0.144087 0.178714 0.570974
Si Si4 0.200524 0.178441 0.693348
Si Si5 0.949713 0.671154 0.242282
Si Si6 0.450037 0.322397 0.623908
O O1 0.789840 0.500000 0.927492
O O2 0.750000 0.250000 0.904968
O O3 0.836442 0.273827 0.877761
O O4 0.811018 0.267635 0.000000
O O5 0.157652 0.500000 0.205324
O O6 0.168473 0.772627 0.247924
O O7 0.090711 0.702073 0.190921
O O8 0.160609 0.233630 0.500000
O O9 0.178499 0.238487 0.626085
O O10 0.092293 0.241752 0.582051
O O11 0.142885 0.000000 0.574304
O O12 0.250000 0.250000 0.701812
O O13 0.205076 0.000000 0.693672
O O14 0.946792 0.500000 0.267470
O O15 0.941650 0.779490 0.302275
O O16 0.000000 0.701540 0.210636
O O17 0.500000 0.260193 0.600038
O O18 0.450313 0.500000 0.619297
#
# Coordination Sequence:
#
# PCOD8268637 Si02
#       6
#    16  16  16  16  16  16
#     4   9  18  32  49  71  99 129 160 195 236 282
#     4  10  19  32  52  75  99 128 161 197 237 282
#     4   9  18  32  48  68  95 125 157 196 242 288
#     4  11  22  35  51  71  95 124 160 204 245 286
#     4   9  17  29  47  71  99 128 156 190 235 284
#     4   9  16  28  48  72  95 120 154 195 239 286
#
# _framework density 17.852045
#
# number of rings (size 3 to 8) (size 9 to 14) (size 15 to 20)
#    0.000    2.500    1.667    1.000    0.000    2.667 
#    0.000    1.667    0.000    4.500    0.000    5.833 
#    0.000    0.000    0.000    9.833    0.000   10.333 
#
# Total GULP energy -594884.189921 kJ/mol
# GULP energy per Si atom -12393.420623 kJ/mol
# Density = 1.781141 g / cm^3
# Si number density = 17.852045 Si / 1000 Ang^3
#
#
#
# Elastic Constant Matrix: (Units=GPa)
#
#
# Indices 1 2 3 4 5 6 
#
# 1 132.1988 19.9800 64.2961 0.0000 0.0000 0.0000
# 2 19.9800 20.0086 16.0232 0.0000 0.0000 0.0000
# 3 64.2961 16.0232 108.5596 0.0000 0.0000 0.0000
# 4 0.0000 0.0000 0.0000 19.2584 0.0000 0.0000
# 5 0.0000 0.0000 0.0000 0.0000 29.2621 0.0000
# 6 0.0000 0.0000 0.0000 0.0000 0.0000 15.9342
#
#
#
# Elastic Compliance Matrix: (Units=1/GPa)
#
#
# Indices 1 2 3 4 5 6 
#
# 1 0.011379 -0.006765 -0.005741 0.000000 0.000000 0.000000
# 2 -0.006765 0.060700 -0.004952 0.000000 0.000000 0.000000
# 3 -0.005741 -0.004952 0.013343 0.000000 0.000000 0.000000
# 4 0.000000 0.000000 0.000000 0.051925 0.000000 0.000000
# 5 0.000000 0.000000 0.000000 0.000000 0.034174 0.000000
# 6 0.000000 0.000000 0.000000 0.000000 0.000000 0.062758
#
#
# Mechanical properties :
#
#
# Convention : Reuss Voigt Hill
#
# Bulk Modulus (GPa) = 19.80019 51.26285 35.53152
# Shear Modulus (GPa) = 17.48064 23.58878 20.53471
#
# Velocity S-wave (km/s) = 3.13260 3.63898 3.39525
# Velocity P-wave (km/s) = 4.91931 6.81425 5.94279
#
# Compressibility (1/GPa) = 0.05050458
#
# Stress axis : x y z
#
# Youngs Moduli (GPa) = 87.88162 16.47445 74.94810
#
# Poissons Ratio (x) = 0.11146 0.43026
# Poissons Ratio (y) = 0.59455 0.37117
# Poissons Ratio (z) = 0.50451 0.08159
#
# Static dielectric constant tensor:
#      x y z
#    x 3.688530 0.000000 0.000000 
#    y 0.000000 3.126950 0.000000 
#    z 0.000000 0.000000 3.383290 
# 
# 
# High freq. dielectric constant tensor:
#      x y z
#    x 1.702050 0.000000 0.000000 
#    y 0.000000 1.669350 0.000000 
#    z 0.000000 0.000000 1.671370 
# 
# From -- ./inp_files/65741.got.cif
#   From: 2010.03.12/outbox.cif.g09.slc.cpg/sg65_33_cif.got.tgz:65741.got - 2010.04.10 20:52:16.
