data_PCOD8268416
_publ_section_title
;
Structure prediction by ZEFSAII (Michael W. Deem and Ramdas Pophale) SiO2 
 PCOD8268416
Probable space group: C M M M
;
_chemical_formula_sum "Si O2"
_cell_formula_units_Z 120
_cell_length_a 28.013632
_cell_length_b 18.705961
_cell_length_c 13.387635
_cell_angle_alpha 90.000000
_cell_angle_beta 90.000000
_cell_angle_gamma 90.000000
_cell_volume 7015.414032
_symmetry_space_group_name_H-M "C M M M"
_symmetry_group_IT_number 65
_symmetry_cell_setting 'orthorhombic'
loop_
_space_group_symop_operation_xyz
x,y,z
-x,-y,z
x,-y,-z
-x,y,-z
-x,-y,-z
x,y,-z
-x,y,z
x,-y,z
1/2+x,1/2+y,z
1/2-x,1/2-y,z
1/2+x,1/2-y,-z
1/2-x,1/2+y,-z
1/2-x,1/2-y,-z
1/2+x,1/2+y,-z
1/2-x,1/2+y,z
1/2+x,1/2-y,z
loop_
_atom_site_type_symbol
_atom_site_label
_atom_site_fract_x
_atom_site_fract_y
_atom_site_fract_z
Si Si1 0.738244 0.831745 0.617366
Si Si2 0.053950 0.655399 0.383497
Si Si3 0.415986 0.419711 0.616792
Si Si4 0.946745 0.000000 0.117892
Si Si5 0.947340 0.207074 0.744397
Si Si6 0.852091 0.421045 0.617704
Si Si7 0.383016 0.634432 0.882573
Si Si8 0.318753 0.582060 0.276573
O O1 0.746857 0.843408 0.500000
O O2 0.750000 0.750000 0.646916
O O3 0.685073 0.858240 0.649643
O O4 0.772260 0.882069 0.680046
O O5 0.059244 0.673518 0.500000
O O6 0.066342 0.726877 0.324461
O O7 0.093717 0.598160 0.349140
O O8 0.000000 0.627376 0.360249
O O9 0.423359 0.407847 0.500000
O O10 0.431855 0.500000 0.648622
O O11 0.447823 0.363268 0.675522
O O12 0.360469 0.407769 0.642529
O O13 0.917469 0.069386 0.151392
O O14 0.000000 0.000000 0.164415
O O15 0.950719 0.000000 0.000000
O O16 0.909505 0.203614 0.836124
O O17 0.000000 0.216125 0.790989
O O18 0.850087 0.427342 0.500000
O O19 0.839669 0.500000 0.663014
O O20 0.332568 0.620378 0.828672
O O21 0.375078 0.642992 0.000000
O O22 0.307006 0.500000 0.254545
#
# Coordination Sequence:
#
# PCOD8268416 Si02
#       8
#    16  16  16   8  16  16  16  16
#     4  10  21  33  50  78 106 135 168 204 245 295
#     4   9  18  32  50  74 104 136 168 204 251 307
#     4   9  18  29  41  60  89 128 169 205 240 286
#     4   9  16  28  46  66  91 123 163 215 265 300
#     4  10  20  30  44  66  94 130 168 208 254 304
#     4   9  18  32  50  74 104 136 170 207 244 289
#     4  10  20  33  48  69  94 126 170 218 263 305
#     4  10  19  32  50  70  95 129 168 209 252 298
#
# _framework density 17.105191000000001
#
# number of rings (size 3 to 8) (size 9 to 14) (size 15 to 20)
#    0.000    2.467    0.667    1.600    4.667    3.467 
#    0.000    2.000    0.000    0.400    0.000    0.000 
#    0.000    0.533    0.000    2.933    0.000    0.133 
#
# Total GULP energy -743693.310144 kJ/mol
# GULP energy per Si atom -12394.888502 kJ/mol
# Density = 1.706626 g / cm^3
# Si number density = 17.105191 Si / 1000 Ang^3
#
#
#
# Elastic Constant Matrix: (Units=GPa)
#
#
# Indices 1 2 3 4 5 6 
#
# 1 100.2528 46.3569 20.6073 0.0000 0.0000 0.0000
# 2 46.3569 84.8347 22.4150 0.0000 0.0000 0.0000
# 3 20.6073 22.4150 50.0207 0.0000 0.0000 0.0000
# 4 0.0000 0.0000 0.0000 13.6740 0.0000 0.0000
# 5 0.0000 0.0000 0.0000 0.0000 13.2633 0.0000
# 6 0.0000 0.0000 0.0000 0.0000 0.0000 30.4191
#
#
#
# Elastic Compliance Matrix: (Units=1/GPa)
#
#
# Indices 1 2 3 4 5 6 
#
# 1 0.013636 -0.006768 -0.002585 0.000000 0.000000 0.000000
# 2 -0.006768 0.016730 -0.004709 0.000000 0.000000 0.000000
# 3 -0.002585 -0.004709 0.023167 0.000000 0.000000 0.000000
# 4 0.000000 0.000000 0.000000 0.073132 0.000000 0.000000
# 5 0.000000 0.000000 0.000000 0.000000 0.075396 0.000000
# 6 0.000000 0.000000 0.000000 0.000000 0.000000 0.032874
#
#
# Mechanical properties :
#
#
# Convention : Reuss Voigt Hill
#
# Bulk Modulus (GPa) = 39.35555 45.98517 42.67036
# Shear Modulus (GPa) = 18.41441 21.18656 19.80049
#
# Velocity S-wave (km/s) = 3.28463 3.52320 3.40600
# Velocity P-wave (km/s) = 6.11906 6.59490 6.36143
#
# Compressibility (1/GPa) = 0.02540938
#
# Stress axis : x y z
#
# Youngs Moduli (GPa) = 73.33722 59.77249 43.16566
#
# Poissons Ratio (x) = 0.40455 0.11157
# Poissons Ratio (y) = 0.49635 0.20325
# Poissons Ratio (z) = 0.18955 0.28145
#
# Static dielectric constant tensor:
#      x y z
#    x 3.250480 0.000000 0.000000 
#    y 0.000000 3.250220 0.000000 
#    z 0.000000 0.000000 2.955420 
# 
# 
# High freq. dielectric constant tensor:
#      x y z
#    x 1.658200 0.000000 0.000000 
#    y 0.000000 1.647660 0.000000 
#    z 0.000000 0.000000 1.628140 
# 
# From -- ./inp_files/47277.got.cif
#   From: 2010.03.12/outbox.cif.g09.slc.cpg/sg65_24_cif.got.tgz:47277.got - 2010.04.10 20:52:16.
