data_PCOD8268035
_publ_section_title
;
Structure prediction by ZEFSAII (Michael W. Deem and Ramdas Pophale) SiO2 
 PCOD8268035
Probable space group: C M M M
;
_chemical_formula_sum "Si O2"
_cell_formula_units_Z 80
_cell_length_a 19.110665
_cell_length_b 8.956304
_cell_length_c 25.136472
_cell_angle_alpha 90.000000
_cell_angle_beta 90.000000
_cell_angle_gamma 90.000000
_cell_volume 4302.381808
_symmetry_space_group_name_H-M "C M M M"
_symmetry_group_IT_number 65
_symmetry_cell_setting 'orthorhombic'
loop_
_space_group_symop_operation_xyz
x,y,z
-x,-y,z
x,-y,-z
-x,y,-z
-x,-y,-z
x,y,-z
-x,y,z
x,-y,z
1/2+x,1/2+y,z
1/2-x,1/2-y,z
1/2+x,1/2-y,-z
1/2-x,1/2+y,-z
1/2-x,1/2-y,-z
1/2+x,1/2+y,-z
1/2-x,1/2+y,z
1/2+x,1/2-y,z
loop_
_atom_site_type_symbol
_atom_site_label
_atom_site_fract_x
_atom_site_fract_y
_atom_site_fract_z
Si Si1 0.325459 0.177859 0.000000
Si Si2 0.077737 0.322645 0.094919
Si Si3 0.917674 0.675060 0.500000
Si Si4 0.322662 0.676542 0.415161
Si Si5 0.917537 0.668438 0.213190
Si Si6 0.679310 0.673550 0.706997
O O1 0.250000 0.250000 0.000000
O O2 0.367097 0.236980 0.051774
O O3 0.318544 0.000000 0.000000
O O4 0.073343 0.500000 0.092740
O O5 0.102336 0.273642 0.153947
O O6 0.000000 0.258525 0.082342
O O7 0.900285 0.500000 0.500000
O O8 0.885909 0.751530 0.552303
O O9 0.000000 0.705392 0.500000
O O10 0.319061 0.500000 0.425536
O O11 0.250000 0.750000 0.434259
O O12 0.337233 0.716560 0.353817
O O13 0.889893 0.500000 0.221741
O O14 0.884626 0.775705 0.256803
O O15 0.000000 0.674140 0.220740
O O16 0.690563 0.500000 0.713529
O O17 0.750000 0.750000 0.727292
#
# Coordination Sequence:
#
# PCOD8268035 Si02
#       6
#     8  16   8  16  16  16
#     4  10  19  31  49  73 101 130 164 210 258 304
#     4   8  15  30  52  74  95 128 174 213 247 297
#     4  11  24  39  56  81 111 141 174 213 258 307
#     4  10  21  38  59  80 105 139 177 216 257 306
#     4   9  18  33  53  77 105 136 171 213 261 311
#     4  10  21  36  55  79 106 138 176 215 257 306
#
# _framework density 18.594352000000001
#
# number of rings (size 3 to 8) (size 9 to 14) (size 15 to 20)
#    0.000    2.500    0.000    3.300    0.000    6.400 
#    0.000    7.000    0.000    2.400    0.000    0.000 
#    0.000    0.000    0.000    0.000    0.000    0.000 
#
# Total GULP energy -496018.355069 kJ/mol
# GULP energy per Si atom -12400.458877 kJ/mol
# Density = 1.855203 g / cm^3
# Si number density = 18.594352 Si / 1000 Ang^3
#
#
#
# Elastic Constant Matrix: (Units=GPa)
#
#
# Indices 1 2 3 4 5 6 
#
# 1 107.7253 44.3189 73.7145 0.0000 0.0000 0.0000
# 2 44.3189 66.0446 45.0600 0.0000 0.0000 0.0000
# 3 73.7145 45.0600 124.2739 0.0000 0.0000 0.0000
# 4 0.0000 0.0000 0.0000 21.2415 0.0000 0.0000
# 5 0.0000 0.0000 0.0000 0.0000 32.8556 0.0000
# 6 0.0000 0.0000 0.0000 0.0000 0.0000 34.3105
#
#
#
# Elastic Compliance Matrix: (Units=1/GPa)
#
#
# Indices 1 2 3 4 5 6 
#
# 1 0.017308 -0.006125 -0.008046 0.000000 0.000000 0.000000
# 2 -0.006125 0.022286 -0.004447 0.000000 0.000000 0.000000
# 3 -0.008046 -0.004447 0.014432 0.000000 0.000000 0.000000
# 4 0.000000 0.000000 0.000000 0.047078 0.000000 0.000000
# 5 0.000000 0.000000 0.000000 0.000000 0.030436 0.000000
# 6 0.000000 0.000000 0.000000 0.000000 0.000000 0.029146
#
#
# Mechanical properties :
#
#
# Convention : Reuss Voigt Hill
#
# Bulk Modulus (GPa) = 59.56170 69.35898 64.46034
# Shear Modulus (GPa) = 24.56777 26.67820 25.62298
#
# Velocity S-wave (km/s) = 3.63884 3.79192 3.71617
# Velocity P-wave (km/s) = 7.05383 7.52021 7.29075
#
# Compressibility (1/GPa) = 0.01678931
#
# Stress axis : x y z
#
# Youngs Moduli (GPa) = 57.77525 44.87147 69.29216
#
# Poissons Ratio (x) = 0.27486 0.55751
# Poissons Ratio (y) = 0.35390 0.30816
# Poissons Ratio (z) = 0.46484 0.19955
#
# Static dielectric constant tensor:
#      x y z
#    x 3.370030 0.000000 0.000000 
#    y 0.000000 3.261580 0.000000 
#    z 0.000000 0.000000 3.663720 
# 
# 
# High freq. dielectric constant tensor:
#      x y z
#    x 1.718610 0.000000 0.000000 
#    y 0.000000 1.704430 0.000000 
#    z 0.000000 0.000000 1.733670 
# 
# From -- ./inp_files/75110.got.cif
#   From: 2010.03.12/outbox.cif.g09.slc.cpg/sg65_38_cif.got.tgz:75110.got - 2010.04.10 20:52:16.
