data_PCOD8268778
_publ_section_title
;
Structure prediction by ZEFSAII (Michael W. Deem and Ramdas Pophale) SiO2 
 PCOD8268778
Probable space group: C M M M
;
_chemical_formula_sum "Si O2"
_cell_formula_units_Z 88
_cell_length_a 8.126347
_cell_length_b 19.347855
_cell_length_c 29.947343
_cell_angle_alpha 90.000000
_cell_angle_beta 90.000000
_cell_angle_gamma 90.000000
_cell_volume 4708.542381
_symmetry_space_group_name_H-M "C M M M"
_symmetry_group_IT_number 65
_symmetry_cell_setting 'orthorhombic'
loop_
_space_group_symop_operation_xyz
x,y,z
-x,-y,z
x,-y,-z
-x,y,-z
-x,-y,-z
x,y,-z
-x,y,z
x,-y,z
1/2+x,1/2+y,z
1/2-x,1/2-y,z
1/2+x,1/2-y,-z
1/2-x,1/2+y,-z
1/2-x,1/2-y,-z
1/2+x,1/2+y,-z
1/2-x,1/2+y,z
1/2+x,1/2-y,z
loop_
_atom_site_type_symbol
_atom_site_label
_atom_site_fract_x
_atom_site_fract_y
_atom_site_fract_z
Si Si1 0.189476 0.325924 0.216153
Si Si2 0.196059 0.328355 0.686271
Si Si3 0.500000 0.918076 0.450077
Si Si4 0.812898 0.080730 0.392612
Si Si5 0.685940 0.674135 0.873669
Si Si6 0.690994 0.920669 0.949250
O O1 0.250000 0.250000 0.204503
O O2 0.261622 0.350845 0.263941
O O3 0.232984 0.365118 0.169902
O O4 0.000000 0.326739 0.225363
O O5 0.250000 0.250000 0.676338
O O6 0.291806 0.378962 0.653450
O O7 0.000000 0.336357 0.680004
O O8 0.500000 0.886850 0.500000
O O9 0.330399 0.892712 0.426372
O O10 0.500000 0.000000 0.451988
O O11 0.000000 0.094041 0.411204
O O12 0.787385 0.000000 0.382818
O O13 0.500000 0.683012 0.859979
O O14 0.750000 0.750000 0.886129
O O15 0.703140 0.626199 0.916629
O O16 0.500000 0.908450 0.939032
O O17 0.739183 0.000000 0.941216
O O18 0.732293 0.899469 0.000000
#
# Coordination Sequence:
#
# PCOD8268778 Si02
#       6
#    16  16   8  16  16  16
#     4   9  17  30  49  73 103 136 173 213 256 305
#     4  10  19  32  53  80 107 141 180 220 262 318
#     4   9  18  34  56  80 108 142 181 225 270 322
#     4  10  20  34  54  81 111 142 179 226 272 316
#     4  11  21  33  52  76 104 135 167 212 257 302
#     4   9  19  37  58  76  97 128 166 208 256 313
#
# _framework density 18.689435
#
# number of rings (size 3 to 8) (size 9 to 14) (size 15 to 20)
#    0.000    2.273    0.909    4.364    0.000    3.636 
#    0.000    3.636    0.000    1.636    0.000    0.000 
#    0.000    0.000    0.000    0.000    0.000    0.000 
#
# Total GULP energy -545141.299286 kJ/mol
# GULP energy per Si atom -12389.574984 kJ/mol
# Density = 1.864690 g / cm^3
# Si number density = 18.689435 Si / 1000 Ang^3
#
#
#
# Elastic Constant Matrix: (Units=GPa)
#
#
# Indices 1 2 3 4 5 6 
#
# 1 94.3267 23.4906 44.0823 0.0000 0.0000 0.0000
# 2 23.4906 45.8078 44.7796 0.0000 0.0000 0.0000
# 3 44.0823 44.7796 141.6455 0.0000 0.0000 0.0000
# 4 0.0000 0.0000 0.0000 46.6110 0.0000 0.0000
# 5 0.0000 0.0000 0.0000 0.0000 26.2360 0.0000
# 6 0.0000 0.0000 0.0000 0.0000 0.0000 23.0045
#
#
#
# Elastic Compliance Matrix: (Units=1/GPa)
#
#
# Indices 1 2 3 4 5 6 
#
# 1 0.012866 -0.003884 -0.002776 0.000000 0.000000 0.000000
# 2 -0.003884 0.032767 -0.009150 0.000000 0.000000 0.000000
# 3 -0.002776 -0.009150 0.010817 0.000000 0.000000 0.000000
# 4 0.000000 0.000000 0.000000 0.021454 0.000000 0.000000
# 5 0.000000 0.000000 0.000000 0.000000 0.038116 0.000000
# 6 0.000000 0.000000 0.000000 0.000000 0.000000 0.043470
#
#
# Mechanical properties :
#
#
# Convention : Reuss Voigt Hill
#
# Bulk Modulus (GPa) = 40.27557 56.27612 48.27584
# Shear Modulus (GPa) = 25.07698 30.46546 27.77122
#
# Velocity S-wave (km/s) = 3.66700 4.04182 3.85896
# Velocity P-wave (km/s) = 6.28696 7.20821 6.76329
#
# Compressibility (1/GPa) = 0.02482895
#
# Stress axis : x y z
#
# Youngs Moduli (GPa) = 77.72344 30.51867 92.45027
#
# Poissons Ratio (x) = 0.11853 0.25667
# Poissons Ratio (y) = 0.30187 0.84593
# Poissons Ratio (z) = 0.21578 0.27925
#
# Static dielectric constant tensor:
#      x y z
#    x 3.565330 0.000000 0.000000 
#    y 0.000000 2.997060 0.000000 
#    z 0.000000 0.000000 3.683520 
# 
# 
# High freq. dielectric constant tensor:
#      x y z
#    x 1.737450 0.000000 0.000000 
#    y 0.000000 1.680990 0.000000 
#    z 0.000000 0.000000 1.738370 
# 
# From -- ./inp_files/76486.got.cif
#   From: 2010.03.12/outbox.cif.g09.slc.cpg/sg65_39_cif.got.tgz:76486.got - 2010.04.10 20:52:16.
