data_PCOD8268380
_publ_section_title
;
Structure prediction by ZEFSAII (Michael W. Deem and Ramdas Pophale) SiO2 
 PCOD8268380
Probable space group: C M M M
;
_chemical_formula_sum "Si O2"
_cell_formula_units_Z 88
_cell_length_a 8.734805
_cell_length_b 28.827269
_cell_length_c 20.918485
_cell_angle_alpha 90.000000
_cell_angle_beta 90.000000
_cell_angle_gamma 90.000000
_cell_volume 5267.286518
_symmetry_space_group_name_H-M "C M M M"
_symmetry_group_IT_number 65
_symmetry_cell_setting 'orthorhombic'
loop_
_space_group_symop_operation_xyz
x,y,z
-x,-y,z
x,-y,-z
-x,y,-z
-x,-y,-z
x,y,-z
-x,y,z
x,-y,z
1/2+x,1/2+y,z
1/2-x,1/2-y,z
1/2+x,1/2-y,-z
1/2-x,1/2+y,-z
1/2-x,1/2-y,-z
1/2+x,1/2+y,-z
1/2-x,1/2+y,z
1/2+x,1/2-y,z
loop_
_atom_site_type_symbol
_atom_site_label
_atom_site_fract_x
_atom_site_fract_y
_atom_site_fract_z
Si Si1 0.818623 0.698865 0.793781
Si Si2 0.320802 0.800083 0.067407
Si Si3 0.329334 0.554692 0.500000
Si Si4 0.180404 0.553189 0.631478
Si Si5 0.319201 0.360560 0.681660
Si Si6 0.320317 0.799255 0.426396
O O1 0.750000 0.750000 0.784424
O O2 0.774435 0.677339 0.864297
O O3 0.746284 0.664336 0.743498
O O4 0.000000 0.701725 0.783147
O O5 0.500000 0.793036 0.068271
O O6 0.250000 0.750000 0.065280
O O7 0.273393 0.826511 0.000000
O O8 0.344530 0.500000 0.500000
O O9 0.500000 0.576978 0.500000
O O10 0.235513 0.570439 0.561972
O O11 0.227901 0.500000 0.645148
O O12 0.263102 0.585904 0.683464
O O13 0.000000 0.559849 0.635596
O O14 0.500000 0.357942 0.682779
O O15 0.256394 0.338117 0.616830
O O16 0.283398 0.811254 0.500000
O O17 0.500000 0.797514 0.412868
O O18 0.250000 0.750000 0.406905
#
# Coordination Sequence:
#
# PCOD8268380 Si02
#       6
#    16  16   8  16  16  16
#     4  10  19  32  49  70 100 133 167 202 238 282
#     4   8  14  25  43  67  94 126 161 196 233 274
#     4   9  17  31  51  73  94 115 142 181 233 289
#     4  10  21  37  55  73  94 120 153 196 246 297
#     4  12  24  35  50  70  96 127 162 200 241 291
#     4  10  21  37  54  70  91 120 158 202 245 288
#
# _framework density 16.706893999999998
#
# number of rings (size 3 to 8) (size 9 to 14) (size 15 to 20)
#    0.000    2.091    0.000    4.091    1.273    4.000 
#    0.000    0.000    0.000    0.000    0.000    0.000 
#    0.000    0.727    0.000    8.364    0.000    2.364 
#
# Total GULP energy -545224.419479 kJ/mol
# GULP energy per Si atom -12391.464079 kJ/mol
# Density = 1.666887 g / cm^3
# Si number density = 16.706894 Si / 1000 Ang^3
#
#
#
# Elastic Constant Matrix: (Units=GPa)
#
#
# Indices 1 2 3 4 5 6 
#
# 1 96.2818 41.1045 52.5071 0.0000 0.0000 0.0000
# 2 41.1045 80.6866 63.7997 0.0000 0.0000 0.0000
# 3 52.5071 63.7997 129.9341 0.0000 0.0000 0.0000
# 4 0.0000 0.0000 0.0000 4.6753 0.0000 0.0000
# 5 0.0000 0.0000 0.0000 0.0000 14.4078 0.0000
# 6 0.0000 0.0000 0.0000 0.0000 0.0000 25.0382
#
#
#
# Elastic Compliance Matrix: (Units=1/GPa)
#
#
# Indices 1 2 3 4 5 6 
#
# 1 0.014223 -0.004415 -0.003580 0.000000 0.000000 0.000000
# 2 -0.004415 0.021630 -0.008836 0.000000 0.000000 0.000000
# 3 -0.003580 -0.008836 0.013482 0.000000 0.000000 0.000000
# 4 0.000000 0.000000 0.000000 0.213891 0.000000 0.000000
# 5 0.000000 0.000000 0.000000 0.000000 0.069407 0.000000
# 6 0.000000 0.000000 0.000000 0.000000 0.000000 0.039939
#
#
# Mechanical properties :
#
#
# Convention : Reuss Voigt Hill
#
# Bulk Modulus (GPa) = 63.80802 69.08056 66.44429
# Shear Modulus (GPa) = 12.15188 18.79034 15.47111
#
# Velocity S-wave (km/s) = 2.69988 3.35730 3.04638
# Velocity P-wave (km/s) = 6.92782 7.51445 7.22709
#
# Compressibility (1/GPa) = 0.01567201
#
# Stress axis : x y z
#
# Youngs Moduli (GPa) = 70.30682 46.23214 74.17507
#
# Poissons Ratio (x) = 0.20413 0.26553
# Poissons Ratio (y) = 0.31043 0.65544
# Poissons Ratio (z) = 0.25168 0.40853
#
# Static dielectric constant tensor:
#      x y z
#    x 3.214580 0.000000 0.000000 
#    y 0.000000 2.957400 0.000000 
#    z 0.000000 0.000000 3.697550 
# 
# 
# High freq. dielectric constant tensor:
#      x y z
#    x 1.661880 0.000000 0.000000 
#    y 0.000000 1.608200 0.000000 
#    z 0.000000 0.000000 1.642300 
# 
# From -- ./inp_files/60691.got.cif
#   From: 2010.03.12/outbox.cif.g09.slc.cpg/sg65_31_cif.got.tgz:60691.got - 2010.04.10 20:52:16.
