data_PCOD8268519
_publ_section_title
;
Structure prediction by ZEFSAII (Michael W. Deem and Ramdas Pophale) SiO2 
 PCOD8268519
Probable space group: C M M M
;
_chemical_formula_sum "Si O2"
_cell_formula_units_Z 112
_cell_length_a 17.052852
_cell_length_b 17.859294
_cell_length_c 20.433596
_cell_angle_alpha 90.000000
_cell_angle_beta 90.000000
_cell_angle_gamma 90.000000
_cell_volume 6223.090433
_symmetry_space_group_name_H-M "C M M M"
_symmetry_group_IT_number 65
_symmetry_cell_setting 'orthorhombic'
loop_
_space_group_symop_operation_xyz
x,y,z
-x,-y,z
x,-y,-z
-x,y,-z
-x,-y,-z
x,y,-z
-x,y,z
x,-y,z
1/2+x,1/2+y,z
1/2-x,1/2-y,z
1/2+x,1/2-y,-z
1/2-x,1/2+y,-z
1/2-x,1/2-y,-z
1/2+x,1/2+y,-z
1/2-x,1/2+y,z
1/2+x,1/2-y,z
loop_
_atom_site_type_symbol
_atom_site_label
_atom_site_fract_x
_atom_site_fract_y
_atom_site_fract_z
Si Si1 0.684304 0.188625 0.827520
Si Si2 0.592092 0.420542 0.600639
Si Si3 0.088659 0.712887 0.709512
Si Si4 0.093100 0.759915 0.570918
Si Si5 0.912689 0.884772 0.745256
Si Si6 0.687620 0.584448 0.868103
Si Si7 0.590196 0.286797 0.925507
O O1 0.750000 0.250000 0.811074
O O2 0.642415 0.164360 0.758902
O O3 0.723978 0.115845 0.860004
O O4 0.621822 0.221410 0.878839
O O5 0.500000 0.418181 0.587474
O O6 0.625484 0.500000 0.571673
O O7 0.628559 0.344853 0.569539
O O8 0.610430 0.422082 0.677283
O O9 0.123533 0.713385 0.634374
O O10 0.091048 0.795542 0.739546
O O11 0.000000 0.680984 0.709201
O O12 0.114551 0.722681 0.500000
O O13 0.000000 0.765906 0.580565
O O14 0.851981 0.915351 0.797314
O O15 0.000000 0.909023 0.766564
O O16 0.691694 0.500000 0.895896
O O17 0.637978 0.636007 0.917406
O O18 0.500000 0.302396 0.907187
O O19 0.599480 0.259474 0.000000
#
# Coordination Sequence:
#
# PCOD8268519 Si02
#       7
#    16  16  16  16  16  16  16
#     4  10  19  32  51  73  98 132 168 203 239 293
#     4   8  13  19  29  49  80 119 156 186 225 281
#     4   9  15  27  48  68  88 121 165 208 246 287
#     4   8  14  22  34  57  87 115 150 203 256 292
#     4   9  15  25  42  66  93 121 158 200 240 283
#     4  11  22  32  47  75 107 134 158 196 251 299
#     4  10  21  37  57  78  99 129 170 208 239 280
#
# _framework density 17.997488000000001
#
# number of rings (size 3 to 8) (size 9 to 14) (size 15 to 20)
#    0.000    2.714    2.857    3.000    0.000    4.857 
#    0.000    2.143    0.000    2.143    0.000    1.000 
#    0.000    0.571    0.000    3.571    0.000    0.000 
#
# Total GULP energy -693761.408814 kJ/mol
# GULP energy per Si atom -12388.596586 kJ/mol
# Density = 1.795653 g / cm^3
# Si number density = 17.997488 Si / 1000 Ang^3
#
#
#
# Elastic Constant Matrix: (Units=GPa)
#
#
# Indices 1 2 3 4 5 6 
#
# 1 64.6043 22.9023 41.0839 0.0000 0.0000 0.0000
# 2 22.9023 40.7255 18.1469 0.0000 0.0000 0.0000
# 3 41.0839 18.1469 113.2030 0.0000 0.0000 0.0000
# 4 0.0000 0.0000 0.0000 5.4528 0.0000 0.0000
# 5 0.0000 0.0000 0.0000 0.0000 8.3001 0.0000
# 6 0.0000 0.0000 0.0000 0.0000 0.0000 12.0027
#
#
#
# Elastic Compliance Matrix: (Units=1/GPa)
#
#
# Indices 1 2 3 4 5 6 
#
# 1 0.023444 -0.010115 -0.006887 0.000000 0.000000 0.000000
# 2 -0.010115 0.030808 -0.001268 0.000000 0.000000 0.000000
# 3 -0.006887 -0.001268 0.011536 0.000000 0.000000 0.000000
# 4 0.000000 0.000000 0.000000 0.183391 0.000000 0.000000
# 5 0.000000 0.000000 0.000000 0.000000 0.120480 0.000000
# 6 0.000000 0.000000 0.000000 0.000000 0.000000 0.083314
#
#
# Mechanical properties :
#
#
# Convention : Reuss Voigt Hill
#
# Bulk Modulus (GPa) = 34.18937 42.53324 38.36130
# Shear Modulus (GPa) = 10.01476 14.24445 12.12960
#
# Velocity S-wave (km/s) = 2.36148 2.81636 2.59889
# Velocity P-wave (km/s) = 5.14524 5.85320 5.51060
#
# Compressibility (1/GPa) = 0.02924886
#
# Stress axis : x y z
#
# Youngs Moduli (GPa) = 42.65414 32.45926 86.68281
#
# Poissons Ratio (x) = 0.32834 0.59698
# Poissons Ratio (y) = 0.43146 0.10987
# Poissons Ratio (z) = 0.29376 0.04114
#
# Static dielectric constant tensor:
#      x y z
#    x 3.184690 0.000000 0.000000 
#    y 0.000000 3.083440 0.000000 
#    z 0.000000 0.000000 3.485340 
# 
# 
# High freq. dielectric constant tensor:
#      x y z
#    x 1.658300 0.000000 0.000000 
#    y 0.000000 1.647690 0.000000 
#    z 0.000000 0.000000 1.708560 
# 
# From -- ./inp_files/63935.got.cif
#   From: 2010.03.12/outbox.cif.g09.slc.cpg/sg65_32_cif.got.tgz:63935.got - 2010.04.10 20:52:16.
