data_PCOD8268313
_publ_section_title
;
Structure prediction by ZEFSAII (Michael W. Deem and Ramdas Pophale) SiO2 
 PCOD8268313
Probable space group: C M M M
;
_chemical_formula_sum "Si O2"
_cell_formula_units_Z 76
_cell_length_a 10.651872
_cell_length_b 33.413059
_cell_length_c 11.561878
_cell_angle_alpha 90.000000
_cell_angle_beta 90.000000
_cell_angle_gamma 90.000000
_cell_volume 4115.006817
_symmetry_space_group_name_H-M "C M M M"
_symmetry_group_IT_number 65
_symmetry_cell_setting 'orthorhombic'
loop_
_space_group_symop_operation_xyz
x,y,z
-x,-y,z
x,-y,-z
-x,y,-z
-x,-y,-z
x,y,-z
-x,y,z
x,-y,z
1/2+x,1/2+y,z
1/2-x,1/2-y,z
1/2+x,1/2-y,-z
1/2-x,1/2+y,-z
1/2-x,1/2-y,-z
1/2+x,1/2+y,-z
1/2-x,1/2+y,z
1/2+x,1/2-y,z
loop_
_atom_site_type_symbol
_atom_site_label
_atom_site_fract_x
_atom_site_fract_y
_atom_site_fract_z
Si Si1 0.000000 0.953960 0.862747
Si Si2 0.864195 0.085365 0.500000
Si Si3 0.242930 0.080104 0.748916
Si Si4 0.140445 0.500000 0.290858
Si Si5 0.000000 0.713529 0.862726
Si Si6 0.234391 0.338773 0.862653
Si Si7 0.000000 0.803597 0.137565
Si Si8 0.674963 0.500000 0.500000
O O1 0.114984 0.930075 0.812003
O O2 0.000000 0.000000 0.820092
O O3 0.000000 0.951290 0.000000
O O4 0.779846 0.092570 0.385740
O O5 0.000000 0.108801 0.500000
O O6 0.909403 0.039147 0.500000
O O7 0.303261 0.118533 0.809546
O O8 0.334481 0.042088 0.774893
O O9 0.237916 0.500000 0.391072
O O10 0.000000 0.500000 0.337363
O O11 0.872741 0.691940 0.819150
O O12 0.000000 0.758484 0.812822
O O13 0.000000 0.714492 0.000000
O O14 0.373037 0.325434 0.818006
O O15 0.233591 0.341995 0.000000
O O16 0.000000 0.802675 0.000000
#
# Coordination Sequence:
#
# PCOD8268313 Si02
#       8
#     8   8  16   8   8  16   8   4
#     4  11  21  34  51  72 101 136 174 217 264 313
#     4  10  19  31  53  78 104 129 170 229 275 304
#     4  11  21  35  53  78 104 140 179 219 264 310
#     4  10  21  34  50  69 102 143 183 224 255 297
#     4   9  18  33  54  80 109 140 173 215 268 324
#     4  10  20  33  53  80 111 142 174 217 265 323
#     4   9  17  32  54  81 107 134 172 219 273 322
#     4   8  18  32  52  72  90 129 179 228 278 304
#
# _framework density 18.468985
#
# number of rings (size 3 to 8) (size 9 to 14) (size 15 to 20)
#    0.000    2.000    2.105    2.211    1.474    3.368 
#    0.000    0.000    0.000    2.526    0.000    4.421 
#    0.000    0.000    0.000    0.000    0.000    0.000 
#
# Total GULP energy -470850.465638 kJ/mol
# GULP energy per Si atom -12390.801727 kJ/mol
# Density = 1.842695 g / cm^3
# Si number density = 18.468985 Si / 1000 Ang^3
#
#
#
# Elastic Constant Matrix: (Units=GPa)
#
#
# Indices 1 2 3 4 5 6 
#
# 1 104.4118 33.7862 13.2025 0.0000 0.0000 0.0000
# 2 33.7862 126.6396 20.8663 0.0000 0.0000 0.0000
# 3 13.2025 20.8663 43.9412 0.0000 0.0000 0.0000
# 4 0.0000 0.0000 0.0000 12.1082 0.0000 0.0000
# 5 0.0000 0.0000 0.0000 0.0000 -22.4324 0.0000
# 6 0.0000 0.0000 0.0000 0.0000 0.0000 23.1881
#
#
#
# Elastic Compliance Matrix: (Units=1/GPa)
#
#
# Indices 1 2 3 4 5 6 
#
# 1 0.010643 -0.002509 -0.002006 0.000000 0.000000 0.000000
# 2 -0.002509 0.009158 -0.003595 0.000000 0.000000 0.000000
# 3 -0.002006 -0.003595 0.025068 0.000000 0.000000 0.000000
# 4 0.000000 0.000000 0.000000 0.082589 0.000000 0.000000
# 5 0.000000 0.000000 0.000000 0.000000 -0.044578 0.000000
# 6 0.000000 0.000000 0.000000 0.000000 0.000000 0.043125
#
#
# Mechanical properties :
#
#
# Convention : Reuss Voigt Hill
#
# Bulk Modulus (GPa) = 34.90625 45.63361 40.26993
# Shear Modulus (GPa) = 32.94355 16.38197 24.66276
#
# Velocity S-wave (km/s) = 4.22800 2.98148 3.65822
# Velocity P-wave (km/s) = 6.54030 6.05097 6.30039
#
# Compressibility (1/GPa) = 0.02864816
#
# Stress axis : x y z
#
# Youngs Moduli (GPa) = 93.95857 109.19268 39.89190
#
# Poissons Ratio (x) = 0.27395 0.08004
# Poissons Ratio (y) = 0.23573 0.14342
# Poissons Ratio (z) = 0.18852 0.39256
#
# Static dielectric constant tensor:
#      x y z
#    x 3.569730 0.000000 0.000000 
#    y 0.000000 3.697620 0.000000 
#    z 0.000000 0.000000 3.127680 
# 
# 
# High freq. dielectric constant tensor:
#      x y z
#    x 1.722300 0.000000 0.000000 
#    y 0.000000 1.716900 0.000000 
#    z 0.000000 0.000000 1.674370 
# 
# From -- ./inp_files/22984.got.cif
#   From: 2010.03.12/outbox.cif.g09.slc.cpg/sg65_12_cif.got.tgz:22984.got - 2010.04.10 20:52:16.
