data_PCOD8268703
_publ_section_title
;
Structure prediction by ZEFSAII (Michael W. Deem and Ramdas Pophale) SiO2 
 PCOD8268703
Probable space group: C M M M
;
_chemical_formula_sum "Si O2"
_cell_formula_units_Z 88
_cell_length_a 20.568498
_cell_length_b 13.490780
_cell_length_c 15.435405
_cell_angle_alpha 90.000000
_cell_angle_beta 90.000000
_cell_angle_gamma 90.000000
_cell_volume 4283.094614
_symmetry_space_group_name_H-M "C M M M"
_symmetry_group_IT_number 65
_symmetry_cell_setting 'orthorhombic'
loop_
_space_group_symop_operation_xyz
x,y,z
-x,-y,z
x,-y,-z
-x,y,-z
-x,-y,-z
x,y,-z
-x,y,z
x,-y,z
1/2+x,1/2+y,z
1/2-x,1/2-y,z
1/2+x,1/2-y,-z
1/2-x,1/2+y,-z
1/2-x,1/2-y,-z
1/2+x,1/2+y,-z
1/2-x,1/2+y,z
1/2+x,1/2-y,z
loop_
_atom_site_type_symbol
_atom_site_label
_atom_site_fract_x
_atom_site_fract_y
_atom_site_fract_z
Si Si1 0.641662 0.886334 0.095415
Si Si2 0.804696 0.116777 0.700998
Si Si3 0.250000 0.750000 0.844754
Si Si4 0.822997 0.383045 0.403491
Si Si5 0.428075 0.882415 0.267867
Si Si6 0.071816 0.117339 0.596487
O O1 0.705396 0.818353 0.095332
O O2 0.593010 0.850618 0.170881
O O3 0.662875 0.000000 0.112975
O O4 0.608721 0.876542 0.000000
O O5 0.795089 0.177103 0.788569
O O6 0.747183 0.144769 0.634557
O O7 0.872038 0.156370 0.660078
O O8 0.805358 0.000000 0.721790
O O9 0.830304 0.337771 0.500000
O O10 0.830596 0.500000 0.408080
O O11 0.878914 0.338817 0.340292
O O12 0.500000 0.839427 0.286004
O O13 0.428813 0.000000 0.274057
O O14 0.082241 0.161184 0.500000
O O15 0.000000 0.147760 0.631477
O O16 0.077729 0.000000 0.590983
#
# Coordination Sequence:
#
# PCOD8268703 Si02
#       6
#    16  16   8  16  16  16
#     4  10  21  38  59  82 108 137 175 224 274 327
#     4  10  19  32  52  77 108 144 184 225 267 317
#     4  12  21  34  55  82 106 142 173 220 271 330
#     4   9  16  28  48  74 106 146 186 220 259 308
#     4   9  17  31  52  78 107 140 179 222 268 317
#     4   8  14  27  49  75 102 138 186 234 275 314
#
# _framework density 20.545893
#
# number of rings (size 3 to 8) (size 9 to 14) (size 15 to 20)
#    0.000    2.545    1.818    1.909    0.000    2.909 
#    0.000    6.364    0.000    0.000    0.000    0.000 
#    0.000    0.000    0.000   16.364    0.000    0.364 
#
# Total GULP energy -545406.011920 kJ/mol
# GULP energy per Si atom -12395.591180 kJ/mol
# Density = 2.049913 g / cm^3
# Si number density = 20.545893 Si / 1000 Ang^3
#
#
#
# Elastic Constant Matrix: (Units=GPa)
#
#
# Indices 1 2 3 4 5 6 
#
# 1 151.9464 9.1075 48.0839 0.0000 0.0000 0.0000
# 2 9.1075 50.4169 14.2360 0.0000 0.0000 0.0000
# 3 48.0839 14.2360 123.1833 0.0000 0.0000 0.0000
# 4 0.0000 0.0000 0.0000 7.8344 0.0000 0.0000
# 5 0.0000 0.0000 0.0000 0.0000 21.4771 0.0000
# 6 0.0000 0.0000 0.0000 0.0000 0.0000 -2.1190
#
#
#
# Elastic Compliance Matrix: (Units=1/GPa)
#
#
# Indices 1 2 3 4 5 6 
#
# 1 0.007523 -0.000548 -0.002873 0.000000 0.000000 0.000000
# 2 -0.000548 0.020544 -0.002160 0.000000 0.000000 0.000000
# 3 -0.002873 -0.002160 0.009489 0.000000 0.000000 0.000000
# 4 0.000000 0.000000 0.000000 0.127642 0.000000 0.000000
# 5 0.000000 0.000000 0.000000 0.000000 0.046561 0.000000
# 6 0.000000 0.000000 0.000000 0.000000 0.000000 -0.471924
#
#
# Mechanical properties :
#
#
# Convention : Reuss Voigt Hill
#
# Bulk Modulus (GPa) = 37.88847 52.04459 44.96653
# Shear Modulus (GPa) = -20.81560 22.37979 0.78209
#
# Velocity S-wave (km/s) = -3.18642 3.30397 0.61764
# Velocity P-wave (km/s) = 2.22334 6.31988 4.73730
#
# Compressibility (1/GPa) = 0.02639325
#
# Stress axis : x y z
#
# Youngs Moduli (GPa) = 132.91863 48.67700 105.38207
#
# Poissons Ratio (x) = 0.02666 0.30281
# Poissons Ratio (y) = 0.07280 0.22767
# Poissons Ratio (z) = 0.38193 0.10516
#
# Static dielectric constant tensor:
#      x y z
#    x 3.919620 0.000000 0.000000 
#    y 0.000000 3.583640 0.000000 
#    z 0.000000 0.000000 3.721160 
# 
# 
# High freq. dielectric constant tensor:
#      x y z
#    x 1.796530 0.000000 0.000000 
#    y 0.000000 1.801060 0.000000 
#    z 0.000000 0.000000 1.789310 
# 
# From -- ./inp_files/43969.got.cif
#   From: 2010.03.12/outbox.cif.g09.slc.cpg/sg65_22_cif.got.tgz:43969.got - 2010.04.10 20:52:16.
