data_PCOD8268648
_publ_section_title
;
Structure prediction by ZEFSAII (Michael W. Deem and Ramdas Pophale) SiO2 
 PCOD8268648
Probable space group: C M M M
;
_chemical_formula_sum "Si O2"
_cell_formula_units_Z 104
_cell_length_a 14.794742
_cell_length_b 18.396186
_cell_length_c 20.862173
_cell_angle_alpha 90.000000
_cell_angle_beta 90.000000
_cell_angle_gamma 90.000000
_cell_volume 5677.991402
_symmetry_space_group_name_H-M "C M M M"
_symmetry_group_IT_number 65
_symmetry_cell_setting 'orthorhombic'
loop_
_space_group_symop_operation_xyz
x,y,z
-x,-y,z
x,-y,-z
-x,y,-z
-x,-y,-z
x,y,-z
-x,y,z
x,-y,z
1/2+x,1/2+y,z
1/2-x,1/2-y,z
1/2+x,1/2-y,-z
1/2-x,1/2+y,-z
1/2-x,1/2-y,-z
1/2+x,1/2+y,-z
1/2-x,1/2+y,z
1/2+x,1/2-y,z
loop_
_atom_site_type_symbol
_atom_site_label
_atom_site_fract_x
_atom_site_fract_y
_atom_site_fract_z
Si Si1 0.603186 0.347586 0.074915
Si Si2 0.396223 0.201858 0.700062
Si Si3 0.744152 0.081332 0.710525
Si Si4 0.238897 0.418754 0.141495
Si Si5 0.605371 0.648547 0.366573
Si Si6 0.606266 0.582493 0.500000
Si Si7 0.103515 0.704716 0.151447
O O1 0.500000 0.370122 0.091291
O O2 0.670968 0.409753 0.098915
O O3 0.632070 0.274690 0.111392
O O4 0.615422 0.334292 0.000000
O O5 0.500000 0.178006 0.689916
O O6 0.332226 0.134614 0.681596
O O7 0.370952 0.268716 0.653397
O O8 0.378280 0.223291 0.774003
O O9 0.763212 0.094272 0.784852
O O10 0.840499 0.093334 0.677883
O O11 0.709555 0.000000 0.696892
O O12 0.201876 0.500000 0.129603
O O13 0.160501 0.362300 0.123204
O O14 0.500000 0.632900 0.355448
O O15 0.636160 0.630690 0.439034
O O16 0.648555 0.500000 0.500000
O O17 0.500000 0.572873 0.500000
O O18 0.000000 0.683436 0.140000
#
# Coordination Sequence:
#
# PCOD8268648 Si02
#       7
#    16  16  16  16  16   8  16
#     4  10  21  36  53  72  96 130 169 205 245 297
#     4   9  18  33  53  75 100 131 166 205 246 290
#     4  10  20  33  50  74 104 134 164 201 246 297
#     4  10  21  34  50  75 103 131 163 201 248 298
#     4  10  19  32  52  76 101 130 165 206 250 293
#     4   9  18  32  49  72 104 138 169 203 248 300
#     4   9  18  34  55  76  98 127 165 207 248 292
#
# _framework density 18.316336
#
# number of rings (size 3 to 8) (size 9 to 14) (size 15 to 20)
#    0.000    2.385    0.000    2.308    0.000    7.692 
#    0.000    6.923    0.000    0.000    0.000    3.231 
#    0.000    4.923    0.000    0.000    0.000    0.000 
#
# Total GULP energy -644783.286877 kJ/mol
# GULP energy per Si atom -12399.678594 kJ/mol
# Density = 1.827465 g / cm^3
# Si number density = 18.316336 Si / 1000 Ang^3
#
#
#
# Elastic Constant Matrix: (Units=GPa)
#
#
# Indices 1 2 3 4 5 6 
#
# 1 67.0946 45.2435 33.0620 0.0000 0.0000 0.0000
# 2 45.2435 107.7175 50.3296 0.0000 0.0000 0.0000
# 3 33.0620 50.3296 66.7430 0.0000 0.0000 0.0000
# 4 0.0000 0.0000 0.0000 3.6323 0.0000 0.0000
# 5 0.0000 0.0000 0.0000 0.0000 20.6248 0.0000
# 6 0.0000 0.0000 0.0000 0.0000 0.0000 24.2225
#
#
#
# Elastic Compliance Matrix: (Units=1/GPa)
#
#
# Indices 1 2 3 4 5 6 
#
# 1 0.022320 -0.006498 -0.006156 0.000000 0.000000 0.000000
# 2 -0.006498 0.016226 -0.009016 0.000000 0.000000 0.000000
# 3 -0.006156 -0.009016 0.024831 0.000000 0.000000 0.000000
# 4 0.000000 0.000000 0.000000 0.275305 0.000000 0.000000
# 5 0.000000 0.000000 0.000000 0.000000 0.048485 0.000000
# 6 0.000000 0.000000 0.000000 0.000000 0.000000 0.041284
#
#
# Mechanical properties :
#
#
# Convention : Reuss Voigt Hill
#
# Bulk Modulus (GPa) = 49.91224 55.42504 52.66864
# Shear Modulus (GPa) = 10.44994 17.22393 13.83693
#
# Velocity S-wave (km/s) = 2.39116 3.06985 2.75151
# Velocity P-wave (km/s) = 5.91040 6.54912 6.23794
#
# Compressibility (1/GPa) = 0.02003517
#
# Stress axis : x y z
#
# Youngs Moduli (GPa) = 44.80297 61.63002 40.27143
#
# Poissons Ratio (x) = 0.40050 0.24792
# Poissons Ratio (y) = 0.29115 0.36311
# Poissons Ratio (z) = 0.27581 0.55569
#
# Static dielectric constant tensor:
#      x y z
#    x 3.397240 0.000000 0.000000 
#    y 0.000000 3.444090 0.000000 
#    z 0.000000 0.000000 3.389300 
# 
# 
# High freq. dielectric constant tensor:
#      x y z
#    x 1.707500 0.000000 0.000000 
#    y 0.000000 1.709810 0.000000 
#    z 0.000000 0.000000 1.697400 
# 
# From -- ./inp_files/62817.got.cif
#   From: 2010.03.12/outbox.cif.g09.slc.cpg/sg65_32_cif.got.tgz:62817.got - 2010.04.10 20:52:16.
