data_PCOD8268908
_publ_section_title
;
Structure prediction by ZEFSAII (Michael W. Deem and Ramdas Pophale) SiO2 
 PCOD8268908
Probable space group: C M M M
;
_chemical_formula_sum "Si O2"
_cell_formula_units_Z 120
_cell_length_a 8.828495
_cell_length_b 27.638331
_cell_length_c 25.966642
_cell_angle_alpha 90.000000
_cell_angle_beta 90.000000
_cell_angle_gamma 90.000000
_cell_volume 6335.987029
_symmetry_space_group_name_H-M "C M M M"
_symmetry_group_IT_number 65
_symmetry_cell_setting 'orthorhombic'
loop_
_space_group_symop_operation_xyz
x,y,z
-x,-y,z
x,-y,-z
-x,y,-z
-x,-y,-z
x,y,-z
-x,y,z
x,-y,z
1/2+x,1/2+y,z
1/2-x,1/2-y,z
1/2+x,1/2-y,-z
1/2-x,1/2+y,-z
1/2-x,1/2-y,-z
1/2+x,1/2+y,-z
1/2-x,1/2+y,z
1/2+x,1/2-y,z
loop_
_atom_site_type_symbol
_atom_site_label
_atom_site_fract_x
_atom_site_fract_y
_atom_site_fract_z
Si Si1 0.672845 0.107641 0.746694
Si Si2 0.821410 0.945245 0.160957
Si Si3 0.826059 0.298258 0.189302
Si Si4 0.179577 0.300458 0.441715
Si Si5 0.820093 0.695905 0.000000
Si Si6 0.821033 0.147642 0.098221
Si Si7 0.167296 0.943361 0.443801
Si Si8 0.676535 0.883025 0.633099
O O1 0.500000 0.089673 0.744676
O O2 0.758426 0.069937 0.783373
O O3 0.684371 0.162136 0.766543
O O4 0.748521 0.109549 0.689854
O O5 0.770249 0.906597 0.116896
O O6 0.000000 0.943720 0.165749
O O7 0.766356 0.000000 0.146858
O O8 0.750000 0.250000 0.212013
O O9 0.724476 0.313657 0.141034
O O10 0.000000 0.289897 0.172138
O O11 0.230147 0.314432 0.500000
O O12 0.250000 0.250000 0.424950
O O13 0.245017 0.338606 0.400129
O O14 0.000000 0.297372 0.438520
O O15 0.750000 0.750000 0.000000
O O16 0.768556 0.663219 0.952259
O O17 0.000000 0.701990 0.000000
O O18 0.000000 0.149924 0.087818
O O19 0.218744 0.923412 0.500000
O O20 0.288974 0.930225 0.400441
O O21 0.000000 0.922720 0.430077
O O22 0.158826 0.000000 0.446405
O O23 0.500000 0.875160 0.640871
#
# Coordination Sequence:
#
# PCOD8268908 Si02
#       8
#    16  16  16  16   8  16  16  16
#     4   9  20  35  50  73 104 135 169 211 258 310
#     4   9  19  37  60  82 105 138 180 223 264 307
#     4  10  19  33  52  74 103 139 177 215 258 306
#     4   9  18  32  49  69  94 126 165 208 253 305
#     4  12  24  38  57  84 119 153 184 219 263 310
#     4  10  20  36  57  82 111 143 182 222 261 308
#     4   9  19  35  52  71  96 125 158 198 247 304
#     4  10  20  34  51  73 101 131 165 207 255 306
#
# _framework density 18.939433999999999
#
# number of rings (size 3 to 8) (size 9 to 14) (size 15 to 20)
#    0.000    2.400    0.000    2.600    0.000    4.533 
#    0.000    5.000    0.000    2.000    0.000    0.000 
#    0.000    0.000    0.000    0.000    0.000    0.000 
#
# Total GULP energy -743689.128677 kJ/mol
# GULP energy per Si atom -12394.818811 kJ/mol
# Density = 1.889633 g / cm^3
# Si number density = 18.939434 Si / 1000 Ang^3
#
#
#
# Elastic Constant Matrix: (Units=GPa)
#
#
# Indices 1 2 3 4 5 6 
#
# 1 46.3884 35.7880 33.2485 0.0000 0.0000 0.0000
# 2 35.7880 113.1859 55.2396 0.0000 0.0000 0.0000
# 3 33.2485 55.2396 140.0162 0.0000 0.0000 0.0000
# 4 0.0000 0.0000 0.0000 11.1044 0.0000 0.0000
# 5 0.0000 0.0000 0.0000 0.0000 19.1445 0.0000
# 6 0.0000 0.0000 0.0000 0.0000 0.0000 29.6820
#
#
#
# Elastic Compliance Matrix: (Units=1/GPa)
#
#
# Indices 1 2 3 4 5 6 
#
# 1 0.030423 -0.007547 -0.004247 0.000000 0.000000 0.000000
# 2 -0.007547 0.012814 -0.003263 0.000000 0.000000 0.000000
# 3 -0.004247 -0.003263 0.009438 0.000000 0.000000 0.000000
# 4 0.000000 0.000000 0.000000 0.090055 0.000000 0.000000
# 5 0.000000 0.000000 0.000000 0.000000 0.052234 0.000000
# 6 0.000000 0.000000 0.000000 0.000000 0.000000 0.033691
#
#
# Mechanical properties :
#
#
# Convention : Reuss Voigt Hill
#
# Bulk Modulus (GPa) = 44.32422 60.90477 52.61450
# Shear Modulus (GPa) = 18.77658 23.67379 21.22519
#
# Velocity S-wave (km/s) = 3.15207 3.53933 3.35130
# Velocity P-wave (km/s) = 6.05816 6.99500 6.54337
#
# Compressibility (1/GPa) = 0.02256103
#
# Stress axis : x y z
#
# Youngs Moduli (GPa) = 32.86948 78.04056 105.95495
#
# Poissons Ratio (x) = 0.58895 0.44999
# Poissons Ratio (y) = 0.24806 0.34576
# Poissons Ratio (z) = 0.13960 0.25467
#
# Static dielectric constant tensor:
#      x y z
#    x 3.601230 0.000000 0.000000 
#    y 0.000000 3.592840 0.000000 
#    z 0.000000 0.000000 3.628400 
# 
# 
# High freq. dielectric constant tensor:
#      x y z
#    x 1.728950 0.000000 0.000000 
#    y 0.000000 1.737600 0.000000 
#    z 0.000000 0.000000 1.733100 
# 
# From -- ./inp_files/73895.got.cif
#   From: 2010.03.12/outbox.cif.g09.slc.cpg/sg65_37_cif.got.tgz:73895.got - 2010.04.10 20:52:16.
