data_PCOD8268187
_publ_section_title
;
Structure prediction by ZEFSAII (Michael W. Deem and Ramdas Pophale) SiO2 
 PCOD8268187
Probable space group: C M M M
;
_chemical_formula_sum "Si O2"
_cell_formula_units_Z 72
_cell_length_a 24.055460
_cell_length_b 16.954084
_cell_length_c 9.182721
_cell_angle_alpha 90.000000
_cell_angle_beta 90.000000
_cell_angle_gamma 90.000000
_cell_volume 3745.065226
_symmetry_space_group_name_H-M "C M M M"
_symmetry_group_IT_number 65
_symmetry_cell_setting 'orthorhombic'
loop_
_space_group_symop_operation_xyz
x,y,z
-x,-y,z
x,-y,-z
-x,y,-z
-x,-y,-z
x,y,-z
-x,y,z
x,-y,z
1/2+x,1/2+y,z
1/2-x,1/2-y,z
1/2+x,1/2-y,-z
1/2-x,1/2+y,-z
1/2-x,1/2-y,-z
1/2+x,1/2+y,-z
1/2-x,1/2+y,z
1/2+x,1/2-y,z
loop_
_atom_site_type_symbol
_atom_site_label
_atom_site_fract_x
_atom_site_fract_y
_atom_site_fract_z
Si Si1 0.592593 0.656879 0.668688
Si Si2 0.000000 0.756090 0.159543
Si Si3 0.690466 0.769174 0.332073
Si Si4 0.000000 0.412412 0.766670
Si Si5 0.877838 0.585382 0.332827
Si Si6 0.934166 0.000000 0.168993
O O1 0.574520 0.646882 0.500000
O O2 0.553168 0.719277 0.747895
O O3 0.654527 0.690052 0.682086
O O4 0.591679 0.574619 0.751220
O O5 0.000000 0.662197 0.124997
O O6 0.000000 0.798267 0.000000
O O7 0.700515 0.790555 0.500000
O O8 0.750000 0.750000 0.256474
O O9 0.658041 0.843975 0.257792
O O10 0.055699 0.402023 0.671894
O O11 0.000000 0.500000 0.842839
O O12 0.861100 0.584005 0.500000
O O13 0.862487 0.500000 0.260987
O O14 0.000000 0.000000 0.189279
O O15 0.917072 0.000000 0.000000
#
# Coordination Sequence:
#
# PCOD8268187 Si02
#       6
#    16   8  16   8  16   8
#     4  11  22  37  60  86 113 149 191 236 284 342
#     4  12  23  35  55  83 116 153 186 228 289 344
#     4   9  18  33  52  79 113 146 185 234 283 328
#     4  10  19  31  50  77 106 146 185 225 270 330
#     4   9  16  27  47  77 109 140 177 224 278 327
#     4  11  23  39  59  87 122 154 182 229 290 349
#
# _framework density 19.225299
#
# number of rings (size 3 to 8) (size 9 to 14) (size 15 to 20)
#    0.000    1.889    3.333    1.667    0.000    2.889 
#    2.000    0.000    0.000    2.667    0.000    0.000 
#    0.000    0.000    0.000    0.000    0.000    0.000 
#
# Total GULP energy -445996.306891 kJ/mol
# GULP energy per Si atom -12388.786303 kJ/mol
# Density = 1.918154 g / cm^3
# Si number density = 19.225299 Si / 1000 Ang^3
#
#
#
# Elastic Constant Matrix: (Units=GPa)
#
#
# Indices 1 2 3 4 5 6 
#
# 1 138.6345 69.2334 28.0187 0.0000 0.0000 0.0000
# 2 69.2334 170.8788 41.3240 0.0000 0.0000 0.0000
# 3 28.0187 41.3240 88.2686 0.0000 0.0000 0.0000
# 4 0.0000 0.0000 0.0000 12.4162 0.0000 0.0000
# 5 0.0000 0.0000 0.0000 0.0000 1.5948 0.0000
# 6 0.0000 0.0000 0.0000 0.0000 0.0000 18.1395
#
#
#
# Elastic Compliance Matrix: (Units=1/GPa)
#
#
# Indices 1 2 3 4 5 6 
#
# 1 0.009178 -0.003399 -0.001322 0.000000 0.000000 0.000000
# 2 -0.003399 0.007858 -0.002600 0.000000 0.000000 0.000000
# 3 -0.001322 -0.002600 0.012966 0.000000 0.000000 0.000000
# 4 0.000000 0.000000 0.000000 0.080540 0.000000 0.000000
# 5 0.000000 0.000000 0.000000 0.000000 0.627043 0.000000
# 6 0.000000 0.000000 0.000000 0.000000 0.000000 0.055128
#
#
# Mechanical properties :
#
#
# Convention : Reuss Voigt Hill
#
# Bulk Modulus (GPa) = 65.10400 74.99266 70.04833
# Shear Modulus (GPa) = 6.15404 23.71048 14.93226
#
# Velocity S-wave (km/s) = 1.79108 3.51564 2.78995
# Velocity P-wave (km/s) = 6.18179 7.45464 6.84785
#
# Compressibility (1/GPa) = 0.01536004
#
# Stress axis : x y z
#
# Youngs Moduli (GPa) = 108.95948 127.26076 77.12537
#
# Poissons Ratio (x) = 0.43253 0.10197
# Poissons Ratio (y) = 0.37032 0.20052
# Poissons Ratio (z) = 0.14405 0.33087
#
# Static dielectric constant tensor:
#      x y z
#    x 3.601400 0.000000 0.000000 
#    y 0.000000 4.042590 0.000000 
#    z 0.000000 0.000000 3.111510 
# 
# 
# High freq. dielectric constant tensor:
#      x y z
#    x 1.735120 0.000000 0.000000 
#    y 0.000000 1.770330 0.000000 
#    z 0.000000 0.000000 1.702170 
# 
# From -- ./inp_files/13645.got.cif
#   From: 2010.03.12/outbox.cif.g09.slc.cpg/sg65_7_cif.got.tgz:13645.got - 2010.04.10 20:52:16.
