data_PCOD8268029
_publ_section_title
;
Structure prediction by ZEFSAII (Michael W. Deem and Ramdas Pophale) SiO2 
 PCOD8268029
Probable space group: C M M M
;
_chemical_formula_sum "Si O2"
_cell_formula_units_Z 104
_cell_length_a 18.841990
_cell_length_b 9.206105
_cell_length_c 32.760192
_cell_angle_alpha 90.000000
_cell_angle_beta 90.000000
_cell_angle_gamma 90.000000
_cell_volume 5682.626749
_symmetry_space_group_name_H-M "C M M M"
_symmetry_group_IT_number 65
_symmetry_cell_setting 'orthorhombic'
loop_
_space_group_symop_operation_xyz
x,y,z
-x,-y,z
x,-y,-z
-x,y,-z
-x,-y,-z
x,y,-z
-x,y,z
x,-y,z
1/2+x,1/2+y,z
1/2-x,1/2-y,z
1/2+x,1/2-y,-z
1/2-x,1/2+y,-z
1/2-x,1/2-y,-z
1/2+x,1/2+y,-z
1/2-x,1/2+y,z
1/2+x,1/2-y,z
loop_
_atom_site_type_symbol
_atom_site_label
_atom_site_fract_x
_atom_site_fract_y
_atom_site_fract_z
Si Si1 0.825281 0.827190 0.576095
Si Si2 0.078865 0.827864 0.350188
Si Si3 0.919821 0.828181 0.500000
Si Si4 0.583695 0.663354 0.740843
Si Si5 0.320792 0.169099 0.894546
Si Si6 0.178900 0.330450 0.199107
Si Si7 0.083588 0.836200 0.045892
O O1 0.750000 0.750000 0.571472
O O2 0.863201 0.771454 0.617521
O O3 0.876586 0.775888 0.539594
O O4 0.813496 0.000000 0.575734
O O5 0.104064 0.782974 0.304770
O O6 0.000000 0.763726 0.359660
O O7 0.073098 0.000000 0.352927
O O8 0.000000 0.762236 0.500000
O O9 0.926078 0.000000 0.500000
O O10 0.500000 0.664981 0.746058
O O11 0.612638 0.500000 0.748563
O O12 0.614914 0.774241 0.773433
O O13 0.250000 0.250000 0.908654
O O14 0.339596 0.205714 0.847755
O O15 0.384648 0.222226 0.922560
O O16 0.308632 0.000000 0.901311
O O17 0.189782 0.500000 0.206244
O O18 0.250000 0.250000 0.213100
O O19 0.000000 0.819399 0.048250
O O20 0.106234 0.000000 0.057849
O O21 0.109949 0.800930 0.000000
#
# Coordination Sequence:
#
# PCOD8268029 Si02
#       7
#    16  16   8  16  16  16  16
#     4  10  19  31  49  73 101 129 160 203 249 293
#     4   8  15  30  51  72  95 127 167 206 241 284
#     4   9  17  30  51  75  94 123 170 210 240 285
#     4   9  18  33  53  76 101 131 168 207 250 302
#     4  10  21  36  54  76 102 134 171 210 252 299
#     4  10  21  36  53  74 102 134 169 210 254 300
#     4   9  19  36  56  78 105 136 169 206 249 297
#
# _framework density 18.301394999999999
#
# number of rings (size 3 to 8) (size 9 to 14) (size 15 to 20)
#    0.000    2.692    0.000    3.000    0.000    6.154 
#    0.000    6.154    0.000    3.231    0.000    0.000 
#    0.000    0.000    0.000    0.000    0.000    0.000 
#
# Total GULP energy -644760.414521 kJ/mol
# GULP energy per Si atom -12399.238741 kJ/mol
# Density = 1.825974 g / cm^3
# Si number density = 18.301395 Si / 1000 Ang^3
#
#
#
# Elastic Constant Matrix: (Units=GPa)
#
#
# Indices 1 2 3 4 5 6 
#
# 1 96.3281 39.7866 64.5955 0.0000 0.0000 0.0000
# 2 39.7866 62.1762 47.7311 0.0000 0.0000 0.0000
# 3 64.5955 47.7311 113.4650 0.0000 0.0000 0.0000
# 4 0.0000 0.0000 0.0000 19.8968 0.0000 0.0000
# 5 0.0000 0.0000 0.0000 0.0000 27.4250 0.0000
# 6 0.0000 0.0000 0.0000 0.0000 0.0000 33.3885
#
#
#
# Elastic Compliance Matrix: (Units=1/GPa)
#
#
# Indices 1 2 3 4 5 6 
#
# 1 0.017929 -0.005372 -0.007947 0.000000 0.000000 0.000000
# 2 -0.005372 0.025364 -0.007612 0.000000 0.000000 0.000000
# 3 -0.007947 -0.007612 0.016540 0.000000 0.000000 0.000000
# 4 0.000000 0.000000 0.000000 0.050259 0.000000 0.000000
# 5 0.000000 0.000000 0.000000 0.000000 0.036463 0.000000
# 6 0.000000 0.000000 0.000000 0.000000 0.000000 0.029950
#
#
# Mechanical properties :
#
#
# Convention : Reuss Voigt Hill
#
# Bulk Modulus (GPa) = 55.64450 64.02175 59.83313
# Shear Modulus (GPa) = 22.28582 24.13248 23.20915
#
# Velocity S-wave (km/s) = 3.49336 3.63521 3.56499
# Velocity P-wave (km/s) = 6.83681 7.25793 7.05051
#
# Compressibility (1/GPa) = 0.01797123
#
# Stress axis : x y z
#
# Youngs Moduli (GPa) = 55.77472 39.42577 60.46094
#
# Poissons Ratio (x) = 0.21180 0.48050
# Poissons Ratio (y) = 0.29962 0.46020
# Poissons Ratio (z) = 0.44326 0.30009
#
# Static dielectric constant tensor:
#      x y z
#    x 3.342930 0.000000 0.000000 
#    y 0.000000 3.179610 0.000000 
#    z 0.000000 0.000000 3.597690 
# 
# 
# High freq. dielectric constant tensor:
#      x y z
#    x 1.708670 0.000000 0.000000 
#    y 0.000000 1.683580 0.000000 
#    z 0.000000 0.000000 1.719790 
# 
# From -- ./inp_files/75492.got.cif
#   From: 2010.03.12/outbox.cif.g09.slc.cpg/sg65_38_cif.got.tgz:75492.got - 2010.04.10 20:52:16.
