data_PCOD8268639
_publ_section_title
;
Structure prediction by ZEFSAII (Michael W. Deem and Ramdas Pophale) SiO2 
 PCOD8268639
Probable space group: C M M M
;
_chemical_formula_sum "Si O2"
_cell_formula_units_Z 120
_cell_length_a 8.762202
_cell_length_b 26.929226
_cell_length_c 27.945275
_cell_angle_alpha 90.000000
_cell_angle_beta 90.000000
_cell_angle_gamma 90.000000
_cell_volume 6593.948028
_symmetry_space_group_name_H-M "C M M M"
_symmetry_group_IT_number 65
_symmetry_cell_setting 'orthorhombic'
loop_
_space_group_symop_operation_xyz
x,y,z
-x,-y,z
x,-y,-z
-x,y,-z
-x,-y,-z
x,y,-z
-x,y,z
x,-y,z
1/2+x,1/2+y,z
1/2-x,1/2-y,z
1/2+x,1/2-y,-z
1/2-x,1/2+y,-z
1/2-x,1/2-y,-z
1/2+x,1/2+y,-z
1/2-x,1/2+y,z
1/2+x,1/2-y,z
loop_
_atom_site_type_symbol
_atom_site_label
_atom_site_fract_x
_atom_site_fract_y
_atom_site_fract_z
Si Si1 0.178984 0.053480 0.143375
Si Si2 0.679134 0.801678 0.715580
Si Si3 0.320517 0.197426 0.394358
Si Si4 0.318552 0.352857 0.199319
Si Si5 0.823373 0.885256 0.945748
Si Si6 0.179312 0.300664 0.888577
Si Si7 0.826308 0.500000 0.443135
Si Si8 0.174893 0.102117 0.443331
O O1 0.242810 0.093751 0.180880
O O2 0.214284 0.068364 0.088537
O O3 0.000000 0.049550 0.151138
O O4 0.256494 0.000000 0.153280
O O5 0.500000 0.799503 0.723287
O O6 0.750000 0.750000 0.732984
O O7 0.723327 0.812218 0.660762
O O8 0.750906 0.845026 0.747855
O O9 0.500000 0.201159 0.402338
O O10 0.250000 0.250000 0.412028
O O11 0.258523 0.150795 0.423726
O O12 0.500000 0.349969 0.200868
O O13 0.257270 0.312098 0.162387
O O14 0.717034 0.840188 0.929654
O O15 0.000000 0.869183 0.939718
O O16 0.785361 0.900647 0.000000
O O17 0.250000 0.250000 0.907999
O O18 0.000000 0.296650 0.880910
O O19 0.816274 0.500000 0.500000
O O20 0.746759 0.550430 0.423492
O O21 0.000000 0.500000 0.424985
O O22 0.191238 0.103680 0.500000
O O23 0.000000 0.103482 0.426765
#
# Coordination Sequence:
#
# PCOD8268639 Si02
#       8
#    16  16  16  16  16  16   8  16
#     4   8  15  29  50  75  99 124 158 200 243 286
#     4  10  20  34  53  77 104 134 170 208 253 303
#     4  10  21  36  54  77 107 144 182 223 270 325
#     4  10  19  32  52  76 100 127 161 203 248 295
#     4   9  18  32  49  71  98 126 159 198 240 289
#     4  11  21  33  49  69  96 127 160 199 241 290
#     4   9  17  31  53  79 105 137 179 225 273 321
#     4  10  20  34  54  80 110 144 184 230 275 321
#
# _framework density 18.198505999999998
#
# number of rings (size 3 to 8) (size 9 to 14) (size 15 to 20)
#    0.000    2.333    0.000    4.200    0.000    4.267 
#    0.000    1.333    1.467   10.000    0.000    3.733 
#    0.000    0.000    0.000    0.000    0.000    0.000 
#
# Total GULP energy -743900.499817 kJ/mol
# GULP energy per Si atom -12398.341664 kJ/mol
# Density = 1.815708 g / cm^3
# Si number density = 18.198506 Si / 1000 Ang^3
#
#
#
# Elastic Constant Matrix: (Units=GPa)
#
#
# Indices 1 2 3 4 5 6 
#
# 1 89.4317 44.7669 26.6645 0.0000 0.0000 0.0000
# 2 44.7669 136.7520 35.1306 0.0000 0.0000 0.0000
# 3 26.6645 35.1306 48.0296 0.0000 0.0000 0.0000
# 4 0.0000 0.0000 0.0000 18.0429 0.0000 0.0000
# 5 0.0000 0.0000 0.0000 0.0000 27.9065 0.0000
# 6 0.0000 0.0000 0.0000 0.0000 0.0000 25.5217
#
#
#
# Elastic Compliance Matrix: (Units=1/GPa)
#
#
# Indices 1 2 3 4 5 6 
#
# 1 0.014518 -0.003303 -0.005644 0.000000 0.000000 0.000000
# 2 -0.003303 0.009756 -0.005302 0.000000 0.000000 0.000000
# 3 -0.005644 -0.005302 0.027832 0.000000 0.000000 0.000000
# 4 0.000000 0.000000 0.000000 0.055423 0.000000 0.000000
# 5 0.000000 0.000000 0.000000 0.000000 0.035834 0.000000
# 6 0.000000 0.000000 0.000000 0.000000 0.000000 0.039182
#
#
# Mechanical properties :
#
#
# Convention : Reuss Voigt Hill
#
# Bulk Modulus (GPa) = 42.35894 54.14858 48.25376
# Shear Modulus (GPa) = 22.84020 25.47100 24.15560
#
# Velocity S-wave (km/s) = 3.54652 3.74521 3.64722
# Velocity P-wave (km/s) = 6.33222 6.96571 6.65651
#
# Compressibility (1/GPa) = 0.02360777
#
# Stress axis : x y z
#
# Youngs Moduli (GPa) = 68.88140 102.50391 35.92963
#
# Poissons Ratio (x) = 0.33852 0.20279
# Poissons Ratio (y) = 0.22748 0.19051
# Poissons Ratio (z) = 0.38878 0.54350
#
# Static dielectric constant tensor:
#      x y z
#    x 3.329400 0.000000 0.000000 
#    y 0.000000 3.638590 0.000000 
#    z 0.000000 0.000000 3.248070 
# 
# 
# High freq. dielectric constant tensor:
#      x y z
#    x 1.704380 0.000000 0.000000 
#    y 0.000000 1.707300 0.000000 
#    z 0.000000 0.000000 1.686940 
# 
# From -- ./inp_files/73903.got.cif
#   From: 2010.03.12/outbox.cif.g09.slc.cpg/sg65_37_cif.got.tgz:73903.got - 2010.04.10 20:52:16.
