data_PCOD8268950
_publ_section_title
;
Structure prediction by ZEFSAII (Michael W. Deem and Ramdas Pophale) SiO2 
 PCOD8268950
Probable space group: C M M M
;
_chemical_formula_sum "Si O2"
_cell_formula_units_Z 128
_cell_length_a 25.696943
_cell_length_b 28.994019
_cell_length_c 9.491778
_cell_angle_alpha 90.000000
_cell_angle_beta 90.000000
_cell_angle_gamma 90.000000
_cell_volume 7071.921845
_symmetry_space_group_name_H-M "C M M M"
_symmetry_group_IT_number 65
_symmetry_cell_setting 'orthorhombic'
loop_
_space_group_symop_operation_xyz
x,y,z
-x,-y,z
x,-y,-z
-x,y,-z
-x,-y,-z
x,y,-z
-x,y,z
x,-y,z
1/2+x,1/2+y,z
1/2-x,1/2-y,z
1/2+x,1/2-y,-z
1/2-x,1/2+y,-z
1/2-x,1/2-y,-z
1/2+x,1/2+y,-z
1/2-x,1/2+y,z
1/2+x,1/2-y,z
loop_
_atom_site_type_symbol
_atom_site_label
_atom_site_fract_x
_atom_site_fract_y
_atom_site_fract_z
Si Si1 0.561298 0.300946 0.840763
Si Si2 0.441206 0.387705 0.662189
Si Si3 0.652723 0.051958 0.167571
Si Si4 0.607041 0.793829 0.167999
Si Si5 0.743544 0.395811 0.833558
Si Si6 0.223395 0.295877 0.166829
Si Si7 0.557938 0.112653 0.832075
Si Si8 0.344234 0.552811 0.336697
O O1 0.500000 0.295383 0.836501
O O2 0.579943 0.344302 0.749988
O O3 0.585189 0.254517 0.774234
O O4 0.581407 0.308729 0.000000
O O5 0.440062 0.372811 0.500000
O O6 0.500000 0.401734 0.707850
O O7 0.403311 0.430647 0.691359
O O8 0.703409 0.079806 0.219028
O O9 0.600256 0.076136 0.226366
O O10 0.655241 0.000000 0.227547
O O11 0.651276 0.051761 0.000000
O O12 0.665210 0.800249 0.226735
O O13 0.572361 0.836304 0.224037
O O14 0.605574 0.793509 0.000000
O O15 0.744916 0.341808 0.791733
O O16 0.694849 0.417649 0.755919
O O17 0.736468 0.402685 0.000000
O O18 0.250000 0.250000 0.231606
O O19 0.220542 0.291317 0.000000
O O20 0.500000 0.099567 0.777705
O O21 0.559331 0.112352 0.000000
O O22 0.329292 0.558782 0.500000
O O23 0.340808 0.500000 0.288644
#
# Coordination Sequence:
#
# PCOD8268950 Si02
#       8
#    16  16  16  16  16  16  16  16
#     4   9  17  28  46  74 102 128 161 200 240 285
#     4   9  19  36  55  74  99 130 161 196 243 298
#     4   9  16  26  40  61  90 122 157 199 243 286
#     4   9  15  25  40  62  94 128 161 198 240 285
#     4  10  19  33  53  75 100 131 166 205 248 295
#     4   9  17  27  42  68  97 127 164 201 239 287
#     4   9  15  23  36  57  89 128 164 198 239 286
#     4  10  22  38  55  76 100 127 163 207 251 298
#
# _framework density 18.099747000000001
#
# number of rings (size 3 to 8) (size 9 to 14) (size 15 to 20)
#    0.000    2.750    1.250    0.750    1.750    3.250 
#    0.000    2.500    0.000    1.125    0.000    2.625 
#    0.000    0.500    0.000    2.625    0.000    2.500 
#
# Total GULP energy -793418.344406 kJ/mol
# GULP energy per Si atom -12397.161631 kJ/mol
# Density = 1.805855 g / cm^3
# Si number density = 18.099747 Si / 1000 Ang^3
#
#
#
# Elastic Constant Matrix: (Units=GPa)
#
#
# Indices 1 2 3 4 5 6 
#
# 1 113.3701 67.6749 24.6502 0.0000 0.0000 0.0000
# 2 67.6749 149.0919 29.7879 0.0000 0.0000 0.0000
# 3 24.6502 29.7879 24.2159 0.0000 0.0000 0.0000
# 4 0.0000 0.0000 0.0000 12.4756 0.0000 0.0000
# 5 0.0000 0.0000 0.0000 0.0000 14.6287 0.0000
# 6 0.0000 0.0000 0.0000 0.0000 0.0000 35.2470
#
#
#
# Elastic Compliance Matrix: (Units=1/GPa)
#
#
# Indices 1 2 3 4 5 6 
#
# 1 0.013180 -0.004378 -0.008031 0.000000 0.000000 0.000000
# 2 -0.004378 0.010347 -0.008271 0.000000 0.000000 0.000000
# 3 -0.008031 -0.008271 0.059645 0.000000 0.000000 0.000000
# 4 0.000000 0.000000 0.000000 0.080157 0.000000 0.000000
# 5 0.000000 0.000000 0.000000 0.000000 0.068359 0.000000
# 6 0.000000 0.000000 0.000000 0.000000 0.000000 0.028371
#
#
# Mechanical properties :
#
#
# Convention : Reuss Voigt Hill
#
# Bulk Modulus (GPa) = 23.91706 58.98932 41.45319
# Shear Modulus (GPa) = 15.85500 23.44125 19.64812
#
# Velocity S-wave (km/s) = 2.96291 3.60267 3.29834
# Velocity P-wave (km/s) = 4.99478 7.06878 6.12027
#
# Compressibility (1/GPa) = 0.04181116
#
# Stress axis : x y z
#
# Youngs Moduli (GPa) = 75.87022 96.64490 16.76584
#
# Poissons Ratio (x) = 0.42313 0.13465
# Poissons Ratio (y) = 0.33217 0.13868
# Poissons Ratio (z) = 0.60933 0.79938
#
# Static dielectric constant tensor:
#      x y z
#    x 3.501480 0.000000 0.000000 
#    y 0.000000 3.578470 0.000000 
#    z 0.000000 0.000000 2.821170 
# 
# 
# High freq. dielectric constant tensor:
#      x y z
#    x 1.712260 0.000000 0.000000 
#    y 0.000000 1.713480 0.000000 
#    z 0.000000 0.000000 1.629990 
# 
# From -- ./inp_files/31478.got.cif
#   From: 2010.03.12/outbox.cif.g09.slc.cpg/sg65_16_cif.got.tgz:31478.got - 2010.04.10 20:52:16.
