data_PCOD8268604
_publ_section_title
;
Structure prediction by ZEFSAII (Michael W. Deem and Ramdas Pophale) SiO2 
 PCOD8268604
Probable space group: C M M M
;
_chemical_formula_sum "Si O2"
_cell_formula_units_Z 80
_cell_length_a 22.633191
_cell_length_b 13.993526
_cell_length_c 12.796115
_cell_angle_alpha 90.000000
_cell_angle_beta 90.000000
_cell_angle_gamma 90.000000
_cell_volume 4052.761828
_symmetry_space_group_name_H-M "C M M M"
_symmetry_group_IT_number 65
_symmetry_cell_setting 'orthorhombic'
loop_
_space_group_symop_operation_xyz
x,y,z
-x,-y,z
x,-y,-z
-x,y,-z
-x,-y,-z
x,y,-z
-x,y,z
x,-y,z
1/2+x,1/2+y,z
1/2-x,1/2-y,z
1/2+x,1/2-y,-z
1/2-x,1/2+y,-z
1/2-x,1/2-y,-z
1/2+x,1/2+y,-z
1/2-x,1/2+y,z
1/2+x,1/2-y,z
loop_
_atom_site_type_symbol
_atom_site_label
_atom_site_fract_x
_atom_site_fract_y
_atom_site_fract_z
Si Si1 0.432550 0.271502 0.195937
Si Si2 0.135013 0.387406 0.707451
Si Si3 0.429825 0.392768 0.000000
Si Si4 0.933851 0.612900 0.500000
Si Si5 0.745030 0.387744 0.614523
Si Si6 0.386943 0.612216 0.620296
O O1 0.500000 0.241433 0.174918
O O2 0.393631 0.174388 0.199439
O O3 0.430236 0.330898 0.303755
O O4 0.407414 0.336845 0.102435
O O5 0.127602 0.500000 0.731365
O O6 0.101170 0.354335 0.602604
O O7 0.203830 0.356528 0.695246
O O8 0.402817 0.500000 0.000000
O O9 0.500000 0.399570 0.000000
O O10 0.937653 0.500000 0.500000
O O11 0.000000 0.656906 0.500000
O O12 0.757874 0.342995 0.500000
O O13 0.747463 0.500000 0.601162
O O14 0.679976 0.357539 0.652973
O O15 0.399834 0.640711 0.500000
O O16 0.397374 0.500000 0.635812
#
# Coordination Sequence:
#
# PCOD8268604 Si02
#       6
#    16  16   8   8  16  16
#     4  11  23  36  55  81 106 137 182 225 273 331
#     4  10  19  32  51  77 112 150 183 218 256 306
#     4   9  20  42  65  78  95 133 186 236 274 323
#     4   9  16  26  42  67 105 151 184 207 245 295
#     4   8  14  29  51  74 106 150 191 216 249 311
#     4   9  19  34  53  80 112 141 174 225 280 327
#
# _framework density 19.739626000000001
#
# number of rings (size 3 to 8) (size 9 to 14) (size 15 to 20)
#    0.000    2.600    1.000    2.400    1.400    3.600 
#    0.000    3.500    0.000    4.200    0.000    4.200 
#    0.000    0.000    0.000    0.000    0.000    0.000 
#
# Total GULP energy -495821.856436 kJ/mol
# GULP energy per Si atom -12395.546411 kJ/mol
# Density = 1.969470 g / cm^3
# Si number density = 19.739626 Si / 1000 Ang^3
#
#
#
# Elastic Constant Matrix: (Units=GPa)
#
#
# Indices 1 2 3 4 5 6 
#
# 1 44.5260 -11.0477 8.3344 0.0000 0.0000 0.0000
# 2 -11.0477 63.1892 36.6105 0.0000 0.0000 0.0000
# 3 8.3344 36.6105 75.5770 0.0000 0.0000 0.0000
# 4 0.0000 0.0000 0.0000 25.2294 0.0000 0.0000
# 5 0.0000 0.0000 0.0000 0.0000 15.5049 0.0000
# 6 0.0000 0.0000 0.0000 0.0000 0.0000 18.0215
#
#
#
# Elastic Compliance Matrix: (Units=1/GPa)
#
#
# Indices 1 2 3 4 5 6 
#
# 1 0.025906 0.008598 -0.007022 0.000000 0.000000 0.000000
# 2 0.008598 0.024853 -0.012987 0.000000 0.000000 0.000000
# 3 -0.007022 -0.012987 0.020297 0.000000 0.000000 0.000000
# 4 0.000000 0.000000 0.000000 0.039636 0.000000 0.000000
# 5 0.000000 0.000000 0.000000 0.000000 0.064496 0.000000
# 6 0.000000 0.000000 0.000000 0.000000 0.000000 0.055489
#
#
# Mechanical properties :
#
#
# Convention : Reuss Voigt Hill
#
# Bulk Modulus (GPa) = 20.73239 27.89852 24.31545
# Shear Modulus (GPa) = 18.54746 21.71082 20.12914
#
# Velocity S-wave (km/s) = 3.06862 3.32001 3.19679
# Velocity P-wave (km/s) = 4.80427 5.37220 5.09615
#
# Compressibility (1/GPa) = 0.04823371
#
# Stress axis : x y z
#
# Youngs Moduli (GPa) = 38.60064 40.23628 49.26813
#
# Poissons Ratio (x) = -0.34593 0.34594
# Poissons Ratio (y) = -0.33187 0.63986
# Poissons Ratio (z) = 0.27104 0.52256
#
# Static dielectric constant tensor:
#      x y z
#    x 3.787230 0.000000 0.000000 
#    y 0.000000 3.606260 0.000000 
#    z 0.000000 0.000000 3.199680 
# 
# 
# High freq. dielectric constant tensor:
#      x y z
#    x 1.762980 0.000000 0.000000 
#    y 0.000000 1.781770 0.000000 
#    z 0.000000 0.000000 1.717690 
# 
# From -- ./inp_files/30414.got.cif
#   From: 2010.03.12/outbox.cif.g09.slc.cpg/sg65_16_cif.got.tgz:30414.got - 2010.04.10 20:52:16.
