data_PCOD8268074
_publ_section_title
;
Structure prediction by ZEFSAII (Michael W. Deem and Ramdas Pophale) SiO2 
 PCOD8268074
Probable space group: C M M M
;
_chemical_formula_sum "Si O2"
_cell_formula_units_Z 64
_cell_length_a 14.893796
_cell_length_b 16.974659
_cell_length_c 12.276492
_cell_angle_alpha 90.000000
_cell_angle_beta 90.000000
_cell_angle_gamma 90.000000
_cell_volume 3103.707208
_symmetry_space_group_name_H-M "C M M M"
_symmetry_group_IT_number 65
_symmetry_cell_setting 'orthorhombic'
loop_
_space_group_symop_operation_xyz
x,y,z
-x,-y,z
x,-y,-z
-x,y,-z
-x,-y,-z
x,y,-z
-x,y,z
x,-y,z
1/2+x,1/2+y,z
1/2-x,1/2-y,z
1/2+x,1/2-y,-z
1/2-x,1/2+y,-z
1/2-x,1/2-y,-z
1/2+x,1/2+y,-z
1/2-x,1/2+y,z
1/2+x,1/2-y,z
loop_
_atom_site_type_symbol
_atom_site_label
_atom_site_fract_x
_atom_site_fract_y
_atom_site_fract_z
Si Si1 0.257626 0.906827 0.378988
Si Si2 0.395623 0.092146 0.198513
Si Si3 0.902708 0.857196 0.000000
Si Si4 0.340015 0.196658 0.000000
Si Si5 0.101096 0.092631 0.229004
O O1 0.265003 0.869868 0.500000
O O2 0.347142 0.885238 0.311703
O O3 0.168196 0.872155 0.320082
O O4 0.248044 0.000000 0.386851
O O5 0.500000 0.114367 0.208897
O O6 0.347876 0.141739 0.104745
O O7 0.383277 0.000000 0.171022
O O8 0.916956 0.762811 0.000000
O O9 0.854718 0.886015 0.111115
O O10 0.000000 0.898414 0.000000
O O11 0.250000 0.250000 0.000000
O O12 0.000000 0.128697 0.242157
O O13 0.096293 0.000000 0.241502
#
# Coordination Sequence:
#
# PCOD8268074 Si02
#       5
#    16  16   8   8  16
#     4   9  18  32  51  78 108 138 182 238 287 331
#     4  10  21  38  60  84 113 150 190 233 280 333
#     4  10  19  31  49  74 105 138 176 225 275 328
#     4  12  23  35  55  83 112 142 177 224 282 338
#     4   9  17  30  50  77 111 151 190 229 279 339
#
# _framework density 20.620501999999998
#
# number of rings (size 3 to 8) (size 9 to 14) (size 15 to 20)
#    0.000    2.250    0.000    3.375    0.000    3.500 
#    0.000   10.000    0.000    6.750    0.000    7.000 
#    0.000    0.000    0.000    0.000    0.000    0.000 
#
# Total GULP energy -396543.293626 kJ/mol
# GULP energy per Si atom -12391.977926 kJ/mol
# Density = 2.057357 g / cm^3
# Si number density = 20.620502 Si / 1000 Ang^3
#
#
#
# Elastic Constant Matrix: (Units=GPa)
#
#
# Indices 1 2 3 4 5 6 
#
# 1 150.1397 34.9233 93.7335 0.0000 0.0000 0.0000
# 2 34.9233 33.7976 32.5593 0.0000 0.0000 0.0000
# 3 93.7335 32.5593 206.9081 0.0000 0.0000 0.0000
# 4 0.0000 0.0000 0.0000 -1.2603 0.0000 0.0000
# 5 0.0000 0.0000 0.0000 0.0000 25.0399 0.0000
# 6 0.0000 0.0000 0.0000 0.0000 0.0000 22.7740
#
#
#
# Elastic Compliance Matrix: (Units=1/GPa)
#
#
# Indices 1 2 3 4 5 6 
#
# 1 0.010697 -0.007526 -0.003662 0.000000 0.000000 0.000000
# 2 -0.007526 0.040169 -0.002912 0.000000 0.000000 0.000000
# 3 -0.003662 -0.002912 0.006950 0.000000 0.000000 0.000000
# 4 0.000000 0.000000 0.000000 -0.793485 0.000000 0.000000
# 5 0.000000 0.000000 0.000000 0.000000 0.039936 0.000000
# 6 0.000000 0.000000 0.000000 0.000000 0.000000 0.043910
#
#
# Mechanical properties :
#
#
# Convention : Reuss Voigt Hill
#
# Bulk Modulus (GPa) = 33.76318 79.25306 56.50812
# Shear Modulus (GPa) = -8.14662 24.61936 8.23637
#
# Velocity S-wave (km/s) = -1.98980 3.45907 2.00073
# Velocity P-wave (km/s) = 3.33617 7.38046 5.72718
#
# Compressibility (1/GPa) = 0.02961806
#
# Stress axis : x y z
#
# Youngs Moduli (GPa) = 93.48387 24.89452 143.88309
#
# Poissons Ratio (x) = 0.18735 0.52686
# Poissons Ratio (y) = 0.70354 0.41896
# Poissons Ratio (z) = 0.34231 0.07249
#
# Static dielectric constant tensor:
#      x y z
#    x 4.094960 0.000000 0.000000 
#    y 0.000000 3.575180 0.000000 
#    z 0.000000 0.000000 4.085280 
# 
# 
# High freq. dielectric constant tensor:
#      x y z
#    x 1.818650 0.000000 0.000000 
#    y 0.000000 1.771410 0.000000 
#    z 0.000000 0.000000 1.804980 
# 
# From -- ./inp_files/23974.got.cif
#   From: 2010.03.12/outbox.cif.g09.slc.cpg/sg65_12_cif.got.tgz:23974.got - 2010.04.10 20:52:16.
