data_PCOD8268735
_publ_section_title
;
Structure prediction by ZEFSAII (Michael W. Deem and Ramdas Pophale) SiO2 
 PCOD8268735
Probable space group: C M M M
;
_chemical_formula_sum "Si O2"
_cell_formula_units_Z 104
_cell_length_a 27.694161
_cell_length_b 9.474900
_cell_length_c 22.091444
_cell_angle_alpha 90.000000
_cell_angle_beta 90.000000
_cell_angle_gamma 90.000000
_cell_volume 5796.781785
_symmetry_space_group_name_H-M "C M M M"
_symmetry_group_IT_number 65
_symmetry_cell_setting 'orthorhombic'
loop_
_space_group_symop_operation_xyz
x,y,z
-x,-y,z
x,-y,-z
-x,y,-z
-x,-y,-z
x,y,-z
-x,y,z
x,-y,z
1/2+x,1/2+y,z
1/2-x,1/2-y,z
1/2+x,1/2-y,-z
1/2-x,1/2+y,-z
1/2-x,1/2-y,-z
1/2+x,1/2+y,-z
1/2-x,1/2+y,z
1/2+x,1/2-y,z
loop_
_atom_site_type_symbol
_atom_site_label
_atom_site_fract_x
_atom_site_fract_y
_atom_site_fract_z
Si Si1 0.942799 0.336938 0.500000
Si Si2 0.600334 0.332892 0.388459
Si Si3 0.056784 0.663686 0.720756
Si Si4 0.820693 0.500000 0.071376
Si Si5 0.294445 0.661286 0.569022
Si Si6 0.134822 0.215226 0.071136
Si Si7 0.054558 0.157523 0.835352
Si Si8 0.785928 0.000000 0.071206
O O1 0.923626 0.500000 0.500000
O O2 0.925292 0.252033 0.441773
O O3 0.000000 0.339172 0.500000
O O4 0.586828 0.500000 0.391589
O O5 0.584269 0.262271 0.326369
O O6 0.657827 0.312181 0.391944
O O7 0.073340 0.500000 0.716558
O O8 0.070361 0.725896 0.786365
O O9 0.000000 0.676740 0.708183
O O10 0.853834 0.627921 0.091845
O O11 0.767235 0.500000 0.102009
O O12 0.812644 0.500000 0.000000
O O13 0.305565 0.707882 0.500000
O O14 0.278276 0.500000 0.571664
O O15 0.250000 0.750000 0.596414
O O16 0.087703 0.163264 0.105555
O O17 0.183283 0.134732 0.091441
O O18 0.124598 0.195265 0.000000
O O19 0.000000 0.188310 0.856879
O O20 0.058391 0.000000 0.806932
O O21 0.778477 0.000000 0.000000
#
# Coordination Sequence:
#
# PCOD8268735 Si02
#       8
#     8  16  16   8  16  16  16   8
#     4  11  23  35  50  79 118 149 178 221 270 321
#     4  11  21  36  57  83 112 143 181 223 272 321
#     4  10  22  39  58  80 106 140 183 226 268 323
#     4   9  18  30  49  77 111 145 178 217 269 330
#     4   9  18  33  52  79 111 142 179 217 257 312
#     4  10  19  32  52  82 113 142 179 223 274 327
#     4  10  21  37  56  78 105 143 187 225 268 324
#     4   9  16  30  51  77 109 143 178 219 267 322
#
# _framework density 17.940988999999998
#
# number of rings (size 3 to 8) (size 9 to 14) (size 15 to 20)
#    0.000    2.077    1.538    2.077    1.077    6.769 
#    0.000    0.769    0.000    3.231    0.000    0.000 
#    0.000    0.000    0.000    0.000    0.000    0.000 
#
# Total GULP energy -644620.591565 kJ/mol
# GULP energy per Si atom -12396.549838 kJ/mol
# Density = 1.790015 g / cm^3
# Si number density = 17.940989 Si / 1000 Ang^3
#
#
#
# Elastic Constant Matrix: (Units=GPa)
#
#
# Indices 1 2 3 4 5 6 
#
# 1 87.9901 46.2570 43.5899 0.0000 0.0000 0.0000
# 2 46.2570 135.0379 39.5507 0.0000 0.0000 0.0000
# 3 43.5899 39.5507 68.9761 0.0000 0.0000 0.0000
# 4 0.0000 0.0000 0.0000 23.8629 0.0000 0.0000
# 5 0.0000 0.0000 0.0000 0.0000 -12.4275 0.0000
# 6 0.0000 0.0000 0.0000 0.0000 0.0000 31.6522
#
#
#
# Elastic Compliance Matrix: (Units=1/GPa)
#
#
# Indices 1 2 3 4 5 6 
#
# 1 0.017724 -0.003354 -0.009278 0.000000 0.000000 0.000000
# 2 -0.003354 0.009535 -0.003348 0.000000 0.000000 0.000000
# 3 -0.009278 -0.003348 0.022280 0.000000 0.000000 0.000000
# 4 0.000000 0.000000 0.000000 0.041906 0.000000 0.000000
# 5 0.000000 0.000000 0.000000 0.000000 -0.080467 0.000000
# 6 0.000000 0.000000 0.000000 0.000000 0.000000 0.031593
#
#
# Mechanical properties :
#
#
# Convention : Reuss Voigt Hill
#
# Bulk Modulus (GPa) = 56.88083 61.19995 59.04039
# Shear Modulus (GPa) = 62.19593 19.45795 40.82694
#
# Velocity S-wave (km/s) = 5.89425 3.29683 4.77553
# Velocity P-wave (km/s) = 8.83720 6.97696 7.96160
#
# Compressibility (1/GPa) = 0.01758062
#
# Stress axis : x y z
#
# Youngs Moduli (GPa) = 56.41949 104.87986 44.88250
#
# Poissons Ratio (x) = 0.35178 0.41641
# Poissons Ratio (y) = 0.18924 0.15025
# Poissons Ratio (z) = 0.52345 0.35109
#
# Static dielectric constant tensor:
#      x y z
#    x 3.347160 0.000000 0.000000 
#    y 0.000000 3.717540 0.000000 
#    z 0.000000 0.000000 3.877850 
# 
# 
# High freq. dielectric constant tensor:
#      x y z
#    x 1.696580 0.000000 0.000000 
#    y 0.000000 1.715770 0.000000 
#    z 0.000000 0.000000 1.659130 
# 
# From -- ./inp_files/71924.got.cif
#   From: 2010.03.12/outbox.cif.g09.slc.cpg/sg65_36_cif.got.tgz:71924.got - 2010.04.10 20:52:16.
