data_PCOD8268738
_publ_section_title
;
Structure prediction by ZEFSAII (Michael W. Deem and Ramdas Pophale) SiO2 
 PCOD8268738
Probable space group: C M M M
;
_chemical_formula_sum "Si O2"
_cell_formula_units_Z 64
_cell_length_a 22.318135
_cell_length_b 9.841437
_cell_length_c 16.738662
_cell_angle_alpha 90.000000
_cell_angle_beta 90.000000
_cell_angle_gamma 90.000000
_cell_volume 3676.521896
_symmetry_space_group_name_H-M "C M M M"
_symmetry_group_IT_number 65
_symmetry_cell_setting 'orthorhombic'
loop_
_space_group_symop_operation_xyz
x,y,z
-x,-y,z
x,-y,-z
-x,y,-z
-x,-y,-z
x,y,-z
-x,y,z
x,-y,z
1/2+x,1/2+y,z
1/2-x,1/2-y,z
1/2+x,1/2-y,-z
1/2-x,1/2+y,-z
1/2-x,1/2-y,-z
1/2+x,1/2+y,-z
1/2-x,1/2+y,z
1/2+x,1/2-y,z
loop_
_atom_site_type_symbol
_atom_site_label
_atom_site_fract_x
_atom_site_fract_y
_atom_site_fract_z
Si Si1 0.674450 0.500000 0.590557
Si Si2 0.804973 0.349034 0.000000
Si Si3 0.183954 0.500000 0.587282
Si Si4 0.320982 0.753943 0.693132
Si Si5 0.610783 0.160020 0.149836
Si Si6 0.000000 0.838051 0.904976
O O1 0.646242 0.500000 0.500000
O O2 0.745059 0.500000 0.579711
O O3 0.654346 0.374817 0.645089
O O4 0.750000 0.250000 0.000000
O O5 0.844447 0.324074 0.077132
O O6 0.778044 0.500000 0.000000
O O7 0.154522 0.500000 0.500000
O O8 0.160516 0.628457 0.633726
O O9 0.250000 0.750000 0.711706
O O10 0.355919 0.777298 0.774463
O O11 0.555676 0.259179 0.133116
O O12 0.592442 0.000000 0.161086
O O13 0.000000 0.000000 0.883298
O O14 0.000000 0.818945 0.000000
#
# Coordination Sequence:
#
# PCOD8268738 Si02
#       6
#     8   8   8  16  16   8
#     4   9  18  30  50  80 117 158 188 222 279 333
#     4  10  22  37  56  83 117 154 186 218 275 340
#     4   9  16  30  50  76 115 154 188 226 271 337
#     4  10  19  32  52  84 120 151 188 230 277 337
#     4  11  22  39  59  82 112 152 192 232 283 332
#     4  11  25  43  63  85 104 139 192 249 290 331
#
# _framework density 17.407757
#
# number of rings (size 3 to 8) (size 9 to 14) (size 15 to 20)
#    0.000    1.875    2.500    1.875    1.750    4.500 
#    0.000    0.000    0.000    0.000    0.000    5.250 
#    0.000    0.000    0.000    0.000    0.000    0.000 
#
# Total GULP energy -396560.689295 kJ/mol
# GULP energy per Si atom -12392.521540 kJ/mol
# Density = 1.736814 g / cm^3
# Si number density = 17.407757 Si / 1000 Ang^3
#
#
#
# Elastic Constant Matrix: (Units=GPa)
#
#
# Indices 1 2 3 4 5 6 
#
# 1 81.1800 67.0185 55.1000 0.0000 0.0000 0.0000
# 2 67.0185 178.7158 90.8061 0.0000 0.0000 0.0000
# 3 55.1000 90.8061 176.7958 0.0000 0.0000 0.0000
# 4 0.0000 0.0000 0.0000 40.8116 0.0000 0.0000
# 5 0.0000 0.0000 0.0000 0.0000 105.3971 0.0000
# 6 0.0000 0.0000 0.0000 0.0000 0.0000 30.6831
#
#
#
# Elastic Compliance Matrix: (Units=1/GPa)
#
#
# Indices 1 2 3 4 5 6 
#
# 1 0.018991 -0.005567 -0.003059 0.000000 0.000000 0.000000
# 2 -0.005567 0.009203 -0.002992 0.000000 0.000000 0.000000
# 3 -0.003059 -0.002992 0.008146 0.000000 0.000000 0.000000
# 4 0.000000 0.000000 0.000000 0.024503 0.000000 0.000000
# 5 0.000000 0.000000 0.000000 0.000000 0.009488 0.000000
# 6 0.000000 0.000000 0.000000 0.000000 0.000000 0.032591
#
#
# Mechanical properties :
#
#
# Convention : Reuss Voigt Hill
#
# Bulk Modulus (GPa) = 76.31373 95.83789 86.07581
# Shear Modulus (GPa) = 38.30619 50.29615 44.30117
#
# Velocity S-wave (km/s) = 4.69606 5.38105 5.05018
# Velocity P-wave (km/s) = 8.56377 9.68410 9.14111
#
# Compressibility (1/GPa) = 0.01310380
#
# Stress axis : x y z
#
# Youngs Moduli (GPa) = 52.65739 108.65546 122.75286
#
# Poissons Ratio (x) = 0.60490 0.37553
# Poissons Ratio (y) = 0.29315 0.36728
# Poissons Ratio (z) = 0.16109 0.32510
#
# Static dielectric constant tensor:
#      x y z
#    x 2.872610 0.000000 0.000000 
#    y 0.000000 3.631460 0.000000 
#    z 0.000000 0.000000 -23.450360 
# 
# 
# High freq. dielectric constant tensor:
#      x y z
#    x 1.628610 0.000000 0.000000 
#    y 0.000000 1.694550 0.000000 
#    z 0.000000 0.000000 1.692390 
# 
# From -- ./inp_files/36130.got.cif
#   From: 2010.03.12/outbox.cif.g09.slc.cpg/sg65_19_cif.got.tgz:36130.got - 2010.04.10 20:52:16.
