data_PCOD8268330
_publ_section_title
;
Structure prediction by ZEFSAII (Michael W. Deem and Ramdas Pophale) SiO2 
 PCOD8268330
Probable space group: C M M M
;
_chemical_formula_sum "Si O2"
_cell_formula_units_Z 96
_cell_length_a 21.806459
_cell_length_b 17.557661
_cell_length_c 18.517362
_cell_angle_alpha 90.000000
_cell_angle_beta 90.000000
_cell_angle_gamma 90.000000
_cell_volume 7089.750069
_symmetry_space_group_name_H-M "C M M M"
_symmetry_group_IT_number 65
_symmetry_cell_setting 'orthorhombic'
loop_
_space_group_symop_operation_xyz
x,y,z
-x,-y,z
x,-y,-z
-x,y,-z
-x,-y,-z
x,y,-z
-x,y,z
x,-y,z
1/2+x,1/2+y,z
1/2-x,1/2-y,z
1/2+x,1/2-y,-z
1/2-x,1/2+y,-z
1/2-x,1/2-y,-z
1/2+x,1/2+y,-z
1/2-x,1/2+y,z
1/2+x,1/2-y,z
loop_
_atom_site_type_symbol
_atom_site_label
_atom_site_fract_x
_atom_site_fract_y
_atom_site_fract_z
Si Si1 0.927494 0.586693 0.500000
Si Si2 0.927289 0.414727 0.923697
Si Si3 0.863503 0.662859 0.634423
Si Si4 0.378592 0.671213 0.584272
Si Si5 0.571168 0.090429 0.232756
Si Si6 0.000000 0.085376 0.414300
Si Si7 0.254207 0.586971 0.583796
O O1 0.904088 0.500000 0.500000
O O2 0.903699 0.626150 0.571672
O O3 0.000000 0.592107 0.500000
O O4 0.900934 0.500000 0.926400
O O5 0.906750 0.378665 0.846905
O O6 0.000000 0.418480 0.921143
O O7 0.906507 0.373339 0.000000
O O8 0.868181 0.753588 0.631013
O O9 0.887935 0.635718 0.711051
O O10 0.792623 0.638770 0.628560
O O11 0.383288 0.693558 0.500000
O O12 0.440014 0.630278 0.612366
O O13 0.323119 0.613592 0.598439
O O14 0.500000 0.109357 0.246946
O O15 0.582061 0.000000 0.239846
O O16 0.000000 0.079827 0.500000
O O17 0.000000 0.000000 0.381537
O O18 0.236807 0.595835 0.500000
O O19 0.248412 0.500000 0.609196
#
# Coordination Sequence:
#
# PCOD8268330 Si02
#       7
#     8  16  16  16  16   8  16
#     4  11  22  30  37  50  76 115 150 169 185 225
#     4   7  10  19  35  52  71  99 135 170 198 227
#     4  12  20  28  41  56  82 106 139 167 203 238
#     4  10  20  31  45  60  76  97 133 177 217 247
#     4   9  17  26  36  54  81 111 141 168 197 234
#     4   9  18  32  48  62  74  92 127 176 223 255
#     4  10  19  32  46  57  73 100 137 177 214 248
#
# _framework density 13.540675
#
# number of rings (size 3 to 8) (size 9 to 14) (size 15 to 20)
#    0.000    2.333    1.667    4.500    2.333    4.667 
#    0.000    0.000    0.000    0.000    0.000    0.000 
#    0.000    2.667    0.000    0.333    0.000    3.500 
#
# Total GULP energy -594852.398360 kJ/mol
# GULP energy per Si atom -12392.758299 kJ/mol
# Density = 1.350986 g / cm^3
# Si number density = 13.540675 Si / 1000 Ang^3
#
#
#
# Elastic Constant Matrix: (Units=GPa)
#
#
# Indices 1 2 3 4 5 6 
#
# 1 80.3758 38.0421 30.6770 0.0000 0.0000 0.0000
# 2 38.0421 78.3836 24.8545 0.0000 0.0000 0.0000
# 3 30.6770 24.8545 90.1288 0.0000 0.0000 0.0000
# 4 0.0000 0.0000 0.0000 1.7099 0.0000 0.0000
# 5 0.0000 0.0000 0.0000 0.0000 13.4340 0.0000
# 6 0.0000 0.0000 0.0000 0.0000 0.0000 10.7277
#
#
#
# Elastic Compliance Matrix: (Units=1/GPa)
#
#
# Indices 1 2 3 4 5 6 
#
# 1 0.017331 -0.007168 -0.003922 0.000000 0.000000 0.000000
# 2 -0.007168 0.016945 -0.002233 0.000000 0.000000 0.000000
# 3 -0.003922 -0.002233 0.013046 0.000000 0.000000 0.000000
# 4 0.000000 0.000000 0.000000 0.584839 0.000000 0.000000
# 5 0.000000 0.000000 0.000000 0.000000 0.074438 0.000000
# 6 0.000000 0.000000 0.000000 0.000000 0.000000 0.093216
#
#
# Mechanical properties :
#
#
# Convention : Reuss Voigt Hill
#
# Bulk Modulus (GPa) = 48.36629 48.44836 48.40733
# Shear Modulus (GPa) = 5.99986 15.52863 10.76424
#
# Velocity S-wave (km/s) = 2.10728 3.39014 2.82256
# Velocity P-wave (km/s) = 6.45892 7.15413 6.81539
#
# Compressibility (1/GPa) = 0.02067556
#
# Stress axis : x y z
#
# Youngs Moduli (GPa) = 57.69990 59.01613 76.65123
#
# Poissons Ratio (x) = 0.42300 0.30065
# Poissons Ratio (y) = 0.41357 0.17117
# Poissons Ratio (z) = 0.22632 0.13179
#
# Static dielectric constant tensor:
#      x y z
#    x 2.628030 0.000000 0.000000 
#    y 0.000000 2.614460 0.000000 
#    z 0.000000 0.000000 2.041260 
# 
# 
# High freq. dielectric constant tensor:
#      x y z
#    x 1.507570 0.000000 0.000000 
#    y 0.000000 1.500470 0.000000 
#    z 0.000000 0.000000 1.485210 
# 
# From -- ./inp_files/54783.got.cif
#   From: 2010.03.12/outbox.cif.g09.slc.cpg/sg65_28_cif.got.tgz:54783.got - 2010.04.10 20:52:16.
