data_PCOD8268758
_publ_section_title
;
Structure prediction by ZEFSAII (Michael W. Deem and Ramdas Pophale) SiO2 
 PCOD8268758
Probable space group: C M M M
;
_chemical_formula_sum "Si O2"
_cell_formula_units_Z 104
_cell_length_a 21.795776
_cell_length_b 14.284713
_cell_length_c 17.761606
_cell_angle_alpha 90.000000
_cell_angle_beta 90.000000
_cell_angle_gamma 90.000000
_cell_volume 5530.012171
_symmetry_space_group_name_H-M "C M M M"
_symmetry_group_IT_number 65
_symmetry_cell_setting 'orthorhombic'
loop_
_space_group_symop_operation_xyz
x,y,z
-x,-y,z
x,-y,-z
-x,y,-z
-x,-y,-z
x,y,-z
-x,y,z
x,-y,z
1/2+x,1/2+y,z
1/2-x,1/2-y,z
1/2+x,1/2-y,-z
1/2-x,1/2+y,-z
1/2-x,1/2-y,-z
1/2+x,1/2+y,-z
1/2-x,1/2+y,z
1/2+x,1/2-y,z
loop_
_atom_site_type_symbol
_atom_site_label
_atom_site_fract_x
_atom_site_fract_y
_atom_site_fract_z
Si Si1 0.929312 0.606943 0.193274
Si Si2 0.000000 0.894951 0.590075
Si Si3 0.723670 0.395200 0.089128
Si Si4 0.864463 0.396273 0.349433
Si Si5 0.765707 0.894714 0.586005
Si Si6 0.116241 0.208255 0.586439
Si Si7 0.844709 0.286675 0.088948
O O1 0.923636 0.500000 0.164656
O O2 0.885650 0.623058 0.264864
O O3 0.906685 0.678333 0.129020
O O4 0.000000 0.630137 0.213355
O O5 0.059916 0.845569 0.625303
O O6 0.000000 0.886885 0.500000
O O7 0.000000 0.000000 0.618949
O O8 0.712367 0.500000 0.123330
O O9 0.790258 0.357066 0.113654
O O10 0.671976 0.319853 0.114971
O O11 0.722001 0.400911 0.000000
O O12 0.885686 0.500000 0.375937
O O13 0.791164 0.386495 0.357139
O O14 0.894898 0.318703 0.402822
O O15 0.745664 0.867142 0.500000
O O16 0.818215 0.826103 0.619080
O O17 0.792051 0.000000 0.586017
O O18 0.117061 0.180268 0.500000
O O19 0.855724 0.290000 0.000000
#
# Coordination Sequence:
#
# PCOD8268758 Si02
#       7
#    16   8  16  16  16  16  16
#     4  10  22  38  53  70  98 138 176 215 267 317
#     4   9  18  32  51  77 105 133 167 208 256 306
#     4   8  14  27  50  81 114 139 159 198 258 311
#     4  10  21  35  51  71 101 138 172 207 259 321
#     4   9  17  32  55  80 105 132 167 217 266 305
#     4  10  19  32  53  79 104 133 172 215 256 300
#     4   9  17  31  54  82 106 134 175 217 257 305
#
# _framework density 18.806469
#
# number of rings (size 3 to 8) (size 9 to 14) (size 15 to 20)
#    0.000    2.692    0.000    2.769    1.077    5.231 
#    5.538    0.769    0.000    2.769    0.000    2.154 
#    0.000    0.000    0.000    0.000    0.000    0.000 
#
# Total GULP energy -644469.414519 kJ/mol
# GULP energy per Si atom -12393.642587 kJ/mol
# Density = 1.876366 g / cm^3
# Si number density = 18.806469 Si / 1000 Ang^3
#
#
#
# Elastic Constant Matrix: (Units=GPa)
#
#
# Indices 1 2 3 4 5 6 
#
# 1 119.9712 63.4200 45.6763 0.0000 0.0000 0.0000
# 2 63.4200 150.2757 26.7357 0.0000 0.0000 0.0000
# 3 45.6763 26.7357 40.4683 0.0000 0.0000 0.0000
# 4 0.0000 0.0000 0.0000 16.7329 0.0000 0.0000
# 5 0.0000 0.0000 0.0000 0.0000 8.5662 0.0000
# 6 0.0000 0.0000 0.0000 0.0000 0.0000 31.3688
#
#
#
# Elastic Compliance Matrix: (Units=1/GPa)
#
#
# Indices 1 2 3 4 5 6 
#
# 1 0.016644 -0.004172 -0.016029 0.000000 0.000000 0.000000
# 2 -0.004172 0.008587 -0.000964 0.000000 0.000000 0.000000
# 3 -0.016029 -0.000964 0.043439 0.000000 0.000000 0.000000
# 4 0.000000 0.000000 0.000000 0.059763 0.000000 0.000000
# 5 0.000000 0.000000 0.000000 0.000000 0.116738 0.000000
# 6 0.000000 0.000000 0.000000 0.000000 0.000000 0.031879
#
#
# Mechanical properties :
#
#
# Convention : Reuss Voigt Hill
#
# Bulk Modulus (GPa) = 37.96575 64.70881 51.33728
# Shear Modulus (GPa) = 15.23655 22.99246 19.11451
#
# Velocity S-wave (km/s) = 2.84945 3.50034 3.19153
# Velocity P-wave (km/s) = 5.57290 7.12874 6.39829
#
# Compressibility (1/GPa) = 0.02633953
#
# Stress axis : x y z
#
# Youngs Moduli (GPa) = 60.08313 116.45961 23.02066
#
# Poissons Ratio (x) = 0.48590 0.36900
# Poissons Ratio (y) = 0.25068 0.02218
# Poissons Ratio (z) = 0.96308 0.11223
#
# Static dielectric constant tensor:
#      x y z
#    x 3.448050 0.000000 0.000000 
#    y 0.000000 3.849710 0.000000 
#    z 0.000000 0.000000 2.958520 
# 
# 
# High freq. dielectric constant tensor:
#      x y z
#    x 1.719480 0.000000 0.000000 
#    y 0.000000 1.746750 0.000000 
#    z 0.000000 0.000000 1.679880 
# 
# From -- ./inp_files/56809.got.cif
#   From: 2010.03.12/outbox.cif.g09.slc.cpg/sg65_29_cif.got.tgz:56809.got - 2010.04.10 20:52:16.
