data_PCOD8268638
_publ_section_title
;
Structure prediction by ZEFSAII (Michael W. Deem and Ramdas Pophale) SiO2 
 PCOD8268638
Probable space group: C M M M
;
_chemical_formula_sum "Si O2"
_cell_formula_units_Z 96
_cell_length_a 9.147687
_cell_length_b 23.957219
_cell_length_c 25.439067
_cell_angle_alpha 90.000000
_cell_angle_beta 90.000000
_cell_angle_gamma 90.000000
_cell_volume 5575.051432
_symmetry_space_group_name_H-M "C M M M"
_symmetry_group_IT_number 65
_symmetry_cell_setting 'orthorhombic'
loop_
_space_group_symop_operation_xyz
x,y,z
-x,-y,z
x,-y,-z
-x,y,-z
-x,-y,-z
x,y,-z
-x,y,z
x,-y,z
1/2+x,1/2+y,z
1/2-x,1/2-y,z
1/2+x,1/2-y,-z
1/2-x,1/2+y,-z
1/2-x,1/2-y,-z
1/2+x,1/2+y,-z
1/2-x,1/2+y,z
1/2+x,1/2-y,z
loop_
_atom_site_type_symbol
_atom_site_label
_atom_site_fract_x
_atom_site_fract_y
_atom_site_fract_z
Si Si1 0.826153 0.936792 0.557848
Si Si2 0.828259 0.000000 0.170501
Si Si3 0.673580 0.611925 0.337160
Si Si4 0.170056 0.306403 0.939610
Si Si5 0.828190 0.808504 0.247058
Si Si6 0.670778 0.378483 0.856967
Si Si7 0.325114 0.500000 0.714474
O O1 0.767890 0.918647 0.500000
O O2 0.773797 0.890862 0.601510
O O3 0.000000 0.937993 0.557803
O O4 0.771733 0.000000 0.571105
O O5 0.782270 0.056564 0.141202
O O6 0.756378 0.000000 0.227738
O O7 0.000000 0.000000 0.179244
O O8 0.500000 0.612961 0.333188
O O9 0.730540 0.664201 0.302165
O O10 0.736091 0.554915 0.313352
O O11 0.250000 0.250000 0.923119
O O12 0.232771 0.354668 0.903638
O O13 0.000000 0.298024 0.928505
O O14 0.201443 0.322084 0.000000
O O15 0.750000 0.750000 0.237369
O O16 0.791233 0.850446 0.199159
O O17 0.000000 0.797130 0.249825
O O18 0.500000 0.370292 0.869527
O O19 0.500000 0.500000 0.713763
#
# Coordination Sequence:
#
# PCOD8268638 Si02
#       7
#    16   8  16  16  16  16   8
#     4   8  12  17  29  54  87 117 143 179 231 282
#     4   9  16  28  46  71  99 125 156 190 229 284
#     4   9  14  22  38  60  88 119 150 186 232 281
#     4  10  21  37  56  76  98 127 163 200 237 277
#     4  10  20  31  45  67  93 123 157 192 232 276
#     4  10  19  32  52  76 100 125 156 195 237 283
#     4   9  12  20  39  62  87 117 150 185 228 279
#
# _framework density 17.219573
#
# number of rings (size 3 to 8) (size 9 to 14) (size 15 to 20)
#    0.000    2.667    2.500    1.500    0.000    3.000 
#    0.000    0.833    0.000    3.000    0.000    0.583 
#    0.000    0.000    0.000    1.833    0.000    1.667 
#
# Total GULP energy -594701.406186 kJ/mol
# GULP energy per Si atom -12389.612629 kJ/mol
# Density = 1.718038 g / cm^3
# Si number density = 17.219573 Si / 1000 Ang^3
#
#
#
# Elastic Constant Matrix: (Units=GPa)
#
#
# Indices 1 2 3 4 5 6 
#
# 1 31.5929 34.6176 34.3073 0.0000 0.0000 0.0000
# 2 34.6176 121.9731 61.9357 0.0000 0.0000 0.0000
# 3 34.3073 61.9357 111.7442 0.0000 0.0000 0.0000
# 4 0.0000 0.0000 0.0000 28.9708 0.0000 0.0000
# 5 0.0000 0.0000 0.0000 0.0000 10.5130 0.0000
# 6 0.0000 0.0000 0.0000 0.0000 0.0000 17.2674
#
#
#
# Elastic Compliance Matrix: (Units=1/GPa)
#
#
# Indices 1 2 3 4 5 6 
#
# 1 0.054697 -0.009737 -0.011396 0.000000 0.000000 0.000000
# 2 -0.009737 0.013143 -0.004295 0.000000 0.000000 0.000000
# 3 -0.011396 -0.004295 0.014828 0.000000 0.000000 0.000000
# 4 0.000000 0.000000 0.000000 0.034517 0.000000 0.000000
# 5 0.000000 0.000000 0.000000 0.000000 0.095121 0.000000
# 6 0.000000 0.000000 0.000000 0.000000 0.000000 0.057913
#
#
# Mechanical properties :
#
#
# Convention : Reuss Voigt Hill
#
# Bulk Modulus (GPa) = 31.43473 58.55903 44.99688
# Shear Modulus (GPa) = 15.07477 20.31355 17.69416
#
# Velocity S-wave (km/s) = 2.96200 3.43837 3.20904
# Velocity P-wave (km/s) = 5.47657 7.06005 6.31811
#
# Compressibility (1/GPa) = 0.03181195
#
# Stress axis : x y z
#
# Youngs Moduli (GPa) = 18.28251 76.08538 67.43781
#
# Poissons Ratio (x) = 0.74085 0.76852
# Poissons Ratio (y) = 0.17802 0.28967
# Poissons Ratio (z) = 0.20835 0.32681
#
# Static dielectric constant tensor:
#      x y z
#    x 2.700280 0.000000 0.000000 
#    y 0.000000 3.334940 0.000000 
#    z 0.000000 0.000000 3.534400 
# 
# 
# High freq. dielectric constant tensor:
#      x y z
#    x 1.608060 0.000000 0.000000 
#    y 0.000000 1.653110 0.000000 
#    z 0.000000 0.000000 1.675720 
# 
# From -- ./inp_files/73526.got.cif
#   From: 2010.03.12/outbox.cif.g09.slc.cpg/sg65_37_cif.got.tgz:73526.got - 2010.04.10 20:52:16.
