data_PCOD8268001
_publ_section_title
;
Structure prediction by ZEFSAII (Michael W. Deem and Ramdas Pophale) SiO2 
 PCOD8268001
Probable space group: C M M M
;
_chemical_formula_sum "Si O2"
_cell_formula_units_Z 88
_cell_length_a 13.451724
_cell_length_b 17.520845
_cell_length_c 21.228537
_cell_angle_alpha 90.000000
_cell_angle_beta 90.000000
_cell_angle_gamma 90.000000
_cell_volume 5003.259868
_symmetry_space_group_name_H-M "C M M M"
_symmetry_group_IT_number 65
_symmetry_cell_setting 'orthorhombic'
loop_
_space_group_symop_operation_xyz
x,y,z
-x,-y,z
x,-y,-z
-x,y,-z
-x,-y,-z
x,y,-z
-x,y,z
x,-y,z
1/2+x,1/2+y,z
1/2-x,1/2-y,z
1/2+x,1/2-y,-z
1/2-x,1/2+y,-z
1/2-x,1/2-y,-z
1/2+x,1/2+y,-z
1/2-x,1/2+y,z
1/2+x,1/2-y,z
loop_
_atom_site_type_symbol
_atom_site_label
_atom_site_fract_x
_atom_site_fract_y
_atom_site_fract_z
Si Si1 0.614860 0.813815 0.804445
Si Si2 0.765415 0.913974 0.120926
Si Si3 0.113785 0.859732 0.772975
Si Si4 0.610961 0.090061 0.570666
Si Si5 0.886494 0.909432 0.000000
Si Si6 0.226732 0.664289 0.680522
O O1 0.500000 0.831223 0.817164
O O2 0.676172 0.856901 0.859421
O O3 0.637408 0.723371 0.803810
O O4 0.644230 0.844858 0.735422
O O5 0.846761 0.920234 0.176540
O O6 0.724129 0.000000 0.108820
O O7 0.823540 0.881097 0.060212
O O8 0.170888 0.871512 0.707006
O O9 0.000000 0.873254 0.757831
O O10 0.639865 0.116044 0.500000
O O11 0.500000 0.120497 0.587087
O O12 0.692041 0.121779 0.618382
O O13 0.611718 0.000000 0.575526
O O14 0.000000 0.875550 0.000000
O O15 0.894753 0.000000 0.000000
O O16 0.250000 0.750000 0.660535
#
# Coordination Sequence:
#
# PCOD8268001 Si02
#       6
#    16  16  16  16   8  16
#     4   9  18  33  50  69  97 127 152 187 239 291
#     4  10  19  31  49  72  94 120 159 200 235 277
#     4   9  18  33  50  69  96 126 154 190 237 283
#     4   9  18  32  49  70  97 127 158 195 239 283
#     4   9  18  32  48  67  95 129 161 196 238 280
#     4   9  17  29  48  72  95 122 157 194 232 278
#
# _framework density 17.588533000000002
#
# number of rings (size 3 to 8) (size 9 to 14) (size 15 to 20)
#    0.000    2.818    0.000    3.273    0.000    5.455 
#    0.000    2.273    0.000    4.364    0.000    1.273 
#    0.000    0.000    0.000    0.000    0.000    0.000 
#
# Total GULP energy -545354.728981 kJ/mol
# GULP energy per Si atom -12394.425659 kJ/mol
# Density = 1.754850 g / cm^3
# Si number density = 17.588533 Si / 1000 Ang^3
#
#
#
# Elastic Constant Matrix: (Units=GPa)
#
#
# Indices 1 2 3 4 5 6 
#
# 1 124.8982 26.6297 61.7701 0.0000 0.0000 0.0000
# 2 26.6297 31.7468 23.6183 0.0000 0.0000 0.0000
# 3 61.7701 23.6183 109.2434 0.0000 0.0000 0.0000
# 4 0.0000 0.0000 0.0000 25.7255 0.0000 0.0000
# 5 0.0000 0.0000 0.0000 0.0000 28.2729 0.0000
# 6 0.0000 0.0000 0.0000 0.0000 0.0000 26.4273
#
#
#
# Elastic Compliance Matrix: (Units=1/GPa)
#
#
# Indices 1 2 3 4 5 6 
#
# 1 0.011997 -0.005978 -0.005491 0.000000 0.000000 0.000000
# 2 -0.005978 0.040516 -0.005379 0.000000 0.000000 0.000000
# 3 -0.005491 -0.005379 0.013422 0.000000 0.000000 0.000000
# 4 0.000000 0.000000 0.000000 0.038872 0.000000 0.000000
# 5 0.000000 0.000000 0.000000 0.000000 0.035370 0.000000
# 6 0.000000 0.000000 0.000000 0.000000 0.000000 0.037840
#
#
# Mechanical properties :
#
#
# Convention : Reuss Voigt Hill
#
# Bulk Modulus (GPa) = 31.01968 54.43607 42.72788
# Shear Modulus (GPa) = 22.47622 26.34316 24.40969
#
# Velocity S-wave (km/s) = 3.57864 3.87427 3.72939
# Velocity P-wave (km/s) = 5.89492 7.14355 6.54906
#
# Compressibility (1/GPa) = 0.03223760
#
# Stress axis : x y z
#
# Youngs Moduli (GPa) = 83.35611 24.68184 74.50664
#
# Poissons Ratio (x) = 0.14755 0.40911
# Poissons Ratio (y) = 0.49830 0.40079
# Poissons Ratio (z) = 0.45770 0.13277
#
# Static dielectric constant tensor:
#      x y z
#    x 3.425320 0.000000 0.000000 
#    y 0.000000 3.065480 0.000000 
#    z 0.000000 0.000000 3.193950 
# 
# 
# High freq. dielectric constant tensor:
#      x y z
#    x 1.682340 0.000000 0.000000 
#    y 0.000000 1.660850 0.000000 
#    z 0.000000 0.000000 1.668790 
# 
# From -- ./inp_files/52999.got.cif
#   From: 2010.03.12/outbox.cif.g09.slc.cpg/sg65_27_cif.got.tgz:52999.got - 2010.04.10 20:52:16.
