data_PCOD8268539
_publ_section_title
;
Structure prediction by ZEFSAII (Michael W. Deem and Ramdas Pophale) SiO2 
 PCOD8268539
Probable space group: C M M M
;
_chemical_formula_sum "Si O2"
_cell_formula_units_Z 88
_cell_length_a 20.189834
_cell_length_b 8.157982
_cell_length_c 29.089201
_cell_angle_alpha 90.000000
_cell_angle_beta 90.000000
_cell_angle_gamma 90.000000
_cell_volume 4791.232914
_symmetry_space_group_name_H-M "C M M M"
_symmetry_group_IT_number 65
_symmetry_cell_setting 'orthorhombic'
loop_
_space_group_symop_operation_xyz
x,y,z
-x,-y,z
x,-y,-z
-x,y,-z
-x,-y,-z
x,y,-z
-x,y,z
x,-y,z
1/2+x,1/2+y,z
1/2-x,1/2-y,z
1/2+x,1/2-y,-z
1/2-x,1/2+y,-z
1/2-x,1/2-y,-z
1/2+x,1/2+y,-z
1/2-x,1/2+y,z
1/2+x,1/2-y,z
loop_
_atom_site_type_symbol
_atom_site_label
_atom_site_fract_x
_atom_site_fract_y
_atom_site_fract_z
Si Si1 0.678332 0.305953 0.275704
Si Si2 0.924505 0.308003 0.551772
Si Si3 0.421076 0.000000 0.947587
Si Si4 0.578561 0.682248 0.106255
Si Si5 0.574942 0.189189 0.203153
Si Si6 0.818717 0.811987 0.621880
O O1 0.670685 0.500000 0.272341
O O2 0.750000 0.250000 0.256984
O O3 0.621414 0.222321 0.246208
O O4 0.668816 0.234601 0.327655
O O5 0.906465 0.252274 0.500000
O O6 0.913365 0.500000 0.557051
O O7 0.878833 0.216281 0.587642
O O8 0.000000 0.260413 0.562828
O O9 0.392395 0.167609 0.924366
O O10 0.500000 0.000000 0.943622
O O11 0.396976 0.000000 0.000000
O O12 0.500000 0.687932 0.102210
O O13 0.604037 0.500000 0.090470
O O14 0.599673 0.707442 0.159245
O O15 0.500000 0.238993 0.216921
O O16 0.577817 0.000000 0.188742
O O17 0.750000 0.750000 0.599607
O O18 0.809510 0.000000 0.630984
#
# Coordination Sequence:
#
# PCOD8268539 Si02
#       6
#    16  16   8  16  16  16
#     4  10  21  36  52  73 102 135 169 212 261 307
#     4   9  19  36  56  77 102 132 166 207 254 303
#     4   9  16  26  40  62  96 134 172 214 260 316
#     4   9  16  27  43  64  94 132 171 214 262 309
#     4  10  19  32  51  74 101 136 175 213 258 312
#     4  10  21  36  54  75 101 133 169 208 255 308
#
# _framework density 18.366879999999998
#
# number of rings (size 3 to 8) (size 9 to 14) (size 15 to 20)
#    0.000    2.455    0.909    2.182    0.000    5.455 
#    0.000    6.364    0.000    0.000    0.000    0.000 
#    0.000    0.727    0.364    0.000    0.000    0.000 
#
# Total GULP energy -545436.884419 kJ/mol
# GULP energy per Si atom -12396.292828 kJ/mol
# Density = 1.832508 g / cm^3
# Si number density = 18.366880 Si / 1000 Ang^3
#
#
#
# Elastic Constant Matrix: (Units=GPa)
#
#
# Indices 1 2 3 4 5 6 
#
# 1 71.0946 24.4613 51.0212 0.0000 0.0000 0.0000
# 2 24.4613 91.1361 43.2445 0.0000 0.0000 0.0000
# 3 51.0212 43.2445 100.7966 0.0000 0.0000 0.0000
# 4 0.0000 0.0000 0.0000 28.7483 0.0000 0.0000
# 5 0.0000 0.0000 0.0000 0.0000 -5.6770 0.0000
# 6 0.0000 0.0000 0.0000 0.0000 0.0000 24.6005
#
#
#
# Elastic Compliance Matrix: (Units=1/GPa)
#
#
# Indices 1 2 3 4 5 6 
#
# 1 0.022135 -0.000784 -0.010868 0.000000 0.000000 0.000000
# 2 -0.000784 0.013805 -0.005526 0.000000 0.000000 0.000000
# 3 -0.010868 -0.005526 0.017793 0.000000 0.000000 0.000000
# 4 0.000000 0.000000 0.000000 0.034785 0.000000 0.000000
# 5 0.000000 0.000000 0.000000 0.000000 -0.176148 0.000000
# 6 0.000000 0.000000 0.000000 0.000000 0.000000 0.040650
#
#
# Mechanical properties :
#
#
# Convention : Reuss Voigt Hill
#
# Bulk Modulus (GPa) = 51.60740 55.60905 53.60823
# Shear Modulus (GPa) = -810.77981 19.15437 -395.81272
#
# Velocity S-wave (km/s) = -21.03317 3.23286 -14.69596
# Velocity P-wave (km/s) = 23.70021 6.65415 16.08450
#
# Compressibility (1/GPa) = 0.01937707
#
# Stress axis : x y z
#
# Youngs Moduli (GPa) = 45.17758 72.43692 56.20282
#
# Poissons Ratio (x) = 0.05681 0.61080
# Poissons Ratio (y) = 0.03543 0.31056
# Poissons Ratio (z) = 0.49098 0.40027
#
# Static dielectric constant tensor:
#      x y z
#    x 3.042140 0.000000 0.000000 
#    y 0.000000 3.544490 0.000000 
#    z 0.000000 0.000000 3.467750 
# 
# 
# High freq. dielectric constant tensor:
#      x y z
#    x 1.673620 0.000000 0.000000 
#    y 0.000000 1.725310 0.000000 
#    z 0.000000 0.000000 1.708390 
# 
# From -- ./inp_files/70949.got.cif
#   From: 2010.03.12/outbox.cif.g09.slc.cpg/sg65_36_cif.got.tgz:70949.got - 2010.04.10 20:52:16.
