data_PCOD8268428
_publ_section_title
;
Structure prediction by ZEFSAII (Michael W. Deem and Ramdas Pophale) SiO2 
 PCOD8268428
Probable space group: C M M M
;
_chemical_formula_sum "Si O2"
_cell_formula_units_Z 72
_cell_length_a 20.778368
_cell_length_b 17.347419
_cell_length_c 11.949216
_cell_angle_alpha 90.000000
_cell_angle_beta 90.000000
_cell_angle_gamma 90.000000
_cell_volume 4307.107524
_symmetry_space_group_name_H-M "C M M M"
_symmetry_group_IT_number 65
_symmetry_cell_setting 'orthorhombic'
loop_
_space_group_symop_operation_xyz
x,y,z
-x,-y,z
x,-y,-z
-x,y,-z
-x,-y,-z
x,y,-z
-x,y,z
x,-y,z
1/2+x,1/2+y,z
1/2-x,1/2-y,z
1/2+x,1/2-y,-z
1/2-x,1/2+y,-z
1/2-x,1/2-y,-z
1/2+x,1/2+y,-z
1/2-x,1/2+y,z
1/2+x,1/2-y,z
loop_
_atom_site_type_symbol
_atom_site_label
_atom_site_fract_x
_atom_site_fract_y
_atom_site_fract_z
Si Si1 0.927998 0.091117 0.000000
Si Si2 0.000000 0.090742 0.376538
Si Si3 0.075714 0.500000 0.378530
Si Si4 0.180457 0.785807 0.628801
Si Si5 0.623326 0.590521 0.763172
Si Si6 0.072574 0.666173 0.366564
O O1 0.888214 0.116689 0.890899
O O2 0.000000 0.127487 0.000000
O O3 0.936606 0.000000 0.000000
O O4 0.061950 0.116959 0.308781
O O5 0.000000 0.130008 0.500000
O O6 0.000000 0.000000 0.389625
O O7 0.110379 0.500000 0.500000
O O8 0.092845 0.581185 0.316301
O O9 0.000000 0.500000 0.397377
O O10 0.167565 0.809106 0.500000
O O11 0.250000 0.750000 0.642976
O O12 0.181312 0.861723 0.707656
O O13 0.125207 0.727837 0.674155
O O14 0.638187 0.500000 0.754039
O O15 0.073790 0.659071 0.500000
O O16 0.000000 0.689997 0.327122
#
# Coordination Sequence:
#
# PCOD8268428 Si02
#       6
#     8   8   8  16  16  16
#     4   9  16  30  51  76 100 125 163 216 259 284
#     4   9  16  25  43  73 101 125 154 187 228 291
#     4   7  10  20  38  60  80 101 144 196 233 269
#     4  10  21  34  44  65 103 136 164 200 244 300
#     4  10  19  32  50  71  98 130 166 205 248 299
#     4   8  14  25  43  63  84 116 156 197 237 280
#
# _framework density 16.716555
#
# number of rings (size 3 to 8) (size 9 to 14) (size 15 to 20)
#    0.000    3.000    1.111    2.000    1.556    1.333 
#    2.000    0.556    0.000    0.000    0.000    0.000 
#    0.000    0.000    0.000    5.000    0.000    1.444 
#
# Total GULP energy -446015.152018 kJ/mol
# GULP energy per Si atom -12389.309778 kJ/mol
# Density = 1.667851 g / cm^3
# Si number density = 16.716555 Si / 1000 Ang^3
#
#
#
# Elastic Constant Matrix: (Units=GPa)
#
#
# Indices 1 2 3 4 5 6 
#
# 1 70.3892 42.8562 32.9555 0.0000 0.0000 0.0000
# 2 42.8562 86.1134 39.5469 0.0000 0.0000 0.0000
# 3 32.9555 39.5469 98.8382 0.0000 0.0000 0.0000
# 4 0.0000 0.0000 0.0000 13.9910 0.0000 0.0000
# 5 0.0000 0.0000 0.0000 0.0000 22.6237 0.0000
# 6 0.0000 0.0000 0.0000 0.0000 0.0000 19.2969
#
#
#
# Elastic Compliance Matrix: (Units=1/GPa)
#
#
# Indices 1 2 3 4 5 6 
#
# 1 0.021332 -0.009005 -0.003510 0.000000 0.000000 0.000000
# 2 -0.009005 0.018028 -0.004211 0.000000 0.000000 0.000000
# 3 -0.003510 -0.004211 0.012973 0.000000 0.000000 0.000000
# 4 0.000000 0.000000 0.000000 0.071474 0.000000 0.000000
# 5 0.000000 0.000000 0.000000 0.000000 0.044202 0.000000
# 6 0.000000 0.000000 0.000000 0.000000 0.000000 0.051822
#
#
# Mechanical properties :
#
#
# Convention : Reuss Voigt Hill
#
# Bulk Modulus (GPa) = 52.96024 54.00646 53.48335
# Shear Modulus (GPa) = 19.26223 20.51447 19.88835
#
# Velocity S-wave (km/s) = 3.39821 3.50693 3.45300
# Velocity P-wave (km/s) = 6.86638 6.98394 6.92541
#
# Compressibility (1/GPa) = 0.01888209
#
# Stress axis : x y z
#
# Youngs Moduli (GPa) = 46.87691 55.47011 77.08510
#
# Poissons Ratio (x) = 0.49949 0.27056
# Poissons Ratio (y) = 0.42211 0.32459
# Poissons Ratio (z) = 0.16454 0.23357
#
# Static dielectric constant tensor:
#      x y z
#    x 2.970990 0.000000 0.000000 
#    y 0.000000 3.317460 0.000000 
#    z 0.000000 0.000000 2.925690 
# 
# 
# High freq. dielectric constant tensor:
#      x y z
#    x 1.620960 0.000000 0.000000 
#    y 0.000000 1.645970 0.000000 
#    z 0.000000 0.000000 1.595270 
# 
# From -- ./inp_files/28518.got.cif
#   From: 2010.03.12/outbox.cif.g09.slc.cpg/sg65_15_cif.got.tgz:28518.got - 2010.04.10 20:52:16.
