data_PCOD8268042
_publ_section_title
;
Structure prediction by ZEFSAII (Michael W. Deem and Ramdas Pophale) SiO2 
 PCOD8268042
Probable space group: C M M M
;
_chemical_formula_sum "Si O2"
_cell_formula_units_Z 88
_cell_length_a 18.423642
_cell_length_b 7.836832
_cell_length_c 30.059659
_cell_angle_alpha 90.000000
_cell_angle_beta 90.000000
_cell_angle_gamma 90.000000
_cell_volume 4340.103360
_symmetry_space_group_name_H-M "C M M M"
_symmetry_group_IT_number 65
_symmetry_cell_setting 'orthorhombic'
loop_
_space_group_symop_operation_xyz
x,y,z
-x,-y,z
x,-y,-z
-x,y,-z
-x,-y,-z
x,y,-z
-x,y,z
x,-y,z
1/2+x,1/2+y,z
1/2-x,1/2-y,z
1/2+x,1/2-y,-z
1/2-x,1/2+y,-z
1/2-x,1/2-y,-z
1/2+x,1/2+y,-z
1/2-x,1/2+y,z
1/2+x,1/2-y,z
loop_
_atom_site_type_symbol
_atom_site_label
_atom_site_fract_x
_atom_site_fract_y
_atom_site_fract_z
Si Si1 0.666856 0.200464 0.642608
Si Si2 0.580037 0.305933 0.726288
Si Si3 0.666763 0.798973 0.453043
Si Si4 0.583395 0.806259 0.180100
Si Si5 0.916465 0.500000 0.947416
Si Si6 0.166785 0.194286 0.901151
O O1 0.750000 0.250000 0.645357
O O2 0.627676 0.293748 0.682491
O O3 0.634004 0.265276 0.594392
O O4 0.656214 0.000000 0.648230
O O5 0.500000 0.235199 0.714594
O O6 0.576825 0.500000 0.741730
O O7 0.611637 0.204126 0.768833
O O8 0.631248 0.728232 0.500000
O O9 0.750000 0.750000 0.453449
O O10 0.659313 0.000000 0.453129
O O11 0.500000 0.741163 0.177856
O O12 0.634502 0.693468 0.148725
O O13 0.589346 0.000000 0.163033
O O14 0.878408 0.673854 0.931122
O O15 0.000000 0.500000 0.930790
O O16 0.911755 0.500000 0.000000
O O17 0.250000 0.250000 0.900030
O O18 0.160477 0.000000 0.919850
#
# Coordination Sequence:
#
# PCOD8268042 Si02
#       6
#    16  16  16  16   8  16
#     4  10  19  31  49  73 102 134 173 221 279 338
#     4  10  21  36  53  77 108 147 191 233 284 344
#     4   8  14  25  42  65  92 123 162 212 269 332
#     4  10  20  37  62  89 120 156 199 250 302 366
#     4  11  26  48  72 102 139 179 227 275 321 385
#     4  12  24  43  68 101 137 176 219 269 330 383
#
# _framework density 20.276014
#
# number of rings (size 3 to 8) (size 9 to 14) (size 15 to 20)
#    0.000    1.909    1.818    2.182    0.000    5.455 
#    0.000    4.545    0.000    0.545    0.000    3.818 
#    0.000    0.000    0.000    0.000    0.000    0.000 
#
# Total GULP energy -545110.866845 kJ/mol
# GULP energy per Si atom -12388.883337 kJ/mol
# Density = 2.022986 g / cm^3
# Si number density = 20.276014 Si / 1000 Ang^3
#
#
#
# Elastic Constant Matrix: (Units=GPa)
#
#
# Indices 1 2 3 4 5 6 
#
# 1 89.7213 33.7269 56.1629 0.0000 0.0000 0.0000
# 2 33.7269 96.0180 30.2965 0.0000 0.0000 0.0000
# 3 56.1629 30.2965 129.8281 0.0000 0.0000 0.0000
# 4 0.0000 0.0000 0.0000 20.1141 0.0000 0.0000
# 5 0.0000 0.0000 0.0000 0.0000 -324.9167 0.0000
# 6 0.0000 0.0000 0.0000 0.0000 0.0000 24.1454
#
#
#
# Elastic Compliance Matrix: (Units=1/GPa)
#
#
# Indices 1 2 3 4 5 6 
#
# 1 0.016489 -0.003823 -0.006241 0.000000 0.000000 0.000000
# 2 -0.003823 0.012129 -0.001177 0.000000 0.000000 0.000000
# 3 -0.006241 -0.001177 0.010677 0.000000 0.000000 0.000000
# 4 0.000000 0.000000 0.000000 0.049716 0.000000 0.000000
# 5 0.000000 0.000000 0.000000 0.000000 -0.003078 0.000000
# 6 0.000000 0.000000 0.000000 0.000000 0.000000 0.041416
#
#
# Mechanical properties :
#
#
# Convention : Reuss Voigt Hill
#
# Bulk Modulus (GPa) = 59.47416 61.77111 60.62264
# Shear Modulus (GPa) = 32.16770 -43.10605 -5.46917
#
# Velocity S-wave (km/s) = 3.98740 -4.61582 -1.64415
# Velocity P-wave (km/s) = 7.11302 1.45724 5.13413
#
# Compressibility (1/GPa) = 0.01681403
#
# Stress axis : x y z
#
# Youngs Moduli (GPa) = 60.64501 82.44876 93.65958
#
# Poissons Ratio (x) = 0.31518 0.58454
# Poissons Ratio (y) = 0.23183 0.11021
# Poissons Ratio (z) = 0.37850 0.09701
#
# Static dielectric constant tensor:
#      x y z
#    x 3.407350 0.000000 0.000000 
#    y 0.000000 4.061700 0.000000 
#    z 0.000000 0.000000 4.136730 
# 
# 
# High freq. dielectric constant tensor:
#      x y z
#    x 1.753390 0.000000 0.000000 
#    y 0.000000 1.795130 0.000000 
#    z 0.000000 0.000000 1.814500 
# 
# From -- ./inp_files/77824.got.cif
#   From: 2010.03.12/outbox.cif.g09.slc.cpg/sg65_39_cif.got.tgz:77824.got - 2010.04.10 20:52:16.
