data_PCOD8268949
_publ_section_title
;
Structure prediction by ZEFSAII (Michael W. Deem and Ramdas Pophale) SiO2 
 PCOD8268949
Probable space group: C M M M
;
_chemical_formula_sum "Si O2"
_cell_formula_units_Z 72
_cell_length_a 27.274528
_cell_length_b 8.727298
_cell_length_c 16.275571
_cell_angle_alpha 90.000000
_cell_angle_beta 90.000000
_cell_angle_gamma 90.000000
_cell_volume 3874.121912
_symmetry_space_group_name_H-M "C M M M"
_symmetry_group_IT_number 65
_symmetry_cell_setting 'orthorhombic'
loop_
_space_group_symop_operation_xyz
x,y,z
-x,-y,z
x,-y,-z
-x,y,-z
-x,-y,-z
x,y,-z
-x,y,z
x,-y,z
1/2+x,1/2+y,z
1/2-x,1/2-y,z
1/2+x,1/2-y,-z
1/2-x,1/2+y,-z
1/2-x,1/2-y,-z
1/2+x,1/2+y,-z
1/2-x,1/2+y,z
1/2+x,1/2-y,z
loop_
_atom_site_type_symbol
_atom_site_label
_atom_site_fract_x
_atom_site_fract_y
_atom_site_fract_z
Si Si1 0.148182 0.680282 0.410363
Si Si2 0.393695 0.680124 0.834312
Si Si3 0.698202 0.181573 0.752881
Si Si4 0.055090 0.322828 0.686095
Si Si5 0.444733 0.681989 0.000000
O O1 0.160351 0.754130 0.500000
O O2 0.155031 0.500000 0.416334
O O3 0.183849 0.743570 0.338633
O O4 0.091934 0.720804 0.387632
O O5 0.383962 0.500000 0.835375
O O6 0.342282 0.764569 0.818065
O O7 0.433611 0.719979 0.765158
O O8 0.415269 0.740104 0.920386
O O9 0.750000 0.250000 0.779355
O O10 0.700773 0.000000 0.754183
O O11 0.062771 0.500000 0.711370
O O12 0.000000 0.290386 0.655572
O O13 0.448011 0.500000 0.000000
O O14 0.500000 0.750207 0.000000
#
# Coordination Sequence:
#
# PCOD8268949 Si02
#       5
#    16  16  16  16   8
#     4   8  15  28  46  70  99 129 163 204 246 290
#     4  10  19  33  53  75 100 130 165 204 246 292
#     4  10  20  35  54  75  99 128 164 204 248 297
#     4   9  17  29  46  70 101 135 169 204 243 290
#     4   9  18  32  52  79 106 131 162 199 238 285
#
# _framework density 18.584855999999998
#
# number of rings (size 3 to 8) (size 9 to 14) (size 15 to 20)
#    0.000    2.778    0.000    3.333    0.000    2.222 
#    0.000    5.000    0.000   20.000    0.000    6.222 
#    0.000    0.000    0.000    0.000    0.000    0.000 
#
# Total GULP energy -446270.521249 kJ/mol
# GULP energy per Si atom -12396.403368 kJ/mol
# Density = 1.854256 g / cm^3
# Si number density = 18.584856 Si / 1000 Ang^3
#
#
#
# Elastic Constant Matrix: (Units=GPa)
#
#
# Indices 1 2 3 4 5 6 
#
# 1 137.5218 28.0786 48.7423 0.0000 0.0000 0.0000
# 2 28.0786 45.6726 20.8700 0.0000 0.0000 0.0000
# 3 48.7423 20.8700 121.9804 0.0000 0.0000 0.0000
# 4 0.0000 0.0000 0.0000 19.0141 0.0000 0.0000
# 5 0.0000 0.0000 0.0000 0.0000 15.4790 0.0000
# 6 0.0000 0.0000 0.0000 0.0000 0.0000 25.5606
#
#
#
# Elastic Compliance Matrix: (Units=1/GPa)
#
#
# Indices 1 2 3 4 5 6 
#
# 1 0.009192 -0.004310 -0.002936 0.000000 0.000000 0.000000
# 2 -0.004310 0.025772 -0.002687 0.000000 0.000000 0.000000
# 3 -0.002936 -0.002687 0.009831 0.000000 0.000000 0.000000
# 4 0.000000 0.000000 0.000000 0.052593 0.000000 0.000000
# 5 0.000000 0.000000 0.000000 0.000000 0.064604 0.000000
# 6 0.000000 0.000000 0.000000 0.000000 0.000000 0.039123
#
#
# Mechanical properties :
#
#
# Convention : Reuss Voigt Hill
#
# Bulk Modulus (GPa) = 40.11243 55.61741 47.86492
# Shear Modulus (GPa) = 21.80649 25.84301 23.82475
#
# Velocity S-wave (km/s) = 3.42913 3.73304 3.58431
# Velocity P-wave (km/s) = 6.10810 6.96936 6.55289
#
# Compressibility (1/GPa) = 0.02492993
#
# Stress axis : x y z
#
# Youngs Moduli (GPa) = 108.79029 38.80113 101.71991
#
# Poissons Ratio (x) = 0.16722 0.29862
# Poissons Ratio (y) = 0.46884 0.27336
# Poissons Ratio (z) = 0.31937 0.10427
#
# Static dielectric constant tensor:
#      x y z
#    x 3.511530 0.000000 0.000000 
#    y 0.000000 3.116640 0.000000 
#    z 0.000000 0.000000 3.615520 
# 
# 
# High freq. dielectric constant tensor:
#      x y z
#    x 1.726100 0.000000 0.000000 
#    y 0.000000 1.693360 0.000000 
#    z 0.000000 0.000000 1.713170 
# 
# From -- ./inp_files/36545.got.cif
#   From: 2010.03.12/outbox.cif.g09.slc.cpg/sg65_19_cif.got.tgz:36545.got - 2010.04.10 20:52:16.
