data_PCOD8268652
_publ_section_title
;
Structure prediction by ZEFSAII (Michael W. Deem and Ramdas Pophale) SiO2 
 PCOD8268652
Probable space group: C M M M
;
_chemical_formula_sum "Si O2"
_cell_formula_units_Z 104
_cell_length_a 8.937182
_cell_length_b 27.640266
_cell_length_c 23.726299
_cell_angle_alpha 90.000000
_cell_angle_beta 90.000000
_cell_angle_gamma 90.000000
_cell_volume 5861.014819
_symmetry_space_group_name_H-M "C M M M"
_symmetry_group_IT_number 65
_symmetry_cell_setting 'orthorhombic'
loop_
_space_group_symop_operation_xyz
x,y,z
-x,-y,z
x,-y,-z
-x,y,-z
-x,-y,-z
x,y,-z
-x,y,z
x,-y,z
1/2+x,1/2+y,z
1/2-x,1/2-y,z
1/2+x,1/2-y,-z
1/2-x,1/2+y,-z
1/2-x,1/2-y,-z
1/2+x,1/2+y,-z
1/2-x,1/2+y,z
1/2+x,1/2-y,z
loop_
_atom_site_type_symbol
_atom_site_label
_atom_site_fract_x
_atom_site_fract_y
_atom_site_fract_z
Si Si1 0.165357 0.000000 0.566206
Si Si2 0.668540 0.702905 0.752535
Si Si3 0.832509 0.116316 0.669196
Si Si4 0.675910 0.944283 0.236996
Si Si5 0.176825 0.402896 0.563504
Si Si6 0.674721 0.699666 0.934544
Si Si7 0.323722 0.858874 0.156333
O O1 0.260628 0.954144 0.585096
O O2 0.148110 0.000000 0.500000
O O3 0.000000 0.000000 0.594091
O O4 0.500000 0.713520 0.774084
O O5 0.750000 0.750000 0.728610
O O6 0.664170 0.665978 0.701824
O O7 0.769525 0.683648 0.803087
O O8 0.755130 0.074330 0.706280
O O9 0.744355 0.131424 0.611653
O O10 0.000000 0.098775 0.654415
O O11 0.500000 0.939302 0.247511
O O12 0.723197 0.911168 0.182936
O O13 0.722121 0.000000 0.224910
O O14 0.232151 0.389545 0.500000
O O15 0.000000 0.403328 0.564984
O O16 0.500000 0.703248 0.921223
O O17 0.750000 0.750000 0.914342
O O18 0.743676 0.652536 0.903086
O O19 0.707461 0.690857 0.000000
O O20 0.500000 0.856220 0.147597
#
# Coordination Sequence:
#
# PCOD8268652 Si02
#       7
#     8  16  16  16  16  16  16
#     4   9  17  29  45  65  89 119 155 193 232 277
#     4  10  20  34  52  74 100 129 163 203 248 297
#     4  10  21  34  50  74 100 128 162 202 249 297
#     4   9  19  35  53  73  99 132 168 206 247 292
#     4  10  20  33  49  69  95 128 163 199 243 296
#     4  10  20  33  50  74 105 138 170 206 249 296
#     4  10  19  32  52  76 102 133 168 205 247 294
#
# _framework density 17.744367
#
# number of rings (size 3 to 8) (size 9 to 14) (size 15 to 20)
#    0.000    2.231    0.000    3.000    1.077    5.538 
#    0.000    0.000    0.000    0.923    0.000    3.231 
#    0.000    0.000    0.000    0.000    0.000    0.000 
#
# Total GULP energy -644575.280096 kJ/mol
# GULP energy per Si atom -12395.678463 kJ/mol
# Density = 1.770398 g / cm^3
# Si number density = 17.744367 Si / 1000 Ang^3
#
#
#
# Elastic Constant Matrix: (Units=GPa)
#
#
# Indices 1 2 3 4 5 6 
#
# 1 92.4752 40.7940 50.2305 0.0000 0.0000 0.0000
# 2 40.7940 86.9329 40.9452 0.0000 0.0000 0.0000
# 3 50.2305 40.9452 103.2751 0.0000 0.0000 0.0000
# 4 0.0000 0.0000 0.0000 11.4657 0.0000 0.0000
# 5 0.0000 0.0000 0.0000 0.0000 32.3117 0.0000
# 6 0.0000 0.0000 0.0000 0.0000 0.0000 24.8305
#
#
#
# Elastic Compliance Matrix: (Units=1/GPa)
#
#
# Indices 1 2 3 4 5 6 
#
# 1 0.016161 -0.004773 -0.005968 0.000000 0.000000 0.000000
# 2 -0.004773 0.015554 -0.003845 0.000000 0.000000 0.000000
# 3 -0.005968 -0.003845 0.014110 0.000000 0.000000 0.000000
# 4 0.000000 0.000000 0.000000 0.087217 0.000000 0.000000
# 5 0.000000 0.000000 0.000000 0.000000 0.030949 0.000000
# 6 0.000000 0.000000 0.000000 0.000000 0.000000 0.040273
#
#
# Mechanical properties :
#
#
# Convention : Reuss Voigt Hill
#
# Bulk Modulus (GPa) = 60.04986 60.73583 60.39284
# Shear Modulus (GPa) = 20.92173 23.76914 22.34543
#
# Velocity S-wave (km/s) = 3.43747 3.66393 3.55251
# Velocity P-wave (km/s) = 7.04770 7.22508 7.13694
#
# Compressibility (1/GPa) = 0.01665283
#
# Stress axis : x y z
#
# Youngs Moduli (GPa) = 61.87819 64.29269 70.87118
#
# Poissons Ratio (x) = 0.30685 0.42296
# Poissons Ratio (y) = 0.29532 0.27252
# Poissons Ratio (z) = 0.36929 0.24722
#
# Static dielectric constant tensor:
#      x y z
#    x 3.472980 0.000000 0.000000 
#    y 0.000000 3.278510 0.000000 
#    z 0.000000 0.000000 3.353970 
# 
# 
# High freq. dielectric constant tensor:
#      x y z
#    x 1.702630 0.000000 0.000000 
#    y 0.000000 1.662110 0.000000 
#    z 0.000000 0.000000 1.683420 
# 
# From -- ./inp_files/68251.got.cif
#   From: 2010.03.12/outbox.cif.g09.slc.cpg/sg65_35_cif.got.tgz:68251.got - 2010.04.10 20:52:16.
