data_PCOD8268388
_publ_section_title
;
Structure prediction by ZEFSAII (Michael W. Deem and Ramdas Pophale) SiO2 
 PCOD8268388
Probable space group: C M M M
;
_chemical_formula_sum "Si O2"
_cell_formula_units_Z 104
_cell_length_a 9.111558
_cell_length_b 28.513968
_cell_length_c 24.356112
_cell_angle_alpha 90.000000
_cell_angle_beta 90.000000
_cell_angle_gamma 90.000000
_cell_volume 6327.880432
_symmetry_space_group_name_H-M "C M M M"
_symmetry_group_IT_number 65
_symmetry_cell_setting 'orthorhombic'
loop_
_space_group_symop_operation_xyz
x,y,z
-x,-y,z
x,-y,-z
-x,y,-z
-x,-y,-z
x,y,-z
-x,y,z
x,-y,z
1/2+x,1/2+y,z
1/2-x,1/2-y,z
1/2+x,1/2-y,-z
1/2-x,1/2+y,-z
1/2-x,1/2-y,-z
1/2+x,1/2+y,-z
1/2-x,1/2+y,z
1/2+x,1/2-y,z
loop_
_atom_site_type_symbol
_atom_site_label
_atom_site_fract_x
_atom_site_fract_y
_atom_site_fract_z
Si Si1 0.173966 0.887389 0.847962
Si Si2 0.169356 0.704022 0.317720
Si Si3 0.326794 0.202619 0.809117
Si Si4 0.000000 0.444413 0.436448
Si Si5 0.667698 0.054016 0.063694
Si Si6 0.337957 0.103779 0.348049
Si Si7 0.673329 0.447652 0.744638
O O1 0.257246 0.838178 0.845754
O O2 0.219955 0.913769 0.903170
O O3 0.228753 0.917806 0.796168
O O4 0.000000 0.879387 0.847523
O O5 0.250000 0.750000 0.341007
O O6 0.212585 0.693832 0.254641
O O7 0.216043 0.657917 0.352806
O O8 0.000000 0.715770 0.323864
O O9 0.500000 0.205554 0.819303
O O10 0.250000 0.250000 0.829543
O O11 0.144698 0.421067 0.407916
O O12 0.000000 0.500000 0.426700
O O13 0.000000 0.431223 0.500000
O O14 0.500000 0.064611 0.081051
O O15 0.706049 0.000000 0.075760
O O16 0.690576 0.065512 0.000000
O O17 0.500000 0.104623 0.319079
O O18 0.226943 0.073988 0.312255
O O19 0.500000 0.448645 0.742585
O O20 0.737541 0.500000 0.750658
#
# Coordination Sequence:
#
# PCOD8268388 Si02
#       7
#    16  16  16   8  16  16  16
#     4  11  21  32  49  74 105 136 170 207 257 314
#     4   9  17  29  46  71  99 129 168 203 250 303
#     4  10  19  32  49  71 102 133 169 208 252 309
#     4   9  18  32  54  78 100 132 175 221 260 298
#     4   9  19  36  55  74  98 133 177 220 259 302
#     4   9  18  31  49  73  98 128 169 210 250 300
#     4  10  20  31  44  69 106 138 162 199 255 312
#
# _framework density 16.435203999999999
#
# number of rings (size 3 to 8) (size 9 to 14) (size 15 to 20)
#    0.462    1.923    1.538    2.308    0.000    3.077 
#    0.000    0.769    0.000    1.385    0.000    2.154 
#    0.000    0.000    0.000    0.000    0.000    0.000 
#
# Total GULP energy -644673.594507 kJ/mol
# GULP energy per Si atom -12397.569125 kJ/mol
# Density = 1.639780 g / cm^3
# Si number density = 16.435204 Si / 1000 Ang^3
#
#
#
# Elastic Constant Matrix: (Units=GPa)
#
#
# Indices 1 2 3 4 5 6 
#
# 1 49.1400 44.6876 27.3280 0.0000 0.0000 0.0000
# 2 44.6876 142.2131 54.6459 0.0000 0.0000 0.0000
# 3 27.3280 54.6459 80.4054 0.0000 0.0000 0.0000
# 4 0.0000 0.0000 0.0000 19.9722 0.0000 0.0000
# 5 0.0000 0.0000 0.0000 0.0000 18.4341 0.0000
# 6 0.0000 0.0000 0.0000 0.0000 0.0000 30.9300
#
#
#
# Elastic Compliance Matrix: (Units=1/GPa)
#
#
# Indices 1 2 3 4 5 6 
#
# 1 0.029975 -0.007450 -0.005125 0.000000 0.000000 0.000000
# 2 -0.007450 0.011369 -0.005194 0.000000 0.000000 0.000000
# 3 -0.005125 -0.005194 0.017709 0.000000 0.000000 0.000000
# 4 0.000000 0.000000 0.000000 0.050070 0.000000 0.000000
# 5 0.000000 0.000000 0.000000 0.000000 0.054247 0.000000
# 6 0.000000 0.000000 0.000000 0.000000 0.000000 0.032331
#
#
# Mechanical properties :
#
#
# Convention : Reuss Voigt Hill
#
# Bulk Modulus (GPa) = 42.52667 58.34240 50.43454
# Shear Modulus (GPa) = 20.91381 23.54039 22.22710
#
# Velocity S-wave (km/s) = 3.57108 3.78870 3.68150
# Velocity P-wave (km/s) = 6.55248 7.39692 6.98747
#
# Compressibility (1/GPa) = 0.02351465
#
# Stress axis : x y z
#
# Youngs Moduli (GPa) = 33.36135 87.96135 56.46841
#
# Poissons Ratio (x) = 0.65529 0.28938
# Poissons Ratio (y) = 0.24854 0.29332
# Poissons Ratio (z) = 0.17097 0.45691
#
# Static dielectric constant tensor:
#      x y z
#    x 2.965020 0.000000 0.000000 
#    y 0.000000 3.274640 0.000000 
#    z 0.000000 0.000000 2.778810 
# 
# 
# High freq. dielectric constant tensor:
#      x y z
#    x 1.625220 0.000000 0.000000 
#    y 0.000000 1.647980 0.000000 
#    z 0.000000 0.000000 1.594870 
# 
# From -- ./inp_files/73729.got.cif
#   From: 2010.03.12/outbox.cif.g09.slc.cpg/sg65_37_cif.got.tgz:73729.got - 2010.04.10 20:52:16.
