data_PCOD8268220
_publ_section_title
;
Structure prediction by ZEFSAII (Michael W. Deem and Ramdas Pophale) SiO2 
 PCOD8268220
Probable space group: C M M M
;
_chemical_formula_sum "Si O2"
_cell_formula_units_Z 112
_cell_length_a 17.531592
_cell_length_b 15.780203
_cell_length_c 23.031819
_cell_angle_alpha 90.000000
_cell_angle_beta 90.000000
_cell_angle_gamma 90.000000
_cell_volume 6371.800648
_symmetry_space_group_name_H-M "C M M M"
_symmetry_group_IT_number 65
_symmetry_cell_setting 'orthorhombic'
loop_
_space_group_symop_operation_xyz
x,y,z
-x,-y,z
x,-y,-z
-x,y,-z
-x,-y,-z
x,y,-z
-x,y,z
x,-y,z
1/2+x,1/2+y,z
1/2-x,1/2-y,z
1/2+x,1/2-y,-z
1/2-x,1/2+y,-z
1/2-x,1/2-y,-z
1/2+x,1/2+y,-z
1/2-x,1/2+y,z
1/2+x,1/2-y,z
loop_
_atom_site_type_symbol
_atom_site_label
_atom_site_fract_x
_atom_site_fract_y
_atom_site_fract_z
Si Si1 0.265633 0.595743 0.254213
Si Si2 0.852970 0.904048 0.433778
Si Si3 0.179246 0.301194 0.842036
Si Si4 0.913275 0.192599 0.759852
Si Si5 0.585896 0.099732 0.065479
Si Si6 0.914225 0.744356 0.366287
Si Si7 0.301556 0.095557 0.620900
O O1 0.250685 0.500000 0.236897
O O2 0.212389 0.650029 0.212996
O O3 0.355461 0.614299 0.246828
O O4 0.242406 0.616274 0.319693
O O5 0.877113 0.887068 0.500000
O O6 0.892944 0.835301 0.393078
O O7 0.761299 0.896634 0.429514
O O8 0.877604 0.000000 0.414708
O O9 0.250000 0.250000 0.870113
O O10 0.110427 0.243862 0.817646
O O11 0.147317 0.360502 0.891923
O O12 0.906423 0.252328 0.703286
O O13 0.000000 0.159270 0.767308
O O14 0.500000 0.125316 0.083890
O O15 0.595862 0.000000 0.069049
O O16 0.601987 0.131394 0.000000
O O17 0.864973 0.666434 0.391103
O O18 0.000000 0.723345 0.384708
O O19 0.337045 0.000000 0.622154
#
# Coordination Sequence:
#
# PCOD8268220 Si02
#       7
#    16  16  16  16  16  16  16
#     4  10  19  32  51  74 100 136 174 213 258 303
#     4  10  22  39  60  83 103 133 177 221 267 320
#     4  10  19  31  51  75 104 140 171 215 257 305
#     4  10  20  32  48  74 105 136 170 209 260 317
#     4   9  18  33  52  74 104 141 178 217 258 300
#     4  11  22  35  54  77 108 142 170 214 271 316
#     4  10  20  36  56  76 105 138 176 220 258 310
#
# _framework density 17.577449000000001
#
# number of rings (size 3 to 8) (size 9 to 14) (size 15 to 20)
#    0.000    2.000    2.857    1.714    0.000    2.571 
#    0.000    2.143    0.000    0.000    0.000    3.000 
#    0.000    0.000    0.000   26.571    0.000    0.143 
#
# Total GULP energy -694264.224292 kJ/mol
# GULP energy per Si atom -12397.575434 kJ/mol
# Density = 1.753744 g / cm^3
# Si number density = 17.577449 Si / 1000 Ang^3
#
#
#
# Elastic Constant Matrix: (Units=GPa)
#
#
# Indices 1 2 3 4 5 6 
#
# 1 96.5483 37.8967 28.3179 0.0000 0.0000 0.0000
# 2 37.8967 70.1722 20.9189 0.0000 0.0000 0.0000
# 3 28.3179 20.9189 59.3051 0.0000 0.0000 0.0000
# 4 0.0000 0.0000 0.0000 19.8568 0.0000 0.0000
# 5 0.0000 0.0000 0.0000 0.0000 16.5802 0.0000
# 6 0.0000 0.0000 0.0000 0.0000 0.0000 21.7112
#
#
#
# Elastic Compliance Matrix: (Units=1/GPa)
#
#
# Indices 1 2 3 4 5 6 
#
# 1 0.014160 -0.006293 -0.004541 0.000000 0.000000 0.000000
# 2 -0.006293 0.018722 -0.003599 0.000000 0.000000 0.000000
# 3 -0.004541 -0.003599 0.020300 0.000000 0.000000 0.000000
# 4 0.000000 0.000000 0.000000 0.050361 0.000000 0.000000
# 5 0.000000 0.000000 0.000000 0.000000 0.060313 0.000000
# 6 0.000000 0.000000 0.000000 0.000000 0.000000 0.046059
#
#
# Mechanical properties :
#
#
# Convention : Reuss Voigt Hill
#
# Bulk Modulus (GPa) = 41.12730 44.47696 42.80213
# Shear Modulus (GPa) = 20.25223 20.88910 20.57067
#
# Velocity S-wave (km/s) = 3.39805 3.45106 3.42466
# Velocity P-wave (km/s) = 6.23251 6.42169 6.32781
#
# Compressibility (1/GPa) = 0.02431475
#
# Stress axis : x y z
#
# Youngs Moduli (GPa) = 70.62308 53.41259 49.26127
#
# Poissons Ratio (x) = 0.33613 0.22371
# Poissons Ratio (y) = 0.44444 0.17729
# Poissons Ratio (z) = 0.32073 0.19223
#
# Static dielectric constant tensor:
#      x y z
#    x 3.285850 0.000000 0.000000 
#    y 0.000000 3.240700 0.000000 
#    z 0.000000 0.000000 3.107070 
# 
# 
# High freq. dielectric constant tensor:
#      x y z
#    x 1.679040 0.000000 0.000000 
#    y 0.000000 1.676300 0.000000 
#    z 0.000000 0.000000 1.665600 
# 
# From -- ./inp_files/70016.got.cif
#   From: 2010.03.12/outbox.cif.g09.slc.cpg/sg65_36_cif.got.tgz:70016.got - 2010.04.10 20:52:16.
