data_PCOD8268329
_publ_section_title
;
Structure prediction by ZEFSAII (Michael W. Deem and Ramdas Pophale) SiO2 
 PCOD8268329
Probable space group: C M M M
;
_chemical_formula_sum "Si O2"
_cell_formula_units_Z 112
_cell_length_a 13.798219
_cell_length_b 29.779715
_cell_length_c 14.127705
_cell_angle_alpha 90.000000
_cell_angle_beta 90.000000
_cell_angle_gamma 90.000000
_cell_volume 5805.173293
_symmetry_space_group_name_H-M "C M M M"
_symmetry_group_IT_number 65
_symmetry_cell_setting 'orthorhombic'
loop_
_space_group_symop_operation_xyz
x,y,z
-x,-y,z
x,-y,-z
-x,y,-z
-x,-y,-z
x,y,-z
-x,y,z
x,-y,z
1/2+x,1/2+y,z
1/2-x,1/2-y,z
1/2+x,1/2-y,-z
1/2-x,1/2+y,-z
1/2-x,1/2-y,-z
1/2+x,1/2+y,-z
1/2-x,1/2+y,z
1/2+x,1/2-y,z
loop_
_atom_site_type_symbol
_atom_site_label
_atom_site_fract_x
_atom_site_fract_y
_atom_site_fract_z
Si Si1 0.108242 0.809156 0.721034
Si Si2 0.136792 0.244366 0.895928
Si Si3 0.757158 0.888528 0.759443
Si Si4 0.887497 0.376484 0.389422
Si Si5 0.111017 0.947034 0.107568
Si Si6 0.394845 0.841906 0.890092
Si Si7 0.114242 0.274650 0.604911
O O1 0.103300 0.797065 0.831915
O O2 0.172289 0.853217 0.707640
O O3 0.157804 0.766247 0.667656
O O4 0.000000 0.819407 0.683069
O O5 0.250000 0.250000 0.899504
O O6 0.094757 0.290726 0.853484
O O7 0.094556 0.234496 0.000000
O O8 0.684764 0.906759 0.675759
O O9 0.819895 0.926488 0.811466
O O10 0.690496 0.867483 0.839550
O O11 0.864892 0.384047 0.500000
O O12 0.864387 0.325000 0.357075
O O13 0.000000 0.388316 0.368838
O O14 0.000000 0.932281 0.127440
O O15 0.121542 0.000000 0.116742
O O16 0.140067 0.932306 0.000000
O O17 0.500000 0.865273 0.872757
O O18 0.366749 0.840968 0.000000
O O19 0.158140 0.269829 0.500000
O O20 0.000000 0.268362 0.601664
#
# Coordination Sequence:
#
# PCOD8268329 Si02
#       7
#    16  16  16  16  16  16  16
#     4  11  22  31  44  70 103 136 175 226 279 319
#     4  10  19  32  44  58  92 140 183 218 255 309
#     4  12  21  32  54  82 106 131 176 230 276 323
#     4   9  19  35  54  78 110 151 196 233 265 308
#     4   9  20  41  66  88 111 140 172 210 265 336
#     4  10  20  32  46  67  99 139 177 214 264 322
#     4   8  16  32  49  66  98 145 189 225 262 305
#
# _framework density 19.293136000000001
#
# number of rings (size 3 to 8) (size 9 to 14) (size 15 to 20)
#    0.000    2.143    1.429    3.857    0.000    3.143 
#    0.000    1.429    0.000    3.429    0.000    7.000 
#    0.000    0.000    0.000    0.000    0.000    0.000 
#
# Total GULP energy -693983.421105 kJ/mol
# GULP energy per Si atom -12392.561091 kJ/mol
# Density = 1.924922 g / cm^3
# Si number density = 19.293136 Si / 1000 Ang^3
#
#
#
# Elastic Constant Matrix: (Units=GPa)
#
#
# Indices 1 2 3 4 5 6 
#
# 1 105.7766 30.6626 42.9890 0.0000 0.0000 0.0000
# 2 30.6626 35.6868 27.5375 0.0000 0.0000 0.0000
# 3 42.9890 27.5375 85.0943 0.0000 0.0000 0.0000
# 4 0.0000 0.0000 0.0000 23.7758 0.0000 0.0000
# 5 0.0000 0.0000 0.0000 0.0000 36.5461 0.0000
# 6 0.0000 0.0000 0.0000 0.0000 0.0000 44.5037
#
#
#
# Elastic Compliance Matrix: (Units=1/GPa)
#
#
# Indices 1 2 3 4 5 6 
#
# 1 0.013591 -0.008503 -0.004114 0.000000 0.000000 0.000000
# 2 -0.008503 0.042667 -0.009512 0.000000 0.000000 0.000000
# 3 -0.004114 -0.009512 0.016908 0.000000 0.000000 0.000000
# 4 0.000000 0.000000 0.000000 0.042060 0.000000 0.000000
# 5 0.000000 0.000000 0.000000 0.000000 0.027363 0.000000
# 6 0.000000 0.000000 0.000000 0.000000 0.000000 0.022470
#
#
# Mechanical properties :
#
#
# Convention : Reuss Voigt Hill
#
# Bulk Modulus (GPa) = 34.59235 47.65953 41.12594
# Shear Modulus (GPa) = 22.83597 29.32302 26.07950
#
# Velocity S-wave (km/s) = 3.44413 3.90278 3.68060
# Velocity P-wave (km/s) = 5.81247 6.71307 6.27894
#
# Compressibility (1/GPa) = 0.02890812
#
# Stress axis : x y z
#
# Youngs Moduli (GPa) = 73.57938 23.43730 59.14194
#
# Poissons Ratio (x) = 0.19928 0.24334
# Poissons Ratio (y) = 0.62561 0.56257
# Poissons Ratio (z) = 0.30274 0.22294
#
# Static dielectric constant tensor:
#      x y z
#    x 3.738970 0.000000 0.000000 
#    y 0.000000 2.991070 0.000000 
#    z 0.000000 0.000000 3.725200 
# 
# 
# High freq. dielectric constant tensor:
#      x y z
#    x 1.769500 0.000000 0.000000 
#    y 0.000000 1.678770 0.000000 
#    z 0.000000 0.000000 1.756340 
# 
# From -- ./inp_files/41369.got.cif
#   From: 2010.03.12/outbox.cif.g09.slc.cpg/sg65_21_cif.got.tgz:41369.got - 2010.04.10 20:52:16.
