data_PCOD8268597
_publ_section_title
;
Structure prediction by ZEFSAII (Michael W. Deem and Ramdas Pophale) SiO2 
 PCOD8268597
Probable space group: C M M M
;
_chemical_formula_sum "Si O2"
_cell_formula_units_Z 104
_cell_length_a 8.861986
_cell_length_b 27.335123
_cell_length_c 23.770779
_cell_angle_alpha 90.000000
_cell_angle_beta 90.000000
_cell_angle_gamma 90.000000
_cell_volume 5758.316164
_symmetry_space_group_name_H-M "C M M M"
_symmetry_group_IT_number 65
_symmetry_cell_setting 'orthorhombic'
loop_
_space_group_symop_operation_xyz
x,y,z
-x,-y,z
x,-y,-z
-x,y,-z
-x,-y,-z
x,y,-z
-x,y,z
x,-y,z
1/2+x,1/2+y,z
1/2-x,1/2-y,z
1/2+x,1/2-y,-z
1/2-x,1/2+y,-z
1/2-x,1/2-y,-z
1/2+x,1/2+y,-z
1/2-x,1/2+y,z
1/2+x,1/2-y,z
loop_
_atom_site_type_symbol
_atom_site_label
_atom_site_fract_x
_atom_site_fract_y
_atom_site_fract_z
Si Si1 0.323407 0.098834 0.062763
Si Si2 0.825198 0.055385 0.565106
Si Si3 0.173946 0.386532 0.659565
Si Si4 0.825838 0.447350 0.235044
Si Si5 0.831341 0.000000 0.066726
Si Si6 0.822322 0.353551 0.172756
Si Si7 0.821179 0.199064 0.270653
O O1 0.500000 0.088612 0.060865
O O2 0.288723 0.144239 0.105439
O O3 0.251047 0.049185 0.087427
O O4 0.262928 0.112314 0.000000
O O5 0.799049 0.067583 0.500000
O O6 0.733316 0.096394 0.599104
O O7 0.000000 0.059885 0.581233
O O8 0.768960 0.000000 0.577959
O O9 0.195086 0.433201 0.699886
O O10 0.267060 0.341167 0.684628
O O11 0.000000 0.370314 0.655162
O O12 0.745408 0.500000 0.224371
O O13 0.757663 0.405059 0.196082
O O14 0.000000 0.452332 0.219602
O O15 0.000000 0.000000 0.090991
O O16 0.829495 0.000000 0.000000
O O17 0.733716 0.311510 0.206229
O O18 0.000000 0.346829 0.185620
O O19 0.750000 0.250000 0.290204
O O20 0.000000 0.202394 0.271175
#
# Coordination Sequence:
#
# PCOD8268597 Si02
#       7
#    16  16  16  16   8  16  16
#     4   9  17  29  46  68  96 132 171 208 248 299
#     4   9  18  32  50  76 114 157 193 222 253 290
#     4  10  19  32  51  77 106 137 176 217 259 308
#     4   8  14  24  40  64  95 130 164 200 244 290
#     4   9  17  27  39  59  91 131 171 207 240 281
#     4   9  18  31  49  73 100 129 166 208 253 306
#     4  11  22  38  59  79 101 127 162 210 265 321
#
# _framework density 18.060835999999998
#
# number of rings (size 3 to 8) (size 9 to 14) (size 15 to 20)
#    0.000    2.692    0.000    3.923    1.077    2.769 
#    0.000    0.769    0.000    2.769    0.000    0.000 
#    0.000    0.000    0.000    0.000    0.000    0.000 
#
# Total GULP energy -644428.852669 kJ/mol
# GULP energy per Si atom -12392.862551 kJ/mol
# Density = 1.801973 g / cm^3
# Si number density = 18.060836 Si / 1000 Ang^3
#
#
#
# Elastic Constant Matrix: (Units=GPa)
#
#
# Indices 1 2 3 4 5 6 
#
# 1 86.1158 35.1067 35.7501 0.0000 0.0000 0.0000
# 2 35.1067 80.2574 29.8078 0.0000 0.0000 0.0000
# 3 35.7501 29.8078 85.0696 0.0000 0.0000 0.0000
# 4 0.0000 0.0000 0.0000 15.8177 0.0000 0.0000
# 5 0.0000 0.0000 0.0000 0.0000 22.8696 0.0000
# 6 0.0000 0.0000 0.0000 0.0000 0.0000 21.6158
#
#
#
# Elastic Compliance Matrix: (Units=1/GPa)
#
#
# Indices 1 2 3 4 5 6 
#
# 1 0.015677 -0.005070 -0.004811 0.000000 0.000000 0.000000
# 2 -0.005070 0.015964 -0.003463 0.000000 0.000000 0.000000
# 3 -0.004811 -0.003463 0.014990 0.000000 0.000000 0.000000
# 4 0.000000 0.000000 0.000000 0.063221 0.000000 0.000000
# 5 0.000000 0.000000 0.000000 0.000000 0.043726 0.000000
# 6 0.000000 0.000000 0.000000 0.000000 0.000000 0.046263
#
#
# Mechanical properties :
#
#
# Convention : Reuss Voigt Hill
#
# Bulk Modulus (GPa) = 50.14616 50.30801 50.22708
# Shear Modulus (GPa) = 21.44294 22.11248 21.77771
#
# Velocity S-wave (km/s) = 3.44940 3.50284 3.47623
# Velocity P-wave (km/s) = 6.60984 6.65395 6.63193
#
# Compressibility (1/GPa) = 0.01994171
#
# Stress axis : x y z
#
# Youngs Moduli (GPa) = 63.78879 62.64113 66.70929
#
# Poissons Ratio (x) = 0.31762 0.32097
# Poissons Ratio (y) = 0.32344 0.23100
# Poissons Ratio (z) = 0.30692 0.21692
#
# Static dielectric constant tensor:
#      x y z
#    x 3.173470 0.000000 0.000000 
#    y 0.000000 3.343010 0.000000 
#    z 0.000000 0.000000 3.387330 
# 
# 
# High freq. dielectric constant tensor:
#      x y z
#    x 1.684080 0.000000 0.000000 
#    y 0.000000 1.673990 0.000000 
#    z 0.000000 0.000000 1.696640 
# 
# From -- ./inp_files/68283.got.cif
#   From: 2010.03.12/outbox.cif.g09.slc.cpg/sg65_35_cif.got.tgz:68283.got - 2010.04.10 20:52:16.
