data_PCOD8268747
_publ_section_title
;
Structure prediction by ZEFSAII (Michael W. Deem and Ramdas Pophale) SiO2 
 PCOD8268747
Probable space group: C M M M
;
_chemical_formula_sum "Si O2"
_cell_formula_units_Z 56
_cell_length_a 21.218624
_cell_length_b 16.071928
_cell_length_c 7.764543
_cell_angle_alpha 90.000000
_cell_angle_beta 90.000000
_cell_angle_gamma 90.000000
_cell_volume 2647.897043
_symmetry_space_group_name_H-M "C M M M"
_symmetry_group_IT_number 65
_symmetry_cell_setting 'orthorhombic'
loop_
_space_group_symop_operation_xyz
x,y,z
-x,-y,z
x,-y,-z
-x,y,-z
-x,-y,-z
x,y,-z
-x,y,z
x,-y,z
1/2+x,1/2+y,z
1/2-x,1/2-y,z
1/2+x,1/2-y,-z
1/2-x,1/2+y,-z
1/2-x,1/2-y,-z
1/2+x,1/2+y,-z
1/2-x,1/2+y,z
1/2+x,1/2-y,z
loop_
_atom_site_type_symbol
_atom_site_label
_atom_site_fract_x
_atom_site_fract_y
_atom_site_fract_z
Si Si1 0.864693 0.097439 0.304994
Si Si2 0.148780 0.594503 0.000000
Si Si3 0.781255 0.839796 0.000000
Si Si4 0.070904 0.598893 0.311019
Si Si5 0.000000 0.098592 0.192899
O O1 0.841193 0.113724 0.500000
O O2 0.936991 0.128960 0.290262
O O3 0.859796 0.000000 0.257541
O O4 0.822179 0.148460 0.171707
O O5 0.119309 0.637465 0.171124
O O6 0.125299 0.500000 0.000000
O O7 0.223953 0.595282 0.000000
O O8 0.750000 0.750000 0.000000
O O9 0.088293 0.635092 0.500000
O O10 0.076277 0.500000 0.318723
O O11 0.000000 0.625275 0.259736
O O12 0.000000 0.000000 0.188912
O O13 0.000000 0.134931 0.000000
#
# Coordination Sequence:
#
# PCOD8268747 Si02
#       5
#    16   8   8  16   8
#     4  10  20  37  64  94 119 148 194 250 305 358
#     4  10  19  32  53  76  99 134 187 233 271 318
#     4  12  26  40  53  76 119 171 200 231 279 350
#     4   8  14  26  48  78 104 124 157 217 283 324
#     4   9  15  29  61  98 125 141 174 245 318 366
#
# _framework density 21.148858000000001
#
# number of rings (size 3 to 8) (size 9 to 14) (size 15 to 20)
#    0.000    2.429    1.429    3.000    0.000    5.143 
#    0.000    2.857    6.286    0.000    0.000    0.000 
#    0.000    0.000    0.000    0.000    0.000    0.000 
#
# Total GULP energy -347062.899881 kJ/mol
# GULP energy per Si atom -12395.103567 kJ/mol
# Density = 2.110072 g / cm^3
# Si number density = 21.148858 Si / 1000 Ang^3
#
#
#
# Elastic Constant Matrix: (Units=GPa)
#
#
# Indices 1 2 3 4 5 6 
#
# 1 155.5377 24.3797 93.1093 0.0000 0.0000 0.0000
# 2 24.3797 36.3609 28.8916 0.0000 0.0000 0.0000
# 3 93.1093 28.8916 176.6760 0.0000 0.0000 0.0000
# 4 0.0000 0.0000 0.0000 10.1253 0.0000 0.0000
# 5 0.0000 0.0000 0.0000 0.0000 20.4369 0.0000
# 6 0.0000 0.0000 0.0000 0.0000 0.0000 14.5501
#
#
#
# Elastic Compliance Matrix: (Units=1/GPa)
#
#
# Indices 1 2 3 4 5 6 
#
# 1 0.009632 -0.002787 -0.004620 0.000000 0.000000 0.000000
# 2 -0.002787 0.032416 -0.003832 0.000000 0.000000 0.000000
# 3 -0.004620 -0.003832 0.008722 0.000000 0.000000 0.000000
# 4 0.000000 0.000000 0.000000 0.098762 0.000000 0.000000
# 5 0.000000 0.000000 0.000000 0.000000 0.048931 0.000000
# 6 0.000000 0.000000 0.000000 0.000000 0.000000 0.068728
#
#
# Mechanical properties :
#
#
# Convention : Reuss Voigt Hill
#
# Bulk Modulus (GPa) = 35.34764 73.48175 54.41470
# Shear Modulus (GPa) = 16.71679 23.83538 20.27609
#
# Velocity S-wave (km/s) = 2.81452 3.36077 3.09970
# Velocity P-wave (km/s) = 5.22609 7.06259 6.21257
#
# Compressibility (1/GPa) = 0.02829043
#
# Stress axis : x y z
#
# Youngs Moduli (GPa) = 103.82009 30.84928 114.65619
#
# Poissons Ratio (x) = 0.08598 0.52976
# Poissons Ratio (y) = 0.28934 0.43938
# Poissons Ratio (z) = 0.47969 0.11822
#
# Static dielectric constant tensor:
#      x y z
#    x 3.993860 0.000000 0.000000 
#    y 0.000000 3.221090 0.000000 
#    z 0.000000 0.000000 4.271320 
# 
# 
# High freq. dielectric constant tensor:
#      x y z
#    x 1.828000 0.000000 0.000000 
#    y 0.000000 1.769810 0.000000 
#    z 0.000000 0.000000 1.846310 
# 
# From -- ./inp_files/8551.got.cif
#   From: 2010.03.12/outbox.cif.g09.slc.cpg/sg65_5_cif.got.tgz:8551.got - 2010.04.10 20:52:16.
