data_PCOD8268636
_publ_section_title
;
Structure prediction by ZEFSAII (Michael W. Deem and Ramdas Pophale) SiO2 
 PCOD8268636
Probable space group: C M M M
;
_chemical_formula_sum "Si O2"
_cell_formula_units_Z 96
_cell_length_a 23.200112
_cell_length_b 25.276858
_cell_length_c 9.294865
_cell_angle_alpha 90.000000
_cell_angle_beta 90.000000
_cell_angle_gamma 90.000000
_cell_volume 5450.749913
_symmetry_space_group_name_H-M "C M M M"
_symmetry_group_IT_number 65
_symmetry_cell_setting 'orthorhombic'
loop_
_space_group_symop_operation_xyz
x,y,z
-x,-y,z
x,-y,-z
-x,y,-z
-x,-y,-z
x,y,-z
-x,y,z
x,-y,z
1/2+x,1/2+y,z
1/2-x,1/2-y,z
1/2+x,1/2-y,-z
1/2-x,1/2+y,-z
1/2-x,1/2-y,-z
1/2+x,1/2+y,-z
1/2-x,1/2+y,z
1/2+x,1/2-y,z
loop_
_atom_site_type_symbol
_atom_site_label
_atom_site_fract_x
_atom_site_fract_y
_atom_site_fract_z
Si Si1 0.259877 0.310010 0.334301
Si Si2 0.434442 0.753491 0.832802
Si Si3 0.133006 0.342074 0.666346
Si Si4 0.564822 0.058198 0.329134
Si Si5 0.631937 0.648227 0.167901
Si Si6 0.933997 0.938827 0.665343
O O1 0.280373 0.310226 0.500000
O O2 0.250000 0.250000 0.281912
O O3 0.201453 0.343195 0.313088
O O4 0.307101 0.337787 0.237162
O O5 0.500000 0.759298 0.779040
O O6 0.393661 0.792596 0.747214
O O7 0.414279 0.694029 0.800927
O O8 0.428881 0.767217 0.000000
O O9 0.116028 0.335623 0.500000
O O10 0.107719 0.396862 0.730963
O O11 0.567086 0.057186 0.500000
O O12 0.500000 0.071559 0.277103
O O13 0.583232 0.000000 0.270609
O O14 0.608294 0.594320 0.234565
O O15 0.642020 0.639424 0.000000
O O16 0.924488 0.922302 0.500000
O O17 0.000000 0.928373 0.710632
O O18 0.918258 0.000000 0.687605
#
# Coordination Sequence:
#
# PCOD8268636 Si02
#       6
#    16  16  16  16  16  16
#     4  10  20  35  52  73 105 140 178 223 265 309
#     4  10  21  34  48  72 106 136 164 208 264 318
#     4  10  19  32  52  75  98 131 174 215 255 308
#     4   8  14  26  46  73 101 124 153 201 255 301
#     4  11  22  35  54  78 107 142 181 219 263 323
#     4   9  19  37  60  84 110 141 177 220 272 325
#
# _framework density 17.612255000000001
#
# number of rings (size 3 to 8) (size 9 to 14) (size 15 to 20)
#    0.000    2.333    1.667    2.500    0.000    4.000 
#    0.000    1.667    0.000    3.500    0.000    2.333 
#    0.000    0.000    0.000    0.000    0.000    0.000 
#
# Total GULP energy -595239.326367 kJ/mol
# GULP energy per Si atom -12400.819299 kJ/mol
# Density = 1.757217 g / cm^3
# Si number density = 17.612255 Si / 1000 Ang^3
#
#
#
# Elastic Constant Matrix: (Units=GPa)
#
#
# Indices 1 2 3 4 5 6 
#
# 1 96.8707 52.5068 50.4355 0.0000 0.0000 0.0000
# 2 52.5068 106.9245 49.0782 0.0000 0.0000 0.0000
# 3 50.4355 49.0782 65.4906 0.0000 0.0000 0.0000
# 4 0.0000 0.0000 0.0000 19.8796 0.0000 0.0000
# 5 0.0000 0.0000 0.0000 0.0000 17.4198 0.0000
# 6 0.0000 0.0000 0.0000 0.0000 0.0000 26.7853
#
#
#
# Elastic Compliance Matrix: (Units=1/GPa)
#
#
# Indices 1 2 3 4 5 6 
#
# 1 0.018200 -0.003817 -0.011156 0.000000 0.000000 0.000000
# 2 -0.003817 0.015057 -0.008344 0.000000 0.000000 0.000000
# 3 -0.011156 -0.008344 0.030114 0.000000 0.000000 0.000000
# 4 0.000000 0.000000 0.000000 0.050303 0.000000 0.000000
# 5 0.000000 0.000000 0.000000 0.000000 0.057406 0.000000
# 6 0.000000 0.000000 0.000000 0.000000 0.000000 0.037334
#
#
# Mechanical properties :
#
#
# Convention : Reuss Voigt Hill
#
# Bulk Modulus (GPa) = 59.74788 63.70298 61.72543
# Shear Modulus (GPa) = 19.18462 20.63463 19.90963
#
# Velocity S-wave (km/s) = 3.30400 3.42659 3.36585
# Velocity P-wave (km/s) = 6.96799 7.20441 7.08719
#
# Compressibility (1/GPa) = 0.01673700
#
# Stress axis : x y z
#
# Youngs Moduli (GPa) = 54.94426 66.41638 33.20755
#
# Poissons Ratio (x) = 0.25350 0.37046
# Poissons Ratio (y) = 0.20972 0.27708
# Poissons Ratio (z) = 0.61296 0.55417
#
# Static dielectric constant tensor:
#      x y z
#    x 3.303790 0.000000 0.000000 
#    y 0.000000 3.428100 0.000000 
#    z 0.000000 0.000000 3.089890 
# 
# 
# High freq. dielectric constant tensor:
#      x y z
#    x 1.681990 0.000000 0.000000 
#    y 0.000000 1.684020 0.000000 
#    z 0.000000 0.000000 1.660610 
# 
# From -- ./inp_files/12256.got.cif
#   From: 2010.03.12/outbox.cif.g09.slc.cpg/sg65_7_cif.got.tgz:12256.got - 2010.04.10 20:52:16.
