data_PCOD8268414
_publ_section_title
;
Structure prediction by ZEFSAII (Michael W. Deem and Ramdas Pophale) SiO2 
 PCOD8268414
Probable space group: C M M M
;
_chemical_formula_sum "Si O2"
_cell_formula_units_Z 104
_cell_length_a 20.150998
_cell_length_b 32.590505
_cell_length_c 9.573350
_cell_angle_alpha 90.000000
_cell_angle_beta 90.000000
_cell_angle_gamma 90.000000
_cell_volume 6287.117644
_symmetry_space_group_name_H-M "C M M M"
_symmetry_group_IT_number 65
_symmetry_cell_setting 'orthorhombic'
loop_
_space_group_symop_operation_xyz
x,y,z
-x,-y,z
x,-y,-z
-x,y,-z
-x,-y,-z
x,y,-z
-x,y,z
x,-y,z
1/2+x,1/2+y,z
1/2-x,1/2-y,z
1/2+x,1/2-y,-z
1/2-x,1/2+y,-z
1/2-x,1/2-y,-z
1/2+x,1/2+y,-z
1/2-x,1/2+y,z
1/2+x,1/2-y,z
loop_
_atom_site_type_symbol
_atom_site_label
_atom_site_fract_x
_atom_site_fract_y
_atom_site_fract_z
Si Si1 0.923709 0.698213 0.661309
Si Si2 0.145662 0.632249 0.163282
Si Si3 0.178166 0.767712 0.662432
Si Si4 0.926520 0.000000 0.166837
Si Si5 0.316619 0.955373 0.165933
Si Si6 0.673467 0.566350 0.835280
Si Si7 0.296370 0.655685 0.161564
O O1 0.908557 0.688239 0.500000
O O2 0.907976 0.657589 0.749584
O O3 0.878067 0.735873 0.712411
O O4 0.000000 0.710650 0.684838
O O5 0.140240 0.584305 0.212727
O O6 0.218749 0.649753 0.196239
O O7 0.129083 0.636630 0.000000
O O8 0.170742 0.778040 0.500000
O O9 0.250000 0.750000 0.698615
O O10 0.169086 0.809382 0.747489
O O11 0.888357 0.040374 0.223447
O O12 0.000000 0.000000 0.231743
O O13 0.929936 0.000000 0.000000
O O14 0.242366 0.950899 0.228117
O O15 0.346045 0.000000 0.214543
O O16 0.312408 0.953626 0.000000
O O17 0.664393 0.614153 0.798568
O O18 0.677781 0.560589 0.000000
O O19 0.305427 0.667124 0.000000
#
# Coordination Sequence:
#
# PCOD8268414 Si02
#       7
#    16  16  16   8  16  16  16
#     4  10  21  36  51  67  91 123 155 188 231 281
#     4   9  17  28  46  73  97 119 151 190 229 271
#     4  10  19  32  50  70  90 117 156 196 228 269
#     4   9  14  20  34  56  87 129 164 185 214 264
#     4   8  12  21  40  64  90 116 144 184 229 266
#     4   8  13  22  35  57  89 120 151 186 223 264
#     4   9  17  28  45  70  97 121 148 189 238 275
#
# _framework density 16.541761999999999
#
# number of rings (size 3 to 8) (size 9 to 14) (size 15 to 20)
#    0.000    3.000    2.308    1.846    0.000    1.231 
#    0.000    0.769    0.000    1.846    0.000    3.769 
#    0.000    0.615    0.000    0.000    0.000    0.000 
#
# Total GULP energy -644428.699035 kJ/mol
# GULP energy per Si atom -12392.859597 kJ/mol
# Density = 1.650411 g / cm^3
# Si number density = 16.541762 Si / 1000 Ang^3
#
#
#
# Elastic Constant Matrix: (Units=GPa)
#
#
# Indices 1 2 3 4 5 6 
#
# 1 78.3274 51.4096 22.3486 0.0000 0.0000 0.0000
# 2 51.4096 145.0890 41.8823 0.0000 0.0000 0.0000
# 3 22.3486 41.8823 30.0653 0.0000 0.0000 0.0000
# 4 0.0000 0.0000 0.0000 0.9866 0.0000 0.0000
# 5 0.0000 0.0000 0.0000 0.0000 14.7581 0.0000
# 6 0.0000 0.0000 0.0000 0.0000 0.0000 25.0633
#
#
#
# Elastic Compliance Matrix: (Units=1/GPa)
#
#
# Indices 1 2 3 4 5 6 
#
# 1 0.017552 -0.004103 -0.007331 0.000000 0.000000 0.000000
# 2 -0.004103 0.012487 -0.014345 0.000000 0.000000 0.000000
# 3 -0.007331 -0.014345 0.058694 0.000000 0.000000 0.000000
# 4 0.000000 0.000000 0.000000 1.013544 0.000000 0.000000
# 5 0.000000 0.000000 0.000000 0.000000 0.067759 0.000000
# 6 0.000000 0.000000 0.000000 0.000000 0.000000 0.039899
#
#
# Mechanical properties :
#
#
# Convention : Reuss Voigt Hill
#
# Bulk Modulus (GPa) = 26.90052 53.86253 40.38152
# Shear Modulus (GPa) = 3.92500 17.35102 10.63801
#
# Velocity S-wave (km/s) = 1.54205 3.24222 2.53869
# Velocity P-wave (km/s) = 4.41226 6.82995 5.74962
#
# Compressibility (1/GPa) = 0.03717401
#
# Stress axis : x y z
#
# Youngs Moduli (GPa) = 56.97506 80.08297 17.03743
#
# Poissons Ratio (x) = 0.32856 0.12491
# Poissons Ratio (y) = 0.23375 0.24441
# Poissons Ratio (z) = 0.41771 1.14881
#
# Static dielectric constant tensor:
#      x y z
#    x 3.003190 0.000000 0.000000 
#    y 0.000000 3.422620 0.000000 
#    z 0.000000 0.000000 2.692530 
# 
# 
# High freq. dielectric constant tensor:
#      x y z
#    x 1.609210 0.000000 0.000000 
#    y 0.000000 1.652310 0.000000 
#    z 0.000000 0.000000 1.590960 
# 
# From -- ./inp_files/27696.got.cif
#   From: 2010.03.12/outbox.cif.g09.slc.cpg/sg65_14_cif.got.tgz:27696.got - 2010.04.10 20:52:16.
