data_PCOD8268333
_publ_section_title
;
Structure prediction by ZEFSAII (Michael W. Deem and Ramdas Pophale) SiO2 
 PCOD8268333
Probable space group: C M M M
;
_chemical_formula_sum "Si O2"
_cell_formula_units_Z 80
_cell_length_a 27.963023
_cell_length_b 9.817639
_cell_length_c 16.252615
_cell_angle_alpha 90.000000
_cell_angle_beta 90.000000
_cell_angle_gamma 90.000000
_cell_volume 4461.844457
_symmetry_space_group_name_H-M "C M M M"
_symmetry_group_IT_number 65
_symmetry_cell_setting 'orthorhombic'
loop_
_space_group_symop_operation_xyz
x,y,z
-x,-y,z
x,-y,-z
-x,y,-z
-x,-y,-z
x,y,-z
-x,y,z
x,-y,z
1/2+x,1/2+y,z
1/2-x,1/2-y,z
1/2+x,1/2-y,-z
1/2-x,1/2+y,-z
1/2-x,1/2-y,-z
1/2+x,1/2+y,-z
1/2-x,1/2+y,z
1/2+x,1/2-y,z
loop_
_atom_site_type_symbol
_atom_site_label
_atom_site_fract_x
_atom_site_fract_y
_atom_site_fract_z
Si Si1 0.593439 0.839617 0.500000
Si Si2 0.944306 0.343273 0.678186
Si Si3 0.713931 0.353308 0.673340
Si Si4 0.818043 0.850766 0.500000
Si Si5 0.124976 0.844271 0.226909
Si Si6 0.795986 0.841208 0.905730
O O1 0.565846 0.795607 0.416195
O O2 0.644636 0.770347 0.500000
O O3 0.601592 0.000000 0.500000
O O4 0.928289 0.500000 0.689391
O O5 0.918794 0.255006 0.750406
O O6 0.000000 0.324615 0.694686
O O7 0.730069 0.500000 0.707010
O O8 0.750000 0.250000 0.717606
O O9 0.718032 0.340470 0.575990
O O10 0.658915 0.327673 0.694212
O O11 0.843974 0.000000 0.500000
O O12 0.157034 0.800430 0.147753
O O13 0.106387 0.000000 0.216465
O O14 0.750000 0.750000 0.881108
O O15 0.783198 0.000000 0.890227
O O16 0.810149 0.814145 0.000000
#
# Coordination Sequence:
#
# PCOD8268333 Si02
#       6
#     8  16  16   8  16  16
#     4  10  19  33  53  73  95 129 170 212 260 307
#     4  10  21  36  54  76 101 130 168 215 262 307
#     4  10  20  31  45  66  95 130 166 202 241 288
#     4  10  19  32  46  64  96 131 164 206 246 291
#     4  10  20  34  52  75 103 133 167 209 254 301
#     4   9  18  33  54  81 111 140 170 205 247 299
#
# _framework density 17.929805000000002
#
# number of rings (size 3 to 8) (size 9 to 14) (size 15 to 20)
#    0.000    2.200    2.000    1.200    0.000    4.000 
#    0.000    0.000    0.000    2.400    0.000    4.200 
#    0.000    0.000    0.000    0.000    0.000    0.000 
#
# Total GULP energy -495594.575342 kJ/mol
# GULP energy per Si atom -12389.864384 kJ/mol
# Density = 1.788900 g / cm^3
# Si number density = 17.929805 Si / 1000 Ang^3
#
#
#
# Elastic Constant Matrix: (Units=GPa)
#
#
# Indices 1 2 3 4 5 6 
#
# 1 83.4863 56.5291 32.7136 0.0000 0.0000 0.0000
# 2 56.5291 76.0200 31.5387 0.0000 0.0000 0.0000
# 3 32.7136 31.5387 108.3791 0.0000 0.0000 0.0000
# 4 0.0000 0.0000 0.0000 -913.8861 0.0000 0.0000
# 5 0.0000 0.0000 0.0000 0.0000 123.9084 0.0000
# 6 0.0000 0.0000 0.0000 0.0000 0.0000 34.6190
#
#
#
# Elastic Compliance Matrix: (Units=1/GPa)
#
#
# Indices 1 2 3 4 5 6 
#
# 1 0.024660 -0.017343 -0.002397 0.000000 0.000000 0.000000
# 2 -0.017343 0.027158 -0.002668 0.000000 0.000000 0.000000
# 3 -0.002397 -0.002668 0.010727 0.000000 0.000000 0.000000
# 4 0.000000 0.000000 0.000000 -0.001094 0.000000 0.000000
# 5 0.000000 0.000000 0.000000 0.000000 0.008070 0.000000
# 6 0.000000 0.000000 0.000000 0.000000 0.000000 0.028886
#
#
# Mechanical properties :
#
#
# Convention : Reuss Voigt Hill
#
# Bulk Modulus (GPa) = 56.40488 56.60538 56.50513
# Shear Modulus (GPa) = 33.52709 -141.26480 -53.86885
#
# Velocity S-wave (km/s) = 4.32893 -8.88587 -5.48721
# Velocity P-wave (km/s) = 7.51753 8.58133 2.92626
#
# Compressibility (1/GPa) = 0.01772896
#
# Stress axis : x y z
#
# Youngs Moduli (GPa) = 40.55081 36.82152 93.22529
#
# Poissons Ratio (x) = 0.63861 0.22342
# Poissons Ratio (y) = 0.70329 0.24873
# Poissons Ratio (z) = 0.09718 0.09824
#
# Static dielectric constant tensor:
#      x y z
#    x 3.011510 0.000000 0.000000 
#    y 0.000000 3.446630 0.000000 
#    z 0.000000 0.000000 3.421580 
# 
# 
# High freq. dielectric constant tensor:
#      x y z
#    x 1.668000 0.000000 0.000000 
#    y 0.000000 1.696990 0.000000 
#    z 0.000000 0.000000 1.695050 
# 
# From -- ./inp_files/49942.got.cif
#   From: 2010.03.12/outbox.cif.g09.slc.cpg/sg65_25_cif.got.tgz:49942.got - 2010.04.10 20:52:16.
