data_PCOD8268510
_publ_section_title
;
Structure prediction by ZEFSAII (Michael W. Deem and Ramdas Pophale) SiO2 
 PCOD8268510
Probable space group: C M M M
;
_chemical_formula_sum "Si O2"
_cell_formula_units_Z 88
_cell_length_a 18.814583
_cell_length_b 9.289351
_cell_length_c 28.454725
_cell_angle_alpha 90.000000
_cell_angle_beta 90.000000
_cell_angle_gamma 90.000000
_cell_volume 4973.182114
_symmetry_space_group_name_H-M "C M M M"
_symmetry_group_IT_number 65
_symmetry_cell_setting 'orthorhombic'
loop_
_space_group_symop_operation_xyz
x,y,z
-x,-y,z
x,-y,-z
-x,y,-z
-x,-y,-z
x,y,-z
-x,y,z
x,-y,z
1/2+x,1/2+y,z
1/2-x,1/2-y,z
1/2+x,1/2-y,-z
1/2-x,1/2+y,-z
1/2-x,1/2-y,-z
1/2+x,1/2+y,-z
1/2-x,1/2+y,z
1/2+x,1/2-y,z
loop_
_atom_site_type_symbol
_atom_site_label
_atom_site_fract_x
_atom_site_fract_y
_atom_site_fract_z
Si Si1 0.674784 0.169389 0.211538
Si Si2 0.579427 0.171209 0.500000
Si Si3 0.320674 0.163270 0.686235
Si Si4 0.819095 0.166598 0.947081
Si Si5 0.582337 0.333472 0.862492
Si Si6 0.324394 0.831559 0.415380
O O1 0.750000 0.250000 0.205688
O O2 0.640417 0.195931 0.264015
O O3 0.617870 0.232778 0.176061
O O4 0.686321 0.000000 0.201483
O O5 0.500000 0.236479 0.500000
O O6 0.620302 0.227686 0.453740
O O7 0.575526 0.000000 0.500000
O O8 0.250000 0.250000 0.685286
O O9 0.360684 0.195568 0.636611
O O10 0.295762 0.000000 0.686546
O O11 0.750000 0.250000 0.928407
O O12 0.885129 0.201814 0.913521
O O13 0.799088 0.000000 0.945628
O O14 0.839462 0.215456 0.000000
O O15 0.500000 0.294255 0.865212
O O16 0.594717 0.500000 0.848915
O O17 0.250000 0.750000 0.421018
O O18 0.309247 0.000000 0.423596
#
# Coordination Sequence:
#
# PCOD8268510 Si02
#       6
#    16   8  16  16  16  16
#     4  10  19  32  51  73  97 126 161 199 240 285
#     4   9  17  28  43  65  92 121 152 186 226 273
#     4   8  15  27  44  68  93 117 149 190 233 275
#     4   9  18  33  53  75  97 123 157 196 237 282
#     4  10  21  35  50  71 100 132 164 198 237 280
#     4   9  16  28  47  69  91 116 150 190 231 274
#
# _framework density 17.694907000000001
#
# number of rings (size 3 to 8) (size 9 to 14) (size 15 to 20)
#    0.000    2.818    0.000    1.364    0.000    3.636 
#    0.000    2.727    0.000    4.364    0.000    3.818 
#    0.000    0.000    0.000    0.000    0.000    0.000 
#
# Total GULP energy -545123.921049 kJ/mol
# GULP energy per Si atom -12389.180024 kJ/mol
# Density = 1.765463 g / cm^3
# Si number density = 17.694907 Si / 1000 Ang^3
#
#
#
# Elastic Constant Matrix: (Units=GPa)
#
#
# Indices 1 2 3 4 5 6 
#
# 1 113.6163 42.5557 81.3217 0.0000 0.0000 0.0000
# 2 42.5557 53.8523 53.6582 0.0000 0.0000 0.0000
# 3 81.3217 53.6582 157.1705 0.0000 0.0000 0.0000
# 4 0.0000 0.0000 0.0000 26.1787 0.0000 0.0000
# 5 0.0000 0.0000 0.0000 0.0000 6.5860 0.0000
# 6 0.0000 0.0000 0.0000 0.0000 0.0000 21.7216
#
#
#
# Elastic Compliance Matrix: (Units=1/GPa)
#
#
# Indices 1 2 3 4 5 6 
#
# 1 0.015295 -0.006367 -0.005740 0.000000 0.000000 0.000000
# 2 -0.006367 0.030793 -0.007218 0.000000 0.000000 0.000000
# 3 -0.005740 -0.007218 0.011797 0.000000 0.000000 0.000000
# 4 0.000000 0.000000 0.000000 0.038199 0.000000 0.000000
# 5 0.000000 0.000000 0.000000 0.000000 0.151837 0.000000
# 6 0.000000 0.000000 0.000000 0.000000 0.000000 0.046037
#
#
# Mechanical properties :
#
#
# Convention : Reuss Voigt Hill
#
# Bulk Modulus (GPa) = 51.99174 75.52336 63.75755
# Shear Modulus (GPa) = 14.74839 20.70417 17.72628
#
# Velocity S-wave (km/s) = 2.89014 3.42433 3.16851
# Velocity P-wave (km/s) = 6.37050 7.64253 7.03532
#
# Compressibility (1/GPa) = 0.01923383
#
# Stress axis : x y z
#
# Youngs Moduli (GPa) = 65.38163 32.47463 84.76867
#
# Poissons Ratio (x) = 0.20677 0.48657
# Poissons Ratio (y) = 0.41630 0.61190
# Poissons Ratio (z) = 0.37529 0.23442
#
# Static dielectric constant tensor:
#      x y z
#    x 2.958300 0.000000 0.000000 
#    y 0.000000 3.227120 0.000000 
#    z 0.000000 0.000000 4.151040 
# 
# 
# High freq. dielectric constant tensor:
#      x y z
#    x 1.645920 0.000000 0.000000 
#    y 0.000000 1.676400 0.000000 
#    z 0.000000 0.000000 1.712160 
# 
# From -- ./inp_files/76512.got.cif
#   From: 2010.03.12/outbox.cif.g09.slc.cpg/sg65_39_cif.got.tgz:76512.got - 2010.04.10 20:52:16.
