data_PCOD8268294
_publ_section_title
;
Structure prediction by ZEFSAII (Michael W. Deem and Ramdas Pophale) SiO2 
 PCOD8268294
Probable space group: C M M M
;
_chemical_formula_sum "Si O2"
_cell_formula_units_Z 64
_cell_length_a 8.912216
_cell_length_b 28.324581
_cell_length_c 13.073348
_cell_angle_alpha 90.000000
_cell_angle_beta 90.000000
_cell_angle_gamma 90.000000
_cell_volume 3300.167778
_symmetry_space_group_name_H-M "C M M M"
_symmetry_group_IT_number 65
_symmetry_cell_setting 'orthorhombic'
loop_
_space_group_symop_operation_xyz
x,y,z
-x,-y,z
x,-y,-z
-x,y,-z
-x,-y,-z
x,y,-z
-x,y,z
x,-y,z
1/2+x,1/2+y,z
1/2-x,1/2-y,z
1/2+x,1/2-y,-z
1/2-x,1/2+y,-z
1/2-x,1/2-y,-z
1/2+x,1/2+y,-z
1/2-x,1/2+y,z
1/2+x,1/2-y,z
loop_
_atom_site_type_symbol
_atom_site_label
_atom_site_fract_x
_atom_site_fract_y
_atom_site_fract_z
Si Si1 0.321443 0.888720 0.196487
Si Si2 0.321773 0.053023 0.612153
Si Si3 0.678215 0.946603 0.000000
Si Si4 0.826834 0.200641 0.500000
Si Si5 0.176993 0.198781 0.722740
O O1 0.500000 0.883549 0.196554
O O2 0.257824 0.914868 0.297300
O O3 0.248212 0.836730 0.194305
O O4 0.264608 0.918480 0.099355
O O5 0.270977 0.072440 0.500000
O O6 0.500000 0.052105 0.618670
O O7 0.259878 0.000000 0.626828
O O8 0.500000 0.949285 0.000000
O O9 0.743685 0.000000 0.000000
O O10 0.750000 0.250000 0.500000
O O11 0.784417 0.176473 0.391102
O O12 0.000000 0.212052 0.500000
O O13 0.250000 0.250000 0.737698
O O14 0.000000 0.203237 0.740925
#
# Coordination Sequence:
#
# PCOD8268294 Si02
#       5
#    16  16   8   8  16
#     4  10  19  31  52  79 105 137 178 219 263 311
#     4   8  14  25  43  71 104 133 165 209 258 308
#     4   9  18  34  56  81 108 139 178 223 264 307
#     4   8  16  30  48  70  99 136 171 207 252 305
#     4  10  20  35  53  76 107 141 177 217 262 314
#
# _framework density 19.392952000000001
#
# number of rings (size 3 to 8) (size 9 to 14) (size 15 to 20)
#    0.000    2.875    0.000    2.250    1.750    4.000 
#    0.000    1.250    0.000    3.750    0.000    1.750 
#    0.000    0.000    0.000    0.000    0.000    0.000 
#
# Total GULP energy -396463.756430 kJ/mol
# GULP energy per Si atom -12389.492388 kJ/mol
# Density = 1.934881 g / cm^3
# Si number density = 19.392952 Si / 1000 Ang^3
#
#
#
# Elastic Constant Matrix: (Units=GPa)
#
#
# Indices 1 2 3 4 5 6 
#
# 1 32.8639 32.5566 31.2117 0.0000 0.0000 0.0000
# 2 32.5566 132.5996 89.0811 0.0000 0.0000 0.0000
# 3 31.2117 89.0811 140.8379 0.0000 0.0000 0.0000
# 4 0.0000 0.0000 0.0000 34.5518 0.0000 0.0000
# 5 0.0000 0.0000 0.0000 0.0000 13.8954 0.0000
# 6 0.0000 0.0000 0.0000 0.0000 0.0000 20.9484
#
#
#
# Elastic Compliance Matrix: (Units=1/GPa)
#
#
# Indices 1 2 3 4 5 6 
#
# 1 0.042029 -0.007063 -0.004847 0.000000 0.000000 0.000000
# 2 -0.007063 0.014301 -0.007480 0.000000 0.000000 0.000000
# 3 -0.004847 -0.007480 0.012906 0.000000 0.000000 0.000000
# 4 0.000000 0.000000 0.000000 0.028942 0.000000 0.000000
# 5 0.000000 0.000000 0.000000 0.000000 0.071966 0.000000
# 6 0.000000 0.000000 0.000000 0.000000 0.000000 0.047736
#
#
# Mechanical properties :
#
#
# Convention : Reuss Voigt Hill
#
# Bulk Modulus (GPa) = 32.83492 68.00003 50.41748
# Shear Modulus (GPa) = 18.73983 24.10926 21.42455
#
# Velocity S-wave (km/s) = 3.11194 3.52972 3.32740
# Velocity P-wave (km/s) = 5.46630 7.19391 6.38877
#
# Compressibility (1/GPa) = 0.03045538
#
# Stress axis : x y z
#
# Youngs Moduli (GPa) = 23.79330 69.92585 77.48509
#
# Poissons Ratio (x) = 0.49389 0.37555
# Poissons Ratio (y) = 0.16805 0.57960
# Poissons Ratio (z) = 0.11532 0.52305
#
# Static dielectric constant tensor:
#      x y z
#    x 2.923590 0.000000 0.000000 
#    y 0.000000 3.482600 0.000000 
#    z 0.000000 0.000000 4.089190 
# 
# 
# High freq. dielectric constant tensor:
#      x y z
#    x 1.709240 0.000000 0.000000 
#    y 0.000000 1.755140 0.000000 
#    z 0.000000 0.000000 1.752310 
# 
# From -- ./inp_files/21035.got.cif
#   From: 2010.03.12/outbox.cif.g09.slc.cpg/sg65_11_cif.got.tgz:21035.got - 2010.04.10 20:52:16.
