data_PCOD8268872
_publ_section_title
;
Structure prediction by ZEFSAII (Michael W. Deem and Ramdas Pophale) SiO2 
 PCOD8268872
Probable space group: C M M M
;
_chemical_formula_sum "Si O2"
_cell_formula_units_Z 120
_cell_length_a 28.541541
_cell_length_b 10.231522
_cell_length_c 24.534135
_cell_angle_alpha 90.000000
_cell_angle_beta 90.000000
_cell_angle_gamma 90.000000
_cell_volume 7164.541633
_symmetry_space_group_name_H-M "C M M M"
_symmetry_group_IT_number 65
_symmetry_cell_setting 'orthorhombic'
loop_
_space_group_symop_operation_xyz
x,y,z
-x,-y,z
x,-y,-z
-x,y,-z
-x,-y,-z
x,y,-z
-x,y,z
x,-y,z
1/2+x,1/2+y,z
1/2-x,1/2-y,z
1/2+x,1/2-y,-z
1/2-x,1/2+y,-z
1/2-x,1/2-y,-z
1/2+x,1/2+y,-z
1/2-x,1/2+y,z
1/2+x,1/2-y,z
loop_
_atom_site_type_symbol
_atom_site_label
_atom_site_fract_x
_atom_site_fract_y
_atom_site_fract_z
Si Si1 0.787171 0.645979 0.268974
Si Si2 0.054932 0.241093 0.362451
Si Si3 0.893992 0.652383 0.739202
Si Si4 0.944376 0.853834 0.060783
Si Si5 0.383986 0.853658 0.441709
Si Si6 0.445151 0.851301 0.148634
Si Si7 0.787039 0.647467 0.602205
Si Si8 0.555564 0.500000 0.562804
O O1 0.776623 0.500000 0.245771
O O2 0.750000 0.750000 0.243959
O O3 0.839733 0.689211 0.252998
O O4 0.782825 0.643562 0.333331
O O5 0.082091 0.252308 0.305302
O O6 0.070967 0.358396 0.401701
O O7 0.072713 0.120986 0.400281
O O8 0.000000 0.240474 0.350265
O O9 0.899756 0.500000 0.721575
O O10 0.919487 0.681796 0.795520
O O11 0.924575 0.745887 0.102602
O O12 0.000000 0.845699 0.059871
O O13 0.928610 0.000000 0.078760
O O14 0.925152 0.823248 0.000000
O O15 0.395111 0.783527 0.500000
O O16 0.337965 0.793362 0.413009
O O17 0.370160 0.000000 0.454335
O O18 0.500000 0.828149 0.158386
O O19 0.435190 0.000000 0.129929
O O20 0.778083 0.500000 0.579562
O O21 0.750000 0.750000 0.577027
O O22 0.500000 0.500000 0.559399
O O23 0.575320 0.500000 0.500000
#
# Coordination Sequence:
#
# PCOD8268872 Si02
#       8
#    16  16  16  16  16  16  16   8
#     4   9  17  32  51  69  93 121 152 191 237 287
#     4  11  21  35  52  68  89 122 159 188 227 286
#     4  10  19  33  51  73 100 126 153 195 246 288
#     4   8  14  26  43  63  92 134 178 213 243 272
#     4  10  20  33  49  70  92 111 140 188 236 275
#     4   9  17  28  43  68 101 135 169 203 239 280
#     4   9  17  32  50  68  91 115 141 181 232 284
#     4   9  20  38  52  62  86 122 155 195 241 279
#
# _framework density 16.749151999999999
#
# number of rings (size 3 to 8) (size 9 to 14) (size 15 to 20)
#    0.000    2.600    1.333    1.600    0.000    2.933 
#    3.600    2.000    0.000    0.000    0.000    0.000 
#    0.000    0.533    0.000    1.200    0.000    2.133 
#
# Total GULP energy -743330.641872 kJ/mol
# GULP energy per Si atom -12388.844031 kJ/mol
# Density = 1.671103 g / cm^3
# Si number density = 16.749152 Si / 1000 Ang^3
#
#
#
# Elastic Constant Matrix: (Units=GPa)
#
#
# Indices 1 2 3 4 5 6 
#
# 1 72.4755 42.9281 39.2102 0.0000 0.0000 0.0000
# 2 42.9281 90.1131 63.3272 0.0000 0.0000 0.0000
# 3 39.2102 63.3272 94.9060 0.0000 0.0000 0.0000
# 4 0.0000 0.0000 0.0000 21.8985 0.0000 0.0000
# 5 0.0000 0.0000 0.0000 0.0000 11.2684 0.0000
# 6 0.0000 0.0000 0.0000 0.0000 0.0000 20.9562
#
#
#
# Elastic Compliance Matrix: (Units=1/GPa)
#
#
# Indices 1 2 3 4 5 6 
#
# 1 0.019840 -0.006950 -0.003559 0.000000 0.000000 0.000000
# 2 -0.006950 0.023330 -0.012696 0.000000 0.000000 0.000000
# 3 -0.003559 -0.012696 0.020479 0.000000 0.000000 0.000000
# 4 0.000000 0.000000 0.000000 0.045665 0.000000 0.000000
# 5 0.000000 0.000000 0.000000 0.000000 0.088744 0.000000
# 6 0.000000 0.000000 0.000000 0.000000 0.000000 0.047719
#
#
# Mechanical properties :
#
#
# Convention : Reuss Voigt Hill
#
# Bulk Modulus (GPa) = 58.01035 60.93614 59.47325
# Shear Modulus (GPa) = 16.78230 18.29323 17.53777
#
# Velocity S-wave (km/s) = 3.16884 3.30841 3.23938
# Velocity P-wave (km/s) = 6.93532 7.14526 7.04107
#
# Compressibility (1/GPa) = 0.01723830
#
# Stress axis : x y z
#
# Youngs Moduli (GPa) = 50.40316 42.86308 48.83105
#
# Poissons Ratio (x) = 0.29790 0.17381
# Poissons Ratio (y) = 0.35030 0.61995
# Poissons Ratio (z) = 0.17940 0.54419
#
# Static dielectric constant tensor:
#      x y z
#    x 2.988260 0.000000 0.000000 
#    y 0.000000 3.422370 0.000000 
#    z 0.000000 0.000000 3.120660 
# 
# 
# High freq. dielectric constant tensor:
#      x y z
#    x 1.621460 0.000000 0.000000 
#    y 0.000000 1.643280 0.000000 
#    z 0.000000 0.000000 1.625220 
# 
# From -- ./inp_files/65481.got.cif
#   From: 2010.03.12/outbox.cif.g09.slc.cpg/sg65_33_cif.got.tgz:65481.got - 2010.04.10 20:52:16.
