data_PCOD8268502
_publ_section_title
;
Structure prediction by ZEFSAII (Michael W. Deem and Ramdas Pophale) SiO2 
 PCOD8268502
Probable space group: C M M M
;
_chemical_formula_sum "Si O2"
_cell_formula_units_Z 80
_cell_length_a 22.066363
_cell_length_b 21.800430
_cell_length_c 9.048227
_cell_angle_alpha 90.000000
_cell_angle_beta 90.000000
_cell_angle_gamma 90.000000
_cell_volume 4352.705715
_symmetry_space_group_name_H-M "C M M M"
_symmetry_group_IT_number 65
_symmetry_cell_setting 'orthorhombic'
loop_
_space_group_symop_operation_xyz
x,y,z
-x,-y,z
x,-y,-z
-x,y,-z
-x,-y,-z
x,y,-z
-x,y,z
x,-y,z
1/2+x,1/2+y,z
1/2-x,1/2-y,z
1/2+x,1/2-y,-z
1/2-x,1/2+y,-z
1/2-x,1/2-y,-z
1/2+x,1/2+y,-z
1/2-x,1/2+y,z
1/2+x,1/2-y,z
loop_
_atom_site_type_symbol
_atom_site_label
_atom_site_fract_x
_atom_site_fract_y
_atom_site_fract_z
Si Si1 0.431104 0.233918 0.824472
Si Si2 0.890301 0.133028 0.824897
Si Si3 0.767799 0.069810 0.175716
Si Si4 0.000000 0.927972 0.335347
Si Si5 0.640138 0.883421 0.176115
Si Si6 0.567530 0.000000 0.176192
O O1 0.500000 0.230265 0.761983
O O2 0.399206 0.296804 0.773819
O O3 0.389735 0.178851 0.760220
O O4 0.433875 0.229835 0.000000
O O5 0.825668 0.108093 0.768352
O O6 0.940926 0.091680 0.752172
O O7 0.896682 0.126737 0.000000
O O8 0.708758 0.106692 0.233490
O O9 0.768931 0.000000 0.238250
O O10 0.766656 0.066597 0.000000
O O11 0.000000 0.899170 0.500000
O O12 0.000000 0.000000 0.345590
O O13 0.600873 0.939925 0.236732
O O14 0.639240 0.881707 0.000000
O O15 0.500000 0.000000 0.240014
O O16 0.567606 0.000000 0.000000
#
# Coordination Sequence:
#
# PCOD8268502 Si02
#       6
#    16  16  16   8  16   8
#     4   9  16  26  40  62  93 127 165 203 239 286
#     4  10  19  32  51  72  99 132 162 197 245 296
#     4   9  16  26  40  62  92 127 166 203 241 289
#     4  11  23  37  53  75  99 124 163 208 246 285
#     4   9  15  23  36  57  91 130 166 204 239 284
#     4   9  14  20  32  52  84 133 174 193 235 294
#
# _framework density 18.379372
#
# number of rings (size 3 to 8) (size 9 to 14) (size 15 to 20)
#    0.000    2.600    2.000    1.500    0.000    4.800 
#    0.000    4.000    0.000    0.000    0.000    2.800 
#    0.000    0.000    0.000    1.100    0.000    1.200 
#
# Total GULP energy -495855.145986 kJ/mol
# GULP energy per Si atom -12396.378650 kJ/mol
# Density = 1.833754 g / cm^3
# Si number density = 18.379372 Si / 1000 Ang^3
#
#
#
# Elastic Constant Matrix: (Units=GPa)
#
#
# Indices 1 2 3 4 5 6 
#
# 1 204.1255 97.7853 13.9639 0.0000 0.0000 0.0000
# 2 97.7853 157.0036 11.6446 0.0000 0.0000 0.0000
# 3 13.9639 11.6446 10.2411 0.0000 0.0000 0.0000
# 4 0.0000 0.0000 0.0000 4.7301 0.0000 0.0000
# 5 0.0000 0.0000 0.0000 0.0000 -1.1948 0.0000
# 6 0.0000 0.0000 0.0000 0.0000 0.0000 38.7203
#
#
#
# Elastic Compliance Matrix: (Units=1/GPa)
#
#
# Indices 1 2 3 4 5 6 
#
# 1 0.007224 -0.004116 -0.005170 0.000000 0.000000 0.000000
# 2 -0.004116 0.009301 -0.004963 0.000000 0.000000 0.000000
# 3 -0.005170 -0.004963 0.110339 0.000000 0.000000 0.000000
# 4 0.000000 0.000000 0.000000 0.211414 0.000000 0.000000
# 5 0.000000 0.000000 0.000000 0.000000 -0.836935 0.000000
# 6 0.000000 0.000000 0.000000 0.000000 0.000000 0.025826
#
#
# Mechanical properties :
#
#
# Convention : Reuss Voigt Hill
#
# Bulk Modulus (GPa) = 10.16622 68.68420 39.42521
# Shear Modulus (GPa) = -12.14940 24.98287 6.41673
#
# Velocity S-wave (km/s) = -2.57385 3.69085 1.87052
# Velocity P-wave (km/s) = 1.81373 7.45752 5.11493
#
# Compressibility (1/GPa) = 0.09836494
#
# Stress axis : x y z
#
# Youngs Moduli (GPa) = 138.41940 107.51569 9.06296
#
# Poissons Ratio (x) = 0.44254 0.04686
# Poissons Ratio (y) = 0.56974 0.04498
# Poissons Ratio (z) = 0.71569 0.53364
#
# Static dielectric constant tensor:
#      x y z
#    x 3.902790 0.000000 0.000000 
#    y 0.000000 3.643820 0.000000 
#    z 0.000000 0.000000 2.628970 
# 
# 
# High freq. dielectric constant tensor:
#      x y z
#    x 1.730370 0.000000 0.000000 
#    y 0.000000 1.727020 0.000000 
#    z 0.000000 0.000000 1.624830 
# 
# From -- ./inp_files/13841.got.cif
#   From: 2010.03.12/outbox.cif.g09.slc.cpg/sg65_7_cif.got.tgz:13841.got - 2010.04.10 20:52:16.
