data_PCOD8268508
_publ_section_title
;
Structure prediction by ZEFSAII (Michael W. Deem and Ramdas Pophale) SiO2 
 PCOD8268508
Probable space group: C M M M
;
_chemical_formula_sum "Si O2"
_cell_formula_units_Z 72
_cell_length_a 19.917249
_cell_length_b 9.168458
_cell_length_c 22.932742
_cell_angle_alpha 90.000000
_cell_angle_beta 90.000000
_cell_angle_gamma 90.000000
_cell_volume 4187.758587
_symmetry_space_group_name_H-M "C M M M"
_symmetry_group_IT_number 65
_symmetry_cell_setting 'orthorhombic'
loop_
_space_group_symop_operation_xyz
x,y,z
-x,-y,z
x,-y,-z
-x,y,-z
-x,-y,-z
x,y,-z
-x,y,z
x,-y,z
1/2+x,1/2+y,z
1/2-x,1/2-y,z
1/2+x,1/2-y,-z
1/2-x,1/2+y,-z
1/2-x,1/2-y,-z
1/2+x,1/2+y,-z
1/2-x,1/2+y,z
1/2+x,1/2-y,z
loop_
_atom_site_type_symbol
_atom_site_label
_atom_site_fract_x
_atom_site_fract_y
_atom_site_fract_z
Si Si1 0.578185 0.830916 0.288489
Si Si2 0.678200 0.328579 0.626725
Si Si3 0.681675 0.829119 0.933710
Si Si4 0.073730 0.327530 0.843333
Si Si5 0.817609 0.165876 0.500000
O O1 0.500000 0.798403 0.300873
O O2 0.623875 0.731417 0.328764
O O3 0.596630 0.788276 0.222099
O O4 0.594178 0.000000 0.300581
O O5 0.688934 0.500000 0.638077
O O6 0.750000 0.250000 0.634740
O O7 0.645847 0.298922 0.561679
O O8 0.750000 0.750000 0.917241
O O9 0.625305 0.763618 0.890696
O O10 0.692544 0.000000 0.923773
O O11 0.659736 0.795221 0.000000
O O12 0.069433 0.500000 0.849925
O O13 0.000000 0.260623 0.855877
O O14 0.750000 0.250000 0.500000
O O15 0.795613 0.000000 0.500000
#
# Coordination Sequence:
#
# PCOD8268508 Si02
#       5
#    16  16  16  16   8
#     4   9  18  33  50  68  95 128 158 192 236 281
#     4  10  19  32  51  73  96 122 156 195 234 279
#     4   9  17  29  46  68  93 120 150 186 228 272
#     4   8  15  29  48  68  90 118 153 192 230 267
#     4   8  16  30  47  68  93 121 151 189 235 276
#
# _framework density 17.192968
#
# number of rings (size 3 to 8) (size 9 to 14) (size 15 to 20)
#    0.000    3.111    0.000    2.000    0.000    2.667 
#    0.000    6.111    0.000    5.333    0.000    3.111 
#    0.000    0.000    0.000    0.000    0.000    0.000 
#
# Total GULP energy -446057.811377 kJ/mol
# GULP energy per Si atom -12390.494760 kJ/mol
# Density = 1.715384 g / cm^3
# Si number density = 17.192968 Si / 1000 Ang^3
#
#
#
# Elastic Constant Matrix: (Units=GPa)
#
#
# Indices 1 2 3 4 5 6 
#
# 1 105.2234 46.4844 96.5194 0.0000 0.0000 0.0000
# 2 46.4844 52.8731 50.7250 0.0000 0.0000 0.0000
# 3 96.5194 50.7250 150.6980 0.0000 0.0000 0.0000
# 4 0.0000 0.0000 0.0000 22.7671 0.0000 0.0000
# 5 0.0000 0.0000 0.0000 0.0000 14.9805 0.0000
# 6 0.0000 0.0000 0.0000 0.0000 0.0000 27.8415
#
#
#
# Elastic Compliance Matrix: (Units=1/GPa)
#
#
# Indices 1 2 3 4 5 6 
#
# 1 0.026363 -0.010307 -0.013416 0.000000 0.000000 0.000000
# 2 -0.010307 0.031963 -0.004158 0.000000 0.000000 0.000000
# 3 -0.013416 -0.004158 0.016628 0.000000 0.000000 0.000000
# 4 0.000000 0.000000 0.000000 0.043923 0.000000 0.000000
# 5 0.000000 0.000000 0.000000 0.000000 0.066753 0.000000
# 6 0.000000 0.000000 0.000000 0.000000 0.000000 0.035918
#
#
# Mechanical properties :
#
#
# Convention : Reuss Voigt Hill
#
# Bulk Modulus (GPa) = 52.10004 77.36134 64.73069
# Shear Modulus (GPa) = 17.62396 20.78888 19.20642
#
# Velocity S-wave (km/s) = 3.20514 3.48106 3.34594
# Velocity P-wave (km/s) = 6.63823 7.82628 7.25661
#
# Compressibility (1/GPa) = 0.01919384
#
# Stress axis : x y z
#
# Youngs Moduli (GPa) = 37.93263 31.28602 60.14082
#
# Poissons Ratio (x) = 0.32245 0.80682
# Poissons Ratio (y) = 0.39096 0.25004
# Poissons Ratio (z) = 0.50889 0.13007
#
# Static dielectric constant tensor:
#      x y z
#    x 3.240790 0.000000 0.000000 
#    y 0.000000 3.004530 0.000000 
#    z 0.000000 0.000000 3.993710 
# 
# 
# High freq. dielectric constant tensor:
#      x y z
#    x 1.648220 0.000000 0.000000 
#    y 0.000000 1.643700 0.000000 
#    z 0.000000 0.000000 1.678710 
# 
# From -- ./inp_files/59245.got.cif
#   From: 2010.03.12/outbox.cif.g09.slc.cpg/sg65_30_cif.got.tgz:59245.got - 2010.04.10 20:52:16.
