data_PCOD8268134
_publ_section_title
;
Structure prediction by ZEFSAII (Michael W. Deem and Ramdas Pophale) SiO2 
 PCOD8268134
Probable space group: C M M M
;
_chemical_formula_sum "Si O2"
_cell_formula_units_Z 88
_cell_length_a 19.139663
_cell_length_b 8.758993
_cell_length_c 28.510824
_cell_angle_alpha 90.000000
_cell_angle_beta 90.000000
_cell_angle_gamma 90.000000
_cell_volume 4779.673546
_symmetry_space_group_name_H-M "C M M M"
_symmetry_group_IT_number 65
_symmetry_cell_setting 'orthorhombic'
loop_
_space_group_symop_operation_xyz
x,y,z
-x,-y,z
x,-y,-z
-x,y,-z
-x,-y,-z
x,y,-z
-x,y,z
x,-y,z
1/2+x,1/2+y,z
1/2-x,1/2-y,z
1/2+x,1/2-y,-z
1/2-x,1/2+y,-z
1/2-x,1/2-y,-z
1/2+x,1/2+y,-z
1/2-x,1/2+y,z
1/2+x,1/2-y,z
loop_
_atom_site_type_symbol
_atom_site_label
_atom_site_fract_x
_atom_site_fract_y
_atom_site_fract_z
Si Si1 0.919914 0.821079 0.319007
Si Si2 0.326698 0.179722 0.601676
Si Si3 0.325157 0.817834 0.134427
Si Si4 0.324852 0.680438 0.231891
Si Si5 0.175763 0.322566 0.500000
Si Si6 0.578030 0.818719 0.051616
O O1 0.883034 0.738325 0.361885
O O2 0.881048 0.775949 0.271159
O O3 0.000000 0.765955 0.315391
O O4 0.915151 0.000000 0.328139
O O5 0.250000 0.250000 0.610280
O O6 0.359271 0.223853 0.549886
O O7 0.318004 0.000000 0.607668
O O8 0.250000 0.750000 0.123813
O O9 0.353340 0.753996 0.183826
O O10 0.373628 0.753500 0.092787
O O11 0.322425 0.000000 0.136353
O O12 0.316091 0.500000 0.225511
O O13 0.250000 0.750000 0.246167
O O14 0.187970 0.500000 0.500000
O O15 0.250000 0.250000 0.500000
O O16 0.500000 0.755352 0.059588
O O17 0.577383 0.000000 0.054029
O O18 0.605271 0.766440 0.000000
#
# Coordination Sequence:
#
# PCOD8268134 Si02
#       6
#    16  16  16  16   8  16
#     4  10  22  38  53  73 103 136 170 209 254 303
#     4  10  19  33  55  80 105 135 170 209 252 298
#     4  10  19  31  50  75 100 126 159 201 246 292
#     4  10  20  35  54  73  97 130 165 204 250 298
#     4   8  16  30  49  76 105 131 165 207 249 294
#     4   8  15  29  48  70  97 129 164 200 238 282
#
# _framework density 18.411300000000001
#
# number of rings (size 3 to 8) (size 9 to 14) (size 15 to 20)
#    0.000    2.545    0.000    3.818    0.000    5.091 
#    0.000    0.455    0.000    6.000    0.000    5.091 
#    0.000    0.000    0.000    0.000    0.000    0.000 
#
# Total GULP energy -545289.675463 kJ/mol
# GULP energy per Si atom -12392.947170 kJ/mol
# Density = 1.836939 g / cm^3
# Si number density = 18.411300 Si / 1000 Ang^3
#
#
#
# Elastic Constant Matrix: (Units=GPa)
#
#
# Indices 1 2 3 4 5 6 
#
# 1 115.2415 39.7406 108.4186 0.0000 0.0000 0.0000
# 2 39.7406 53.2141 58.3414 0.0000 0.0000 0.0000
# 3 108.4186 58.3414 197.8636 0.0000 0.0000 0.0000
# 4 0.0000 0.0000 0.0000 17.1108 0.0000 0.0000
# 5 0.0000 0.0000 0.0000 0.0000 -5.3817 0.0000
# 6 0.0000 0.0000 0.0000 0.0000 0.0000 20.1782
#
#
#
# Elastic Compliance Matrix: (Units=1/GPa)
#
#
# Indices 1 2 3 4 5 6 
#
# 1 0.018465 -0.003985 -0.008943 0.000000 0.000000 0.000000
# 2 -0.003985 0.028629 -0.006258 0.000000 0.000000 0.000000
# 3 -0.008943 -0.006258 0.011799 0.000000 0.000000 0.000000
# 4 0.000000 0.000000 0.000000 0.058442 0.000000 0.000000
# 5 0.000000 0.000000 0.000000 0.000000 -0.185814 0.000000
# 6 0.000000 0.000000 0.000000 0.000000 0.000000 0.049558
#
#
# Mechanical properties :
#
#
# Convention : Reuss Voigt Hill
#
# Bulk Modulus (GPa) = 48.72910 86.59117 67.66013
# Shear Modulus (GPa) = 190.17290 17.03604 103.60447
#
# Velocity S-wave (km/s) = 10.17426 3.04518 7.50962
# Velocity P-wave (km/s) = 12.82752 7.71348 10.58402
#
# Compressibility (1/GPa) = 0.02052162
#
# Stress axis : x y z
#
# Youngs Moduli (GPa) = 54.15627 34.92972 84.75129
#
# Poissons Ratio (x) = 0.13921 0.75791
# Poissons Ratio (y) = 0.21584 0.53034
# Poissons Ratio (z) = 0.48431 0.21858
#
# Static dielectric constant tensor:
#      x y z
#    x 3.331120 0.000000 0.000000 
#    y 0.000000 3.284340 0.000000 
#    z 0.000000 0.000000 3.469760 
# 
# 
# High freq. dielectric constant tensor:
#      x y z
#    x 1.694410 0.000000 0.000000 
#    y 0.000000 1.704610 0.000000 
#    z 0.000000 0.000000 1.737170 
# 
# From -- ./inp_files/75363.got.cif
#   From: 2010.03.12/outbox.cif.g09.slc.cpg/sg65_38_cif.got.tgz:75363.got - 2010.04.10 20:52:16.
