data_PCOD8268753
_publ_section_title
;
Structure prediction by ZEFSAII (Michael W. Deem and Ramdas Pophale) SiO2 
 PCOD8268753
Probable space group: C M M M
;
_chemical_formula_sum "Si O2"
_cell_formula_units_Z 104
_cell_length_a 16.934250
_cell_length_b 17.843438
_cell_length_c 18.403883
_cell_angle_alpha 90.000000
_cell_angle_beta 90.000000
_cell_angle_gamma 90.000000
_cell_volume 5561.013723
_symmetry_space_group_name_H-M "C M M M"
_symmetry_group_IT_number 65
_symmetry_cell_setting 'orthorhombic'
loop_
_space_group_symop_operation_xyz
x,y,z
-x,-y,z
x,-y,-z
-x,y,-z
-x,-y,-z
x,y,-z
-x,y,z
x,-y,z
1/2+x,1/2+y,z
1/2-x,1/2-y,z
1/2+x,1/2-y,-z
1/2-x,1/2+y,-z
1/2-x,1/2-y,-z
1/2+x,1/2+y,-z
1/2-x,1/2+y,z
1/2+x,1/2-y,z
loop_
_atom_site_type_symbol
_atom_site_label
_atom_site_fract_x
_atom_site_fract_y
_atom_site_fract_z
Si Si1 0.408865 0.214779 0.583366
Si Si2 0.906554 0.148473 0.163805
Si Si3 0.093822 0.000000 0.082052
Si Si4 0.178591 0.586476 0.654693
Si Si5 0.812738 0.812378 0.306321
Si Si6 0.906448 0.703832 0.919591
Si Si7 0.908979 0.415083 0.194967
O O1 0.396763 0.237912 0.500000
O O2 0.500000 0.210039 0.604910
O O3 0.370591 0.133072 0.595576
O O4 0.368492 0.277956 0.632163
O O5 0.876177 0.072816 0.125419
O O6 0.864889 0.157735 0.240653
O O7 0.881113 0.215985 0.111412
O O8 0.000000 0.147106 0.177298
O O9 0.000000 0.000000 0.077735
O O10 0.128344 0.000000 0.000000
O O11 0.178069 0.500000 0.631166
O O12 0.268032 0.616558 0.658610
O O13 0.139533 0.600041 0.732805
O O14 0.750000 0.750000 0.279451
O O15 0.873722 0.638179 0.867661
O O16 0.000000 0.697579 0.924100
O O17 0.869674 0.694317 0.000000
O O18 0.899632 0.500000 0.167573
O O19 0.000000 0.395525 0.211896
#
# Coordination Sequence:
#
# PCOD8268753 Si02
#       7
#    16  16   8  16  16  16  16
#     4  10  21  38  60  84 111 141 177 224 272 320
#     4  10  19  32  53  78 103 137 181 232 276 318
#     4   9  18  32  52  80 107 133 176 235 289 321
#     4  10  21  35  54  81 111 145 178 218 268 324
#     4  10  21  35  55  81 108 146 183 217 264 323
#     4   9  16  26  44  71 100 130 171 225 279 323
#     4   9  17  30  49  73 102 138 180 226 270 316
#
# _framework density 18.701626000000001
#
# number of rings (size 3 to 8) (size 9 to 14) (size 15 to 20)
#    0.000    2.385    0.000    3.231    1.077    7.385 
#    0.000    2.308    0.000    8.308    0.000    1.077 
#    0.000    0.000    0.000    0.000    0.000    0.000 
#
# Total GULP energy -644857.072824 kJ/mol
# GULP energy per Si atom -12401.097554 kJ/mol
# Density = 1.865906 g / cm^3
# Si number density = 18.701626 Si / 1000 Ang^3
#
#
#
# Elastic Constant Matrix: (Units=GPa)
#
#
# Indices 1 2 3 4 5 6 
#
# 1 68.4552 37.7469 45.1402 0.0000 0.0000 0.0000
# 2 37.7469 119.2848 60.4910 0.0000 0.0000 0.0000
# 3 45.1402 60.4910 110.0269 0.0000 0.0000 0.0000
# 4 0.0000 0.0000 0.0000 19.3003 0.0000 0.0000
# 5 0.0000 0.0000 0.0000 0.0000 -0.8331 0.0000
# 6 0.0000 0.0000 0.0000 0.0000 0.0000 18.8571
#
#
#
# Elastic Compliance Matrix: (Units=1/GPa)
#
#
# Indices 1 2 3 4 5 6 
#
# 1 0.020837 -0.003132 -0.006827 0.000000 0.000000 0.000000
# 2 -0.003132 0.012095 -0.005365 0.000000 0.000000 0.000000
# 3 -0.006827 -0.005365 0.014839 0.000000 0.000000 0.000000
# 4 0.000000 0.000000 0.000000 0.051813 0.000000 0.000000
# 5 0.000000 0.000000 0.000000 0.000000 -1.200396 0.000000
# 6 0.000000 0.000000 0.000000 0.000000 0.000000 0.053030
#
#
# Mechanical properties :
#
#
# Convention : Reuss Voigt Hill
#
# Bulk Modulus (GPa) = 58.39762 64.94702 61.67232
# Shear Modulus (GPa) = -4.94351 17.75745 6.40697
#
# Velocity S-wave (km/s) = -1.62760 3.08476 1.85292
# Velocity P-wave (km/s) = 5.26893 6.89138 6.13403
#
# Compressibility (1/GPa) = 0.01712399
#
# Stress axis : x y z
#
# Youngs Moduli (GPa) = 47.99251 82.67999 67.39026
#
# Poissons Ratio (x) = 0.25892 0.46006
# Poissons Ratio (y) = 0.15030 0.36153
# Poissons Ratio (z) = 0.32764 0.44356
#
# Static dielectric constant tensor:
#      x y z
#    x 3.306180 0.000000 0.000000 
#    y 0.000000 3.580020 0.000000 
#    z 0.000000 0.000000 3.413300 
# 
# 
# High freq. dielectric constant tensor:
#      x y z
#    x 1.706940 0.000000 0.000000 
#    y 0.000000 1.731970 0.000000 
#    z 0.000000 0.000000 1.724720 
# 
# From -- ./inp_files/54618.got.cif
#   From: 2010.03.12/outbox.cif.g09.slc.cpg/sg65_28_cif.got.tgz:54618.got - 2010.04.10 20:52:16.
