data_PCOD8268460
_publ_section_title
;
Structure prediction by ZEFSAII (Michael W. Deem and Ramdas Pophale) SiO2 
 PCOD8268460
Probable space group: C M M M
;
_chemical_formula_sum "Si O2"
_cell_formula_units_Z 56
_cell_length_a 9.423642
_cell_length_b 19.064997
_cell_length_c 18.962375
_cell_angle_alpha 90.000000
_cell_angle_beta 90.000000
_cell_angle_gamma 90.000000
_cell_volume 3406.812651
_symmetry_space_group_name_H-M "C M M M"
_symmetry_group_IT_number 65
_symmetry_cell_setting 'orthorhombic'
loop_
_space_group_symop_operation_xyz
x,y,z
-x,-y,z
x,-y,-z
-x,y,-z
-x,-y,-z
x,y,-z
-x,y,z
x,-y,z
1/2+x,1/2+y,z
1/2-x,1/2-y,z
1/2+x,1/2-y,-z
1/2-x,1/2+y,-z
1/2-x,1/2-y,-z
1/2+x,1/2+y,-z
1/2-x,1/2+y,z
1/2+x,1/2-y,z
loop_
_atom_site_type_symbol
_atom_site_label
_atom_site_fract_x
_atom_site_fract_y
_atom_site_fract_z
Si Si1 0.154785 0.311322 0.334592
Si Si2 0.667998 0.181114 0.824170
Si Si3 0.339960 0.582481 0.919904
Si Si4 0.000000 0.419036 0.583261
O O1 0.250000 0.250000 0.369263
O O2 0.210386 0.333833 0.257443
O O3 0.140822 0.380189 0.385093
O O4 0.000000 0.276458 0.325010
O O5 0.500000 0.189270 0.835470
O O6 0.750000 0.250000 0.851056
O O7 0.723763 0.116321 0.869234
O O8 0.500000 0.604265 0.897723
O O9 0.320981 0.500000 0.913158
O O10 0.310995 0.606733 0.000000
O O11 0.000000 0.500000 0.606803
O O12 0.000000 0.411162 0.500000
#
# Coordination Sequence:
#
# PCOD8268460 Si02
#       4
#    16  16  16   8
#     4   8  17  32  50  75 101 132 169 209 246 300
#     4  10  19  32  50  73  98 129 162 208 251 295
#     4   9  19  35  51  69  96 130 168 209 253 303
#     4   9  18  32  52  78 106 136 168 205 252 302
#
# _framework density 16.437653000000001
#
# number of rings (size 3 to 8) (size 9 to 14) (size 15 to 20)
#    0.857    2.143    0.000    1.714    0.000    4.571 
#    0.000    1.429    0.000    0.857    0.000    2.000 
#    0.000    0.000    0.000    0.000    0.000    0.000 
#
# Total GULP energy -346951.936440 kJ/mol
# GULP energy per Si atom -12391.140587 kJ/mol
# Density = 1.640024 g / cm^3
# Si number density = 16.437653 Si / 1000 Ang^3
#
#
#
# Elastic Constant Matrix: (Units=GPa)
#
#
# Indices 1 2 3 4 5 6 
#
# 1 77.0355 49.3872 37.8024 0.0000 0.0000 0.0000
# 2 49.3872 103.0371 56.8523 0.0000 0.0000 0.0000
# 3 37.8024 56.8523 74.1494 0.0000 0.0000 0.0000
# 4 0.0000 0.0000 0.0000 30.9636 0.0000 0.0000
# 5 0.0000 0.0000 0.0000 0.0000 21.0145 0.0000
# 6 0.0000 0.0000 0.0000 0.0000 0.0000 35.2699
#
#
#
# Elastic Compliance Matrix: (Units=1/GPa)
#
#
# Indices 1 2 3 4 5 6 
#
# 1 0.019700 -0.006761 -0.004859 0.000000 0.000000 0.000000
# 2 -0.006761 0.019142 -0.011230 0.000000 0.000000 0.000000
# 3 -0.004859 -0.011230 0.024574 0.000000 0.000000 0.000000
# 4 0.000000 0.000000 0.000000 0.032296 0.000000 0.000000
# 5 0.000000 0.000000 0.000000 0.000000 0.047586 0.000000
# 6 0.000000 0.000000 0.000000 0.000000 0.000000 0.028353
#
#
# Mechanical properties :
#
#
# Convention : Reuss Voigt Hill
#
# Bulk Modulus (GPa) = 56.44850 60.25623 58.35237
# Shear Modulus (GPa) = 22.39564 24.79495 23.59530
#
# Velocity S-wave (km/s) = 3.69516 3.88806 3.79283
# Velocity P-wave (km/s) = 7.25404 7.54275 7.39980
#
# Compressibility (1/GPa) = 0.01771526
#
# Stress axis : x y z
#
# Youngs Moduli (GPa) = 50.76062 52.24017 40.69366
#
# Poissons Ratio (x) = 0.35322 0.19774
# Poissons Ratio (y) = 0.34322 0.45698
# Poissons Ratio (z) = 0.24666 0.58665
#
# Static dielectric constant tensor:
#      x y z
#    x 3.037130 0.000000 0.000000 
#    y 0.000000 2.959370 0.000000 
#    z 0.000000 0.000000 2.993630 
# 
# 
# High freq. dielectric constant tensor:
#      x y z
#    x 1.621890 0.000000 0.000000 
#    y 0.000000 1.624670 0.000000 
#    z 0.000000 0.000000 1.626880 
# 
# From -- ./inp_files/49332.got.cif
#   From: 2010.03.12/outbox.cif.g09.slc.cpg/sg65_25_cif.got.tgz:49332.got - 2010.04.10 20:52:16.
