data_PCOD8268203
_publ_section_title
;
Structure prediction by ZEFSAII (Michael W. Deem and Ramdas Pophale) SiO2 
 PCOD8268203
Probable space group: C M M M
;
_chemical_formula_sum "Si O2"
_cell_formula_units_Z 120
_cell_length_a 13.995212
_cell_length_b 20.184578
_cell_length_c 22.221165
_cell_angle_alpha 90.000000
_cell_angle_beta 90.000000
_cell_angle_gamma 90.000000
_cell_volume 6277.200198
_symmetry_space_group_name_H-M "C M M M"
_symmetry_group_IT_number 65
_symmetry_cell_setting 'orthorhombic'
loop_
_space_group_symop_operation_xyz
x,y,z
-x,-y,z
x,-y,-z
-x,y,-z
-x,-y,-z
x,y,-z
-x,y,z
x,-y,z
1/2+x,1/2+y,z
1/2-x,1/2-y,z
1/2+x,1/2-y,-z
1/2-x,1/2+y,-z
1/2-x,1/2-y,-z
1/2+x,1/2+y,-z
1/2-x,1/2+y,z
1/2+x,1/2-y,z
loop_
_atom_site_type_symbol
_atom_site_label
_atom_site_fract_x
_atom_site_fract_y
_atom_site_fract_z
Si Si1 0.238534 0.827430 0.353628
Si Si2 0.890938 0.924579 0.571112
Si Si3 0.897313 0.207570 0.747037
Si Si4 0.888818 0.641159 0.266612
Si Si5 0.890190 0.500000 0.065042
Si Si6 0.805968 0.611807 0.142781
Si Si7 0.390567 0.777643 0.067961
Si Si8 0.896079 0.142997 0.875298
O O1 0.250000 0.750000 0.375678
O O2 0.184957 0.871617 0.403166
O O3 0.178809 0.831028 0.292392
O O4 0.337931 0.863567 0.332998
O O5 0.881517 0.920051 0.500000
O O6 0.000000 0.906868 0.590483
O O7 0.866953 0.000000 0.592333
O O8 0.873132 0.284017 0.753249
O O9 0.899392 0.181023 0.813148
O O10 0.000000 0.198382 0.715028
O O11 0.836880 0.600667 0.212665
O O12 0.000000 0.619752 0.272866
O O13 0.868017 0.564610 0.102388
O O14 0.000000 0.500000 0.051267
O O15 0.836605 0.500000 0.000000
O O16 0.825400 0.685782 0.117695
O O17 0.693893 0.593285 0.130585
O O18 0.500000 0.798140 0.080253
O O19 0.378861 0.698217 0.073575
O O20 0.359849 0.797133 0.000000
O O21 0.000000 0.107044 0.885884
#
# Coordination Sequence:
#
# PCOD8268203 Si02
#       8
#    16  16  16  16   8  16  16  16
#     4  10  19  31  54  86 120 156 192 234 284 342
#     4   9  19  38  63  90 121 157 199 245 290 336
#     4   9  16  29  49  77 113 147 175 215 271 334
#     4  10  19  31  50  79 112 148 184 224 279 337
#     4  11  26  44  59  75  95 131 189 246 288 334
#     4  12  21  36  57  73 101 140 184 227 283 336
#     4  10  20  32  51  79 105 131 169 222 279 335
#     4  10  20  33  52  79 109 133 166 216 275 342
#
# _framework density 19.116803000000001
#
# number of rings (size 3 to 8) (size 9 to 14) (size 15 to 20)
#    0.000    1.933    2.667    2.800    0.000    3.467 
#    1.200    0.333    0.000    0.800    0.000    0.933 
#    0.000    0.000    0.000    0.000    0.000    0.000 
#
# Total GULP energy -743334.863820 kJ/mol
# GULP energy per Si atom -12388.914397 kJ/mol
# Density = 1.907329 g / cm^3
# Si number density = 19.116803 Si / 1000 Ang^3
#
#
#
# Elastic Constant Matrix: (Units=GPa)
#
#
# Indices 1 2 3 4 5 6 
#
# 1 123.0263 31.6196 35.0952 0.0000 0.0000 0.0000
# 2 31.6196 52.9277 28.4142 0.0000 0.0000 0.0000
# 3 35.0952 28.4142 60.4029 0.0000 0.0000 0.0000
# 4 0.0000 0.0000 0.0000 -115.2455 0.0000 0.0000
# 5 0.0000 0.0000 0.0000 0.0000 25.7805 0.0000
# 6 0.0000 0.0000 0.0000 0.0000 0.0000 20.4517
#
#
#
# Elastic Compliance Matrix: (Units=1/GPa)
#
#
# Indices 1 2 3 4 5 6 
#
# 1 0.010324 -0.003943 -0.004143 0.000000 0.000000 0.000000
# 2 -0.003943 0.026783 -0.010308 0.000000 0.000000 0.000000
# 3 -0.004143 -0.010308 0.023812 0.000000 0.000000 0.000000
# 4 0.000000 0.000000 0.000000 -0.008677 0.000000 0.000000
# 5 0.000000 0.000000 0.000000 0.000000 0.038789 0.000000
# 6 0.000000 0.000000 0.000000 0.000000 0.000000 0.048896
#
#
# Mechanical properties :
#
#
# Convention : Reuss Voigt Hill
#
# Bulk Modulus (GPa) = 41.44274 47.40164 44.42219
# Shear Modulus (GPa) = 27.06227 -4.38747 11.33740
#
# Velocity S-wave (km/s) = 3.76656 -1.51660 2.43792
# Velocity P-wave (km/s) = 6.37509 4.66721 5.58680
#
# Compressibility (1/GPa) = 0.02412968
#
# Stress axis : x y z
#
# Youngs Moduli (GPa) = 96.86393 37.33671 41.99578
#
# Poissons Ratio (x) = 0.14722 0.17400
# Poissons Ratio (y) = 0.38195 0.43290
# Poissons Ratio (z) = 0.40134 0.38487
#
# Static dielectric constant tensor:
#      x y z
#    x 4.180000 0.000000 0.000000 
#    y 0.000000 2.949140 0.000000 
#    z 0.000000 0.000000 3.496090 
# 
# 
# High freq. dielectric constant tensor:
#      x y z
#    x 1.760900 0.000000 0.000000 
#    y 0.000000 1.699340 0.000000 
#    z 0.000000 0.000000 1.723940 
# 
# From -- ./inp_files/63071.got.cif
#   From: 2010.03.12/outbox.cif.g09.slc.cpg/sg65_32_cif.got.tgz:63071.got - 2010.04.10 20:52:16.
