data_PCOD8268498
_publ_section_title
;
Structure prediction by ZEFSAII (Michael W. Deem and Ramdas Pophale) SiO2 
 PCOD8268498
Probable space group: C M M M
;
_chemical_formula_sum "Si O2"
_cell_formula_units_Z 72
_cell_length_a 16.414980
_cell_length_b 27.589689
_cell_length_c 8.751738
_cell_angle_alpha 90.000000
_cell_angle_beta 90.000000
_cell_angle_gamma 90.000000
_cell_volume 3963.523803
_symmetry_space_group_name_H-M "C M M M"
_symmetry_group_IT_number 65
_symmetry_cell_setting 'orthorhombic'
loop_
_space_group_symop_operation_xyz
x,y,z
-x,-y,z
x,-y,-z
-x,y,-z
-x,-y,-z
x,y,-z
-x,y,z
x,-y,z
1/2+x,1/2+y,z
1/2-x,1/2-y,z
1/2+x,1/2-y,-z
1/2-x,1/2+y,-z
1/2-x,1/2-y,-z
1/2+x,1/2+y,-z
1/2-x,1/2+y,z
1/2+x,1/2-y,z
loop_
_atom_site_type_symbol
_atom_site_label
_atom_site_fract_x
_atom_site_fract_y
_atom_site_fract_z
Si Si1 0.694251 0.445375 0.175623
Si Si2 0.338018 0.890394 0.679177
Si Si3 0.088454 0.858368 0.177952
Si Si4 0.245910 0.804835 0.181878
Si Si5 0.500000 0.055654 0.681791
O O1 0.671209 0.500000 0.216097
O O2 0.767066 0.428280 0.283354
O O3 0.613122 0.414190 0.206311
O O4 0.722843 0.438928 0.000000
O O5 0.343393 0.881768 0.500000
O O6 0.319970 0.837957 0.755709
O O7 0.421548 0.914342 0.741390
O O8 0.159594 0.824594 0.246630
O O9 0.000000 0.848606 0.255710
O O10 0.081012 0.847000 0.000000
O O11 0.250000 0.750000 0.242152
O O12 0.249996 0.807593 0.000000
O O13 0.500000 0.053047 0.500000
O O14 0.500000 0.000000 0.745744
#
# Coordination Sequence:
#
# PCOD8268498 Si02
#       5
#    16  16  16  16   8
#     4   9  17  29  46  69  97 127 159 197 240 283
#     4  10  19  32  51  72  96 128 168 204 240 292
#     4   8  14  26  45  68  93 121 156 192 229 281
#     4   9  18  34  52  71  97 126 158 202 251 292
#     4   9  18  32  49  71 101 135 169 205 244 293
#
# _framework density 18.165654
#
# number of rings (size 3 to 8) (size 9 to 14) (size 15 to 20)
#    0.000    3.000    0.000    2.667    0.000    2.222 
#    2.000    4.444    0.000   14.667    0.000    6.222 
#    0.000    0.000    0.000    0.000    0.000    0.000 
#
# Total GULP energy -446144.656044 kJ/mol
# GULP energy per Si atom -12392.907112 kJ/mol
# Density = 1.812431 g / cm^3
# Si number density = 18.165654 Si / 1000 Ang^3
#
#
#
# Elastic Constant Matrix: (Units=GPa)
#
#
# Indices 1 2 3 4 5 6 
#
# 1 134.8908 71.1183 16.8263 0.0000 0.0000 0.0000
# 2 71.1183 176.8644 19.4645 0.0000 0.0000 0.0000
# 3 16.8263 19.4645 24.1490 0.0000 0.0000 0.0000
# 4 0.0000 0.0000 0.0000 21.7583 0.0000 0.0000
# 5 0.0000 0.0000 0.0000 0.0000 19.2560 0.0000
# 6 0.0000 0.0000 0.0000 0.0000 0.0000 20.9072
#
#
#
# Elastic Compliance Matrix: (Units=1/GPa)
#
#
# Indices 1 2 3 4 5 6 
#
# 1 0.009745 -0.003480 -0.003985 0.000000 0.000000 0.000000
# 2 -0.003480 0.007447 -0.003578 0.000000 0.000000 0.000000
# 3 -0.003985 -0.003578 0.047070 0.000000 0.000000 0.000000
# 4 0.000000 0.000000 0.000000 0.045960 0.000000 0.000000
# 5 0.000000 0.000000 0.000000 0.000000 0.051932 0.000000
# 6 0.000000 0.000000 0.000000 0.000000 0.000000 0.047830
#
#
# Mechanical properties :
#
#
# Convention : Reuss Voigt Hill
#
# Bulk Modulus (GPa) = 23.70994 61.19139 42.45066
# Shear Modulus (GPa) = 20.31454 27.61731 23.96593
#
# Velocity S-wave (km/s) = 3.34772 3.90334 3.63616
# Velocity P-wave (km/s) = 5.29371 7.35344 6.40689
#
# Compressibility (1/GPa) = 0.04217641
#
# Stress axis : x y z
#
# Youngs Moduli (GPa) = 102.61342 134.27966 21.24495
#
# Poissons Ratio (x) = 0.46730 0.08467
# Poissons Ratio (y) = 0.35710 0.07601
# Poissons Ratio (z) = 0.40894 0.48042
#
# Static dielectric constant tensor:
#      x y z
#    x 3.602590 0.000000 0.000000 
#    y 0.000000 3.543920 0.000000 
#    z 0.000000 0.000000 2.961020 
# 
# 
# High freq. dielectric constant tensor:
#      x y z
#    x 1.701780 0.000000 0.000000 
#    y 0.000000 1.708710 0.000000 
#    z 0.000000 0.000000 1.663940 
# 
# From -- ./inp_files/7644.got.cif
#   From: 2010.03.12/outbox.cif.g09.slc.cpg/sg65_4_cif.got.tgz:7644.got - 2010.04.10 20:52:16.
