data_PCOD8268307
_publ_section_title
;
Structure prediction by ZEFSAII (Michael W. Deem and Ramdas Pophale) SiO2 
 PCOD8268307
Probable space group: C M M M
;
_chemical_formula_sum "Si O2"
_cell_formula_units_Z 104
_cell_length_a 15.116359
_cell_length_b 17.572324
_cell_length_c 22.203618
_cell_angle_alpha 90.000000
_cell_angle_beta 90.000000
_cell_angle_gamma 90.000000
_cell_volume 5897.937236
_symmetry_space_group_name_H-M "C M M M"
_symmetry_group_IT_number 65
_symmetry_cell_setting 'orthorhombic'
loop_
_space_group_symop_operation_xyz
x,y,z
-x,-y,z
x,-y,-z
-x,y,-z
-x,-y,-z
x,y,-z
-x,y,z
x,-y,z
1/2+x,1/2+y,z
1/2-x,1/2-y,z
1/2+x,1/2-y,-z
1/2-x,1/2+y,-z
1/2-x,1/2-y,-z
1/2+x,1/2+y,-z
1/2-x,1/2+y,z
1/2+x,1/2-y,z
loop_
_atom_site_type_symbol
_atom_site_label
_atom_site_fract_x
_atom_site_fract_y
_atom_site_fract_z
Si Si1 0.335245 0.196925 0.066830
Si Si2 0.741949 0.415071 0.855837
Si Si3 0.601259 0.218797 0.292532
Si Si4 0.223425 0.583881 0.722200
Si Si5 0.898453 0.877851 0.662276
Si Si6 0.603387 0.500000 0.566031
Si Si7 0.098150 0.792915 0.831787
O O1 0.250000 0.250000 0.065219
O O2 0.306439 0.114463 0.091555
O O3 0.405063 0.232907 0.113233
O O4 0.376786 0.188545 0.000000
O O5 0.712287 0.500000 0.872552
O O6 0.795669 0.412546 0.793203
O O7 0.654655 0.364837 0.851018
O O8 0.500000 0.189947 0.287643
O O9 0.664197 0.148194 0.311102
O O10 0.608974 0.285737 0.343174
O O11 0.635393 0.252612 0.228618
O O12 0.196802 0.500000 0.697374
O O13 0.328975 0.595820 0.713055
O O14 0.870282 0.922305 0.601333
O O15 0.000000 0.899736 0.680693
O O16 0.500000 0.500000 0.556302
O O17 0.649883 0.500000 0.500000
O O18 0.000000 0.822316 0.817883
#
# Coordination Sequence:
#
# PCOD8268307 Si02
#       7
#    16  16  16  16  16   8  16
#     4   9  18  33  51  67  89 127 172 210 250 317
#     4  10  20  31  47  73 100 130 166 206 266 326
#     4  10  20  33  50  74 107 142 179 224 269 316
#     4  11  20  31  51  76 106 142 175 220 271 319
#     4  10  19  31  52  83 109 140 176 208 257 316
#     4   9  18  34  54  82 123 155 176 210 254 307
#     4  10  19  32  50  72  99 130 165 216 268 316
#
# _framework density 17.633284
#
# number of rings (size 3 to 8) (size 9 to 14) (size 15 to 20)
#    0.000    2.077    3.846    0.462    0.000    1.231 
#    0.000    1.538    0.000    2.308    0.000    5.385 
#    0.000    0.615    0.000    0.000    0.000    0.000 
#
# Total GULP energy -644396.292303 kJ/mol
# GULP energy per Si atom -12392.236390 kJ/mol
# Density = 1.759315 g / cm^3
# Si number density = 17.633284 Si / 1000 Ang^3
#
#
#
# Elastic Constant Matrix: (Units=GPa)
#
#
# Indices 1 2 3 4 5 6 
#
# 1 51.2228 46.1894 15.3719 0.0000 0.0000 0.0000
# 2 46.1894 147.6981 39.5802 0.0000 0.0000 0.0000
# 3 15.3719 39.5802 82.3891 0.0000 0.0000 0.0000
# 4 0.0000 0.0000 0.0000 20.9743 0.0000 0.0000
# 5 0.0000 0.0000 0.0000 0.0000 12.7799 0.0000
# 6 0.0000 0.0000 0.0000 0.0000 0.0000 22.6331
#
#
#
# Elastic Compliance Matrix: (Units=1/GPa)
#
#
# Indices 1 2 3 4 5 6 
#
# 1 0.027283 -0.008227 -0.001138 0.000000 0.000000 0.000000
# 2 -0.008227 0.010252 -0.003390 0.000000 0.000000 0.000000
# 3 -0.001138 -0.003390 0.013978 0.000000 0.000000 0.000000
# 4 0.000000 0.000000 0.000000 0.047677 0.000000 0.000000
# 5 0.000000 0.000000 0.000000 0.000000 0.078248 0.000000
# 6 0.000000 0.000000 0.000000 0.000000 0.000000 0.044183
#
#
# Mechanical properties :
#
#
# Convention : Reuss Voigt Hill
#
# Bulk Modulus (GPa) = 38.45743 53.73254 46.09499
# Shear Modulus (GPa) = 19.54654 23.28870 21.41762
#
# Velocity S-wave (km/s) = 3.33303 3.63812 3.48891
# Velocity P-wave (km/s) = 6.05550 6.94163 6.51365
#
# Compressibility (1/GPa) = 0.02600278
#
# Stress axis : x y z
#
# Youngs Moduli (GPa) = 36.65310 97.54273 71.53871
#
# Poissons Ratio (x) = 0.80250 0.08141
# Poissons Ratio (y) = 0.30155 0.24252
# Poissons Ratio (z) = 0.04171 0.33068
#
# Static dielectric constant tensor:
#      x y z
#    x 3.038890 0.000000 0.000000 
#    y 0.000000 3.431930 0.000000 
#    z 0.000000 0.000000 3.310300 
# 
# 
# High freq. dielectric constant tensor:
#      x y z
#    x 1.661770 0.000000 0.000000 
#    y 0.000000 1.685250 0.000000 
#    z 0.000000 0.000000 1.645610 
# 
# From -- ./inp_files/62874.got.cif
#   From: 2010.03.12/outbox.cif.g09.slc.cpg/sg65_32_cif.got.tgz:62874.got - 2010.04.10 20:52:16.
