data_PCOD8268019
_publ_section_title
;
Structure prediction by ZEFSAII (Michael W. Deem and Ramdas Pophale) SiO2 
 PCOD8268019
Probable space group: C M M M
;
_chemical_formula_sum "Si O2"
_cell_formula_units_Z 96
_cell_length_a 18.802592
_cell_length_b 8.694825
_cell_length_c 30.771567
_cell_angle_alpha 90.000000
_cell_angle_beta 90.000000
_cell_angle_gamma 90.000000
_cell_volume 5030.697231
_symmetry_space_group_name_H-M "C M M M"
_symmetry_group_IT_number 65
_symmetry_cell_setting 'orthorhombic'
loop_
_space_group_symop_operation_xyz
x,y,z
-x,-y,z
x,-y,-z
-x,y,-z
-x,-y,-z
x,y,-z
-x,y,z
x,-y,z
1/2+x,1/2+y,z
1/2-x,1/2-y,z
1/2+x,1/2-y,-z
1/2-x,1/2+y,-z
1/2-x,1/2-y,-z
1/2+x,1/2+y,-z
1/2-x,1/2+y,z
1/2+x,1/2-y,z
loop_
_atom_site_type_symbol
_atom_site_label
_atom_site_fract_x
_atom_site_fract_y
_atom_site_fract_z
Si Si1 0.828016 0.317062 0.127584
Si Si2 0.583443 0.174779 0.549144
Si Si3 0.325272 0.679354 0.379406
Si Si4 0.920065 0.682723 0.208713
Si Si5 0.173046 0.317576 0.710992
Si Si6 0.420368 0.182780 0.048253
O O1 0.823310 0.500000 0.127550
O O2 0.750000 0.250000 0.131797
O O3 0.875205 0.256370 0.167720
O O4 0.864711 0.253092 0.083532
O O5 0.607293 0.213213 0.500000
O O6 0.500000 0.197553 0.554060
O O7 0.620661 0.292625 0.581488
O O8 0.604983 0.000000 0.560839
O O9 0.316107 0.500000 0.370849
O O10 0.250000 0.750000 0.392854
O O11 0.354613 0.757332 0.335443
O O12 0.923100 0.500000 0.207547
O O13 0.882453 0.739937 0.252798
O O14 0.000000 0.750646 0.206849
O O15 0.178742 0.500000 0.709860
O O16 0.250000 0.250000 0.722345
O O17 0.500000 0.243348 0.058840
O O18 0.421319 0.000000 0.050193
O O19 0.397155 0.238422 0.000000
#
# Coordination Sequence:
#
# PCOD8268019 Si02
#       6
#    16  16  16  16  16  16
#     4  10  19  31  49  72  99 129 162 203 249 297
#     4   9  19  37  59  81 107 140 176 214 258 307
#     4  11  22  36  55  79 108 140 175 214 256 304
#     4   9  18  32  51  74  96 124 166 209 247 292
#     4  10  19  33  53  74  99 130 164 205 253 304
#     4   8  14  26  46  71  96 125 165 209 247 286
#
# _framework density 19.082840999999998
#
# number of rings (size 3 to 8) (size 9 to 14) (size 15 to 20)
#    0.000    2.500    0.000    5.000    0.000    4.000 
#    0.000    3.333    0.000    5.500    0.000    1.167 
#    0.000    0.000    0.000    0.000    0.000    0.000 
#
# Total GULP energy -595162.696508 kJ/mol
# GULP energy per Si atom -12399.222844 kJ/mol
# Density = 1.903941 g / cm^3
# Si number density = 19.082841 Si / 1000 Ang^3
#
#
#
# Elastic Constant Matrix: (Units=GPa)
#
#
# Indices 1 2 3 4 5 6 
#
# 1 129.6675 26.2402 93.6636 0.0000 0.0000 0.0000
# 2 26.2402 55.2952 32.7624 0.0000 0.0000 0.0000
# 3 93.6636 32.7624 159.2151 0.0000 0.0000 0.0000
# 4 0.0000 0.0000 0.0000 15.1934 0.0000 0.0000
# 5 0.0000 0.0000 0.0000 0.0000 43.9148 0.0000
# 6 0.0000 0.0000 0.0000 0.0000 0.0000 27.3035
#
#
#
# Elastic Compliance Matrix: (Units=1/GPa)
#
#
# Indices 1 2 3 4 5 6 
#
# 1 0.013593 -0.001950 -0.007595 0.000000 0.000000 0.000000
# 2 -0.001950 0.020876 -0.003148 0.000000 0.000000 0.000000
# 3 -0.007595 -0.003148 0.011397 0.000000 0.000000 0.000000
# 4 0.000000 0.000000 0.000000 0.065818 0.000000 0.000000
# 5 0.000000 0.000000 0.000000 0.000000 0.022771 0.000000
# 6 0.000000 0.000000 0.000000 0.000000 0.000000 0.036625
#
#
# Mechanical properties :
#
#
# Convention : Reuss Voigt Hill
#
# Bulk Modulus (GPa) = 48.83361 72.16781 60.50071
# Shear Modulus (GPa) = 24.59493 30.04978 27.32235
#
# Velocity S-wave (km/s) = 3.59395 3.97256 3.78799
# Velocity P-wave (km/s) = 6.54736 7.67736 7.13476
#
# Compressibility (1/GPa) = 0.02047770
#
# Stress axis : x y z
#
# Youngs Moduli (GPa) = 73.56709 47.90264 87.74400
#
# Poissons Ratio (x) = 0.09343 0.66643
# Poissons Ratio (y) = 0.14348 0.27624
# Poissons Ratio (z) = 0.55876 0.15081
#
# Static dielectric constant tensor:
#      x y z
#    x 3.517330 0.000000 0.000000 
#    y 0.000000 3.145540 0.000000 
#    z 0.000000 0.000000 3.780390 
# 
# 
# High freq. dielectric constant tensor:
#      x y z
#    x 1.741240 0.000000 0.000000 
#    y 0.000000 1.706690 0.000000 
#    z 0.000000 0.000000 1.758210 
# 
# From -- ./inp_files/75321.got.cif
#   From: 2010.03.12/outbox.cif.g09.slc.cpg/sg65_38_cif.got.tgz:75321.got - 2010.04.10 20:52:16.
