data_PCOD8268651
_publ_section_title
;
Structure prediction by ZEFSAII (Michael W. Deem and Ramdas Pophale) SiO2 
 PCOD8268651
Probable space group: C M M M
;
_chemical_formula_sum "Si O2"
_cell_formula_units_Z 80
_cell_length_a 27.691686
_cell_length_b 17.112257
_cell_length_c 8.795448
_cell_angle_alpha 90.000000
_cell_angle_beta 90.000000
_cell_angle_gamma 90.000000
_cell_volume 4167.874735
_symmetry_space_group_name_H-M "C M M M"
_symmetry_group_IT_number 65
_symmetry_cell_setting 'orthorhombic'
loop_
_space_group_symop_operation_xyz
x,y,z
-x,-y,z
x,-y,-z
-x,y,-z
-x,-y,-z
x,y,-z
-x,y,z
x,-y,z
1/2+x,1/2+y,z
1/2-x,1/2-y,z
1/2+x,1/2-y,-z
1/2-x,1/2+y,-z
1/2-x,1/2-y,-z
1/2+x,1/2+y,-z
1/2-x,1/2+y,z
1/2+x,1/2-y,z
loop_
_atom_site_type_symbol
_atom_site_label
_atom_site_fract_x
_atom_site_fract_y
_atom_site_fract_z
Si Si1 0.500000 0.588778 0.681330
Si Si2 0.390089 0.854613 0.319800
Si Si3 0.907122 0.181337 0.318899
Si Si4 0.555638 0.000000 0.821384
Si Si5 0.210654 0.587311 0.319770
Si Si6 0.683861 0.588657 0.680780
O O1 0.500000 0.500000 0.742867
O O2 0.500000 0.588876 0.500000
O O3 0.547037 0.633697 0.744556
O O4 0.393927 0.864961 0.500000
O O5 0.410675 0.771182 0.265322
O O6 0.333876 0.858809 0.266253
O O7 0.420838 0.922254 0.244446
O O8 0.906057 0.177370 0.500000
O O9 0.858193 0.143240 0.250834
O O10 0.500000 0.000000 0.773340
O O11 0.562902 0.000000 0.000000
O O12 0.212483 0.584227 0.500000
O O13 0.201513 0.500000 0.256504
O O14 0.263117 0.618193 0.261921
O O15 0.681688 0.591997 0.500000
O O16 0.675125 0.500000 0.736029
#
# Coordination Sequence:
#
# PCOD8268651 Si02
#       6
#     8  16  16   8  16  16
#     4   9  16  26  38  55  93 140 172 195 231 291
#     4  10  19  32  52  76 102 126 160 209 255 293
#     4   9  17  25  38  66  97 132 170 202 243 292
#     4  11  25  41  55  71  95 131 171 202 245 308
#     4   8  13  23  40  64  94 128 161 195 241 293
#     4   8  13  22  37  60  99 139 165 193 239 296
#
# _framework density 19.194434999999999
#
# number of rings (size 3 to 8) (size 9 to 14) (size 15 to 20)
#    0.000    3.000    1.000    2.100    1.400    4.000 
#    0.000    4.000    0.000    0.000    0.000    2.800 
#    0.000    3.200    0.000    0.000    0.000    0.000 
#
# Total GULP energy -495682.057349 kJ/mol
# GULP energy per Si atom -12392.051434 kJ/mol
# Density = 1.915075 g / cm^3
# Si number density = 19.194435 Si / 1000 Ang^3
#
#
#
# Elastic Constant Matrix: (Units=GPa)
#
#
# Indices 1 2 3 4 5 6 
#
# 1 192.5553 110.3989 22.8106 0.0000 0.0000 0.0000
# 2 110.3989 162.8411 17.2962 0.0000 0.0000 0.0000
# 3 22.8106 17.2962 11.6681 0.0000 0.0000 0.0000
# 4 0.0000 0.0000 0.0000 0.8949 0.0000 0.0000
# 5 0.0000 0.0000 0.0000 0.0000 5.4397 0.0000
# 6 0.0000 0.0000 0.0000 0.0000 0.0000 32.5935
#
#
#
# Elastic Compliance Matrix: (Units=1/GPa)
#
#
# Indices 1 2 3 4 5 6 
#
# 1 0.009505 -0.005305 -0.010717 0.000000 0.000000 0.000000
# 2 -0.005305 0.010250 -0.004822 0.000000 0.000000 0.000000
# 3 -0.010717 -0.004822 0.113802 0.000000 0.000000 0.000000
# 4 0.000000 0.000000 0.000000 1.117421 0.000000 0.000000
# 5 0.000000 0.000000 0.000000 0.000000 0.183835 0.000000
# 6 0.000000 0.000000 0.000000 0.000000 0.000000 0.030681
#
#
# Mechanical properties :
#
#
# Convention : Reuss Voigt Hill
#
# Bulk Modulus (GPa) = 10.88512 74.23067 42.55790
# Shear Modulus (GPa) = 3.25139 22.22288 12.73713
#
# Velocity S-wave (km/s) = 1.30292 3.40630 2.57881
# Velocity P-wave (km/s) = 2.81900 7.36393 5.57558
#
# Compressibility (1/GPa) = 0.09186851
#
# Stress axis : x y z
#
# Youngs Moduli (GPa) = 105.21179 97.56104 8.78717
#
# Poissons Ratio (x) = 0.51761 0.09417
# Poissons Ratio (y) = 0.55820 0.04237
# Poissons Ratio (z) = 1.12751 0.47045
#
# Static dielectric constant tensor:
#      x y z
#    x 4.063370 0.000000 0.000000 
#    y 0.000000 3.623600 0.000000 
#    z 0.000000 0.000000 2.688660 
# 
# 
# High freq. dielectric constant tensor:
#      x y z
#    x 1.769690 0.000000 0.000000 
#    y 0.000000 1.747580 0.000000 
#    z 0.000000 0.000000 1.656130 
# 
# From -- ./inp_files/16105.got.cif
#   From: 2010.03.12/outbox.cif.g09.slc.cpg/sg65_9_cif.got.tgz:16105.got - 2010.04.10 20:52:16.
