data_PCOD8268084
_publ_section_title
;
Structure prediction by ZEFSAII (Michael W. Deem and Ramdas Pophale) SiO2 
 PCOD8268084
Probable space group: C M M M
;
_chemical_formula_sum "Si O2"
_cell_formula_units_Z 104
_cell_length_a 26.935989
_cell_length_b 8.701331
_cell_length_c 24.456561
_cell_angle_alpha 90.000000
_cell_angle_beta 90.000000
_cell_angle_gamma 90.000000
_cell_volume 5732.103237
_symmetry_space_group_name_H-M "C M M M"
_symmetry_group_IT_number 65
_symmetry_cell_setting 'orthorhombic'
loop_
_space_group_symop_operation_xyz
x,y,z
-x,-y,z
x,-y,-z
-x,y,-z
-x,-y,-z
x,y,-z
-x,y,z
x,-y,z
1/2+x,1/2+y,z
1/2-x,1/2-y,z
1/2+x,1/2-y,-z
1/2-x,1/2+y,-z
1/2-x,1/2-y,-z
1/2+x,1/2+y,-z
1/2-x,1/2+y,z
1/2+x,1/2-y,z
loop_
_atom_site_type_symbol
_atom_site_label
_atom_site_fract_x
_atom_site_fract_y
_atom_site_fract_z
Si Si1 0.555454 0.682348 0.939641
Si Si2 0.610276 0.680099 0.166313
Si Si3 0.407867 0.678779 0.366487
Si Si4 0.500000 0.317533 0.561105
Si Si5 0.943500 0.325562 0.259773
Si Si6 0.300295 0.678411 0.653093
Si Si7 0.300355 0.180712 0.228198
O O1 0.500000 0.748339 0.928928
O O2 0.552702 0.500000 0.936483
O O3 0.593585 0.741084 0.893496
O O4 0.573984 0.734859 0.000000
O O5 0.622548 0.500000 0.166350
O O6 0.565670 0.715394 0.208238
O O7 0.657532 0.776609 0.184957
O O8 0.418201 0.500000 0.354501
O O9 0.449032 0.740093 0.409654
O O10 0.411305 0.772561 0.310829
O O11 0.349874 0.703374 0.384932
O O12 0.500000 0.500000 0.558740
O O13 0.500000 0.248220 0.500000
O O14 0.928412 0.500000 0.244697
O O15 0.000000 0.311746 0.277816
O O16 0.289790 0.500000 0.661418
O O17 0.250000 0.750000 0.626337
O O18 0.311101 0.749246 0.712363
O O19 0.250000 0.250000 0.203679
O O20 0.296036 0.000000 0.234212
#
# Coordination Sequence:
#
# PCOD8268084 Si02
#       7
#    16  16  16   8  16  16  16
#     4   8  15  29  49  73  99 129 168 211 253 300
#     4  11  20  31  50  75 102 134 170 210 258 314
#     4  10  19  32  53  77 103 137 175 216 262 316
#     4   9  18  34  57  83 107 137 180 229 270 307
#     4  11  22  32  45  71 106 140 170 207 258 314
#     4  10  19  31  49  75 104 138 177 214 259 316
#     4  11  21  33  49  71 102 136 170 210 256 311
#
# _framework density 18.143426999999999
#
# number of rings (size 3 to 8) (size 9 to 14) (size 15 to 20)
#    0.000    1.923    2.308    4.615    0.000    2.154 
#    0.000    0.000    0.000    3.692    0.000    5.385 
#    0.000    0.000    0.000    0.000    0.000    0.615 
#
# Total GULP energy -644464.351348 kJ/mol
# GULP energy per Si atom -12393.545218 kJ/mol
# Density = 1.810213 g / cm^3
# Si number density = 18.143427 Si / 1000 Ang^3
#
#
#
# Elastic Constant Matrix: (Units=GPa)
#
#
# Indices 1 2 3 4 5 6 
#
# 1 145.1330 37.0922 49.0742 0.0000 0.0000 0.0000
# 2 37.0922 71.7451 16.7651 0.0000 0.0000 0.0000
# 3 49.0742 16.7651 81.5360 0.0000 0.0000 0.0000
# 4 0.0000 0.0000 0.0000 7.4057 0.0000 0.0000
# 5 0.0000 0.0000 0.0000 0.0000 20.0468 0.0000
# 6 0.0000 0.0000 0.0000 0.0000 0.0000 27.2424
#
#
#
# Elastic Compliance Matrix: (Units=1/GPa)
#
#
# Indices 1 2 3 4 5 6 
#
# 1 0.009531 -0.003768 -0.004962 0.000000 0.000000 0.000000
# 2 -0.003768 0.016131 -0.001049 0.000000 0.000000 0.000000
# 3 -0.004962 -0.001049 0.015466 0.000000 0.000000 0.000000
# 4 0.000000 0.000000 0.000000 0.135031 0.000000 0.000000
# 5 0.000000 0.000000 0.000000 0.000000 0.049883 0.000000
# 6 0.000000 0.000000 0.000000 0.000000 0.000000 0.036708
#
#
# Mechanical properties :
#
#
# Convention : Reuss Voigt Hill
#
# Bulk Modulus (GPa) = 46.35749 56.03079 51.19414
# Shear Modulus (GPa) = 17.27124 23.97115 20.62120
#
# Velocity S-wave (km/s) = 3.08868 3.63878 3.37496
# Velocity P-wave (km/s) = 6.19080 6.97162 6.59278
#
# Compressibility (1/GPa) = 0.02157149
#
# Stress axis : x y z
#
# Youngs Moduli (GPa) = 104.92147 61.99073 64.65601
#
# Poissons Ratio (x) = 0.23359 0.32080
# Poissons Ratio (y) = 0.39535 0.06782
# Poissons Ratio (z) = 0.52058 0.06503
#
# Static dielectric constant tensor:
#      x y z
#    x 3.677360 0.000000 0.000000 
#    y 0.000000 3.240190 0.000000 
#    z 0.000000 0.000000 3.265690 
# 
# 
# High freq. dielectric constant tensor:
#      x y z
#    x 1.716510 0.000000 0.000000 
#    y 0.000000 1.691250 0.000000 
#    z 0.000000 0.000000 1.665270 
# 
# From -- ./inp_files/65940.got.cif
#   From: 2010.03.12/outbox.cif.g09.slc.cpg/sg65_33_cif.got.tgz:65940.got - 2010.04.10 20:52:16.
