data_PCOD8268440
_publ_section_title
;
Structure prediction by ZEFSAII (Michael W. Deem and Ramdas Pophale) SiO2 
 PCOD8268440
Probable space group: C M M M
;
_chemical_formula_sum "Si O2"
_cell_formula_units_Z 96
_cell_length_a 8.964011
_cell_length_b 23.927569
_cell_length_c 25.732168
_cell_angle_alpha 90.000000
_cell_angle_beta 90.000000
_cell_angle_gamma 90.000000
_cell_volume 5519.215305
_symmetry_space_group_name_H-M "C M M M"
_symmetry_group_IT_number 65
_symmetry_cell_setting 'orthorhombic'
loop_
_space_group_symop_operation_xyz
x,y,z
-x,-y,z
x,-y,-z
-x,y,-z
-x,-y,-z
x,y,-z
-x,y,z
x,-y,z
1/2+x,1/2+y,z
1/2-x,1/2-y,z
1/2+x,1/2-y,-z
1/2-x,1/2+y,-z
1/2-x,1/2-y,-z
1/2+x,1/2+y,-z
1/2-x,1/2+y,z
1/2+x,1/2-y,z
loop_
_atom_site_type_symbol
_atom_site_label
_atom_site_fract_x
_atom_site_fract_y
_atom_site_fract_z
Si Si1 0.824067 0.689582 0.748326
Si Si2 0.823713 0.000000 0.324236
Si Si3 0.326477 0.893872 0.837145
Si Si4 0.325090 0.692417 0.557886
Si Si5 0.175877 0.437216 0.943359
Si Si6 0.176888 0.878471 0.345101
Si Si7 0.324020 0.500000 0.209416
O O1 0.750000 0.750000 0.746466
O O2 0.787604 0.662212 0.804868
O O3 0.759042 0.650865 0.702868
O O4 0.000000 0.696089 0.739622
O O5 0.770211 0.057163 0.351583
O O6 0.756216 0.000000 0.266896
O O7 0.000000 0.000000 0.322151
O O8 0.500000 0.908422 0.830037
O O9 0.282919 0.891297 0.898755
O O10 0.230246 0.944388 0.817020
O O11 0.275387 0.672889 0.500000
O O12 0.500000 0.702107 0.560029
O O13 0.250000 0.750000 0.573743
O O14 0.273188 0.647587 0.600172
O O15 0.235623 0.500000 0.929301
O O16 0.000000 0.440847 0.947683
O O17 0.240921 0.418552 0.000000
O O18 0.000000 0.873081 0.335173
O O19 0.500000 0.500000 0.209437
#
# Coordination Sequence:
#
# PCOD8268440 Si02
#       7
#    16   8  16  16  16  16   8
#     4  11  23  35  50  72  98 128 163 203 247 288
#     4   9  18  31  48  72 101 133 160 189 236 291
#     4  10  19  32  50  72  99 128 163 204 240 284
#     4   9  18  32  51  73  96 126 165 207 246 282
#     4   8  13  23  44  72  97 122 155 197 240 280
#     4  10  19  34  53  73 102 132 162 198 240 293
#     4  11  19  29  48  73 101 134 163 190 241 295
#
# _framework density 17.393775999999999
#
# number of rings (size 3 to 8) (size 9 to 14) (size 15 to 20)
#    0.000    2.333    2.500    1.750    0.000    2.667 
#    0.000    0.833    0.000    4.000    0.000    0.000 
#    0.000    4.000    0.000    0.000    0.000    0.167 
#
# Total GULP energy -594721.196717 kJ/mol
# GULP energy per Si atom -12390.024932 kJ/mol
# Density = 1.735419 g / cm^3
# Si number density = 17.393776 Si / 1000 Ang^3
#
#
#
# Elastic Constant Matrix: (Units=GPa)
#
#
# Indices 1 2 3 4 5 6 
#
# 1 34.7354 31.2828 29.6403 0.0000 0.0000 0.0000
# 2 31.2828 132.3461 84.5037 0.0000 0.0000 0.0000
# 3 29.6403 84.5037 150.3777 0.0000 0.0000 0.0000
# 4 0.0000 0.0000 0.0000 29.3649 0.0000 0.0000
# 5 0.0000 0.0000 0.0000 0.0000 17.8530 0.0000
# 6 0.0000 0.0000 0.0000 0.0000 0.0000 7.7194
#
#
#
# Elastic Compliance Matrix: (Units=1/GPa)
#
#
# Indices 1 2 3 4 5 6 
#
# 1 0.037919 -0.006536 -0.003801 0.000000 0.000000 0.000000
# 2 -0.006536 0.012911 -0.005967 0.000000 0.000000 0.000000
# 3 -0.003801 -0.005967 0.010752 0.000000 0.000000 0.000000
# 4 0.000000 0.000000 0.000000 0.034054 0.000000 0.000000
# 5 0.000000 0.000000 0.000000 0.000000 0.056013 0.000000
# 6 0.000000 0.000000 0.000000 0.000000 0.000000 0.129544
#
#
# Mechanical properties :
#
#
# Convention : Reuss Voigt Hill
#
# Bulk Modulus (GPa) = 34.51373 67.59029 51.05201
# Shear Modulus (GPa) = 15.45790 22.45628 18.95709
#
# Velocity S-wave (km/s) = 2.98435 3.59702 3.30491
# Velocity P-wave (km/s) = 5.63567 7.49631 6.63157
#
# Compressibility (1/GPa) = 0.02897397
#
# Stress axis : x y z
#
# Youngs Moduli (GPa) = 26.37208 77.45546 93.00438
#
# Poissons Ratio (x) = 0.50623 0.35354
# Poissons Ratio (y) = 0.17236 0.55494
# Poissons Ratio (z) = 0.10025 0.46216
#
# Static dielectric constant tensor:
#      x y z
#    x 3.051020 0.000000 0.000000 
#    y 0.000000 3.159430 0.000000 
#    z 0.000000 0.000000 3.791230 
# 
# 
# High freq. dielectric constant tensor:
#      x y z
#    x 1.649350 0.000000 0.000000 
#    y 0.000000 1.655340 0.000000 
#    z 0.000000 0.000000 1.683660 
# 
# From -- ./inp_files/73488.got.cif
#   From: 2010.03.12/outbox.cif.g09.slc.cpg/sg65_37_cif.got.tgz:73488.got - 2010.04.10 20:52:16.
