data_PCOD8268094
_publ_section_title
;
Structure prediction by ZEFSAII (Michael W. Deem and Ramdas Pophale) SiO2 
 PCOD8268094
Probable space group: C M M M
;
_chemical_formula_sum "Si O2"
_cell_formula_units_Z 96
_cell_length_a 23.649764
_cell_length_b 8.863270
_cell_length_c 26.035332
_cell_angle_alpha 90.000000
_cell_angle_beta 90.000000
_cell_angle_gamma 90.000000
_cell_volume 5457.376428
_symmetry_space_group_name_H-M "C M M M"
_symmetry_group_IT_number 65
_symmetry_cell_setting 'orthorhombic'
loop_
_space_group_symop_operation_xyz
x,y,z
-x,-y,z
x,-y,-z
-x,y,-z
-x,-y,-z
x,y,-z
-x,y,z
x,-y,z
1/2+x,1/2+y,z
1/2-x,1/2-y,z
1/2+x,1/2-y,-z
1/2-x,1/2+y,-z
1/2-x,1/2-y,-z
1/2+x,1/2+y,-z
1/2-x,1/2+y,z
1/2+x,1/2-y,z
loop_
_atom_site_type_symbol
_atom_site_label
_atom_site_fract_x
_atom_site_fract_y
_atom_site_fract_z
Si Si1 0.384979 0.678987 0.254441
Si Si2 0.689835 0.175469 0.054160
Si Si3 0.888739 0.825486 0.558109
Si Si4 0.189556 0.176923 0.351123
Si Si5 0.312092 0.820810 0.834093
Si Si6 0.500000 0.177776 0.597506
Si Si7 0.500000 0.179578 0.714638
O O1 0.391396 0.500000 0.251101
O O2 0.350058 0.729389 0.304530
O O3 0.354085 0.741188 0.204641
O O4 0.445944 0.755169 0.256360
O O5 0.750000 0.250000 0.052549
O O6 0.661422 0.217298 0.108947
O O7 0.701431 0.000000 0.054749
O O8 0.656978 0.219174 0.000000
O O9 0.867719 0.799113 0.500000
O O10 0.839269 0.768103 0.595861
O O11 0.945498 0.733989 0.567365
O O12 0.902393 0.000000 0.569152
O O13 0.250000 0.250000 0.344542
O O14 0.198758 0.000000 0.350736
O O15 0.250000 0.750000 0.827491
O O16 0.308736 0.000000 0.823624
O O17 0.500000 0.238190 0.655862
O O18 0.500000 0.000000 0.596901
O O19 0.500000 0.000000 0.717996
#
# Coordination Sequence:
#
# PCOD8268094 Si02
#       7
#    16  16  16  16  16   8   8
#     4  11  22  37  56  77 103 137 174 214 260 314
#     4   8  14  25  42  66  99 139 178 215 255 298
#     4  10  21  38  58  78 103 137 173 208 252 308
#     4  10  22  37  54  76 102 135 172 208 250 302
#     4  10  19  31  49  76 110 144 180 219 258 307
#     4  11  22  36  57  84 108 129 161 211 262 307
#     4  11  23  38  58  81 103 131 166 213 264 312
#
# _framework density 17.590869999999999
#
# number of rings (size 3 to 8) (size 9 to 14) (size 15 to 20)
#    0.000    2.000    1.667    2.250    0.000    6.333 
#    0.000    0.000    0.000    0.000    0.000    0.583 
#    0.000    4.667    0.000    0.000    0.000    0.000 
#
# Total GULP energy -594905.627491 kJ/mol
# GULP energy per Si atom -12393.867239 kJ/mol
# Density = 1.755083 g / cm^3
# Si number density = 17.590870 Si / 1000 Ang^3
#
#
#
# Elastic Constant Matrix: (Units=GPa)
#
#
# Indices 1 2 3 4 5 6 
#
# 1 115.2139 36.5883 63.5744 0.0000 0.0000 0.0000
# 2 36.5883 51.4126 44.0055 0.0000 0.0000 0.0000
# 3 63.5744 44.0055 164.8162 0.0000 0.0000 0.0000
# 4 0.0000 0.0000 0.0000 23.6178 0.0000 0.0000
# 5 0.0000 0.0000 0.0000 0.0000 35.2739 0.0000
# 6 0.0000 0.0000 0.0000 0.0000 0.0000 24.4693
#
#
#
# Elastic Compliance Matrix: (Units=1/GPa)
#
#
# Indices 1 2 3 4 5 6 
#
# 1 0.012347 -0.006106 -0.003132 0.000000 0.000000 0.000000
# 2 -0.006106 0.028232 -0.005183 0.000000 0.000000 0.000000
# 3 -0.003132 -0.005183 0.008659 0.000000 0.000000 0.000000
# 4 0.000000 0.000000 0.000000 0.042341 0.000000 0.000000
# 5 0.000000 0.000000 0.000000 0.000000 0.028350 0.000000
# 6 0.000000 0.000000 0.000000 0.000000 0.000000 0.040868
#
#
# Mechanical properties :
#
#
# Convention : Reuss Voigt Hill
#
# Bulk Modulus (GPa) = 49.02803 68.86435 58.94619
# Shear Modulus (GPa) = 25.45356 29.15717 27.30536
#
# Velocity S-wave (km/s) = 3.80804 4.07568 3.94413
# Velocity P-wave (km/s) = 6.87508 7.83460 7.37047
#
# Compressibility (1/GPa) = 0.02039650
#
# Stress axis : x y z
#
# Youngs Moduli (GPa) = 80.99190 35.42122 115.48211
#
# Poissons Ratio (x) = 0.21627 0.36173
# Poissons Ratio (y) = 0.49452 0.59850
# Poissons Ratio (z) = 0.25369 0.18357
#
# Static dielectric constant tensor:
#      x y z
#    x 3.204200 0.000000 0.000000 
#    y 0.000000 3.253210 0.000000 
#    z 0.000000 0.000000 3.941050 
# 
# 
# High freq. dielectric constant tensor:
#      x y z
#    x 1.648800 0.000000 0.000000 
#    y 0.000000 1.686280 0.000000 
#    z 0.000000 0.000000 1.700870 
# 
# From -- ./inp_files/71476.got.cif
#   From: 2010.03.12/outbox.cif.g09.slc.cpg/sg65_36_cif.got.tgz:71476.got - 2010.04.10 20:52:16.
