data_PCOD8268825
_publ_section_title
;
Structure prediction by ZEFSAII (Michael W. Deem and Ramdas Pophale) SiO2 
 PCOD8268825
Probable space group: C M M M
;
_chemical_formula_sum "Si O2"
_cell_formula_units_Z 76
_cell_length_a 15.579210
_cell_length_b 23.108170
_cell_length_c 11.808827
_cell_angle_alpha 90.000000
_cell_angle_beta 90.000000
_cell_angle_gamma 90.000000
_cell_volume 4251.260773
_symmetry_space_group_name_H-M "C M M M"
_symmetry_group_IT_number 65
_symmetry_cell_setting 'orthorhombic'
loop_
_space_group_symop_operation_xyz
x,y,z
-x,-y,z
x,-y,-z
-x,y,-z
-x,-y,-z
x,y,-z
-x,y,z
x,-y,z
1/2+x,1/2+y,z
1/2-x,1/2-y,z
1/2+x,1/2-y,-z
1/2-x,1/2+y,-z
1/2-x,1/2-y,-z
1/2+x,1/2+y,-z
1/2-x,1/2+y,z
1/2+x,1/2-y,z
loop_
_atom_site_type_symbol
_atom_site_label
_atom_site_fract_x
_atom_site_fract_y
_atom_site_fract_z
Si Si1 0.500000 0.301923 0.633196
Si Si2 0.000000 0.682756 0.236364
Si Si3 0.171378 0.609371 0.754691
Si Si4 0.836766 0.122794 0.366483
Si Si5 0.598787 0.000000 0.365564
Si Si6 0.500000 0.850941 0.000000
Si Si7 0.904652 0.000000 0.365927
Si Si8 0.160919 0.430474 0.000000
O O1 0.500000 0.290621 0.500000
O O2 0.500000 0.241105 0.694633
O O3 0.416058 0.337241 0.670640
O O4 0.913174 0.647945 0.260550
O O5 0.000000 0.694319 0.102449
O O6 0.251208 0.643598 0.698460
O O7 0.151117 0.553675 0.680766
O O8 0.202656 0.591952 0.882124
O O9 0.821616 0.126955 0.500000
O O10 0.854844 0.057140 0.326120
O O11 0.500000 0.000000 0.321944
O O12 0.602174 0.000000 0.500000
O O13 0.428404 0.899056 0.000000
O O14 0.913816 0.000000 0.500000
O O15 0.000000 0.000000 0.312446
O O16 0.152900 0.500000 0.000000
#
# Coordination Sequence:
#
# PCOD8268825 Si02
#       8
#     8   8  16  16   8   4   8   8
#     4  10  22  39  58  80 108 146 193 235 271 323
#     4  10  22  38  56  79 106 143 190 233 271 324
#     4  11  21  36  55  81 113 147 182 227 280 328
#     4  10  20  35  56  83 112 145 183 223 275 335
#     4  11  21  32  49  81 120 152 174 209 276 348
#     4   8  19  36  58  76 100 145 194 230 270 314
#     4   9  15  29  54  79 104 135 176 222 263 315
#     4  10  19  32  55  81 111 142 186 229 269 328
#
# _framework density 17.877049
#
# number of rings (size 3 to 8) (size 9 to 14) (size 15 to 20)
#    0.000    1.895    3.158    1.421    0.000    3.368 
#    0.000    3.158    0.000    3.789    0.000    1.474 
#    0.000    0.000    0.000    0.000    0.000    0.000 
#
# Total GULP energy -470870.328392 kJ/mol
# GULP energy per Si atom -12391.324431 kJ/mol
# Density = 1.783636 g / cm^3
# Si number density = 17.877049 Si / 1000 Ang^3
#
#
#
# Elastic Constant Matrix: (Units=GPa)
#
#
# Indices 1 2 3 4 5 6 
#
# 1 115.2789 30.6805 56.9371 0.0000 0.0000 0.0000
# 2 30.6805 99.1704 44.4325 0.0000 0.0000 0.0000
# 3 56.9371 44.4325 79.2555 0.0000 0.0000 0.0000
# 4 0.0000 0.0000 0.0000 26.1113 0.0000 0.0000
# 5 0.0000 0.0000 0.0000 0.0000 19.1204 0.0000
# 6 0.0000 0.0000 0.0000 0.0000 0.0000 1.9193
#
#
#
# Elastic Compliance Matrix: (Units=1/GPa)
#
#
# Indices 1 2 3 4 5 6 
#
# 1 0.013449 0.000225 -0.009788 0.000000 0.000000 0.000000
# 2 0.000225 0.013470 -0.007713 0.000000 0.000000 0.000000
# 3 -0.009788 -0.007713 0.023973 0.000000 0.000000 0.000000
# 4 0.000000 0.000000 0.000000 0.038298 0.000000 0.000000
# 5 0.000000 0.000000 0.000000 0.000000 0.052300 0.000000
# 6 0.000000 0.000000 0.000000 0.000000 0.000000 0.521022
#
#
# Mechanical properties :
#
#
# Convention : Reuss Voigt Hill
#
# Bulk Modulus (GPa) = 61.20003 61.97832 61.58918
# Shear Modulus (GPa) = 7.11734 20.20717 13.66225
#
# Velocity S-wave (km/s) = 1.99748 3.36570 2.76748
# Velocity P-wave (km/s) = 6.29508 7.06034 6.68866
#
# Compressibility (1/GPa) = 0.01633986
#
# Stress axis : x y z
#
# Youngs Moduli (GPa) = 74.35472 74.23982 41.71391
#
# Poissons Ratio (x) = -0.01667 0.40828
# Poissons Ratio (y) = -0.01669 0.32173
# Poissons Ratio (z) = 0.72776 0.57260
#
# Static dielectric constant tensor:
#      x y z
#    x 3.439730 0.000000 0.000000 
#    y 0.000000 3.169630 0.000000 
#    z 0.000000 0.000000 3.513970 
# 
# 
# High freq. dielectric constant tensor:
#      x y z
#    x 1.699140 0.000000 0.000000 
#    y 0.000000 1.678420 0.000000 
#    z 0.000000 0.000000 1.681200 
# 
# From -- ./inp_files/24759.got.cif
#   From: 2010.03.12/outbox.cif.g09.slc.cpg/sg65_13_cif.got.tgz:24759.got - 2010.04.10 20:52:16.
