data_PCOD8268373
_publ_section_title
;
Structure prediction by ZEFSAII (Michael W. Deem and Ramdas Pophale) SiO2 
 PCOD8268373
Probable space group: C M M M
;
_chemical_formula_sum "Si O2"
_cell_formula_units_Z 96
_cell_length_a 8.705627
_cell_length_b 27.237643
_cell_length_c 24.278892
_cell_angle_alpha 90.000000
_cell_angle_beta 90.000000
_cell_angle_gamma 90.000000
_cell_volume 5757.029331
_symmetry_space_group_name_H-M "C M M M"
_symmetry_group_IT_number 65
_symmetry_cell_setting 'orthorhombic'
loop_
_space_group_symop_operation_xyz
x,y,z
-x,-y,z
x,-y,-z
-x,y,-z
-x,-y,-z
x,y,-z
-x,y,z
x,-y,z
1/2+x,1/2+y,z
1/2-x,1/2-y,z
1/2+x,1/2-y,-z
1/2-x,1/2+y,-z
1/2-x,1/2-y,-z
1/2+x,1/2+y,-z
1/2-x,1/2+y,z
1/2+x,1/2-y,z
loop_
_atom_site_type_symbol
_atom_site_label
_atom_site_fract_x
_atom_site_fract_y
_atom_site_fract_z
Si Si1 0.325554 0.941748 0.940267
Si Si2 0.179295 0.856744 0.437288
Si Si3 0.317984 0.392324 0.278780
Si Si4 0.818099 0.301960 0.337689
Si Si5 0.680773 0.444864 0.830150
Si Si6 0.178669 0.556043 0.379132
O O1 0.500000 0.924588 0.932510
O O2 0.229408 0.920828 0.888679
O O3 0.312794 0.000000 0.940446
O O4 0.263875 0.922320 0.000000
O O5 0.207456 0.840455 0.500000
O O6 0.255719 0.816335 0.398018
O O7 0.256239 0.909847 0.427752
O O8 0.000000 0.860500 0.423036
O O9 0.500000 0.384655 0.280448
O O10 0.234959 0.341215 0.292198
O O11 0.259013 0.410584 0.219231
O O12 0.270326 0.433392 0.323034
O O13 0.750000 0.250000 0.319747
O O14 0.000000 0.299178 0.339798
O O15 0.500000 0.447936 0.827702
O O16 0.749895 0.500000 0.823575
O O17 0.204630 0.500000 0.396930
O O18 0.000000 0.568122 0.369463
#
# Coordination Sequence:
#
# PCOD8268373 Si02
#       6
#    16  16  16  16  16  16
#     4   8  14  24  37  55  83 121 162 199 231 262
#     4  10  21  36  53  73  95 119 150 186 224 269
#     4  10  19  32  49  69  94 121 153 192 231 274
#     4  11  22  37  56  74  93 117 145 181 229 279
#     4   9  17  27  41  64  93 126 160 192 227 265
#     4  10  20  32  47  68  94 125 158 190 226 267
#
# _framework density 16.675266000000001
#
# number of rings (size 3 to 8) (size 9 to 14) (size 15 to 20)
#    0.000    2.333    0.000    6.000    0.000    5.667 
#    0.000    5.000    0.000    0.000    0.000    0.000 
#    0.000    0.667    0.000    2.167    0.000    3.167 
#
# Total GULP energy -595066.552553 kJ/mol
# GULP energy per Si atom -12397.219845 kJ/mol
# Density = 1.663731 g / cm^3
# Si number density = 16.675266 Si / 1000 Ang^3
#
#
#
# Elastic Constant Matrix: (Units=GPa)
#
#
# Indices 1 2 3 4 5 6 
#
# 1 71.5484 33.5710 32.0253 0.0000 0.0000 0.0000
# 2 33.5710 80.4773 38.7664 0.0000 0.0000 0.0000
# 3 32.0253 38.7664 128.3146 0.0000 0.0000 0.0000
# 4 0.0000 0.0000 0.0000 11.8367 0.0000 0.0000
# 5 0.0000 0.0000 0.0000 0.0000 25.9965 0.0000
# 6 0.0000 0.0000 0.0000 0.0000 0.0000 23.5920
#
#
#
# Elastic Compliance Matrix: (Units=1/GPa)
#
#
# Indices 1 2 3 4 5 6 
#
# 1 0.018099 -0.006289 -0.002617 0.000000 0.000000 0.000000
# 2 -0.006289 0.016728 -0.003484 0.000000 0.000000 0.000000
# 3 -0.002617 -0.003484 0.009499 0.000000 0.000000 0.000000
# 4 0.000000 0.000000 0.000000 0.084483 0.000000 0.000000
# 5 0.000000 0.000000 0.000000 0.000000 0.038467 0.000000
# 6 0.000000 0.000000 0.000000 0.000000 0.000000 0.042387
#
#
# Mechanical properties :
#
#
# Convention : Reuss Voigt Hill
#
# Bulk Modulus (GPa) = 51.16420 54.34064 52.75242
# Shear Modulus (GPa) = 20.75043 24.01688 22.38365
#
# Velocity S-wave (km/s) = 3.53141 3.79921 3.66775
# Velocity P-wave (km/s) = 6.88310 7.20441 7.04559
#
# Compressibility (1/GPa) = 0.01954492
#
# Stress axis : x y z
#
# Youngs Moduli (GPa) = 55.25178 59.78098 105.27272
#
# Poissons Ratio (x) = 0.37598 0.27551
# Poissons Ratio (y) = 0.34749 0.36678
# Poissons Ratio (z) = 0.14460 0.20828
#
# Static dielectric constant tensor:
#      x y z
#    x 3.213470 0.000000 0.000000 
#    y 0.000000 2.931740 0.000000 
#    z 0.000000 0.000000 3.478150 
# 
# 
# High freq. dielectric constant tensor:
#      x y z
#    x 1.652840 0.000000 0.000000 
#    y 0.000000 1.606180 0.000000 
#    z 0.000000 0.000000 1.641800 
# 
# From -- ./inp_files/68031.got.cif
#   From: 2010.03.12/outbox.cif.g09.slc.cpg/sg65_35_cif.got.tgz:68031.got - 2010.04.10 20:52:16.
