data_PCOD8268194
_publ_section_title
;
Structure prediction by ZEFSAII (Michael W. Deem and Ramdas Pophale) SiO2 
 PCOD8268194
Probable space group: C M M M
;
_chemical_formula_sum "Si O2"
_cell_formula_units_Z 88
_cell_length_a 16.905123
_cell_length_b 28.278312
_cell_length_c 9.453992
_cell_angle_alpha 90.000000
_cell_angle_beta 90.000000
_cell_angle_gamma 90.000000
_cell_volume 4519.465206
_symmetry_space_group_name_H-M "C M M M"
_symmetry_group_IT_number 65
_symmetry_cell_setting 'orthorhombic'
loop_
_space_group_symop_operation_xyz
x,y,z
-x,-y,z
x,-y,-z
-x,y,-z
-x,-y,-z
x,y,-z
-x,y,z
x,-y,z
1/2+x,1/2+y,z
1/2-x,1/2-y,z
1/2+x,1/2-y,-z
1/2-x,1/2+y,-z
1/2-x,1/2-y,-z
1/2+x,1/2+y,-z
1/2-x,1/2+y,z
1/2+x,1/2-y,z
loop_
_atom_site_type_symbol
_atom_site_label
_atom_site_fract_x
_atom_site_fract_y
_atom_site_fract_z
Si Si1 0.827397 0.725725 0.837556
Si Si2 0.843558 0.895647 0.665729
Si Si3 0.000000 0.052162 0.668046
Si Si4 0.819106 0.445146 0.334357
Si Si5 0.588246 0.318548 0.838079
Si Si6 0.908399 0.368482 0.833551
O O1 0.750000 0.750000 0.764366
O O2 0.899354 0.762456 0.822916
O O3 0.856261 0.675622 0.772218
O O4 0.805937 0.715399 0.000000
O O5 0.846925 0.885369 0.500000
O O6 0.767658 0.926350 0.706834
O O7 0.844768 0.845646 0.747256
O O8 0.920962 0.922651 0.722328
O O9 0.000000 0.050027 0.500000
O O10 0.000000 0.000000 0.733446
O O11 0.835626 0.438266 0.500000
O O12 0.824883 0.500000 0.291301
O O13 0.884038 0.416160 0.247221
O O14 0.500000 0.329903 0.781912
O O15 0.597992 0.334403 0.000000
O O16 0.000000 0.358002 0.802044
O O17 0.894210 0.375677 0.000000
#
# Coordination Sequence:
#
# PCOD8268194 Si02
#       6
#    16  16   8  16  16  16
#     4   9  17  31  53  80 109 143 180 217 264 323
#     4  10  19  33  53  78 107 141 185 230 272 323
#     4   9  16  28  49  73  99 137 183 225 264 313
#     4  10  22  39  58  81 109 142 182 230 284 336
#     4  10  19  31  50  77 110 145 178 216 267 323
#     4  10  21  38  60  85 112 143 184 229 270 321
#
# _framework density 19.471329999999998
#
# number of rings (size 3 to 8) (size 9 to 14) (size 15 to 20)
#    0.000    2.273    0.909    2.182    0.000    7.636 
#    0.000    2.727    0.000    7.636    0.000    0.000 
#    0.000    0.000    0.000    0.000    0.000    0.000 
#
# Total GULP energy -545494.039498 kJ/mol
# GULP energy per Si atom -12397.591807 kJ/mol
# Density = 1.942701 g / cm^3
# Si number density = 19.471330 Si / 1000 Ang^3
#
#
#
# Elastic Constant Matrix: (Units=GPa)
#
#
# Indices 1 2 3 4 5 6 
#
# 1 105.9092 56.5338 32.9258 0.0000 0.0000 0.0000
# 2 56.5338 139.1404 40.4741 0.0000 0.0000 0.0000
# 3 32.9258 40.4741 34.1978 0.0000 0.0000 0.0000
# 4 0.0000 0.0000 0.0000 20.1237 0.0000 0.0000
# 5 0.0000 0.0000 0.0000 0.0000 26.1896 0.0000
# 6 0.0000 0.0000 0.0000 0.0000 0.0000 30.0934
#
#
#
# Elastic Compliance Matrix: (Units=1/GPa)
#
#
# Indices 1 2 3 4 5 6 
#
# 1 0.014119 -0.002718 -0.010377 0.000000 0.000000 0.000000
# 2 -0.002718 0.011484 -0.010974 0.000000 0.000000 0.000000
# 3 -0.010377 -0.010974 0.052221 0.000000 0.000000 0.000000
# 4 0.000000 0.000000 0.000000 0.049693 0.000000 0.000000
# 5 0.000000 0.000000 0.000000 0.000000 0.038183 0.000000
# 6 0.000000 0.000000 0.000000 0.000000 0.000000 0.033230
#
#
# Mechanical properties :
#
#
# Convention : Reuss Voigt Hill
#
# Bulk Modulus (GPa) = 33.68695 59.90165 46.79430
# Shear Modulus (GPa) = 19.45810 25.23556 22.34683
#
# Velocity S-wave (km/s) = 3.16463 3.60396 3.39142
# Velocity P-wave (km/s) = 5.54000 6.93893 6.27855
#
# Compressibility (1/GPa) = 0.02968509
#
# Stress axis : x y z
#
# Youngs Moduli (GPa) = 70.82641 87.08037 19.14950
#
# Poissons Ratio (x) = 0.23670 0.19871
# Poissons Ratio (y) = 0.19252 0.21015
# Poissons Ratio (z) = 0.73495 0.95563
#
# Static dielectric constant tensor:
#      x y z
#    x 3.624680 0.000000 0.000000 
#    y 0.000000 3.672200 0.000000 
#    z 0.000000 0.000000 3.126100 
# 
# 
# High freq. dielectric constant tensor:
#      x y z
#    x 1.767990 0.000000 0.000000 
#    y 0.000000 1.768190 0.000000 
#    z 0.000000 0.000000 1.713600 
# 
# From -- ./inp_files/24808.got.cif
#   From: 2010.03.12/outbox.cif.g09.slc.cpg/sg65_13_cif.got.tgz:24808.got - 2010.04.10 20:52:16.
