data_PCOD8268326
_publ_section_title
;
Structure prediction by ZEFSAII (Michael W. Deem and Ramdas Pophale) SiO2 
 PCOD8268326
Probable space group: C M M M
;
_chemical_formula_sum "Si O2"
_cell_formula_units_Z 112
_cell_length_a 13.477531
_cell_length_b 18.822542
_cell_length_c 23.137778
_cell_angle_alpha 90.000000
_cell_angle_beta 90.000000
_cell_angle_gamma 90.000000
_cell_volume 5869.623761
_symmetry_space_group_name_H-M "C M M M"
_symmetry_group_IT_number 65
_symmetry_cell_setting 'orthorhombic'
loop_
_space_group_symop_operation_xyz
x,y,z
-x,-y,z
x,-y,-z
-x,y,-z
-x,-y,-z
x,y,-z
-x,y,z
x,-y,z
1/2+x,1/2+y,z
1/2-x,1/2-y,z
1/2+x,1/2-y,-z
1/2-x,1/2+y,-z
1/2-x,1/2-y,-z
1/2+x,1/2+y,-z
1/2-x,1/2+y,z
1/2+x,1/2-y,z
loop_
_atom_site_type_symbol
_atom_site_label
_atom_site_fract_x
_atom_site_fract_y
_atom_site_fract_z
Si Si1 0.610067 0.150655 0.621183
Si Si2 0.612128 0.917978 0.067353
Si Si3 0.240054 0.667137 0.154827
Si Si4 0.882268 0.865687 0.754705
Si Si5 0.892387 0.707757 0.746837
Si Si6 0.616259 0.293938 0.564288
Si Si7 0.305257 0.579123 0.638498
O O1 0.500000 0.128578 0.596962
O O2 0.597596 0.168210 0.687464
O O3 0.659086 0.218627 0.588016
O O4 0.689727 0.087187 0.619531
O O5 0.500000 0.892975 0.082998
O O6 0.695586 0.873495 0.100378
O O7 0.624633 0.000000 0.084140
O O8 0.631932 0.906114 0.000000
O O9 0.250000 0.750000 0.137130
O O10 0.340906 0.628152 0.178754
O O11 0.168151 0.659190 0.209542
O O12 0.848256 0.786232 0.736152
O O13 0.826970 0.914838 0.707423
O O14 0.000000 0.881055 0.753760
O O15 0.000000 0.719075 0.775517
O O16 0.658560 0.308689 0.500000
O O17 0.500000 0.280828 0.562992
O O18 0.632552 0.361309 0.605271
O O19 0.337668 0.500000 0.619192
#
# Coordination Sequence:
#
# PCOD8268326 Si02
#       7
#    16  16  16  16  16  16  16
#     4  10  20  37  60  80 107 142 182 230 277 329
#     4   9  19  37  59  83 116 154 187 225 276 333
#     4  10  19  31  55  85 113 145 183 235 279 321
#     4  10  20  34  51  76 111 149 186 224 276 335
#     4   9  16  30  54  80 105 139 179 227 277 320
#     4  10  22  40  63  86 105 137 189 238 276 325
#     4  12  24  36  54  80 115 151 181 223 284 340
#
# _framework density 19.081292000000001
#
# number of rings (size 3 to 8) (size 9 to 14) (size 15 to 20)
#    0.000    2.000    2.857    1.714    0.000    4.286 
#    0.000    0.714    0.000    0.429    0.000    4.000 
#    0.000    0.000    0.000    0.000    0.000    0.000 
#
# Total GULP energy -693905.515697 kJ/mol
# GULP energy per Si atom -12391.169923 kJ/mol
# Density = 1.903786 g / cm^3
# Si number density = 19.081292 Si / 1000 Ang^3
#
#
#
# Elastic Constant Matrix: (Units=GPa)
#
#
# Indices 1 2 3 4 5 6 
#
# 1 65.3869 28.0826 31.8608 0.0000 0.0000 0.0000
# 2 28.0826 80.4205 37.8241 0.0000 0.0000 0.0000
# 3 31.8608 37.8241 79.3990 0.0000 0.0000 0.0000
# 4 0.0000 0.0000 0.0000 14.3484 0.0000 0.0000
# 5 0.0000 0.0000 0.0000 0.0000 27.3743 0.0000
# 6 0.0000 0.0000 0.0000 0.0000 0.0000 23.4526
#
#
#
# Elastic Compliance Matrix: (Units=1/GPa)
#
#
# Indices 1 2 3 4 5 6 
#
# 1 0.020027 -0.004142 -0.006063 0.000000 0.000000 0.000000
# 2 -0.004142 0.016882 -0.006380 0.000000 0.000000 0.000000
# 3 -0.006063 -0.006380 0.018067 0.000000 0.000000 0.000000
# 4 0.000000 0.000000 0.000000 0.069694 0.000000 0.000000
# 5 0.000000 0.000000 0.000000 0.000000 0.036531 0.000000
# 6 0.000000 0.000000 0.000000 0.000000 0.000000 0.042639
#
#
# Mechanical properties :
#
#
# Convention : Reuss Voigt Hill
#
# Bulk Modulus (GPa) = 45.86013 46.74904 46.30458
# Shear Modulus (GPa) = 20.46847 21.53097 20.99972
#
# Velocity S-wave (km/s) = 3.27876 3.36278 3.32104
# Velocity P-wave (km/s) = 6.19838 6.29530 6.24703
#
# Compressibility (1/GPa) = 0.02180543
#
# Stress axis : x y z
#
# Youngs Moduli (GPa) = 49.93323 59.23597 55.34939
#
# Poissons Ratio (x) = 0.24533 0.33560
# Poissons Ratio (y) = 0.20680 0.35314
# Poissons Ratio (z) = 0.30276 0.37794
#
# Static dielectric constant tensor:
#      x y z
#    x 3.969100 0.000000 0.000000 
#    y 0.000000 3.180980 0.000000 
#    z 0.000000 0.000000 3.424390 
# 
# 
# High freq. dielectric constant tensor:
#      x y z
#    x 1.756760 0.000000 0.000000 
#    y 0.000000 1.713380 0.000000 
#    z 0.000000 0.000000 1.721280 
# 
# From -- ./inp_files/69969.got.cif
#   From: 2010.03.12/outbox.cif.g09.slc.cpg/sg65_35_cif.got.tgz:69969.got - 2010.04.10 20:52:16.
