data_PCOD8268546
_publ_section_title
;
Structure prediction by ZEFSAII (Michael W. Deem and Ramdas Pophale) SiO2 
 PCOD8268546
Probable space group: C M M M
;
_chemical_formula_sum "Si O2"
_cell_formula_units_Z 96
_cell_length_a 18.294312
_cell_length_b 25.444130
_cell_length_c 11.667236
_cell_angle_alpha 90.000000
_cell_angle_beta 90.000000
_cell_angle_gamma 90.000000
_cell_volume 5430.898297
_symmetry_space_group_name_H-M "C M M M"
_symmetry_group_IT_number 65
_symmetry_cell_setting 'orthorhombic'
loop_
_space_group_symop_operation_xyz
x,y,z
-x,-y,z
x,-y,-z
-x,y,-z
-x,-y,-z
x,y,-z
-x,y,z
x,-y,z
1/2+x,1/2+y,z
1/2-x,1/2-y,z
1/2+x,1/2-y,-z
1/2-x,1/2+y,-z
1/2-x,1/2-y,-z
1/2+x,1/2+y,-z
1/2-x,1/2+y,z
1/2+x,1/2-y,z
loop_
_atom_site_type_symbol
_atom_site_label
_atom_site_fract_x
_atom_site_fract_y
_atom_site_fract_z
Si Si1 0.413922 0.868795 0.867615
Si Si2 0.335720 0.559475 0.868073
Si Si3 0.416957 0.652004 0.745358
Si Si4 0.586747 0.751778 0.127776
Si Si5 0.692091 0.059883 0.732998
Si Si6 0.418070 0.615978 0.500000
Si Si7 0.265911 0.561832 0.500000
O O1 0.500000 0.873510 0.848035
O O2 0.384846 0.809872 0.838985
O O3 0.376906 0.907154 0.775876
O O4 0.395066 0.883058 0.000000
O O5 0.364517 0.500000 0.846287
O O6 0.381429 0.598963 0.791314
O O7 0.251502 0.563249 0.833352
O O8 0.343697 0.575513 0.000000
O O9 0.500000 0.650351 0.788356
O O10 0.379981 0.705883 0.791562
O O11 0.410353 0.653938 0.608833
O O12 0.500000 0.753700 0.135788
O O13 0.612414 0.737626 0.000000
O O14 0.725367 0.083472 0.614132
O O15 0.666343 0.000000 0.713705
O O16 0.500000 0.589124 0.500000
O O17 0.352377 0.574324 0.500000
O O18 0.261549 0.500000 0.500000
#
# Coordination Sequence:
#
# PCOD8268546 Si02
#       7
#    16  16  16  16  16   8   8
#     4   9  18  34  57  83 107 132 170 218 262 313
#     4  10  20  32  48  72 102 136 171 209 260 319
#     4  10  19  32  51  74 103 137 175 218 259 303
#     4   8  15  30  52  76 103 136 170 208 260 314
#     4  10  20  35  54  75 104 139 172 210 263 318
#     4  10  20  33  53  78 100 135 188 230 256 292
#     4  10  20  37  56  73 101 146 182 212 259 311
#
# _framework density 17.676634
#
# number of rings (size 3 to 8) (size 9 to 14) (size 15 to 20)
#    0.000    2.500    1.667    2.000    0.000    2.833 
#    0.000    5.417    0.000    7.500    0.000    0.000 
#    0.000    0.000    0.000    0.000    0.000    0.000 
#
# Total GULP energy -594933.795416 kJ/mol
# GULP energy per Si atom -12394.454071 kJ/mol
# Density = 1.763640 g / cm^3
# Si number density = 17.676634 Si / 1000 Ang^3
#
#
#
# Elastic Constant Matrix: (Units=GPa)
#
#
# Indices 1 2 3 4 5 6 
#
# 1 58.9659 39.9746 42.4977 0.0000 0.0000 0.0000
# 2 39.9746 95.3739 59.1810 0.0000 0.0000 0.0000
# 3 42.4977 59.1810 119.1464 0.0000 0.0000 0.0000
# 4 0.0000 0.0000 0.0000 24.0020 0.0000 0.0000
# 5 0.0000 0.0000 0.0000 0.0000 29.6674 0.0000
# 6 0.0000 0.0000 0.0000 0.0000 0.0000 3.5088
#
#
#
# Elastic Compliance Matrix: (Units=1/GPa)
#
#
# Indices 1 2 3 4 5 6 
#
# 1 0.026033 -0.007444 -0.005588 0.000000 0.000000 0.000000
# 2 -0.007444 0.017285 -0.005931 0.000000 0.000000 0.000000
# 3 -0.005588 -0.005931 0.013332 0.000000 0.000000 0.000000
# 4 0.000000 0.000000 0.000000 0.041663 0.000000 0.000000
# 5 0.000000 0.000000 0.000000 0.000000 0.033707 0.000000
# 6 0.000000 0.000000 0.000000 0.000000 0.000000 0.284996
#
#
# Mechanical properties :
#
#
# Convention : Reuss Voigt Hill
#
# Bulk Modulus (GPa) = 53.40474 61.86586 57.63530
# Shear Modulus (GPa) = 10.84171 20.22452 15.53312
#
# Velocity S-wave (km/s) = 2.47925 3.38618 2.96757
# Velocity P-wave (km/s) = 6.20268 7.09669 6.66469
#
# Compressibility (1/GPa) = 0.01872493
#
# Stress axis : x y z
#
# Youngs Moduli (GPa) = 38.41322 57.85377 75.00769
#
# Poissons Ratio (x) = 0.43065 0.41915
# Poissons Ratio (y) = 0.28594 0.44483
# Poissons Ratio (z) = 0.21466 0.34310
#
# Static dielectric constant tensor:
#      x y z
#    x 3.010130 0.000000 0.000000 
#    y 0.000000 3.391020 0.000000 
#    z 0.000000 0.000000 3.517150 
# 
# 
# High freq. dielectric constant tensor:
#      x y z
#    x 1.658400 0.000000 0.000000 
#    y 0.000000 1.677910 0.000000 
#    z 0.000000 0.000000 1.688360 
# 
# From -- ./inp_files/27198.got.cif
#   From: 2010.03.12/outbox.cif.g09.slc.cpg/sg65_14_cif.got.tgz:27198.got - 2010.04.10 20:52:16.
