data_PCOD8268996
_publ_section_title
;
Structure prediction by ZEFSAII (Michael W. Deem and Ramdas Pophale) SiO2 
 PCOD8268996
Probable space group: C M M M
;
_chemical_formula_sum "Si O2"
_cell_formula_units_Z 96
_cell_length_a 18.964622
_cell_length_b 20.908826
_cell_length_c 13.679812
_cell_angle_alpha 90.000000
_cell_angle_beta 90.000000
_cell_angle_gamma 90.000000
_cell_volume 5424.428240
_symmetry_space_group_name_H-M "C M M M"
_symmetry_group_IT_number 65
_symmetry_cell_setting 'orthorhombic'
loop_
_space_group_symop_operation_xyz
x,y,z
-x,-y,z
x,-y,-z
-x,y,-z
-x,-y,-z
x,y,-z
-x,y,z
x,-y,z
1/2+x,1/2+y,z
1/2-x,1/2-y,z
1/2+x,1/2-y,-z
1/2-x,1/2+y,-z
1/2-x,1/2-y,-z
1/2+x,1/2+y,-z
1/2-x,1/2+y,z
1/2+x,1/2-y,z
loop_
_atom_site_type_symbol
_atom_site_label
_atom_site_fract_x
_atom_site_fract_y
_atom_site_fract_z
Si Si1 0.210619 0.311655 0.113078
Si Si2 0.287580 0.427988 0.797822
Si Si3 0.421056 0.764118 0.800574
Si Si4 0.418758 0.625839 0.884657
Si Si5 0.796393 0.573428 0.390031
Si Si6 0.420685 0.169841 0.609327
O O1 0.250000 0.250000 0.161924
O O2 0.248785 0.378392 0.131946
O O3 0.131297 0.316196 0.153670
O O4 0.206038 0.299284 0.000000
O O5 0.262929 0.500000 0.822633
O O6 0.371033 0.423210 0.822200
O O7 0.268017 0.411818 0.684807
O O8 0.500000 0.781186 0.834986
O O9 0.400398 0.694622 0.839723
O O10 0.413583 0.769737 0.682724
O O11 0.500000 0.606882 0.868081
O O12 0.399980 0.625143 0.000000
O O13 0.769693 0.589201 0.500000
O O14 0.820280 0.500000 0.382006
O O15 0.864911 0.614960 0.362450
O O16 0.406315 0.195770 0.500000
O O17 0.500000 0.140802 0.617291
#
# Coordination Sequence:
#
# PCOD8268996 Si02
#       6
#    16  16  16  16  16  16
#     4  11  21  34  54  78 105 141 183 222 261 320
#     4  11  22  36  55  80 110 140 172 223 279 317
#     4  10  19  33  53  77 107 141 176 218 264 313
#     4  10  21  37  57  79 103 138 183 224 266 320
#     4   9  18  33  52  74 102 139 181 218 258 317
#     4   9  17  30  50  77 107 138 175 222 271 311
#
# _framework density 17.697717999999998
#
# number of rings (size 3 to 8) (size 9 to 14) (size 15 to 20)
#    0.000    2.000    3.333    1.000    0.000    3.000 
#    0.000    3.333    0.000    5.000    0.000    3.500 
#    0.000    0.000    0.000    0.000    0.000    0.000 
#
# Total GULP energy -594904.327076 kJ/mol
# GULP energy per Si atom -12393.840147 kJ/mol
# Density = 1.765744 g / cm^3
# Si number density = 17.697718 Si / 1000 Ang^3
#
#
#
# Elastic Constant Matrix: (Units=GPa)
#
#
# Indices 1 2 3 4 5 6 
#
# 1 100.6892 40.8483 54.5399 0.0000 0.0000 0.0000
# 2 40.8483 65.9206 38.8295 0.0000 0.0000 0.0000
# 3 54.5399 38.8295 104.2520 0.0000 0.0000 0.0000
# 4 0.0000 0.0000 0.0000 26.1800 0.0000 0.0000
# 5 0.0000 0.0000 0.0000 0.0000 31.7073 0.0000
# 6 0.0000 0.0000 0.0000 0.0000 0.0000 24.3727
#
#
#
# Elastic Compliance Matrix: (Units=1/GPa)
#
#
# Indices 1 2 3 4 5 6 
#
# 1 0.015634 -0.006239 -0.005855 0.000000 0.000000 0.000000
# 2 -0.006239 0.021923 -0.004901 0.000000 0.000000 0.000000
# 3 -0.005855 -0.004901 0.014481 0.000000 0.000000 0.000000
# 4 0.000000 0.000000 0.000000 0.038197 0.000000 0.000000
# 5 0.000000 0.000000 0.000000 0.000000 0.031539 0.000000
# 6 0.000000 0.000000 0.000000 0.000000 0.000000 0.041030
#
#
# Mechanical properties :
#
#
# Convention : Reuss Voigt Hill
#
# Bulk Modulus (GPa) = 55.41195 59.92192 57.66694
# Shear Modulus (GPa) = 24.65357 25.56159 25.10758
#
# Velocity S-wave (km/s) = 3.73639 3.80458 3.77064
# Velocity P-wave (km/s) = 7.07053 7.29601 7.18415
#
# Compressibility (1/GPa) = 0.01804665
#
# Stress axis : x y z
#
# Youngs Moduli (GPa) = 63.96204 45.61452 69.05585
#
# Poissons Ratio (x) = 0.28458 0.40435
# Poissons Ratio (y) = 0.39905 0.33847
# Poissons Ratio (z) = 0.37453 0.22358
#
# Static dielectric constant tensor:
#      x y z
#    x 3.463960 0.000000 0.000000 
#    y 0.000000 3.132360 0.000000 
#    z 0.000000 0.000000 3.444390 
# 
# 
# High freq. dielectric constant tensor:
#      x y z
#    x 1.689900 0.000000 0.000000 
#    y 0.000000 1.663300 0.000000 
#    z 0.000000 0.000000 1.688210 
# 
# From -- ./inp_files/29021.got.cif
#   From: 2010.03.12/outbox.cif.g09.slc.cpg/sg65_15_cif.got.tgz:29021.got - 2010.04.10 20:52:16.
