data_PCOD8268897
_publ_section_title
;
Structure prediction by ZEFSAII (Michael W. Deem and Ramdas Pophale) SiO2 
 PCOD8268897
Probable space group: C M M M
;
_chemical_formula_sum "Si O2"
_cell_formula_units_Z 88
_cell_length_a 8.864908
_cell_length_b 19.841716
_cell_length_c 28.063334
_cell_angle_alpha 90.000000
_cell_angle_beta 90.000000
_cell_angle_gamma 90.000000
_cell_volume 4936.199766
_symmetry_space_group_name_H-M "C M M M"
_symmetry_group_IT_number 65
_symmetry_cell_setting 'orthorhombic'
loop_
_space_group_symop_operation_xyz
x,y,z
-x,-y,z
x,-y,-z
-x,y,-z
-x,-y,-z
x,y,-z
-x,y,z
x,-y,z
1/2+x,1/2+y,z
1/2-x,1/2-y,z
1/2+x,1/2-y,-z
1/2-x,1/2+y,-z
1/2-x,1/2-y,-z
1/2+x,1/2+y,-z
1/2-x,1/2+y,z
1/2+x,1/2-y,z
loop_
_atom_site_type_symbol
_atom_site_label
_atom_site_fract_x
_atom_site_fract_y
_atom_site_fract_z
Si Si1 0.319637 0.678723 0.224095
Si Si2 0.332316 0.919536 0.500000
Si Si3 0.320187 0.575046 0.696310
Si Si4 0.833205 0.080155 0.407534
Si Si5 0.672511 0.577553 0.055387
Si Si6 0.321504 0.179156 0.875829
O O1 0.500000 0.683334 0.221056
O O2 0.250000 0.750000 0.239041
O O3 0.262565 0.625398 0.263151
O O4 0.253479 0.655236 0.173529
O O5 0.500000 0.892314 0.500000
O O6 0.258915 0.889746 0.451903
O O7 0.322906 0.000000 0.500000
O O8 0.500000 0.573433 0.694194
O O9 0.259241 0.500000 0.708221
O O10 0.260941 0.599284 0.644065
O O11 0.000000 0.110936 0.411754
O O12 0.840001 0.000000 0.410873
O O13 0.500000 0.595636 0.068531
O O14 0.705677 0.500000 0.068002
O O15 0.787376 0.623444 0.084607
O O16 0.702143 0.591105 0.000000
O O17 0.500000 0.187709 0.869365
O O18 0.250000 0.250000 0.892220
#
# Coordination Sequence:
#
# PCOD8268897 Si02
#       6
#    16   8  16  16  16  16
#     4  10  19  33  52  72  97 128 162 201 245 293
#     4   9  15  21  31  53  86 119 146 175 223 281
#     4   8  15  28  47  70  92 118 157 200 237 278
#     4   8  13  23  39  58  81 111 149 189 226 269
#     4   9  19  37  59  81 106 136 168 202 244 295
#     4  11  22  36  54  76 103 134 170 210 249 291
#
# _framework density 17.827480000000001
#
# number of rings (size 3 to 8) (size 9 to 14) (size 15 to 20)
#    0.000    2.818    0.000    5.182    0.000    2.909 
#    0.000    4.545    0.000    3.818    0.000    0.636 
#    0.000    0.000    0.000    0.000    0.000    0.000 
#
# Total GULP energy -545391.068921 kJ/mol
# GULP energy per Si atom -12395.251566 kJ/mol
# Density = 1.778690 g / cm^3
# Si number density = 17.827480 Si / 1000 Ang^3
#
#
#
# Elastic Constant Matrix: (Units=GPa)
#
#
# Indices 1 2 3 4 5 6 
#
# 1 92.3465 34.3403 50.1414 0.0000 0.0000 0.0000
# 2 34.3403 71.2752 72.0898 0.0000 0.0000 0.0000
# 3 50.1414 72.0898 131.6007 0.0000 0.0000 0.0000
# 4 0.0000 0.0000 0.0000 3.8913 0.0000 0.0000
# 5 0.0000 0.0000 0.0000 0.0000 20.9347 0.0000
# 6 0.0000 0.0000 0.0000 0.0000 0.0000 22.0865
#
#
#
# Elastic Compliance Matrix: (Units=1/GPa)
#
#
# Indices 1 2 3 4 5 6 
#
# 1 0.013936 -0.003014 -0.003659 0.000000 0.000000 0.000000
# 2 -0.003014 0.032113 -0.016443 0.000000 0.000000 0.000000
# 3 -0.003659 -0.016443 0.018000 0.000000 0.000000 0.000000
# 4 0.000000 0.000000 0.000000 0.256982 0.000000 0.000000
# 5 0.000000 0.000000 0.000000 0.000000 0.047768 0.000000
# 6 0.000000 0.000000 0.000000 0.000000 0.000000 0.045276
#
#
# Mechanical properties :
#
#
# Convention : Reuss Voigt Hill
#
# Bulk Modulus (GPa) = 56.12262 67.59616 61.85939
# Shear Modulus (GPa) = 10.72396 18.62591 14.67493
#
# Velocity S-wave (km/s) = 2.45529 3.23582 2.87220
# Velocity P-wave (km/s) = 6.29184 7.20832 6.76562
#
# Compressibility (1/GPa) = 0.01781813
#
# Stress axis : x y z
#
# Youngs Moduli (GPa) = 71.75576 31.13999 55.55486
#
# Poissons Ratio (x) = 0.09384 0.20328
# Poissons Ratio (y) = 0.21624 0.91349
# Poissons Ratio (z) = 0.26256 0.51204
#
# Static dielectric constant tensor:
#      x y z
#    x 3.192880 0.000000 0.000000 
#    y 0.000000 3.046650 0.000000 
#    z 0.000000 0.000000 3.553890 
# 
# 
# High freq. dielectric constant tensor:
#      x y z
#    x 1.676240 0.000000 0.000000 
#    y 0.000000 1.653290 0.000000 
#    z 0.000000 0.000000 1.704270 
# 
# From -- ./inp_files/75329.got.cif
#   From: 2010.03.12/outbox.cif.g09.slc.cpg/sg65_38_cif.got.tgz:75329.got - 2010.04.10 20:52:16.
