data_PCOD8268982
_publ_section_title
;
Structure prediction by ZEFSAII (Michael W. Deem and Ramdas Pophale) SiO2 
 PCOD8268982
Probable space group: C M M M
;
_chemical_formula_sum "Si O2"
_cell_formula_units_Z 72
_cell_length_a 30.629083
_cell_length_b 14.467233
_cell_length_c 8.666007
_cell_angle_alpha 90.000000
_cell_angle_beta 90.000000
_cell_angle_gamma 90.000000
_cell_volume 3840.064386
_symmetry_space_group_name_H-M "C M M M"
_symmetry_group_IT_number 65
_symmetry_cell_setting 'orthorhombic'
loop_
_space_group_symop_operation_xyz
x,y,z
-x,-y,z
x,-y,-z
-x,y,-z
-x,-y,-z
x,y,-z
-x,y,z
x,-y,z
1/2+x,1/2+y,z
1/2-x,1/2-y,z
1/2+x,1/2-y,-z
1/2-x,1/2+y,-z
1/2-x,1/2-y,-z
1/2+x,1/2+y,-z
1/2-x,1/2+y,z
1/2+x,1/2-y,z
loop_
_atom_site_type_symbol
_atom_site_label
_atom_site_fract_x
_atom_site_fract_y
_atom_site_fract_z
Si Si1 0.048416 0.801837 0.816159
Si Si2 0.263842 0.500000 0.182509
Si Si3 0.665396 0.000000 0.182671
Si Si4 0.209381 0.810979 0.681832
Si Si5 0.948464 0.000000 0.167568
Si Si6 0.867820 0.695451 0.817282
O O1 0.063531 0.902843 0.746932
O O2 0.083076 0.723693 0.767665
O O3 0.000000 0.773892 0.754707
O O4 0.046725 0.812232 0.000000
O O5 0.214487 0.500000 0.250373
O O6 0.289524 0.410784 0.240330
O O7 0.262969 0.500000 0.000000
O O8 0.639786 0.090746 0.240873
O O9 0.667635 0.000000 0.000000
O O10 0.211345 0.823559 0.500000
O O11 0.250000 0.750000 0.742314
O O12 0.164894 0.762760 0.730569
O O13 0.000000 0.000000 0.144399
O O14 0.925114 0.000000 0.000000
O O15 0.860298 0.704673 0.000000
#
# Coordination Sequence:
#
# PCOD8268982 Si02
#       6
#    16   8   8  16   8  16
#     4   8  14  25  44  71 103 136 172 219 269 317
#     4  11  21  36  58  78 105 141 179 218 266 320
#     4   9  18  31  49  74 102 135 176 225 266 314
#     4  11  23  37  53  77 108 138 174 221 270 315
#     4   7  10  19  36  61  94 127 156 193 248 308
#     4  10  19  33  53  76 104 139 183 223 267 320
#
# _framework density 18.749684999999999
#
# number of rings (size 3 to 8) (size 9 to 14) (size 15 to 20)
#    0.000    2.556    2.222    2.333    0.000    1.778 
#    0.000    3.333    0.000    4.000    0.000    0.000 
#    0.000    6.222    0.000    0.000    0.000    0.000 
#
# Total GULP energy -446159.295540 kJ/mol
# GULP energy per Si atom -12393.313765 kJ/mol
# Density = 1.870701 g / cm^3
# Si number density = 18.749685 Si / 1000 Ang^3
#
#
#
# Elastic Constant Matrix: (Units=GPa)
#
#
# Indices 1 2 3 4 5 6 
#
# 1 120.6511 76.5824 14.5479 0.0000 0.0000 0.0000
# 2 76.5824 174.6817 22.7023 0.0000 0.0000 0.0000
# 3 14.5479 22.7023 31.1625 0.0000 0.0000 0.0000
# 4 0.0000 0.0000 0.0000 12.7275 0.0000 0.0000
# 5 0.0000 0.0000 0.0000 0.0000 11.3936 0.0000
# 6 0.0000 0.0000 0.0000 0.0000 0.0000 29.6750
#
#
#
# Elastic Compliance Matrix: (Units=1/GPa)
#
#
# Indices 1 2 3 4 5 6 
#
# 1 0.011584 -0.004833 -0.001887 0.000000 0.000000 0.000000
# 2 -0.004833 0.008340 -0.003819 0.000000 0.000000 0.000000
# 3 -0.001887 -0.003819 0.035753 0.000000 0.000000 0.000000
# 4 0.000000 0.000000 0.000000 0.078570 0.000000 0.000000
# 5 0.000000 0.000000 0.000000 0.000000 0.087768 0.000000
# 6 0.000000 0.000000 0.000000 0.000000 0.000000 0.033698
#
#
# Mechanical properties :
#
#
# Convention : Reuss Voigt Hill
#
# Bulk Modulus (GPa) = 28.90325 61.57339 45.23832
# Shear Modulus (GPa) = 17.34152 24.93674 21.13913
#
# Velocity S-wave (km/s) = 3.04451 3.65085 3.36138
# Velocity P-wave (km/s) = 5.27328 7.11917 6.26459
#
# Compressibility (1/GPa) = 0.03459818
#
# Stress axis : x y z
#
# Youngs Moduli (GPa) = 86.32810 119.90358 27.96954
#
# Poissons Ratio (x) = 0.57952 0.05277
# Poissons Ratio (y) = 0.41724 0.10683
# Poissons Ratio (z) = 0.16287 0.45797
#
# Static dielectric constant tensor:
#      x y z
#    x 3.478090 0.000000 0.000000 
#    y 0.000000 3.840430 0.000000 
#    z 0.000000 0.000000 2.940450 
# 
# 
# High freq. dielectric constant tensor:
#      x y z
#    x 1.719240 0.000000 0.000000 
#    y 0.000000 1.740410 0.000000 
#    z 0.000000 0.000000 1.677620 
# 
# From -- ./inp_files/18071.got.cif
#   From: 2010.03.12/outbox.cif.g09.slc.cpg/sg65_10_cif.got.tgz:18071.got - 2010.04.10 20:52:16.
