data_PCOD8268260
_publ_section_title
;
Structure prediction by ZEFSAII (Michael W. Deem and Ramdas Pophale) SiO2 
 PCOD8268260
Probable space group: C M M M
;
_chemical_formula_sum "Si O2"
_cell_formula_units_Z 104
_cell_length_a 17.924141
_cell_length_b 34.004683
_cell_length_c 9.086854
_cell_angle_alpha 90.000000
_cell_angle_beta 90.000000
_cell_angle_gamma 90.000000
_cell_volume 5538.480519
_symmetry_space_group_name_H-M "C M M M"
_symmetry_group_IT_number 65
_symmetry_cell_setting 'orthorhombic'
loop_
_space_group_symop_operation_xyz
x,y,z
-x,-y,z
x,-y,-z
-x,y,-z
-x,-y,-z
x,y,-z
-x,y,z
x,-y,z
1/2+x,1/2+y,z
1/2-x,1/2-y,z
1/2+x,1/2-y,-z
1/2-x,1/2+y,-z
1/2-x,1/2-y,-z
1/2+x,1/2+y,-z
1/2-x,1/2+y,z
1/2+x,1/2-y,z
loop_
_atom_site_type_symbol
_atom_site_label
_atom_site_fract_x
_atom_site_fract_y
_atom_site_fract_z
Si Si1 0.175207 0.329845 0.174758
Si Si2 0.791673 0.954684 0.672277
Si Si3 0.155423 0.825078 0.174768
Si Si4 0.855954 0.591042 0.325547
Si Si5 0.414719 0.405963 0.174041
Si Si6 0.000000 0.456105 0.325188
Si Si7 0.416239 0.245423 0.824822
O O1 0.259940 0.326991 0.230904
O O2 0.136192 0.366919 0.249307
O O3 0.132997 0.290980 0.230831
O O4 0.170399 0.334507 0.000000
O O5 0.804403 0.948905 0.500000
O O6 0.719661 0.930444 0.726628
O O7 0.865258 0.939947 0.754598
O O8 0.778132 0.000000 0.712601
O O9 0.111310 0.863263 0.232674
O O10 0.117241 0.785920 0.240046
O O11 0.153064 0.823408 0.000000
O O12 0.857362 0.596376 0.500000
O O13 0.926017 0.565801 0.269055
O O14 0.500000 0.412775 0.221635
O O15 0.404891 0.408380 0.000000
O O16 0.000000 0.500000 0.258997
O O17 0.000000 0.457998 0.500000
O O18 0.500000 0.240236 0.765003
O O19 0.415320 0.247063 0.000000
#
# Coordination Sequence:
#
# PCOD8268260 Si02
#       7
#    16  16  16  16  16   8  16
#     4  10  19  31  51  78 106 136 172 214 261 311
#     4  10  21  37  56  77 103 136 174 215 261 315
#     4   9  16  30  50  73 103 138 174 211 253 300
#     4  10  20  35  56  80 105 137 175 217 264 313
#     4  10  20  34  54  80 107 137 175 219 263 307
#     4   9  18  34  57  81 103 135 183 227 259 307
#     4   9  17  28  46  75 106 136 171 212 255 303
#
# _framework density 18.777712999999999
#
# number of rings (size 3 to 8) (size 9 to 14) (size 15 to 20)
#    0.000    2.385    1.538    1.385    1.077    6.462 
#    0.000    1.538    0.000    4.615    0.000    0.000 
#    0.000    0.000    0.000    0.000    0.000    0.000 
#
# Total GULP energy -644890.827554 kJ/mol
# GULP energy per Si atom -12401.746684 kJ/mol
# Density = 1.873497 g / cm^3
# Si number density = 18.777713 Si / 1000 Ang^3
#
#
#
# Elastic Constant Matrix: (Units=GPa)
#
#
# Indices 1 2 3 4 5 6 
#
# 1 133.2852 44.3299 20.1571 0.0000 0.0000 0.0000
# 2 44.3299 113.2029 21.0040 0.0000 0.0000 0.0000
# 3 20.1571 21.0040 14.9076 0.0000 0.0000 0.0000
# 4 0.0000 0.0000 0.0000 19.2919 0.0000 0.0000
# 5 0.0000 0.0000 0.0000 0.0000 19.3648 0.0000
# 6 0.0000 0.0000 0.0000 0.0000 0.0000 40.3881
#
#
#
# Elastic Compliance Matrix: (Units=1/GPa)
#
#
# Indices 1 2 3 4 5 6 
#
# 1 0.009709 -0.001850 -0.010522 0.000000 0.000000 0.000000
# 2 -0.001850 0.012313 -0.014847 0.000000 0.000000 0.000000
# 3 -0.010522 -0.014847 0.102225 0.000000 0.000000 0.000000
# 4 0.000000 0.000000 0.000000 0.051835 0.000000 0.000000
# 5 0.000000 0.000000 0.000000 0.000000 0.051640 0.000000
# 6 0.000000 0.000000 0.000000 0.000000 0.000000 0.024760
#
#
# Mechanical properties :
#
#
# Convention : Reuss Voigt Hill
#
# Bulk Modulus (GPa) = 14.32453 48.04195 31.18324
# Shear Modulus (GPa) = 15.14281 27.53594 21.33938
#
# Velocity S-wave (km/s) = 2.84284 3.83354 3.37474
# Velocity P-wave (km/s) = 4.29194 6.72568 5.64161
#
# Compressibility (1/GPa) = 0.06981030
#
# Stress axis : x y z
#
# Youngs Moduli (GPa) = 102.99509 81.21607 9.78230
#
# Poissons Ratio (x) = 0.15024 0.10293
# Poissons Ratio (y) = 0.19052 0.14524
# Poissons Ratio (z) = 1.08370 1.20581
#
# Static dielectric constant tensor:
#      x y z
#    x 3.640200 0.000000 0.000000 
#    y 0.000000 3.601590 0.000000 
#    z 0.000000 0.000000 2.913940 
# 
# 
# High freq. dielectric constant tensor:
#      x y z
#    x 1.744560 0.000000 0.000000 
#    y 0.000000 1.744920 0.000000 
#    z 0.000000 0.000000 1.673840 
# 
# From -- ./inp_files/27731.got.cif
#   From: 2010.03.12/outbox.cif.g09.slc.cpg/sg65_14_cif.got.tgz:27731.got - 2010.04.10 20:52:16.
