data_PCOD8268657
_publ_section_title
;
Structure prediction by ZEFSAII (Michael W. Deem and Ramdas Pophale) SiO2 
 PCOD8268657
Probable space group: C M M M
;
_chemical_formula_sum "Si O2"
_cell_formula_units_Z 80
_cell_length_a 8.768570
_cell_length_b 18.204334
_cell_length_c 26.086263
_cell_angle_alpha 90.000000
_cell_angle_beta 90.000000
_cell_angle_gamma 90.000000
_cell_volume 4164.045217
_symmetry_space_group_name_H-M "C M M M"
_symmetry_group_IT_number 65
_symmetry_cell_setting 'orthorhombic'
loop_
_space_group_symop_operation_xyz
x,y,z
-x,-y,z
x,-y,-z
-x,y,-z
-x,-y,-z
x,y,-z
-x,y,z
x,-y,z
1/2+x,1/2+y,z
1/2-x,1/2-y,z
1/2+x,1/2-y,-z
1/2-x,1/2+y,-z
1/2-x,1/2-y,-z
1/2+x,1/2+y,-z
1/2-x,1/2+y,z
1/2+x,1/2-y,z
loop_
_atom_site_type_symbol
_atom_site_label
_atom_site_fract_x
_atom_site_fract_y
_atom_site_fract_z
Si Si1 0.334136 0.586663 0.000000
Si Si2 0.681246 0.082341 0.301947
Si Si3 0.318673 0.082597 0.500000
Si Si4 0.317998 0.583990 0.889150
Si Si5 0.680610 0.170726 0.796708
Si Si6 0.818750 0.330217 0.400726
O O1 0.253152 0.607439 0.945962
O O2 0.358083 0.500000 0.000000
O O3 0.500000 0.624791 0.000000
O O4 0.500000 0.079631 0.303471
O O5 0.738777 0.119665 0.249666
O O6 0.742752 0.128405 0.350242
O O7 0.748513 0.000000 0.304494
O O8 0.500000 0.079615 0.500000
O O9 0.258987 0.124776 0.550185
O O10 0.252130 0.000000 0.500000
O O11 0.500000 0.593150 0.887287
O O12 0.272198 0.500000 0.876511
O O13 0.238179 0.637715 0.849744
O O14 0.500000 0.176747 0.797868
O O15 0.750000 0.250000 0.787624
O O16 0.750000 0.250000 0.402504
O O17 0.000000 0.324355 0.400524
#
# Coordination Sequence:
#
# PCOD8268657 Si02
#       6
#     8  16   8  16  16  16
#     4   7  12  26  50  77 102 129 161 199 246 299
#     4   9  18  33  53  75  98 128 167 209 252 299
#     4   9  17  30  51  77 100 129 174 216 244 283
#     4   9  17  32  55  80 104 131 165 205 250 301
#     4  11  22  35  51  72 101 135 171 210 253 302
#     4  10  19  32  52  76 103 133 165 205 251 299
#
# _framework density 19.212087
#
# number of rings (size 3 to 8) (size 9 to 14) (size 15 to 20)
#    0.000    2.600    0.000    3.900    0.000    3.600 
#    0.000    2.000    0.000    7.200    0.000    0.000 
#    0.000    0.000    0.000    0.000    0.000    0.000 
#
# Total GULP energy -495826.760505 kJ/mol
# GULP energy per Si atom -12395.669013 kJ/mol
# Density = 1.916836 g / cm^3
# Si number density = 19.212087 Si / 1000 Ang^3
#
#
#
# Elastic Constant Matrix: (Units=GPa)
#
#
# Indices 1 2 3 4 5 6 
#
# 1 28.0703 26.1699 25.9255 0.0000 0.0000 0.0000
# 2 26.1699 165.4210 91.3022 0.0000 0.0000 0.0000
# 3 25.9255 91.3022 188.3240 0.0000 0.0000 0.0000
# 4 0.0000 0.0000 0.0000 22.0144 0.0000 0.0000
# 5 0.0000 0.0000 0.0000 0.0000 14.6122 0.0000
# 6 0.0000 0.0000 0.0000 0.0000 0.0000 7.4170
#
#
#
# Elastic Compliance Matrix: (Units=1/GPa)
#
#
# Indices 1 2 3 4 5 6 
#
# 1 0.043527 -0.004886 -0.003623 0.000000 0.000000 0.000000
# 2 -0.004886 0.008802 -0.003595 0.000000 0.000000 0.000000
# 3 -0.003623 -0.003595 0.007552 0.000000 0.000000 0.000000
# 4 0.000000 0.000000 0.000000 0.045425 0.000000 0.000000
# 5 0.000000 0.000000 0.000000 0.000000 0.068436 0.000000
# 6 0.000000 0.000000 0.000000 0.000000 0.000000 0.134826
#
#
# Mechanical properties :
#
#
# Convention : Reuss Voigt Hill
#
# Bulk Modulus (GPa) = 28.03308 74.29005 51.16156
# Shear Modulus (GPa) = 14.50679 24.70323 19.60501
#
# Velocity S-wave (km/s) = 2.75086 3.58972 3.19792
# Velocity P-wave (km/s) = 4.97119 7.47889 6.35006
#
# Compressibility (1/GPa) = 0.03567214
#
# Stress axis : x y z
#
# Youngs Moduli (GPa) = 22.97442 113.60637 132.42234
#
# Poissons Ratio (x) = 0.55511 0.47978
# Poissons Ratio (y) = 0.11226 0.47604
# Poissons Ratio (z) = 0.08324 0.40840
#
# Static dielectric constant tensor:
#      x y z
#    x 3.040430 0.000000 0.000000 
#    y 0.000000 3.518190 0.000000 
#    z 0.000000 0.000000 3.999670 
# 
# 
# High freq. dielectric constant tensor:
#      x y z
#    x 1.699090 0.000000 0.000000 
#    y 0.000000 1.746810 0.000000 
#    z 0.000000 0.000000 1.772990 
# 
# From -- ./inp_files/72865.got.cif
#   From: 2010.03.12/outbox.cif.g09.slc.cpg/sg65_37_cif.got.tgz:72865.got - 2010.04.10 20:52:16.
