data_PCOD8268585
_publ_section_title
;
Structure prediction by ZEFSAII (Michael W. Deem and Ramdas Pophale) SiO2 
 PCOD8268585
Probable space group: C M M M
;
_chemical_formula_sum "Si O2"
_cell_formula_units_Z 104
_cell_length_a 29.372578
_cell_length_b 8.842371
_cell_length_c 20.359800
_cell_angle_alpha 90.000000
_cell_angle_beta 90.000000
_cell_angle_gamma 90.000000
_cell_volume 5287.913057
_symmetry_space_group_name_H-M "C M M M"
_symmetry_group_IT_number 65
_symmetry_cell_setting 'orthorhombic'
loop_
_space_group_symop_operation_xyz
x,y,z
-x,-y,z
x,-y,-z
-x,y,-z
-x,-y,-z
x,y,-z
-x,y,z
x,-y,z
1/2+x,1/2+y,z
1/2-x,1/2-y,z
1/2+x,1/2-y,-z
1/2-x,1/2+y,-z
1/2-x,1/2-y,-z
1/2+x,1/2+y,-z
1/2-x,1/2+y,z
1/2+x,1/2-y,z
loop_
_atom_site_type_symbol
_atom_site_label
_atom_site_fract_x
_atom_site_fract_y
_atom_site_fract_z
Si Si1 0.644095 0.321486 0.117969
Si Si2 0.800389 0.320503 0.000000
Si Si3 0.295696 0.825011 0.624427
Si Si4 0.549979 0.320972 0.829094
Si Si5 0.447008 0.668945 0.683344
Si Si6 0.389825 0.821032 0.427391
Si Si7 0.703291 0.822626 0.777519
O O1 0.651125 0.500000 0.107055
O O2 0.670723 0.230368 0.062629
O O3 0.589979 0.278626 0.119158
O O4 0.662762 0.268226 0.188034
O O5 0.750000 0.250000 0.000000
O O6 0.794994 0.500000 0.000000
O O7 0.250000 0.750000 0.596904
O O8 0.339246 0.756866 0.586956
O O9 0.302666 0.790980 0.701063
O O10 0.290281 0.000000 0.610423
O O11 0.500000 0.260382 0.853127
O O12 0.547049 0.500000 0.821422
O O13 0.561314 0.258550 0.755859
O O14 0.500000 0.665547 0.667833
O O15 0.426435 0.500000 0.679609
O O16 0.424575 0.769387 0.627596
O O17 0.405062 0.765418 0.500000
O O18 0.388064 0.000000 0.424082
O O19 0.750000 0.750000 0.804073
O O20 0.702166 0.000000 0.795202
#
# Coordination Sequence:
#
# PCOD8268585 Si02
#       7
#    16   8  16  16  16  16  16
#     4  11  21  35  58  85 111 141 179 218 259 307
#     4  12  26  44  61  80 113 151 186 219 255 302
#     4   9  19  34  51  72  99 132 172 219 268 319
#     4   8  16  33  58  86 112 138 172 217 265 312
#     4   9  18  34  56  81 107 135 172 219 266 311
#     4  10  21  35  49  69 101 139 177 217 265 322
#     4  10  19  32  51  76 105 135 171 216 268 321
#
# _framework density 19.667494999999999
#
# number of rings (size 3 to 8) (size 9 to 14) (size 15 to 20)
#    0.000    2.308    0.000    3.923    0.000    2.462 
#    0.000    2.692    0.000    6.000    0.000    0.000 
#    0.000    0.000    0.000    0.000    0.000    0.000 
#
# Total GULP energy -644582.393379 kJ/mol
# GULP energy per Si atom -12395.815257 kJ/mol
# Density = 1.962273 g / cm^3
# Si number density = 19.667495 Si / 1000 Ang^3
#
#
#
# Elastic Constant Matrix: (Units=GPa)
#
#
# Indices 1 2 3 4 5 6 
#
# 1 129.8850 37.9214 60.2635 0.0000 0.0000 0.0000
# 2 37.9214 60.7939 32.8742 0.0000 0.0000 0.0000
# 3 60.2635 32.8742 74.8093 0.0000 0.0000 0.0000
# 4 0.0000 0.0000 0.0000 25.4748 0.0000 0.0000
# 5 0.0000 0.0000 0.0000 0.0000 25.2768 0.0000
# 6 0.0000 0.0000 0.0000 0.0000 0.0000 27.3144
#
#
#
# Elastic Compliance Matrix: (Units=1/GPa)
#
#
# Indices 1 2 3 4 5 6 
#
# 1 0.012736 -0.003143 -0.008879 0.000000 0.000000 0.000000
# 2 -0.003143 0.022352 -0.007290 0.000000 0.000000 0.000000
# 3 -0.008879 -0.007290 0.023723 0.000000 0.000000 0.000000
# 4 0.000000 0.000000 0.000000 0.039255 0.000000 0.000000
# 5 0.000000 0.000000 0.000000 0.000000 0.039562 0.000000
# 6 0.000000 0.000000 0.000000 0.000000 0.000000 0.036611
#
#
# Mechanical properties :
#
#
# Convention : Reuss Voigt Hill
#
# Bulk Modulus (GPa) = 49.53643 58.62295 54.07969
# Shear Modulus (GPa) = 22.76953 24.57513 23.67233
#
# Velocity S-wave (km/s) = 3.40623 3.53870 3.47310
# Velocity P-wave (km/s) = 6.38055 6.82410 6.60605
#
# Compressibility (1/GPa) = 0.02018716
#
# Stress axis : x y z
#
# Youngs Moduli (GPa) = 78.51574 44.73892 42.15307
#
# Poissons Ratio (x) = 0.14064 0.37426
# Poissons Ratio (y) = 0.24681 0.30730
# Poissons Ratio (z) = 0.69710 0.32615
#
# Static dielectric constant tensor:
#      x y z
#    x 3.928240 0.000000 0.000000 
#    y 0.000000 3.429590 0.000000 
#    z 0.000000 0.000000 3.553910 
# 
# 
# High freq. dielectric constant tensor:
#      x y z
#    x 1.779040 0.000000 0.000000 
#    y 0.000000 1.745930 0.000000 
#    z 0.000000 0.000000 1.757040 
# 
# From -- ./inp_files/65915.got.cif
#   From: 2010.03.12/outbox.cif.g09.slc.cpg/sg65_33_cif.got.tgz:65915.got - 2010.04.10 20:52:16.
