data_PCOD8268821
_publ_section_title
;
Structure prediction by ZEFSAII (Michael W. Deem and Ramdas Pophale) SiO2 
 PCOD8268821
Probable space group: C M M M
;
_chemical_formula_sum "Si O2"
_cell_formula_units_Z 96
_cell_length_a 23.040267
_cell_length_b 15.108822
_cell_length_c 14.029208
_cell_angle_alpha 90.000000
_cell_angle_beta 90.000000
_cell_angle_gamma 90.000000
_cell_volume 4883.725736
_symmetry_space_group_name_H-M "C M M M"
_symmetry_group_IT_number 65
_symmetry_cell_setting 'orthorhombic'
loop_
_space_group_symop_operation_xyz
x,y,z
-x,-y,z
x,-y,-z
-x,y,-z
-x,-y,-z
x,y,-z
-x,y,z
x,-y,z
1/2+x,1/2+y,z
1/2-x,1/2-y,z
1/2+x,1/2-y,-z
1/2-x,1/2+y,-z
1/2-x,1/2-y,-z
1/2+x,1/2+y,-z
1/2-x,1/2+y,z
1/2+x,1/2-y,z
loop_
_atom_site_type_symbol
_atom_site_label
_atom_site_fract_x
_atom_site_fract_y
_atom_site_fract_z
Si Si1 0.850316 0.099026 0.780938
Si Si2 0.223611 0.844581 0.607517
Si Si3 0.932634 0.230883 0.109085
Si Si4 0.241106 0.352176 0.889068
Si Si5 0.380409 0.897425 0.803190
Si Si6 0.152653 0.401606 0.602124
O O1 0.829234 0.130866 0.676876
O O2 0.898643 0.165453 0.821079
O O3 0.796544 0.094575 0.853036
O O4 0.876642 0.000000 0.773404
O O5 0.198610 0.846140 0.500000
O O6 0.250000 0.750000 0.635363
O O7 0.278078 0.909973 0.619585
O O8 0.922132 0.333537 0.136717
O O9 0.000000 0.209013 0.118750
O O10 0.911368 0.217148 0.000000
O O11 0.250000 0.250000 0.861771
O O12 0.184978 0.391463 0.839254
O O13 0.233444 0.366831 0.000000
O O14 0.380481 0.860878 0.693406
O O15 0.401267 0.000000 0.811319
O O16 0.140638 0.350961 0.500000
O O17 0.128569 0.500000 0.592256
#
# Coordination Sequence:
#
# PCOD8268821 Si02
#       6
#    16  16  16  16  16  16
#     4  12  23  37  60  87 118 156 197 244 294 347
#     4  10  19  32  54  86 125 162 192 227 281 351
#     4  11  26  46  63  80 108 151 205 260 305 353
#     4  11  21  34  54  83 122 159 188 231 295 363
#     4  11  21  36  61  90 120 153 189 240 303 366
#     4   9  17  30  50  81 121 156 183 215 266 343
#
# _framework density 19.657122999999999
#
# number of rings (size 3 to 8) (size 9 to 14) (size 15 to 20)
#    0.000    1.333    3.333    3.500    0.000    5.000 
#    0.000    1.667    0.000    2.000    0.000    3.500 
#    0.000    0.000    0.000    0.000    0.000    0.000 
#
# Total GULP energy -594912.045093 kJ/mol
# GULP energy per Si atom -12394.000939 kJ/mol
# Density = 1.961238 g / cm^3
# Si number density = 19.657123 Si / 1000 Ang^3
#
#
#
# Elastic Constant Matrix: (Units=GPa)
#
#
# Indices 1 2 3 4 5 6 
#
# 1 49.9598 19.5977 32.5677 0.0000 0.0000 0.0000
# 2 19.5977 108.3239 46.0883 0.0000 0.0000 0.0000
# 3 32.5677 46.0883 129.0642 0.0000 0.0000 0.0000
# 4 0.0000 0.0000 0.0000 22.5429 0.0000 0.0000
# 5 0.0000 0.0000 0.0000 0.0000 21.0754 0.0000
# 6 0.0000 0.0000 0.0000 0.0000 0.0000 8.7303
#
#
#
# Elastic Compliance Matrix: (Units=1/GPa)
#
#
# Indices 1 2 3 4 5 6 
#
# 1 0.024360 -0.002113 -0.005392 0.000000 0.000000 0.000000
# 2 -0.002113 0.011069 -0.003419 0.000000 0.000000 0.000000
# 3 -0.005392 -0.003419 0.010330 0.000000 0.000000 0.000000
# 4 0.000000 0.000000 0.000000 0.044360 0.000000 0.000000
# 5 0.000000 0.000000 0.000000 0.000000 0.047449 0.000000
# 6 0.000000 0.000000 0.000000 0.000000 0.000000 0.114544
#
#
# Mechanical properties :
#
#
# Convention : Reuss Voigt Hill
#
# Bulk Modulus (GPa) = 41.82499 53.76172 47.79335
# Shear Modulus (GPa) = 17.73489 23.07600 20.40545
#
# Velocity S-wave (km/s) = 3.00694 3.42998 3.22540
# Velocity P-wave (km/s) = 5.77746 6.56471 6.18363
#
# Compressibility (1/GPa) = 0.02390915
#
# Stress axis : x y z
#
# Youngs Moduli (GPa) = 41.05071 90.34501 96.80673
#
# Poissons Ratio (x) = 0.19089 0.52203
# Poissons Ratio (y) = 0.08673 0.33102
# Poissons Ratio (z) = 0.22136 0.30893
#
# Static dielectric constant tensor:
#      x y z
#    x 3.140950 0.000000 0.000000 
#    y 0.000000 3.692560 0.000000 
#    z 0.000000 0.000000 4.040080 
# 
# 
# High freq. dielectric constant tensor:
#      x y z
#    x 1.710220 0.000000 0.000000 
#    y 0.000000 1.768590 0.000000 
#    z 0.000000 0.000000 1.791030 
# 
# From -- ./inp_files/44119.got.cif
#   From: 2010.03.12/outbox.cif.g09.slc.cpg/sg65_23_cif.got.tgz:44119.got - 2010.04.10 20:52:16.
