data_PCOD8268856
_publ_section_title
;
Structure prediction by ZEFSAII (Michael W. Deem and Ramdas Pophale) SiO2 
 PCOD8268856
Probable space group: C M M M
;
_chemical_formula_sum "Si O2"
_cell_formula_units_Z 80
_cell_length_a 23.412721
_cell_length_b 9.650999
_cell_length_c 22.723502
_cell_angle_alpha 90.000000
_cell_angle_beta 90.000000
_cell_angle_gamma 90.000000
_cell_volume 5134.514957
_symmetry_space_group_name_H-M "C M M M"
_symmetry_group_IT_number 65
_symmetry_cell_setting 'orthorhombic'
loop_
_space_group_symop_operation_xyz
x,y,z
-x,-y,z
x,-y,-z
-x,y,-z
-x,-y,-z
x,y,-z
-x,y,z
x,-y,z
1/2+x,1/2+y,z
1/2-x,1/2-y,z
1/2+x,1/2-y,-z
1/2-x,1/2+y,-z
1/2-x,1/2-y,-z
1/2+x,1/2+y,-z
1/2-x,1/2+y,z
1/2+x,1/2-y,z
loop_
_atom_site_type_symbol
_atom_site_label
_atom_site_fract_x
_atom_site_fract_y
_atom_site_fract_z
Si Si1 0.194218 0.841162 0.000000
Si Si2 0.567927 0.344689 0.565520
Si Si3 0.397384 0.656536 0.903335
Si Si4 0.067965 0.343651 0.330191
Si Si5 0.065868 0.844143 0.777249
Si Si6 0.500000 0.148993 0.933083
O O1 0.250000 0.750000 0.000000
O O2 0.159403 0.807083 0.059947
O O3 0.213407 0.000000 0.000000
O O4 0.587983 0.300022 0.500000
O O5 0.500000 0.344228 0.568705
O O6 0.590082 0.500000 0.579822
O O7 0.593147 0.235972 0.612755
O O8 0.417025 0.500000 0.919771
O O9 0.390856 0.668837 0.832580
O O10 0.444200 0.765527 0.920314
O O11 0.092384 0.500000 0.328934
O O12 0.087747 0.262875 0.271764
O O13 0.000000 0.345204 0.333151
O O14 0.000000 0.811532 0.796812
O O15 0.068461 0.000000 0.751182
O O16 0.500000 0.000000 0.898494
O O17 0.500000 0.110248 0.000000
#
# Coordination Sequence:
#
# PCOD8268856 Si02
#       6
#     8  16  16  16  16   8
#     4  10  22  37  54  69  87 112 144 182 217 258
#     4   8  13  21  32  44  60  89 132 175 206 234
#     4  10  19  33  51  67  85 115 147 175 210 263
#     4   9  16  23  31  47  73 101 127 162 208 251
#     4   9  16  26  41  59  78 103 135 168 205 250
#     4  11  21  29  43  71  97 113 130 169 220 261
#
# _framework density 15.580829
#
# number of rings (size 3 to 8) (size 9 to 14) (size 15 to 20)
#    0.000    2.700    2.000    1.500    0.000    4.800 
#    0.000    2.000    0.000    0.000    0.000    0.000 
#    0.000    0.000    0.000    0.000    0.000    1.000 
#
# Total GULP energy -495647.489302 kJ/mol
# GULP energy per Si atom -12391.187233 kJ/mol
# Density = 1.554537 g / cm^3
# Si number density = 15.580829 Si / 1000 Ang^3
#
#
#
# Elastic Constant Matrix: (Units=GPa)
#
#
# Indices 1 2 3 4 5 6 
#
# 1 47.3124 44.8749 29.1327 0.0000 0.0000 0.0000
# 2 44.8749 132.4798 72.2288 0.0000 0.0000 0.0000
# 3 29.1327 72.2288 125.5627 0.0000 0.0000 0.0000
# 4 0.0000 0.0000 0.0000 20.8783 0.0000 0.0000
# 5 0.0000 0.0000 0.0000 0.0000 30.7150 0.0000
# 6 0.0000 0.0000 0.0000 0.0000 0.0000 16.2965
#
#
#
# Elastic Compliance Matrix: (Units=1/GPa)
#
#
# Indices 1 2 3 4 5 6 
#
# 1 0.031388 -0.009705 -0.001700 0.000000 0.000000 0.000000
# 2 -0.009705 0.013998 -0.005801 0.000000 0.000000 0.000000
# 3 -0.001700 -0.005801 0.011695 0.000000 0.000000 0.000000
# 4 0.000000 0.000000 0.000000 0.047897 0.000000 0.000000
# 5 0.000000 0.000000 0.000000 0.000000 0.032557 0.000000
# 6 0.000000 0.000000 0.000000 0.000000 0.000000 0.061363
#
#
# Mechanical properties :
#
#
# Convention : Reuss Voigt Hill
#
# Bulk Modulus (GPa) = 44.11044 66.42529 55.26786
# Shear Modulus (GPa) = 20.75838 24.18586 22.47212
#
# Velocity S-wave (km/s) = 3.65403 3.94418 3.80187
# Velocity P-wave (km/s) = 6.79520 7.96664 7.40412
#
# Compressibility (1/GPa) = 0.02267037
#
# Stress axis : x y z
#
# Youngs Moduli (GPa) = 31.85922 71.43698 85.50498
#
# Poissons Ratio (x) = 0.69333 0.14533
# Poissons Ratio (y) = 0.30921 0.49598
# Poissons Ratio (z) = 0.05415 0.41438
#
# Static dielectric constant tensor:
#      x y z
#    x 2.300160 0.000000 0.000000 
#    y 0.000000 3.256180 0.000000 
#    z 0.000000 0.000000 3.256290 
# 
# 
# High freq. dielectric constant tensor:
#      x y z
#    x 1.506230 0.000000 0.000000 
#    y 0.000000 1.613170 0.000000 
#    z 0.000000 0.000000 1.610180 
# 
# From -- ./inp_files/71344.got.cif
#   From: 2010.03.12/outbox.cif.g09.slc.cpg/sg65_36_cif.got.tgz:71344.got - 2010.04.10 20:52:16.
