data_PCOD8268092
_publ_section_title
;
Structure prediction by ZEFSAII (Michael W. Deem and Ramdas Pophale) SiO2 
 PCOD8268092
Probable space group: C M M M
;
_chemical_formula_sum "Si O2"
_cell_formula_units_Z 104
_cell_length_a 14.454850
_cell_length_b 20.635660
_cell_length_c 18.337334
_cell_angle_alpha 90.000000
_cell_angle_beta 90.000000
_cell_angle_gamma 90.000000
_cell_volume 5469.758456
_symmetry_space_group_name_H-M "C M M M"
_symmetry_group_IT_number 65
_symmetry_cell_setting 'orthorhombic'
loop_
_space_group_symop_operation_xyz
x,y,z
-x,-y,z
x,-y,-z
-x,y,-z
-x,-y,-z
x,y,-z
-x,y,z
x,-y,z
1/2+x,1/2+y,z
1/2-x,1/2-y,z
1/2+x,1/2-y,-z
1/2-x,1/2+y,-z
1/2-x,1/2-y,-z
1/2+x,1/2+y,-z
1/2-x,1/2+y,z
1/2+x,1/2-y,z
loop_
_atom_site_type_symbol
_atom_site_label
_atom_site_fract_x
_atom_site_fract_y
_atom_site_fract_z
Si Si1 0.106543 0.076309 0.709504
Si Si2 0.899202 0.370685 0.835883
Si Si3 0.603548 0.736918 0.916272
Si Si4 0.802260 0.117106 0.849163
Si Si5 0.897670 0.574469 0.679723
Si Si6 0.767261 0.076064 0.580317
Si Si7 0.892872 0.000000 0.922240
O O1 0.171752 0.118590 0.763357
O O2 0.141824 0.092368 0.627967
O O3 0.000000 0.097876 0.716119
O O4 0.118240 0.000000 0.727117
O O5 0.891993 0.296695 0.860853
O O6 0.804781 0.404218 0.864821
O O7 0.895307 0.377618 0.748888
O O8 0.000000 0.399314 0.863635
O O9 0.500000 0.707038 0.913584
O O10 0.678298 0.685248 0.888324
O O11 0.627257 0.757272 0.000000
O O12 0.869677 0.064163 0.880099
O O13 0.873565 0.500000 0.703937
O O14 0.825229 0.601407 0.620660
O O15 0.000000 0.576487 0.644543
O O16 0.776377 0.108537 0.500000
O O17 0.757201 0.000000 0.570542
O O18 0.000000 0.000000 0.934687
O O19 0.840988 0.000000 0.000000
#
# Coordination Sequence:
#
# PCOD8268092 Si02
#       7
#    16  16  16  16  16  16   8
#     4  10  19  31  49  76 109 143 180 221 266 323
#     4  10  22  37  56  79 107 144 184 226 271 326
#     4  10  22  40  60  83 111 141 180 231 280 326
#     4  12  21  35  59  81 109 147 185 225 275 326
#     4   9  17  31  52  77 106 142 182 224 269 317
#     4   9  17  29  47  74 108 142 175 216 269 326
#     4  11  24  38  55  83 112 140 180 229 279 329
#
# _framework density 19.013636999999999
#
# number of rings (size 3 to 8) (size 9 to 14) (size 15 to 20)
#    0.000    1.923    2.308    2.308    1.077    3.692 
#    0.000    3.077    0.000    0.462    0.000    2.154 
#    0.000    3.692    0.000    0.000    0.000    0.000 
#
# Total GULP energy -644274.696063 kJ/mol
# GULP energy per Si atom -12389.898001 kJ/mol
# Density = 1.897036 g / cm^3
# Si number density = 19.013637 Si / 1000 Ang^3
#
#
#
# Elastic Constant Matrix: (Units=GPa)
#
#
# Indices 1 2 3 4 5 6 
#
# 1 141.6479 17.1694 41.1459 0.0000 0.0000 0.0000
# 2 17.1694 44.6286 38.4491 0.0000 0.0000 0.0000
# 3 41.1459 38.4491 119.0246 0.0000 0.0000 0.0000
# 4 0.0000 0.0000 0.0000 23.0015 0.0000 0.0000
# 5 0.0000 0.0000 0.0000 0.0000 25.2615 0.0000
# 6 0.0000 0.0000 0.0000 0.0000 0.0000 18.9457
#
#
#
# Elastic Compliance Matrix: (Units=1/GPa)
#
#
# Indices 1 2 3 4 5 6 
#
# 1 0.007877 -0.000948 -0.002417 0.000000 0.000000 0.000000
# 2 -0.000948 0.031162 -0.009739 0.000000 0.000000 0.000000
# 3 -0.002417 -0.009739 0.012383 0.000000 0.000000 0.000000
# 4 0.000000 0.000000 0.000000 0.043475 0.000000 0.000000
# 5 0.000000 0.000000 0.000000 0.000000 0.039586 0.000000
# 6 0.000000 0.000000 0.000000 0.000000 0.000000 0.052782
#
#
# Mechanical properties :
#
#
# Convention : Reuss Voigt Hill
#
# Bulk Modulus (GPa) = 39.65938 55.42554 47.54246
# Shear Modulus (GPa) = 22.53495 27.34418 24.93956
#
# Velocity S-wave (km/s) = 3.44641 3.79639 3.62562
# Velocity P-wave (km/s) = 6.06141 6.95920 6.52576
#
# Compressibility (1/GPa) = 0.02521471
#
# Stress axis : x y z
#
# Youngs Moduli (GPa) = 126.95716 32.09018 80.75635
#
# Poissons Ratio (x) = 0.03043 0.19515
# Poissons Ratio (y) = 0.12040 0.78646
# Poissons Ratio (z) = 0.30680 0.31251
#
# Static dielectric constant tensor:
#      x y z
#    x 3.921550 0.000000 0.000000 
#    y 0.000000 2.842030 0.000000 
#    z 0.000000 0.000000 3.701550 
# 
# 
# High freq. dielectric constant tensor:
#      x y z
#    x 1.765470 0.000000 0.000000 
#    y 0.000000 1.684060 0.000000 
#    z 0.000000 0.000000 1.733450 
# 
# From -- ./inp_files/53506.got.cif
#   From: 2010.03.12/outbox.cif.g09.slc.cpg/sg65_27_cif.got.tgz:53506.got - 2010.04.10 20:52:16.
