data_PCOD8268066
_publ_section_title
;
Structure prediction by ZEFSAII (Michael W. Deem and Ramdas Pophale) SiO2 
 PCOD8268066
Probable space group: C M M M
;
_chemical_formula_sum "Si O2"
_cell_formula_units_Z 88
_cell_length_a 8.818713
_cell_length_b 18.585447
_cell_length_c 28.625423
_cell_angle_alpha 90.000000
_cell_angle_beta 90.000000
_cell_angle_gamma 90.000000
_cell_volume 4691.698902
_symmetry_space_group_name_H-M "C M M M"
_symmetry_group_IT_number 65
_symmetry_cell_setting 'orthorhombic'
loop_
_space_group_symop_operation_xyz
x,y,z
-x,-y,z
x,-y,-z
-x,y,-z
-x,-y,-z
x,y,-z
-x,y,z
x,-y,z
1/2+x,1/2+y,z
1/2-x,1/2-y,z
1/2+x,1/2-y,-z
1/2-x,1/2+y,-z
1/2-x,1/2-y,-z
1/2+x,1/2+y,-z
1/2-x,1/2+y,z
1/2+x,1/2-y,z
loop_
_atom_site_type_symbol
_atom_site_label
_atom_site_fract_x
_atom_site_fract_y
_atom_site_fract_z
Si Si1 0.680058 0.919079 0.500000
Si Si2 0.179817 0.579794 0.674233
Si Si3 0.822205 0.828174 0.858102
Si Si4 0.672397 0.084849 0.778561
Si Si5 0.819776 0.327972 0.411687
Si Si6 0.677640 0.828173 0.050610
O O1 0.500000 0.922813 0.500000
O O2 0.738013 0.877245 0.545721
O O3 0.747238 0.000000 0.500000
O O4 0.247019 0.500000 0.664295
O O5 0.225247 0.605968 0.726156
O O6 0.242076 0.635997 0.636120
O O7 0.000000 0.574548 0.670794
O O8 0.750000 0.750000 0.851047
O O9 0.785678 0.876849 0.813789
O O10 0.755685 0.867455 0.905076
O O11 0.000000 0.819837 0.863499
O O12 0.500000 0.110681 0.787686
O O13 0.684522 0.000000 0.785544
O O14 0.750000 0.250000 0.417387
O O15 0.000000 0.321258 0.411581
O O16 0.500000 0.821683 0.060383
O O17 0.750000 0.750000 0.048319
O O18 0.706909 0.866787 0.000000
#
# Coordination Sequence:
#
# PCOD8268066 Si02
#       6
#     8  16  16  16  16  16
#     4   9  17  30  51  75  96 127 172 212 240 279
#     4   8  15  30  52  73  92 122 165 205 239 285
#     4  11  21  32  49  73 102 132 165 206 249 296
#     4   9  18  34  54  73  96 128 165 205 251 302
#     4  10  19  31  49  74 103 130 160 201 248 295
#     4   9  16  27  45  69  97 128 163 203 247 295
#
# _framework density 18.756530999999999
#
# number of rings (size 3 to 8) (size 9 to 14) (size 15 to 20)
#    0.000    2.636    0.000    5.182    0.000    4.364 
#    0.000    2.727    0.000    4.364    0.000    3.818 
#    0.000    0.000    0.000    0.000    0.000    0.000 
#
# Total GULP energy -545330.818961 kJ/mol
# GULP energy per Si atom -12393.882249 kJ/mol
# Density = 1.871384 g / cm^3
# Si number density = 18.756531 Si / 1000 Ang^3
#
#
#
# Elastic Constant Matrix: (Units=GPa)
#
#
# Indices 1 2 3 4 5 6 
#
# 1 77.2193 28.1459 49.8539 0.0000 0.0000 0.0000
# 2 28.1459 88.5549 73.8329 0.0000 0.0000 0.0000
# 3 49.8539 73.8329 183.9861 0.0000 0.0000 0.0000
# 4 0.0000 0.0000 0.0000 17.3467 0.0000 0.0000
# 5 0.0000 0.0000 0.0000 0.0000 19.2498 0.0000
# 6 0.0000 0.0000 0.0000 0.0000 0.0000 22.7172
#
#
#
# Elastic Compliance Matrix: (Units=1/GPa)
#
#
# Indices 1 2 3 4 5 6 
#
# 1 0.015978 -0.002207 -0.003444 0.000000 0.000000 0.000000
# 2 -0.002207 0.017275 -0.006334 0.000000 0.000000 0.000000
# 3 -0.003444 -0.006334 0.008910 0.000000 0.000000 0.000000
# 4 0.000000 0.000000 0.000000 0.057648 0.000000 0.000000
# 5 0.000000 0.000000 0.000000 0.000000 0.051949 0.000000
# 6 0.000000 0.000000 0.000000 0.000000 0.000000 0.044020
#
#
# Mechanical properties :
#
#
# Convention : Reuss Voigt Hill
#
# Bulk Modulus (GPa) = 54.96650 72.60287 63.78469
# Shear Modulus (GPa) = 22.14205 25.05790 23.59998
#
# Velocity S-wave (km/s) = 3.43957 3.65904 3.55100
# Velocity P-wave (km/s) = 6.71886 7.52619 7.13395
#
# Compressibility (1/GPa) = 0.01819290
#
# Stress axis : x y z
#
# Youngs Moduli (GPa) = 62.58625 57.88606 112.22923
#
# Poissons Ratio (x) = 0.12776 0.38649
# Poissons Ratio (y) = 0.13814 0.71091
# Poissons Ratio (z) = 0.21553 0.36668
#
# Static dielectric constant tensor:
#      x y z
#    x 3.157070 0.000000 0.000000 
#    y 0.000000 3.214060 0.000000 
#    z 0.000000 0.000000 4.197250 
# 
# 
# High freq. dielectric constant tensor:
#      x y z
#    x 1.700070 0.000000 0.000000 
#    y 0.000000 1.697950 0.000000 
#    z 0.000000 0.000000 1.755020 
# 
# From -- ./inp_files/76443.got.cif
#   From: 2010.03.12/outbox.cif.g09.slc.cpg/sg65_39_cif.got.tgz:76443.got - 2010.04.10 20:52:16.
