data_PCOD8268790
_publ_section_title
;
Structure prediction by ZEFSAII (Michael W. Deem and Ramdas Pophale) SiO2 
 PCOD8268790
Probable space group: C M M M
;
_chemical_formula_sum "Si O2"
_cell_formula_units_Z 88
_cell_length_a 8.811856
_cell_length_b 24.759808
_cell_length_c 21.867057
_cell_angle_alpha 90.000000
_cell_angle_beta 90.000000
_cell_angle_gamma 90.000000
_cell_volume 4770.951494
_symmetry_space_group_name_H-M "C M M M"
_symmetry_group_IT_number 65
_symmetry_cell_setting 'orthorhombic'
loop_
_space_group_symop_operation_xyz
x,y,z
-x,-y,z
x,-y,-z
-x,y,-z
-x,-y,-z
x,y,-z
-x,y,z
x,-y,z
1/2+x,1/2+y,z
1/2-x,1/2-y,z
1/2+x,1/2-y,-z
1/2-x,1/2+y,-z
1/2-x,1/2-y,-z
1/2+x,1/2+y,-z
1/2-x,1/2+y,z
1/2+x,1/2-y,z
loop_
_atom_site_type_symbol
_atom_site_label
_atom_site_fract_x
_atom_site_fract_y
_atom_site_fract_z
Si Si1 0.824425 0.500000 0.427972
Si Si2 0.177250 0.885550 0.068794
Si Si3 0.679084 0.500000 0.112610
Si Si4 0.820253 0.306593 0.698743
Si Si5 0.822490 0.694875 0.161623
Si Si6 0.819645 0.086336 0.655126
Si Si7 0.179253 0.000000 0.752029
O O1 0.804496 0.500000 0.500000
O O2 0.744148 0.554122 0.403095
O O3 0.000000 0.500000 0.408102
O O4 0.230380 0.947556 0.075045
O O5 0.271538 0.852675 0.117754
O O6 0.000000 0.878914 0.083655
O O7 0.213837 0.866023 0.000000
O O8 0.500000 0.500000 0.120203
O O9 0.753479 0.500000 0.180588
O O10 0.750000 0.250000 0.676022
O O11 0.770719 0.317292 0.769000
O O12 0.752307 0.354187 0.657224
O O13 0.000000 0.304464 0.690853
O O14 0.750000 0.750000 0.137278
O O15 0.000000 0.701979 0.157671
O O16 0.768614 0.053626 0.715894
O O17 0.000000 0.090814 0.649413
O O18 0.000000 0.000000 0.756506
#
# Coordination Sequence:
#
# PCOD8268790 Si02
#       7
#     8  16   8  16  16  16   8
#     4  10  21  37  57  82 115 154 190 224 260 296
#     4  10  20  33  50  71  95 127 168 213 260 314
#     4   9  16  29  49  71  97 127 161 201 250 311
#     4  10  20  34  53  78 107 138 173 214 264 320
#     4  10  21  36  54  75  99 130 167 211 262 314
#     4  10  19  32  53  82 113 143 178 218 261 310
#     4   8  15  26  45  74 102 129 161 204 256 306
#
# _framework density 18.444956999999999
#
# number of rings (size 3 to 8) (size 9 to 14) (size 15 to 20)
#    0.000    2.273    0.000    3.818    0.000    6.182 
#    0.000    0.455    0.000    4.909    0.000    0.000 
#    0.000    0.000    0.000    0.000    0.000    0.000 
#
# Total GULP energy -545636.966933 kJ/mol
# GULP energy per Si atom -12400.840158 kJ/mol
# Density = 1.840298 g / cm^3
# Si number density = 18.444957 Si / 1000 Ang^3
#
#
#
# Elastic Constant Matrix: (Units=GPa)
#
#
# Indices 1 2 3 4 5 6 
#
# 1 74.9299 48.1009 31.3861 0.0000 0.0000 0.0000
# 2 48.1009 144.5803 40.0635 0.0000 0.0000 0.0000
# 3 31.3861 40.0635 70.5408 0.0000 0.0000 0.0000
# 4 0.0000 0.0000 0.0000 -0.6476 0.0000 0.0000
# 5 0.0000 0.0000 0.0000 0.0000 24.9571 0.0000
# 6 0.0000 0.0000 0.0000 0.0000 0.0000 30.1365
#
#
#
# Elastic Compliance Matrix: (Units=1/GPa)
#
#
# Indices 1 2 3 4 5 6 
#
# 1 0.018712 -0.004650 -0.005685 0.000000 0.000000 0.000000
# 2 -0.004650 0.009364 -0.003249 0.000000 0.000000 0.000000
# 3 -0.005685 -0.003249 0.018551 0.000000 0.000000 0.000000
# 4 0.000000 0.000000 0.000000 -1.544219 0.000000 0.000000
# 5 0.000000 0.000000 0.000000 0.000000 0.040069 0.000000
# 6 0.000000 0.000000 0.000000 0.000000 0.000000 0.033182
#
#
# Mechanical properties :
#
#
# Convention : Reuss Voigt Hill
#
# Bulk Modulus (GPa) = 51.39033 58.79469 55.09251
# Shear Modulus (GPa) = -3.59535 22.25591 9.33028
#
# Velocity S-wave (km/s) = -1.39766 3.47740 2.25154
# Velocity P-wave (km/s) = 5.03163 6.93311 6.05745
#
# Compressibility (1/GPa) = 0.01945891
#
# Stress axis : x y z
#
# Youngs Moduli (GPa) = 53.44135 106.79163 53.90580
#
# Poissons Ratio (x) = 0.49660 0.30643
# Poissons Ratio (y) = 0.24851 0.17515
# Poissons Ratio (z) = 0.30379 0.34699
#
# Static dielectric constant tensor:
#      x y z
#    x 3.273650 0.000000 0.000000 
#    y 0.000000 3.545230 0.000000 
#    z 0.000000 0.000000 3.270750 
# 
# 
# High freq. dielectric constant tensor:
#      x y z
#    x 1.706480 0.000000 0.000000 
#    y 0.000000 1.722830 0.000000 
#    z 0.000000 0.000000 1.695840 
# 
# From -- ./inp_files/59948.got.cif
#   From: 2010.03.12/outbox.cif.g09.slc.cpg/sg65_30_cif.got.tgz:59948.got - 2010.04.10 20:52:16.
