data_PCOD8268446
_publ_section_title
;
Structure prediction by ZEFSAII (Michael W. Deem and Ramdas Pophale) SiO2 
 PCOD8268446
Probable space group: C M M M
;
_chemical_formula_sum "Si O2"
_cell_formula_units_Z 88
_cell_length_a 17.762406
_cell_length_b 28.943826
_cell_length_c 9.261073
_cell_angle_alpha 90.000000
_cell_angle_beta 90.000000
_cell_angle_gamma 90.000000
_cell_volume 4761.228657
_symmetry_space_group_name_H-M "C M M M"
_symmetry_group_IT_number 65
_symmetry_cell_setting 'orthorhombic'
loop_
_space_group_symop_operation_xyz
x,y,z
-x,-y,z
x,-y,-z
-x,y,-z
-x,-y,-z
x,y,-z
-x,y,z
x,-y,z
1/2+x,1/2+y,z
1/2-x,1/2-y,z
1/2+x,1/2-y,-z
1/2-x,1/2+y,-z
1/2-x,1/2-y,-z
1/2+x,1/2+y,-z
1/2-x,1/2+y,z
1/2+x,1/2-y,z
loop_
_atom_site_type_symbol
_atom_site_label
_atom_site_fract_x
_atom_site_fract_y
_atom_site_fract_z
Si Si1 0.910965 0.294508 0.157562
Si Si2 0.210116 0.446900 0.666976
Si Si3 0.642859 0.609125 0.329544
Si Si4 0.085823 0.394193 0.827956
Si Si5 0.586532 0.694629 0.827893
Si Si6 0.500000 0.448402 0.671499
O O1 0.889237 0.343140 0.234877
O O2 0.888773 0.245751 0.233073
O O3 0.000000 0.294419 0.136904
O O4 0.872622 0.294676 0.000000
O O5 0.191223 0.438819 0.500000
O O6 0.230240 0.500000 0.697921
O O7 0.280857 0.416357 0.715684
O O8 0.137476 0.433226 0.758901
O O9 0.637560 0.617418 0.500000
O O10 0.640881 0.658180 0.249127
O O11 0.573891 0.577991 0.273009
O O12 0.000000 0.405283 0.783851
O O13 0.094485 0.394607 0.000000
O O14 0.500000 0.684164 0.785252
O O15 0.596635 0.692488 0.000000
O O16 0.500000 0.500000 0.737052
O O17 0.500000 0.451140 0.500000
#
# Coordination Sequence:
#
# PCOD8268446 Si02
#       6
#    16  16  16  16  16   8
#     4   7  12  26  49  75 101 130 163 200 244 298
#     4  10  22  38  53  72 102 137 170 208 258 309
#     4  10  19  32  50  73 100 133 175 216 250 291
#     4   9  18  35  59  82 101 126 167 212 251 301
#     4   9  16  28  49  76 105 135 166 203 251 301
#     4   9  16  28  49  71  91 125 175 219 248 283
#
# _framework density 18.482624999999999
#
# number of rings (size 3 to 8) (size 9 to 14) (size 15 to 20)
#    0.000    3.000    0.909    2.727    0.000    4.000 
#    0.000    3.636    0.000   10.909    0.000    0.000 
#    0.000    0.000    0.000    0.000    0.000    0.000 
#
# Total GULP energy -545198.282878 kJ/mol
# GULP energy per Si atom -12390.870065 kJ/mol
# Density = 1.844056 g / cm^3
# Si number density = 18.482625 Si / 1000 Ang^3
#
#
#
# Elastic Constant Matrix: (Units=GPa)
#
#
# Indices 1 2 3 4 5 6 
#
# 1 88.0797 38.6007 28.2961 0.0000 0.0000 0.0000
# 2 38.6007 88.0806 26.1298 0.0000 0.0000 0.0000
# 3 28.2961 26.1298 27.5777 0.0000 0.0000 0.0000
# 4 0.0000 0.0000 0.0000 15.1153 0.0000 0.0000
# 5 0.0000 0.0000 0.0000 0.0000 21.5462 0.0000
# 6 0.0000 0.0000 0.0000 0.0000 0.0000 30.0937
#
#
#
# Elastic Compliance Matrix: (Units=1/GPa)
#
#
# Indices 1 2 3 4 5 6 
#
# 1 0.017590 -0.003275 -0.014945 0.000000 0.000000 0.000000
# 2 -0.003275 0.016402 -0.012180 0.000000 0.000000 0.000000
# 3 -0.014945 -0.012180 0.063136 0.000000 0.000000 0.000000
# 4 0.000000 0.000000 0.000000 0.066158 0.000000 0.000000
# 5 0.000000 0.000000 0.000000 0.000000 0.046412 0.000000
# 6 0.000000 0.000000 0.000000 0.000000 0.000000 0.033230
#
#
# Mechanical properties :
#
#
# Convention : Reuss Voigt Hill
#
# Bulk Modulus (GPa) = 27.52751 43.31012 35.41881
# Shear Modulus (GPa) = 15.83093 20.73180 18.28137
#
# Velocity S-wave (km/s) = 2.92983 3.35280 3.14843
# Velocity P-wave (km/s) = 5.13529 6.20259 5.69400
#
# Compressibility (1/GPa) = 0.03632730
#
# Stress axis : x y z
#
# Youngs Moduli (GPa) = 56.85117 60.96850 15.83876
#
# Poissons Ratio (x) = 0.19968 0.23671
# Poissons Ratio (y) = 0.18619 0.19292
# Poissons Ratio (z) = 0.84964 0.74262
#
# Static dielectric constant tensor:
#      x y z
#    x 3.171060 0.000000 0.000000 
#    y 0.000000 3.785330 0.000000 
#    z 0.000000 0.000000 2.950310 
# 
# 
# High freq. dielectric constant tensor:
#      x y z
#    x 1.695510 0.000000 0.000000 
#    y 0.000000 1.738610 0.000000 
#    z 0.000000 0.000000 1.671780 
# 
# From -- ./inp_files/10063.got.cif
#   From: 2010.03.12/outbox.cif.g09.slc.cpg/sg65_6_cif.got.tgz:10063.got - 2010.04.10 20:52:16.
