data_PCOD8268140
_publ_section_title
;
Structure prediction by ZEFSAII (Michael W. Deem and Ramdas Pophale) SiO2 
 PCOD8268140
Probable space group: C M M M
;
_chemical_formula_sum "Si O2"
_cell_formula_units_Z 80
_cell_length_a 9.011348
_cell_length_b 19.626541
_cell_length_c 25.834377
_cell_angle_alpha 90.000000
_cell_angle_beta 90.000000
_cell_angle_gamma 90.000000
_cell_volume 4569.109018
_symmetry_space_group_name_H-M "C M M M"
_symmetry_group_IT_number 65
_symmetry_cell_setting 'orthorhombic'
loop_
_space_group_symop_operation_xyz
x,y,z
-x,-y,z
x,-y,-z
-x,y,-z
-x,-y,-z
x,y,-z
-x,y,z
x,-y,z
1/2+x,1/2+y,z
1/2-x,1/2-y,z
1/2+x,1/2-y,-z
1/2-x,1/2+y,-z
1/2-x,1/2-y,-z
1/2+x,1/2+y,-z
1/2-x,1/2+y,z
1/2+x,1/2-y,z
loop_
_atom_site_type_symbol
_atom_site_label
_atom_site_fract_x
_atom_site_fract_y
_atom_site_fract_z
Si Si1 0.828288 0.578227 0.354110
Si Si2 0.172221 0.678554 0.945419
Si Si3 0.325665 0.819090 0.558291
Si Si4 0.326911 0.420705 0.751063
Si Si5 0.675593 0.823772 0.832807
O O1 0.799958 0.500000 0.368371
O O2 0.775046 0.620622 0.403828
O O3 0.730514 0.601097 0.305360
O O4 0.000000 0.591851 0.340560
O O5 0.250000 0.750000 0.947899
O O6 0.214172 0.644391 0.890237
O O7 0.000000 0.694413 0.944186
O O8 0.211473 0.638091 0.000000
O O9 0.274097 0.837791 0.500000
O O10 0.500000 0.807773 0.560545
O O11 0.250000 0.750000 0.577641
O O12 0.500000 0.404166 0.754748
O O13 0.292896 0.500000 0.761233
O O14 0.239660 0.377550 0.793039
O O15 0.500000 0.815944 0.824127
O O16 0.750000 0.750000 0.824953
#
# Coordination Sequence:
#
# PCOD8268140 Si02
#       5
#    16  16  16  16  16
#     4   9  18  33  52  72  94 123 161 201 239 283
#     4   8  14  25  42  66  95 124 154 191 236 284
#     4   9  18  32  50  73 100 128 156 189 233 283
#     4  10  21  36  52  70  96 130 166 205 248 292
#     4  10  19  31  50  75 101 128 161 201 243 290
#
# _framework density 17.508883000000001
#
# number of rings (size 3 to 8) (size 9 to 14) (size 15 to 20)
#    0.000    2.800    0.000    1.200    0.000    4.000 
#    0.000    4.000    0.000    0.600    0.000    9.800 
#    0.000    0.000    0.000    0.000    0.000    0.000 
#
# Total GULP energy -495587.900423 kJ/mol
# GULP energy per Si atom -12389.697511 kJ/mol
# Density = 1.746903 g / cm^3
# Si number density = 17.508883 Si / 1000 Ang^3
#
#
#
# Elastic Constant Matrix: (Units=GPa)
#
#
# Indices 1 2 3 4 5 6 
#
# 1 61.1517 39.2299 57.0880 0.0000 0.0000 0.0000
# 2 39.2299 73.6006 81.3624 0.0000 0.0000 0.0000
# 3 57.0880 81.3624 162.7797 0.0000 0.0000 0.0000
# 4 0.0000 0.0000 0.0000 -8.6702 0.0000 0.0000
# 5 0.0000 0.0000 0.0000 0.0000 21.6138 0.0000
# 6 0.0000 0.0000 0.0000 0.0000 0.0000 26.4558
#
#
#
# Elastic Compliance Matrix: (Units=1/GPa)
#
#
# Indices 1 2 3 4 5 6 
#
# 1 0.026555 -0.008624 -0.005003 0.000000 0.000000 0.000000
# 2 -0.008624 0.033165 -0.013553 0.000000 0.000000 0.000000
# 3 -0.005003 -0.013553 0.014672 0.000000 0.000000 0.000000
# 4 0.000000 0.000000 0.000000 -0.115337 0.000000 0.000000
# 5 0.000000 0.000000 0.000000 0.000000 0.046267 0.000000
# 6 0.000000 0.000000 0.000000 0.000000 0.000000 0.037799
#
#
# Mechanical properties :
#
#
# Convention : Reuss Voigt Hill
#
# Bulk Modulus (GPa) = 49.91528 72.54364 61.22946
# Shear Modulus (GPa) = 48.00416 15.86999 31.93707
#
# Velocity S-wave (km/s) = 5.24181 3.01391 4.27552
# Velocity P-wave (km/s) = 8.07501 7.32352 7.70843
#
# Compressibility (1/GPa) = 0.02003395
#
# Stress axis : x y z
#
# Youngs Moduli (GPa) = 37.65699 30.15188 68.15856
#
# Poissons Ratio (x) = 0.26004 0.34096
# Poissons Ratio (y) = 0.32476 0.92372
# Poissons Ratio (z) = 0.18838 0.40863
#
# Static dielectric constant tensor:
#      x y z
#    x 3.299290 0.000000 0.000000 
#    y 0.000000 3.005120 0.000000 
#    z 0.000000 0.000000 3.884910 
# 
# 
# High freq. dielectric constant tensor:
#      x y z
#    x 1.680900 0.000000 0.000000 
#    y 0.000000 1.641690 0.000000 
#    z 0.000000 0.000000 1.699330 
# 
# From -- ./inp_files/72712.got.cif
#   From: 2010.03.12/outbox.cif.g09.slc.cpg/sg65_37_cif.got.tgz:72712.got - 2010.04.10 20:52:16.
