data_PCOD8268667
_publ_section_title
;
Structure prediction by ZEFSAII (Michael W. Deem and Ramdas Pophale) SiO2 
 PCOD8268667
Probable space group: C M M M
;
_chemical_formula_sum "Si O2"
_cell_formula_units_Z 112
_cell_length_a 15.992937
_cell_length_b 13.886594
_cell_length_c 23.565007
_cell_angle_alpha 90.000000
_cell_angle_beta 90.000000
_cell_angle_gamma 90.000000
_cell_volume 5233.491677
_symmetry_space_group_name_H-M "C M M M"
_symmetry_group_IT_number 65
_symmetry_cell_setting 'orthorhombic'
loop_
_space_group_symop_operation_xyz
x,y,z
-x,-y,z
x,-y,-z
-x,y,-z
-x,-y,-z
x,y,-z
-x,y,z
x,-y,z
1/2+x,1/2+y,z
1/2-x,1/2-y,z
1/2+x,1/2-y,-z
1/2-x,1/2+y,-z
1/2-x,1/2-y,-z
1/2+x,1/2+y,-z
1/2-x,1/2+y,z
1/2+x,1/2-y,z
loop_
_atom_site_type_symbol
_atom_site_label
_atom_site_fract_x
_atom_site_fract_y
_atom_site_fract_z
Si Si1 0.410440 0.108052 0.432705
Si Si2 0.402127 0.223466 0.936747
Si Si3 0.164487 0.392937 0.834295
Si Si4 0.597567 0.388295 0.343657
Si Si5 0.145207 0.892695 0.866042
Si Si6 0.729544 0.614391 0.563495
Si Si7 0.092918 0.772586 0.765386
O O1 0.408637 0.103995 0.500000
O O2 0.500000 0.158414 0.412967
O O3 0.320719 0.156627 0.414383
O O4 0.412586 0.000000 0.408043
O O5 0.500000 0.241154 0.934091
O O6 0.378332 0.140036 0.892815
O O7 0.357924 0.324794 0.921343
O O8 0.373422 0.192920 0.000000
O O9 0.131239 0.500000 0.819789
O O10 0.262560 0.393769 0.841558
O O11 0.146728 0.321052 0.782092
O O12 0.500000 0.372028 0.358059
O O13 0.614412 0.500000 0.329200
O O14 0.653071 0.353176 0.396739
O O15 0.628424 0.325314 0.290243
O O16 0.087349 0.848262 0.817073
O O17 0.114569 0.000000 0.881971
O O18 0.709439 0.652775 0.500000
O O19 0.737707 0.500000 0.562244
O O20 0.000000 0.735331 0.752973
#
# Coordination Sequence:
#
# PCOD8268667 Si02
#       7
#    16  16  16  16  16  16  16
#     4   7   9  14  26  46  74 112 164 223 270 307
#     4  10  21  35  52  78 113 151 187 223 266 319
#     4  10  21  36  55  79 105 137 182 233 283 333
#     4   9  17  27  40  64  99 140 187 233 278 334
#     4  10  20  34  54  79 107 141 181 223 270 324
#     4   8  13  21  34  56  92 140 186 223 268 330
#     4  10  19  32  52  76 105 140 179 229 284 332
#
# _framework density 21.400625999999999
#
# number of rings (size 3 to 8) (size 9 to 14) (size 15 to 20)
#    0.000    2.857    0.000    5.143    0.000    4.857 
#    0.000    4.286    0.000    0.000    0.000    8.000 
#    0.000   21.143    0.000    6.571    0.000    3.000 
#
# Total GULP energy -693842.084898 kJ/mol
# GULP energy per Si atom -12390.037230 kJ/mol
# Density = 2.135192 g / cm^3
# Si number density = 21.400626 Si / 1000 Ang^3
#
#
#
# Elastic Constant Matrix: (Units=GPa)
#
#
# Indices 1 2 3 4 5 6 
#
# 1 109.1804 30.4799 54.8439 0.0000 0.0000 0.0000
# 2 30.4799 118.8603 45.4118 0.0000 0.0000 0.0000
# 3 54.8439 45.4118 116.3374 0.0000 0.0000 0.0000
# 4 0.0000 0.0000 0.0000 19.3178 0.0000 0.0000
# 5 0.0000 0.0000 0.0000 0.0000 11.6474 0.0000
# 6 0.0000 0.0000 0.0000 0.0000 0.0000 10.3253
#
#
#
# Elastic Compliance Matrix: (Units=1/GPa)
#
#
# Indices 1 2 3 4 5 6 
#
# 1 0.012119 -0.001087 -0.005289 0.000000 0.000000 0.000000
# 2 -0.001087 0.009985 -0.003385 0.000000 0.000000 0.000000
# 3 -0.005289 -0.003385 0.012410 0.000000 0.000000 0.000000
# 4 0.000000 0.000000 0.000000 0.051766 0.000000 0.000000
# 5 0.000000 0.000000 0.000000 0.000000 0.085856 0.000000
# 6 0.000000 0.000000 0.000000 0.000000 0.000000 0.096849
#
#
# Mechanical properties :
#
#
# Convention : Reuss Voigt Hill
#
# Bulk Modulus (GPa) = 66.70001 67.31661 67.00831
# Shear Modulus (GPa) = 17.03540 22.50095 19.76817
#
# Velocity S-wave (km/s) = 2.82445 3.24607 3.04257
# Velocity P-wave (km/s) = 6.47083 6.75078 6.61229
#
# Compressibility (1/GPa) = 0.01499250
#
# Stress axis : x y z
#
# Youngs Moduli (GPa) = 82.51214 100.14629 80.57723
#
# Poissons Ratio (x) = 0.10887 0.42617
# Poissons Ratio (y) = 0.08970 0.27278
# Poissons Ratio (z) = 0.43641 0.33902
#
# Static dielectric constant tensor:
#      x y z
#    x 4.194580 0.000000 0.000000 
#    y 0.000000 4.719720 0.000000 
#    z 0.000000 0.000000 3.761590 
# 
# 
# High freq. dielectric constant tensor:
#      x y z
#    x 1.853960 0.000000 0.000000 
#    y 0.000000 1.828730 0.000000 
#    z 0.000000 0.000000 1.809660 
# 
# From -- ./inp_files/70023.got.cif
#   From: 2010.03.12/outbox.cif.g09.slc.cpg/sg65_36_cif.got.tgz:70023.got - 2010.04.10 20:52:16.
