data_PCOD8268186
_publ_section_title
;
Structure prediction by ZEFSAII (Michael W. Deem and Ramdas Pophale) SiO2 
 PCOD8268186
Probable space group: C M M M
;
_chemical_formula_sum "Si O2"
_cell_formula_units_Z 104
_cell_length_a 27.278829
_cell_length_b 23.676693
_cell_length_c 9.060325
_cell_angle_alpha 90.000000
_cell_angle_beta 90.000000
_cell_angle_gamma 90.000000
_cell_volume 5851.814393
_symmetry_space_group_name_H-M "C M M M"
_symmetry_group_IT_number 65
_symmetry_cell_setting 'orthorhombic'
loop_
_space_group_symop_operation_xyz
x,y,z
-x,-y,z
x,-y,-z
-x,y,-z
-x,-y,-z
x,y,-z
-x,y,z
x,-y,z
1/2+x,1/2+y,z
1/2-x,1/2-y,z
1/2+x,1/2-y,-z
1/2-x,1/2+y,-z
1/2-x,1/2-y,-z
1/2+x,1/2+y,-z
1/2-x,1/2+y,z
1/2+x,1/2-y,z
loop_
_atom_site_type_symbol
_atom_site_label
_atom_site_fract_x
_atom_site_fract_y
_atom_site_fract_z
Si Si1 0.373141 0.835437 0.170599
Si Si2 0.555959 0.762994 0.667588
Si Si3 0.500000 0.066391 0.163873
Si Si4 0.901639 0.436142 0.673498
Si Si5 0.878112 0.843774 0.671363
Si Si6 0.803691 0.232715 0.826885
Si Si7 0.055868 0.065843 0.172481
O O1 0.425466 0.811217 0.222332
O O2 0.361034 0.893295 0.260175
O O3 0.333514 0.788846 0.211677
O O4 0.374214 0.850759 0.000000
O O5 0.565016 0.783403 0.500000
O O6 0.500000 0.752073 0.703669
O O7 0.582009 0.704089 0.698317
O O8 0.452436 0.084633 0.254972
O O9 0.500000 0.000000 0.147263
O O10 0.500000 0.094025 0.000000
O O11 0.906107 0.429968 0.500000
O O12 0.887628 0.500000 0.718430
O O13 0.867509 0.855727 0.500000
O O14 0.826894 0.822240 0.745525
O O15 0.901519 0.899860 0.742841
O O16 0.750000 0.250000 0.769060
O O17 0.803637 0.218622 0.000000
O O18 0.000000 0.081496 0.223662
O O19 0.065418 0.000000 0.204863
O O20 0.061223 0.079093 0.000000
#
# Coordination Sequence:
#
# PCOD8268186 Si02
#       7
#    16  16   8  16  16  16  16
#     4  10  20  32  49  73  96 121 159 206 249 290
#     4   9  18  31  45  64  96 134 164 194 238 294
#     4   9  17  29  45  65  89 121 163 203 230 259
#     4  10  20  33  48  66  93 130 164 194 236 289
#     4  10  19  31  50  77 105 133 168 211 259 307
#     4   9  19  37  58  77  98 127 165 209 259 314
#     4   9  18  32  50  74 107 148 187 217 249 297
#
# _framework density 17.772265000000001
#
# number of rings (size 3 to 8) (size 9 to 14) (size 15 to 20)
#    0.000    2.538    0.000    2.538    1.077    4.923 
#    0.000    0.769    0.000    0.923    0.000    2.154 
#    0.000    0.000    0.000    0.000    0.000    0.000 
#
# Total GULP energy -644537.224774 kJ/mol
# GULP energy per Si atom -12394.946630 kJ/mol
# Density = 1.773181 g / cm^3
# Si number density = 17.772265 Si / 1000 Ang^3
#
#
#
# Elastic Constant Matrix: (Units=GPa)
#
#
# Indices 1 2 3 4 5 6 
#
# 1 90.9356 41.9995 38.1900 0.0000 0.0000 0.0000
# 2 41.9995 97.1499 52.7271 0.0000 0.0000 0.0000
# 3 38.1900 52.7271 82.9405 0.0000 0.0000 0.0000
# 4 0.0000 0.0000 0.0000 33.4389 0.0000 0.0000
# 5 0.0000 0.0000 0.0000 0.0000 20.3080 0.0000
# 6 0.0000 0.0000 0.0000 0.0000 0.0000 22.7033
#
#
#
# Elastic Compliance Matrix: (Units=1/GPa)
#
#
# Indices 1 2 3 4 5 6 
#
# 1 0.014617 -0.004071 -0.004142 0.000000 0.000000 0.000000
# 2 -0.004071 0.016850 -0.008837 0.000000 0.000000 0.000000
# 3 -0.004142 -0.008837 0.019582 0.000000 0.000000 0.000000
# 4 0.000000 0.000000 0.000000 0.029905 0.000000 0.000000
# 5 0.000000 0.000000 0.000000 0.000000 0.049242 0.000000
# 6 0.000000 0.000000 0.000000 0.000000 0.000000 0.044046
#
#
# Mechanical properties :
#
#
# Convention : Reuss Voigt Hill
#
# Bulk Modulus (GPa) = 59.00528 59.65102 59.32815
# Shear Modulus (GPa) = 23.36541 24.49735 23.93138
#
# Velocity S-wave (km/s) = 3.62983 3.71671 3.67353
# Velocity P-wave (km/s) = 7.13024 7.21496 7.17273
#
# Compressibility (1/GPa) = 0.01694764
#
# Stress axis : x y z
#
# Youngs Moduli (GPa) = 68.41553 59.34868 51.06681
#
# Poissons Ratio (x) = 0.24160 0.21153
# Poissons Ratio (y) = 0.27850 0.45129
# Poissons Ratio (z) = 0.28340 0.52448
#
# Static dielectric constant tensor:
#      x y z
#    x 3.167990 0.000000 0.000000 
#    y 0.000000 3.372510 0.000000 
#    z 0.000000 0.000000 3.334710 
# 
# 
# High freq. dielectric constant tensor:
#      x y z
#    x 1.655610 0.000000 0.000000 
#    y 0.000000 1.690710 0.000000 
#    z 0.000000 0.000000 1.693010 
# 
# From -- ./inp_files/16796.got.cif
#   From: 2010.03.12/outbox.cif.g09.slc.cpg/sg65_9_cif.got.tgz:16796.got - 2010.04.10 20:52:16.
