data_PCOD8268934
_publ_section_title
;
Structure prediction by ZEFSAII (Michael W. Deem and Ramdas Pophale) SiO2 
 PCOD8268934
Probable space group: C M M M
;
_chemical_formula_sum "Si O2"
_cell_formula_units_Z 88
_cell_length_a 9.497207
_cell_length_b 30.783687
_cell_length_c 16.948215
_cell_angle_alpha 90.000000
_cell_angle_beta 90.000000
_cell_angle_gamma 90.000000
_cell_volume 4954.963997
_symmetry_space_group_name_H-M "C M M M"
_symmetry_group_IT_number 65
_symmetry_cell_setting 'orthorhombic'
loop_
_space_group_symop_operation_xyz
x,y,z
-x,-y,z
x,-y,-z
-x,y,-z
-x,-y,-z
x,y,-z
-x,y,z
x,-y,z
1/2+x,1/2+y,z
1/2-x,1/2-y,z
1/2+x,1/2-y,-z
1/2-x,1/2+y,-z
1/2-x,1/2-y,-z
1/2+x,1/2+y,-z
1/2-x,1/2+y,z
1/2+x,1/2-y,z
loop_
_atom_site_type_symbol
_atom_site_label
_atom_site_fract_x
_atom_site_fract_y
_atom_site_fract_z
Si Si1 0.837520 0.450813 0.331350
Si Si2 0.161632 0.877775 0.754191
Si Si3 0.660751 0.083417 0.500000
Si Si4 0.164777 0.791951 0.667449
Si Si5 0.836896 0.829635 0.500000
Si Si6 0.839332 0.081179 0.911299
Si Si7 0.342619 0.000000 0.906699
O O1 0.798945 0.500000 0.306029
O O2 0.744940 0.417558 0.282556
O O3 0.805814 0.445821 0.424114
O O4 0.000000 0.440784 0.313067
O O5 0.217505 0.831849 0.721957
O O6 0.178327 0.879059 0.849695
O O7 0.000000 0.883364 0.728125
O O8 0.500000 0.099462 0.500000
O O9 0.754661 0.125854 0.500000
O O10 0.250000 0.750000 0.695781
O O11 0.202929 0.801761 0.576725
O O12 0.000000 0.782847 0.679024
O O13 0.000000 0.842207 0.500000
O O14 0.000000 0.064083 0.911003
O O15 0.740142 0.042708 0.879275
O O16 0.797247 0.096507 0.000000
O O17 0.500000 0.000000 0.869570
O O18 0.350954 0.000000 0.000000
#
# Coordination Sequence:
#
# PCOD8268934 Si02
#       7
#    16  16   8  16   8  16   8
#     4  10  21  35  51  74 105 142 180 215 252 299
#     4  10  21  36  54  77 104 134 172 218 261 305
#     4  10  19  33  53  73 101 141 180 212 248 299
#     4  10  21  36  55  78 103 131 166 210 261 312
#     4  10  19  34  54  76 104 133 164 210 258 305
#     4   9  18  33  52  73 100 137 176 211 252 304
#     4   9  17  29  47  73 103 134 169 210 253 297
#
# _framework density 17.759967
#
# number of rings (size 3 to 8) (size 9 to 14) (size 15 to 20)
#    0.000    2.273    1.818    0.818    1.273    4.727 
#    0.000    0.000    0.000    2.182    0.000    0.000 
#    0.000    0.000    0.000    0.000    0.000    0.000 
#
# Total GULP energy -545561.115043 kJ/mol
# GULP energy per Si atom -12399.116251 kJ/mol
# Density = 1.771954 g / cm^3
# Si number density = 17.759967 Si / 1000 Ang^3
#
#
#
# Elastic Constant Matrix: (Units=GPa)
#
#
# Indices 1 2 3 4 5 6 
#
# 1 63.6415 56.1276 33.5976 0.0000 0.0000 0.0000
# 2 56.1276 136.1654 58.7460 0.0000 0.0000 0.0000
# 3 33.5976 58.7460 101.8535 0.0000 0.0000 0.0000
# 4 0.0000 0.0000 0.0000 26.0103 0.0000 0.0000
# 5 0.0000 0.0000 0.0000 0.0000 11.9574 0.0000
# 6 0.0000 0.0000 0.0000 0.0000 0.0000 32.1915
#
#
#
# Elastic Compliance Matrix: (Units=1/GPa)
#
#
# Indices 1 2 3 4 5 6 
#
# 1 0.025410 -0.009130 -0.003116 0.000000 0.000000 0.000000
# 2 -0.009130 0.013057 -0.004519 0.000000 0.000000 0.000000
# 3 -0.003116 -0.004519 0.013453 0.000000 0.000000 0.000000
# 4 0.000000 0.000000 0.000000 0.038446 0.000000 0.000000
# 5 0.000000 0.000000 0.000000 0.000000 0.083630 0.000000
# 6 0.000000 0.000000 0.000000 0.000000 0.000000 0.031064
#
#
# Mechanical properties :
#
#
# Convention : Reuss Voigt Hill
#
# Bulk Modulus (GPa) = 54.37951 66.51140 60.44546
# Shear Modulus (GPa) = 20.43153 24.24445 22.33799
#
# Velocity S-wave (km/s) = 3.39547 3.69876 3.55036
# Velocity P-wave (km/s) = 6.78660 7.46810 7.13549
#
# Compressibility (1/GPa) = 0.01838928
#
# Stress axis : x y z
#
# Youngs Moduli (GPa) = 39.35498 76.58696 74.33538
#
# Poissons Ratio (x) = 0.69921 0.23163
# Poissons Ratio (y) = 0.35929 0.33595
# Poissons Ratio (z) = 0.12263 0.34613
#
# Static dielectric constant tensor:
#      x y z
#    x 3.338200 0.000000 0.000000 
#    y 0.000000 3.155680 0.000000 
#    z 0.000000 0.000000 3.502660 
# 
# 
# High freq. dielectric constant tensor:
#      x y z
#    x 1.685490 0.000000 0.000000 
#    y 0.000000 1.665970 0.000000 
#    z 0.000000 0.000000 1.692670 
# 
# From -- ./inp_files/50489.got.cif
#   From: 2010.03.12/outbox.cif.g09.slc.cpg/sg65_26_cif.got.tgz:50489.got - 2010.04.10 20:52:16.
