data_PCOD8268406
_publ_section_title
;
Structure prediction by ZEFSAII (Michael W. Deem and Ramdas Pophale) SiO2 
 PCOD8268406
Probable space group: C M M M
;
_chemical_formula_sum "Si O2"
_cell_formula_units_Z 104
_cell_length_a 28.189565
_cell_length_b 9.041145
_cell_length_c 22.929738
_cell_angle_alpha 90.000000
_cell_angle_beta 90.000000
_cell_angle_gamma 90.000000
_cell_volume 5844.009336
_symmetry_space_group_name_H-M "C M M M"
_symmetry_group_IT_number 65
_symmetry_cell_setting 'orthorhombic'
loop_
_space_group_symop_operation_xyz
x,y,z
-x,-y,z
x,-y,-z
-x,y,-z
-x,-y,-z
x,y,-z
-x,y,z
x,-y,z
1/2+x,1/2+y,z
1/2-x,1/2-y,z
1/2+x,1/2-y,-z
1/2-x,1/2+y,-z
1/2-x,1/2-y,-z
1/2+x,1/2+y,-z
1/2-x,1/2+y,z
1/2+x,1/2-y,z
loop_
_atom_site_type_symbol
_atom_site_label
_atom_site_fract_x
_atom_site_fract_y
_atom_site_fract_z
Si Si1 0.357324 0.327949 0.102543
Si Si2 0.698658 0.823112 0.000000
Si Si3 0.701452 0.326688 0.565494
Si Si4 0.299206 0.329115 0.218721
Si Si5 0.554000 0.172116 0.144593
Si Si6 0.446690 0.171939 0.721543
Si Si7 0.359466 0.674338 0.672960
O O1 0.356274 0.500000 0.084193
O O2 0.333965 0.300573 0.165029
O O3 0.411564 0.271552 0.104922
O O4 0.329199 0.229538 0.056727
O O5 0.750000 0.750000 0.000000
O O6 0.703574 0.000000 0.000000
O O7 0.686196 0.279899 0.500000
O O8 0.710559 0.500000 0.569973
O O9 0.750000 0.250000 0.584381
O O10 0.660512 0.276566 0.610028
O O11 0.287458 0.500000 0.226978
O O12 0.250000 0.250000 0.206652
O O13 0.324514 0.264750 0.276550
O O14 0.500000 0.200687 0.124154
O O15 0.560094 0.221550 0.211625
O O16 0.567072 0.000000 0.137069
O O17 0.500000 0.208592 0.701017
O O18 0.411579 0.258736 0.679169
O O19 0.435844 0.000000 0.715589
O O20 0.364254 0.500000 0.678811
#
# Coordination Sequence:
#
# PCOD8268406 Si02
#       7
#    16   8  16  16  16  16  16
#     4  11  22  38  58  82 110 141 179 220 265 317
#     4  12  26  44  63  82 107 144 186 223 263 313
#     4   9  18  32  50  72 102 140 180 220 260 309
#     4  10  21  33  48  74 105 135 167 211 261 311
#     4   9  18  34  56  82 111 142 175 215 267 323
#     4   9  18  32  51  77 107 138 174 214 261 318
#     4  10  19  32  49  75 106 135 173 217 265 314
#
# _framework density 17.796002000000001
#
# number of rings (size 3 to 8) (size 9 to 14) (size 15 to 20)
#    0.000    2.154    1.538    3.000    0.000    4.308 
#    0.000    1.923    0.000    2.769    0.000    3.231 
#    0.000    0.000    0.000    0.000    0.000    0.000 
#
# Total GULP energy -644880.967878 kJ/mol
# GULP energy per Si atom -12401.557075 kJ/mol
# Density = 1.775550 g / cm^3
# Si number density = 17.796002 Si / 1000 Ang^3
#
#
#
# Elastic Constant Matrix: (Units=GPa)
#
#
# Indices 1 2 3 4 5 6 
#
# 1 129.3246 54.6323 50.4837 0.0000 0.0000 0.0000
# 2 54.6323 67.4196 42.3096 0.0000 0.0000 0.0000
# 3 50.4837 42.3096 84.9548 0.0000 0.0000 0.0000
# 4 0.0000 0.0000 0.0000 18.9389 0.0000 0.0000
# 5 0.0000 0.0000 0.0000 0.0000 32.2005 0.0000
# 6 0.0000 0.0000 0.0000 0.0000 0.0000 37.3936
#
#
#
# Elastic Compliance Matrix: (Units=1/GPa)
#
#
# Indices 1 2 3 4 5 6 
#
# 1 0.012413 -0.007898 -0.003443 0.000000 0.000000 0.000000
# 2 -0.007898 0.026601 -0.008555 0.000000 0.000000 0.000000
# 3 -0.003443 -0.008555 0.018077 0.000000 0.000000 0.000000
# 4 0.000000 0.000000 0.000000 0.052801 0.000000 0.000000
# 5 0.000000 0.000000 0.000000 0.000000 0.031055 0.000000
# 6 0.000000 0.000000 0.000000 0.000000 0.000000 0.026743
#
#
# Mechanical properties :
#
#
# Convention : Reuss Voigt Hill
#
# Bulk Modulus (GPa) = 57.80284 64.06113 60.93198
# Shear Modulus (GPa) = 23.44682 26.65814 25.05248
#
# Velocity S-wave (km/s) = 3.63372 3.87458 3.75608
# Velocity P-wave (km/s) = 7.08213 7.48947 7.28864
#
# Compressibility (1/GPa) = 0.01730019
#
# Stress axis : x y z
#
# Youngs Moduli (GPa) = 80.56127 37.59252 55.31794
#
# Poissons Ratio (x) = 0.29691 0.19045
# Poissons Ratio (y) = 0.63627 0.47323
# Poissons Ratio (z) = 0.27736 0.32159
#
# Static dielectric constant tensor:
#      x y z
#    x 3.321700 0.000000 0.000000 
#    y 0.000000 3.237000 0.000000 
#    z 0.000000 0.000000 3.334630 
# 
# 
# High freq. dielectric constant tensor:
#      x y z
#    x 1.693270 0.000000 0.000000 
#    y 0.000000 1.685660 0.000000 
#    z 0.000000 0.000000 1.675900 
# 
# From -- ./inp_files/60792.got.cif
#   From: 2010.03.12/outbox.cif.g09.slc.cpg/sg65_31_cif.got.tgz:60792.got - 2010.04.10 20:52:16.
