data_PCOD8268806
_publ_section_title
;
Structure prediction by ZEFSAII (Michael W. Deem and Ramdas Pophale) SiO2 
 PCOD8268806
Probable space group: C M M M
;
_chemical_formula_sum "Si O2"
_cell_formula_units_Z 88
_cell_length_a 18.337493
_cell_length_b 8.964268
_cell_length_c 28.434258
_cell_angle_alpha 90.000000
_cell_angle_beta 90.000000
_cell_angle_gamma 90.000000
_cell_volume 4674.085934
_symmetry_space_group_name_H-M "C M M M"
_symmetry_group_IT_number 65
_symmetry_cell_setting 'orthorhombic'
loop_
_space_group_symop_operation_xyz
x,y,z
-x,-y,z
x,-y,-z
-x,y,-z
-x,-y,-z
x,y,-z
-x,y,z
x,-y,z
1/2+x,1/2+y,z
1/2-x,1/2-y,z
1/2+x,1/2-y,-z
1/2-x,1/2+y,-z
1/2-x,1/2-y,-z
1/2+x,1/2+y,-z
1/2-x,1/2+y,z
1/2+x,1/2-y,z
loop_
_atom_site_type_symbol
_atom_site_label
_atom_site_fract_x
_atom_site_fract_y
_atom_site_fract_z
Si Si1 0.913999 0.168095 0.052430
Si Si2 0.673121 0.172735 0.130518
Si Si3 0.171684 0.324935 0.233639
Si Si4 0.671010 0.176345 0.500000
Si Si5 0.915094 0.827545 0.582321
Si Si6 0.671813 0.674391 0.675924
O O1 0.882260 0.279847 0.090411
O O2 0.000000 0.180988 0.054615
O O3 0.888882 0.000000 0.064229
O O4 0.886800 0.211938 0.000000
O O5 0.750000 0.250000 0.123107
O O6 0.637070 0.206997 0.182044
O O7 0.689099 0.000000 0.125592
O O8 0.177199 0.500000 0.243690
O O9 0.250000 0.250000 0.232823
O O10 0.131715 0.245247 0.277718
O O11 0.750000 0.250000 0.500000
O O12 0.626478 0.224024 0.454244
O O13 0.681291 0.000000 0.500000
O O14 0.882738 0.793968 0.633424
O O15 0.000000 0.785132 0.582379
O O16 0.903630 0.000000 0.568153
O O17 0.684738 0.500000 0.683947
O O18 0.750000 0.750000 0.665643
#
# Coordination Sequence:
#
# PCOD8268806 Si02
#       6
#    16  16  16   8  16  16
#     4   9  19  36  55  74  99 133 172 214 262 316
#     4  10  20  33  52  78 106 137 174 216 263 313
#     4   9  17  30  49  74 104 136 171 214 261 307
#     4  12  25  40  61  87 111 141 183 224 265 316
#     4  10  22  40  59  81 113 148 179 218 268 315
#     4  10  19  32  54  80 105 138 179 218 258 309
#
# _framework density 18.827210999999998
#
# number of rings (size 3 to 8) (size 9 to 14) (size 15 to 20)
#    0.000    2.182    0.000    4.909    0.000    7.636 
#    0.000    1.818    0.000    3.273    0.000    0.000 
#    0.000    0.000    0.000    0.000    0.000    0.000 
#
# Total GULP energy -545388.635967 kJ/mol
# GULP energy per Si atom -12395.196272 kJ/mol
# Density = 1.878436 g / cm^3
# Si number density = 18.827211 Si / 1000 Ang^3
#
#
#
# Elastic Constant Matrix: (Units=GPa)
#
#
# Indices 1 2 3 4 5 6 
#
# 1 78.0997 46.2944 58.2846 0.0000 0.0000 0.0000
# 2 46.2944 121.3649 80.2928 0.0000 0.0000 0.0000
# 3 58.2846 80.2928 162.5703 0.0000 0.0000 0.0000
# 4 0.0000 0.0000 0.0000 38.4698 0.0000 0.0000
# 5 0.0000 0.0000 0.0000 0.0000 -35.6619 0.0000
# 6 0.0000 0.0000 0.0000 0.0000 0.0000 26.6199
#
#
#
# Elastic Compliance Matrix: (Units=1/GPa)
#
#
# Indices 1 2 3 4 5 6 
#
# 1 0.018708 -0.004009 -0.004727 0.000000 0.000000 0.000000
# 2 -0.004009 0.013098 -0.005032 0.000000 0.000000 0.000000
# 3 -0.004727 -0.005032 0.010331 0.000000 0.000000 0.000000
# 4 0.000000 0.000000 0.000000 0.025994 0.000000 0.000000
# 5 0.000000 0.000000 0.000000 0.000000 -0.028041 0.000000
# 6 0.000000 0.000000 0.000000 0.000000 0.000000 0.037566
#
#
# Mechanical properties :
#
#
# Convention : Reuss Voigt Hill
#
# Bulk Modulus (GPa) = 68.48579 81.30872 74.89726
# Shear Modulus (GPa) = 45.43022 17.69644 31.56333
#
# Velocity S-wave (km/s) = 4.91757 3.06917 4.09892
# Velocity P-wave (km/s) = 8.28844 7.47264 7.89109
#
# Compressibility (1/GPa) = 0.01460157
#
# Stress axis : x y z
#
# Youngs Moduli (GPa) = 53.45206 76.35016 96.79450
#
# Poissons Ratio (x) = 0.30606 0.45759
# Poissons Ratio (y) = 0.21427 0.48703
# Poissons Ratio (z) = 0.25269 0.38417
#
# Static dielectric constant tensor:
#      x y z
#    x 3.147900 0.000000 0.000000 
#    y 0.000000 3.879090 0.000000 
#    z 0.000000 0.000000 4.168270 
# 
# 
# High freq. dielectric constant tensor:
#      x y z
#    x 1.699050 0.000000 0.000000 
#    y 0.000000 1.739730 0.000000 
#    z 0.000000 0.000000 1.756570 
# 
# From -- ./inp_files/77921.got.cif
#   From: 2010.03.12/outbox.cif.g09.slc.cpg/sg65_39_cif.got.tgz:77921.got - 2010.04.10 20:52:16.
