data_PCOD8268369
_publ_section_title
;
Structure prediction by ZEFSAII (Michael W. Deem and Ramdas Pophale) SiO2 
 PCOD8268369
Probable space group: C M M M
;
_chemical_formula_sum "Si O2"
_cell_formula_units_Z 120
_cell_length_a 8.125821
_cell_length_b 29.043502
_cell_length_c 29.798773
_cell_angle_alpha 90.000000
_cell_angle_beta 90.000000
_cell_angle_gamma 90.000000
_cell_volume 7032.578919
_symmetry_space_group_name_H-M "C M M M"
_symmetry_group_IT_number 65
_symmetry_cell_setting 'orthorhombic'
loop_
_space_group_symop_operation_xyz
x,y,z
-x,-y,z
x,-y,-z
-x,y,-z
-x,-y,-z
x,y,-z
-x,y,z
x,-y,z
1/2+x,1/2+y,z
1/2-x,1/2-y,z
1/2+x,1/2-y,-z
1/2-x,1/2+y,-z
1/2-x,1/2-y,-z
1/2+x,1/2+y,-z
1/2-x,1/2+y,z
1/2+x,1/2-y,z
loop_
_atom_site_type_symbol
_atom_site_label
_atom_site_fract_x
_atom_site_fract_y
_atom_site_fract_z
Si Si1 0.000000 0.554890 0.551029
Si Si2 0.682654 0.554727 0.604281
Si Si3 0.695290 0.947703 0.865547
Si Si4 0.305724 0.798900 0.191812
Si Si5 0.195861 0.608019 0.049495
Si Si6 0.187616 0.106132 0.220348
Si Si7 0.693965 0.201639 0.090146
Si Si8 0.312196 0.948310 0.697797
O O1 0.832099 0.574689 0.573914
O O2 0.000000 0.500000 0.553927
O O3 0.000000 0.572256 0.500000
O O4 0.500000 0.571643 0.588119
O O5 0.691286 0.500000 0.602001
O O6 0.706071 0.570467 0.655948
O O7 0.500000 0.944444 0.861750
O O8 0.756813 0.929065 0.913903
O O9 0.771432 0.915922 0.827496
O O10 0.757099 0.000000 0.860092
O O11 0.500000 0.804900 0.194183
O O12 0.250000 0.750000 0.212759
O O13 0.222150 0.839494 0.219992
O O14 0.238222 0.801950 0.140879
O O15 0.264882 0.658813 0.061816
O O16 0.000000 0.609243 0.049264
O O17 0.262364 0.594305 0.000000
O O18 0.296601 0.083714 0.259024
O O19 0.000000 0.096583 0.232470
O O20 0.500000 0.199366 0.090895
O O21 0.750000 0.250000 0.068125
O O22 0.500000 0.948452 0.681493
O O23 0.256733 0.000000 0.711294
#
# Coordination Sequence:
#
# PCOD8268369 Si02
#       8
#     8  16  16  16  16  16  16  16
#     4   9  16  26  40  60  88 126 174 222 265 307
#     4   9  16  27  42  61  89 125 167 217 265 307
#     4  10  20  35  52  69  91 119 152 194 241 283
#     4  10  19  34  53  73  97 122 150 186 229 277
#     4   9  17  31  50  71  93 116 145 184 230 281
#     4  12  23  33  49  73  97 123 158 196 236 288
#     4   9  17  30  49  70  93 116 140 174 221 272
#     4  10  19  32  49  68  94 129 166 209 260 304
#
# _framework density 17.063442999999999
#
# number of rings (size 3 to 8) (size 9 to 14) (size 15 to 20)
#    0.000    2.200    2.000    2.400    0.000    4.000 
#    0.000    2.667    0.000    1.200    0.000    0.933 
#    0.000    0.000    0.000    0.000    0.000    0.667 
#
# Total GULP energy -743843.050964 kJ/mol
# GULP energy per Si atom -12397.384183 kJ/mol
# Density = 1.702461 g / cm^3
# Si number density = 17.063443 Si / 1000 Ang^3
#
#
#
# Elastic Constant Matrix: (Units=GPa)
#
#
# Indices 1 2 3 4 5 6 
#
# 1 66.5367 14.3601 31.5457 0.0000 0.0000 0.0000
# 2 14.3601 88.4410 30.7498 0.0000 0.0000 0.0000
# 3 31.5457 30.7498 91.5636 0.0000 0.0000 0.0000
# 4 0.0000 0.0000 0.0000 3.3515 0.0000 0.0000
# 5 0.0000 0.0000 0.0000 0.0000 12.8883 0.0000
# 6 0.0000 0.0000 0.0000 0.0000 0.0000 18.9503
#
#
#
# Elastic Compliance Matrix: (Units=1/GPa)
#
#
# Indices 1 2 3 4 5 6 
#
# 1 0.018022 -0.000869 -0.005917 0.000000 0.000000 0.000000
# 2 -0.000869 0.012844 -0.004014 0.000000 0.000000 0.000000
# 3 -0.005917 -0.004014 0.014308 0.000000 0.000000 0.000000
# 4 0.000000 0.000000 0.000000 0.298378 0.000000 0.000000
# 5 0.000000 0.000000 0.000000 0.000000 0.077590 0.000000
# 6 0.000000 0.000000 0.000000 0.000000 0.000000 0.052770
#
#
# Mechanical properties :
#
#
# Convention : Reuss Voigt Hill
#
# Bulk Modulus (GPa) = 42.42013 44.42805 43.42409
# Shear Modulus (GPa) = 9.93305 18.36371 14.14838
#
# Velocity S-wave (km/s) = 2.41534 3.28411 2.88264
# Velocity P-wave (km/s) = 5.71775 6.36192 6.04842
#
# Compressibility (1/GPa) = 0.02357372
#
# Stress axis : x y z
#
# Youngs Moduli (GPa) = 55.48695 77.85950 69.89092
#
# Poissons Ratio (x) = 0.06765 0.41356
# Poissons Ratio (y) = 0.04821 0.28054
# Poissons Ratio (z) = 0.32833 0.31252
#
# Static dielectric constant tensor:
#      x y z
#    x 3.211230 0.000000 0.000000 
#    y 0.000000 3.112840 0.000000 
#    z 0.000000 0.000000 3.086690 
# 
# 
# High freq. dielectric constant tensor:
#      x y z
#    x 1.658130 0.000000 0.000000 
#    y 0.000000 1.626430 0.000000 
#    z 0.000000 0.000000 1.634800 
# 
# From -- ./inp_files/73898.got.cif
#   From: 2010.03.12/outbox.cif.g09.slc.cpg/sg65_37_cif.got.tgz:73898.got - 2010.04.10 20:52:16.
