data_PCOD8268956
_publ_section_title
;
Structure prediction by ZEFSAII (Michael W. Deem and Ramdas Pophale) SiO2 
 PCOD8268956
Probable space group: C M M M
;
_chemical_formula_sum "Si O2"
_cell_formula_units_Z 80
_cell_length_a 7.979483
_cell_length_b 18.213695
_cell_length_c 27.489871
_cell_angle_alpha 90.000000
_cell_angle_beta 90.000000
_cell_angle_gamma 90.000000
_cell_volume 3995.264308
_symmetry_space_group_name_H-M "C M M M"
_symmetry_group_IT_number 65
_symmetry_cell_setting 'orthorhombic'
loop_
_space_group_symop_operation_xyz
x,y,z
-x,-y,z
x,-y,-z
-x,y,-z
-x,-y,-z
x,y,-z
-x,y,z
x,-y,z
1/2+x,1/2+y,z
1/2-x,1/2-y,z
1/2+x,1/2-y,-z
1/2-x,1/2+y,-z
1/2-x,1/2-y,-z
1/2+x,1/2+y,-z
1/2-x,1/2+y,z
1/2+x,1/2-y,z
loop_
_atom_site_type_symbol
_atom_site_label
_atom_site_fract_x
_atom_site_fract_y
_atom_site_fract_z
Si Si1 0.302706 0.667038 0.810835
Si Si2 0.300385 0.582807 0.905731
Si Si3 0.315019 0.587211 0.615395
Si Si4 0.000000 0.412302 0.555110
Si Si5 0.198001 0.833752 0.000000
Si Si6 0.692771 0.917740 0.282010
O O1 0.500000 0.659081 0.805325
O O2 0.250000 0.750000 0.819282
O O3 0.234291 0.621310 0.856803
O O4 0.217326 0.636706 0.762566
O O5 0.500000 0.583338 0.906756
O O6 0.230875 0.500000 0.907229
O O7 0.227917 0.626547 0.952185
O O8 0.500000 0.613386 0.597433
O O9 0.302558 0.500000 0.614085
O O10 0.167947 0.619413 0.581078
O O11 0.291866 0.613080 0.671189
O O12 0.000000 0.500000 0.556843
O O13 0.000000 0.383395 0.500000
O O14 0.250000 0.750000 0.000000
O O15 0.000000 0.840703 0.000000
O O16 0.500000 0.920037 0.297344
O O17 0.754808 0.000000 0.267815
#
# Coordination Sequence:
#
# PCOD8268956 Si02
#       6
#    16  16  16   8   8  16
#     4  11  22  35  51  74 105 138 172 220 273 331
#     4   9  18  33  54  78 102 133 179 225 267 324
#     4   9  16  27  44  67  97 137 181 223 272 328
#     4   9  16  26  40  64 102 142 180 225 274 326
#     4  10  19  33  55  79 105 138 174 220 274 328
#     4  10  19  33  53  75 101 136 177 222 272 330
#
# _framework density 20.023706000000001
#
# number of rings (size 3 to 8) (size 9 to 14) (size 15 to 20)
#    0.000    2.300    1.000    2.700    0.000    3.600 
#    0.000    3.000    0.000    3.600    0.000    0.000 
#    0.000    0.800    0.400    0.000    0.000    0.000 
#
# Total GULP energy -495971.690404 kJ/mol
# GULP energy per Si atom -12399.292260 kJ/mol
# Density = 1.997813 g / cm^3
# Si number density = 20.023706 Si / 1000 Ang^3
#
#
#
# Elastic Constant Matrix: (Units=GPa)
#
#
# Indices 1 2 3 4 5 6 
#
# 1 92.0541 13.9854 52.8537 0.0000 0.0000 0.0000
# 2 13.9854 105.1214 54.4210 0.0000 0.0000 0.0000
# 3 52.8537 54.4210 162.5258 0.0000 0.0000 0.0000
# 4 0.0000 0.0000 0.0000 9.7519 0.0000 0.0000
# 5 0.0000 0.0000 0.0000 0.0000 21.3351 0.0000
# 6 0.0000 0.0000 0.0000 0.0000 0.0000 19.4326
#
#
#
# Elastic Compliance Matrix: (Units=1/GPa)
#
#
# Indices 1 2 3 4 5 6 
#
# 1 0.013386 0.000572 -0.004544 0.000000 0.000000 0.000000
# 2 0.000572 0.011532 -0.004047 0.000000 0.000000 0.000000
# 3 -0.004544 -0.004047 0.008986 0.000000 0.000000 0.000000
# 4 0.000000 0.000000 0.000000 0.102544 0.000000 0.000000
# 5 0.000000 0.000000 0.000000 0.000000 0.046871 0.000000
# 6 0.000000 0.000000 0.000000 0.000000 0.000000 0.051460
#
#
# Mechanical properties :
#
#
# Convention : Reuss Voigt Hill
#
# Bulk Modulus (GPa) = 55.98009 66.91350 61.44680
# Shear Modulus (GPa) = 19.47245 26.00000 22.73623
#
# Velocity S-wave (km/s) = 3.12183 3.60733 3.37332
# Velocity P-wave (km/s) = 6.40406 7.13022 6.77688
#
# Compressibility (1/GPa) = 0.01786350
#
# Stress axis : x y z
#
# Youngs Moduli (GPa) = 74.70743 86.71471 111.28419
#
# Poissons Ratio (x) = -0.04959 0.50573
# Poissons Ratio (y) = -0.04272 0.45041
# Poissons Ratio (z) = 0.33951 0.35097
#
# Static dielectric constant tensor:
#      x y z
#    x 3.634630 0.000000 0.000000 
#    y 0.000000 3.272730 0.000000 
#    z 0.000000 0.000000 3.766630 
# 
# 
# High freq. dielectric constant tensor:
#      x y z
#    x 1.776070 0.000000 0.000000 
#    y 0.000000 1.742980 0.000000 
#    z 0.000000 0.000000 1.788970 
# 
# From -- ./inp_files/67346.got.cif
#   From: 2010.03.12/outbox.cif.g09.slc.cpg/sg65_34_cif.got.tgz:67346.got - 2010.04.10 20:52:16.
