data_PCOD8268863
_publ_section_title
;
Structure prediction by ZEFSAII (Michael W. Deem and Ramdas Pophale) SiO2 
 PCOD8268863
Probable space group: C M M M
;
_chemical_formula_sum "Si O2"
_cell_formula_units_Z 104
_cell_length_a 20.184228
_cell_length_b 27.744967
_cell_length_c 9.866885
_cell_angle_alpha 90.000000
_cell_angle_beta 90.000000
_cell_angle_gamma 90.000000
_cell_volume 5525.561568
_symmetry_space_group_name_H-M "C M M M"
_symmetry_group_IT_number 65
_symmetry_cell_setting 'orthorhombic'
loop_
_space_group_symop_operation_xyz
x,y,z
-x,-y,z
x,-y,-z
-x,y,-z
-x,-y,-z
x,y,-z
-x,y,z
x,-y,z
1/2+x,1/2+y,z
1/2-x,1/2-y,z
1/2+x,1/2-y,-z
1/2-x,1/2+y,-z
1/2-x,1/2-y,-z
1/2+x,1/2+y,-z
1/2-x,1/2+y,z
1/2+x,1/2-y,z
loop_
_atom_site_type_symbol
_atom_site_label
_atom_site_fract_x
_atom_site_fract_y
_atom_site_fract_z
Si Si1 0.186391 0.053451 0.349513
Si Si2 0.423464 0.613039 0.745797
Si Si3 0.693705 0.113921 0.661469
Si Si4 0.427270 0.946204 0.338797
Si Si5 0.818503 0.276901 0.340981
Si Si6 0.577176 0.720996 0.839937
Si Si7 0.921425 0.053198 0.000000
O O1 0.211640 0.043157 0.500000
O O2 0.122234 0.088707 0.367830
O O3 0.244802 0.083728 0.274980
O O4 0.173035 0.000000 0.282693
O O5 0.500000 0.603901 0.709848
O O6 0.410093 0.668734 0.774580
O O7 0.396508 0.582343 0.871932
O O8 0.696180 0.112598 0.500000
O O9 0.626554 0.090516 0.720309
O O10 0.695096 0.169007 0.708751
O O11 0.425870 0.945562 0.500000
O O12 0.500000 0.930175 0.287007
O O13 0.410846 0.000000 0.287054
O O14 0.839462 0.273111 0.500000
O O15 0.750000 0.250000 0.313876
O O16 0.877422 0.257009 0.246248
O O17 0.500000 0.735268 0.822183
O O18 0.595720 0.720999 0.000000
O O19 0.000000 0.051745 0.000000
O O20 0.890591 0.000000 0.000000
#
# Coordination Sequence:
#
# PCOD8268863 Si02
#       7
#    16  16  16  16  16  16   8
#     4  10  20  32  48  73 106 142 174 207 256 317
#     4  10  19  33  51  71  98 133 171 214 260 305
#     4   9  17  30  47  67  98 136 168 204 253 310
#     4   8  13  22  39  64  92 121 154 193 239 295
#     4  10  21  36  54  78 108 142 181 225 272 323
#     4  10  21  38  58  80 107 140 183 231 278 328
#     4   9  16  28  48  70  89 116 159 207 253 296
#
# _framework density 18.821615999999999
#
# number of rings (size 3 to 8) (size 9 to 14) (size 15 to 20)
#    0.000    2.538    0.769    2.308    0.000    6.154 
#    0.000    3.846    0.000    0.000    0.000    0.000 
#    0.000    0.000    0.000    5.385    0.000    4.000 
#
# Total GULP energy -644243.443204 kJ/mol
# GULP energy per Si atom -12389.296985 kJ/mol
# Density = 1.877878 g / cm^3
# Si number density = 18.821616 Si / 1000 Ang^3
#
#
#
# Elastic Constant Matrix: (Units=GPa)
#
#
# Indices 1 2 3 4 5 6 
#
# 1 132.0959 86.6997 26.2465 0.0000 0.0000 0.0000
# 2 86.6997 149.1367 27.2799 0.0000 0.0000 0.0000
# 3 26.2465 27.2799 38.3782 0.0000 0.0000 0.0000
# 4 0.0000 0.0000 0.0000 16.0594 0.0000 0.0000
# 5 0.0000 0.0000 0.0000 0.0000 3.0185 0.0000
# 6 0.0000 0.0000 0.0000 0.0000 0.0000 40.1459
#
#
#
# Elastic Compliance Matrix: (Units=1/GPa)
#
#
# Indices 1 2 3 4 5 6 
#
# 1 0.012745 -0.006684 -0.003965 0.000000 0.000000 0.000000
# 2 -0.006684 0.011213 -0.003399 0.000000 0.000000 0.000000
# 3 -0.003965 -0.003399 0.031184 0.000000 0.000000 0.000000
# 4 0.000000 0.000000 0.000000 0.062269 0.000000 0.000000
# 5 0.000000 0.000000 0.000000 0.000000 0.331288 0.000000
# 6 0.000000 0.000000 0.000000 0.000000 0.000000 0.024909
#
#
# Mechanical properties :
#
#
# Convention : Reuss Voigt Hill
#
# Bulk Modulus (GPa) = 36.97446 66.67365 51.82405
# Shear Modulus (GPa) = 9.79011 23.80375 16.79693
#
# Velocity S-wave (km/s) = 2.28316 3.56012 2.99059
# Velocity P-wave (km/s) = 5.16118 7.23880 6.28641
#
# Compressibility (1/GPa) = 0.02704569
#
# Stress axis : x y z
#
# Youngs Moduli (GPa) = 78.46188 89.18469 32.06741
#
# Poissons Ratio (x) = 0.59611 0.12715
# Poissons Ratio (y) = 0.52444 0.10900
# Poissons Ratio (z) = 0.31111 0.30315
#
# Static dielectric constant tensor:
#      x y z
#    x 3.524450 0.000000 0.000000 
#    y 0.000000 3.705750 0.000000 
#    z 0.000000 0.000000 3.701230 
# 
# 
# High freq. dielectric constant tensor:
#      x y z
#    x 1.735300 0.000000 0.000000 
#    y 0.000000 1.744300 0.000000 
#    z 0.000000 0.000000 1.678630 
# 
# From -- ./inp_files/27499.got.cif
#   From: 2010.03.12/outbox.cif.g09.slc.cpg/sg65_14_cif.got.tgz:27499.got - 2010.04.10 20:52:16.
