data_PCOD8268124
_publ_section_title
;
Structure prediction by ZEFSAII (Michael W. Deem and Ramdas Pophale) SiO2 
 PCOD8268124
Probable space group: C M M M
;
_chemical_formula_sum "Si O2"
_cell_formula_units_Z 72
_cell_length_a 18.068431
_cell_length_b 8.838147
_cell_length_c 23.464404
_cell_angle_alpha 90.000000
_cell_angle_beta 90.000000
_cell_angle_gamma 90.000000
_cell_volume 3747.064680
_symmetry_space_group_name_H-M "C M M M"
_symmetry_group_IT_number 65
_symmetry_cell_setting 'orthorhombic'
loop_
_space_group_symop_operation_xyz
x,y,z
-x,-y,z
x,-y,-z
-x,y,-z
-x,-y,-z
x,y,-z
-x,y,z
x,-y,z
1/2+x,1/2+y,z
1/2-x,1/2-y,z
1/2+x,1/2-y,-z
1/2-x,1/2+y,-z
1/2-x,1/2-y,-z
1/2+x,1/2+y,-z
1/2-x,1/2+y,z
1/2+x,1/2-y,z
loop_
_atom_site_type_symbol
_atom_site_label
_atom_site_fract_x
_atom_site_fract_y
_atom_site_fract_z
Si Si1 0.086220 0.174890 0.787122
Si Si2 0.169844 0.321617 0.889461
Si Si3 0.669811 0.322514 0.672942
Si Si4 0.916760 0.319985 0.000000
Si Si5 0.669643 0.822678 0.438270
O O1 0.125490 0.279109 0.833168
O O2 0.117329 0.218696 0.725413
O O3 0.000000 0.211970 0.787656
O O4 0.102336 0.000000 0.801402
O O5 0.178897 0.500000 0.892396
O O6 0.250000 0.250000 0.888281
O O7 0.125560 0.259206 0.944263
O O8 0.679853 0.500000 0.665382
O O9 0.750000 0.250000 0.683493
O O10 0.629559 0.255163 0.615906
O O11 0.919467 0.500000 0.000000
O O12 0.000000 0.253712 0.000000
O O13 0.630045 0.792753 0.500000
O O14 0.750000 0.750000 0.440622
O O15 0.676576 0.000000 0.426758
#
# Coordination Sequence:
#
# PCOD8268124 Si02
#       5
#    16  16  16   8  16
#     4  10  22  39  56  77 107 140 177 223 271 319
#     4  11  22  37  59  84 111 144 181 221 266 314
#     4  10  19  31  50  74 101 134 170 212 261 312
#     4   9  19  36  57  83 114 145 180 221 262 310
#     4   9  16  26  43  69 100 131 165 209 258 307
#
# _framework density 19.215042
#
# number of rings (size 3 to 8) (size 9 to 14) (size 15 to 20)
#    0.000    2.111    0.000    5.000    0.000    6.222 
#    0.000    1.667    0.000    4.667    0.000    4.667 
#    0.000    0.000    0.000    0.000    0.000    0.000 
#
# Total GULP energy -446283.332568 kJ/mol
# GULP energy per Si atom -12396.759238 kJ/mol
# Density = 1.917131 g / cm^3
# Si number density = 19.215042 Si / 1000 Ang^3
#
#
#
# Elastic Constant Matrix: (Units=GPa)
#
#
# Indices 1 2 3 4 5 6 
#
# 1 105.9862 37.4605 70.2097 0.0000 0.0000 0.0000
# 2 37.4605 86.3755 64.0306 0.0000 0.0000 0.0000
# 3 70.2097 64.0306 183.7065 0.0000 0.0000 0.0000
# 4 0.0000 0.0000 0.0000 56.8278 0.0000 0.0000
# 5 0.0000 0.0000 0.0000 0.0000 2.1587 0.0000
# 6 0.0000 0.0000 0.0000 0.0000 0.0000 0.2674
#
#
#
# Elastic Compliance Matrix: (Units=1/GPa)
#
#
# Indices 1 2 3 4 5 6 
#
# 1 0.013069 -0.002650 -0.004071 0.000000 0.000000 0.000000
# 2 -0.002650 0.016148 -0.004616 0.000000 0.000000 0.000000
# 3 -0.004071 -0.004616 0.008608 0.000000 0.000000 0.000000
# 4 0.000000 0.000000 0.000000 0.017597 0.000000 0.000000
# 5 0.000000 0.000000 0.000000 0.000000 0.463249 0.000000
# 6 0.000000 0.000000 0.000000 0.000000 0.000000 3.739544
#
#
# Mechanical properties :
#
#
# Convention : Reuss Voigt Hill
#
# Bulk Modulus (GPa) = 65.99888 79.94110 72.96999
# Shear Modulus (GPa) = 1.16661 25.47526 13.32093
#
# Velocity S-wave (km/s) = 0.78003 3.64510 2.63583
# Velocity P-wave (km/s) = 5.93577 7.70775 6.87905
#
# Compressibility (1/GPa) = 0.01515177
#
# Stress axis : x y z
#
# Youngs Moduli (GPa) = 76.51937 61.92616 116.16930
#
# Poissons Ratio (x) = 0.16410 0.47292
# Poissons Ratio (y) = 0.20277 0.53620
# Poissons Ratio (z) = 0.31151 0.28583
#
# Static dielectric constant tensor:
#      x y z
#    x 3.295330 0.000000 0.000000 
#    y 0.000000 3.495400 0.000000 
#    z 0.000000 0.000000 4.305420 
# 
# 
# High freq. dielectric constant tensor:
#      x y z
#    x 1.717590 0.000000 0.000000 
#    y 0.000000 1.746610 0.000000 
#    z 0.000000 0.000000 1.776250 
# 
# From -- ./inp_files/66981.got.cif
#   From: 2010.03.12/outbox.cif.g09.slc.cpg/sg65_34_cif.got.tgz:66981.got - 2010.04.10 20:52:16.
