data_PCOD8268972
_publ_section_title
;
Structure prediction by ZEFSAII (Michael W. Deem and Ramdas Pophale) SiO2 
 PCOD8268972
Probable space group: C M M M
;
_chemical_formula_sum "Si O2"
_cell_formula_units_Z 88
_cell_length_a 8.959962
_cell_length_b 19.023135
_cell_length_c 28.239251
_cell_angle_alpha 90.000000
_cell_angle_beta 90.000000
_cell_angle_gamma 90.000000
_cell_volume 4813.283380
_symmetry_space_group_name_H-M "C M M M"
_symmetry_group_IT_number 65
_symmetry_cell_setting 'orthorhombic'
loop_
_space_group_symop_operation_xyz
x,y,z
-x,-y,z
x,-y,-z
-x,y,-z
-x,-y,-z
x,y,-z
-x,y,z
x,-y,z
1/2+x,1/2+y,z
1/2-x,1/2-y,z
1/2+x,1/2-y,-z
1/2-x,1/2+y,-z
1/2-x,1/2-y,-z
1/2+x,1/2+y,-z
1/2-x,1/2+y,z
1/2+x,1/2-y,z
loop_
_atom_site_type_symbol
_atom_site_label
_atom_site_fract_x
_atom_site_fract_y
_atom_site_fract_z
Si Si1 0.168569 0.083608 0.722872
Si Si2 0.329191 0.322678 0.000000
Si Si3 0.674329 0.322094 0.445122
Si Si4 0.175954 0.826368 0.897242
Si Si5 0.172857 0.582841 0.817729
Si Si6 0.671056 0.916771 0.628647
O O1 0.254818 0.111131 0.769138
O O2 0.252793 0.112379 0.676499
O O3 0.000000 0.112968 0.723344
O O4 0.169232 0.000000 0.722300
O O5 0.250000 0.250000 0.000000
O O6 0.290832 0.360370 0.949866
O O7 0.500000 0.302615 0.000000
O O8 0.707963 0.336678 0.500000
O O9 0.500000 0.317041 0.434517
O O10 0.750000 0.250000 0.428255
O O11 0.744504 0.386274 0.416574
O O12 0.250000 0.750000 0.891493
O O13 0.245947 0.880719 0.861125
O O14 0.000000 0.819098 0.887688
O O15 0.196698 0.500000 0.823183
O O16 0.000000 0.603449 0.817304
O O17 0.500000 0.892236 0.628583
O O18 0.685173 0.000000 0.625461
#
# Coordination Sequence:
#
# PCOD8268972 Si02
#       6
#    16   8  16  16  16  16
#     4   9  17  31  52  76 102 134 171 209 252 303
#     4   8  16  30  49  72  97 129 167 207 251 302
#     4  10  21  37  56  77 104 139 176 213 256 307
#     4  10  19  33  53  76 102 132 169 211 256 304
#     4  10  20  34  52  75 104 137 172 209 252 303
#     4  10  20  34  54  80 108 137 171 212 255 300
#
# _framework density 18.282738999999999
#
# number of rings (size 3 to 8) (size 9 to 14) (size 15 to 20)
#    0.000    2.364    0.000    2.727    0.000    6.545 
#    0.000    3.182    0.000    2.727    0.000    0.000 
#    0.000    0.000    0.000    0.000    0.000    0.000 
#
# Total GULP energy -545467.730781 kJ/mol
# GULP energy per Si atom -12396.993881 kJ/mol
# Density = 1.824113 g / cm^3
# Si number density = 18.282739 Si / 1000 Ang^3
#
#
#
# Elastic Constant Matrix: (Units=GPa)
#
#
# Indices 1 2 3 4 5 6 
#
# 1 143.8594 37.8397 83.5692 0.0000 0.0000 0.0000
# 2 37.8397 31.5850 41.8204 0.0000 0.0000 0.0000
# 3 83.5692 41.8204 145.3499 0.0000 0.0000 0.0000
# 4 0.0000 0.0000 0.0000 9.3945 0.0000 0.0000
# 5 0.0000 0.0000 0.0000 0.0000 35.0127 0.0000
# 6 0.0000 0.0000 0.0000 0.0000 0.0000 29.7250
#
#
#
# Elastic Compliance Matrix: (Units=1/GPa)
#
#
# Indices 1 2 3 4 5 6 
#
# 1 0.011617 -0.008197 -0.004321 0.000000 0.000000 0.000000
# 2 -0.008197 0.056928 -0.011667 0.000000 0.000000 0.000000
# 3 -0.004321 -0.011667 0.012721 0.000000 0.000000 0.000000
# 4 0.000000 0.000000 0.000000 0.106445 0.000000 0.000000
# 5 0.000000 0.000000 0.000000 0.000000 0.028561 0.000000
# 6 0.000000 0.000000 0.000000 0.000000 0.000000 0.033642
#
#
# Mechanical properties :
#
#
# Convention : Reuss Voigt Hill
#
# Bulk Modulus (GPa) = 30.39744 71.91698 51.15721
# Shear Modulus (GPa) = 16.16823 25.33078 20.74950
#
# Velocity S-wave (km/s) = 2.97702 3.72627 3.37252
# Velocity P-wave (km/s) = 5.33660 7.61150 6.57321
#
# Compressibility (1/GPa) = 0.03289751
#
# Stress axis : x y z
#
# Youngs Moduli (GPa) = 86.07812 17.56611 78.60915
#
# Poissons Ratio (x) = 0.14398 0.33968
# Poissons Ratio (y) = 0.70554 0.91712
# Poissons Ratio (z) = 0.37195 0.20494
#
# Static dielectric constant tensor:
#      x y z
#    x 3.613490 0.000000 0.000000 
#    y 0.000000 2.953680 0.000000 
#    z 0.000000 0.000000 4.061760 
# 
# 
# High freq. dielectric constant tensor:
#      x y z
#    x 1.729980 0.000000 0.000000 
#    y 0.000000 1.667080 0.000000 
#    z 0.000000 0.000000 1.727370 
# 
# From -- ./inp_files/67556.got.cif
#   From: 2010.03.12/outbox.cif.g09.slc.cpg/sg65_34_cif.got.tgz:67556.got - 2010.04.10 20:52:16.
