data_PCOD8268569
_publ_section_title
;
Structure prediction by ZEFSAII (Michael W. Deem and Ramdas Pophale) SiO2 
 PCOD8268569
Probable space group: C M M M
;
_chemical_formula_sum "Si O2"
_cell_formula_units_Z 88
_cell_length_a 8.718839
_cell_length_b 24.879567
_cell_length_c 21.950909
_cell_angle_alpha 90.000000
_cell_angle_beta 90.000000
_cell_angle_gamma 90.000000
_cell_volume 4761.611794
_symmetry_space_group_name_H-M "C M M M"
_symmetry_group_IT_number 65
_symmetry_cell_setting 'orthorhombic'
loop_
_space_group_symop_operation_xyz
x,y,z
-x,-y,z
x,-y,-z
-x,y,-z
-x,-y,-z
x,y,-z
-x,y,z
x,-y,z
1/2+x,1/2+y,z
1/2-x,1/2-y,z
1/2+x,1/2-y,-z
1/2-x,1/2+y,-z
1/2-x,1/2-y,-z
1/2+x,1/2+y,-z
1/2-x,1/2+y,z
1/2+x,1/2-y,z
loop_
_atom_site_type_symbol
_atom_site_label
_atom_site_fract_x
_atom_site_fract_y
_atom_site_fract_z
Si Si1 0.319871 0.195093 0.789142
Si Si2 0.320516 0.081715 0.833284
Si Si3 0.317848 0.500000 0.604502
Si Si4 0.181544 0.500000 0.067373
Si Si5 0.179883 0.000000 0.744627
Si Si6 0.681021 0.694526 0.657550
Si Si7 0.824190 0.390099 0.569140
O O1 0.500000 0.203014 0.781038
O O2 0.250000 0.250000 0.817129
O O3 0.281138 0.145240 0.834146
O O4 0.248442 0.181941 0.723827
O O5 0.500000 0.072017 0.825121
O O6 0.263993 0.053372 0.895907
O O7 0.242031 0.054067 0.775510
O O8 0.500000 0.500000 0.596252
O O9 0.268256 0.500000 0.674940
O O10 0.245398 0.550806 0.571412
O O11 0.000000 0.500000 0.060714
O O12 0.257247 0.500000 0.000000
O O13 0.000000 0.000000 0.751333
O O14 0.500000 0.699646 0.663048
O O15 0.750000 0.750000 0.631789
O O16 0.722794 0.647415 0.611816
O O17 0.813338 0.368906 0.500000
O O18 0.000000 0.390164 0.591736
#
# Coordination Sequence:
#
# PCOD8268569 Si02
#       7
#    16  16   8   8   8  16  16
#     4  10  19  32  51  75 104 134 166 205 251 303
#     4   9  18  31  49  75 103 133 169 207 248 294
#     4  11  23  37  54  77 103 131 167 209 258 313
#     4   8  14  28  51  76 101 132 174 218 250 282
#     4  10  20  31  48  75 102 129 159 200 252 302
#     4  11  22  37  57  79 103 131 166 208 257 309
#     4  11  24  40  56  74  98 131 170 210 255 308
#
# _framework density 18.481137
#
# number of rings (size 3 to 8) (size 9 to 14) (size 15 to 20)
#    0.000    1.909    0.000    6.273    0.000    8.727 
#    0.000    0.000    0.000    4.909    0.000    0.000 
#    0.000    0.000    0.000    0.000    0.000    0.727 
#
# Total GULP energy -545616.444551 kJ/mol
# GULP energy per Si atom -12400.373740 kJ/mol
# Density = 1.843907 g / cm^3
# Si number density = 18.481137 Si / 1000 Ang^3
#
#
#
# Elastic Constant Matrix: (Units=GPa)
#
#
# Indices 1 2 3 4 5 6 
#
# 1 90.0415 42.4227 30.6397 0.0000 0.0000 0.0000
# 2 42.4227 148.3253 50.3640 0.0000 0.0000 0.0000
# 3 30.6397 50.3640 85.4306 0.0000 0.0000 0.0000
# 4 0.0000 0.0000 0.0000 14.9282 0.0000 0.0000
# 5 0.0000 0.0000 0.0000 0.0000 14.1415 0.0000
# 6 0.0000 0.0000 0.0000 0.0000 0.0000 33.7456
#
#
#
# Elastic Compliance Matrix: (Units=1/GPa)
#
#
# Indices 1 2 3 4 5 6 
#
# 1 0.013504 -0.002773 -0.003209 0.000000 0.000000 0.000000
# 2 -0.002773 0.008999 -0.004310 0.000000 0.000000 0.000000
# 3 -0.003209 -0.004310 0.015397 0.000000 0.000000 0.000000
# 4 0.000000 0.000000 0.000000 0.066987 0.000000 0.000000
# 5 0.000000 0.000000 0.000000 0.000000 0.070714 0.000000
# 6 0.000000 0.000000 0.000000 0.000000 0.000000 0.029634
#
#
# Mechanical properties :
#
#
# Convention : Reuss Voigt Hill
#
# Bulk Modulus (GPa) = 57.74905 63.40556 60.57731
# Shear Modulus (GPa) = 21.58979 25.92112 23.75546
#
# Velocity S-wave (km/s) = 3.42161 3.74916 3.58912
# Velocity P-wave (km/s) = 6.85020 7.28864 7.07282
#
# Compressibility (1/GPa) = 0.01731630
#
# Stress axis : x y z
#
# Youngs Moduli (GPa) = 74.05067 111.12784 64.94626
#
# Poissons Ratio (x) = 0.30814 0.20839
# Poissons Ratio (y) = 0.20533 0.27995
# Poissons Ratio (z) = 0.23760 0.47902
#
# Static dielectric constant tensor:
#      x y z
#    x 3.416400 0.000000 0.000000 
#    y 0.000000 3.567740 0.000000 
#    z 0.000000 0.000000 3.363160 
# 
# 
# High freq. dielectric constant tensor:
#      x y z
#    x 1.721110 0.000000 0.000000 
#    y 0.000000 1.727880 0.000000 
#    z 0.000000 0.000000 1.691990 
# 
# From -- ./inp_files/59897.got.cif
#   From: 2010.03.12/outbox.cif.g09.slc.cpg/sg65_30_cif.got.tgz:59897.got - 2010.04.10 20:52:16.
