data_PCOD8268224
_publ_section_title
;
Structure prediction by ZEFSAII (Michael W. Deem and Ramdas Pophale) SiO2 
 PCOD8268224
Probable space group: C M M M
;
_chemical_formula_sum "Si O2"
_cell_formula_units_Z 88
_cell_length_a 18.592615
_cell_length_b 8.875001
_cell_length_c 28.555079
_cell_angle_alpha 90.000000
_cell_angle_beta 90.000000
_cell_angle_gamma 90.000000
_cell_volume 4711.858643
_symmetry_space_group_name_H-M "C M M M"
_symmetry_group_IT_number 65
_symmetry_cell_setting 'orthorhombic'
loop_
_space_group_symop_operation_xyz
x,y,z
-x,-y,z
x,-y,-z
-x,y,-z
-x,-y,-z
x,y,-z
-x,y,z
x,-y,z
1/2+x,1/2+y,z
1/2-x,1/2-y,z
1/2+x,1/2-y,-z
1/2-x,1/2+y,-z
1/2-x,1/2-y,-z
1/2+x,1/2+y,-z
1/2-x,1/2+y,z
1/2+x,1/2-y,z
loop_
_atom_site_type_symbol
_atom_site_label
_atom_site_fract_x
_atom_site_fract_y
_atom_site_fract_z
Si Si1 0.915914 0.328619 0.946702
Si Si2 0.672091 0.323168 0.131453
Si Si3 0.172425 0.323635 0.222116
Si Si4 0.671679 0.178892 0.500000
Si Si5 0.919251 0.679248 0.588738
Si Si6 0.672715 0.823903 0.674977
O O1 0.896093 0.500000 0.932976
O O2 0.874989 0.212389 0.913793
O O3 0.000000 0.300724 0.940694
O O4 0.892389 0.296418 0.000000
O O5 0.680523 0.500000 0.137101
O O6 0.750000 0.250000 0.124976
O O7 0.632210 0.255848 0.178234
O O8 0.177842 0.500000 0.211700
O O9 0.250000 0.250000 0.223822
O O10 0.137923 0.292537 0.273402
O O11 0.750000 0.250000 0.500000
O O12 0.627950 0.236756 0.454811
O O13 0.679689 0.000000 0.500000
O O14 0.922909 0.500000 0.588577
O O15 0.882803 0.739492 0.636553
O O16 0.000000 0.745652 0.585190
O O17 0.750000 0.750000 0.668018
O O18 0.685415 0.000000 0.667738
#
# Coordination Sequence:
#
# PCOD8268224 Si02
#       6
#    16  16  16   8  16  16
#     4   9  19  37  58  77 100 132 168 206 250 301
#     4  11  21  33  52  77 105 135 168 209 253 297
#     4   9  16  28  46  69  96 126 162 202 247 294
#     4  10  19  31  51  75  97 126 162 202 244 288
#     4   9  17  30  48  71  98 127 162 201 241 288
#     4   9  17  29  48  71  94 124 162 203 243 287
#
# _framework density 18.676280999999999
#
# number of rings (size 3 to 8) (size 9 to 14) (size 15 to 20)
#    0.000    2.545    0.000    4.636    0.000    2.909 
#    0.000    1.818    0.000    6.000    0.000    0.000 
#    0.000    0.000    0.000    0.000    0.000    0.000 
#
# Total GULP energy -545345.591989 kJ/mol
# GULP energy per Si atom -12394.218000 kJ/mol
# Density = 1.863377 g / cm^3
# Si number density = 18.676281 Si / 1000 Ang^3
#
#
#
# Elastic Constant Matrix: (Units=GPa)
#
#
# Indices 1 2 3 4 5 6 
#
# 1 93.3053 31.1968 69.9557 0.0000 0.0000 0.0000
# 2 31.1968 81.2254 53.5153 0.0000 0.0000 0.0000
# 3 69.9557 53.5153 171.7894 0.0000 0.0000 0.0000
# 4 0.0000 0.0000 0.0000 22.4633 0.0000 0.0000
# 5 0.0000 0.0000 0.0000 0.0000 11.0659 0.0000
# 6 0.0000 0.0000 0.0000 0.0000 0.0000 22.8029
#
#
#
# Elastic Compliance Matrix: (Units=1/GPa)
#
#
# Indices 1 2 3 4 5 6 
#
# 1 0.015761 -0.002296 -0.005703 0.000000 0.000000 0.000000
# 2 -0.002296 0.015825 -0.003995 0.000000 0.000000 0.000000
# 3 -0.005703 -0.003995 0.009388 0.000000 0.000000 0.000000
# 4 0.000000 0.000000 0.000000 0.044517 0.000000 0.000000
# 5 0.000000 0.000000 0.000000 0.000000 0.090368 0.000000
# 6 0.000000 0.000000 0.000000 0.000000 0.000000 0.043854
#
#
# Mechanical properties :
#
#
# Convention : Reuss Voigt Hill
#
# Bulk Modulus (GPa) = 58.87030 72.85062 65.86046
# Shear Modulus (GPa) = 20.05112 24.04325 22.04719
#
# Velocity S-wave (km/s) = 3.28016 3.59188 3.43956
# Velocity P-wave (km/s) = 6.77759 7.50292 7.14946
#
# Compressibility (1/GPa) = 0.01698649
#
# Stress axis : x y z
#
# Youngs Moduli (GPa) = 63.44810 63.18997 106.52078
#
# Poissons Ratio (x) = 0.14509 0.60747
# Poissons Ratio (y) = 0.14568 0.42553
# Poissons Ratio (z) = 0.36183 0.25243
#
# Static dielectric constant tensor:
#      x y z
#    x 3.197320 0.000000 0.000000 
#    y 0.000000 3.241850 0.000000 
#    z 0.000000 0.000000 4.246460 
# 
# 
# High freq. dielectric constant tensor:
#      x y z
#    x 1.694380 0.000000 0.000000 
#    y 0.000000 1.706230 0.000000 
#    z 0.000000 0.000000 1.751510 
# 
# From -- ./inp_files/77922.got.cif
#   From: 2010.03.12/outbox.cif.g09.slc.cpg/sg65_39_cif.got.tgz:77922.got - 2010.04.10 20:52:16.
