data_PCOD8268049
_publ_section_title
;
Structure prediction by ZEFSAII (Michael W. Deem and Ramdas Pophale) SiO2 
 PCOD8268049
Probable space group: C M M M
;
_chemical_formula_sum "Si O2"
_cell_formula_units_Z 104
_cell_length_a 21.748956
_cell_length_b 8.850054
_cell_length_c 29.113223
_cell_angle_alpha 90.000000
_cell_angle_beta 90.000000
_cell_angle_gamma 90.000000
_cell_volume 5603.696715
_symmetry_space_group_name_H-M "C M M M"
_symmetry_group_IT_number 65
_symmetry_cell_setting 'orthorhombic'
loop_
_space_group_symop_operation_xyz
x,y,z
-x,-y,z
x,-y,-z
-x,y,-z
-x,-y,-z
x,y,-z
-x,y,z
x,-y,z
1/2+x,1/2+y,z
1/2-x,1/2-y,z
1/2+x,1/2-y,-z
1/2-x,1/2+y,-z
1/2-x,1/2-y,-z
1/2+x,1/2+y,-z
1/2-x,1/2+y,z
1/2+x,1/2-y,z
loop_
_atom_site_type_symbol
_atom_site_label
_atom_site_fract_x
_atom_site_fract_y
_atom_site_fract_z
Si Si1 0.500000 0.677940 0.551107
Si Si2 0.929544 0.320105 0.103533
Si Si3 0.686529 0.673864 0.945729
Si Si4 0.312853 0.673933 0.450551
Si Si5 0.073142 0.169140 0.704737
Si Si6 0.927737 0.666297 0.206230
Si Si7 0.101088 0.675359 0.612631
O O1 0.500000 0.500000 0.547429
O O2 0.500000 0.750443 0.500000
O O3 0.442066 0.726785 0.580236
O O4 0.925908 0.500000 0.099554
O O5 0.876746 0.248199 0.072120
O O6 0.914268 0.267450 0.155599
O O7 0.000000 0.269009 0.090021
O O8 0.687835 0.500000 0.930353
O O9 0.750000 0.750000 0.926889
O O10 0.684416 0.692513 0.000000
O O11 0.350256 0.679563 0.500000
O O12 0.308370 0.500000 0.433933
O O13 0.250000 0.750000 0.463359
O O14 0.334098 0.781227 0.408780
O O15 0.098806 0.224900 0.754125
O O16 0.098751 0.278620 0.665676
O O17 0.000000 0.173359 0.703302
O O18 0.097596 0.000000 0.696595
O O19 0.897675 0.500000 0.211512
O O20 0.000000 0.650495 0.212836
O O21 0.084849 0.500000 0.608704
#
# Coordination Sequence:
#
# PCOD8268049 Si02
#       7
#     8  16  16  16  16  16  16
#     4  11  23  37  51  71 103 137 167 205 254 305
#     4   9  18  33  54  81 112 146 183 228 280 332
#     4  10  21  36  54  77 108 148 192 236 280 332
#     4  10  21  38  58  77  98 126 163 207 251 299
#     4  10  19  31  49  73 104 138 173 212 257 310
#     4   8  15  29  49  73 103 136 172 213 259 312
#     4  12  23  34  52  76 103 135 169 206 251 305
#
# _framework density 18.559177999999999
#
# number of rings (size 3 to 8) (size 9 to 14) (size 15 to 20)
#    0.000    2.077    0.769    4.385    0.000    6.154 
#    0.000    3.077    0.000    0.923    0.000    2.154 
#    0.000    0.000    0.000    0.000    0.000    0.000 
#
# Total GULP energy -644276.118687 kJ/mol
# GULP energy per Si atom -12389.925359 kJ/mol
# Density = 1.851694 g / cm^3
# Si number density = 18.559178 Si / 1000 Ang^3
#
#
#
# Elastic Constant Matrix: (Units=GPa)
#
#
# Indices 1 2 3 4 5 6 
#
# 1 76.1166 31.0533 32.6486 0.0000 0.0000 0.0000
# 2 31.0533 93.9312 34.3504 0.0000 0.0000 0.0000
# 3 32.6486 34.3504 69.7037 0.0000 0.0000 0.0000
# 4 0.0000 0.0000 0.0000 30.3625 0.0000 0.0000
# 5 0.0000 0.0000 0.0000 0.0000 17.9592 0.0000
# 6 0.0000 0.0000 0.0000 0.0000 0.0000 27.5163
#
#
#
# Elastic Compliance Matrix: (Units=1/GPa)
#
#
# Indices 1 2 3 4 5 6 
#
# 1 0.017266 -0.003355 -0.006434 0.000000 0.000000 0.000000
# 2 -0.003355 0.013639 -0.005150 0.000000 0.000000 0.000000
# 3 -0.006434 -0.005150 0.019898 0.000000 0.000000 0.000000
# 4 0.000000 0.000000 0.000000 0.032935 0.000000 0.000000
# 5 0.000000 0.000000 0.000000 0.000000 0.055682 0.000000
# 6 0.000000 0.000000 0.000000 0.000000 0.000000 0.036342
#
#
# Mechanical properties :
#
#
# Convention : Reuss Voigt Hill
#
# Bulk Modulus (GPa) = 47.78950 48.42844 48.10897
# Shear Modulus (GPa) = 23.51677 24.61421 24.06549
#
# Velocity S-wave (km/s) = 3.56353 3.64573 3.60486
# Velocity P-wave (km/s) = 6.53738 6.62363 6.58065
#
# Compressibility (1/GPa) = 0.02092510
#
# Stress axis : x y z
#
# Youngs Moduli (GPa) = 57.91639 73.32169 50.25697
#
# Poissons Ratio (x) = 0.24602 0.32335
# Poissons Ratio (y) = 0.19433 0.25880
# Poissons Ratio (z) = 0.37263 0.37757
#
# Static dielectric constant tensor:
#      x y z
#    x 2.642200 0.000000 0.000000 
#    y 0.000000 3.510950 0.000000 
#    z 0.000000 0.000000 3.562430 
# 
# 
# High freq. dielectric constant tensor:
#      x y z
#    x 1.687300 0.000000 0.000000 
#    y 0.000000 1.725880 0.000000 
#    z 0.000000 0.000000 1.723950 
# 
# From -- ./inp_files/75796.got.cif
#   From: 2010.03.12/outbox.cif.g09.slc.cpg/sg65_38_cif.got.tgz:75796.got - 2010.04.10 20:52:16.
