data_PCOD8268937
_publ_section_title
;
Structure prediction by ZEFSAII (Michael W. Deem and Ramdas Pophale) SiO2 
 PCOD8268937
Probable space group: C M M M
;
_chemical_formula_sum "Si O2"
_cell_formula_units_Z 80
_cell_length_a 22.231146
_cell_length_b 9.197965
_cell_length_c 21.927795
_cell_angle_alpha 90.000000
_cell_angle_beta 90.000000
_cell_angle_gamma 90.000000
_cell_volume 4483.824090
_symmetry_space_group_name_H-M "C M M M"
_symmetry_group_IT_number 65
_symmetry_cell_setting 'orthorhombic'
loop_
_space_group_symop_operation_xyz
x,y,z
-x,-y,z
x,-y,-z
-x,y,-z
-x,-y,-z
x,y,-z
-x,y,z
x,-y,z
1/2+x,1/2+y,z
1/2-x,1/2-y,z
1/2+x,1/2-y,-z
1/2-x,1/2+y,-z
1/2-x,1/2-y,-z
1/2+x,1/2+y,-z
1/2-x,1/2+y,z
1/2+x,1/2-y,z
loop_
_atom_site_type_symbol
_atom_site_label
_atom_site_fract_x
_atom_site_fract_y
_atom_site_fract_z
Si Si1 0.377900 0.329782 0.877743
Si Si2 0.932860 0.672202 0.569701
Si Si3 0.000000 0.829273 0.932662
Si Si4 0.312033 0.829840 0.363101
Si Si5 0.189003 0.830108 0.000000
Si Si6 0.809553 0.331002 0.778577
O O1 0.369184 0.500000 0.863301
O O2 0.445204 0.282617 0.891034
O O3 0.362363 0.235716 0.818643
O O4 0.343833 0.281249 0.938670
O O5 0.925544 0.722366 0.500000
O O6 0.931995 0.500000 0.575351
O O7 0.873533 0.732541 0.605380
O O8 0.000000 0.725949 0.593324
O O9 0.000000 0.000000 0.944639
O O10 0.000000 0.754955 0.000000
O O11 0.250000 0.750000 0.384996
O O12 0.322832 0.800651 0.291997
O O13 0.303203 0.000000 0.377776
O O14 0.250000 0.750000 0.000000
O O15 0.198885 0.000000 0.000000
O O16 0.801880 0.500000 0.792453
O O17 0.750000 0.250000 0.800633
#
# Coordination Sequence:
#
# PCOD8268937 Si02
#       6
#    16  16   8  16   8  16
#     4  10  19  33  53  73  94 124 160 198 238 288
#     4   8  14  27  49  75 101 131 169 208 243 286
#     4   9  16  32  55  73  93 123 158 193 238 294
#     4   9  18  32  50  74 102 133 166 204 249 293
#     4  10  20  31  47  71  93 116 151 196 241 282
#     4  10  20  34  50  71  99 131 162 198 244 291
#
# _framework density 17.841912000000001
#
# number of rings (size 3 to 8) (size 9 to 14) (size 15 to 20)
#    0.000    2.700    1.000    1.800    0.000    3.600 
#    1.800    0.500    0.000    1.200    0.000    1.400 
#    0.000    0.000    0.000    0.000    0.000    0.000 
#
# Total GULP energy -495605.065375 kJ/mol
# GULP energy per Si atom -12390.126634 kJ/mol
# Density = 1.780130 g / cm^3
# Si number density = 17.841912 Si / 1000 Ang^3
#
#
#
# Elastic Constant Matrix: (Units=GPa)
#
#
# Indices 1 2 3 4 5 6 
#
# 1 185.2741 43.2940 72.5235 0.0000 0.0000 0.0000
# 2 43.2940 39.2375 33.4662 0.0000 0.0000 0.0000
# 3 72.5235 33.4662 81.4707 0.0000 0.0000 0.0000
# 4 0.0000 0.0000 0.0000 16.9220 0.0000 0.0000
# 5 0.0000 0.0000 0.0000 0.0000 45.5599 0.0000
# 6 0.0000 0.0000 0.0000 0.0000 0.0000 22.0665
#
#
#
# Elastic Compliance Matrix: (Units=1/GPa)
#
#
# Indices 1 2 3 4 5 6 
#
# 1 0.008806 -0.004665 -0.005923 0.000000 0.000000 0.000000
# 2 -0.004665 0.041702 -0.012978 0.000000 0.000000 0.000000
# 3 -0.005923 -0.012978 0.022877 0.000000 0.000000 0.000000
# 4 0.000000 0.000000 0.000000 0.059095 0.000000 0.000000
# 5 0.000000 0.000000 0.000000 0.000000 0.021949 0.000000
# 6 0.000000 0.000000 0.000000 0.000000 0.000000 0.045317
#
#
# Mechanical properties :
#
#
# Convention : Reuss Voigt Hill
#
# Bulk Modulus (GPa) = 38.08800 67.17220 52.63010
# Shear Modulus (GPa) = 19.55974 27.35627 23.45801
#
# Velocity S-wave (km/s) = 3.31461 3.91993 3.62991
# Velocity P-wave (km/s) = 6.00355 7.63008 6.86516
#
# Compressibility (1/GPa) = 0.02625499
#
# Stress axis : x y z
#
# Youngs Moduli (GPa) = 113.56222 23.97995 43.71140
#
# Poissons Ratio (x) = 0.11186 0.25888
# Poissons Ratio (y) = 0.52973 0.56727
# Poissons Ratio (z) = 0.67258 0.31120
#
# Static dielectric constant tensor:
#      x y z
#    x 3.582730 0.000000 0.000000 
#    y 0.000000 3.005340 0.000000 
#    z 0.000000 0.000000 3.287380 
# 
# 
# High freq. dielectric constant tensor:
#      x y z
#    x 1.705010 0.000000 0.000000 
#    y 0.000000 1.653780 0.000000 
#    z 0.000000 0.000000 1.687360 
# 
# From -- ./inp_files/65058.got.cif
#   From: 2010.03.12/outbox.cif.g09.slc.cpg/sg65_33_cif.got.tgz:65058.got - 2010.04.10 20:52:16.
