data_PCOD8268072
_publ_section_title
;
Structure prediction by ZEFSAII (Michael W. Deem and Ramdas Pophale) SiO2 
 PCOD8268072
Probable space group: C M M M
;
_chemical_formula_sum "Si O2"
_cell_formula_units_Z 88
_cell_length_a 8.937952
_cell_length_b 18.501513
_cell_length_c 28.057086
_cell_angle_alpha 90.000000
_cell_angle_beta 90.000000
_cell_angle_gamma 90.000000
_cell_volume 4639.677846
_symmetry_space_group_name_H-M "C M M M"
_symmetry_group_IT_number 65
_symmetry_cell_setting 'orthorhombic'
loop_
_space_group_symop_operation_xyz
x,y,z
-x,-y,z
x,-y,-z
-x,y,-z
-x,-y,-z
x,y,-z
-x,y,z
x,-y,z
1/2+x,1/2+y,z
1/2-x,1/2-y,z
1/2+x,1/2-y,-z
1/2-x,1/2+y,-z
1/2-x,1/2-y,-z
1/2+x,1/2+y,-z
1/2-x,1/2+y,z
1/2+x,1/2-y,z
loop_
_atom_site_type_symbol
_atom_site_label
_atom_site_fract_x
_atom_site_fract_y
_atom_site_fract_z
Si Si1 0.329311 0.085223 0.715417
Si Si2 0.172102 0.582848 0.444983
Si Si3 0.675566 0.672783 0.365579
Si Si4 0.177529 0.418951 0.000000
Si Si5 0.322151 0.172499 0.909795
Si Si6 0.322625 0.919934 0.178055
O O1 0.500000 0.110126 0.706166
O O2 0.219556 0.124593 0.679454
O O3 0.277582 0.106174 0.768966
O O4 0.315551 0.000000 0.707556
O O5 0.196243 0.602954 0.500000
O O6 0.218100 0.500000 0.435517
O O7 0.275700 0.634801 0.414388
O O8 0.000000 0.594606 0.430123
O O9 0.500000 0.683369 0.366476
O O10 0.750000 0.750000 0.360817
O O11 0.234032 0.377195 0.953217
O O12 0.244714 0.500000 0.000000
O O13 0.000000 0.423063 0.000000
O O14 0.500000 0.180583 0.909720
O O15 0.250000 0.250000 0.915799
O O16 0.261747 0.136397 0.860936
O O17 0.500000 0.925304 0.174615
O O18 0.256109 0.000000 0.167878
#
# Coordination Sequence:
#
# PCOD8268072 Si02
#       6
#    16  16  16   8  16  16
#     4   9  18  35  58  80 104 136 174 217 265 316
#     4   9  19  38  63  87 111 141 176 214 259 313
#     4  12  25  38  54  78 110 145 180 220 265 313
#     4   9  17  30  51  75  96 127 174 220 254 295
#     4  10  19  31  49  74 104 134 167 209 257 309
#     4   8  15  30  53  77  99 130 173 214 251 299
#
# _framework density 18.966833999999999
#
# number of rings (size 3 to 8) (size 9 to 14) (size 15 to 20)
#    0.000    2.455    0.000    4.636    0.000    6.545 
#    0.000    3.636    0.000    3.818    0.000    0.000 
#    0.000    0.000    0.000    0.000    0.000    0.000 
#
# Total GULP energy -545603.026849 kJ/mol
# GULP energy per Si atom -12400.068792 kJ/mol
# Density = 1.892366 g / cm^3
# Si number density = 18.966834 Si / 1000 Ang^3
#
#
#
# Elastic Constant Matrix: (Units=GPa)
#
#
# Indices 1 2 3 4 5 6 
#
# 1 71.1587 37.3273 41.3557 0.0000 0.0000 0.0000
# 2 37.3273 108.2735 68.2509 0.0000 0.0000 0.0000
# 3 41.3557 68.2509 135.9669 0.0000 0.0000 0.0000
# 4 0.0000 0.0000 0.0000 12.6237 0.0000 0.0000
# 5 0.0000 0.0000 0.0000 0.0000 15.5286 0.0000
# 6 0.0000 0.0000 0.0000 0.0000 0.0000 30.4885
#
#
#
# Elastic Compliance Matrix: (Units=1/GPa)
#
#
# Indices 1 2 3 4 5 6 
#
# 1 0.018225 -0.004080 -0.003495 0.000000 0.000000 0.000000
# 2 -0.004080 0.014424 -0.006000 0.000000 0.000000 0.000000
# 3 -0.003495 -0.006000 0.011429 0.000000 0.000000 0.000000
# 4 0.000000 0.000000 0.000000 0.079216 0.000000 0.000000
# 5 0.000000 0.000000 0.000000 0.000000 0.064397 0.000000
# 6 0.000000 0.000000 0.000000 0.000000 0.000000 0.032799
#
#
# Mechanical properties :
#
#
# Convention : Reuss Voigt Hill
#
# Bulk Modulus (GPa) = 59.06994 67.69632 63.38313
# Shear Modulus (GPa) = 19.74078 22.95918 21.34998
#
# Velocity S-wave (km/s) = 3.22965 3.48299 3.35871
# Velocity P-wave (km/s) = 6.71706 7.20724 6.96647
#
# Compressibility (1/GPa) = 0.01692908
#
# Stress axis : x y z
#
# Youngs Moduli (GPa) = 54.87113 69.32797 87.49299
#
# Poissons Ratio (x) = 0.28283 0.30582
# Poissons Ratio (y) = 0.22385 0.52492
# Poissons Ratio (z) = 0.19179 0.41594
#
# Static dielectric constant tensor:
#      x y z
#    x 3.107150 0.000000 0.000000 
#    y 0.000000 3.541570 0.000000 
#    z 0.000000 0.000000 3.762440 
# 
# 
# High freq. dielectric constant tensor:
#      x y z
#    x 1.698510 0.000000 0.000000 
#    y 0.000000 1.740140 0.000000 
#    z 0.000000 0.000000 1.755910 
# 
# From -- ./inp_files/76711.got.cif
#   From: 2010.03.12/outbox.cif.g09.slc.cpg/sg65_39_cif.got.tgz:76711.got - 2010.04.10 20:52:16.
