data_PCOD8268889
_publ_section_title
;
Structure prediction by ZEFSAII (Michael W. Deem and Ramdas Pophale) SiO2 
 PCOD8268889
Probable space group: C M M M
;
_chemical_formula_sum "Si O2"
_cell_formula_units_Z 112
_cell_length_a 31.582594
_cell_length_b 14.117274
_cell_length_c 14.112985
_cell_angle_alpha 90.000000
_cell_angle_beta 90.000000
_cell_angle_gamma 90.000000
_cell_volume 6292.417371
_symmetry_space_group_name_H-M "C M M M"
_symmetry_group_IT_number 65
_symmetry_cell_setting 'orthorhombic'
loop_
_space_group_symop_operation_xyz
x,y,z
-x,-y,z
x,-y,-z
-x,y,-z
-x,-y,-z
x,y,-z
-x,y,z
x,-y,z
1/2+x,1/2+y,z
1/2-x,1/2-y,z
1/2+x,1/2-y,-z
1/2-x,1/2+y,-z
1/2-x,1/2-y,-z
1/2+x,1/2+y,-z
1/2-x,1/2+y,z
1/2+x,1/2-y,z
loop_
_atom_site_type_symbol
_atom_site_label
_atom_site_fract_x
_atom_site_fract_y
_atom_site_fract_z
Si Si1 0.258024 0.112071 0.204041
Si Si2 0.952647 0.603246 0.112564
Si Si3 0.452883 0.388778 0.739119
Si Si4 0.310738 0.732939 0.888695
Si Si5 0.713808 0.612130 0.605221
Si Si6 0.906521 0.785490 0.110721
Si Si7 0.620038 0.610562 0.391964
O O1 0.298729 0.172124 0.170484
O O2 0.219029 0.144446 0.137875
O O3 0.247547 0.140189 0.313606
O O4 0.266107 0.000000 0.191537
O O5 0.937921 0.500000 0.150532
O O6 0.920784 0.682867 0.150682
O O7 0.000000 0.625767 0.149005
O O8 0.952313 0.602201 0.000000
O O9 0.500000 0.345619 0.722204
O O10 0.455720 0.500000 0.724966
O O11 0.436033 0.366073 0.844161
O O12 0.417941 0.342026 0.668570
O O13 0.357732 0.700718 0.861530
O O14 0.306558 0.756305 0.000000
O O15 0.728213 0.648483 0.500000
O O16 0.709314 0.500000 0.601132
O O17 0.666883 0.653115 0.630956
O O18 0.914041 0.794201 0.000000
O O19 0.608414 0.630222 0.500000
O O20 0.620815 0.500000 0.368217
#
# Coordination Sequence:
#
# PCOD8268889 Si02
#       7
#    16  16  16  16  16  16  16
#     4  10  19  33  52  69  92 123 151 192 244 282
#     4   8  14  26  45  66  84 106 142 187 233 275
#     4  10  20  31  45  69  98 127 159 189 221 272
#     4  10  22  35  46  67  93 120 163 203 230 278
#     4   8  14  26  47  73  95 118 151 188 230 283
#     4  10  20  33  47  63  91 127 156 190 233 272
#     4   8  14  26  44  66  93 123 155 192 229 264
#
# _framework density 17.799199999999999
#
# number of rings (size 3 to 8) (size 9 to 14) (size 15 to 20)
#    0.000    2.857    0.000    3.429    0.000    4.857 
#    0.000    6.429    0.000    0.857    0.000    0.000 
#    0.000    0.571    0.000    3.000    0.000    0.857 
#
# Total GULP energy -693884.476779 kJ/mol
# GULP energy per Si atom -12390.794228 kJ/mol
# Density = 1.775869 g / cm^3
# Si number density = 17.799200 Si / 1000 Ang^3
#
#
#
# Elastic Constant Matrix: (Units=GPa)
#
#
# Indices 1 2 3 4 5 6 
#
# 1 52.5597 -2.7987 29.1576 0.0000 0.0000 0.0000
# 2 -2.7987 27.3122 8.2711 0.0000 0.0000 0.0000
# 3 29.1576 8.2711 76.2061 0.0000 0.0000 0.0000
# 4 0.0000 0.0000 0.0000 12.3854 0.0000 0.0000
# 5 0.0000 0.0000 0.0000 0.0000 22.9355 0.0000
# 6 0.0000 0.0000 0.0000 0.0000 0.0000 21.3521
#
#
#
# Elastic Compliance Matrix: (Units=1/GPa)
#
#
# Indices 1 2 3 4 5 6 
#
# 1 0.024964 0.005636 -0.010163 0.000000 0.000000 0.000000
# 2 0.005636 0.039130 -0.006403 0.000000 0.000000 0.000000
# 3 -0.010163 -0.006403 0.017706 0.000000 0.000000 0.000000
# 4 0.000000 0.000000 0.000000 0.080740 0.000000 0.000000
# 5 0.000000 0.000000 0.000000 0.000000 0.043600 0.000000
# 6 0.000000 0.000000 0.000000 0.000000 0.000000 0.046834
#
#
# Mechanical properties :
#
#
# Convention : Reuss Voigt Hill
#
# Bulk Modulus (GPa) = 16.68365 25.03753 20.86059
# Shear Modulus (GPa) = 16.95970 19.43114 18.19542
#
# Velocity S-wave (km/s) = 3.09015 3.30765 3.20075
# Velocity P-wave (km/s) = 4.70379 5.35580 5.04035
#
# Compressibility (1/GPa) = 0.05993893
#
# Stress axis : x y z
#
# Youngs Moduli (GPa) = 40.05727 25.55556 56.47815
#
# Poissons Ratio (x) = -0.14403 0.57401
# Poissons Ratio (y) = -0.22576 0.36165
# Poissons Ratio (z) = 0.40712 0.16364
#
# Static dielectric constant tensor:
#      x y z
#    x 3.618200 0.000000 0.000000 
#    y 0.000000 3.145610 0.000000 
#    z 0.000000 0.000000 3.345520 
# 
# 
# High freq. dielectric constant tensor:
#      x y z
#    x 1.690200 0.000000 0.000000 
#    y 0.000000 1.657660 0.000000 
#    z 0.000000 0.000000 1.675570 
# 
# From -- ./inp_files/48006.got.cif
#   From: 2010.03.12/outbox.cif.g09.slc.cpg/sg65_25_cif.got.tgz:48006.got - 2010.04.10 20:52:16.
