data_PCOD8268740
_publ_section_title
;
Structure prediction by ZEFSAII (Michael W. Deem and Ramdas Pophale) SiO2 
 PCOD8268740
Probable space group: C M M M
;
_chemical_formula_sum "Si O2"
_cell_formula_units_Z 120
_cell_length_a 17.970143
_cell_length_b 18.163859
_cell_length_c 22.377769
_cell_angle_alpha 90.000000
_cell_angle_beta 90.000000
_cell_angle_gamma 90.000000
_cell_volume 7304.263661
_symmetry_space_group_name_H-M "C M M M"
_symmetry_group_IT_number 65
_symmetry_cell_setting 'orthorhombic'
loop_
_space_group_symop_operation_xyz
x,y,z
-x,-y,z
x,-y,-z
-x,y,-z
-x,-y,-z
x,y,-z
-x,y,z
x,-y,z
1/2+x,1/2+y,z
1/2-x,1/2-y,z
1/2+x,1/2-y,-z
1/2-x,1/2+y,-z
1/2-x,1/2-y,-z
1/2+x,1/2+y,-z
1/2-x,1/2+y,z
1/2+x,1/2-y,z
loop_
_atom_site_type_symbol
_atom_site_label
_atom_site_fract_x
_atom_site_fract_y
_atom_site_fract_z
Si Si1 0.411406 0.659602 0.931894
Si Si2 0.167015 0.222719 0.825250
Si Si3 0.333555 0.582824 0.254525
Si Si4 0.689340 0.083807 0.332894
Si Si5 0.415836 0.342388 0.645092
Si Si6 0.274318 0.332997 0.569162
Si Si7 0.919364 0.000000 0.929768
Si Si8 0.415165 0.198317 0.721948
O O1 0.500000 0.660552 0.923257
O O2 0.373950 0.720276 0.889211
O O3 0.379134 0.577649 0.914051
O O4 0.390248 0.679686 0.000000
O O5 0.250000 0.250000 0.835686
O O6 0.160885 0.140634 0.798794
O O7 0.127509 0.281544 0.782589
O O8 0.344400 0.500000 0.229293
O O9 0.253620 0.593218 0.284329
O O10 0.396644 0.597103 0.304547
O O11 0.716912 0.115111 0.396116
O O12 0.617570 0.125581 0.308200
O O13 0.665858 0.000000 0.342796
O O14 0.500000 0.355750 0.622107
O O15 0.359247 0.347500 0.589677
O O16 0.406585 0.262533 0.673892
O O17 0.268693 0.353301 0.500000
O O18 0.250000 0.250000 0.582541
O O19 0.000000 0.000000 0.897578
O O20 0.933209 0.000000 0.000000
O O21 0.500000 0.182935 0.738986
#
# Coordination Sequence:
#
# PCOD8268740 Si02
#       8
#    16  16  16  16  16  16   8  16
#     4   9  18  32  48  69 100 135 169 204 246 295
#     4  11  20  31  51  74 102 133 163 211 249 293
#     4   9  19  32  49  72  99 133 166 199 250 304
#     4  10  19  34  54  73  97 129 165 207 253 299
#     4   9  18  31  50  73 102 134 164 205 249 294
#     4  10  19  32  53  75  99 134 172 206 245 299
#     4   7  12  26  46  66  92 128 165 197 230 280
#     4  10  19  33  51  73  99 129 166 204 252 301
#
# _framework density 16.428761000000002
#
# number of rings (size 3 to 8) (size 9 to 14) (size 15 to 20)
#    0.000    2.467    2.667    1.200    0.933    1.867 
#    0.000    0.000    0.000    0.400    0.000    4.667 
#    0.000    0.000    0.000    4.533    0.000    0.000 
#
# Total GULP energy -743777.093404 kJ/mol
# GULP energy per Si atom -12396.284890 kJ/mol
# Density = 1.639137 g / cm^3
# Si number density = 16.428761 Si / 1000 Ang^3
#
#
#
# Elastic Constant Matrix: (Units=GPa)
#
#
# Indices 1 2 3 4 5 6 
#
# 1 92.6264 40.3242 44.8832 0.0000 0.0000 0.0000
# 2 40.3242 81.7723 40.5267 0.0000 0.0000 0.0000
# 3 44.8832 40.5267 88.6084 0.0000 0.0000 0.0000
# 4 0.0000 0.0000 0.0000 17.3002 0.0000 0.0000
# 5 0.0000 0.0000 0.0000 0.0000 16.5054 0.0000
# 6 0.0000 0.0000 0.0000 0.0000 0.0000 17.4860
#
#
#
# Elastic Compliance Matrix: (Units=1/GPa)
#
#
# Indices 1 2 3 4 5 6 
#
# 1 0.015700 -0.004915 -0.005705 0.000000 0.000000 0.000000
# 2 -0.004915 0.017352 -0.005447 0.000000 0.000000 0.000000
# 3 -0.005705 -0.005447 0.016666 0.000000 0.000000 0.000000
# 4 0.000000 0.000000 0.000000 0.057803 0.000000 0.000000
# 5 0.000000 0.000000 0.000000 0.000000 0.060586 0.000000
# 6 0.000000 0.000000 0.000000 0.000000 0.000000 0.057189
#
#
# Mechanical properties :
#
#
# Convention : Reuss Voigt Hill
#
# Bulk Modulus (GPa) = 56.86363 57.16391 57.01377
# Shear Modulus (GPa) = 18.99043 19.40987 19.20015
#
# Velocity S-wave (km/s) = 3.40358 3.44096 3.42232
# Velocity P-wave (km/s) = 7.08048 7.11741 7.09897
#
# Compressibility (1/GPa) = 0.01758593
#
# Stress axis : x y z
#
# Youngs Moduli (GPa) = 63.69440 57.62969 60.00089
#
# Poissons Ratio (x) = 0.28324 0.34229
# Poissons Ratio (y) = 0.31305 0.32681
# Poissons Ratio (z) = 0.36336 0.31390
#
# Static dielectric constant tensor:
#      x y z
#    x 3.000020 0.000000 0.000000 
#    y 0.000000 3.108070 0.000000 
#    z 0.000000 0.000000 2.935710 
# 
# 
# High freq. dielectric constant tensor:
#      x y z
#    x 1.620960 0.000000 0.000000 
#    y 0.000000 1.624940 0.000000 
#    z 0.000000 0.000000 1.622760 
# 
# From -- ./inp_files/64013.got.cif
#   From: 2010.03.12/outbox.cif.g09.slc.cpg/sg65_33_cif.got.tgz:64013.got - 2010.04.10 20:52:16.
