data_PCOD8268918
_publ_section_title
;
Structure prediction by ZEFSAII (Michael W. Deem and Ramdas Pophale) SiO2 
 PCOD8268918
Probable space group: C M M M
;
_chemical_formula_sum "Si O2"
_cell_formula_units_Z 96
_cell_length_a 29.021014
_cell_length_b 8.893103
_cell_length_c 20.710878
_cell_angle_alpha 90.000000
_cell_angle_beta 90.000000
_cell_angle_gamma 90.000000
_cell_volume 5345.205609
_symmetry_space_group_name_H-M "C M M M"
_symmetry_group_IT_number 65
_symmetry_cell_setting 'orthorhombic'
loop_
_space_group_symop_operation_xyz
x,y,z
-x,-y,z
x,-y,-z
-x,y,-z
-x,-y,-z
x,y,-z
-x,y,z
x,-y,z
1/2+x,1/2+y,z
1/2-x,1/2-y,z
1/2+x,1/2-y,-z
1/2-x,1/2+y,-z
1/2-x,1/2-y,-z
1/2+x,1/2+y,-z
1/2-x,1/2+y,z
1/2+x,1/2-y,z
loop_
_atom_site_type_symbol
_atom_site_label
_atom_site_fract_x
_atom_site_fract_y
_atom_site_fract_z
Si Si1 0.889767 0.321134 0.690807
Si Si2 0.703088 0.323868 0.274805
Si Si3 0.551476 0.821500 0.428691
Si Si4 0.053495 0.823146 0.805392
Si Si5 0.391861 0.678608 0.928841
Si Si6 0.296267 0.324996 0.124461
O O1 0.886391 0.500000 0.693013
O O2 0.839135 0.251437 0.687996
O O3 0.914579 0.259748 0.626208
O O4 0.918396 0.266472 0.752185
O O5 0.704043 0.500000 0.289091
O O6 0.750000 0.250000 0.301178
O O7 0.697012 0.287690 0.199513
O O8 0.568100 0.768235 0.500000
O O9 0.500000 0.759376 0.415205
O O10 0.550395 0.000000 0.425999
O O11 0.070911 0.768486 0.875894
O O12 0.000000 0.782524 0.799424
O O13 0.062794 0.000000 0.795852
O O14 0.389581 0.500000 0.928475
O O15 0.340941 0.741281 0.911913
O O16 0.406399 0.738073 0.000000
O O17 0.291023 0.500000 0.111986
O O18 0.250000 0.250000 0.096732
#
# Coordination Sequence:
#
# PCOD8268918 Si02
#       6
#    16  16  16  16  16  16
#     4  11  20  31  53  81 106 134 169 208 254 304
#     4  10  19  33  52  76 106 135 168 209 255 302
#     4   8  15  29  49  75 107 139 171 208 249 296
#     4  10  20  34  51  72  99 132 171 216 262 303
#     4   9  17  31  49  69  95 128 167 211 257 304
#     4   9  17  30  48  69  95 124 157 200 250 300
#
# _framework density 17.960021000000001
#
# number of rings (size 3 to 8) (size 9 to 14) (size 15 to 20)
#    0.000    2.500    1.667    2.000    0.000    2.333 
#    0.000    1.667    0.000    4.000    0.000    7.000 
#    0.000    0.000    0.000    0.000    0.000    0.000 
#
# Total GULP energy -595090.431880 kJ/mol
# GULP energy per Si atom -12397.717331 kJ/mol
# Density = 1.791914 g / cm^3
# Si number density = 17.960021 Si / 1000 Ang^3
#
#
#
# Elastic Constant Matrix: (Units=GPa)
#
#
# Indices 1 2 3 4 5 6 
#
# 1 141.8389 38.7910 74.5906 0.0000 0.0000 0.0000
# 2 38.7910 39.8358 32.9996 0.0000 0.0000 0.0000
# 3 74.5906 32.9996 123.2202 0.0000 0.0000 0.0000
# 4 0.0000 0.0000 0.0000 14.5678 0.0000 0.0000
# 5 0.0000 0.0000 0.0000 0.0000 31.9178 0.0000
# 6 0.0000 0.0000 0.0000 0.0000 0.0000 28.4470
#
#
#
# Elastic Compliance Matrix: (Units=1/GPa)
#
#
# Indices 1 2 3 4 5 6 
#
# 1 0.011728 -0.007119 -0.005193 0.000000 0.000000 0.000000
# 2 -0.007119 0.036581 -0.005488 0.000000 0.000000 0.000000
# 3 -0.005193 -0.005488 0.012729 0.000000 0.000000 0.000000
# 4 0.000000 0.000000 0.000000 0.068644 0.000000 0.000000
# 5 0.000000 0.000000 0.000000 0.000000 0.031330 0.000000
# 6 0.000000 0.000000 0.000000 0.000000 0.000000 0.035153
#
#
# Mechanical properties :
#
#
# Convention : Reuss Voigt Hill
#
# Bulk Modulus (GPa) = 39.30936 66.40635 52.85785
# Shear Modulus (GPa) = 20.81222 25.55410 23.18316
#
# Velocity S-wave (km/s) = 3.40782 3.77614 3.59670
# Velocity P-wave (km/s) = 6.11711 7.48780 6.83689
#
# Compressibility (1/GPa) = 0.02543924
#
# Stress axis : x y z
#
# Youngs Moduli (GPa) = 85.26594 27.33682 78.56225
#
# Poissons Ratio (x) = 0.19460 0.40798
# Poissons Ratio (y) = 0.60697 0.43111
# Poissons Ratio (z) = 0.44279 0.15001
#
# Static dielectric constant tensor:
#      x y z
#    x 3.558110 0.000000 0.000000 
#    y 0.000000 3.037640 0.000000 
#    z 0.000000 0.000000 3.473980 
# 
# 
# High freq. dielectric constant tensor:
#      x y z
#    x 1.704560 0.000000 0.000000 
#    y 0.000000 1.663980 0.000000 
#    z 0.000000 0.000000 1.684040 
# 
# From -- ./inp_files/60191.got.cif
#   From: 2010.03.12/outbox.cif.g09.slc.cpg/sg65_31_cif.got.tgz:60191.got - 2010.04.10 20:52:16.
