data_PCOD8268531
_publ_section_title
;
Structure prediction by ZEFSAII (Michael W. Deem and Ramdas Pophale) SiO2 
 PCOD8268531
Probable space group: C M M M
;
_chemical_formula_sum "Si O2"
_cell_formula_units_Z 72
_cell_length_a 8.575818
_cell_length_b 19.758513
_cell_length_c 22.945362
_cell_angle_alpha 90.000000
_cell_angle_beta 90.000000
_cell_angle_gamma 90.000000
_cell_volume 3887.986305
_symmetry_space_group_name_H-M "C M M M"
_symmetry_group_IT_number 65
_symmetry_cell_setting 'orthorhombic'
loop_
_space_group_symop_operation_xyz
x,y,z
-x,-y,z
x,-y,-z
-x,y,-z
-x,-y,-z
x,y,-z
-x,y,z
x,-y,z
1/2+x,1/2+y,z
1/2-x,1/2-y,z
1/2+x,1/2-y,-z
1/2-x,1/2+y,-z
1/2-x,1/2-y,-z
1/2+x,1/2+y,-z
1/2-x,1/2+y,z
1/2+x,1/2-y,z
loop_
_atom_site_type_symbol
_atom_site_label
_atom_site_fract_x
_atom_site_fract_y
_atom_site_fract_z
Si Si1 0.181341 0.079248 0.620688
Si Si2 0.325011 0.919831 0.500000
Si Si3 0.814646 0.924428 0.064623
Si Si4 0.182980 0.322361 0.714163
Si Si5 0.185182 0.177135 0.161526
O O1 0.232553 0.105144 0.556909
O O2 0.280472 0.120211 0.667425
O O3 0.000000 0.094752 0.629301
O O4 0.218385 0.000000 0.628812
O O5 0.500000 0.889510 0.500000
O O6 0.331986 0.000000 0.500000
O O7 0.746490 0.874503 0.113529
O O8 0.000000 0.924013 0.067106
O O9 0.752627 0.000000 0.077702
O O10 0.759191 0.901347 0.000000
O O11 0.250000 0.250000 0.693694
O O12 0.257065 0.345888 0.775093
O O13 0.000000 0.314385 0.722375
O O14 0.250000 0.250000 0.144551
O O15 0.000000 0.178757 0.161627
#
# Coordination Sequence:
#
# PCOD8268531 Si02
#       5
#    16   8  16  16  16
#     4  10  20  35  56  81 108 139 176 215 257 308
#     4   9  17  31  52  79 110 141 174 213 257 303
#     4   8  15  29  49  73 100 130 166 208 252 299
#     4  11  22  37  55  75 104 139 175 217 265 313
#     4  10  19  32  51  74 100 132 169 209 255 307
#
# _framework density 18.518584000000001
#
# number of rings (size 3 to 8) (size 9 to 14) (size 15 to 20)
#    0.000    2.333    0.000    5.667    0.000    4.000 
#    0.000    2.778    0.000    4.000    0.000    6.222 
#    0.000    0.000    0.000    0.000    0.000    0.000 
#
# Total GULP energy -446389.814539 kJ/mol
# GULP energy per Si atom -12399.717071 kJ/mol
# Density = 1.847644 g / cm^3
# Si number density = 18.518584 Si / 1000 Ang^3
#
#
#
# Elastic Constant Matrix: (Units=GPa)
#
#
# Indices 1 2 3 4 5 6 
#
# 1 77.9629 24.8577 28.8279 0.0000 0.0000 0.0000
# 2 24.8577 82.5754 81.6223 0.0000 0.0000 0.0000
# 3 28.8279 81.6223 147.0295 0.0000 0.0000 0.0000
# 4 0.0000 0.0000 0.0000 21.5492 0.0000 0.0000
# 5 0.0000 0.0000 0.0000 0.0000 22.6041 0.0000
# 6 0.0000 0.0000 0.0000 0.0000 0.0000 25.9927
#
#
#
# Elastic Compliance Matrix: (Units=1/GPa)
#
#
# Indices 1 2 3 4 5 6 
#
# 1 0.014244 -0.003384 -0.000914 0.000000 0.000000 0.000000
# 2 -0.003384 0.027640 -0.014681 0.000000 0.000000 0.000000
# 3 -0.000914 -0.014681 0.015130 0.000000 0.000000 0.000000
# 4 0.000000 0.000000 0.000000 0.046405 0.000000 0.000000
# 5 0.000000 0.000000 0.000000 0.000000 0.044240 0.000000
# 6 0.000000 0.000000 0.000000 0.000000 0.000000 0.038472
#
#
# Mechanical properties :
#
#
# Convention : Reuss Voigt Hill
#
# Bulk Modulus (GPa) = 52.47620 64.24261 58.35940
# Shear Modulus (GPa) = 21.69748 25.51320 23.60534
#
# Velocity S-wave (km/s) = 3.42666 3.71578 3.57414
# Velocity P-wave (km/s) = 6.63736 7.29215 6.97245
#
# Compressibility (1/GPa) = 0.01905626
#
# Stress axis : x y z
#
# Youngs Moduli (GPa) = 70.20687 36.17931 66.09223
#
# Poissons Ratio (x) = 0.12245 0.06040
# Poissons Ratio (y) = 0.23761 0.97027
# Poissons Ratio (z) = 0.06416 0.53113
#
# Static dielectric constant tensor:
#      x y z
#    x 3.318510 0.000000 0.000000 
#    y 0.000000 3.389940 0.000000 
#    z 0.000000 0.000000 3.669080 
# 
# 
# High freq. dielectric constant tensor:
#      x y z
#    x 1.713280 0.000000 0.000000 
#    y 0.000000 1.704220 0.000000 
#    z 0.000000 0.000000 1.729580 
# 
# From -- ./inp_files/59215.got.cif
#   From: 2010.03.12/outbox.cif.g09.slc.cpg/sg65_30_cif.got.tgz:59215.got - 2010.04.10 20:52:16.
