data_PCOD8268541
_publ_section_title
;
Structure prediction by ZEFSAII (Michael W. Deem and Ramdas Pophale) SiO2 
 PCOD8268541
Probable space group: C M M M
;
_chemical_formula_sum "Si O2"
_cell_formula_units_Z 56
_cell_length_a 13.768659
_cell_length_b 13.016642
_cell_length_c 17.220425
_cell_angle_alpha 90.000000
_cell_angle_beta 90.000000
_cell_angle_gamma 90.000000
_cell_volume 3086.273930
_symmetry_space_group_name_H-M "C M M M"
_symmetry_group_IT_number 65
_symmetry_cell_setting 'orthorhombic'
loop_
_space_group_symop_operation_xyz
x,y,z
-x,-y,z
x,-y,-z
-x,y,-z
-x,-y,-z
x,y,-z
-x,y,z
x,-y,z
1/2+x,1/2+y,z
1/2-x,1/2-y,z
1/2+x,1/2-y,-z
1/2-x,1/2+y,-z
1/2-x,1/2-y,-z
1/2+x,1/2+y,-z
1/2-x,1/2+y,z
1/2+x,1/2-y,z
loop_
_atom_site_type_symbol
_atom_site_label
_atom_site_fract_x
_atom_site_fract_y
_atom_site_fract_z
Si Si1 0.389682 0.701583 0.409425
Si Si2 0.250000 0.750000 0.193633
Si Si3 0.707609 0.883108 0.333273
Si Si4 0.386644 0.383695 0.910657
O O1 0.375874 0.680139 0.500000
O O2 0.500000 0.680171 0.383371
O O3 0.361364 0.819840 0.391723
O O4 0.319718 0.625686 0.361350
O O5 0.301670 0.836070 0.247051
O O6 0.331210 0.698261 0.141058
O O7 0.672804 0.000000 0.332804
O O8 0.500000 0.365643 0.897504
O O9 0.358246 0.500000 0.886460
O O10 0.358620 0.365158 0.000000
#
# Coordination Sequence:
#
# PCOD8268541 Si02
#       4
#    16   8  16  16
#     4   9  19  35  53  73  97 127 165 208 252 294
#     4  10  19  32  51  74 102 134 162 198 245 292
#     4  10  21  34  49  73 102 131 165 203 243 292
#     4   9  18  33  54  78 100 126 164 205 243 287
#
# _framework density 18.144857999999999
#
# number of rings (size 3 to 8) (size 9 to 14) (size 15 to 20)
#    0.000    2.857    0.000    3.857    0.000    8.000 
#    0.000    2.857    0.000    2.571    0.000   10.000 
#    0.000    0.000    0.000    0.000    0.000    0.000 
#
# Total GULP energy -347152.081200 kJ/mol
# GULP energy per Si atom -12398.288614 kJ/mol
# Density = 1.810356 g / cm^3
# Si number density = 18.144858 Si / 1000 Ang^3
#
#
#
# Elastic Constant Matrix: (Units=GPa)
#
#
# Indices 1 2 3 4 5 6 
#
# 1 73.1090 8.5271 44.6680 0.0000 0.0000 0.0000
# 2 8.5271 88.7637 35.3203 0.0000 0.0000 0.0000
# 3 44.6680 35.3203 88.4764 0.0000 0.0000 0.0000
# 4 0.0000 0.0000 0.0000 13.6344 0.0000 0.0000
# 5 0.0000 0.0000 0.0000 0.0000 12.5088 0.0000
# 6 0.0000 0.0000 0.0000 0.0000 0.0000 20.1093
#
#
#
# Elastic Compliance Matrix: (Units=1/GPa)
#
#
# Indices 1 2 3 4 5 6 
#
# 1 0.020244 0.002523 -0.011227 0.000000 0.000000 0.000000
# 2 0.002523 0.013708 -0.006746 0.000000 0.000000 0.000000
# 3 -0.011227 -0.006746 0.019664 0.000000 0.000000 0.000000
# 4 0.000000 0.000000 0.000000 0.073344 0.000000 0.000000
# 5 0.000000 0.000000 0.000000 0.000000 0.079944 0.000000
# 6 0.000000 0.000000 0.000000 0.000000 0.000000 0.049728
#
#
# Mechanical properties :
#
#
# Convention : Reuss Voigt Hill
#
# Bulk Modulus (GPa) = 44.02517 47.48666 45.75591
# Shear Modulus (GPa) = 16.94325 20.03941 18.49133
#
# Velocity S-wave (km/s) = 3.05909 3.32688 3.19579
# Velocity P-wave (km/s) = 6.06574 6.40196 6.23612
#
# Compressibility (1/GPa) = 0.02271428
#
# Stress axis : x y z
#
# Youngs Moduli (GPa) = 49.39844 72.95125 50.85542
#
# Poissons Ratio (x) = -0.18404 0.57096
# Poissons Ratio (y) = -0.12462 0.34306
# Poissons Ratio (z) = 0.55461 0.49212
#
# Static dielectric constant tensor:
#      x y z
#    x 3.242210 0.000000 0.000000 
#    y 0.000000 3.241730 0.000000 
#    z 0.000000 0.000000 3.390300 
# 
# 
# High freq. dielectric constant tensor:
#      x y z
#    x 1.691880 0.000000 0.000000 
#    y 0.000000 1.693970 0.000000 
#    z 0.000000 0.000000 1.710570 
# 
# From -- ./inp_files/52610.got.cif
#   From: 2010.03.12/outbox.cif.g09.slc.cpg/sg65_27_cif.got.tgz:52610.got - 2010.04.10 20:52:16.
