data_PCOD8268783
_publ_section_title
;
Structure prediction by ZEFSAII (Michael W. Deem and Ramdas Pophale) SiO2 
 PCOD8268783
Probable space group: C M M M
;
_chemical_formula_sum "Si O2"
_cell_formula_units_Z 112
_cell_length_a 19.484741
_cell_length_b 18.385290
_cell_length_c 17.232854
_cell_angle_alpha 90.000000
_cell_angle_beta 90.000000
_cell_angle_gamma 90.000000
_cell_volume 6173.370333
_symmetry_space_group_name_H-M "C M M M"
_symmetry_group_IT_number 65
_symmetry_cell_setting 'orthorhombic'
loop_
_space_group_symop_operation_xyz
x,y,z
-x,-y,z
x,-y,-z
-x,y,-z
-x,-y,-z
x,y,-z
-x,y,z
x,-y,z
1/2+x,1/2+y,z
1/2-x,1/2-y,z
1/2+x,1/2-y,-z
1/2-x,1/2+y,-z
1/2-x,1/2-y,-z
1/2+x,1/2+y,-z
1/2-x,1/2+y,z
1/2+x,1/2-y,z
loop_
_atom_site_type_symbol
_atom_site_label
_atom_site_fract_x
_atom_site_fract_y
_atom_site_fract_z
Si Si1 0.825364 0.724908 0.590117
Si Si2 0.076520 0.729106 0.868522
Si Si3 0.578702 0.695272 0.291839
Si Si4 0.317598 0.080979 0.325721
Si Si5 0.182510 0.084280 0.227877
Si Si6 0.799031 0.185897 0.913417
Si Si7 0.578967 0.079735 0.813597
O O1 0.837729 0.739493 0.500000
O O2 0.750000 0.750000 0.616985
O O3 0.882629 0.771274 0.634587
O O4 0.831851 0.638951 0.606845
O O5 0.082924 0.746696 0.777285
O O6 0.125082 0.779791 0.919278
O O7 0.096814 0.643309 0.875696
O O8 0.000000 0.743358 0.899691
O O9 0.500000 0.677567 0.314300
O O10 0.614798 0.620871 0.263859
O O11 0.244529 0.096720 0.286622
O O12 0.376659 0.088695 0.262818
O O13 0.318061 0.000000 0.362436
O O14 0.203554 0.118433 0.144867
O O15 0.166481 0.000000 0.213489
O O16 0.750000 0.250000 0.881703
O O17 0.777612 0.160174 0.000000
O O18 0.500000 0.088321 0.787783
O O19 0.592443 0.000000 0.851654
#
# Coordination Sequence:
#
# PCOD8268783 Si02
#       7
#    16  16  16  16  16  16  16
#     4  11  22  35  54  80 110 147 183 222 275 329
#     4   9  17  30  51  74  98 135 181 223 263 314
#     4  10  20  35  57  81 106 140 184 233 275 319
#     4  10  19  32  53  80 109 145 183 221 269 324
#     4  10  21  36  58  82 106 143 186 229 275 328
#     4  10  21  34  52  79 111 143 175 220 278 333
#     4   9  16  26  45  75 106 135 174 221 262 305
#
# _framework density 18.142440000000001
#
# number of rings (size 3 to 8) (size 9 to 14) (size 15 to 20)
#    0.000    2.143    2.857    0.857    2.000    1.429 
#    0.000    0.000    0.000    1.714    0.000   10.000 
#    0.000    0.000    0.000    0.000    0.000    0.000 
#
# Total GULP energy -694280.958861 kJ/mol
# GULP energy per Si atom -12397.874265 kJ/mol
# Density = 1.810115 g / cm^3
# Si number density = 18.142440 Si / 1000 Ang^3
#
#
#
# Elastic Constant Matrix: (Units=GPa)
#
#
# Indices 1 2 3 4 5 6 
#
# 1 83.1186 33.1135 23.4832 0.0000 0.0000 0.0000
# 2 33.1135 122.0789 33.5017 0.0000 0.0000 0.0000
# 3 23.4832 33.5017 58.0859 0.0000 0.0000 0.0000
# 4 0.0000 0.0000 0.0000 20.9778 0.0000 0.0000
# 5 0.0000 0.0000 0.0000 0.0000 18.2594 0.0000
# 6 0.0000 0.0000 0.0000 0.0000 0.0000 26.4710
#
#
#
# Elastic Compliance Matrix: (Units=1/GPa)
#
#
# Indices 1 2 3 4 5 6 
#
# 1 0.014307 -0.002725 -0.004212 0.000000 0.000000 0.000000
# 2 -0.002725 0.010251 -0.004811 0.000000 0.000000 0.000000
# 3 -0.004212 -0.004811 0.021694 0.000000 0.000000 0.000000
# 4 0.000000 0.000000 0.000000 0.047669 0.000000 0.000000
# 5 0.000000 0.000000 0.000000 0.000000 0.054766 0.000000
# 6 0.000000 0.000000 0.000000 0.000000 0.000000 0.037777
#
#
# Mechanical properties :
#
#
# Convention : Reuss Voigt Hill
#
# Bulk Modulus (GPa) = 43.94588 49.27559 46.61074
# Shear Modulus (GPa) = 22.98383 24.68731 23.83557
#
# Velocity S-wave (km/s) = 3.56315 3.69284 3.62857
# Velocity P-wave (km/s) = 6.41898 6.73811 6.58048
#
# Compressibility (1/GPa) = 0.02275526
#
# Stress axis : x y z
#
# Youngs Moduli (GPa) = 69.89790 97.55496 46.09671
#
# Poissons Ratio (x) = 0.26580 0.19418
# Poissons Ratio (y) = 0.19044 0.22176
# Poissons Ratio (z) = 0.29444 0.46930
#
# Static dielectric constant tensor:
#      x y z
#    x 3.507470 0.000000 0.000000 
#    y 0.000000 3.514080 0.000000 
#    z 0.000000 0.000000 2.955970 
# 
# 
# High freq. dielectric constant tensor:
#      x y z
#    x 1.713980 0.000000 0.000000 
#    y 0.000000 1.708420 0.000000 
#    z 0.000000 0.000000 1.670100 
# 
# From -- ./inp_files/54814.got.cif
#   From: 2010.03.12/outbox.cif.g09.slc.cpg/sg65_28_cif.got.tgz:54814.got - 2010.04.10 20:52:16.
