data_PCOD8268067
_publ_section_title
;
Structure prediction by ZEFSAII (Michael W. Deem and Ramdas Pophale) SiO2 
 PCOD8268067
Probable space group: C M M M
;
_chemical_formula_sum "Si O2"
_cell_formula_units_Z 80
_cell_length_a 17.865098
_cell_length_b 17.865861
_cell_length_c 14.574435
_cell_angle_alpha 90.000000
_cell_angle_beta 90.000000
_cell_angle_gamma 90.000000
_cell_volume 4651.800503
_symmetry_space_group_name_H-M "C M M M"
_symmetry_group_IT_number 65
_symmetry_cell_setting 'orthorhombic'
loop_
_space_group_symop_operation_xyz
x,y,z
-x,-y,z
x,-y,-z
-x,y,-z
-x,-y,-z
x,y,-z
-x,y,z
x,-y,z
1/2+x,1/2+y,z
1/2-x,1/2-y,z
1/2+x,1/2-y,-z
1/2-x,1/2+y,-z
1/2-x,1/2-y,-z
1/2+x,1/2+y,-z
1/2-x,1/2+y,z
1/2+x,1/2-y,z
loop_
_atom_site_type_symbol
_atom_site_label
_atom_site_fract_x
_atom_site_fract_y
_atom_site_fract_z
Si Si1 0.208138 0.083316 0.210639
Si Si2 0.253756 0.128741 0.400108
Si Si3 0.871264 0.253728 0.400108
Si Si4 0.187318 0.687334 0.897166
Si Si5 0.916682 0.791896 0.210639
O O1 0.232657 0.074164 0.316973
O O2 0.278978 0.115665 0.154997
O O3 0.134871 0.134852 0.197612
O O4 0.189249 0.000000 0.174200
O O5 0.249267 0.087719 0.500000
O O6 0.196879 0.196868 0.397765
O O7 0.336844 0.163180 0.386012
O O8 0.912287 0.249229 0.500000
O O9 0.925839 0.232618 0.316974
O O10 0.250000 0.750000 0.899378
O O11 0.115654 0.721052 0.845002
O O12 0.163751 0.663773 0.000000
O O13 0.000000 0.810798 0.174202
#
# Coordination Sequence:
#
# PCOD8268067 Si02
#       5
#    16  16  16  16  16
#     4  10  19  31  49  74 103 132 162 197 239 289
#     4   8  13  24  44  68  94 125 164 207 241 271
#     4   8  13  24  44  68  94 125 164 207 241 271
#     4   9  18  34  53  70  90 121 165 210 246 283
#     4  10  19  31  49  74 103 132 162 197 239 289
#
# _framework density 17.197642999999999
#
# number of rings (size 3 to 8) (size 9 to 14) (size 15 to 20)
#    0.000    3.000    2.000    1.200    0.000    2.000 
#    0.000    0.000    0.000    0.600    0.000   12.600 
#    0.000    3.200    0.000    0.000    0.000    0.000 
#
# Total GULP energy -495523.801296 kJ/mol
# GULP energy per Si atom -12388.095032 kJ/mol
# Density = 1.715850 g / cm^3
# Si number density = 17.197643 Si / 1000 Ang^3
#
#
#
# Elastic Constant Matrix: (Units=GPa)
#
#
# Indices 1 2 3 4 5 6 
#
# 1 72.0829 52.7878 37.1083 0.0000 0.0000 0.0000
# 2 52.7878 72.1540 37.1326 0.0000 0.0000 0.0000
# 3 37.1083 37.1326 114.5562 0.0000 0.0000 0.0000
# 4 0.0000 0.0000 0.0000 9.0584 0.0000 0.0000
# 5 0.0000 0.0000 0.0000 0.0000 9.0554 0.0000
# 6 0.0000 0.0000 0.0000 0.0000 0.0000 10.9898
#
#
#
# Elastic Compliance Matrix: (Units=1/GPa)
#
#
# Indices 1 2 3 4 5 6 
#
# 1 0.030838 -0.020908 -0.003212 0.000000 0.000000 0.000000
# 2 -0.020908 0.030809 -0.003214 0.000000 0.000000 0.000000
# 3 -0.003212 -0.003214 0.010812 0.000000 0.000000 0.000000
# 4 0.000000 0.000000 0.000000 0.110395 0.000000 0.000000
# 5 0.000000 0.000000 0.000000 0.000000 0.110431 0.000000
# 6 0.000000 0.000000 0.000000 0.000000 0.000000 0.090994
#
#
# Mechanical properties :
#
#
# Convention : Reuss Voigt Hill
#
# Bulk Modulus (GPa) = 56.20855 56.98341 56.59598
# Shear Modulus (GPa) = 11.23905 14.60500 12.92203
#
# Velocity S-wave (km/s) = 2.55918 2.91734 2.74411
# Velocity P-wave (km/s) = 6.44107 6.67489 6.55902
#
# Compressibility (1/GPa) = 0.01779089
#
# Stress axis : x y z
#
# Youngs Moduli (GPa) = 32.42774 32.45760 92.49281
#
# Poissons Ratio (x) = 0.67862 0.29710
# Poissons Ratio (y) = 0.67799 0.29727
# Poissons Ratio (z) = 0.10416 0.10432
#
# Static dielectric constant tensor:
#      x y z
#    x 2.849610 0.000000 0.000000 
#    y 0.000000 2.849600 0.000000 
#    z 0.000000 0.000000 3.721910 
# 
# 
# High freq. dielectric constant tensor:
#      x y z
#    x 1.627180 0.000000 0.000000 
#    y 0.000000 1.627180 0.000000 
#    z 0.000000 0.000000 1.678190 
# 
# From -- ./inp_files/42336.got.cif
#   From: 2010.03.12/outbox.cif.g09.slc.cpg/sg65_22_cif.got.tgz:42336.got - 2010.04.10 20:52:16.
