data_PCOD8268462
_publ_section_title
;
Structure prediction by ZEFSAII (Michael W. Deem and Ramdas Pophale) SiO2 
 PCOD8268462
Probable space group: C M M M
;
_chemical_formula_sum "Si O2"
_cell_formula_units_Z 120
_cell_length_a 18.827077
_cell_length_b 19.692001
_cell_length_c 19.123065
_cell_angle_alpha 90.000000
_cell_angle_beta 90.000000
_cell_angle_gamma 90.000000
_cell_volume 7089.739028
_symmetry_space_group_name_H-M "C M M M"
_symmetry_group_IT_number 65
_symmetry_cell_setting 'orthorhombic'
loop_
_space_group_symop_operation_xyz
x,y,z
-x,-y,z
x,-y,-z
-x,y,-z
-x,-y,-z
x,y,-z
-x,y,z
x,-y,z
1/2+x,1/2+y,z
1/2-x,1/2-y,z
1/2+x,1/2-y,-z
1/2-x,1/2+y,-z
1/2-x,1/2-y,-z
1/2+x,1/2+y,-z
1/2-x,1/2+y,z
1/2+x,1/2-y,z
loop_
_atom_site_type_symbol
_atom_site_label
_atom_site_fract_x
_atom_site_fract_y
_atom_site_fract_z
Si Si1 0.079428 0.000000 0.581884
Si Si2 0.922581 0.782817 0.185609
Si Si3 0.169448 0.116238 0.647678
Si Si4 0.256638 0.075490 0.079998
Si Si5 0.142046 0.923149 0.799780
Si Si6 0.324053 0.212360 0.923730
Si Si7 0.917125 0.748890 0.341486
Si Si8 0.703624 0.182425 0.580002
O O1 0.123944 0.063886 0.604759
O O2 0.071031 0.000000 0.500000
O O3 0.000000 0.000000 0.615937
O O4 0.917230 0.864704 0.193572
O O5 0.867929 0.752258 0.132454
O O6 0.911627 0.742847 0.257987
O O7 0.000000 0.767753 0.155600
O O8 0.183128 0.092577 0.727513
O O9 0.120610 0.181817 0.637331
O O10 0.248172 0.123934 0.615114
O O11 0.192244 0.083859 0.133351
O O12 0.314978 0.132997 0.097321
O O13 0.290471 0.000000 0.088186
O O14 0.228679 0.086062 0.000000
O O15 0.109615 0.000000 0.797103
O O16 0.250000 0.250000 0.926872
O O17 0.360952 0.216505 0.000000
O O18 0.871449 0.689075 0.378549
O O19 0.000000 0.746731 0.365773
O O20 0.686226 0.163499 0.500000
O O21 0.750000 0.250000 0.585236
#
# Coordination Sequence:
#
# PCOD8268462 Si02
#       8
#     8  16  16  16  16  16  16  16
#     4  11  22  34  50  72 104 142 170 202 251 306
#     4  10  21  33  48  74 106 138 172 215 261 306
#     4  10  19  33  49  73 103 134 174 213 250 307
#     4   9  18  32  52  78 106 131 169 219 260 304
#     4  10  19  32  50  74 101 142 178 207 256 304
#     4  10  19  32  53  76 100 137 178 217 259 308
#     4   9  19  33  49  71  99 134 170 210 261 314
#     4   9  18  31  49  71  96 127 164 214 265 307
#
# _framework density 16.92587
#
# number of rings (size 3 to 8) (size 9 to 14) (size 15 to 20)
#    0.000    2.333    2.000    0.800    1.867    2.400 
#    0.000    0.000    0.000    0.400    0.000    5.133 
#    0.000    1.600    0.000    0.000    0.000    0.000 
#
# Total GULP energy -743479.282779 kJ/mol
# GULP energy per Si atom -12391.321380 kJ/mol
# Density = 1.688735 g / cm^3
# Si number density = 16.925870 Si / 1000 Ang^3
#
#
#
# Elastic Constant Matrix: (Units=GPa)
#
#
# Indices 1 2 3 4 5 6 
#
# 1 95.3677 36.0936 47.5300 0.0000 0.0000 0.0000
# 2 36.0936 75.0771 33.2242 0.0000 0.0000 0.0000
# 3 47.5300 33.2242 88.7315 0.0000 0.0000 0.0000
# 4 0.0000 0.0000 0.0000 19.4712 0.0000 0.0000
# 5 0.0000 0.0000 0.0000 0.0000 -1.2923 0.0000
# 6 0.0000 0.0000 0.0000 0.0000 0.0000 11.9310
#
#
#
# Elastic Compliance Matrix: (Units=1/GPa)
#
#
# Indices 1 2 3 4 5 6 
#
# 1 0.015489 -0.004524 -0.006603 0.000000 0.000000 0.000000
# 2 -0.004524 0.017287 -0.004049 0.000000 0.000000 0.000000
# 3 -0.006603 -0.004049 0.016323 0.000000 0.000000 0.000000
# 4 0.000000 0.000000 0.000000 0.051358 0.000000 0.000000
# 5 0.000000 0.000000 0.000000 0.000000 -0.773831 0.000000
# 6 0.000000 0.000000 0.000000 0.000000 0.000000 0.083815
#
#
# Mechanical properties :
#
#
# Convention : Reuss Voigt Hill
#
# Bulk Modulus (GPa) = 53.34507 54.76354 54.05430
# Shear Modulus (GPa) = -9.04227 15.51054 3.23413
#
# Velocity S-wave (km/s) = -2.31384 3.03046 1.38380
# Velocity P-wave (km/s) = 4.94437 6.68357 5.87864
#
# Compressibility (1/GPa) = 0.01874588
#
# Stress axis : x y z
#
# Youngs Moduli (GPa) = 64.56310 57.84803 61.26363
#
# Poissons Ratio (x) = 0.26173 0.40450
# Poissons Ratio (y) = 0.29211 0.24807
# Poissons Ratio (z) = 0.42629 0.23424
#
# Static dielectric constant tensor:
#      x y z
#    x 3.046330 0.000000 0.000000 
#    y 0.000000 3.396700 0.000000 
#    z 0.000000 0.000000 3.345400 
# 
# 
# High freq. dielectric constant tensor:
#      x y z
#    x 1.624690 0.000000 0.000000 
#    y 0.000000 1.643710 0.000000 
#    z 0.000000 0.000000 1.667660 
# 
# From -- ./inp_files/54995.got.cif
#   From: 2010.03.12/outbox.cif.g09.slc.cpg/sg65_28_cif.got.tgz:54995.got - 2010.04.10 20:52:16.
