data_PCOD8268471
_publ_section_title
;
Structure prediction by ZEFSAII (Michael W. Deem and Ramdas Pophale) SiO2 
 PCOD8268471
Probable space group: C M M M
;
_chemical_formula_sum "Si O2"
_cell_formula_units_Z 104
_cell_length_a 9.202836
_cell_length_b 28.373805
_cell_length_c 23.263145
_cell_angle_alpha 90.000000
_cell_angle_beta 90.000000
_cell_angle_gamma 90.000000
_cell_volume 6074.460189
_symmetry_space_group_name_H-M "C M M M"
_symmetry_group_IT_number 65
_symmetry_cell_setting 'orthorhombic'
loop_
_space_group_symop_operation_xyz
x,y,z
-x,-y,z
x,-y,-z
-x,y,-z
-x,-y,-z
x,y,-z
-x,y,z
x,-y,z
1/2+x,1/2+y,z
1/2-x,1/2-y,z
1/2+x,1/2-y,-z
1/2-x,1/2+y,-z
1/2-x,1/2-y,-z
1/2+x,1/2+y,-z
1/2-x,1/2+y,z
1/2+x,1/2-y,z
loop_
_atom_site_type_symbol
_atom_site_label
_atom_site_fract_x
_atom_site_fract_y
_atom_site_fract_z
Si Si1 0.664141 0.297109 0.000000
Si Si2 0.171063 0.800235 0.124831
Si Si3 0.669827 0.140010 0.780637
Si Si4 0.667274 0.553627 0.738896
Si Si5 0.668976 0.447287 0.605892
Si Si6 0.667854 0.859789 0.435808
Si Si7 0.830835 0.298443 0.669103
O O1 0.750000 0.250000 0.000000
O O2 0.696010 0.323369 0.939276
O O3 0.500000 0.280162 0.000000
O O4 0.250000 0.750000 0.130691
O O5 0.241773 0.836201 0.168521
O O6 0.000000 0.793688 0.138441
O O7 0.500000 0.139812 0.795534
O O8 0.727010 0.086698 0.775691
O O9 0.703079 0.166959 0.721570
O O10 0.500000 0.568374 0.748752
O O11 0.692325 0.500000 0.759217
O O12 0.709409 0.559085 0.672402
O O13 0.500000 0.438348 0.595908
O O14 0.711342 0.500000 0.585718
O O15 0.755223 0.410121 0.567871
O O16 0.691735 0.839279 0.500000
O O17 0.500000 0.868785 0.422107
O O18 0.729688 0.822510 0.389430
O O19 0.750000 0.250000 0.680530
O O20 0.000000 0.286928 0.663794
#
# Coordination Sequence:
#
# PCOD8268471 Si02
#       7
#     8  16  16  16  16  16  16
#     4   8  16  30  48  70 101 140 177 212 248 289
#     4  10  19  32  50  75 107 142 178 213 250 293
#     4  11  21  33  51  77 105 134 169 206 251 301
#     4   9  18  33  53  76 101 130 163 202 251 303
#     4   9  18  33  53  76 100 125 156 197 247 301
#     4  10  21  37  53  70  95 127 164 205 250 301
#     4  10  22  37  51  70  95 126 163 206 250 294
#
# _framework density 17.120863
#
# number of rings (size 3 to 8) (size 9 to 14) (size 15 to 20)
#    0.000    2.308    1.538    2.308    0.000    5.231 
#    0.000    3.077    0.000    0.000    0.000    0.538 
#    0.000    4.308    0.000    0.000    0.000    0.000 
#
# Total GULP energy -644627.111463 kJ/mol
# GULP energy per Si atom -12396.675220 kJ/mol
# Density = 1.708189 g / cm^3
# Si number density = 17.120863 Si / 1000 Ang^3
#
#
#
# Elastic Constant Matrix: (Units=GPa)
#
#
# Indices 1 2 3 4 5 6 
#
# 1 70.4072 41.5974 47.6976 0.0000 0.0000 0.0000
# 2 41.5974 84.5258 38.5823 0.0000 0.0000 0.0000
# 3 47.6976 38.5823 103.5242 0.0000 0.0000 0.0000
# 4 0.0000 0.0000 0.0000 10.7599 0.0000 0.0000
# 5 0.0000 0.0000 0.0000 0.0000 24.7703 0.0000
# 6 0.0000 0.0000 0.0000 0.0000 0.0000 31.0716
#
#
#
# Elastic Compliance Matrix: (Units=1/GPa)
#
#
# Indices 1 2 3 4 5 6 
#
# 1 0.024788 -0.008418 -0.008284 0.000000 0.000000 0.000000
# 2 -0.008418 0.017114 -0.002500 0.000000 0.000000 0.000000
# 3 -0.008284 -0.002500 0.014408 0.000000 0.000000 0.000000
# 4 0.000000 0.000000 0.000000 0.092938 0.000000 0.000000
# 5 0.000000 0.000000 0.000000 0.000000 0.040371 0.000000
# 6 0.000000 0.000000 0.000000 0.000000 0.000000 0.032184
#
#
# Mechanical properties :
#
#
# Convention : Reuss Voigt Hill
#
# Bulk Modulus (GPa) = 55.84192 57.13466 56.48829
# Shear Modulus (GPa) = 18.78463 22.02568 20.40515
#
# Velocity S-wave (km/s) = 3.31596 3.59065 3.45603
# Velocity P-wave (km/s) = 6.88098 7.11577 6.99936
#
# Compressibility (1/GPa) = 0.01790769
#
# Stress axis : x y z
#
# Youngs Moduli (GPa) = 40.34168 58.43014 69.40635
#
# Poissons Ratio (x) = 0.49185 0.57494
# Poissons Ratio (y) = 0.33959 0.17351
# Poissons Ratio (z) = 0.33418 0.14607
#
# Static dielectric constant tensor:
#      x y z
#    x 3.208920 0.000000 0.000000 
#    y 0.000000 3.053200 0.000000 
#    z 0.000000 0.000000 3.526570 
# 
# 
# High freq. dielectric constant tensor:
#      x y z
#    x 1.665200 0.000000 0.000000 
#    y 0.000000 1.643970 0.000000 
#    z 0.000000 0.000000 1.656170 
# 
# From -- ./inp_files/68156.got.cif
#   From: 2010.03.12/outbox.cif.g09.slc.cpg/sg65_35_cif.got.tgz:68156.got - 2010.04.10 20:52:16.
