data_PCOD8268252
_publ_section_title
;
Structure prediction by ZEFSAII (Michael W. Deem and Ramdas Pophale) SiO2 
 PCOD8268252
Probable space group: C M M M
;
_chemical_formula_sum "Si O2"
_cell_formula_units_Z 80
_cell_length_a 8.628012
_cell_length_b 29.386066
_cell_length_c 16.802266
_cell_angle_alpha 90.000000
_cell_angle_beta 90.000000
_cell_angle_gamma 90.000000
_cell_volume 4260.102475
_symmetry_space_group_name_H-M "C M M M"
_symmetry_group_IT_number 65
_symmetry_cell_setting 'orthorhombic'
loop_
_space_group_symop_operation_xyz
x,y,z
-x,-y,z
x,-y,-z
-x,y,-z
-x,-y,-z
x,y,-z
-x,y,z
x,-y,z
1/2+x,1/2+y,z
1/2-x,1/2-y,z
1/2+x,1/2-y,-z
1/2-x,1/2+y,-z
1/2-x,1/2-y,-z
1/2+x,1/2+y,-z
1/2-x,1/2+y,z
1/2+x,1/2-y,z
loop_
_atom_site_type_symbol
_atom_site_label
_atom_site_fract_x
_atom_site_fract_y
_atom_site_fract_z
Si Si1 0.184552 0.050416 0.588441
Si Si2 0.683366 0.627542 0.701207
Si Si3 0.316472 0.199166 0.000000
Si Si4 0.319961 0.799480 0.588855
Si Si5 0.317253 0.448703 0.000000
Si Si6 0.684226 0.628244 0.880855
O O1 0.243347 0.063775 0.500000
O O2 0.255257 0.084862 0.653093
O O3 0.000000 0.052086 0.589696
O O4 0.243070 0.000000 0.610702
O O5 0.500000 0.624325 0.703436
O O6 0.732019 0.672716 0.656049
O O7 0.747615 0.626848 0.790873
O O8 0.250000 0.250000 0.000000
O O9 0.260049 0.172042 0.922125
O O10 0.500000 0.202195 0.000000
O O11 0.292479 0.819918 0.500000
O O12 0.500000 0.797808 0.609812
O O13 0.250000 0.750000 0.592647
O O14 0.265354 0.419333 0.077234
O O15 0.242905 0.500000 0.000000
O O16 0.500000 0.454507 0.000000
O O17 0.500000 0.634309 0.886144
#
# Coordination Sequence:
#
# PCOD8268252 Si02
#       6
#    16  16   8  16   8  16
#     4   8  14  25  43  71 106 140 174 211 249 290
#     4  10  19  31  51  77 106 138 169 208 255 299
#     4  11  22  38  60  78  97 130 166 204 253 306
#     4  10  21  36  53  73  99 133 173 215 257 302
#     4   8  14  28  51  75 102 136 168 202 246 295
#     4   9  19  34  51  78 110 134 165 207 250 302
#
# _framework density 18.778891000000002
#
# number of rings (size 3 to 8) (size 9 to 14) (size 15 to 20)
#    0.000    2.700    0.000    3.300    0.000    4.400 
#    0.000    4.000    0.000    5.400    0.000    8.400 
#    0.000    0.000    0.000    0.000    0.000    0.000 
#
# Total GULP energy -495814.441634 kJ/mol
# GULP energy per Si atom -12395.361041 kJ/mol
# Density = 1.873615 g / cm^3
# Si number density = 18.778891 Si / 1000 Ang^3
#
#
#
# Elastic Constant Matrix: (Units=GPa)
#
#
# Indices 1 2 3 4 5 6 
#
# 1 22.5739 19.2420 20.7919 0.0000 0.0000 0.0000
# 2 19.2420 139.2123 82.7107 0.0000 0.0000 0.0000
# 3 20.7919 82.7107 173.6199 0.0000 0.0000 0.0000
# 4 0.0000 0.0000 0.0000 14.3426 0.0000 0.0000
# 5 0.0000 0.0000 0.0000 0.0000 19.5201 0.0000
# 6 0.0000 0.0000 0.0000 0.0000 0.0000 17.3038
#
#
#
# Elastic Compliance Matrix: (Units=1/GPa)
#
#
# Indices 1 2 3 4 5 6 
#
# 1 0.052055 -0.004870 -0.003914 0.000000 0.000000 0.000000
# 2 -0.004870 0.010475 -0.004407 0.000000 0.000000 0.000000
# 3 -0.003914 -0.004407 0.008328 0.000000 0.000000 0.000000
# 4 0.000000 0.000000 0.000000 0.069722 0.000000 0.000000
# 5 0.000000 0.000000 0.000000 0.000000 0.051229 0.000000
# 6 0.000000 0.000000 0.000000 0.000000 0.000000 0.057791
#
#
# Mechanical properties :
#
#
# Convention : Reuss Voigt Hill
#
# Bulk Modulus (GPa) = 22.48389 64.54393 43.51391
# Shear Modulus (GPa) = 17.19361 24.41074 20.80217
#
# Velocity S-wave (km/s) = 3.02914 3.60933 3.33189
# Velocity P-wave (km/s) = 4.92272 7.19825 6.16636
#
# Compressibility (1/GPa) = 0.04447629
#
# Stress axis : x y z
#
# Youngs Moduli (GPa) = 19.21054 95.46905 120.07970
#
# Poissons Ratio (x) = 0.46490 0.46999
# Poissons Ratio (y) = 0.09355 0.52917
# Poissons Ratio (z) = 0.07519 0.42072
#
# Static dielectric constant tensor:
#      x y z
#    x 3.070250 0.000000 0.000000 
#    y 0.000000 3.622730 0.000000 
#    z 0.000000 0.000000 3.759960 
# 
# 
# High freq. dielectric constant tensor:
#      x y z
#    x 1.692700 0.000000 0.000000 
#    y 0.000000 1.737220 0.000000 
#    z 0.000000 0.000000 1.734080 
# 
# From -- ./inp_files/49968.got.cif
#   From: 2010.03.12/outbox.cif.g09.slc.cpg/sg65_25_cif.got.tgz:49968.got - 2010.04.10 20:52:16.
