data_PCOD8268500
_publ_section_title
;
Structure prediction by ZEFSAII (Michael W. Deem and Ramdas Pophale) SiO2 
 PCOD8268500
Probable space group: C M M M
;
_chemical_formula_sum "Si O2"
_cell_formula_units_Z 104
_cell_length_a 29.745140
_cell_length_b 22.503338
_cell_length_c 8.886661
_cell_angle_alpha 90.000000
_cell_angle_beta 90.000000
_cell_angle_gamma 90.000000
_cell_volume 5948.419301
_symmetry_space_group_name_H-M "C M M M"
_symmetry_group_IT_number 65
_symmetry_cell_setting 'orthorhombic'
loop_
_space_group_symop_operation_xyz
x,y,z
-x,-y,z
x,-y,-z
-x,y,-z
-x,-y,-z
x,y,-z
-x,y,z
x,-y,z
1/2+x,1/2+y,z
1/2-x,1/2-y,z
1/2+x,1/2-y,-z
1/2-x,1/2+y,-z
1/2-x,1/2-y,-z
1/2+x,1/2+y,-z
1/2-x,1/2+y,z
1/2+x,1/2-y,z
loop_
_atom_site_type_symbol
_atom_site_label
_atom_site_fract_x
_atom_site_fract_y
_atom_site_fract_z
Si Si1 0.627973 0.931658 0.677591
Si Si2 0.053181 0.000000 0.328112
Si Si3 0.950490 0.652127 0.678310
Si Si4 0.718570 0.929412 0.169290
Si Si5 0.947687 0.786762 0.673421
Si Si6 0.397952 0.608766 0.822802
Si Si7 0.809090 0.069774 0.324809
O O1 0.633477 0.924130 0.500000
O O2 0.586277 0.893656 0.742612
O O3 0.673124 0.906058 0.753045
O O4 0.619236 0.000000 0.721790
O O5 0.071145 0.941491 0.249152
O O6 0.070274 0.000000 0.500000
O O7 0.000000 0.000000 0.318346
O O8 0.952618 0.646983 0.500000
O O9 0.937393 0.719222 0.722634
O O10 0.000000 0.636106 0.743879
O O11 0.761485 0.906772 0.262606
O O12 0.718084 0.000000 0.170842
O O13 0.721326 0.904491 0.000000
O O14 0.934169 0.797924 0.500000
O O15 0.918032 0.827474 0.781241
O O16 0.000000 0.801662 0.696472
O O17 0.347479 0.605505 0.761476
O O18 0.397436 0.599893 0.000000
O O19 0.811498 0.084462 0.500000
O O20 0.815830 0.000000 0.293137
#
# Coordination Sequence:
#
# PCOD8268500 Si02
#       7
#    16   8  16  16  16  16  16
#     4   9  16  27  47  77 108 134 164 202 248 298
#     4  11  23  37  51  69  97 133 169 205 250 301
#     4   8  15  29  50  75 101 132 171 211 246 287
#     4   9  17  29  46  69 100 134 166 200 243 295
#     4   9  18  34  53  69  91 130 176 212 245 293
#     4  12  23  33  49  73 101 128 161 208 259 303
#     4  10  19  32  51  72  97 128 165 204 247 300
#
# _framework density 17.483637000000002
#
# number of rings (size 3 to 8) (size 9 to 14) (size 15 to 20)
#    0.000    2.385    0.769    3.923    0.000    5.538 
#    0.000    2.308    0.000    2.308    0.000    8.615 
#    0.000    0.000    0.000    0.000    0.000    0.000 
#
# Total GULP energy -644822.686864 kJ/mol
# GULP energy per Si atom -12400.436286 kJ/mol
# Density = 1.744384 g / cm^3
# Si number density = 17.483637 Si / 1000 Ang^3
#
#
#
# Elastic Constant Matrix: (Units=GPa)
#
#
# Indices 1 2 3 4 5 6 
#
# 1 145.9727 66.2630 63.5430 0.0000 0.0000 0.0000
# 2 66.2630 74.4687 38.5209 0.0000 0.0000 0.0000
# 3 63.5430 38.5209 98.8221 0.0000 0.0000 0.0000
# 4 0.0000 0.0000 0.0000 9.6131 0.0000 0.0000
# 5 0.0000 0.0000 0.0000 0.0000 4.9167 0.0000
# 6 0.0000 0.0000 0.0000 0.0000 0.0000 12.2099
#
#
#
# Elastic Compliance Matrix: (Units=1/GPa)
#
#
# Indices 1 2 3 4 5 6 
#
# 1 0.013131 -0.009165 -0.004871 0.000000 0.000000 0.000000
# 2 -0.009165 0.023216 -0.003157 0.000000 0.000000 0.000000
# 3 -0.004871 -0.003157 0.014482 0.000000 0.000000 0.000000
# 4 0.000000 0.000000 0.000000 0.104024 0.000000 0.000000
# 5 0.000000 0.000000 0.000000 0.000000 0.203389 0.000000
# 6 0.000000 0.000000 0.000000 0.000000 0.000000 0.081901
#
#
# Mechanical properties :
#
#
# Convention : Reuss Voigt Hill
#
# Bulk Modulus (GPa) = 60.81141 72.87972 66.84556
# Shear Modulus (GPa) = 10.41646 15.41038 12.91342
#
# Velocity S-wave (km/s) = 2.44352 2.97209 2.72067
# Velocity P-wave (km/s) = 6.54358 7.31798 6.94158
#
# Compressibility (1/GPa) = 0.01644428
#
# Stress axis : x y z
#
# Youngs Moduli (GPa) = 76.15468 43.07353 69.05207
#
# Poissons Ratio (x) = 0.39475 0.33636
# Poissons Ratio (y) = 0.69792 0.21798
# Poissons Ratio (z) = 0.37095 0.13597
#
# Static dielectric constant tensor:
#      x y z
#    x 3.535630 0.000000 0.000000 
#    y 0.000000 3.079050 0.000000 
#    z 0.000000 0.000000 3.170640 
# 
# 
# High freq. dielectric constant tensor:
#      x y z
#    x 1.687270 0.000000 0.000000 
#    y 0.000000 1.643740 0.000000 
#    z 0.000000 0.000000 1.666360 
# 
# From -- ./inp_files/16752.got.cif
#   From: 2010.03.12/outbox.cif.g09.slc.cpg/sg65_9_cif.got.tgz:16752.got - 2010.04.10 20:52:16.
