data_PCOD8268605
_publ_section_title
;
Structure prediction by ZEFSAII (Michael W. Deem and Ramdas Pophale) SiO2 
 PCOD8268605
Probable space group: C M M M
;
_chemical_formula_sum "Si O2"
_cell_formula_units_Z 104
_cell_length_a 9.246303
_cell_length_b 28.145954
_cell_length_c 22.757052
_cell_angle_alpha 90.000000
_cell_angle_beta 90.000000
_cell_angle_gamma 90.000000
_cell_volume 5922.432185
_symmetry_space_group_name_H-M "C M M M"
_symmetry_group_IT_number 65
_symmetry_cell_setting 'orthorhombic'
loop_
_space_group_symop_operation_xyz
x,y,z
-x,-y,z
x,-y,-z
-x,y,-z
-x,-y,-z
x,y,-z
-x,y,z
x,-y,z
1/2+x,1/2+y,z
1/2-x,1/2-y,z
1/2+x,1/2-y,-z
1/2-x,1/2+y,-z
1/2-x,1/2-y,-z
1/2+x,1/2+y,-z
1/2-x,1/2+y,z
1/2+x,1/2-y,z
loop_
_atom_site_type_symbol
_atom_site_label
_atom_site_fract_x
_atom_site_fract_y
_atom_site_fract_z
Si Si1 0.168358 0.798928 0.776339
Si Si2 0.668679 0.054023 0.844911
Si Si3 0.330672 0.360641 0.887967
Si Si4 0.832165 0.297711 0.431857
Si Si5 0.833005 0.855062 0.340726
Si Si6 0.664614 0.446740 0.726019
Si Si7 0.169967 0.200284 0.000000
O O1 0.250000 0.750000 0.783401
O O2 0.215455 0.833670 0.828710
O O3 0.210080 0.823234 0.715097
O O4 0.000000 0.787692 0.780358
O O5 0.500000 0.065422 0.843256
O O6 0.746330 0.089271 0.890639
O O7 0.730436 0.062834 0.780060
O O8 0.699050 0.000000 0.865300
O O9 0.500000 0.371769 0.890134
O O10 0.281748 0.329156 0.943005
O O11 0.806839 0.309174 0.500000
O O12 0.750000 0.250000 0.412693
O O13 0.767294 0.341434 0.395454
O O14 0.000000 0.290931 0.416867
O O15 0.800274 0.910173 0.326293
O O16 0.000000 0.847380 0.358012
O O17 0.500000 0.438037 0.748342
O O18 0.684413 0.500000 0.701024
O O19 0.250000 0.250000 0.000000
O O20 0.000000 0.210447 0.000000
#
# Coordination Sequence:
#
# PCOD8268605 Si02
#       7
#    16  16  16  16  16  16   8
#     4  10  20  32  47  72 104 133 165 208 257 307
#     4  10  20  33  52  80 108 135 171 214 263 316
#     4  10  20  37  55  75 103 138 178 216 257 311
#     4  10  21  36  53  74 102 139 179 216 257 305
#     4  10  19  32  51  78 106 134 171 212 259 310
#     4   9  17  32  54  78 107 141 172 208 258 312
#     4  10  22  38  59  80 103 139 182 221 259 312
#
# _framework density 17.560354
#
# number of rings (size 3 to 8) (size 9 to 14) (size 15 to 20)
#    0.000    2.154    1.538    1.846    0.000    5.538 
#    0.000    0.385    0.000    2.769    0.000    3.231 
#    0.000    0.000    0.000    0.000    0.000    0.000 
#
# Total GULP energy -644953.162409 kJ/mol
# GULP energy per Si atom -12402.945431 kJ/mol
# Density = 1.752039 g / cm^3
# Si number density = 17.560354 Si / 1000 Ang^3
#
#
#
# Elastic Constant Matrix: (Units=GPa)
#
#
# Indices 1 2 3 4 5 6 
#
# 1 81.2171 70.6360 49.5636 0.0000 0.0000 0.0000
# 2 70.6360 143.0937 57.8460 0.0000 0.0000 0.0000
# 3 49.5636 57.8460 85.8455 0.0000 0.0000 0.0000
# 4 0.0000 0.0000 0.0000 28.5842 0.0000 0.0000
# 5 0.0000 0.0000 0.0000 0.0000 22.7037 0.0000
# 6 0.0000 0.0000 0.0000 0.0000 0.0000 33.3395
#
#
#
# Elastic Compliance Matrix: (Units=1/GPa)
#
#
# Indices 1 2 3 4 5 6 
#
# 1 0.025457 -0.009105 -0.008562 0.000000 0.000000 0.000000
# 2 -0.009105 0.012861 -0.003410 0.000000 0.000000 0.000000
# 3 -0.008562 -0.003410 0.018890 0.000000 0.000000 0.000000
# 4 0.000000 0.000000 0.000000 0.034984 0.000000 0.000000
# 5 0.000000 0.000000 0.000000 0.000000 0.044046 0.000000
# 6 0.000000 0.000000 0.000000 0.000000 0.000000 0.029994
#
#
# Mechanical properties :
#
#
# Convention : Reuss Voigt Hill
#
# Bulk Modulus (GPa) = 66.42737 74.02751 70.22744
# Shear Modulus (GPa) = 23.42971 25.73286 24.58128
#
# Velocity S-wave (km/s) = 3.65669 3.83220 3.74547
# Velocity P-wave (km/s) = 7.46583 7.86312 7.66705
#
# Compressibility (1/GPa) = 0.01505404
#
# Stress axis : x y z
#
# Youngs Moduli (GPa) = 39.28238 77.75268 52.93834
#
# Poissons Ratio (x) = 0.70793 0.45328
# Poissons Ratio (y) = 0.35766 0.18050
# Poissons Ratio (z) = 0.33635 0.26511
#
# Static dielectric constant tensor:
#      x y z
#    x 3.259320 0.000000 0.000000 
#    y 0.000000 3.409970 0.000000 
#    z 0.000000 0.000000 3.121140 
# 
# 
# High freq. dielectric constant tensor:
#      x y z
#    x 1.679110 0.000000 0.000000 
#    y 0.000000 1.687110 0.000000 
#    z 0.000000 0.000000 1.659600 
# 
# From -- ./inp_files/60850.got.cif
#   From: 2010.03.12/outbox.cif.g09.slc.cpg/sg65_31_cif.got.tgz:60850.got - 2010.04.10 20:52:16.
