data_PCOD8268509
_publ_section_title
;
Structure prediction by ZEFSAII (Michael W. Deem and Ramdas Pophale) SiO2 
 PCOD8268509
Probable space group: C M M M
;
_chemical_formula_sum "Si O2"
_cell_formula_units_Z 88
_cell_length_a 19.392458
_cell_length_b 9.433704
_cell_length_c 28.189098
_cell_angle_alpha 90.000000
_cell_angle_beta 90.000000
_cell_angle_gamma 90.000000
_cell_volume 5156.989941
_symmetry_space_group_name_H-M "C M M M"
_symmetry_group_IT_number 65
_symmetry_cell_setting 'orthorhombic'
loop_
_space_group_symop_operation_xyz
x,y,z
-x,-y,z
x,-y,-z
-x,y,-z
-x,-y,-z
x,y,-z
-x,y,z
x,-y,z
1/2+x,1/2+y,z
1/2-x,1/2-y,z
1/2+x,1/2-y,-z
1/2-x,1/2+y,-z
1/2-x,1/2-y,-z
1/2+x,1/2+y,-z
1/2-x,1/2+y,z
1/2+x,1/2-y,z
loop_
_atom_site_type_symbol
_atom_site_label
_atom_site_fract_x
_atom_site_fract_y
_atom_site_fract_z
Si Si1 0.419351 0.664958 0.827575
Si Si2 0.421400 0.834426 0.634135
Si Si3 0.322241 0.833148 0.103204
Si Si4 0.918092 0.843355 0.721495
Si Si5 0.182666 0.664985 0.553858
Si Si6 0.183401 0.341008 0.000000
O O1 0.500000 0.697234 0.834210
O O2 0.404097 0.500000 0.838751
O O3 0.377599 0.767879 0.861580
O O4 0.394461 0.702708 0.774111
O O5 0.500000 0.786706 0.625307
O O6 0.389486 0.761428 0.681066
O O7 0.379545 0.787116 0.587707
O O8 0.415806 0.000000 0.643287
O O9 0.250000 0.750000 0.108256
O O10 0.310766 0.000000 0.114509
O O11 0.355658 0.812505 0.050004
O O12 0.000000 0.844148 0.721063
O O13 0.889667 0.000000 0.709965
O O14 0.160880 0.701680 0.500000
O O15 0.199516 0.500000 0.559622
O O16 0.250000 0.750000 0.569401
O O17 0.250000 0.250000 0.000000
O O18 0.210956 0.500000 0.000000
#
# Coordination Sequence:
#
# PCOD8268509 Si02
#       6
#    16  16  16  16  16   8
#     4   9  18  33  51  71  97 128 161 196 236 283
#     4   9  17  29  47  71  94 116 149 192 230 267
#     4  10  19  32  51  73  97 125 159 198 239 283
#     4   8  15  29  48  68  92 123 154 186 229 277
#     4   9  18  32  48  66  91 123 154 184 224 273
#     4   8  16  30  47  68  93 123 157 193 235 282
#
# _framework density 17.064216999999999
#
# number of rings (size 3 to 8) (size 9 to 14) (size 15 to 20)
#    0.000    3.091    0.000    1.636    0.000    2.909 
#    0.000    5.000    0.000    4.909    0.000    5.091 
#    0.000    0.000    0.000    0.000    0.000    0.000 
#
# Total GULP energy -545224.871364 kJ/mol
# GULP energy per Si atom -12391.474349 kJ/mol
# Density = 1.702538 g / cm^3
# Si number density = 17.064217 Si / 1000 Ang^3
#
#
#
# Elastic Constant Matrix: (Units=GPa)
#
#
# Indices 1 2 3 4 5 6 
#
# 1 63.6589 46.0786 64.4279 0.0000 0.0000 0.0000
# 2 46.0786 76.3620 73.2181 0.0000 0.0000 0.0000
# 3 64.4279 73.2181 152.3242 0.0000 0.0000 0.0000
# 4 0.0000 0.0000 0.0000 30.6141 0.0000 0.0000
# 5 0.0000 0.0000 0.0000 0.0000 6.0906 0.0000
# 6 0.0000 0.0000 0.0000 0.0000 0.0000 27.3532
#
#
#
# Elastic Compliance Matrix: (Units=1/GPa)
#
#
# Indices 1 2 3 4 5 6 
#
# 1 0.032402 -0.011892 -0.007989 0.000000 0.000000 0.000000
# 2 -0.011892 0.028656 -0.008744 0.000000 0.000000 0.000000
# 3 -0.007989 -0.008744 0.014147 0.000000 0.000000 0.000000
# 4 0.000000 0.000000 0.000000 0.032665 0.000000 0.000000
# 5 0.000000 0.000000 0.000000 0.000000 0.164188 0.000000
# 6 0.000000 0.000000 0.000000 0.000000 0.000000 0.036559
#
#
# Mechanical properties :
#
#
# Convention : Reuss Voigt Hill
#
# Bulk Modulus (GPa) = 55.69603 73.31048 64.50325
# Shear Modulus (GPa) = 13.44628 20.05294 16.74961
#
# Velocity S-wave (km/s) = 2.81015 3.43176 3.13639
# Velocity P-wave (km/s) = 6.57565 7.66534 7.14131
#
# Compressibility (1/GPa) = 0.01795460
#
# Stress axis : x y z
#
# Youngs Moduli (GPa) = 30.86237 34.89725 70.68748
#
# Poissons Ratio (x) = 0.41501 0.56469
# Poissons Ratio (y) = 0.36703 0.61808
# Poissons Ratio (z) = 0.24655 0.30514
#
# Static dielectric constant tensor:
#      x y z
#    x 2.845380 0.000000 0.000000 
#    y 0.000000 3.287010 0.000000 
#    z 0.000000 0.000000 3.702040 
# 
# 
# High freq. dielectric constant tensor:
#      x y z
#    x 1.620140 0.000000 0.000000 
#    y 0.000000 1.661630 0.000000 
#    z 0.000000 0.000000 1.674120 
# 
# From -- ./inp_files/73077.got.cif
#   From: 2010.03.12/outbox.cif.g09.slc.cpg/sg65_37_cif.got.tgz:73077.got - 2010.04.10 20:52:16.
