data_PCOD8268759
_publ_section_title
;
Structure prediction by ZEFSAII (Michael W. Deem and Ramdas Pophale) SiO2 
 PCOD8268759
Probable space group: C M M M
;
_chemical_formula_sum "Si O2"
_cell_formula_units_Z 56
_cell_length_a 10.613924
_cell_length_b 19.293198
_cell_length_c 14.365231
_cell_angle_alpha 90.000000
_cell_angle_beta 90.000000
_cell_angle_gamma 90.000000
_cell_volume 2941.662262
_symmetry_space_group_name_H-M "C M M M"
_symmetry_group_IT_number 65
_symmetry_cell_setting 'orthorhombic'
loop_
_space_group_symop_operation_xyz
x,y,z
-x,-y,z
x,-y,-z
-x,y,-z
-x,-y,-z
x,y,-z
-x,y,z
x,-y,z
1/2+x,1/2+y,z
1/2-x,1/2-y,z
1/2+x,1/2-y,-z
1/2-x,1/2+y,-z
1/2-x,1/2-y,-z
1/2+x,1/2+y,-z
1/2-x,1/2+y,z
1/2+x,1/2-y,z
loop_
_atom_site_type_symbol
_atom_site_label
_atom_site_fract_x
_atom_site_fract_y
_atom_site_fract_z
Si Si1 0.360573 0.298408 0.607897
Si Si2 0.752785 0.918534 0.292619
Si Si3 0.640845 0.581799 0.898580
Si Si4 0.500000 0.081745 0.394843
O O1 0.333885 0.309926 0.500000
O O2 0.500000 0.265621 0.624747
O O3 0.250000 0.250000 0.650894
O O4 0.358632 0.374338 0.654541
O O5 0.760852 0.897984 0.182991
O O6 0.620025 0.894208 0.335539
O O7 0.778826 0.000000 0.308479
O O8 0.500000 0.610753 0.876722
O O9 0.632329 0.500000 0.903871
O O10 0.687076 0.610290 0.000000
O O11 0.500000 0.114597 0.500000
O O12 0.500000 0.000000 0.405357
#
# Coordination Sequence:
#
# PCOD8268759 Si02
#       4
#    16  16  16   8
#     4  10  22  37  53  75 104 140 177 216 266 321
#     4  10  19  32  53  79 104 134 176 222 265 310
#     4   8  14  26  46  73 103 131 162 209 269 323
#     4   9  18  30  45  71 105 139 171 209 262 313
#
# _framework density 19.036856
#
# number of rings (size 3 to 8) (size 9 to 14) (size 15 to 20)
#    0.000    2.714    0.000    2.571    2.000    3.429 
#    0.000    2.143    0.000    5.143    0.000    0.000 
#    0.000    0.000    0.000    0.000    0.000    0.000 
#
# Total GULP energy -346907.781218 kJ/mol
# GULP energy per Si atom -12389.563615 kJ/mol
# Density = 1.899353 g / cm^3
# Si number density = 19.036856 Si / 1000 Ang^3
#
#
#
# Elastic Constant Matrix: (Units=GPa)
#
#
# Indices 1 2 3 4 5 6 
#
# 1 115.5276 30.1153 82.8799 0.0000 0.0000 0.0000
# 2 30.1153 48.1125 24.4638 0.0000 0.0000 0.0000
# 3 82.8799 24.4638 147.9507 0.0000 0.0000 0.0000
# 4 0.0000 0.0000 0.0000 12.8440 0.0000 0.0000
# 5 0.0000 0.0000 0.0000 0.0000 32.9851 0.0000
# 6 0.0000 0.0000 0.0000 0.0000 0.0000 20.7465
#
#
#
# Elastic Compliance Matrix: (Units=1/GPa)
#
#
# Indices 1 2 3 4 5 6 
#
# 1 0.015876 -0.005912 -0.007916 0.000000 0.000000 0.000000
# 2 -0.005912 0.024894 -0.000804 0.000000 0.000000 0.000000
# 3 -0.007916 -0.000804 0.011326 0.000000 0.000000 0.000000
# 4 0.000000 0.000000 0.000000 0.077857 0.000000 0.000000
# 5 0.000000 0.000000 0.000000 0.000000 0.030317 0.000000
# 6 0.000000 0.000000 0.000000 0.000000 0.000000 0.048201
#
#
# Mechanical properties :
#
#
# Convention : Reuss Voigt Hill
#
# Bulk Modulus (GPa) = 43.79890 65.16767 54.48328
# Shear Modulus (GPa) = 20.37928 24.92392 22.65160
#
# Velocity S-wave (km/s) = 3.27543 3.62228 3.45321
# Velocity P-wave (km/s) = 6.11244 7.19730 6.67694
#
# Compressibility (1/GPa) = 0.02283162
#
# Stress axis : x y z
#
# Youngs Moduli (GPa) = 62.98784 40.16979 88.28934
#
# Poissons Ratio (x) = 0.23750 0.69889
# Poissons Ratio (y) = 0.37241 0.07101
# Poissons Ratio (z) = 0.49861 0.03231
#
# Static dielectric constant tensor:
#      x y z
#    x 3.601310 0.000000 0.000000 
#    y 0.000000 3.124990 0.000000 
#    z 0.000000 0.000000 3.928730 
# 
# 
# High freq. dielectric constant tensor:
#      x y z
#    x 1.732010 0.000000 0.000000 
#    y 0.000000 1.703400 0.000000 
#    z 0.000000 0.000000 1.739460 
# 
# From -- ./inp_files/21830.got.cif
#   From: 2010.03.12/outbox.cif.g09.slc.cpg/sg65_11_cif.got.tgz:21830.got - 2010.04.10 20:52:16.
