data_PCOD8268589
_publ_section_title
;
Structure prediction by ZEFSAII (Michael W. Deem and Ramdas Pophale) SiO2 
 PCOD8268589
Probable space group: C M M M
;
_chemical_formula_sum "Si O2"
_cell_formula_units_Z 88
_cell_length_a 24.772236
_cell_length_b 8.838914
_cell_length_c 21.824379
_cell_angle_alpha 90.000000
_cell_angle_beta 90.000000
_cell_angle_gamma 90.000000
_cell_volume 4778.658684
_symmetry_space_group_name_H-M "C M M M"
_symmetry_group_IT_number 65
_symmetry_cell_setting 'orthorhombic'
loop_
_space_group_symop_operation_xyz
x,y,z
-x,-y,z
x,-y,-z
-x,y,-z
-x,-y,-z
x,y,-z
-x,y,z
x,-y,z
1/2+x,1/2+y,z
1/2-x,1/2-y,z
1/2+x,1/2-y,-z
1/2-x,1/2+y,-z
1/2-x,1/2-y,-z
1/2+x,1/2+y,-z
1/2-x,1/2+y,z
1/2+x,1/2-y,z
loop_
_atom_site_type_symbol
_atom_site_label
_atom_site_fract_x
_atom_site_fract_y
_atom_site_fract_z
Si Si1 0.500000 0.321512 0.747485
Si Si2 0.586174 0.679957 0.844837
Si Si3 0.105804 0.674237 0.568715
Si Si4 0.500000 0.321625 0.388917
Si Si5 0.000000 0.325060 0.072218
Si Si6 0.306664 0.820987 0.197543
Si Si7 0.194726 0.677638 0.337751
O O1 0.500000 0.500000 0.742965
O O2 0.446434 0.269158 0.783822
O O3 0.500000 0.249450 0.679717
O O4 0.590440 0.500000 0.850568
O O5 0.553988 0.744179 0.903052
O O6 0.645699 0.751530 0.843475
O O7 0.129121 0.693222 0.500000
O O8 0.092736 0.500000 0.583215
O O9 0.148172 0.740195 0.617772
O O10 0.051543 0.768713 0.573686
O O11 0.500000 0.500000 0.384876
O O12 0.000000 0.500000 0.092544
O O13 0.000000 0.306715 0.000000
O O14 0.250000 0.750000 0.175586
O O15 0.318056 0.774855 0.268017
O O16 0.304292 0.000000 0.188422
O O17 0.200834 0.500000 0.344441
O O18 0.250000 0.750000 0.360672
#
# Coordination Sequence:
#
# PCOD8268589 Si02
#       7
#     8  16  16   8   8  16  16
#     4   8  17  31  48  73 102 129 157 202 260 308
#     4  10  19  33  54  80 109 139 174 213 255 301
#     4  10  21  36  50  65  91 127 164 204 255 313
#     4  11  21  33  50  71  95 123 161 207 254 305
#     4  10  21  37  57  82 113 148 182 214 248 288
#     4  10  19  32  51  76 106 137 171 211 258 311
#     4   9  19  34  52  74  98 128 165 207 256 308
#
# _framework density 18.415209999999998
#
# number of rings (size 3 to 8) (size 9 to 14) (size 15 to 20)
#    0.000    2.273    0.000    3.545    0.000    4.000 
#    0.000    4.545    0.000    0.545    0.000    0.000 
#    0.000    0.000    0.000    0.000    0.000    0.000 
#
# Total GULP energy -545685.246079 kJ/mol
# GULP energy per Si atom -12401.937411 kJ/mol
# Density = 1.837330 g / cm^3
# Si number density = 18.415210 Si / 1000 Ang^3
#
#
#
# Elastic Constant Matrix: (Units=GPa)
#
#
# Indices 1 2 3 4 5 6 
#
# 1 156.9673 52.2561 46.4916 0.0000 0.0000 0.0000
# 2 52.2561 73.6864 31.6627 0.0000 0.0000 0.0000
# 3 46.4916 31.6627 73.7824 0.0000 0.0000 0.0000
# 4 0.0000 0.0000 0.0000 23.2845 0.0000 0.0000
# 5 0.0000 0.0000 0.0000 0.0000 14.8338 0.0000
# 6 0.0000 0.0000 0.0000 0.0000 0.0000 35.2240
#
#
#
# Elastic Compliance Matrix: (Units=1/GPa)
#
#
# Indices 1 2 3 4 5 6 
#
# 1 0.009066 -0.004873 -0.003621 0.000000 0.000000 0.000000
# 2 -0.004873 0.019259 -0.005194 0.000000 0.000000 0.000000
# 3 -0.003621 -0.005194 0.018064 0.000000 0.000000 0.000000
# 4 0.000000 0.000000 0.000000 0.042947 0.000000 0.000000
# 5 0.000000 0.000000 0.000000 0.000000 0.067413 0.000000
# 6 0.000000 0.000000 0.000000 0.000000 0.000000 0.028390
#
#
# Mechanical properties :
#
#
# Convention : Reuss Voigt Hill
#
# Bulk Modulus (GPa) = 52.59869 62.80633 57.70251
# Shear Modulus (GPa) = 22.84647 26.27019 24.55833
#
# Velocity S-wave (km/s) = 3.52608 3.78107 3.65580
# Velocity P-wave (km/s) = 6.72327 7.29669 7.01584
#
# Compressibility (1/GPa) = 0.01901188
#
# Stress axis : x y z
#
# Youngs Moduli (GPa) = 110.30727 51.92474 55.35848
#
# Poissons Ratio (x) = 0.25303 0.20046
# Poissons Ratio (y) = 0.53753 0.28753
# Poissons Ratio (z) = 0.39944 0.26970
#
# Static dielectric constant tensor:
#      x y z
#    x 3.447680 0.000000 0.000000 
#    y 0.000000 3.304070 0.000000 
#    z 0.000000 0.000000 3.322380 
# 
# 
# High freq. dielectric constant tensor:
#      x y z
#    x 1.718100 0.000000 0.000000 
#    y 0.000000 1.712800 0.000000 
#    z 0.000000 0.000000 1.695740 
# 
# From -- ./inp_files/65217.got.cif
#   From: 2010.03.12/outbox.cif.g09.slc.cpg/sg65_33_cif.got.tgz:65217.got - 2010.04.10 20:52:16.
