data_PCOD8268518
_publ_section_title
;
Structure prediction by ZEFSAII (Michael W. Deem and Ramdas Pophale) SiO2 
 PCOD8268518
Probable space group: C M M M
;
_chemical_formula_sum "Si O2"
_cell_formula_units_Z 96
_cell_length_a 15.358959
_cell_length_b 18.442447
_cell_length_c 18.421179
_cell_angle_alpha 90.000000
_cell_angle_beta 90.000000
_cell_angle_gamma 90.000000
_cell_volume 5217.923982
_symmetry_space_group_name_H-M "C M M M"
_symmetry_group_IT_number 65
_symmetry_cell_setting 'orthorhombic'
loop_
_space_group_symop_operation_xyz
x,y,z
-x,-y,z
x,-y,-z
-x,y,-z
-x,-y,-z
x,y,-z
-x,y,z
x,-y,z
1/2+x,1/2+y,z
1/2-x,1/2-y,z
1/2+x,1/2-y,-z
1/2-x,1/2+y,-z
1/2-x,1/2-y,-z
1/2+x,1/2+y,-z
1/2-x,1/2+y,z
1/2+x,1/2-y,z
loop_
_atom_site_type_symbol
_atom_site_label
_atom_site_fract_x
_atom_site_fract_y
_atom_site_fract_z
Si Si1 0.400372 0.176096 0.165876
Si Si2 0.238263 0.415685 0.916425
Si Si3 0.838531 0.291907 0.322943
Si Si4 0.095925 0.833201 0.582010
Si Si5 0.736151 0.917528 0.584855
Si Si6 0.098122 0.177993 0.916001
O O1 0.500000 0.154472 0.148666
O O2 0.337656 0.114913 0.134044
O O3 0.388027 0.182971 0.251451
O O4 0.375635 0.251935 0.129435
O O5 0.244844 0.500000 0.900969
O O6 0.332846 0.383885 0.895394
O O7 0.215365 0.398501 0.000000
O O8 0.750000 0.250000 0.303050
O O9 0.898489 0.236932 0.367315
O O10 0.825710 0.363895 0.370818
O O11 0.113501 0.806167 0.500000
O O12 0.164012 0.896073 0.602150
O O13 0.000000 0.867391 0.590538
O O14 0.714689 0.909477 0.500000
O O15 0.721271 0.000000 0.610979
O O16 0.000000 0.151061 0.896888
O O17 0.104574 0.199466 0.000000
#
# Coordination Sequence:
#
# PCOD8268518 Si02
#       6
#    16  16  16  16  16  16
#     4  11  22  35  53  76 102 135 175 216 255 297
#     4  10  21  36  54  77 106 138 169 205 252 304
#     4  10  19  32  51  73  98 130 169 211 252 296
#     4   9  17  30  50  75 101 128 159 199 248 302
#     4   9  18  32  50  73 100 130 164 202 248 301
#     4   9  18  34  57  82 105 131 166 208 253 302
#
# _framework density 18.398121
#
# number of rings (size 3 to 8) (size 9 to 14) (size 15 to 20)
#    0.000    2.333    0.000    3.000    0.000    6.000 
#    0.000    4.167    0.000    1.500    0.000   10.500 
#    0.000    0.000    0.000    0.000    0.000    0.000 
#
# Total GULP energy -595224.466448 kJ/mol
# GULP energy per Si atom -12400.509718 kJ/mol
# Density = 1.835625 g / cm^3
# Si number density = 18.398121 Si / 1000 Ang^3
#
#
#
# Elastic Constant Matrix: (Units=GPa)
#
#
# Indices 1 2 3 4 5 6 
#
# 1 77.3868 40.6640 28.2360 0.0000 0.0000 0.0000
# 2 40.6640 112.3398 42.5463 0.0000 0.0000 0.0000
# 3 28.2360 42.5463 69.8631 0.0000 0.0000 0.0000
# 4 0.0000 0.0000 0.0000 -39.3564 0.0000 0.0000
# 5 0.0000 0.0000 0.0000 0.0000 26.5710 0.0000
# 6 0.0000 0.0000 0.0000 0.0000 0.0000 20.0075
#
#
#
# Elastic Compliance Matrix: (Units=1/GPa)
#
#
# Indices 1 2 3 4 5 6 
#
# 1 0.016778 -0.004556 -0.004007 0.000000 0.000000 0.000000
# 2 -0.004556 0.012807 -0.005958 0.000000 0.000000 0.000000
# 3 -0.004007 -0.005958 0.019562 0.000000 0.000000 0.000000
# 4 0.000000 0.000000 0.000000 -0.025409 0.000000 0.000000
# 5 0.000000 0.000000 0.000000 0.000000 0.037635 0.000000
# 6 0.000000 0.000000 0.000000 0.000000 0.000000 0.049981
#
#
# Mechanical properties :
#
#
# Convention : Reuss Voigt Hill
#
# Bulk Modulus (GPa) = 49.73763 53.60914 51.67339
# Shear Modulus (GPa) = 33.99120 11.32064 22.65592
#
# Velocity S-wave (km/s) = 4.30296 2.48325 3.51297
# Velocity P-wave (km/s) = 7.19584 6.11749 6.67846
#
# Compressibility (1/GPa) = 0.02010550
#
# Stress axis : x y z
#
# Youngs Moduli (GPa) = 59.60244 78.08116 51.12064
#
# Poissons Ratio (x) = 0.35572 0.20482
# Poissons Ratio (y) = 0.27153 0.30459
# Poissons Ratio (z) = 0.23880 0.46523
#
# Static dielectric constant tensor:
#      x y z
#    x 3.438080 0.000000 0.000000 
#    y 0.000000 3.265360 0.000000 
#    z 0.000000 0.000000 3.347740 
# 
# 
# High freq. dielectric constant tensor:
#      x y z
#    x 1.717380 0.000000 0.000000 
#    y 0.000000 1.701530 0.000000 
#    z 0.000000 0.000000 1.711740 
# 
# From -- ./inp_files/62584.got.cif
#   From: 2010.03.12/outbox.cif.g09.slc.cpg/sg65_32_cif.got.tgz:62584.got - 2010.04.10 20:52:16.
