data_PCOD8268973
_publ_section_title
;
Structure prediction by ZEFSAII (Michael W. Deem and Ramdas Pophale) SiO2 
 PCOD8268973
Probable space group: C M M M
;
_chemical_formula_sum "Si O2"
_cell_formula_units_Z 104
_cell_length_a 9.054564
_cell_length_b 18.598555
_cell_length_c 33.415795
_cell_angle_alpha 90.000000
_cell_angle_beta 90.000000
_cell_angle_gamma 90.000000
_cell_volume 5627.280245
_symmetry_space_group_name_H-M "C M M M"
_symmetry_group_IT_number 65
_symmetry_cell_setting 'orthorhombic'
loop_
_space_group_symop_operation_xyz
x,y,z
-x,-y,z
x,-y,-z
-x,y,-z
-x,-y,-z
x,y,-z
-x,y,z
x,-y,z
1/2+x,1/2+y,z
1/2-x,1/2-y,z
1/2+x,1/2-y,-z
1/2-x,1/2+y,-z
1/2-x,1/2-y,-z
1/2+x,1/2+y,-z
1/2-x,1/2+y,z
1/2+x,1/2-y,z
loop_
_atom_site_type_symbol
_atom_site_label
_atom_site_fract_x
_atom_site_fract_y
_atom_site_fract_z
Si Si1 0.666705 0.414444 0.233221
Si Si2 0.830503 0.082429 0.546344
Si Si3 0.668410 0.676486 0.000000
Si Si4 0.669044 0.914729 0.845450
Si Si5 0.672150 0.917207 0.687861
Si Si6 0.673950 0.327479 0.086825
Si Si7 0.173927 0.326191 0.611131
O O1 0.500000 0.385052 0.230433
O O2 0.670353 0.500000 0.233181
O O3 0.758842 0.385091 0.195477
O O4 0.740073 0.385913 0.274059
O O5 0.806242 0.100789 0.500000
O O6 0.724554 0.133975 0.571106
O O7 0.000000 0.096310 0.558547
O O8 0.787283 0.000000 0.554989
O O9 0.750000 0.750000 0.000000
O O10 0.704626 0.637373 0.957668
O O11 0.500000 0.698834 0.000000
O O12 0.500000 0.888994 0.846714
O O13 0.757447 0.883162 0.882520
O O14 0.681742 0.000000 0.847871
O O15 0.500000 0.908307 0.697162
O O16 0.722382 0.873034 0.649230
O O17 0.713079 0.000000 0.679653
O O18 0.500000 0.318977 0.095146
O O19 0.750000 0.250000 0.091391
O O20 0.250000 0.250000 0.614852
O O21 0.000000 0.315318 0.609069
#
# Coordination Sequence:
#
# PCOD8268973 Si02
#       7
#    16  16   8  16  16  16  16
#     4   9  17  30  51  78 103 130 168 212 258 309
#     4   9  19  37  60  84 109 138 175 220 266 311
#     4   8  16  30  49  72  97 129 167 209 255 302
#     4  10  20  34  52  75 105 139 173 212 259 307
#     4   9  18  34  55  77 101 131 170 215 260 308
#     4  10  19  33  53  76 102 132 170 213 257 308
#     4  11  23  37  54  78 110 146 180 216 261 312
#
# _framework density 18.481396
#
# number of rings (size 3 to 8) (size 9 to 14) (size 15 to 20)
#    0.000    2.462    0.000    2.769    0.000    6.154 
#    0.000    3.462    0.000    4.154    0.000    0.000 
#    0.000    0.000    0.000    0.000    0.000    0.000 
#
# Total GULP energy -644670.595036 kJ/mol
# GULP energy per Si atom -12397.511443 kJ/mol
# Density = 1.843933 g / cm^3
# Si number density = 18.481396 Si / 1000 Ang^3
#
#
#
# Elastic Constant Matrix: (Units=GPa)
#
#
# Indices 1 2 3 4 5 6 
#
# 1 110.9703 42.9099 76.4095 0.0000 0.0000 0.0000
# 2 42.9099 59.9412 54.6037 0.0000 0.0000 0.0000
# 3 76.4095 54.6037 151.5586 0.0000 0.0000 0.0000
# 4 0.0000 0.0000 0.0000 2.3939 0.0000 0.0000
# 5 0.0000 0.0000 0.0000 0.0000 36.5264 0.0000
# 6 0.0000 0.0000 0.0000 0.0000 0.0000 6.2915
#
#
#
# Elastic Compliance Matrix: (Units=1/GPa)
#
#
# Indices 1 2 3 4 5 6 
#
# 1 0.015021 -0.005737 -0.005506 0.000000 0.000000 0.000000
# 2 -0.005737 0.027025 -0.006844 0.000000 0.000000 0.000000
# 3 -0.005506 -0.006844 0.011840 0.000000 0.000000 0.000000
# 4 0.000000 0.000000 0.000000 0.417724 0.000000 0.000000
# 5 0.000000 0.000000 0.000000 0.000000 0.027377 0.000000
# 6 0.000000 0.000000 0.000000 0.000000 0.000000 0.158945
#
#
# Mechanical properties :
#
#
# Convention : Reuss Voigt Hill
#
# Bulk Modulus (GPa) = 56.46216 74.47959 65.47088
# Shear Modulus (GPa) = 7.14275 18.94549 13.04412
#
# Velocity S-wave (km/s) = 1.96805 3.20521 2.65957
# Velocity P-wave (km/s) = 5.98176 7.35426 6.70323
#
# Compressibility (1/GPa) = 0.01771098
#
# Stress axis : x y z
#
# Youngs Moduli (GPa) = 66.57288 37.00307 84.46154
#
# Poissons Ratio (x) = 0.21230 0.46504
# Poissons Ratio (y) = 0.38196 0.57805
# Poissons Ratio (z) = 0.36655 0.25325
#
# Static dielectric constant tensor:
#      x y z
#    x 3.521330 0.000000 0.000000 
#    y 0.000000 3.067420 0.000000 
#    z 0.000000 0.000000 3.803720 
# 
# 
# High freq. dielectric constant tensor:
#      x y z
#    x 1.727780 0.000000 0.000000 
#    y 0.000000 1.681340 0.000000 
#    z 0.000000 0.000000 1.736110 
# 
# From -- ./inp_files/76869.got.cif
#   From: 2010.03.12/outbox.cif.g09.slc.cpg/sg65_39_cif.got.tgz:76869.got - 2010.04.10 20:52:16.
