data_PCOD8268575
_publ_section_title
;
Structure prediction by ZEFSAII (Michael W. Deem and Ramdas Pophale) SiO2 
 PCOD8268575
Probable space group: C M M M
;
_chemical_formula_sum "Si O2"
_cell_formula_units_Z 104
_cell_length_a 24.137953
_cell_length_b 27.121912
_cell_length_c 9.047854
_cell_angle_alpha 90.000000
_cell_angle_beta 90.000000
_cell_angle_gamma 90.000000
_cell_volume 5923.335390
_symmetry_space_group_name_H-M "C M M M"
_symmetry_group_IT_number 65
_symmetry_cell_setting 'orthorhombic'
loop_
_space_group_symop_operation_xyz
x,y,z
-x,-y,z
x,-y,-z
-x,y,-z
-x,-y,-z
x,y,-z
-x,y,z
x,-y,z
1/2+x,1/2+y,z
1/2-x,1/2-y,z
1/2+x,1/2-y,-z
1/2-x,1/2+y,-z
1/2-x,1/2-y,-z
1/2+x,1/2+y,-z
1/2-x,1/2+y,z
1/2+x,1/2-y,z
loop_
_atom_site_type_symbol
_atom_site_label
_atom_site_fract_x
_atom_site_fract_y
_atom_site_fract_z
Si Si1 0.565301 0.900195 0.173059
Si Si2 0.266527 0.645282 0.329290
Si Si3 0.855160 0.676356 0.324679
Si Si4 0.934295 0.500000 0.332217
Si Si5 0.165544 0.054321 0.328969
Si Si6 0.812777 0.767812 0.167959
Si Si7 0.059908 0.941351 0.833819
O O1 0.500000 0.892928 0.199106
O O2 0.595773 0.854187 0.248844
O O3 0.586574 0.951067 0.247540
O O4 0.579718 0.902199 0.000000
O O5 0.273090 0.660099 0.500000
O O6 0.202992 0.651042 0.280275
O O7 0.281583 0.588505 0.297315
O O8 0.311042 0.678125 0.240076
O O9 0.864966 0.678162 0.500000
O O10 0.853725 0.731856 0.259377
O O11 0.910760 0.500000 0.500000
O O12 0.000000 0.500000 0.334138
O O13 0.153166 0.049791 0.500000
O O14 0.110615 0.079540 0.261109
O O15 0.178196 0.000000 0.261782
O O16 0.750000 0.750000 0.177540
O O17 0.834283 0.770562 0.000000
O O18 0.000000 0.922913 0.772521
O O19 0.061247 0.000000 0.828158
O O20 0.067502 0.922211 0.000000
#
# Coordination Sequence:
#
# PCOD8268575 Si02
#       7
#    16  16  16   8  16  16  16
#     4  10  20  34  52  74 103 136 169 211 259 304
#     4   9  18  32  48  70  99 131 164 201 247 294
#     4  10  19  32  51  75  99 127 164 206 249 300
#     4   9  17  31  51  73  97 129 171 211 248 297
#     4   9  17  29  45  66  95 128 159 191 231 281
#     4   9  17  30  50  73  94 120 155 199 244 288
#     4   8  14  25  41  61  85 114 150 190 227 263
#
# _framework density 17.557675
#
# number of rings (size 3 to 8) (size 9 to 14) (size 15 to 20)
#    0.000    2.846    0.000    2.077    0.000    5.231 
#    1.385    1.538    0.000    0.923    0.000    4.308 
#    0.000    0.000    0.000    0.000    0.000    0.000 
#
# Total GULP energy -644518.884605 kJ/mol
# GULP energy per Si atom -12394.593935 kJ/mol
# Density = 1.751771 g / cm^3
# Si number density = 17.557675 Si / 1000 Ang^3
#
#
#
# Elastic Constant Matrix: (Units=GPa)
#
#
# Indices 1 2 3 4 5 6 
#
# 1 56.4420 35.0854 33.8019 0.0000 0.0000 0.0000
# 2 35.0854 83.6083 46.7242 0.0000 0.0000 0.0000
# 3 33.8019 46.7242 94.8991 0.0000 0.0000 0.0000
# 4 0.0000 0.0000 0.0000 27.6054 0.0000 0.0000
# 5 0.0000 0.0000 0.0000 0.0000 24.1255 0.0000
# 6 0.0000 0.0000 0.0000 0.0000 0.0000 27.3143
#
#
#
# Elastic Compliance Matrix: (Units=1/GPa)
#
#
# Indices 1 2 3 4 5 6 
#
# 1 0.025780 -0.007845 -0.005320 0.000000 0.000000 0.000000
# 2 -0.007845 0.018888 -0.006505 0.000000 0.000000 0.000000
# 3 -0.005320 -0.006505 0.015635 0.000000 0.000000 0.000000
# 4 0.000000 0.000000 0.000000 0.036225 0.000000 0.000000
# 5 0.000000 0.000000 0.000000 0.000000 0.041450 0.000000
# 6 0.000000 0.000000 0.000000 0.000000 0.000000 0.036611
#
#
# Mechanical properties :
#
#
# Convention : Reuss Voigt Hill
#
# Bulk Modulus (GPa) = 47.70410 51.79693 49.75051
# Shear Modulus (GPa) = 22.63287 23.76491 23.19889
#
# Velocity S-wave (km/s) = 3.59424 3.68303 3.63891
# Velocity P-wave (km/s) = 6.66736 6.90300 6.78620
#
# Compressibility (1/GPa) = 0.02096256
#
# Stress axis : x y z
#
# Youngs Moduli (GPa) = 38.78974 52.94298 63.95787
#
# Poissons Ratio (x) = 0.41536 0.34024
# Poissons Ratio (y) = 0.30432 0.41607
# Poissons Ratio (z) = 0.20635 0.34441
#
# Static dielectric constant tensor:
#      x y z
#    x 3.216840 0.000000 0.000000 
#    y 0.000000 3.270570 0.000000 
#    z 0.000000 0.000000 3.371210 
# 
# 
# High freq. dielectric constant tensor:
#      x y z
#    x 1.652970 0.000000 0.000000 
#    y 0.000000 1.663830 0.000000 
#    z 0.000000 0.000000 1.684880 
# 
# From -- ./inp_files/14796.got.cif
#   From: 2010.03.12/outbox.cif.g09.slc.cpg/sg65_8_cif.got.tgz:14796.got - 2010.04.10 20:52:16.
