data_PCOD8268744
_publ_section_title
;
Structure prediction by ZEFSAII (Michael W. Deem and Ramdas Pophale) SiO2 
 PCOD8268744
Probable space group: C M M M
;
_chemical_formula_sum "Si O2"
_cell_formula_units_Z 64
_cell_length_a 24.535108
_cell_length_b 15.130643
_cell_length_c 9.057877
_cell_angle_alpha 90.000000
_cell_angle_beta 90.000000
_cell_angle_gamma 90.000000
_cell_volume 3362.573433
_symmetry_space_group_name_H-M "C M M M"
_symmetry_group_IT_number 65
_symmetry_cell_setting 'orthorhombic'
loop_
_space_group_symop_operation_xyz
x,y,z
-x,-y,z
x,-y,-z
-x,y,-z
-x,-y,-z
x,y,-z
-x,y,z
x,-y,z
1/2+x,1/2+y,z
1/2-x,1/2-y,z
1/2+x,1/2-y,-z
1/2-x,1/2+y,-z
1/2-x,1/2-y,-z
1/2+x,1/2+y,-z
1/2-x,1/2+y,z
1/2+x,1/2-y,z
loop_
_atom_site_type_symbol
_atom_site_label
_atom_site_fract_x
_atom_site_fract_y
_atom_site_fract_z
Si Si1 0.438846 0.000000 0.824916
Si Si2 0.635963 0.342834 0.675085
Si Si3 0.138639 0.343697 0.174579
Si Si4 0.245257 0.354365 0.337777
Si Si5 0.060966 0.000000 0.675620
O O1 0.407340 0.912314 0.771349
O O2 0.500000 0.000000 0.758072
O O3 0.441188 0.000000 0.000000
O O4 0.633314 0.325993 0.500000
O O5 0.624619 0.250290 0.754491
O O6 0.694952 0.385687 0.717002
O O7 0.590922 0.411772 0.732126
O O8 0.197506 0.381683 0.225721
O O9 0.140139 0.333496 0.000000
O O10 0.231797 0.393945 0.500000
O O11 0.250000 0.250000 0.349365
O O12 0.061203 0.000000 0.500000
O O13 0.000000 0.000000 0.740120
#
# Coordination Sequence:
#
# PCOD8268744 Si02
#       5
#     8  16  16  16   8
#     4   9  20  37  51  67  97 135 170 201 244 302
#     4   9  18  33  52  75 103 133 162 195 244 299
#     4  10  19  32  53  76  97 127 166 206 245 288
#     4   8  15  29  49  73 102 131 157 193 245 300
#     4   9  18  33  53  75  99 131 170 205 238 286
#
# _framework density 19.033041999999998
#
# number of rings (size 3 to 8) (size 9 to 14) (size 15 to 20)
#    0.000    3.000    0.000    2.250    0.000    6.500 
#    0.000    4.375    0.000    6.000    0.000    0.000 
#    0.000    0.000    0.000    0.000    0.000    0.000 
#
# Total GULP energy -396611.664229 kJ/mol
# GULP energy per Si atom -12394.114507 kJ/mol
# Density = 1.898972 g / cm^3
# Si number density = 19.033042 Si / 1000 Ang^3
#
#
#
# Elastic Constant Matrix: (Units=GPa)
#
#
# Indices 1 2 3 4 5 6 
#
# 1 191.3856 89.9299 44.9485 0.0000 0.0000 0.0000
# 2 89.9299 117.3828 41.7495 0.0000 0.0000 0.0000
# 3 44.9485 41.7495 54.6060 0.0000 0.0000 0.0000
# 4 0.0000 0.0000 0.0000 -19.8991 0.0000 0.0000
# 5 0.0000 0.0000 0.0000 0.0000 22.0838 0.0000
# 6 0.0000 0.0000 0.0000 0.0000 0.0000 32.9942
#
#
#
# Elastic Compliance Matrix: (Units=1/GPa)
#
#
# Indices 1 2 3 4 5 6 
#
# 1 0.008456 -0.005498 -0.002757 0.000000 0.000000 0.000000
# 2 -0.005498 0.015275 -0.007154 0.000000 0.000000 0.000000
# 3 -0.002757 -0.007154 0.026052 0.000000 0.000000 0.000000
# 4 0.000000 0.000000 0.000000 -0.050253 0.000000 0.000000
# 5 0.000000 0.000000 0.000000 0.000000 0.045282 0.000000
# 6 0.000000 0.000000 0.000000 0.000000 0.000000 0.030308
#
#
# Mechanical properties :
#
#
# Convention : Reuss Voigt Hill
#
# Bulk Modulus (GPa) = 52.72481 79.62558 66.17520
# Shear Modulus (GPa) = 44.53999 19.48554 32.01277
#
# Velocity S-wave (km/s) = 4.84275 3.20312 4.10562
# Velocity P-wave (km/s) = 7.68319 7.45696 7.57092
#
# Compressibility (1/GPa) = 0.01896640
#
# Stress axis : x y z
#
# Youngs Moduli (GPa) = 118.26126 65.46509 38.38503
#
# Poissons Ratio (x) = 0.35990 0.10583
# Poissons Ratio (y) = 0.65016 0.27459
# Poissons Ratio (z) = 0.32606 0.46831
#
# Static dielectric constant tensor:
#      x y z
#    x 4.103090 0.000000 0.000000 
#    y 0.000000 3.388320 0.000000 
#    z 0.000000 0.000000 3.180070 
# 
# 
# High freq. dielectric constant tensor:
#      x y z
#    x 1.746710 0.000000 0.000000 
#    y 0.000000 1.734690 0.000000 
#    z 0.000000 0.000000 1.705660 
# 
# From -- ./inp_files/15654.got.cif
#   From: 2010.03.12/outbox.cif.g09.slc.cpg/sg65_8_cif.got.tgz:15654.got - 2010.04.10 20:52:16.
