data_PCOD8268437
_publ_section_title
;
Structure prediction by ZEFSAII (Michael W. Deem and Ramdas Pophale) SiO2 
 PCOD8268437
Probable space group: C M M M
;
_chemical_formula_sum "Si O2"
_cell_formula_units_Z 80
_cell_length_a 8.765604
_cell_length_b 26.916291
_cell_length_c 18.717008
_cell_angle_alpha 90.000000
_cell_angle_beta 90.000000
_cell_angle_gamma 90.000000
_cell_volume 4416.044974
_symmetry_space_group_name_H-M "C M M M"
_symmetry_group_IT_number 65
_symmetry_cell_setting 'orthorhombic'
loop_
_space_group_symop_operation_xyz
x,y,z
-x,-y,z
x,-y,-z
-x,y,-z
-x,-y,-z
x,y,-z
-x,y,z
x,-y,z
1/2+x,1/2+y,z
1/2-x,1/2-y,z
1/2+x,1/2-y,-z
1/2-x,1/2+y,-z
1/2-x,1/2-y,-z
1/2+x,1/2+y,-z
1/2-x,1/2+y,z
1/2+x,1/2-y,z
loop_
_atom_site_type_symbol
_atom_site_label
_atom_site_fract_x
_atom_site_fract_y
_atom_site_fract_z
Si Si1 0.817971 0.556522 0.500000
Si Si2 0.176096 0.055117 0.780486
Si Si3 0.179271 0.599908 0.646720
Si Si4 0.819141 0.699223 0.722139
Si Si5 0.319864 0.652831 0.140807
Si Si6 0.680458 0.804546 0.000000
O O1 0.758336 0.500000 0.500000
O O2 0.752084 0.584796 0.430221
O O3 0.000000 0.557605 0.500000
O O4 0.264794 0.061833 0.706667
O O5 0.224130 0.096009 0.839173
O O6 0.000000 0.062138 0.761660
O O7 0.210997 0.000000 0.811091
O O8 0.227759 0.656077 0.666511
O O9 0.000000 0.594801 0.644014
O O10 0.750000 0.750000 0.690583
O O11 0.740891 0.689657 0.798367
O O12 0.000000 0.702793 0.732295
O O13 0.500000 0.660597 0.131295
O O14 0.234627 0.664726 0.068127
O O15 0.750000 0.750000 0.000000
O O16 0.500000 0.799701 0.000000
#
# Coordination Sequence:
#
# PCOD8268437 Si02
#       6
#     8  16  16  16  16   8
#     4   9  16  28  48  73  99 127 161 203 250 295
#     4   9  18  33  53  76 102 132 165 202 244 290
#     4   9  18  31  49  73  99 129 167 208 246 291
#     4  10  19  32  50  72  98 129 166 206 249 293
#     4  10  20  35  54  76 102 131 165 202 242 290
#     4  12  24  38  55  76 103 131 162 201 247 294
#
# _framework density 18.115759000000001
#
# number of rings (size 3 to 8) (size 9 to 14) (size 15 to 20)
#    0.000    2.300    0.000    3.300    0.000    2.800 
#    0.000    1.500    0.000    4.800    0.000    0.000 
#    0.000    0.000    0.000    0.000    0.000    0.000 
#
# Total GULP energy -496001.484877 kJ/mol
# GULP energy per Si atom -12400.037122 kJ/mol
# Density = 1.807453 g / cm^3
# Si number density = 18.115759 Si / 1000 Ang^3
#
#
#
# Elastic Constant Matrix: (Units=GPa)
#
#
# Indices 1 2 3 4 5 6 
#
# 1 58.5682 36.4209 39.3043 0.0000 0.0000 0.0000
# 2 36.4209 143.1952 72.3763 0.0000 0.0000 0.0000
# 3 39.3043 72.3763 145.4336 0.0000 0.0000 0.0000
# 4 0.0000 0.0000 0.0000 22.8879 0.0000 0.0000
# 5 0.0000 0.0000 0.0000 0.0000 16.2954 0.0000
# 6 0.0000 0.0000 0.0000 0.0000 0.0000 24.3927
#
#
#
# Elastic Compliance Matrix: (Units=1/GPa)
#
#
# Indices 1 2 3 4 5 6 
#
# 1 0.022078 -0.003473 -0.004238 0.000000 0.000000 0.000000
# 2 -0.003473 0.009877 -0.003977 0.000000 0.000000 0.000000
# 3 -0.004238 -0.003977 0.010000 0.000000 0.000000 0.000000
# 4 0.000000 0.000000 0.000000 0.043691 0.000000 0.000000
# 5 0.000000 0.000000 0.000000 0.000000 0.061367 0.000000
# 6 0.000000 0.000000 0.000000 0.000000 0.000000 0.040996
#
#
# Mechanical properties :
#
#
# Convention : Reuss Voigt Hill
#
# Bulk Modulus (GPa) = 53.82387 71.48890 62.65639
# Shear Modulus (GPa) = 22.98019 25.98825 24.48422
#
# Velocity S-wave (km/s) = 3.56549 3.79168 3.68032
# Velocity P-wave (km/s) = 6.83563 7.66270 7.26095
#
# Compressibility (1/GPa) = 0.01857912
#
# Stress axis : x y z
#
# Youngs Moduli (GPa) = 45.29350 101.24716 99.99601
#
# Poissons Ratio (x) = 0.35166 0.42381
# Poissons Ratio (y) = 0.15732 0.39764
# Poissons Ratio (z) = 0.19197 0.40262
#
# Static dielectric constant tensor:
#      x y z
#    x 3.292750 0.000000 0.000000 
#    y 0.000000 3.675320 0.000000 
#    z 0.000000 0.000000 3.485150 
# 
# 
# High freq. dielectric constant tensor:
#      x y z
#    x 1.697460 0.000000 0.000000 
#    y 0.000000 1.713200 0.000000 
#    z 0.000000 0.000000 1.688870 
# 
# From -- ./inp_files/49904.got.cif
#   From: 2010.03.12/outbox.cif.g09.slc.cpg/sg65_25_cif.got.tgz:49904.got - 2010.04.10 20:52:16.
