data_PCOD8268205
_publ_section_title
;
Structure prediction by ZEFSAII (Michael W. Deem and Ramdas Pophale) SiO2 
 PCOD8268205
Probable space group: C M M M
;
_chemical_formula_sum "Si O2"
_cell_formula_units_Z 88
_cell_length_a 17.510740
_cell_length_b 28.676981
_cell_length_c 9.024493
_cell_angle_alpha 90.000000
_cell_angle_beta 90.000000
_cell_angle_gamma 90.000000
_cell_volume 4531.695711
_symmetry_space_group_name_H-M "C M M M"
_symmetry_group_IT_number 65
_symmetry_cell_setting 'orthorhombic'
loop_
_space_group_symop_operation_xyz
x,y,z
-x,-y,z
x,-y,-z
-x,y,-z
-x,-y,-z
x,y,-z
-x,y,z
x,-y,z
1/2+x,1/2+y,z
1/2-x,1/2-y,z
1/2+x,1/2-y,-z
1/2-x,1/2+y,-z
1/2-x,1/2-y,-z
1/2+x,1/2+y,-z
1/2-x,1/2+y,z
1/2+x,1/2-y,z
loop_
_atom_site_type_symbol
_atom_site_label
_atom_site_fract_x
_atom_site_fract_y
_atom_site_fract_z
Si Si1 0.590717 0.293196 0.666928
Si Si2 0.588559 0.385837 0.827006
Si Si3 0.000000 0.551873 0.675991
Si Si4 0.706106 0.446378 0.671781
Si Si5 0.643837 0.889556 0.674511
Si Si6 0.911484 0.700018 0.825440
O O1 0.623145 0.291592 0.500000
O O2 0.500000 0.294009 0.667832
O O3 0.621211 0.339809 0.745990
O O4 0.619495 0.248096 0.755948
O O5 0.500000 0.394210 0.790134
O O6 0.633761 0.430673 0.768069
O O7 0.602258 0.379151 0.000000
O O8 0.074701 0.578553 0.732983
O O9 0.000000 0.500000 0.744290
O O10 0.000000 0.548845 0.500000
O O11 0.685830 0.439618 0.500000
O O12 0.724840 0.500000 0.707688
O O13 0.778688 0.415618 0.717324
O O14 0.636922 0.880193 0.500000
O O15 0.640876 0.840637 0.759281
O O16 0.000000 0.691344 0.782004
O O17 0.900651 0.702825 0.000000
#
# Coordination Sequence:
#
# PCOD8268205 Si02
#       6
#    16  16   8  16  16  16
#     4   9  17  31  55  84 112 143 181 225 275 328
#     4  10  21  38  60  85 112 143 181 224 276 340
#     4   9  16  28  51  79 105 139 187 237 276 315
#     4  10  22  39  58  82 112 145 184 233 285 330
#     4  10  19  33  54  80 110 146 190 234 276 324
#     4  10  19  31  50  79 116 153 188 226 271 324
#
# _framework density 19.418778
#
# number of rings (size 3 to 8) (size 9 to 14) (size 15 to 20)
#    0.000    2.273    0.909    2.182    0.000    7.636 
#    0.000    2.727    0.000    7.636    0.000    0.000 
#    0.000    0.000    0.000    0.000    0.000    0.000 
#
# Total GULP energy -545750.783669 kJ/mol
# GULP energy per Si atom -12403.426902 kJ/mol
# Density = 1.937458 g / cm^3
# Si number density = 19.418778 Si / 1000 Ang^3
#
#
#
# Elastic Constant Matrix: (Units=GPa)
#
#
# Indices 1 2 3 4 5 6 
#
# 1 75.8701 47.6320 43.5061 0.0000 0.0000 0.0000
# 2 47.6320 112.5046 50.4944 0.0000 0.0000 0.0000
# 3 43.5061 50.4944 88.5775 0.0000 0.0000 0.0000
# 4 0.0000 0.0000 0.0000 15.8814 0.0000 0.0000
# 5 0.0000 0.0000 0.0000 0.0000 20.3089 0.0000
# 6 0.0000 0.0000 0.0000 0.0000 0.0000 29.5275
#
#
#
# Elastic Compliance Matrix: (Units=1/GPa)
#
#
# Indices 1 2 3 4 5 6 
#
# 1 0.020715 -0.005649 -0.006954 0.000000 0.000000 0.000000
# 2 -0.005649 0.013485 -0.004913 0.000000 0.000000 0.000000
# 3 -0.006954 -0.004913 0.017506 0.000000 0.000000 0.000000
# 4 0.000000 0.000000 0.000000 0.062967 0.000000 0.000000
# 5 0.000000 0.000000 0.000000 0.000000 0.049239 0.000000
# 6 0.000000 0.000000 0.000000 0.000000 0.000000 0.033867
#
#
# Mechanical properties :
#
#
# Convention : Reuss Voigt Hill
#
# Bulk Modulus (GPa) = 59.97402 62.24635 61.11018
# Shear Modulus (GPa) = 20.97602 22.16489 21.57045
#
# Velocity S-wave (km/s) = 3.29019 3.38215 3.33649
# Velocity P-wave (km/s) = 6.73687 6.88304 6.81035
#
# Compressibility (1/GPa) = 0.01667389
#
# Stress axis : x y z
#
# Youngs Moduli (GPa) = 48.27532 74.15586 57.12449
#
# Poissons Ratio (x) = 0.41891 0.39724
# Poissons Ratio (y) = 0.27271 0.28064
# Poissons Ratio (z) = 0.33571 0.36431
#
# Static dielectric constant tensor:
#      x y z
#    x 3.301470 0.000000 0.000000 
#    y 0.000000 3.668610 0.000000 
#    z 0.000000 0.000000 3.417210 
# 
# 
# High freq. dielectric constant tensor:
#      x y z
#    x 1.732780 0.000000 0.000000 
#    y 0.000000 1.768450 0.000000 
#    z 0.000000 0.000000 1.746670 
# 
# From -- ./inp_files/10009.got.cif
#   From: 2010.03.12/outbox.cif.g09.slc.cpg/sg65_6_cif.got.tgz:10009.got - 2010.04.10 20:52:16.
