data_PCOD8268287
_publ_section_title
;
Structure prediction by ZEFSAII (Michael W. Deem and Ramdas Pophale) SiO2 
 PCOD8268287
Probable space group: C M M M
;
_chemical_formula_sum "Si O2"
_cell_formula_units_Z 88
_cell_length_a 23.339567
_cell_length_b 23.054795
_cell_length_c 9.401526
_cell_angle_alpha 90.000000
_cell_angle_beta 90.000000
_cell_angle_gamma 90.000000
_cell_volume 5058.857090
_symmetry_space_group_name_H-M "C M M M"
_symmetry_group_IT_number 65
_symmetry_cell_setting 'orthorhombic'
loop_
_space_group_symop_operation_xyz
x,y,z
-x,-y,z
x,-y,-z
-x,y,-z
-x,-y,-z
x,y,-z
-x,y,z
x,-y,z
1/2+x,1/2+y,z
1/2-x,1/2-y,z
1/2+x,1/2-y,-z
1/2-x,1/2+y,-z
1/2-x,1/2-y,-z
1/2+x,1/2+y,-z
1/2-x,1/2+y,z
1/2+x,1/2-y,z
loop_
_atom_site_type_symbol
_atom_site_label
_atom_site_fract_x
_atom_site_fract_y
_atom_site_fract_z
Si Si1 0.690038 0.564708 0.335438
Si Si2 0.149726 0.169145 0.839107
Si Si3 0.155758 0.337576 0.344822
Si Si4 0.805713 0.435930 0.162631
Si Si5 0.434045 0.743066 0.660754
Si Si6 0.750000 0.250000 0.752022
O O1 0.695918 0.582864 0.500000
O O2 0.663396 0.500000 0.321163
O O3 0.651625 0.610902 0.253912
O O4 0.751618 0.566140 0.264145
O O5 0.095679 0.202306 0.775550
O O6 0.208133 0.207581 0.841206
O O7 0.135913 0.151605 0.000000
O O8 0.160089 0.367397 0.500000
O O9 0.152901 0.385905 0.221170
O O10 0.095322 0.305691 0.329589
O O11 0.208824 0.292075 0.338355
O O12 0.834423 0.500000 0.170921
O O13 0.788218 0.421620 0.000000
O O14 0.426936 0.718114 0.500000
O O15 0.500000 0.750026 0.702844
#
# Coordination Sequence:
#
# PCOD8268287 Si02
#       6
#    16  16  16  16  16   8
#     4  10  20  33  50  73 103 138 174 208 247 300
#     4  11  21  32  51  77 107 137 168 208 252 305
#     4  10  19  31  52  76 101 133 170 211 253 303
#     4  10  20  32  47  71 105 139 169 205 252 303
#     4   9  20  38  56  75 101 134 172 214 259 302
#     4  10  20  30  46  74 108 136 164 202 252 308
#
# _framework density 17.395233999999999
#
# number of rings (size 3 to 8) (size 9 to 14) (size 15 to 20)
#    0.000    2.000    1.818    2.182    0.000    6.909 
#    0.000    0.000    0.000    1.091    0.000    7.636 
#    0.000    0.000    0.000    0.000    0.000    0.000 
#
# Total GULP energy -545311.082195 kJ/mol
# GULP energy per Si atom -12393.433686 kJ/mol
# Density = 1.735564 g / cm^3
# Si number density = 17.395234 Si / 1000 Ang^3
#
#
#
# Elastic Constant Matrix: (Units=GPa)
#
#
# Indices 1 2 3 4 5 6 
#
# 1 96.2080 35.5945 41.7713 0.0000 0.0000 0.0000
# 2 35.5945 103.9395 68.5200 0.0000 0.0000 0.0000
# 3 41.7713 68.5200 154.8930 0.0000 0.0000 0.0000
# 4 0.0000 0.0000 0.0000 25.9910 0.0000 0.0000
# 5 0.0000 0.0000 0.0000 0.0000 15.9094 0.0000
# 6 0.0000 0.0000 0.0000 0.0000 0.0000 12.8509
#
#
#
# Elastic Compliance Matrix: (Units=1/GPa)
#
#
# Indices 1 2 3 4 5 6 
#
# 1 0.012351 -0.002871 -0.002061 0.000000 0.000000 0.000000
# 2 -0.002871 0.014249 -0.005529 0.000000 0.000000 0.000000
# 3 -0.002061 -0.005529 0.009458 0.000000 0.000000 0.000000
# 4 0.000000 0.000000 0.000000 0.038475 0.000000 0.000000
# 5 0.000000 0.000000 0.000000 0.000000 0.062856 0.000000
# 6 0.000000 0.000000 0.000000 0.000000 0.000000 0.077816
#
#
# Mechanical properties :
#
#
# Convention : Reuss Voigt Hill
#
# Bulk Modulus (GPa) = 66.06772 71.86800 68.96786
# Shear Modulus (GPa) = 20.73211 24.89390 22.81301
#
# Velocity S-wave (km/s) = 3.45603 3.78706 3.62533
# Velocity P-wave (km/s) = 7.34768 7.77990 7.56688
#
# Compressibility (1/GPa) = 0.01513599
#
# Stress axis : x y z
#
# Youngs Moduli (GPa) = 80.96428 70.17936 105.73385
#
# Poissons Ratio (x) = 0.20150 0.21788
# Poissons Ratio (y) = 0.23247 0.58461
# Poissons Ratio (z) = 0.16684 0.38803
#
# Static dielectric constant tensor:
#      x y z
#    x 2.904470 0.000000 0.000000 
#    y 0.000000 3.584520 0.000000 
#    z 0.000000 0.000000 3.334170 
# 
# 
# High freq. dielectric constant tensor:
#      x y z
#    x 1.627920 0.000000 0.000000 
#    y 0.000000 1.675930 0.000000 
#    z 0.000000 0.000000 1.685350 
# 
# From -- ./inp_files/11840.got.cif
#   From: 2010.03.12/outbox.cif.g09.slc.cpg/sg65_6_cif.got.tgz:11840.got - 2010.04.10 20:52:16.
