data_PCOD8268788
_publ_section_title
;
Structure prediction by ZEFSAII (Michael W. Deem and Ramdas Pophale) SiO2 
 PCOD8268788
Probable space group: C M M M
;
_chemical_formula_sum "Si O2"
_cell_formula_units_Z 88
_cell_length_a 17.575705
_cell_length_b 28.775070
_cell_length_c 8.980758
_cell_angle_alpha 90.000000
_cell_angle_beta 90.000000
_cell_angle_gamma 90.000000
_cell_volume 4541.947785
_symmetry_space_group_name_H-M "C M M M"
_symmetry_group_IT_number 65
_symmetry_cell_setting 'orthorhombic'
loop_
_space_group_symop_operation_xyz
x,y,z
-x,-y,z
x,-y,-z
-x,y,-z
-x,-y,-z
x,y,-z
-x,y,z
x,-y,z
1/2+x,1/2+y,z
1/2-x,1/2-y,z
1/2+x,1/2-y,-z
1/2-x,1/2+y,-z
1/2-x,1/2-y,-z
1/2+x,1/2+y,-z
1/2-x,1/2+y,z
1/2+x,1/2-y,z
loop_
_atom_site_type_symbol
_atom_site_label
_atom_site_fract_x
_atom_site_fract_y
_atom_site_fract_z
Si Si1 0.777902 0.553508 0.327786
Si Si2 0.585870 0.881950 0.671535
Si Si3 0.500000 0.551758 0.176808
Si Si4 0.411816 0.302289 0.324557
Si Si5 0.854581 0.108185 0.176447
Si Si6 0.409608 0.790610 0.832594
O O1 0.753995 0.559057 0.500000
O O2 0.776875 0.500000 0.277883
O O3 0.862758 0.572807 0.300272
O O4 0.721500 0.582383 0.224751
O O5 0.586577 0.866856 0.500000
O O6 0.500000 0.894291 0.723182
O O7 0.620871 0.838510 0.762153
O O8 0.500000 0.500000 0.244811
O O9 0.425543 0.577999 0.235377
O O10 0.500000 0.549624 0.000000
O O11 0.400752 0.303007 0.500000
O O12 0.500000 0.310310 0.279386
O O13 0.359340 0.341479 0.251266
O O14 0.381112 0.253242 0.262841
O O15 0.855947 0.114253 0.000000
O O16 0.500000 0.792007 0.829214
O O17 0.378077 0.786048 0.000000
#
# Coordination Sequence:
#
# PCOD8268788 Si02
#       6
#    16  16   8  16  16  16
#     4  10  22  39  57  80 112 146 182 229 282 332
#     4   9  18  35  59  84 110 143 183 225 274 333
#     4   9  18  32  51  75 103 139 185 231 270 315
#     4  10  19  32  53  81 114 149 186 226 272 325
#     4  11  21  35  55  79 111 148 189 232 275 325
#     4   9  17  30  52  82 114 145 180 223 273 327
#
# _framework density 19.374946000000001
#
# number of rings (size 3 to 8) (size 9 to 14) (size 15 to 20)
#    0.000    2.273    0.909    2.182    0.000    5.091 
#    0.000    2.727    0.000    7.636    0.000    3.818 
#    0.000    0.000    0.000    0.000    0.000    0.000 
#
# Total GULP energy -545701.528535 kJ/mol
# GULP energy per Si atom -12402.307467 kJ/mol
# Density = 1.933085 g / cm^3
# Si number density = 19.374946 Si / 1000 Ang^3
#
#
#
# Elastic Constant Matrix: (Units=GPa)
#
#
# Indices 1 2 3 4 5 6 
#
# 1 73.9846 39.4781 28.9133 0.0000 0.0000 0.0000
# 2 39.4781 118.3391 45.5231 0.0000 0.0000 0.0000
# 3 28.9133 45.5231 84.6914 0.0000 0.0000 0.0000
# 4 0.0000 0.0000 0.0000 26.8891 0.0000 0.0000
# 5 0.0000 0.0000 0.0000 0.0000 23.0248 0.0000
# 6 0.0000 0.0000 0.0000 0.0000 0.0000 29.2342
#
#
#
# Elastic Compliance Matrix: (Units=1/GPa)
#
#
# Indices 1 2 3 4 5 6 
#
# 1 0.017238 -0.004396 -0.003522 0.000000 0.000000 0.000000
# 2 -0.004396 0.011774 -0.004828 0.000000 0.000000 0.000000
# 3 -0.003522 -0.004828 0.015605 0.000000 0.000000 0.000000
# 4 0.000000 0.000000 0.000000 0.037190 0.000000 0.000000
# 5 0.000000 0.000000 0.000000 0.000000 0.043431 0.000000
# 6 0.000000 0.000000 0.000000 0.000000 0.000000 0.034206
#
#
# Mechanical properties :
#
#
# Convention : Reuss Voigt Hill
#
# Bulk Modulus (GPa) = 52.28650 56.09378 54.19014
# Shear Modulus (GPa) = 26.13521 26.70299 26.41910
#
# Velocity S-wave (km/s) = 3.67675 3.71647 3.69666
# Velocity P-wave (km/s) = 6.71341 6.88700 6.80076
#
# Compressibility (1/GPa) = 0.01912540
#
# Stress axis : x y z
#
# Youngs Moduli (GPa) = 58.00992 84.93296 64.08112
#
# Poissons Ratio (x) = 0.37335 0.22571
# Poissons Ratio (y) = 0.25500 0.30938
# Poissons Ratio (z) = 0.20433 0.41006
#
# Static dielectric constant tensor:
#      x y z
#    x 3.329810 0.000000 0.000000 
#    y 0.000000 3.671710 0.000000 
#    z 0.000000 0.000000 3.466470 
# 
# 
# High freq. dielectric constant tensor:
#      x y z
#    x 1.729950 0.000000 0.000000 
#    y 0.000000 1.764750 0.000000 
#    z 0.000000 0.000000 1.748740 
# 
# From -- ./inp_files/10015.got.cif
#   From: 2010.03.12/outbox.cif.g09.slc.cpg/sg65_6_cif.got.tgz:10015.got - 2010.04.10 20:52:16.
