data_PCOD8268343
_publ_section_title
;
Structure prediction by ZEFSAII (Michael W. Deem and Ramdas Pophale) SiO2 
 PCOD8268343
Probable space group: C M M M
;
_chemical_formula_sum "Si O2"
_cell_formula_units_Z 72
_cell_length_a 14.716963
_cell_length_b 38.497036
_cell_length_c 8.081867
_cell_angle_alpha 90.000000
_cell_angle_beta 90.000000
_cell_angle_gamma 90.000000
_cell_volume 4578.858158
_symmetry_space_group_name_H-M "C M M M"
_symmetry_group_IT_number 65
_symmetry_cell_setting 'orthorhombic'
loop_
_space_group_symop_operation_xyz
x,y,z
-x,-y,z
x,-y,-z
-x,y,-z
-x,-y,-z
x,y,-z
-x,y,z
x,-y,z
1/2+x,1/2+y,z
1/2-x,1/2-y,z
1/2+x,1/2-y,-z
1/2-x,1/2+y,-z
1/2-x,1/2-y,-z
1/2+x,1/2+y,-z
1/2-x,1/2+y,z
1/2+x,1/2-y,z
loop_
_atom_site_type_symbol
_atom_site_label
_atom_site_fract_x
_atom_site_fract_y
_atom_site_fract_z
Si Si1 0.500000 0.730090 0.697035
Si Si2 0.667716 0.840914 0.186569
Si Si3 0.000000 0.304363 0.682264
Si Si4 0.392686 0.961360 0.500000
Si Si5 0.393662 0.084308 0.812064
Si Si6 0.801301 0.785338 0.303946
O O1 0.500000 0.728962 0.500000
O O2 0.500000 0.768407 0.783047
O O3 0.405843 0.712845 0.758695
O O4 0.588509 0.827104 0.300440
O O5 0.671975 0.882383 0.213544
O O6 0.759785 0.820831 0.230815
O O7 0.639392 0.832793 0.000000
O O8 0.000000 0.289325 0.500000
O O9 0.500000 0.963856 0.500000
O O10 0.361670 0.942592 0.329618
O O11 0.349882 0.000000 0.500000
O O12 0.500000 0.094584 0.788450
O O13 0.379988 0.069342 0.000000
O O14 0.793400 0.786466 0.500000
O O15 0.750000 0.750000 0.241115
#
# Coordination Sequence:
#
# PCOD8268343 Si02
#       6
#     8  16   8   8  16  16
#     4   9  18  33  45  63  87 111 154 203 242 280
#     4  11  21  31  43  67  93 117 153 199 241 275
#     4  11  19  29  49  65  81 116 156 199 239 276
#     4   9  18  30  46  68  91 121 157 183 215 270
#     4   9  18  30  44  65  93 121 151 191 231 266
#     4  10  19  32  48  64  84 117 158 196 238 282
#
# _framework density 15.724444
#
# number of rings (size 3 to 8) (size 9 to 14) (size 15 to 20)
#    0.000    2.111    3.333    1.000    3.111    0.889 
#    0.000    2.778    0.000    0.000    0.000    0.000 
#    0.000    0.000    0.000    2.000    0.000    8.889 
#
# Total GULP energy -445974.136269 kJ/mol
# GULP energy per Si atom -12388.170452 kJ/mol
# Density = 1.568865 g / cm^3
# Si number density = 15.724444 Si / 1000 Ang^3
#
#
#
# Elastic Constant Matrix: (Units=GPa)
#
#
# Indices 1 2 3 4 5 6 
#
# 1 84.8638 40.7062 21.8400 0.0000 0.0000 0.0000
# 2 40.7062 106.0519 52.2515 0.0000 0.0000 0.0000
# 3 21.8400 52.2515 72.2737 0.0000 0.0000 0.0000
# 4 0.0000 0.0000 0.0000 14.2901 0.0000 0.0000
# 5 0.0000 0.0000 0.0000 0.0000 7.0115 0.0000
# 6 0.0000 0.0000 0.0000 0.0000 0.0000 19.2600
#
#
#
# Elastic Compliance Matrix: (Units=1/GPa)
#
#
# Indices 1 2 3 4 5 6 
#
# 1 0.014457 -0.005276 -0.000554 0.000000 0.000000 0.000000
# 2 -0.005276 0.016572 -0.010387 0.000000 0.000000 0.000000
# 3 -0.000554 -0.010387 0.021513 0.000000 0.000000 0.000000
# 4 0.000000 0.000000 0.000000 0.069979 0.000000 0.000000
# 5 0.000000 0.000000 0.000000 0.000000 0.142623 0.000000
# 6 0.000000 0.000000 0.000000 0.000000 0.000000 0.051921
#
#
# Mechanical properties :
#
#
# Convention : Reuss Voigt Hill
#
# Bulk Modulus (GPa) = 49.73139 54.75388 52.24263
# Shear Modulus (GPa) = 14.03702 18.00510 16.02106
#
# Velocity S-wave (km/s) = 2.99103 3.38751 3.19543
# Velocity P-wave (km/s) = 6.60483 7.08497 6.84911
#
# Compressibility (1/GPa) = 0.02010803
#
# Stress axis : x y z
#
# Youngs Moduli (GPa) = 69.17099 60.34318 46.48357
#
# Poissons Ratio (x) = 0.31837 0.02577
# Poissons Ratio (y) = 0.36494 0.48281
# Poissons Ratio (z) = 0.03834 0.62676
#
# Static dielectric constant tensor:
#      x y z
#    x 2.674810 0.000000 0.000000 
#    y 0.000000 2.969580 0.000000 
#    z 0.000000 0.000000 3.063970 
# 
# 
# High freq. dielectric constant tensor:
#      x y z
#    x 1.562830 0.000000 0.000000 
#    y 0.000000 1.581920 0.000000 
#    z 0.000000 0.000000 1.610410 
# 
# From -- ./inp_files/7734.got.cif
#   From: 2010.03.12/outbox.cif.g09.slc.cpg/sg65_4_cif.got.tgz:7734.got - 2010.04.10 20:52:16.
