data_PCOD8268198
_publ_section_title
;
Structure prediction by ZEFSAII (Michael W. Deem and Ramdas Pophale) SiO2 
 PCOD8268198
Probable space group: C M M M
;
_chemical_formula_sum "Si O2"
_cell_formula_units_Z 104
_cell_length_a 9.494228
_cell_length_b 29.487571
_cell_length_c 20.236168
_cell_angle_alpha 90.000000
_cell_angle_beta 90.000000
_cell_angle_gamma 90.000000
_cell_volume 5665.352445
_symmetry_space_group_name_H-M "C M M M"
_symmetry_group_IT_number 65
_symmetry_cell_setting 'orthorhombic'
loop_
_space_group_symop_operation_xyz
x,y,z
-x,-y,z
x,-y,-z
-x,y,-z
-x,-y,-z
x,y,-z
-x,y,z
x,-y,z
1/2+x,1/2+y,z
1/2-x,1/2-y,z
1/2+x,1/2-y,-z
1/2-x,1/2+y,-z
1/2-x,1/2-y,-z
1/2+x,1/2+y,-z
1/2-x,1/2+y,z
1/2+x,1/2-y,z
loop_
_atom_site_type_symbol
_atom_site_label
_atom_site_fract_x
_atom_site_fract_y
_atom_site_fract_z
Si Si1 0.835725 0.862864 0.880674
Si Si2 0.164162 0.551557 0.077128
Si Si3 0.650291 0.290681 0.500000
Si Si4 0.844287 0.000000 0.577325
Si Si5 0.163944 0.414580 0.422958
Si Si6 0.337615 0.706073 0.768484
Si Si7 0.340883 0.658515 0.364655
Si Si8 0.334287 0.297212 0.000000
O O1 0.752070 0.910418 0.883471
O O2 0.799086 0.838073 0.811826
O O3 0.000000 0.875019 0.886872
O O4 0.790578 0.827327 0.937124
O O5 0.206006 0.500000 0.099046
O O6 0.000000 0.559699 0.091486
O O7 0.197381 0.557470 0.000000
O O8 0.500000 0.267067 0.500000
O O9 0.750000 0.250000 0.500000
O O10 0.670506 0.319807 0.435666
O O11 0.753195 0.957538 0.598947
O O12 0.866682 0.000000 0.500000
O O13 0.000000 0.000000 0.611038
O O14 0.191300 0.401188 0.500000
O O15 0.219344 0.378851 0.368993
O O16 0.000000 0.423773 0.411167
O O17 0.500000 0.719054 0.778924
O O18 0.250000 0.750000 0.790478
O O19 0.302966 0.694056 0.692605
O O20 0.500000 0.639033 0.353158
O O21 0.250000 0.250000 0.000000
O O22 0.500000 0.285599 0.000000
#
# Coordination Sequence:
#
# PCOD8268198 Si02
#       8
#    16  16   8   8  16  16  16   8
#     4  10  20  35  54  80 111 144 182 223 266 316
#     4   9  18  33  55  85 116 144 179 223 269 319
#     4  10  20  32  50  73  98 127 166 214 263 316
#     4   9  17  29  49  75 105 139 169 204 259 324
#     4  10  19  31  50  78 106 132 167 216 265 314
#     4  10  22  38  56  78 108 144 184 226 271 327
#     4  10  20  35  53  74 102 137 176 220 269 326
#     4  10  20  32  49  76 109 141 178 221 261 306
#
# _framework density 18.357198
#
# number of rings (size 3 to 8) (size 9 to 14) (size 15 to 20)
#    0.000    2.231    1.538    2.077    0.000    4.308 
#    0.000    0.769    1.692    0.000    0.000    0.000 
#    0.000    0.000    0.000    0.000    0.000    0.000 
#
# Total GULP energy -644480.355988 kJ/mol
# GULP energy per Si atom -12393.853000 kJ/mol
# Density = 1.831542 g / cm^3
# Si number density = 18.357198 Si / 1000 Ang^3
#
#
#
# Elastic Constant Matrix: (Units=GPa)
#
#
# Indices 1 2 3 4 5 6 
#
# 1 109.6936 81.6167 29.8661 0.0000 0.0000 0.0000
# 2 81.6167 133.6090 38.0345 0.0000 0.0000 0.0000
# 3 29.8661 38.0345 76.6206 0.0000 0.0000 0.0000
# 4 0.0000 0.0000 0.0000 21.7444 0.0000 0.0000
# 5 0.0000 0.0000 0.0000 0.0000 19.3687 0.0000
# 6 0.0000 0.0000 0.0000 0.0000 0.0000 44.4432
#
#
#
# Elastic Compliance Matrix: (Units=1/GPa)
#
#
# Indices 1 2 3 4 5 6 
#
# 1 0.016901 -0.009839 -0.001704 0.000000 0.000000 0.000000
# 2 -0.009839 0.014444 -0.003335 0.000000 0.000000 0.000000
# 3 -0.001704 -0.003335 0.015371 0.000000 0.000000 0.000000
# 4 0.000000 0.000000 0.000000 0.045989 0.000000 0.000000
# 5 0.000000 0.000000 0.000000 0.000000 0.051630 0.000000
# 6 0.000000 0.000000 0.000000 0.000000 0.000000 0.022501
#
#
# Mechanical properties :
#
#
# Convention : Reuss Voigt Hill
#
# Bulk Modulus (GPa) = 58.96040 68.77307 63.86674
# Shear Modulus (GPa) = 24.72258 28.47164 26.59711
#
# Velocity S-wave (km/s) = 3.67379 3.94252 3.81053
# Velocity P-wave (km/s) = 7.08405 7.63346 7.36388
#
# Compressibility (1/GPa) = 0.01696054
#
# Stress axis : x y z
#
# Youngs Moduli (GPa) = 59.16839 69.23173 65.05820
#
# Poissons Ratio (x) = 0.68118 0.11084
# Poissons Ratio (y) = 0.58217 0.21696
# Poissons Ratio (z) = 0.10080 0.23088
#
# Static dielectric constant tensor:
#      x y z
#    x 3.457160 0.000000 0.000000 
#    y 0.000000 3.502300 0.000000 
#    z 0.000000 0.000000 3.237720 
# 
# 
# High freq. dielectric constant tensor:
#      x y z
#    x 1.715340 0.000000 0.000000 
#    y 0.000000 1.713440 0.000000 
#    z 0.000000 0.000000 1.690110 
# 
# From -- ./inp_files/60963.got.cif
#   From: 2010.03.12/outbox.cif.g09.slc.cpg/sg65_31_cif.got.tgz:60963.got - 2010.04.10 20:52:16.
