data_PCOD8268734
_publ_section_title
;
Structure prediction by ZEFSAII (Michael W. Deem and Ramdas Pophale) SiO2 
 PCOD8268734
Probable space group: C M M M
;
_chemical_formula_sum "Si O2"
_cell_formula_units_Z 96
_cell_length_a 24.162978
_cell_length_b 22.698492
_cell_length_c 9.253829
_cell_angle_alpha 90.000000
_cell_angle_beta 90.000000
_cell_angle_gamma 90.000000
_cell_volume 5075.384322
_symmetry_space_group_name_H-M "C M M M"
_symmetry_group_IT_number 65
_symmetry_cell_setting 'orthorhombic'
loop_
_space_group_symop_operation_xyz
x,y,z
-x,-y,z
x,-y,-z
-x,y,-z
-x,-y,-z
x,y,-z
-x,y,z
x,-y,z
1/2+x,1/2+y,z
1/2-x,1/2-y,z
1/2+x,1/2-y,-z
1/2-x,1/2+y,-z
1/2-x,1/2-y,-z
1/2+x,1/2+y,-z
1/2-x,1/2+y,z
1/2+x,1/2-y,z
loop_
_atom_site_type_symbol
_atom_site_label
_atom_site_fract_x
_atom_site_fract_y
_atom_site_fract_z
Si Si1 0.702474 0.898216 0.333241
Si Si2 0.083184 0.565387 0.334615
Si Si3 0.813145 0.267282 0.338409
Si Si4 0.500000 0.719559 0.171442
Si Si5 0.616344 0.325368 0.828834
Si Si6 0.500000 0.854928 0.171835
Si Si7 0.811901 0.933777 0.168983
O O1 0.721385 0.896722 0.500000
O O2 0.648985 0.938560 0.307441
O O3 0.683524 0.833745 0.281258
O O4 0.753474 0.922735 0.243646
O O5 0.071145 0.584162 0.500000
O O6 0.059383 0.500000 0.304029
O O7 0.054527 0.612751 0.231214
O O8 0.838278 0.261160 0.500000
O O9 0.750000 0.250000 0.338986
O O10 0.846312 0.227118 0.228897
O O11 0.553803 0.684102 0.229094
O O12 0.500000 0.787218 0.226601
O O13 0.500000 0.720486 0.000000
O O14 0.640985 0.388192 0.775410
O O15 0.617565 0.321491 0.000000
O O16 0.500000 0.858801 0.000000
O O17 0.832503 0.000000 0.204395
O O18 0.801884 0.924956 0.000000
#
# Coordination Sequence:
#
# PCOD8268734 Si02
#       7
#    16  16  16   8  16   8  16
#     4  10  20  35  55  79 108 143 178 213 261 316
#     4  10  21  36  53  74 103 141 182 216 249 303
#     4  10  19  32  52  81 113 137 169 221 267 308
#     4   9  20  38  57  79 105 135 174 221 264 314
#     4  10  20  36  57  78 106 143 179 214 263 319
#     4  11  22  36  55  77 102 133 174 221 268 310
#     4  10  21  35  52  78 109 138 173 219 265 312
#
# _framework density 18.914823999999999
#
# number of rings (size 3 to 8) (size 9 to 14) (size 15 to 20)
#    0.000    2.000    1.667    2.000    0.000    4.000 
#    0.000    1.667    0.000    2.500    0.000    0.000 
#    0.000    2.667    0.000    0.000    0.000    0.000 
#
# Total GULP energy -595125.476733 kJ/mol
# GULP energy per Si atom -12398.447432 kJ/mol
# Density = 1.887177 g / cm^3
# Si number density = 18.914824 Si / 1000 Ang^3
#
#
#
# Elastic Constant Matrix: (Units=GPa)
#
#
# Indices 1 2 3 4 5 6 
#
# 1 117.8787 67.3132 32.3519 0.0000 0.0000 0.0000
# 2 67.3132 130.8234 33.8997 0.0000 0.0000 0.0000
# 3 32.3519 33.8997 37.2930 0.0000 0.0000 0.0000
# 4 0.0000 0.0000 0.0000 22.7548 0.0000 0.0000
# 5 0.0000 0.0000 0.0000 0.0000 20.8766 0.0000
# 6 0.0000 0.0000 0.0000 0.0000 0.0000 18.2749
#
#
#
# Elastic Compliance Matrix: (Units=1/GPa)
#
#
# Indices 1 2 3 4 5 6 
#
# 1 0.013254 -0.005024 -0.006932 0.000000 0.000000 0.000000
# 2 -0.005024 0.011903 -0.006462 0.000000 0.000000 0.000000
# 3 -0.006932 -0.006462 0.038702 0.000000 0.000000 0.000000
# 4 0.000000 0.000000 0.000000 0.043947 0.000000 0.000000
# 5 0.000000 0.000000 0.000000 0.000000 0.047901 0.000000
# 6 0.000000 0.000000 0.000000 0.000000 0.000000 0.054720
#
#
# Mechanical properties :
#
#
# Convention : Reuss Voigt Hill
#
# Bulk Modulus (GPa) = 37.00311 61.45832 49.23071
# Shear Modulus (GPa) = 19.51067 22.54328 21.02697
#
# Velocity S-wave (km/s) = 3.21518 3.45604 3.33778
# Velocity P-wave (km/s) = 5.77830 6.96335 6.39832
#
# Compressibility (1/GPa) = 0.02702476
#
# Stress axis : x y z
#
# Youngs Moduli (GPa) = 75.44652 84.01066 25.83842
#
# Poissons Ratio (x) = 0.42204 0.17910
# Poissons Ratio (y) = 0.37902 0.16697
# Poissons Ratio (z) = 0.52297 0.54289
#
# Static dielectric constant tensor:
#      x y z
#    x 3.625050 0.000000 0.000000 
#    y 0.000000 3.708280 0.000000 
#    z 0.000000 0.000000 3.318340 
# 
# 
# High freq. dielectric constant tensor:
#      x y z
#    x 1.734790 0.000000 0.000000 
#    y 0.000000 1.745640 0.000000 
#    z 0.000000 0.000000 1.714930 
# 
# From -- ./inp_files/14350.got.cif
#   From: 2010.03.12/outbox.cif.g09.slc.cpg/sg65_8_cif.got.tgz:14350.got - 2010.04.10 20:52:16.
