data_PCOD8268273
_publ_section_title
;
Structure prediction by ZEFSAII (Michael W. Deem and Ramdas Pophale) SiO2 
 PCOD8268273
Probable space group: C M M M
;
_chemical_formula_sum "Si O2"
_cell_formula_units_Z 104
_cell_length_a 8.917943
_cell_length_b 20.407334
_cell_length_c 30.129306
_cell_angle_alpha 90.000000
_cell_angle_beta 90.000000
_cell_angle_gamma 90.000000
_cell_volume 5483.275827
_symmetry_space_group_name_H-M "C M M M"
_symmetry_group_IT_number 65
_symmetry_cell_setting 'orthorhombic'
loop_
_space_group_symop_operation_xyz
x,y,z
-x,-y,z
x,-y,-z
-x,y,-z
-x,-y,-z
x,y,-z
-x,y,z
x,-y,z
1/2+x,1/2+y,z
1/2-x,1/2-y,z
1/2+x,1/2-y,-z
1/2-x,1/2+y,-z
1/2-x,1/2-y,-z
1/2+x,1/2+y,-z
1/2-x,1/2+y,z
1/2+x,1/2-y,z
loop_
_atom_site_type_symbol
_atom_site_label
_atom_site_fract_x
_atom_site_fract_y
_atom_site_fract_z
Si Si1 0.327628 0.574182 0.699559
Si Si2 0.676958 0.867881 0.550828
Si Si3 0.677448 0.678454 0.856564
Si Si4 0.176240 0.186572 0.632320
Si Si5 0.675551 0.075010 0.208363
Si Si6 0.666431 0.500000 0.447764
Si Si7 0.174762 0.819385 0.046769
O O1 0.500000 0.585848 0.713653
O O2 0.303208 0.500000 0.682403
O O3 0.279391 0.622520 0.660236
O O4 0.223446 0.589373 0.741395
O O5 0.722438 0.852227 0.500000
O O6 0.500000 0.868160 0.556735
O O7 0.752756 0.815292 0.583012
O O8 0.741142 0.937172 0.567316
O O9 0.500000 0.686037 0.850138
O O10 0.750000 0.750000 0.848566
O O11 0.737655 0.625104 0.822726
O O12 0.720226 0.648920 0.905828
O O13 0.250000 0.250000 0.656023
O O14 0.000000 0.195614 0.628275
O O15 0.500000 0.087759 0.203612
O O16 0.717125 0.000000 0.195504
O O17 0.500000 0.500000 0.425445
O O18 0.647520 0.500000 0.500000
O O19 0.250000 0.750000 0.044177
O O20 0.000000 0.806417 0.048038
O O21 0.216075 0.858101 0.000000
#
# Coordination Sequence:
#
# PCOD8268273 Si02
#       7
#    16  16  16  16  16   8  16
#     4   9  20  40  63  84 106 138 181 226 271 325
#     4  10  21  37  57  83 115 149 186 227 269 315
#     4  10  19  31  51  79 110 144 182 227 277 327
#     4  11  24  40  60  85 115 148 182 223 272 326
#     4  10  21  37  57  81 109 142 181 225 273 328
#     4   9  17  31  53  81 111 143 181 223 265 309
#     4   8  14  25  42  67 100 137 178 223 270 320
#
# _framework density 18.966764999999999
#
# number of rings (size 3 to 8) (size 9 to 14) (size 15 to 20)
#    0.000    2.385    0.000    2.077    1.077    5.538 
#    0.000    1.538    0.000    0.462    0.000    3.231 
#    0.000    0.000    0.000    0.000    0.000    0.000 
#
# Total GULP energy -644359.912159 kJ/mol
# GULP energy per Si atom -12391.536772 kJ/mol
# Density = 1.892360 g / cm^3
# Si number density = 18.966765 Si / 1000 Ang^3
#
#
#
# Elastic Constant Matrix: (Units=GPa)
#
#
# Indices 1 2 3 4 5 6 
#
# 1 84.2966 48.8614 52.3465 0.0000 0.0000 0.0000
# 2 48.8614 104.3885 69.5339 0.0000 0.0000 0.0000
# 3 52.3465 69.5339 115.2968 0.0000 0.0000 0.0000
# 4 0.0000 0.0000 0.0000 21.1997 0.0000 0.0000
# 5 0.0000 0.0000 0.0000 0.0000 23.2700 0.0000
# 6 0.0000 0.0000 0.0000 0.0000 0.0000 31.8179
#
#
#
# Elastic Compliance Matrix: (Units=1/GPa)
#
#
# Indices 1 2 3 4 5 6 
#
# 1 0.017940 -0.004967 -0.005149 0.000000 0.000000 0.000000
# 2 -0.004967 0.017387 -0.008231 0.000000 0.000000 0.000000
# 3 -0.005149 -0.008231 0.015975 0.000000 0.000000 0.000000
# 4 0.000000 0.000000 0.000000 0.047170 0.000000 0.000000
# 5 0.000000 0.000000 0.000000 0.000000 0.042974 0.000000
# 6 0.000000 0.000000 0.000000 0.000000 0.000000 0.031429
#
#
# Mechanical properties :
#
#
# Convention : Reuss Voigt Hill
#
# Bulk Modulus (GPa) = 68.45841 71.71840 70.08840
# Shear Modulus (GPa) = 23.31674 24.14019 23.72847
#
# Velocity S-wave (km/s) = 3.51001 3.57145 3.54086
# Velocity P-wave (km/s) = 7.25252 7.40957 7.33147
#
# Compressibility (1/GPa) = 0.01460741
#
# Stress axis : x y z
#
# Youngs Moduli (GPa) = 55.74274 57.51376 62.59774
#
# Poissons Ratio (x) = 0.28567 0.32233
# Poissons Ratio (y) = 0.27688 0.51523
# Poissons Ratio (z) = 0.28703 0.47339
#
# Static dielectric constant tensor:
#      x y z
#    x 3.536420 0.000000 0.000000 
#    y 0.000000 3.353170 0.000000 
#    z 0.000000 0.000000 3.848490 
# 
# 
# High freq. dielectric constant tensor:
#      x y z
#    x 1.746110 0.000000 0.000000 
#    y 0.000000 1.715760 0.000000 
#    z 0.000000 0.000000 1.743540 
# 
# From -- ./inp_files/73362.got.cif
#   From: 2010.03.12/outbox.cif.g09.slc.cpg/sg65_37_cif.got.tgz:73362.got - 2010.04.10 20:52:16.
