data_PCOD8268190
_publ_section_title
;
Structure prediction by ZEFSAII (Michael W. Deem and Ramdas Pophale) SiO2 
 PCOD8268190
Probable space group: C M M M
;
_chemical_formula_sum "Si O2"
_cell_formula_units_Z 88
_cell_length_a 17.108207
_cell_length_b 28.496783
_cell_length_c 9.150734
_cell_angle_alpha 90.000000
_cell_angle_beta 90.000000
_cell_angle_gamma 90.000000
_cell_volume 4461.246937
_symmetry_space_group_name_H-M "C M M M"
_symmetry_group_IT_number 65
_symmetry_cell_setting 'orthorhombic'
loop_
_space_group_symop_operation_xyz
x,y,z
-x,-y,z
x,-y,-z
-x,y,-z
-x,-y,-z
x,y,-z
-x,y,z
x,-y,z
1/2+x,1/2+y,z
1/2-x,1/2-y,z
1/2+x,1/2-y,-z
1/2-x,1/2+y,-z
1/2-x,1/2-y,-z
1/2+x,1/2+y,-z
1/2-x,1/2+y,z
1/2+x,1/2-y,z
loop_
_atom_site_type_symbol
_atom_site_label
_atom_site_fract_x
_atom_site_fract_y
_atom_site_fract_z
Si Si1 0.157849 0.400079 0.827003
Si Si2 0.327942 0.272246 0.332398
Si Si3 0.500000 0.948256 0.826640
Si Si4 0.199041 0.946124 0.669588
Si Si5 0.587559 0.179560 0.332607
Si Si6 0.912397 0.863315 0.327178
O O1 0.227640 0.431039 0.765694
O O2 0.153931 0.347651 0.760721
O O3 0.077444 0.422857 0.770524
O O4 0.165749 0.397701 0.000000
O O5 0.306149 0.283359 0.500000
O O6 0.250000 0.250000 0.256743
O O7 0.397759 0.234958 0.318248
O O8 0.358952 0.320989 0.260311
O O9 0.500000 0.000000 0.758823
O O10 0.500000 0.950118 0.000000
O O11 0.220843 0.939608 0.500000
O O12 0.125756 0.913419 0.712853
O O13 0.176848 0.000000 0.704724
O O14 0.595645 0.163431 0.500000
O O15 0.500000 0.169752 0.273125
O O16 0.917905 0.856370 0.500000
O O17 0.000000 0.862032 0.260178
#
# Coordination Sequence:
#
# PCOD8268190 Si02
#       6
#    16  16   8  16  16  16
#     4  11  21  35  54  76 106 144 185 223 268 327
#     4   9  16  27  47  77 111 145 178 215 263 318
#     4   9  18  32  49  69  95 131 177 221 256 305
#     4  10  21  36  55  81 110 138 175 229 285 327
#     4  10  19  31  50  77 109 141 176 221 268 312
#     4   9  17  31  53  81 112 145 183 224 268 324
#
# _framework density 19.725425999999999
#
# number of rings (size 3 to 8) (size 9 to 14) (size 15 to 20)
#    0.000    2.273    0.909    2.727    0.000    6.545 
#    0.000    1.818    0.000    7.636    0.000    1.273 
#    0.000    0.000    0.000    0.000    0.000    0.000 
#
# Total GULP energy -545459.294741 kJ/mol
# GULP energy per Si atom -12396.802153 kJ/mol
# Density = 1.968053 g / cm^3
# Si number density = 19.725426 Si / 1000 Ang^3
#
#
#
# Elastic Constant Matrix: (Units=GPa)
#
#
# Indices 1 2 3 4 5 6 
#
# 1 142.5673 69.3584 27.7628 0.0000 0.0000 0.0000
# 2 69.3584 153.7151 32.2640 0.0000 0.0000 0.0000
# 3 27.7628 32.2640 40.6279 0.0000 0.0000 0.0000
# 4 0.0000 0.0000 0.0000 7.7162 0.0000 0.0000
# 5 0.0000 0.0000 0.0000 0.0000 13.9337 0.0000
# 6 0.0000 0.0000 0.0000 0.0000 0.0000 30.2277
#
#
#
# Elastic Compliance Matrix: (Units=1/GPa)
#
#
# Indices 1 2 3 4 5 6 
#
# 1 0.009423 -0.003480 -0.003675 0.000000 0.000000 0.000000
# 2 -0.003480 0.009092 -0.004842 0.000000 0.000000 0.000000
# 3 -0.003675 -0.004842 0.030971 0.000000 0.000000 0.000000
# 4 0.000000 0.000000 0.000000 0.129597 0.000000 0.000000
# 5 0.000000 0.000000 0.000000 0.000000 0.071768 0.000000
# 6 0.000000 0.000000 0.000000 0.000000 0.000000 0.033082
#
#
# Mechanical properties :
#
#
# Convention : Reuss Voigt Hill
#
# Bulk Modulus (GPa) = 39.23093 66.18676 52.70885
# Shear Modulus (GPa) = 15.80145 24.21053 20.00599
#
# Velocity S-wave (km/s) = 2.83339 3.50719 3.18814
# Velocity P-wave (km/s) = 5.53496 7.07301 6.35072
#
# Compressibility (1/GPa) = 0.02549009
#
# Stress axis : x y z
#
# Youngs Moduli (GPa) = 106.12154 109.98296 32.28877
#
# Poissons Ratio (x) = 0.38279 0.11867
# Poissons Ratio (y) = 0.36935 0.15635
# Poissons Ratio (z) = 0.39003 0.53256
#
# Static dielectric constant tensor:
#      x y z
#    x 3.710430 0.000000 0.000000 
#    y 0.000000 3.791210 0.000000 
#    z 0.000000 0.000000 3.007540 
# 
# 
# High freq. dielectric constant tensor:
#      x y z
#    x 1.775530 0.000000 0.000000 
#    y 0.000000 1.784570 0.000000 
#    z 0.000000 0.000000 1.704880 
# 
# From -- ./inp_files/10073.got.cif
#   From: 2010.03.12/outbox.cif.g09.slc.cpg/sg65_6_cif.got.tgz:10073.got - 2010.04.10 20:52:16.
