data_PCOD8268125
_publ_section_title
;
Structure prediction by ZEFSAII (Michael W. Deem and Ramdas Pophale) SiO2 
 PCOD8268125
Probable space group: C M M M
;
_chemical_formula_sum "Si O2"
_cell_formula_units_Z 64
_cell_length_a 7.904880
_cell_length_b 37.192648
_cell_length_c 12.537930
_cell_angle_alpha 90.000000
_cell_angle_beta 90.000000
_cell_angle_gamma 90.000000
_cell_volume 3686.194291
_symmetry_space_group_name_H-M "C M M M"
_symmetry_group_IT_number 65
_symmetry_cell_setting 'orthorhombic'
loop_
_space_group_symop_operation_xyz
x,y,z
-x,-y,z
x,-y,-z
-x,y,-z
-x,-y,-z
x,y,-z
-x,y,z
x,-y,z
1/2+x,1/2+y,z
1/2-x,1/2-y,z
1/2+x,1/2-y,-z
1/2-x,1/2+y,-z
1/2-x,1/2-y,-z
1/2+x,1/2+y,-z
1/2-x,1/2+y,z
1/2+x,1/2-y,z
loop_
_atom_site_type_symbol
_atom_site_label
_atom_site_fract_x
_atom_site_fract_y
_atom_site_fract_z
Si Si1 0.698906 0.790985 0.500000
Si Si2 0.689808 0.411639 0.376112
Si Si3 0.805610 0.662269 0.693990
Si Si4 0.801479 0.789303 0.121383
Si Si5 0.000000 0.459866 0.373451
O O1 0.500000 0.793590 0.500000
O O2 0.750000 0.750000 0.500000
O O3 0.771069 0.810611 0.605347
O O4 0.724579 0.402679 0.500000
O O5 0.500000 0.427460 0.360019
O O6 0.703644 0.374934 0.309254
O O7 0.829278 0.439934 0.333705
O O8 0.789203 0.680187 0.809651
O O9 0.000000 0.653278 0.669379
O O10 0.750000 0.750000 0.164586
O O11 0.000000 0.794415 0.131169
O O12 0.737921 0.793815 0.000000
O O13 0.000000 0.500000 0.324524
O O14 0.000000 0.462005 0.500000
#
# Coordination Sequence:
#
# PCOD8268125 Si02
#       5
#     8  16  16  16   8
#     4  10  22  32  44  66  96 129 166 213 255 301
#     4  10  19  31  50  74 102 138 174 208 257 307
#     4  11  20  33  51  70  99 134 171 215 259 311
#     4  10  21  36  51  69  95 129 174 224 271 314
#     4   9  18  32  50  72 105 139 173 213 250 307
#
# _framework density 17.362079999999999
#
# number of rings (size 3 to 8) (size 9 to 14) (size 15 to 20)
#    0.000    1.875    2.500    2.250    0.000    6.000 
#    0.000    2.500    0.000    0.000    0.000    0.000 
#    0.000    2.000    0.000    5.250    0.000    0.250 
#
# Total GULP energy -396857.158166 kJ/mol
# GULP energy per Si atom -12401.786193 kJ/mol
# Density = 1.732256 g / cm^3
# Si number density = 17.362080 Si / 1000 Ang^3
#
#
#
# Elastic Constant Matrix: (Units=GPa)
#
#
# Indices 1 2 3 4 5 6 
#
# 1 94.4597 47.4977 17.1775 0.0000 0.0000 0.0000
# 2 47.4977 132.4606 34.2295 0.0000 0.0000 0.0000
# 3 17.1775 34.2295 55.9315 0.0000 0.0000 0.0000
# 4 0.0000 0.0000 0.0000 58.3925 0.0000 0.0000
# 5 0.0000 0.0000 0.0000 0.0000 19.0655 0.0000
# 6 0.0000 0.0000 0.0000 0.0000 0.0000 25.3660
#
#
#
# Elastic Compliance Matrix: (Units=1/GPa)
#
#
# Indices 1 2 3 4 5 6 
#
# 1 0.013001 -0.004312 -0.001354 0.000000 0.000000 0.000000
# 2 -0.004312 0.010398 -0.005039 0.000000 0.000000 0.000000
# 3 -0.001354 -0.005039 0.021379 0.000000 0.000000 0.000000
# 4 0.000000 0.000000 0.000000 0.017125 0.000000 0.000000
# 5 0.000000 0.000000 0.000000 0.000000 0.052451 0.000000
# 6 0.000000 0.000000 0.000000 0.000000 0.000000 0.039423
#
#
# Mechanical properties :
#
#
# Convention : Reuss Voigt Hill
#
# Bulk Modulus (GPa) = 42.79452 53.40680 48.10066
# Shear Modulus (GPa) = 27.32605 32.82794 30.07699
#
# Velocity S-wave (km/s) = 3.97154 4.35303 4.16665
# Velocity P-wave (km/s) = 6.76259 7.48950 7.13530
#
# Compressibility (1/GPa) = 0.02336748
#
# Stress axis : x y z
#
# Youngs Moduli (GPa) = 76.91728 96.17452 46.77566
#
# Poissons Ratio (x) = 0.41471 0.06333
# Poissons Ratio (y) = 0.33167 0.23570
# Poissons Ratio (z) = 0.10414 0.48463
#
# Static dielectric constant tensor:
#      x y z
#    x 3.306450 0.000000 0.000000 
#    y 0.000000 3.085230 0.000000 
#    z 0.000000 0.000000 3.013610 
# 
# 
# High freq. dielectric constant tensor:
#      x y z
#    x 1.684910 0.000000 0.000000 
#    y 0.000000 1.656330 0.000000 
#    z 0.000000 0.000000 1.629370 
# 
# From -- ./inp_files/36874.got.cif
#   From: 2010.03.12/outbox.cif.g09.slc.cpg/sg65_19_cif.got.tgz:36874.got - 2010.04.10 20:52:16.
