data_PCOD8268727
_publ_section_title
;
Structure prediction by ZEFSAII (Michael W. Deem and Ramdas Pophale) SiO2 
 PCOD8268727
Probable space group: C M M M
;
_chemical_formula_sum "Si O2"
_cell_formula_units_Z 120
_cell_length_a 18.217819
_cell_length_b 20.121475
_cell_length_c 17.719334
_cell_angle_alpha 90.000000
_cell_angle_beta 90.000000
_cell_angle_gamma 90.000000
_cell_volume 6495.365448
_symmetry_space_group_name_H-M "C M M M"
_symmetry_group_IT_number 65
_symmetry_cell_setting 'orthorhombic'
loop_
_space_group_symop_operation_xyz
x,y,z
-x,-y,z
x,-y,-z
-x,y,-z
-x,-y,-z
x,y,-z
-x,y,z
x,-y,z
1/2+x,1/2+y,z
1/2-x,1/2-y,z
1/2+x,1/2-y,-z
1/2-x,1/2+y,-z
1/2-x,1/2-y,-z
1/2+x,1/2+y,-z
1/2-x,1/2+y,z
1/2+x,1/2-y,z
loop_
_atom_site_type_symbol
_atom_site_label
_atom_site_fract_x
_atom_site_fract_y
_atom_site_fract_z
Si Si1 0.585140 0.076526 0.298921
Si Si2 0.329588 0.672924 0.586044
Si Si3 0.714164 0.075500 0.189423
Si Si4 0.143923 0.924358 0.287346
Si Si5 0.081312 0.854960 0.847966
Si Si6 0.413095 0.571543 0.000000
Si Si7 0.285395 0.679891 0.915011
Si Si8 0.157598 0.323511 0.413718
O O1 0.500000 0.089191 0.278243
O O2 0.634249 0.091014 0.224901
O O3 0.608530 0.126555 0.365117
O O4 0.597318 0.000000 0.325668
O O5 0.353905 0.660592 0.500000
O O6 0.369983 0.619869 0.638773
O O7 0.243145 0.660774 0.594577
O O8 0.354047 0.746869 0.611607
O O9 0.774085 0.084874 0.255676
O O10 0.729701 0.126092 0.121230
O O11 0.717228 0.000000 0.158410
O O12 0.084434 0.900694 0.225587
O O13 0.127157 0.000000 0.309051
O O14 0.147267 0.802021 0.855381
O O15 0.000000 0.824120 0.856837
O O16 0.109079 0.896627 0.920508
O O17 0.375265 0.500000 0.000000
O O18 0.500000 0.567051 0.000000
O O19 0.250000 0.750000 0.926249
O O20 0.308239 0.654808 0.000000
O O21 0.132518 0.332639 0.500000
#
# Coordination Sequence:
#
# PCOD8268727 Si02
#       8
#    16  16  16  16  16   8  16  16
#     4  10  20  34  54  80 111 144 178 224 281 332
#     4   9  18  33  53  75 102 142 187 230 273 320
#     4   9  19  35  52  76 108 142 180 219 265 324
#     4  10  19  32  52  79 110 141 179 227 270 318
#     4  10  20  35  54  79 110 143 173 214 271 327
#     4   9  16  28  49  76 106 138 167 200 256 325
#     4  10  21  37  56  81 110 142 177 223 270 314
#     4   9  18  33  52  75 105 139 180 229 278 329
#
# _framework density 18.474710999999999
#
# number of rings (size 3 to 8) (size 9 to 14) (size 15 to 20)
#    0.000    2.467    2.000    1.200    0.000    4.533 
#    0.000    4.667    0.000    2.400    0.000    2.800 
#    0.000    0.000    0.000    0.000    0.000    0.000 
#
# Total GULP energy -743463.797979 kJ/mol
# GULP energy per Si atom -12391.063300 kJ/mol
# Density = 1.843266 g / cm^3
# Si number density = 18.474711 Si / 1000 Ang^3
#
#
#
# Elastic Constant Matrix: (Units=GPa)
#
#
# Indices 1 2 3 4 5 6 
#
# 1 97.5759 32.8145 36.0333 0.0000 0.0000 0.0000
# 2 32.8145 88.7825 64.1770 0.0000 0.0000 0.0000
# 3 36.0333 64.1770 106.8845 0.0000 0.0000 0.0000
# 4 0.0000 0.0000 0.0000 21.5704 0.0000 0.0000
# 5 0.0000 0.0000 0.0000 0.0000 19.5741 0.0000
# 6 0.0000 0.0000 0.0000 0.0000 0.0000 18.6474
#
#
#
# Elastic Compliance Matrix: (Units=1/GPa)
#
#
# Indices 1 2 3 4 5 6 
#
# 1 0.012057 -0.002682 -0.002454 0.000000 0.000000 0.000000
# 2 -0.002682 0.020498 -0.011403 0.000000 0.000000 0.000000
# 3 -0.002454 -0.011403 0.017030 0.000000 0.000000 0.000000
# 4 0.000000 0.000000 0.000000 0.046360 0.000000 0.000000
# 5 0.000000 0.000000 0.000000 0.000000 0.051088 0.000000
# 6 0.000000 0.000000 0.000000 0.000000 0.000000 0.053627
#
#
# Mechanical properties :
#
#
# Convention : Reuss Voigt Hill
#
# Bulk Modulus (GPa) = 60.58642 62.14362 61.36502
# Shear Modulus (GPa) = 20.89949 22.63959 21.76954
#
# Velocity S-wave (km/s) = 3.36705 3.50442 3.43642
# Velocity P-wave (km/s) = 6.92687 7.07706 7.00237
#
# Compressibility (1/GPa) = 0.01650535
#
# Stress axis : x y z
#
# Youngs Moduli (GPa) = 82.94125 48.78561 58.71935
#
# Poissons Ratio (x) = 0.13086 0.14410
# Poissons Ratio (y) = 0.22247 0.66960
# Poissons Ratio (z) = 0.20354 0.55632
#
# Static dielectric constant tensor:
#      x y z
#    x 3.308830 0.000000 0.000000 
#    y 0.000000 3.410550 0.000000 
#    z 0.000000 0.000000 4.011640 
# 
# 
# High freq. dielectric constant tensor:
#      x y z
#    x 1.705060 0.000000 0.000000 
#    y 0.000000 1.710000 0.000000 
#    z 0.000000 0.000000 1.713560 
# 
# From -- ./inp_files/54980.got.cif
#   From: 2010.03.12/outbox.cif.g09.slc.cpg/sg65_28_cif.got.tgz:54980.got - 2010.04.10 20:52:16.
