data_PCOD8268492
_publ_section_title
;
Structure prediction by ZEFSAII (Michael W. Deem and Ramdas Pophale) SiO2 
 PCOD8268492
Probable space group: C M M M
;
_chemical_formula_sum "Si O2"
_cell_formula_units_Z 104
_cell_length_a 8.773483
_cell_length_b 25.813292
_cell_length_c 26.434386
_cell_angle_alpha 90.000000
_cell_angle_beta 90.000000
_cell_angle_gamma 90.000000
_cell_volume 5986.660916
_symmetry_space_group_name_H-M "C M M M"
_symmetry_group_IT_number 65
_symmetry_cell_setting 'orthorhombic'
loop_
_space_group_symop_operation_xyz
x,y,z
-x,-y,z
x,-y,-z
-x,y,-z
-x,-y,-z
x,y,-z
-x,y,z
x,-y,z
1/2+x,1/2+y,z
1/2-x,1/2-y,z
1/2+x,1/2-y,-z
1/2-x,1/2+y,-z
1/2-x,1/2-y,-z
1/2+x,1/2+y,-z
1/2-x,1/2+y,z
1/2+x,1/2-y,z
loop_
_atom_site_type_symbol
_atom_site_label
_atom_site_fract_x
_atom_site_fract_y
_atom_site_fract_z
Si Si1 0.680243 0.803602 0.270786
Si Si2 0.318981 0.598539 0.443300
Si Si3 0.821376 0.402357 0.206240
Si Si4 0.681258 0.500000 0.618434
Si Si5 0.166879 0.938525 0.000000
Si Si6 0.318887 0.696035 0.379061
Si Si7 0.819603 0.500000 0.728834
Si Si8 0.318372 0.441504 0.891388
O O1 0.500000 0.797983 0.277728
O O2 0.750000 0.750000 0.249997
O O3 0.724453 0.848245 0.231528
O O4 0.753455 0.818263 0.324315
O O5 0.251573 0.595902 0.500000
O O6 0.500000 0.595944 0.445158
O O7 0.255894 0.550332 0.410992
O O8 0.264928 0.651842 0.417704
O O9 0.762250 0.449338 0.241172
O O10 0.743056 0.403372 0.151509
O O11 0.000000 0.407526 0.198132
O O12 0.500000 0.500000 0.620563
O O13 0.743203 0.500000 0.674626
O O14 0.248209 0.923023 0.053316
O O15 0.000000 0.912559 0.000000
O O16 0.148430 0.000000 0.000000
O O17 0.500000 0.700433 0.375440
O O18 0.250000 0.750000 0.398955
O O19 0.000000 0.500000 0.721626
O O20 0.500000 0.439617 0.893217
O O21 0.262446 0.500000 0.879356
#
# Coordination Sequence:
#
# PCOD8268492 Si02
#       8
#    16  16  16   8   8  16   8  16
#     4  10  20  34  51  70  93 125 160 196 237 282
#     4   9  18  32  50  72  95 118 148 189 234 274
#     4  10  20  32  47  68  98 131 159 191 238 287
#     4  10  19  32  52  72  89 117 158 195 223 267
#     4   7  12  24  41  63  94 129 162 195 234 274
#     4  10  19  32  51  72  94 120 150 189 233 282
#     4  10  20  33  47  66  99 132 151 181 232 287
#     4   9  16  27  45  69  97 130 165 199 232 272
#
# _framework density 17.371955
#
# number of rings (size 3 to 8) (size 9 to 14) (size 15 to 20)
#    0.000    2.538    0.769    3.923    0.000    3.077 
#    0.000    1.154    0.000    5.538    0.000    0.538 
#    0.000    0.000    0.000    0.000    0.000    0.000 
#
# Total GULP energy -644610.205347 kJ/mol
# GULP energy per Si atom -12396.350103 kJ/mol
# Density = 1.733242 g / cm^3
# Si number density = 17.371955 Si / 1000 Ang^3
#
#
#
# Elastic Constant Matrix: (Units=GPa)
#
#
# Indices 1 2 3 4 5 6 
#
# 1 38.1515 31.9537 32.4209 0.0000 0.0000 0.0000
# 2 31.9537 121.5886 87.2627 0.0000 0.0000 0.0000
# 3 32.4209 87.2627 167.3201 0.0000 0.0000 0.0000
# 4 0.0000 0.0000 0.0000 16.9331 0.0000 0.0000
# 5 0.0000 0.0000 0.0000 0.0000 17.0149 0.0000
# 6 0.0000 0.0000 0.0000 0.0000 0.0000 21.2690
#
#
#
# Elastic Compliance Matrix: (Units=1/GPa)
#
#
# Indices 1 2 3 4 5 6 
#
# 1 0.034609 -0.006844 -0.003137 0.000000 0.000000 0.000000
# 2 -0.006844 0.014498 -0.006235 0.000000 0.000000 0.000000
# 3 -0.003137 -0.006235 0.009836 0.000000 0.000000 0.000000
# 4 0.000000 0.000000 0.000000 0.059056 0.000000 0.000000
# 5 0.000000 0.000000 0.000000 0.000000 0.058772 0.000000
# 6 0.000000 0.000000 0.000000 0.000000 0.000000 0.047017
#
#
# Mechanical properties :
#
#
# Convention : Reuss Voigt Hill
#
# Bulk Modulus (GPa) = 37.71942 70.03721 53.87831
# Shear Modulus (GPa) = 18.86389 22.73824 20.80106
#
# Velocity S-wave (km/s) = 3.29885 3.62180 3.46409
# Velocity P-wave (km/s) = 6.02244 7.60879 6.86162
#
# Compressibility (1/GPa) = 0.02651154
#
# Stress axis : x y z
#
# Youngs Moduli (GPa) = 28.89412 68.97569 101.66695
#
# Poissons Ratio (x) = 0.47209 0.31889
# Poissons Ratio (y) = 0.19776 0.63388
# Poissons Ratio (z) = 0.09063 0.43006
#
# Static dielectric constant tensor:
#      x y z
#    x 2.987330 0.000000 0.000000 
#    y 0.000000 3.256760 0.000000 
#    z 0.000000 0.000000 3.455020 
# 
# 
# High freq. dielectric constant tensor:
#      x y z
#    x 1.649090 0.000000 0.000000 
#    y 0.000000 1.657150 0.000000 
#    z 0.000000 0.000000 1.678960 
# 
# From -- ./inp_files/73833.got.cif
#   From: 2010.03.12/outbox.cif.g09.slc.cpg/sg65_37_cif.got.tgz:73833.got - 2010.04.10 20:52:16.
