data_PCOD8268491
_publ_section_title
;
Structure prediction by ZEFSAII (Michael W. Deem and Ramdas Pophale) SiO2 
 PCOD8268491
Probable space group: C M M M
;
_chemical_formula_sum "Si O2"
_cell_formula_units_Z 88
_cell_length_a 18.948900
_cell_length_b 8.621006
_cell_length_c 28.897371
_cell_angle_alpha 90.000000
_cell_angle_beta 90.000000
_cell_angle_gamma 90.000000
_cell_volume 4720.633509
_symmetry_space_group_name_H-M "C M M M"
_symmetry_group_IT_number 65
_symmetry_cell_setting 'orthorhombic'
loop_
_space_group_symop_operation_xyz
x,y,z
-x,-y,z
x,-y,-z
-x,y,-z
-x,-y,-z
x,y,-z
-x,y,z
x,-y,z
1/2+x,1/2+y,z
1/2-x,1/2-y,z
1/2+x,1/2-y,-z
1/2-x,1/2+y,-z
1/2-x,1/2-y,-z
1/2+x,1/2+y,-z
1/2-x,1/2+y,z
1/2+x,1/2-y,z
loop_
_atom_site_type_symbol
_atom_site_label
_atom_site_fract_x
_atom_site_fract_y
_atom_site_fract_z
Si Si1 0.327253 0.682777 0.048824
Si Si2 0.326402 0.184224 0.584460
Si Si3 0.827896 0.183995 0.851150
Si Si4 0.578986 0.815733 0.500000
Si Si5 0.173721 0.815999 0.317742
Si Si6 0.420886 0.684473 0.767206
O O1 0.320965 0.500000 0.049274
O O2 0.250000 0.750000 0.047547
O O3 0.360812 0.734419 0.098244
O O4 0.366357 0.734163 0.000000
O O5 0.250000 0.250000 0.571616
O O6 0.380825 0.243429 0.545690
O O7 0.353134 0.248977 0.633511
O O8 0.321765 0.000000 0.586755
O O9 0.750000 0.250000 0.843368
O O10 0.879984 0.251011 0.812052
O O11 0.822370 0.000000 0.846947
O O12 0.500000 0.746362 0.500000
O O13 0.576728 0.000000 0.500000
O O14 0.250000 0.750000 0.304434
O O15 0.118733 0.759827 0.279006
O O16 0.178945 0.000000 0.321019
O O17 0.500000 0.752940 0.766883
O O18 0.423039 0.500000 0.769211
#
# Coordination Sequence:
#
# PCOD8268491 Si02
#       6
#    16  16  16   8  16  16
#     4   8  13  21  35  58  85 109 137 177 222 263
#     4  10  19  33  54  75  97 124 154 189 226 268
#     4   9  16  27  45  65  86 115 149 185 223 266
#     4   9  19  34  51  73 100 129 158 188 224 265
#     4  10  19  32  51  72  94 119 151 191 229 268
#     4   9  18  31  46  65  90 121 153 184 223 271
#
# _framework density 18.641566000000001
#
# number of rings (size 3 to 8) (size 9 to 14) (size 15 to 20)
#    0.000    2.818    0.000    3.000    0.000    0.727 
#    0.000    2.273    0.000    8.727    0.000    3.818 
#    0.000    0.000    0.000   29.455    0.000   13.818 
#
# Total GULP energy -545108.126736 kJ/mol
# GULP energy per Si atom -12388.821062 kJ/mol
# Density = 1.859914 g / cm^3
# Si number density = 18.641566 Si / 1000 Ang^3
#
#
#
# Elastic Constant Matrix: (Units=GPa)
#
#
# Indices 1 2 3 4 5 6 
#
# 1 121.5104 17.5678 112.0467 0.0000 0.0000 0.0000
# 2 17.5678 34.9041 29.1112 0.0000 0.0000 0.0000
# 3 112.0467 29.1112 218.8739 0.0000 0.0000 0.0000
# 4 0.0000 0.0000 0.0000 16.3721 0.0000 0.0000
# 5 0.0000 0.0000 0.0000 0.0000 10.1826 0.0000
# 6 0.0000 0.0000 0.0000 0.0000 0.0000 15.6763
#
#
#
# Elastic Compliance Matrix: (Units=1/GPa)
#
#
# Indices 1 2 3 4 5 6 
#
# 1 0.015644 -0.001344 -0.007830 0.000000 0.000000 0.000000
# 2 -0.001344 0.032340 -0.003614 0.000000 0.000000 0.000000
# 3 -0.007830 -0.003614 0.009058 0.000000 0.000000 0.000000
# 4 0.000000 0.000000 0.000000 0.061079 0.000000 0.000000
# 5 0.000000 0.000000 0.000000 0.000000 0.098207 0.000000
# 6 0.000000 0.000000 0.000000 0.000000 0.000000 0.063791
#
#
# Mechanical properties :
#
#
# Convention : Reuss Voigt Hill
#
# Bulk Modulus (GPa) = 31.77850 76.97109 54.37480
# Shear Modulus (GPa) = 15.81370 22.88372 19.34871
#
# Velocity S-wave (km/s) = 2.91572 3.50746 3.22519
# Velocity P-wave (km/s) = 5.33098 7.60150 6.56514
#
# Compressibility (1/GPa) = 0.03146781
#
# Stress axis : x y z
#
# Youngs Moduli (GPa) = 63.92220 30.92149 110.40280
#
# Poissons Ratio (x) = 0.04154 0.86444
# Poissons Ratio (y) = 0.08588 0.39895
# Poissons Ratio (z) = 0.50050 0.11174
#
# Static dielectric constant tensor:
#      x y z
#    x 3.313390 0.000000 0.000000 
#    y 0.000000 3.023360 0.000000 
#    z 0.000000 0.000000 4.213020 
# 
# 
# High freq. dielectric constant tensor:
#      x y z
#    x 1.688720 0.000000 0.000000 
#    y 0.000000 1.699000 0.000000 
#    z 0.000000 0.000000 1.755340 
# 
# From -- ./inp_files/77955.got.cif
#   From: 2010.03.12/outbox.cif.g09.slc.cpg/sg65_39_cif.got.tgz:77955.got - 2010.04.10 20:52:16.
