data_PCOD8268676
_publ_section_title
;
Structure prediction by ZEFSAII (Michael W. Deem and Ramdas Pophale) SiO2 
 PCOD8268676
Probable space group: C M M M
;
_chemical_formula_sum "Si O2"
_cell_formula_units_Z 72
_cell_length_a 9.197974
_cell_length_b 31.972949
_cell_length_c 13.614972
_cell_angle_alpha 90.000000
_cell_angle_beta 90.000000
_cell_angle_gamma 90.000000
_cell_volume 4003.977470
_symmetry_space_group_name_H-M "C M M M"
_symmetry_group_IT_number 65
_symmetry_cell_setting 'orthorhombic'
loop_
_space_group_symop_operation_xyz
x,y,z
-x,-y,z
x,-y,-z
-x,y,-z
-x,-y,-z
x,y,-z
-x,y,z
x,-y,z
1/2+x,1/2+y,z
1/2-x,1/2-y,z
1/2+x,1/2-y,-z
1/2-x,1/2+y,-z
1/2-x,1/2-y,-z
1/2+x,1/2+y,-z
1/2-x,1/2+y,z
1/2+x,1/2-y,z
loop_
_atom_site_type_symbol
_atom_site_label
_atom_site_fract_x
_atom_site_fract_y
_atom_site_fract_z
Si Si1 0.167314 0.341207 0.110687
Si Si2 0.172746 0.914937 0.789215
Si Si3 0.327815 0.500000 0.110284
Si Si4 0.166915 0.291312 0.703197
Si Si5 0.170367 0.377945 0.388112
O O1 0.269918 0.380035 0.135842
O O2 0.201200 0.302566 0.183105
O O3 0.000000 0.355495 0.124972
O O4 0.198797 0.326225 0.000000
O O5 0.225741 0.959391 0.830734
O O6 0.240518 0.909424 0.680946
O O7 0.000000 0.911619 0.781993
O O8 0.500000 0.500000 0.102707
O O9 0.261582 0.500000 0.000000
O O10 0.250000 0.250000 0.670163
O O11 0.215825 0.330208 0.635483
O O12 0.000000 0.281026 0.686424
O O13 0.210279 0.388457 0.500000
O O14 0.000000 0.383908 0.366598
#
# Coordination Sequence:
#
# PCOD8268676 Si02
#       5
#    16  16   8  16  16
#     4   9  18  33  50  68  97 136 170 201 242 292
#     4  10  19  32  52  77 102 128 163 206 246 288
#     4   9  18  32  50  75 108 138 159 189 240 293
#     4   9  18  31  47  70  98 127 161 202 247 293
#     4   9  19  37  56  71  95 132 166 200 248 299
#
# _framework density 17.982118
#
# number of rings (size 3 to 8) (size 9 to 14) (size 15 to 20)
#    0.000    2.778    0.000    2.667    0.000    6.222 
#    0.000    2.778    0.000    7.333    0.000    0.000 
#    0.000    0.000    0.000    0.000    0.000    0.000 
#
# Total GULP energy -446367.206465 kJ/mol
# GULP energy per Si atom -12399.089068 kJ/mol
# Density = 1.794119 g / cm^3
# Si number density = 17.982118 Si / 1000 Ang^3
#
#
#
# Elastic Constant Matrix: (Units=GPa)
#
#
# Indices 1 2 3 4 5 6 
#
# 1 55.2457 40.6046 34.7767 0.0000 0.0000 0.0000
# 2 40.6046 105.3031 38.4654 0.0000 0.0000 0.0000
# 3 34.7767 38.4654 120.6263 0.0000 0.0000 0.0000
# 4 0.0000 0.0000 0.0000 16.8813 0.0000 0.0000
# 5 0.0000 0.0000 0.0000 0.0000 26.7236 0.0000
# 6 0.0000 0.0000 0.0000 0.0000 0.0000 27.2183
#
#
#
# Elastic Compliance Matrix: (Units=1/GPa)
#
#
# Indices 1 2 3 4 5 6 
#
# 1 0.027889 -0.008847 -0.005219 0.000000 0.000000 0.000000
# 2 -0.008847 0.013555 -0.001772 0.000000 0.000000 0.000000
# 3 -0.005219 -0.001772 0.010360 0.000000 0.000000 0.000000
# 4 0.000000 0.000000 0.000000 0.059237 0.000000 0.000000
# 5 0.000000 0.000000 0.000000 0.000000 0.037420 0.000000
# 6 0.000000 0.000000 0.000000 0.000000 0.000000 0.036740
#
#
# Mechanical properties :
#
#
# Convention : Reuss Voigt Hill
#
# Bulk Modulus (GPa) = 49.68399 56.54094 53.11246
# Shear Modulus (GPa) = 22.36263 25.31985 23.84124
#
# Velocity S-wave (km/s) = 3.53030 3.75648 3.64515
# Velocity P-wave (km/s) = 6.65635 7.09408 6.87870
#
# Compressibility (1/GPa) = 0.02012721
#
# Stress axis : x y z
#
# Youngs Moduli (GPa) = 35.85629 73.77271 96.52761
#
# Poissons Ratio (x) = 0.65270 0.50379
# Poissons Ratio (y) = 0.31724 0.17102
# Poissons Ratio (z) = 0.18714 0.13071
#
# Static dielectric constant tensor:
#      x y z
#    x 3.169010 0.000000 0.000000 
#    y 0.000000 3.196940 0.000000 
#    z 0.000000 0.000000 3.480170 
# 
# 
# High freq. dielectric constant tensor:
#      x y z
#    x 1.684440 0.000000 0.000000 
#    y 0.000000 1.681720 0.000000 
#    z 0.000000 0.000000 1.703740 
# 
# From -- ./inp_files/36931.got.cif
#   From: 2010.03.12/outbox.cif.g09.slc.cpg/sg65_19_cif.got.tgz:36931.got - 2010.04.10 20:52:16.
