data_PCOD8268391
_publ_section_title
;
Structure prediction by ZEFSAII (Michael W. Deem and Ramdas Pophale) SiO2 
 PCOD8268391
Probable space group: C M M M
;
_chemical_formula_sum "Si O2"
_cell_formula_units_Z 88
_cell_length_a 29.402986
_cell_length_b 18.079553
_cell_length_c 9.038817
_cell_angle_alpha 90.000000
_cell_angle_beta 90.000000
_cell_angle_gamma 90.000000
_cell_volume 4804.970433
_symmetry_space_group_name_H-M "C M M M"
_symmetry_group_IT_number 65
_symmetry_cell_setting 'orthorhombic'
loop_
_space_group_symop_operation_xyz
x,y,z
-x,-y,z
x,-y,-z
-x,y,-z
-x,-y,-z
x,y,-z
-x,y,z
x,-y,z
1/2+x,1/2+y,z
1/2-x,1/2-y,z
1/2+x,1/2-y,-z
1/2-x,1/2+y,-z
1/2-x,1/2-y,-z
1/2+x,1/2+y,-z
1/2-x,1/2+y,z
1/2+x,1/2-y,z
loop_
_atom_site_type_symbol
_atom_site_label
_atom_site_fract_x
_atom_site_fract_y
_atom_site_fract_z
Si Si1 0.053323 0.648332 0.828243
Si Si2 0.945930 0.500000 0.668476
Si Si3 0.614206 0.734670 0.327894
Si Si4 0.758375 0.081405 0.170973
Si Si5 0.298581 0.212902 0.831848
Si Si6 0.349387 0.583015 0.672621
O O1 0.072250 0.574227 0.748804
O O2 0.076304 0.722242 0.764737
O O3 0.000000 0.657479 0.800973
O O4 0.065418 0.640852 0.000000
O O5 0.928466 0.500000 0.500000
O O6 0.000000 0.500000 0.677040
O O7 0.605627 0.750475 0.500000
O O8 0.664202 0.762778 0.285457
O O9 0.612128 0.645687 0.293886
O O10 0.712155 0.126727 0.198608
O O11 0.803059 0.112220 0.252879
O O12 0.747421 0.000000 0.229911
O O13 0.771970 0.083430 0.000000
O O14 0.250000 0.250000 0.805431
O O15 0.315952 0.226948 0.000000
O O16 0.339673 0.579903 0.500000
O O17 0.363676 0.500000 0.729364
#
# Coordination Sequence:
#
# PCOD8268391 Si02
#       6
#    16   8  16  16  16  16
#     4  10  21  38  60  83 108 140 177 216 260 313
#     4   9  17  33  59  87 113 139 171 213 259 309
#     4  11  22  34  53  79 106 138 176 221 271 321
#     4   9  17  30  48  68  93 132 178 217 256 304
#     4  10  19  32  49  71 103 139 174 217 264 315
#     4   9  18  32  50  73 101 134 174 219 266 318
#
# _framework density 18.314368999999999
#
# number of rings (size 3 to 8) (size 9 to 14) (size 15 to 20)
#    0.000    2.273    1.818    1.364    0.000    4.000 
#    1.636    0.000    0.000    0.545    0.000    3.818 
#    0.000    0.000    0.000    0.000    0.000    0.000 
#
# Total GULP energy -545320.157361 kJ/mol
# GULP energy per Si atom -12393.639940 kJ/mol
# Density = 1.827268 g / cm^3
# Si number density = 18.314369 Si / 1000 Ang^3
#
#
#
# Elastic Constant Matrix: (Units=GPa)
#
#
# Indices 1 2 3 4 5 6 
#
# 1 46.6679 40.9144 33.0683 0.0000 0.0000 0.0000
# 2 40.9144 113.7621 51.2468 0.0000 0.0000 0.0000
# 3 33.0683 51.2468 81.9195 0.0000 0.0000 0.0000
# 4 0.0000 0.0000 0.0000 26.5728 0.0000 0.0000
# 5 0.0000 0.0000 0.0000 0.0000 25.9540 0.0000
# 6 0.0000 0.0000 0.0000 0.0000 0.0000 24.9651
#
#
#
# Elastic Compliance Matrix: (Units=1/GPa)
#
#
# Indices 1 2 3 4 5 6 
#
# 1 0.035321 -0.008745 -0.008788 0.000000 0.000000 0.000000
# 2 -0.008745 0.014404 -0.005481 0.000000 0.000000 0.000000
# 3 -0.008788 -0.005481 0.019183 0.000000 0.000000 0.000000
# 4 0.000000 0.000000 0.000000 0.037633 0.000000 0.000000
# 5 0.000000 0.000000 0.000000 0.000000 0.038530 0.000000
# 6 0.000000 0.000000 0.000000 0.000000 0.000000 0.040056
#
#
# Mechanical properties :
#
#
# Convention : Reuss Voigt Hill
#
# Bulk Modulus (GPa) = 43.70218 54.75649 49.22934
# Shear Modulus (GPa) = 20.93965 23.30637 22.12301
#
# Velocity S-wave (km/s) = 3.38501 3.57118 3.47934
# Velocity P-wave (km/s) = 6.26033 6.85328 6.56351
#
# Compressibility (1/GPa) = 0.02288215
#
# Stress axis : x y z
#
# Youngs Moduli (GPa) = 28.31143 69.42352 52.12884
#
# Poissons Ratio (x) = 0.60709 0.45809
# Poissons Ratio (y) = 0.24757 0.28572
# Poissons Ratio (z) = 0.24879 0.38051
#
# Static dielectric constant tensor:
#      x y z
#    x 3.049420 0.000000 0.000000 
#    y 0.000000 4.087750 0.000000 
#    z 0.000000 0.000000 3.378380 
# 
# 
# High freq. dielectric constant tensor:
#      x y z
#    x 1.663860 0.000000 0.000000 
#    y 0.000000 1.732410 0.000000 
#    z 0.000000 0.000000 1.712030 
# 
# From -- ./inp_files/18347.got.cif
#   From: 2010.03.12/outbox.cif.g09.slc.cpg/sg65_10_cif.got.tgz:18347.got - 2010.04.10 20:52:16.
