data_PCOD8268251
_publ_section_title
;
Structure prediction by ZEFSAII (Michael W. Deem and Ramdas Pophale) SiO2 
 PCOD8268251
Probable space group: C M M M
;
_chemical_formula_sum "Si O2"
_cell_formula_units_Z 120
_cell_length_a 8.900372
_cell_length_b 27.705530
_cell_length_c 26.270195
_cell_angle_alpha 90.000000
_cell_angle_beta 90.000000
_cell_angle_gamma 90.000000
_cell_volume 6477.954866
_symmetry_space_group_name_H-M "C M M M"
_symmetry_group_IT_number 65
_symmetry_cell_setting 'orthorhombic'
loop_
_space_group_symop_operation_xyz
x,y,z
-x,-y,z
x,-y,-z
-x,y,-z
-x,-y,-z
x,y,-z
-x,y,z
x,-y,z
1/2+x,1/2+y,z
1/2-x,1/2-y,z
1/2+x,1/2-y,-z
1/2-x,1/2+y,-z
1/2-x,1/2-y,-z
1/2+x,1/2+y,-z
1/2-x,1/2+y,z
1/2+x,1/2-y,z
loop_
_atom_site_type_symbol
_atom_site_label
_atom_site_fract_x
_atom_site_fract_y
_atom_site_fract_z
Si Si1 0.335569 0.705757 0.350760
Si Si2 0.678467 0.196464 0.500000
Si Si3 0.323091 0.556144 0.344645
Si Si4 0.822584 0.396290 0.754343
Si Si5 0.665792 0.295775 0.233882
Si Si6 0.675921 0.130329 0.405739
Si Si7 0.333088 0.443074 0.845893
Si Si8 0.331065 0.942596 0.944084
O O1 0.500000 0.698120 0.376517
O O2 0.250000 0.750000 0.378776
O O3 0.359009 0.717926 0.292395
O O4 0.228583 0.659199 0.355406
O O5 0.500000 0.202989 0.500000
O O6 0.750000 0.250000 0.500000
O O7 0.732526 0.163359 0.452572
O O8 0.500000 0.564757 0.343264
O O9 0.280795 0.500000 0.343604
O O10 0.253034 0.582610 0.296165
O O11 0.256735 0.578437 0.397844
O O12 0.763642 0.343807 0.770756
O O13 0.781354 0.431125 0.800791
O O14 0.000000 0.394632 0.745636
O O15 0.500000 0.302918 0.208964
O O16 0.750000 0.250000 0.207640
O O17 0.500000 0.121434 0.408223
O O18 0.500000 0.422057 0.834851
O O19 0.341530 0.500000 0.850483
O O20 0.273871 0.421078 0.899482
O O21 0.500000 0.923189 0.935743
O O22 0.331881 0.000000 0.941350
O O23 0.271745 0.926043 0.000000
#
# Coordination Sequence:
#
# PCOD8268251 Si02
#       8
#    16   8  16  16  16  16  16  16
#     4  10  19  31  51  77 106 135 166 203 247 299
#     4  10  24  42  61  90 119 143 170 209 259 314
#     4  11  24  41  59  80 107 140 180 223 265 311
#     4  12  23  35  54  78 107 142 181 222 268 319
#     4  10  20  34  52  75 106 136 169 210 256 310
#     4  11  22  38  59  82 110 139 173 211 255 309
#     4  10  20  32  47  70 103 143 185 229 275 321
#     4   8  14  26  44  66  95 133 178 227 276 326
#
# _framework density 18.524365
#
# number of rings (size 3 to 8) (size 9 to 14) (size 15 to 20)
#    0.000    1.733    1.333    4.400    0.000    6.933 
#    0.000    1.667    0.000    2.000    0.000    0.000 
#    0.000    0.533    0.000    2.000    0.000    3.067 
#
# Total GULP energy -743557.598868 kJ/mol
# GULP energy per Si atom -12392.626648 kJ/mol
# Density = 1.848220 g / cm^3
# Si number density = 18.524365 Si / 1000 Ang^3
#
#
#
# Elastic Constant Matrix: (Units=GPa)
#
#
# Indices 1 2 3 4 5 6 
#
# 1 97.3507 41.0407 28.2554 0.0000 0.0000 0.0000
# 2 41.0407 83.1117 32.0763 0.0000 0.0000 0.0000
# 3 28.2554 32.0763 75.1543 0.0000 0.0000 0.0000
# 4 0.0000 0.0000 0.0000 10.7816 0.0000 0.0000
# 5 0.0000 0.0000 0.0000 0.0000 24.3397 0.0000
# 6 0.0000 0.0000 0.0000 0.0000 0.0000 30.6893
#
#
#
# Elastic Compliance Matrix: (Units=1/GPa)
#
#
# Indices 1 2 3 4 5 6 
#
# 1 0.013400 -0.005594 -0.002650 0.000000 0.000000 0.000000
# 2 -0.005594 0.016740 -0.005042 0.000000 0.000000 0.000000
# 3 -0.002650 -0.005042 0.016454 0.000000 0.000000 0.000000
# 4 0.000000 0.000000 0.000000 0.092751 0.000000 0.000000
# 5 0.000000 0.000000 0.000000 0.000000 0.041085 0.000000
# 6 0.000000 0.000000 0.000000 0.000000 0.000000 0.032585
#
#
# Mechanical properties :
#
#
# Convention : Reuss Voigt Hill
#
# Bulk Modulus (GPa) = 49.94455 50.92905 50.43680
# Shear Modulus (GPa) = 20.30372 23.44506 21.87439
#
# Velocity S-wave (km/s) = 3.31426 3.56143 3.44007
# Velocity P-wave (km/s) = 6.45491 6.66817 6.56240
#
# Compressibility (1/GPa) = 0.02002220
#
# Stress axis : x y z
#
# Youngs Moduli (GPa) = 74.62899 59.73701 60.77487
#
# Poissons Ratio (x) = 0.33416 0.16107
# Poissons Ratio (y) = 0.41747 0.30640
# Poissons Ratio (z) = 0.19779 0.30117
#
# Static dielectric constant tensor:
#      x y z
#    x 3.776920 0.000000 0.000000 
#    y 0.000000 3.380960 0.000000 
#    z 0.000000 0.000000 3.379460 
# 
# 
# High freq. dielectric constant tensor:
#      x y z
#    x 1.734410 0.000000 0.000000 
#    y 0.000000 1.699420 0.000000 
#    z 0.000000 0.000000 1.689480 
# 
# From -- ./inp_files/73998.got.cif
#   From: 2010.03.12/outbox.cif.g09.slc.cpg/sg65_37_cif.got.tgz:73998.got - 2010.04.10 20:52:16.
