data_PCOD8268818
_publ_section_title
;
Structure prediction by ZEFSAII (Michael W. Deem and Ramdas Pophale) SiO2 
 PCOD8268818
Probable space group: C M M M
;
_chemical_formula_sum "Si O2"
_cell_formula_units_Z 104
_cell_length_a 14.587055
_cell_length_b 17.736884
_cell_length_c 22.153050
_cell_angle_alpha 90.000000
_cell_angle_beta 90.000000
_cell_angle_gamma 90.000000
_cell_volume 5731.634312
_symmetry_space_group_name_H-M "C M M M"
_symmetry_group_IT_number 65
_symmetry_cell_setting 'orthorhombic'
loop_
_space_group_symop_operation_xyz
x,y,z
-x,-y,z
x,-y,-z
-x,y,-z
-x,-y,-z
x,y,-z
-x,y,z
x,-y,z
1/2+x,1/2+y,z
1/2-x,1/2-y,z
1/2+x,1/2-y,-z
1/2-x,1/2+y,-z
1/2-x,1/2-y,-z
1/2+x,1/2+y,-z
1/2-x,1/2+y,z
1/2+x,1/2-y,z
loop_
_atom_site_type_symbol
_atom_site_label
_atom_site_fract_x
_atom_site_fract_y
_atom_site_fract_z
Si Si1 0.397052 0.156957 0.069033
Si Si2 0.747941 0.416727 0.858962
Si Si3 0.604565 0.223758 0.289498
Si Si4 0.217345 0.582979 0.725133
Si Si5 0.894957 0.880429 0.663338
Si Si6 0.392712 0.500000 0.566227
Si Si7 0.104743 0.790530 0.838357
O O1 0.500000 0.124434 0.077900
O O2 0.322247 0.095455 0.088267
O O3 0.381605 0.229196 0.110325
O O4 0.380655 0.180727 0.000000
O O5 0.706639 0.500000 0.866942
O O6 0.802704 0.409598 0.795914
O O7 0.663470 0.360308 0.861205
O O8 0.500000 0.196812 0.283074
O O9 0.663690 0.150599 0.309015
O O10 0.614666 0.289110 0.340805
O O11 0.640042 0.258113 0.225879
O O12 0.184623 0.500000 0.701957
O O13 0.327004 0.589907 0.715220
O O14 0.000000 0.901595 0.680994
O O15 0.865159 0.923090 0.601687
O O16 0.500000 0.500000 0.556811
O O17 0.344767 0.500000 0.500000
O O18 0.000000 0.816845 0.831450
#
# Coordination Sequence:
#
# PCOD8268818 Si02
#       7
#    16  16  16  16  16   8  16
#     4  10  22  40  60  78  99 138 190 234 279 339
#     4  11  23  34  51  80 109 140 178 224 284 340
#     4  10  20  34  53  77 110 149 186 230 280 333
#     4  11  21  32  51  80 113 148 181 228 283 336
#     4  10  19  32  54  84 113 149 187 220 270 330
#     4   9  18  34  56  86 125 159 190 231 271 313
#     4  10  20  36  56  77 105 140 179 230 281 333
#
# _framework density 18.144912000000001
#
# number of rings (size 3 to 8) (size 9 to 14) (size 15 to 20)
#    0.000    1.769    3.846    0.923    0.000    2.462 
#    0.000    3.846    0.000    1.846    0.000    3.231 
#    0.000    0.615    0.000    0.000    0.000    0.000 
#
# Total GULP energy -644545.728219 kJ/mol
# GULP energy per Si atom -12395.110158 kJ/mol
# Density = 1.810361 g / cm^3
# Si number density = 18.144912 Si / 1000 Ang^3
#
#
#
# Elastic Constant Matrix: (Units=GPa)
#
#
# Indices 1 2 3 4 5 6 
#
# 1 77.0682 53.1209 27.5125 0.0000 0.0000 0.0000
# 2 53.1209 129.5057 41.8630 0.0000 0.0000 0.0000
# 3 27.5125 41.8630 83.7686 0.0000 0.0000 0.0000
# 4 0.0000 0.0000 0.0000 21.3644 0.0000 0.0000
# 5 0.0000 0.0000 0.0000 0.0000 13.8412 0.0000
# 6 0.0000 0.0000 0.0000 0.0000 0.0000 19.5883
#
#
#
# Elastic Compliance Matrix: (Units=1/GPa)
#
#
# Indices 1 2 3 4 5 6 
#
# 1 0.018602 -0.006745 -0.002739 0.000000 0.000000 0.000000
# 2 -0.006745 0.011655 -0.003609 0.000000 0.000000 0.000000
# 3 -0.002739 -0.003609 0.014641 0.000000 0.000000 0.000000
# 4 0.000000 0.000000 0.000000 0.046807 0.000000 0.000000
# 5 0.000000 0.000000 0.000000 0.000000 0.072248 0.000000
# 6 0.000000 0.000000 0.000000 0.000000 0.000000 0.051051
#
#
# Mechanical properties :
#
#
# Convention : Reuss Voigt Hill
#
# Bulk Modulus (GPa) = 53.44154 59.48171 56.46162
# Shear Modulus (GPa) = 20.20793 22.14854 21.17823
#
# Velocity S-wave (km/s) = 3.34083 3.49757 3.42010
# Velocity P-wave (km/s) = 6.66319 7.01165 6.83964
#
# Compressibility (1/GPa) = 0.01871204
#
# Stress axis : x y z
#
# Youngs Moduli (GPa) = 53.75645 85.79968 68.30180
#
# Poissons Ratio (x) = 0.57872 0.18707
# Poissons Ratio (y) = 0.36259 0.24652
# Poissons Ratio (z) = 0.14723 0.30967
#
# Static dielectric constant tensor:
#      x y z
#    x 3.355850 0.000000 0.000000 
#    y 0.000000 3.502980 0.000000 
#    z 0.000000 0.000000 3.286630 
# 
# 
# High freq. dielectric constant tensor:
#      x y z
#    x 1.698720 0.000000 0.000000 
#    y 0.000000 1.709300 0.000000 
#    z 0.000000 0.000000 1.661230 
# 
# From -- ./inp_files/62872.got.cif
#   From: 2010.03.12/outbox.cif.g09.slc.cpg/sg65_32_cif.got.tgz:62872.got - 2010.04.10 20:52:16.
