data_PCOD8268112
_publ_section_title
;
Structure prediction by ZEFSAII (Michael W. Deem and Ramdas Pophale) SiO2 
 PCOD8268112
Probable space group: C M M M
;
_chemical_formula_sum "Si O2"
_cell_formula_units_Z 88
_cell_length_a 16.941484
_cell_length_b 21.854170
_cell_length_c 13.863637
_cell_angle_alpha 90.000000
_cell_angle_beta 90.000000
_cell_angle_gamma 90.000000
_cell_volume 5132.901680
_symmetry_space_group_name_H-M "C M M M"
_symmetry_group_IT_number 65
_symmetry_cell_setting 'orthorhombic'
loop_
_space_group_symop_operation_xyz
x,y,z
-x,-y,z
x,-y,-z
-x,y,-z
-x,-y,-z
x,y,-z
-x,y,z
x,-y,z
1/2+x,1/2+y,z
1/2-x,1/2-y,z
1/2+x,1/2-y,-z
1/2-x,1/2+y,-z
1/2-x,1/2-y,-z
1/2+x,1/2+y,-z
1/2-x,1/2+y,z
1/2+x,1/2-y,z
loop_
_atom_site_type_symbol
_atom_site_label
_atom_site_fract_x
_atom_site_fract_y
_atom_site_fract_z
Si Si1 0.304928 0.656227 0.780670
Si Si2 0.850743 0.368876 0.886946
Si Si3 0.589188 0.000000 0.114177
Si Si4 0.790527 0.685358 0.605809
Si Si5 0.910873 0.273907 0.751568
Si Si6 0.589301 0.428493 0.893020
O O1 0.235966 0.655837 0.860103
O O2 0.265977 0.644783 0.675322
O O3 0.352905 0.719513 0.784903
O O4 0.363267 0.601430 0.805896
O O5 0.864028 0.439116 0.851380
O O6 0.913998 0.324818 0.835374
O O7 0.864688 0.363397 0.000000
O O8 0.500000 0.000000 0.156696
O O9 0.584600 0.000000 0.000000
O O10 0.800148 0.654098 0.500000
O O11 0.750000 0.750000 0.591966
O O12 0.876306 0.694816 0.654476
O O13 0.000000 0.250409 0.732047
O O14 0.500000 0.405068 0.886623
O O15 0.594231 0.500000 0.876686
O O16 0.622923 0.411698 0.000000
#
# Coordination Sequence:
#
# PCOD8268112 Si02
#       6
#    16  16   8  16  16  16
#     4  10  19  31  50  73  99 129 168 208 253 304
#     4  10  20  32  47  69  98 131 168 208 248 296
#     4   9  18  32  48  66  90 124 166 209 248 288
#     4   8  16  32  51  71  95 122 156 203 253 301
#     4  10  20  32  48  73 101 130 162 201 253 309
#     4   9  18  31  47  70 102 139 177 213 247 291
#
# _framework density 17.144299
#
# number of rings (size 3 to 8) (size 9 to 14) (size 15 to 20)
#    0.000    2.636    0.000    3.818    1.273    3.636 
#    0.000    0.000    0.000    2.182    0.000    1.273 
#    0.000    6.909    0.000    0.000    0.000    0.000 
#
# Total GULP energy -545277.138232 kJ/mol
# GULP energy per Si atom -12392.662233 kJ/mol
# Density = 1.710528 g / cm^3
# Si number density = 17.144299 Si / 1000 Ang^3
#
#
#
# Elastic Constant Matrix: (Units=GPa)
#
#
# Indices 1 2 3 4 5 6 
#
# 1 107.8023 47.6002 45.6505 0.0000 0.0000 0.0000
# 2 47.6002 54.7677 38.6140 0.0000 0.0000 0.0000
# 3 45.6505 38.6140 107.2338 0.0000 0.0000 0.0000
# 4 0.0000 0.0000 0.0000 13.7505 0.0000 0.0000
# 5 0.0000 0.0000 0.0000 0.0000 16.3437 0.0000
# 6 0.0000 0.0000 0.0000 0.0000 0.0000 38.3510
#
#
#
# Elastic Compliance Matrix: (Units=1/GPa)
#
#
# Indices 1 2 3 4 5 6 
#
# 1 0.015479 -0.011804 -0.002339 0.000000 0.000000 0.000000
# 2 -0.011804 0.033473 -0.007028 0.000000 0.000000 0.000000
# 3 -0.002339 -0.007028 0.012852 0.000000 0.000000 0.000000
# 4 0.000000 0.000000 0.000000 0.072724 0.000000 0.000000
# 5 0.000000 0.000000 0.000000 0.000000 0.061186 0.000000
# 6 0.000000 0.000000 0.000000 0.000000 0.000000 0.026075
#
#
# Mechanical properties :
#
#
# Convention : Reuss Voigt Hill
#
# Bulk Modulus (GPa) = 51.38338 59.28145 55.33241
# Shear Modulus (GPa) = 18.47614 22.88498 20.68056
#
# Velocity S-wave (km/s) = 3.28637 3.65752 3.47690
# Velocity P-wave (km/s) = 6.66607 7.24497 6.96154
#
# Compressibility (1/GPa) = 0.01946155
#
# Stress axis : x y z
#
# Youngs Moduli (GPa) = 64.60473 29.87439 77.80874
#
# Poissons Ratio (x) = 0.35264 0.18199
# Poissons Ratio (y) = 0.76259 0.54688
# Poissons Ratio (z) = 0.15111 0.20997
#
# Static dielectric constant tensor:
#      x y z
#    x 3.293020 0.000000 0.000000 
#    y 0.000000 3.159530 0.000000 
#    z 0.000000 0.000000 3.375900 
# 
# 
# High freq. dielectric constant tensor:
#      x y z
#    x 1.669670 0.000000 0.000000 
#    y 0.000000 1.644840 0.000000 
#    z 0.000000 0.000000 1.640950 
# 
# From -- ./inp_files/42750.got.cif
#   From: 2010.03.12/outbox.cif.g09.slc.cpg/sg65_22_cif.got.tgz:42750.got - 2010.04.10 20:52:16.
