data_PCOD8268781
_publ_section_title
;
Structure prediction by ZEFSAII (Michael W. Deem and Ramdas Pophale) SiO2 
 PCOD8268781
Probable space group: C M M M
;
_chemical_formula_sum "Si O2"
_cell_formula_units_Z 72
_cell_length_a 17.719945
_cell_length_b 22.864225
_cell_length_c 9.613190
_cell_angle_alpha 90.000000
_cell_angle_beta 90.000000
_cell_angle_gamma 90.000000
_cell_volume 3894.810936
_symmetry_space_group_name_H-M "C M M M"
_symmetry_group_IT_number 65
_symmetry_cell_setting 'orthorhombic'
loop_
_space_group_symop_operation_xyz
x,y,z
-x,-y,z
x,-y,-z
-x,y,-z
-x,-y,-z
x,y,-z
-x,y,z
x,-y,z
1/2+x,1/2+y,z
1/2-x,1/2-y,z
1/2+x,1/2-y,-z
1/2-x,1/2+y,-z
1/2-x,1/2-y,-z
1/2+x,1/2+y,-z
1/2-x,1/2+y,z
1/2+x,1/2-y,z
loop_
_atom_site_type_symbol
_atom_site_label
_atom_site_fract_x
_atom_site_fract_y
_atom_site_fract_z
Si Si1 0.790118 0.432816 0.660036
Si Si2 0.087325 0.240203 0.839413
Si Si3 0.500000 0.565259 0.334932
Si Si4 0.856803 0.861411 0.664162
Si Si5 0.586667 0.125944 0.839166
O O1 0.810017 0.421055 0.500000
O O2 0.767669 0.500000 0.684814
O O3 0.719860 0.393480 0.707501
O O4 0.863222 0.417370 0.748888
O O5 0.140135 0.200484 0.742641
O O6 0.108866 0.307099 0.807773
O O7 0.000000 0.229111 0.802371
O O8 0.102810 0.225074 0.000000
O O9 0.500000 0.500000 0.271149
O O10 0.500000 0.561455 0.500000
O O11 0.425844 0.598790 0.282434
O O12 0.861690 0.849957 0.500000
O O13 0.500000 0.114771 0.798804
O O14 0.600245 0.111423 0.000000
#
# Coordination Sequence:
#
# PCOD8268781 Si02
#       5
#    16  16   8  16  16
#     4  10  22  38  54  78 112 143 175 221 272 317
#     4   9  18  34  55  79 109 140 174 221 271 316
#     4   9  16  28  49  75 103 141 184 217 248 297
#     4  10  19  32  53  80 108 142 182 219 258 313
#     4   9  20  39  60  80 103 138 181 221 268 326
#
# _framework density 18.486132999999999
#
# number of rings (size 3 to 8) (size 9 to 14) (size 15 to 20)
#    0.000    2.556    1.111    2.000    0.000    6.667 
#    0.000    8.889    0.000    2.667    0.000    0.000 
#    0.000    0.000    0.000    0.000    0.000    0.000 
#
# Total GULP energy -446483.076153 kJ/mol
# GULP energy per Si atom -12402.307671 kJ/mol
# Density = 1.844406 g / cm^3
# Si number density = 18.486133 Si / 1000 Ang^3
#
#
#
# Elastic Constant Matrix: (Units=GPa)
#
#
# Indices 1 2 3 4 5 6 
#
# 1 97.8363 32.3508 41.3959 0.0000 0.0000 0.0000
# 2 32.3508 54.0777 30.5722 0.0000 0.0000 0.0000
# 3 41.3959 30.5722 49.7079 0.0000 0.0000 0.0000
# 4 0.0000 0.0000 0.0000 15.8714 0.0000 0.0000
# 5 0.0000 0.0000 0.0000 0.0000 27.5500 0.0000
# 6 0.0000 0.0000 0.0000 0.0000 0.0000 34.6518
#
#
#
# Elastic Compliance Matrix: (Units=1/GPa)
#
#
# Indices 1 2 3 4 5 6 
#
# 1 0.016125 -0.003150 -0.011491 0.000000 0.000000 0.000000
# 2 -0.003150 0.028964 -0.015191 0.000000 0.000000 0.000000
# 3 -0.011491 -0.015191 0.039030 0.000000 0.000000 0.000000
# 4 0.000000 0.000000 0.000000 0.063006 0.000000 0.000000
# 5 0.000000 0.000000 0.000000 0.000000 0.036298 0.000000
# 6 0.000000 0.000000 0.000000 0.000000 0.000000 0.028859
#
#
# Mechanical properties :
#
#
# Convention : Reuss Voigt Hill
#
# Bulk Modulus (GPa) = 40.89101 45.58443 43.23772
# Shear Modulus (GPa) = 17.85095 22.10152 19.97623
#
# Velocity S-wave (km/s) = 3.11085 3.46146 3.29082
# Velocity P-wave (km/s) = 5.92208 6.37870 6.15463
#
# Compressibility (1/GPa) = 0.02445525
#
# Stress axis : x y z
#
# Youngs Moduli (GPa) = 62.01645 34.52530 25.62127
#
# Poissons Ratio (x) = 0.10875 0.29442
# Poissons Ratio (y) = 0.19535 0.38921
# Poissons Ratio (z) = 0.71264 0.52447
#
# Static dielectric constant tensor:
#      x y z
#    x 3.325730 0.000000 0.000000 
#    y 0.000000 3.403480 0.000000 
#    z 0.000000 0.000000 3.150630 
# 
# 
# High freq. dielectric constant tensor:
#      x y z
#    x 1.715780 0.000000 0.000000 
#    y 0.000000 1.723020 0.000000 
#    z 0.000000 0.000000 1.697850 
# 
# From -- ./inp_files/7256.got.cif
#   From: 2010.03.12/outbox.cif.g09.slc.cpg/sg65_4_cif.got.tgz:7256.got - 2010.04.10 20:52:16.
