data_PCOD8268317
_publ_section_title
;
Structure prediction by ZEFSAII (Michael W. Deem and Ramdas Pophale) SiO2 
 PCOD8268317
Probable space group: C M M M
;
_chemical_formula_sum "Si O2"
_cell_formula_units_Z 96
_cell_length_a 21.028394
_cell_length_b 24.520882
_cell_length_c 9.587853
_cell_angle_alpha 90.000000
_cell_angle_beta 90.000000
_cell_angle_gamma 90.000000
_cell_volume 4943.830357
_symmetry_space_group_name_H-M "C M M M"
_symmetry_group_IT_number 65
_symmetry_cell_setting 'orthorhombic'
loop_
_space_group_symop_operation_xyz
x,y,z
-x,-y,z
x,-y,-z
-x,y,-z
-x,-y,-z
x,y,-z
-x,y,z
x,-y,z
1/2+x,1/2+y,z
1/2-x,1/2-y,z
1/2+x,1/2-y,-z
1/2-x,1/2+y,-z
1/2-x,1/2-y,-z
1/2+x,1/2+y,-z
1/2-x,1/2+y,z
1/2+x,1/2-y,z
loop_
_atom_site_type_symbol
_atom_site_label
_atom_site_fract_x
_atom_site_fract_y
_atom_site_fract_z
Si Si1 0.735518 0.560937 0.157989
Si Si2 0.147014 0.366579 0.159533
Si Si3 0.321549 0.745757 0.837425
Si Si4 0.925676 0.559085 0.347809
Si Si5 0.611600 0.561961 0.663901
Si Si6 0.571027 0.339298 0.162774
O O1 0.764749 0.500000 0.164476
O O2 0.786703 0.605807 0.202842
O O3 0.681242 0.567232 0.271537
O O4 0.710489 0.572853 0.000000
O O5 0.145480 0.303018 0.193166
O O6 0.090292 0.392671 0.244303
O O7 0.132898 0.378776 0.000000
O O8 0.250000 0.750000 0.770128
O O9 0.371138 0.699744 0.780360
O O10 0.312413 0.734141 0.000000
O O11 0.895261 0.570598 0.500000
O O12 0.900952 0.500000 0.293050
O O13 0.000000 0.557149 0.363077
O O14 0.613353 0.576373 0.500000
O O15 0.585665 0.500000 0.685629
O O16 0.568570 0.605221 0.746668
O O17 0.500000 0.312628 0.180098
O O18 0.582674 0.352995 0.000000
#
# Coordination Sequence:
#
# PCOD8268317 Si02
#       6
#    16  16  16  16  16  16
#     4   9  17  30  50  78 111 142 173 213 262 317
#     4  10  19  31  53  82 105 131 174 225 271 314
#     4   9  18  34  56  80 107 140 177 219 268 319
#     4   9  19  35  51  69 101 145 184 217 262 322
#     4  10  21  36  55  80 108 138 173 214 262 315
#     4  10  21  37  57  80 107 141 180 220 265 321
#
# _framework density 19.418142
#
# number of rings (size 3 to 8) (size 9 to 14) (size 15 to 20)
#    0.000    2.500    0.000    2.500    0.000    7.000 
#    0.000    6.667    0.000    2.000    0.000    0.000 
#    0.000    0.000    0.000    0.000    0.000    0.000 
#
# Total GULP energy -594732.386929 kJ/mol
# GULP energy per Si atom -12390.258061 kJ/mol
# Density = 1.937395 g / cm^3
# Si number density = 19.418142 Si / 1000 Ang^3
#
#
#
# Elastic Constant Matrix: (Units=GPa)
#
#
# Indices 1 2 3 4 5 6 
#
# 1 84.6181 59.5194 37.5189 0.0000 0.0000 0.0000
# 2 59.5194 75.8870 43.2326 0.0000 0.0000 0.0000
# 3 37.5189 43.2326 68.1606 0.0000 0.0000 0.0000
# 4 0.0000 0.0000 0.0000 -7.8631 0.0000 0.0000
# 5 0.0000 0.0000 0.0000 0.0000 -265.2057 0.0000
# 6 0.0000 0.0000 0.0000 0.0000 0.0000 23.1875
#
#
#
# Elastic Compliance Matrix: (Units=1/GPa)
#
#
# Indices 1 2 3 4 5 6 
#
# 1 0.026570 -0.019584 -0.002204 0.000000 0.000000 0.000000
# 2 -0.019584 0.035067 -0.011463 0.000000 0.000000 0.000000
# 3 -0.002204 -0.011463 0.023155 0.000000 0.000000 0.000000
# 4 0.000000 0.000000 0.000000 -0.127176 0.000000 0.000000
# 5 0.000000 0.000000 0.000000 0.000000 -0.003771 0.000000
# 6 0.000000 0.000000 0.000000 0.000000 0.000000 0.043127
#
#
# Mechanical properties :
#
#
# Convention : Reuss Voigt Hill
#
# Bulk Modulus (GPa) = 54.66933 56.57859 55.62396
# Shear Modulus (GPa) = 71.87038 -44.08327 13.89356
#
# Velocity S-wave (km/s) = 6.09035 -4.76984 2.67777
# Velocity P-wave (km/s) = 8.81313 1.06534 6.18613
#
# Compressibility (1/GPa) = 0.01829179
#
# Stress axis : x y z
#
# Youngs Moduli (GPa) = 37.63661 28.51649 43.18741
#
# Poissons Ratio (x) = 0.55845 0.09518
# Poissons Ratio (y) = 0.73706 0.49504
# Poissons Ratio (z) = 0.08295 0.32687
#
# Static dielectric constant tensor:
#      x y z
#    x 3.454440 0.000000 0.000000 
#    y 0.000000 3.805050 0.000000 
#    z 0.000000 0.000000 3.410840 
# 
# 
# High freq. dielectric constant tensor:
#      x y z
#    x 1.750670 0.000000 0.000000 
#    y 0.000000 1.761000 0.000000 
#    z 0.000000 0.000000 1.728960 
# 
# From -- ./inp_files/12218.got.cif
#   From: 2010.03.12/outbox.cif.g09.slc.cpg/sg65_7_cif.got.tgz:12218.got - 2010.04.10 20:52:16.
