data_PCOD8268028
_publ_section_title
;
Structure prediction by ZEFSAII (Michael W. Deem and Ramdas Pophale) SiO2 
 PCOD8268028
Probable space group: C M M M
;
_chemical_formula_sum "Si O2"
_cell_formula_units_Z 72
_cell_length_a 18.641733
_cell_length_b 9.165730
_cell_length_c 22.948134
_cell_angle_alpha 90.000000
_cell_angle_beta 90.000000
_cell_angle_gamma 90.000000
_cell_volume 3921.035014
_symmetry_space_group_name_H-M "C M M M"
_symmetry_group_IT_number 65
_symmetry_cell_setting 'orthorhombic'
loop_
_space_group_symop_operation_xyz
x,y,z
-x,-y,z
x,-y,-z
-x,y,-z
-x,-y,-z
x,y,-z
-x,y,z
x,-y,z
1/2+x,1/2+y,z
1/2-x,1/2-y,z
1/2+x,1/2-y,-z
1/2-x,1/2+y,-z
1/2-x,1/2-y,-z
1/2+x,1/2+y,-z
1/2-x,1/2+y,z
1/2+x,1/2-y,z
loop_
_atom_site_type_symbol
_atom_site_label
_atom_site_fract_x
_atom_site_fract_y
_atom_site_fract_z
Si Si1 0.584761 0.663485 0.845510
Si Si2 0.080658 0.827275 0.500000
Si Si3 0.825971 0.826475 0.390481
Si Si4 0.822043 0.670317 0.933323
Si Si5 0.420268 0.672995 0.716181
O O1 0.500000 0.662689 0.850535
O O2 0.614523 0.500000 0.857153
O O3 0.613826 0.774948 0.893123
O O4 0.606955 0.717817 0.780714
O O5 0.123340 0.774094 0.556871
O O6 0.000000 0.760800 0.500000
O O7 0.074977 0.000000 0.500000
O O8 0.750000 0.750000 0.397225
O O9 0.863597 0.769626 0.331223
O O10 0.814890 0.000000 0.390728
O O11 0.810862 0.500000 0.924301
O O12 0.750000 0.750000 0.913226
O O13 0.841179 0.708904 0.000000
O O14 0.500000 0.737927 0.703836
O O15 0.426054 0.500000 0.712442
#
# Coordination Sequence:
#
# PCOD8268028 Si02
#       5
#    16   8  16  16  16
#     4   9  18  33  53  76 101 130 165 204 247 296
#     4   9  17  30  51  75  94 123 170 210 238 279
#     4  10  19  31  49  73 101 129 160 202 246 288
#     4  10  21  36  53  73  99 131 166 205 249 297
#     4   8  15  30  51  72  95 127 166 203 238 281
#
# _framework density 18.362499
#
# number of rings (size 3 to 8) (size 9 to 14) (size 15 to 20)
#    0.000    2.778    0.000    3.000    0.000    5.778 
#    0.000    5.556    0.000    4.667    0.000    0.000 
#    0.000    0.000    0.000    0.000    0.000    0.000 
#
# Total GULP energy -446337.162362 kJ/mol
# GULP energy per Si atom -12398.254510 kJ/mol
# Density = 1.832071 g / cm^3
# Si number density = 18.362499 Si / 1000 Ang^3
#
#
#
# Elastic Constant Matrix: (Units=GPa)
#
#
# Indices 1 2 3 4 5 6 
#
# 1 110.1501 33.6226 73.4065 0.0000 0.0000 0.0000
# 2 33.6226 44.7530 40.3036 0.0000 0.0000 0.0000
# 3 73.4065 40.3036 135.5456 0.0000 0.0000 0.0000
# 4 0.0000 0.0000 0.0000 12.8914 0.0000 0.0000
# 5 0.0000 0.0000 0.0000 0.0000 26.3902 0.0000
# 6 0.0000 0.0000 0.0000 0.0000 0.0000 30.3814
#
#
#
# Elastic Compliance Matrix: (Units=1/GPa)
#
#
# Indices 1 2 3 4 5 6 
#
# 1 0.015117 -0.005442 -0.006569 0.000000 0.000000 0.000000
# 2 -0.005442 0.032475 -0.006709 0.000000 0.000000 0.000000
# 3 -0.006569 -0.006709 0.012930 0.000000 0.000000 0.000000
# 4 0.000000 0.000000 0.000000 0.077571 0.000000 0.000000
# 5 0.000000 0.000000 0.000000 0.000000 0.037893 0.000000
# 6 0.000000 0.000000 0.000000 0.000000 0.000000 0.032915
#
#
# Mechanical properties :
#
#
# Convention : Reuss Voigt Hill
#
# Bulk Modulus (GPa) = 43.32211 65.01267 54.16739
# Shear Modulus (GPa) = 19.68227 23.47367 21.57797
#
# Velocity S-wave (km/s) = 3.27750 3.57928 3.43171
# Velocity P-wave (km/s) = 6.16170 7.25008 6.72794
#
# Compressibility (1/GPa) = 0.02308290
#
# Stress axis : x y z
#
# Youngs Moduli (GPa) = 66.14983 30.79250 77.33928
#
# Poissons Ratio (x) = 0.16756 0.50803
# Poissons Ratio (y) = 0.35996 0.51890
# Poissons Ratio (z) = 0.43453 0.20660
#
# Static dielectric constant tensor:
#      x y z
#    x 3.383280 0.000000 0.000000 
#    y 0.000000 3.083720 0.000000 
#    z 0.000000 0.000000 3.712660 
# 
# 
# High freq. dielectric constant tensor:
#      x y z
#    x 1.712120 0.000000 0.000000 
#    y 0.000000 1.672150 0.000000 
#    z 0.000000 0.000000 1.726620 
# 
# From -- ./inp_files/64339.got.cif
#   From: 2010.03.12/outbox.cif.g09.slc.cpg/sg65_33_cif.got.tgz:64339.got - 2010.04.10 20:52:16.
