data_PCOD8268565
_publ_section_title
;
Structure prediction by ZEFSAII (Michael W. Deem and Ramdas Pophale) SiO2 
 PCOD8268565
Probable space group: C M M M
;
_chemical_formula_sum "Si O2"
_cell_formula_units_Z 88
_cell_length_a 23.657522
_cell_length_b 8.996925
_cell_length_c 23.024995
_cell_angle_alpha 90.000000
_cell_angle_beta 90.000000
_cell_angle_gamma 90.000000
_cell_volume 4900.753935
_symmetry_space_group_name_H-M "C M M M"
_symmetry_group_IT_number 65
_symmetry_cell_setting 'orthorhombic'
loop_
_space_group_symop_operation_xyz
x,y,z
-x,-y,z
x,-y,-z
-x,y,-z
-x,-y,-z
x,y,-z
-x,y,z
x,-y,z
1/2+x,1/2+y,z
1/2-x,1/2-y,z
1/2+x,1/2-y,-z
1/2-x,1/2+y,-z
1/2-x,1/2-y,-z
1/2+x,1/2+y,-z
1/2-x,1/2+y,z
1/2+x,1/2-y,z
loop_
_atom_site_type_symbol
_atom_site_label
_atom_site_fract_x
_atom_site_fract_y
_atom_site_fract_z
Si Si1 0.500000 0.672892 0.129672
Si Si2 0.106141 0.327044 0.317504
Si Si3 0.810546 0.325133 0.218521
Si Si4 0.876757 0.177266 0.886195
Si Si5 0.563726 0.175695 0.563249
Si Si6 0.690108 0.325258 0.000000
Si Si7 0.500000 0.672845 0.736821
O O1 0.500000 0.500000 0.117716
O O2 0.558746 0.734817 0.102984
O O3 0.500000 0.714255 0.196430
O O4 0.091294 0.500000 0.312698
O O5 0.164006 0.292269 0.282876
O O6 0.107857 0.277068 0.385716
O O7 0.056099 0.238476 0.289124
O O8 0.804202 0.500000 0.207027
O O9 0.750000 0.250000 0.214536
O O10 0.851337 0.256751 0.170069
O O11 0.842786 0.227258 0.942862
O O12 0.874660 0.000000 0.875647
O O13 0.582991 0.240137 0.500000
O O14 0.500000 0.232886 0.578039
O O15 0.562089 0.000000 0.558885
O O16 0.750000 0.250000 0.000000
O O17 0.698489 0.500000 0.000000
O O18 0.500000 0.500000 0.724722
#
# Coordination Sequence:
#
# PCOD8268565 Si02
#       7
#     8  16  16  16  16   8   8
#     4   9  18  32  53  79 108 135 163 200 251 309
#     4  10  19  32  51  75 103 134 171 213 252 299
#     4  11  23  36  53  76 101 134 172 215 259 300
#     4  10  20  37  57  80 107 136 169 209 254 306
#     4   8  13  23  44  73 101 129 163 205 249 295
#     4  10  22  37  57  77 101 138 179 218 253 292
#     4  11  19  29  49  78 107 139 166 199 255 311
#
# _framework density 17.956420000000001
#
# number of rings (size 3 to 8) (size 9 to 14) (size 15 to 20)
#    0.000    2.182    2.727    1.909    0.000    3.273 
#    0.000    2.273    0.000    1.636    0.000    1.909 
#    0.000    0.000    0.000    0.000    0.000    0.182 
#
# Total GULP energy -545220.261404 kJ/mol
# GULP energy per Si atom -12391.369577 kJ/mol
# Density = 1.791555 g / cm^3
# Si number density = 17.956420 Si / 1000 Ang^3
#
#
#
# Elastic Constant Matrix: (Units=GPa)
#
#
# Indices 1 2 3 4 5 6 
#
# 1 147.9867 36.0930 64.7340 0.0000 0.0000 0.0000
# 2 36.0930 40.3412 25.5141 0.0000 0.0000 0.0000
# 3 64.7340 25.5141 144.8922 0.0000 0.0000 0.0000
# 4 0.0000 0.0000 0.0000 18.1628 0.0000 0.0000
# 5 0.0000 0.0000 0.0000 0.0000 28.1402 0.0000
# 6 0.0000 0.0000 0.0000 0.0000 0.0000 13.6797
#
#
#
# Elastic Compliance Matrix: (Units=1/GPa)
#
#
# Indices 1 2 3 4 5 6 
#
# 1 0.009799 -0.006750 -0.003189 0.000000 0.000000 0.000000
# 2 -0.006750 0.032545 -0.002715 0.000000 0.000000 0.000000
# 3 -0.003189 -0.002715 0.008805 0.000000 0.000000 0.000000
# 4 0.000000 0.000000 0.000000 0.055058 0.000000 0.000000
# 5 0.000000 0.000000 0.000000 0.000000 0.035536 0.000000
# 6 0.000000 0.000000 0.000000 0.000000 0.000000 0.073101
#
#
# Mechanical properties :
#
#
# Convention : Reuss Voigt Hill
#
# Bulk Modulus (GPa) = 38.70005 65.10024 51.90014
# Shear Modulus (GPa) = 20.09932 25.78847 22.94390
#
# Velocity S-wave (km/s) = 3.34928 3.79379 3.57845
# Velocity P-wave (km/s) = 6.04615 7.45143 6.78527
#
# Compressibility (1/GPa) = 0.02583976
#
# Stress axis : x y z
#
# Youngs Moduli (GPa) = 102.05498 30.72690 113.57626
#
# Poissons Ratio (x) = 0.20740 0.36222
# Poissons Ratio (y) = 0.68884 0.30838
# Poissons Ratio (z) = 0.32547 0.08343
#
# Static dielectric constant tensor:
#      x y z
#    x 3.324320 0.000000 0.000000 
#    y 0.000000 3.120140 0.000000 
#    z 0.000000 0.000000 3.797490 
# 
# 
# High freq. dielectric constant tensor:
#      x y z
#    x 1.685860 0.000000 0.000000 
#    y 0.000000 1.668450 0.000000 
#    z 0.000000 0.000000 1.706920 
# 
# From -- ./inp_files/65275.got.cif
#   From: 2010.03.12/outbox.cif.g09.slc.cpg/sg65_33_cif.got.tgz:65275.got - 2010.04.10 20:52:16.
