data_PCOD8268761
_publ_section_title
;
Structure prediction by ZEFSAII (Michael W. Deem and Ramdas Pophale) SiO2 
 PCOD8268761
Probable space group: C M M M
;
_chemical_formula_sum "Si O2"
_cell_formula_units_Z 72
_cell_length_a 15.586331
_cell_length_b 26.960300
_cell_length_c 8.665917
_cell_angle_alpha 90.000000
_cell_angle_beta 90.000000
_cell_angle_gamma 90.000000
_cell_volume 3641.523698
_symmetry_space_group_name_H-M "C M M M"
_symmetry_group_IT_number 65
_symmetry_cell_setting 'orthorhombic'
loop_
_space_group_symop_operation_xyz
x,y,z
-x,-y,z
x,-y,-z
-x,y,-z
-x,-y,-z
x,y,-z
-x,y,z
x,-y,z
1/2+x,1/2+y,z
1/2-x,1/2-y,z
1/2+x,1/2-y,-z
1/2-x,1/2+y,-z
1/2-x,1/2-y,-z
1/2+x,1/2+y,-z
1/2-x,1/2+y,z
1/2+x,1/2-y,z
loop_
_atom_site_type_symbol
_atom_site_label
_atom_site_fract_x
_atom_site_fract_y
_atom_site_fract_z
Si Si1 0.831781 0.113413 0.317155
Si Si2 0.334882 0.278801 0.818876
Si Si3 0.500000 0.555559 0.317038
Si Si4 0.162989 0.555530 0.683130
Si Si5 0.000000 0.272756 0.317806
Si Si6 0.500000 0.884505 0.684194
O O1 0.832983 0.123236 0.500000
O O2 0.824931 0.164569 0.228158
O O3 0.751465 0.080408 0.264919
O O4 0.916429 0.084886 0.259989
O O5 0.250000 0.250000 0.764109
O O6 0.416115 0.255699 0.735482
O O7 0.348994 0.274103 0.000000
O O8 0.500000 0.500000 0.246777
O O9 0.500000 0.551873 0.500000
O O10 0.157683 0.553233 0.500000
O O11 0.158410 0.500000 0.751807
O O12 0.083841 0.587476 0.748934
O O13 0.000000 0.274099 0.500000
O O14 0.000000 0.328584 0.250562
O O15 0.500000 0.884291 0.500000
#
# Coordination Sequence:
#
# PCOD8268761 Si02
#       6
#    16  16   8  16   8   8
#     4  10  19  32  53  79 105 137 179 225 269 314
#     4  11  24  40  57  79 111 151 189 227 277 334
#     4   9  17  30  50  78 108 135 168 214 270 327
#     4   9  16  27  46  74 107 139 171 212 264 320
#     4  11  22  37  59  85 112 143 184 235 281 323
#     4   9  17  28  45  73 106 137 170 214 269 320
#
# _framework density 19.771944000000001
#
# number of rings (size 3 to 8) (size 9 to 14) (size 15 to 20)
#    0.000    2.111    0.000    4.000    0.000    8.444 
#    0.000    0.000    0.000    3.333    0.000    0.000 
#    0.000    8.889    0.000    0.000    0.000    0.000 
#
# Total GULP energy -446488.365869 kJ/mol
# GULP energy per Si atom -12402.454607 kJ/mol
# Density = 1.972694 g / cm^3
# Si number density = 19.771944 Si / 1000 Ang^3
#
#
#
# Elastic Constant Matrix: (Units=GPa)
#
#
# Indices 1 2 3 4 5 6 
#
# 1 147.5550 43.5839 16.3980 0.0000 0.0000 0.0000
# 2 43.5839 135.7415 12.0224 0.0000 0.0000 0.0000
# 3 16.3980 12.0224 25.8629 0.0000 0.0000 0.0000
# 4 0.0000 0.0000 0.0000 5.9722 0.0000 0.0000
# 5 0.0000 0.0000 0.0000 0.0000 26.5524 0.0000
# 6 0.0000 0.0000 0.0000 0.0000 0.0000 34.2179
#
#
#
# Elastic Compliance Matrix: (Units=1/GPa)
#
#
# Indices 1 2 3 4 5 6 
#
# 1 0.007860 -0.002172 -0.003974 0.000000 0.000000 0.000000
# 2 -0.002172 0.008283 -0.002474 0.000000 0.000000 0.000000
# 3 -0.003974 -0.002474 0.042335 0.000000 0.000000 0.000000
# 4 0.000000 0.000000 0.000000 0.167442 0.000000 0.000000
# 5 0.000000 0.000000 0.000000 0.000000 0.037661 0.000000
# 6 0.000000 0.000000 0.000000 0.000000 0.000000 0.029224
#
#
# Mechanical properties :
#
#
# Convention : Reuss Voigt Hill
#
# Bulk Modulus (GPa) = 24.24850 50.35202 37.30026
# Shear Modulus (GPa) = 15.44204 29.15885 22.30045
#
# Velocity S-wave (km/s) = 2.79768 3.84442 3.36204
# Velocity P-wave (km/s) = 4.76726 6.72516 5.82900
#
# Compressibility (1/GPa) = 0.04123966
#
# Stress axis : x y z
#
# Youngs Moduli (GPa) = 127.22198 120.72427 23.62116
#
# Poissons Ratio (x) = 0.26219 0.09387
# Poissons Ratio (y) = 0.27630 0.05843
# Poissons Ratio (z) = 0.50560 0.29861
#
# Static dielectric constant tensor:
#      x y z
#    x 3.900260 0.000000 0.000000 
#    y 0.000000 3.817930 0.000000 
#    z 0.000000 0.000000 3.076250 
# 
# 
# High freq. dielectric constant tensor:
#      x y z
#    x 1.792800 0.000000 0.000000 
#    y 0.000000 1.792490 0.000000 
#    z 0.000000 0.000000 1.718340 
# 
# From -- ./inp_files/7346.got.cif
#   From: 2010.03.12/outbox.cif.g09.slc.cpg/sg65_4_cif.got.tgz:7346.got - 2010.04.10 20:52:16.
