data_PCOD8268827
_publ_section_title
;
Structure prediction by ZEFSAII (Michael W. Deem and Ramdas Pophale) SiO2 
 PCOD8268827
Probable space group: C M M M
;
_chemical_formula_sum "Si O2"
_cell_formula_units_Z 48
_cell_length_a 7.811663
_cell_length_b 37.604028
_cell_length_c 7.809075
_cell_angle_alpha 90.000000
_cell_angle_beta 90.000000
_cell_angle_gamma 90.000000
_cell_volume 2293.915736
_symmetry_space_group_name_H-M "C M M M"
_symmetry_group_IT_number 65
_symmetry_cell_setting 'orthorhombic'
loop_
_space_group_symop_operation_xyz
x,y,z
-x,-y,z
x,-y,-z
-x,y,-z
-x,-y,-z
x,y,-z
-x,y,z
x,-y,z
1/2+x,1/2+y,z
1/2-x,1/2-y,z
1/2+x,1/2-y,-z
1/2-x,1/2+y,-z
1/2-x,1/2-y,-z
1/2+x,1/2+y,-z
1/2-x,1/2+y,z
1/2+x,1/2-y,z
loop_
_atom_site_type_symbol
_atom_site_label
_atom_site_fract_x
_atom_site_fract_y
_atom_site_fract_z
Si Si1 0.191314 0.912080 0.198411
Si Si2 0.199229 0.337625 0.690506
Si Si3 0.000000 0.460276 0.203686
Si Si4 0.700964 0.790719 0.000000
O O1 0.204284 0.875009 0.297449
O O2 0.329638 0.940171 0.270434
O O3 0.000000 0.927709 0.225660
O O4 0.229245 0.904239 0.000000
O O5 0.229724 0.321854 0.500000
O O6 0.274743 0.309807 0.829320
O O7 0.000000 0.344865 0.725875
O O8 0.000000 0.500000 0.281234
O O9 0.000000 0.462162 0.000000
O O10 0.750000 0.750000 0.000000
O O11 0.500000 0.794168 0.000000
#
# Coordination Sequence:
#
# PCOD8268827 Si02
#       4
#    16  16   8   8
#     4  10  19  32  56  85 114 154 203 247 294 352
#     4  10  20  36  60  85 112 154 201 243 292 351
#     4   9  18  32  53  83 123 162 197 249 306 353
#     4  10  22  38  58  84 120 155 192 241 295 355
#
# _framework density 20.92492
#
# number of rings (size 3 to 8) (size 9 to 14) (size 15 to 20)
#    0.000    2.167    3.333    0.000    0.000    3.333 
#    0.000    3.333    0.000    2.000    0.000    2.333 
#    0.000    0.000    0.000    0.000    0.000    0.000 
#
# Total GULP energy -297584.587700 kJ/mol
# GULP energy per Si atom -12399.357821 kJ/mol
# Density = 2.087729 g / cm^3
# Si number density = 20.924920 Si / 1000 Ang^3
#
#
#
# Elastic Constant Matrix: (Units=GPa)
#
#
# Indices 1 2 3 4 5 6 
#
# 1 105.0780 52.6840 35.2181 0.0000 0.0000 0.0000
# 2 52.6840 167.1810 55.8627 0.0000 0.0000 0.0000
# 3 35.2181 55.8627 108.7784 0.0000 0.0000 0.0000
# 4 0.0000 0.0000 0.0000 7.6287 0.0000 0.0000
# 5 0.0000 0.0000 0.0000 0.0000 11.7397 0.0000
# 6 0.0000 0.0000 0.0000 0.0000 0.0000 26.9626
#
#
#
# Elastic Compliance Matrix: (Units=1/GPa)
#
#
# Indices 1 2 3 4 5 6 
#
# 1 0.011760 -0.002938 -0.002299 0.000000 0.000000 0.000000
# 2 -0.002938 0.007955 -0.003134 0.000000 0.000000 0.000000
# 3 -0.002299 -0.003134 0.011547 0.000000 0.000000 0.000000
# 4 0.000000 0.000000 0.000000 0.131084 0.000000 0.000000
# 5 0.000000 0.000000 0.000000 0.000000 0.085181 0.000000
# 6 0.000000 0.000000 0.000000 0.000000 0.000000 0.037088
#
#
# Mechanical properties :
#
#
# Convention : Reuss Voigt Hill
#
# Bulk Modulus (GPa) = 68.86871 74.28522 71.57697
# Shear Modulus (GPa) = 16.32943 25.08438 20.70690
#
# Velocity S-wave (km/s) = 2.79656 3.46610 3.14917
# Velocity P-wave (km/s) = 6.58873 7.18306 6.89231
#
# Compressibility (1/GPa) = 0.01452038
#
# Stress axis : x y z
#
# Youngs Moduli (GPa) = 85.03262 125.71472 86.60556
#
# Poissons Ratio (x) = 0.36934 0.19908
# Poissons Ratio (y) = 0.24982 0.27141
# Poissons Ratio (z) = 0.19547 0.39397
#
# Static dielectric constant tensor:
#      x y z
#    x 3.754650 0.000000 0.000000 
#    y 0.000000 3.334290 0.000000 
#    z 0.000000 0.000000 3.795870 
# 
# 
# High freq. dielectric constant tensor:
#      x y z
#    x 1.815940 0.000000 0.000000 
#    y 0.000000 1.800010 0.000000 
#    z 0.000000 0.000000 1.808510 
# 
# From -- ./inp_files/3082.got.cif
#   From: 2010.03.12/outbox.cif.g09.slc.cpg/sg65_2_cif.got.tgz:3082.got - 2010.04.10 20:52:16.
