data_PCOD8268978
_publ_section_title
;
Structure prediction by ZEFSAII (Michael W. Deem and Ramdas Pophale) SiO2 
 PCOD8268978
Probable space group: C M M M
;
_chemical_formula_sum "Si O2"
_cell_formula_units_Z 112
_cell_length_a 17.956034
_cell_length_b 25.259009
_cell_length_c 14.235735
_cell_angle_alpha 90.000000
_cell_angle_beta 90.000000
_cell_angle_gamma 90.000000
_cell_volume 6456.640734
_symmetry_space_group_name_H-M "C M M M"
_symmetry_group_IT_number 65
_symmetry_cell_setting 'orthorhombic'
loop_
_space_group_symop_operation_xyz
x,y,z
-x,-y,z
x,-y,-z
-x,y,-z
-x,-y,-z
x,y,-z
-x,y,z
x,-y,z
1/2+x,1/2+y,z
1/2-x,1/2-y,z
1/2+x,1/2-y,-z
1/2-x,1/2+y,-z
1/2-x,1/2-y,-z
1/2+x,1/2+y,-z
1/2-x,1/2+y,z
1/2+x,1/2-y,z
loop_
_atom_site_type_symbol
_atom_site_label
_atom_site_fract_x
_atom_site_fract_y
_atom_site_fract_z
Si Si1 0.162107 0.750121 0.894182
Si Si2 0.916616 0.156533 0.205172
Si Si3 0.159644 0.939466 0.109069
Si Si4 0.917839 0.109808 0.395626
Si Si5 0.811968 0.438488 0.210518
Si Si6 0.086955 0.641344 0.890640
Si Si7 0.763196 0.061440 0.602466
O O1 0.250000 0.750000 0.888765
O O2 0.136766 0.797615 0.828958
O O3 0.128709 0.694737 0.858593
O O4 0.134167 0.760920 0.000000
O O5 0.894205 0.098955 0.166358
O O6 0.911104 0.156154 0.318469
O O7 0.000000 0.168906 0.170918
O O8 0.244944 0.930171 0.137734
O O9 0.135884 0.000000 0.130441
O O10 0.152251 0.925603 0.000000
O O11 0.910311 0.134946 0.500000
O O12 0.851368 0.068298 0.378016
O O13 0.000000 0.082345 0.385123
O O14 0.834781 0.500000 0.217310
O O15 0.882845 0.406500 0.172984
O O16 0.786389 0.415032 0.312532
O O17 0.000000 0.648053 0.870036
O O18 0.102187 0.628881 0.000000
O O19 0.741216 0.086193 0.500000
O O20 0.747142 0.000000 0.600606
#
# Coordination Sequence:
#
# PCOD8268978 Si02
#       7
#    16  16  16  16  16  16  16
#     4  10  21  36  55  77 102 134 172 213 256 304
#     4  11  21  33  52  74 100 137 174 210 255 308
#     4  10  20  32  46  69 103 140 175 210 249 299
#     4   9  18  31  48  73 104 137 173 216 263 307
#     4  10  19  33  53  76 103 137 172 209 260 317
#     4  10  21  36  54  78 107 136 171 218 264 306
#     4   9  17  30  50  75 102 135 177 222 261 302
#
# _framework density 17.346481000000001
#
# number of rings (size 3 to 8) (size 9 to 14) (size 15 to 20)
#    0.000    2.143    1.429    2.143    0.000    4.571 
#    0.000    4.286    0.000    1.714    0.000    2.000 
#    0.000    0.000    0.000    0.000    0.000    0.000 
#
# Total GULP energy -694177.534921 kJ/mol
# GULP energy per Si atom -12396.027409 kJ/mol
# Density = 1.730700 g / cm^3
# Si number density = 17.346481 Si / 1000 Ang^3
#
#
#
# Elastic Constant Matrix: (Units=GPa)
#
#
# Indices 1 2 3 4 5 6 
#
# 1 80.1672 37.2772 41.1244 0.0000 0.0000 0.0000
# 2 37.2772 73.1497 43.8041 0.0000 0.0000 0.0000
# 3 41.1244 43.8041 105.1878 0.0000 0.0000 0.0000
# 4 0.0000 0.0000 0.0000 17.5582 0.0000 0.0000
# 5 0.0000 0.0000 0.0000 0.0000 26.8863 0.0000
# 6 0.0000 0.0000 0.0000 0.0000 0.0000 25.6970
#
#
#
# Elastic Compliance Matrix: (Units=1/GPa)
#
#
# Indices 1 2 3 4 5 6 
#
# 1 0.017639 -0.006473 -0.004200 0.000000 0.000000 0.000000
# 2 -0.006473 0.020588 -0.006043 0.000000 0.000000 0.000000
# 3 -0.004200 -0.006043 0.013665 0.000000 0.000000 0.000000
# 4 0.000000 0.000000 0.000000 0.056954 0.000000 0.000000
# 5 0.000000 0.000000 0.000000 0.000000 0.037194 0.000000
# 6 0.000000 0.000000 0.000000 0.000000 0.000000 0.038915
#
#
# Mechanical properties :
#
#
# Convention : Reuss Voigt Hill
#
# Bulk Modulus (GPa) = 54.17362 55.87955 55.02658
# Shear Modulus (GPa) = 22.26771 23.11490 22.69131
#
# Velocity S-wave (km/s) = 3.58677 3.65436 3.62072
# Velocity P-wave (km/s) = 6.96070 7.07739 7.01929
#
# Compressibility (1/GPa) = 0.01845917
#
# Stress axis : x y z
#
# Youngs Moduli (GPa) = 56.69347 48.57188 73.17764
#
# Poissons Ratio (x) = 0.31443 0.30737
# Poissons Ratio (y) = 0.36700 0.44219
# Poissons Ratio (z) = 0.23813 0.29351
#
# Static dielectric constant tensor:
#      x y z
#    x 3.136800 0.000000 0.000000 
#    y 0.000000 2.990980 0.000000 
#    z 0.000000 0.000000 3.628210 
# 
# 
# High freq. dielectric constant tensor:
#      x y z
#    x 1.663990 0.000000 0.000000 
#    y 0.000000 1.643160 0.000000 
#    z 0.000000 0.000000 1.677660 
# 
# From -- ./inp_files/41039.got.cif
#   From: 2010.03.12/outbox.cif.g09.slc.cpg/sg65_21_cif.got.tgz:41039.got - 2010.04.10 20:52:16.
