data_PCOD8268430
_publ_section_title
;
Structure prediction by ZEFSAII (Michael W. Deem and Ramdas Pophale) SiO2 
 PCOD8268430
Probable space group: C M M M
;
_chemical_formula_sum "Si O2"
_cell_formula_units_Z 80
_cell_length_a 9.353836
_cell_length_b 28.775367
_cell_length_c 17.902646
_cell_angle_alpha 90.000000
_cell_angle_beta 90.000000
_cell_angle_gamma 90.000000
_cell_volume 4818.677339
_symmetry_space_group_name_H-M "C M M M"
_symmetry_group_IT_number 65
_symmetry_cell_setting 'orthorhombic'
loop_
_space_group_symop_operation_xyz
x,y,z
-x,-y,z
x,-y,-z
-x,y,-z
-x,-y,-z
x,y,-z
-x,y,z
x,-y,z
1/2+x,1/2+y,z
1/2-x,1/2-y,z
1/2+x,1/2-y,-z
1/2-x,1/2+y,-z
1/2-x,1/2-y,-z
1/2+x,1/2+y,-z
1/2-x,1/2+y,z
1/2+x,1/2-y,z
loop_
_atom_site_type_symbol
_atom_site_label
_atom_site_fract_x
_atom_site_fract_y
_atom_site_fract_z
Si Si1 0.340396 0.444943 0.000000
Si Si2 0.664549 0.205188 0.916264
Si Si3 0.839037 0.795444 0.500000
Si Si4 0.667757 0.298935 0.662542
Si Si5 0.836991 0.642322 0.778316
Si Si6 0.335456 0.052539 0.857528
O O1 0.258089 0.428517 0.073841
O O2 0.345672 0.500000 0.000000
O O3 0.500000 0.423651 0.000000
O O4 0.500000 0.219588 0.915738
O O5 0.750000 0.250000 0.887955
O O6 0.695636 0.163547 0.859690
O O7 0.713049 0.190169 0.000000
O O8 0.750000 0.750000 0.500000
O O9 0.808461 0.821271 0.421051
O O10 0.000000 0.777821 0.500000
O O11 0.500000 0.290683 0.679264
O O12 0.750000 0.250000 0.672644
O O13 0.728965 0.337419 0.717900
O O14 0.810707 0.586875 0.786980
O O15 0.000000 0.652854 0.753389
O O16 0.500000 0.054722 0.883625
O O17 0.293271 0.000000 0.833393
#
# Coordination Sequence:
#
# PCOD8268430 Si02
#       6
#     8  16   8  16  16  16
#     4   9  17  29  45  65  88 113 148 199 249 287
#     4   9  18  31  44  58  82 117 153 188 223 262
#     4   8  16  30  48  70  95 126 153 183 224 275
#     4  10  19  32  50  72 100 127 156 188 228 277
#     4  10  20  31  47  69  93 121 158 198 238 279
#     4   9  18  32  49  67  89 121 159 198 243 292
#
# _framework density 16.602066000000001
#
# number of rings (size 3 to 8) (size 9 to 14) (size 15 to 20)
#    0.000    2.700    0.000    1.500    1.400    5.200 
#    0.000    0.000    0.000    0.000    0.000    0.700 
#    0.000    5.600    0.000    0.000    0.000    0.000 
#
# Total GULP energy -495692.778663 kJ/mol
# GULP energy per Si atom -12392.319467 kJ/mol
# Density = 1.656428 g / cm^3
# Si number density = 16.602066 Si / 1000 Ang^3
#
#
#
# Elastic Constant Matrix: (Units=GPa)
#
#
# Indices 1 2 3 4 5 6 
#
# 1 82.6938 39.6711 55.5109 0.0000 0.0000 0.0000
# 2 39.6711 77.6109 48.6886 0.0000 0.0000 0.0000
# 3 55.5109 48.6886 98.7485 0.0000 0.0000 0.0000
# 4 0.0000 0.0000 0.0000 11.6027 0.0000 0.0000
# 5 0.0000 0.0000 0.0000 0.0000 24.1554 0.0000
# 6 0.0000 0.0000 0.0000 0.0000 0.0000 19.2104
#
#
#
# Elastic Compliance Matrix: (Units=1/GPa)
#
#
# Indices 1 2 3 4 5 6 
#
# 1 0.020548 -0.004715 -0.009226 0.000000 0.000000 0.000000
# 2 -0.004715 0.019737 -0.007081 0.000000 0.000000 0.000000
# 3 -0.009226 -0.007081 0.018804 0.000000 0.000000 0.000000
# 4 0.000000 0.000000 0.000000 0.086187 0.000000 0.000000
# 5 0.000000 0.000000 0.000000 0.000000 0.041399 0.000000
# 6 0.000000 0.000000 0.000000 0.000000 0.000000 0.052055
#
#
# Mechanical properties :
#
#
# Convention : Reuss Voigt Hill
#
# Bulk Modulus (GPa) = 58.66765 60.75493 59.71129
# Shear Modulus (GPa) = 17.45463 18.67253 18.06358
#
# Velocity S-wave (km/s) = 3.24597 3.35731 3.30211
# Velocity P-wave (km/s) = 7.03298 7.19048 7.11216
#
# Compressibility (1/GPa) = 0.01704517
#
# Stress axis : x y z
#
# Youngs Moduli (GPa) = 48.66590 50.66584 53.17900
#
# Poissons Ratio (x) = 0.23891 0.49064
# Poissons Ratio (y) = 0.22948 0.37655
# Poissons Ratio (z) = 0.44900 0.35876
#
# Static dielectric constant tensor:
#      x y z
#    x 3.253720 0.000000 0.000000 
#    y 0.000000 2.991300 0.000000 
#    z 0.000000 0.000000 3.741740 
# 
# 
# High freq. dielectric constant tensor:
#      x y z
#    x 1.646890 0.000000 0.000000 
#    y 0.000000 1.612830 0.000000 
#    z 0.000000 0.000000 1.625790 
# 
# From -- ./inp_files/50160.got.cif
#   From: 2010.03.12/outbox.cif.g09.slc.cpg/sg65_26_cif.got.tgz:50160.got - 2010.04.10 20:52:16.
