data_PCOD8268505
_publ_section_title
;
Structure prediction by ZEFSAII (Michael W. Deem and Ramdas Pophale) SiO2 
 PCOD8268505
Probable space group: C M M M
;
_chemical_formula_sum "Si O2"
_cell_formula_units_Z 104
_cell_length_a 29.771731
_cell_length_b 9.251251
_cell_length_c 19.905456
_cell_angle_alpha 90.000000
_cell_angle_beta 90.000000
_cell_angle_gamma 90.000000
_cell_volume 5482.475271
_symmetry_space_group_name_H-M "C M M M"
_symmetry_group_IT_number 65
_symmetry_cell_setting 'orthorhombic'
loop_
_space_group_symop_operation_xyz
x,y,z
-x,-y,z
x,-y,-z
-x,y,-z
-x,-y,-z
x,y,-z
-x,y,z
x,-y,z
1/2+x,1/2+y,z
1/2-x,1/2-y,z
1/2+x,1/2-y,-z
1/2-x,1/2+y,-z
1/2-x,1/2-y,-z
1/2+x,1/2+y,-z
1/2-x,1/2+y,z
1/2+x,1/2-y,z
loop_
_atom_site_type_symbol
_atom_site_label
_atom_site_fract_x
_atom_site_fract_y
_atom_site_fract_z
Si Si1 0.859652 0.168809 0.622565
Si Si2 0.500000 0.170549 0.074930
Si Si3 0.792408 0.161622 0.267357
Si Si4 0.200926 0.825820 0.500000
Si Si5 0.427238 0.171277 0.180683
Si Si6 0.158088 0.164473 0.863037
Si Si7 0.550228 0.331146 0.316426
Si Si8 0.796493 0.831090 0.000000
O O1 0.836852 0.213034 0.693223
O O2 0.829141 0.232573 0.562610
O O3 0.911737 0.223356 0.629748
O O4 0.861314 0.000000 0.609428
O O5 0.456541 0.220546 0.116580
O O6 0.500000 0.000000 0.067246
O O7 0.500000 0.241271 0.000000
O O8 0.750000 0.250000 0.291771
O O9 0.799885 0.174113 0.187720
O O10 0.781285 0.000000 0.289686
O O11 0.250000 0.750000 0.500000
O O12 0.207886 0.000000 0.500000
O O13 0.377624 0.222726 0.164006
O O14 0.446331 0.244445 0.247308
O O15 0.428361 0.000000 0.191648
O O16 0.139084 0.000000 0.864292
O O17 0.174610 0.214955 0.935665
O O18 0.500000 0.307104 0.346582
O O19 0.558685 0.500000 0.300008
O O20 0.750000 0.750000 0.000000
O O21 0.785718 0.000000 0.000000
#
# Coordination Sequence:
#
# PCOD8268505 Si02
#       8
#    16   8  16   8  16  16  16   8
#     4   9  18  34  54  81 112 146 181 222 272 318
#     4   9  20  36  51  73 109 142 171 220 284 333
#     4  10  19  32  51  73 104 137 173 220 266 314
#     4  10  20  36  59  83 117 153 186 226 269 326
#     4  11  21  34  55  80 106 138 180 229 274 323
#     4  10  21  37  53  73 105 140 175 222 273 327
#     4  10  19  35  59  81 108 146 183 220 276 336
#     4  10  22  38  56  75 102 139 179 225 276 331
#
# _framework density 18.969532999999998
#
# number of rings (size 3 to 8) (size 9 to 14) (size 15 to 20)
#    0.000    2.077    2.308    1.385    1.077    1.231 
#    0.000    1.154    0.000    4.154    0.000    0.000 
#    0.000    1.846    0.000    0.000    0.000    0.000 
#
# Total GULP energy -644495.847535 kJ/mol
# GULP energy per Si atom -12394.150914 kJ/mol
# Density = 1.892636 g / cm^3
# Si number density = 18.969533 Si / 1000 Ang^3
#
#
#
# Elastic Constant Matrix: (Units=GPa)
#
#
# Indices 1 2 3 4 5 6 
#
# 1 151.3124 41.8014 54.2239 0.0000 0.0000 0.0000
# 2 41.8014 47.0339 21.7967 0.0000 0.0000 0.0000
# 3 54.2239 21.7967 111.1812 0.0000 0.0000 0.0000
# 4 0.0000 0.0000 0.0000 17.3559 0.0000 0.0000
# 5 0.0000 0.0000 0.0000 0.0000 17.9935 0.0000
# 6 0.0000 0.0000 0.0000 0.0000 0.0000 27.1951
#
#
#
# Elastic Compliance Matrix: (Units=1/GPa)
#
#
# Indices 1 2 3 4 5 6 
#
# 1 0.009790 -0.007137 -0.003376 0.000000 0.000000 0.000000
# 2 -0.007137 0.028588 -0.002124 0.000000 0.000000 0.000000
# 3 -0.003376 -0.002124 0.011057 0.000000 0.000000 0.000000
# 4 0.000000 0.000000 0.000000 0.057617 0.000000 0.000000
# 5 0.000000 0.000000 0.000000 0.000000 0.055576 0.000000
# 6 0.000000 0.000000 0.000000 0.000000 0.000000 0.036771
#
#
# Mechanical properties :
#
#
# Convention : Reuss Voigt Hill
#
# Bulk Modulus (GPa) = 41.38578 60.57461 50.98019
# Shear Modulus (GPa) = 21.48446 25.28927 23.38686
#
# Velocity S-wave (km/s) = 3.36903 3.65520 3.51503
# Velocity P-wave (km/s) = 6.08261 7.05803 6.58840
#
# Compressibility (1/GPa) = 0.02416289
#
# Stress axis : x y z
#
# Youngs Moduli (GPa) = 102.14448 34.97941 90.44020
#
# Poissons Ratio (x) = 0.24963 0.30529
# Poissons Ratio (y) = 0.72896 0.19210
# Poissons Ratio (z) = 0.34480 0.07430
#
# Static dielectric constant tensor:
#      x y z
#    x 3.618660 0.000000 0.000000 
#    y 0.000000 3.217840 0.000000 
#    z 0.000000 0.000000 3.869640 
# 
# 
# High freq. dielectric constant tensor:
#      x y z
#    x 1.747320 0.000000 0.000000 
#    y 0.000000 1.706770 0.000000 
#    z 0.000000 0.000000 1.734440 
# 
# From -- ./inp_files/66444.got.cif
#   From: 2010.03.12/outbox.cif.g09.slc.cpg/sg65_34_cif.got.tgz:66444.got - 2010.04.10 20:52:16.
