data_PCOD8268549
_publ_section_title
;
Structure prediction by ZEFSAII (Michael W. Deem and Ramdas Pophale) SiO2 
 PCOD8268549
Probable space group: C M M M
;
_chemical_formula_sum "Si O2"
_cell_formula_units_Z 68
_cell_length_a 16.581532
_cell_length_b 18.191762
_cell_length_c 11.877540
_cell_angle_alpha 90.000000
_cell_angle_beta 90.000000
_cell_angle_gamma 90.000000
_cell_volume 3582.827679
_symmetry_space_group_name_H-M "C M M M"
_symmetry_group_IT_number 65
_symmetry_cell_setting 'orthorhombic'
loop_
_space_group_symop_operation_xyz
x,y,z
-x,-y,z
x,-y,-z
-x,y,-z
-x,-y,-z
x,y,-z
-x,y,z
x,-y,z
1/2+x,1/2+y,z
1/2-x,1/2-y,z
1/2+x,1/2-y,-z
1/2-x,1/2+y,-z
1/2-x,1/2-y,-z
1/2+x,1/2+y,-z
1/2-x,1/2+y,z
1/2+x,1/2-y,z
loop_
_atom_site_type_symbol
_atom_site_label
_atom_site_fract_x
_atom_site_fract_y
_atom_site_fract_z
Si Si1 0.908000 0.223700 0.368891
Si Si2 0.688102 0.582511 0.371094
Si Si3 0.161388 0.356566 0.755415
Si Si4 0.000000 0.305748 0.000000
Si Si5 0.326303 0.197596 0.000000
Si Si6 0.500000 0.082614 0.797128
O O1 0.898341 0.243564 0.500000
O O2 0.884081 0.139211 0.345072
O O3 0.848104 0.275034 0.297047
O O4 0.000000 0.234773 0.328495
O O5 0.715718 0.589828 0.500000
O O6 0.657050 0.500000 0.344533
O O7 0.764688 0.600105 0.295851
O O8 0.080938 0.403107 0.724772
O O9 0.177401 0.352946 0.889330
O O10 0.084979 0.259988 0.000000
O O11 0.000000 0.357882 0.106180
O O12 0.250000 0.250000 0.000000
O O13 0.500000 0.000000 0.844404
#
# Coordination Sequence:
#
# PCOD8268549 Si02
#       6
#    16  16  16   4   8   8
#     4  10  20  35  56  80 107 141 181 225 272 323
#     4  10  21  36  55  79 108 143 181 224 273 323
#     4  11  20  36  54  80 110 141 181 224 269 325
#     4   8  19  32  48  72 104 140 179 214 263 322
#     4  10  20  33  53  80 109 142 182 227 271 319
#     4  10  19  32  51  74 106 141 171 214 265 318
#
# _framework density 18.979422
#
# number of rings (size 3 to 8) (size 9 to 14) (size 15 to 20)
#    0.000    1.882    1.176    3.706    0.000    2.353 
#    0.000    4.118    0.000    2.824    0.000    0.000 
#    0.000    5.647    0.000    0.000    0.000    0.000 
#
# Total GULP energy -421464.491944 kJ/mol
# GULP energy per Si atom -12396.014469 kJ/mol
# Density = 1.893622 g / cm^3
# Si number density = 18.979422 Si / 1000 Ang^3
#
#
#
# Elastic Constant Matrix: (Units=GPa)
#
#
# Indices 1 2 3 4 5 6 
#
# 1 80.9658 20.0802 14.3551 0.0000 0.0000 0.0000
# 2 20.0802 95.2248 26.9163 0.0000 0.0000 0.0000
# 3 14.3551 26.9163 69.2813 0.0000 0.0000 0.0000
# 4 0.0000 0.0000 0.0000 36.7718 0.0000 0.0000
# 5 0.0000 0.0000 0.0000 0.0000 26.1323 0.0000
# 6 0.0000 0.0000 0.0000 0.0000 0.0000 26.6199
#
#
#
# Elastic Compliance Matrix: (Units=1/GPa)
#
#
# Indices 1 2 3 4 5 6 
#
# 1 0.013243 -0.002266 -0.001864 0.000000 0.000000 0.000000
# 2 -0.002266 0.012185 -0.004264 0.000000 0.000000 0.000000
# 3 -0.001864 -0.004264 0.016477 0.000000 0.000000 0.000000
# 4 0.000000 0.000000 0.000000 0.027195 0.000000 0.000000
# 5 0.000000 0.000000 0.000000 0.000000 0.038267 0.000000
# 6 0.000000 0.000000 0.000000 0.000000 0.000000 0.037566
#
#
# Mechanical properties :
#
#
# Convention : Reuss Voigt Hill
#
# Bulk Modulus (GPa) = 39.81380 40.90836 40.36108
# Shear Modulus (GPa) = 29.39582 30.17949 29.78765
#
# Velocity S-wave (km/s) = 3.93978 3.99195 3.96595
# Velocity P-wave (km/s) = 6.45900 6.54587 6.50258
#
# Compressibility (1/GPa) = 0.02511692
#
# Stress axis : x y z
#
# Youngs Moduli (GPa) = 75.51007 82.07064 60.69144
#
# Poissons Ratio (x) = 0.18596 0.11311
# Poissons Ratio (y) = 0.17109 0.25881
# Poissons Ratio (z) = 0.14073 0.34998
#
# Static dielectric constant tensor:
#      x y z
#    x 3.879230 0.000000 0.000000 
#    y 0.000000 3.396960 0.000000 
#    z 0.000000 0.000000 3.603680 
# 
# 
# High freq. dielectric constant tensor:
#      x y z
#    x 1.749300 0.000000 0.000000 
#    y 0.000000 1.719130 0.000000 
#    z 0.000000 0.000000 1.731100 
# 
# From -- ./inp_files/26377.got.cif
#   From: 2010.03.12/outbox.cif.g09.slc.cpg/sg65_14_cif.got.tgz:26377.got - 2010.04.10 20:52:16.
