data_PCOD8268810
_publ_section_title
;
Structure prediction by ZEFSAII (Michael W. Deem and Ramdas Pophale) SiO2 
 PCOD8268810
Probable space group: C M M M
;
_chemical_formula_sum "Si O2"
_cell_formula_units_Z 96
_cell_length_a 28.931317
_cell_length_b 8.836917
_cell_length_c 20.652551
_cell_angle_alpha 90.000000
_cell_angle_beta 90.000000
_cell_angle_gamma 90.000000
_cell_volume 5280.106509
_symmetry_space_group_name_H-M "C M M M"
_symmetry_group_IT_number 65
_symmetry_cell_setting 'orthorhombic'
loop_
_space_group_symop_operation_xyz
x,y,z
-x,-y,z
x,-y,-z
-x,y,-z
-x,-y,-z
x,y,-z
-x,y,z
x,-y,z
1/2+x,1/2+y,z
1/2-x,1/2-y,z
1/2+x,1/2-y,-z
1/2-x,1/2+y,-z
1/2-x,1/2-y,-z
1/2+x,1/2+y,-z
1/2-x,1/2+y,z
1/2+x,1/2-y,z
loop_
_atom_site_type_symbol
_atom_site_label
_atom_site_fract_x
_atom_site_fract_y
_atom_site_fract_z
Si Si1 0.114675 0.674309 0.927543
Si Si2 0.703755 0.177266 0.738558
Si Si3 0.948254 0.178662 0.427185
Si Si4 0.702747 0.679179 0.877455
Si Si5 0.394007 0.175880 0.314071
Si Si6 0.551862 0.180033 0.188932
O O1 0.126969 0.500000 0.911775
O O2 0.161037 0.772852 0.923766
O O3 0.076959 0.736359 0.876544
O O4 0.094208 0.690919 0.000000
O O5 0.750000 0.250000 0.707232
O O6 0.692665 0.256333 0.806313
O O7 0.660724 0.206893 0.691197
O O8 0.711493 0.000000 0.751003
O O9 0.936619 0.233186 0.500000
O O10 0.910808 0.246945 0.379305
O O11 0.000000 0.233091 0.408167
O O12 0.945467 0.000000 0.423095
O O13 0.707419 0.500000 0.874906
O O14 0.750000 0.750000 0.905467
O O15 0.420570 0.242864 0.251373
O O16 0.405021 0.000000 0.319199
O O17 0.500000 0.246687 0.190007
O O18 0.550717 0.000000 0.189982
#
# Coordination Sequence:
#
# PCOD8268810 Si02
#       6
#    16  16  16  16  16  16
#     4  10  20  35  53  73 102 138 175 217 263 312
#     4  10  19  33  53  79 109 137 171 213 260 311
#     4   9  19  35  53  77 112 148 179 214 257 307
#     4  11  21  34  54  76 102 133 169 214 265 319
#     4  10  19  32  54  80 109 139 172 217 261 305
#     4   9  17  31  51  76 105 134 169 215 262 306
#
# _framework density 18.181450999999999
#
# number of rings (size 3 to 8) (size 9 to 14) (size 15 to 20)
#    0.000    2.167    1.667    4.000    0.000    3.667 
#    0.000    2.500    0.000    1.000    0.000    1.167 
#    0.000    0.000    0.000    0.000    0.000    0.000 
#
# Total GULP energy -595190.782879 kJ/mol
# GULP energy per Si atom -12399.807977 kJ/mol
# Density = 1.814007 g / cm^3
# Si number density = 18.181451 Si / 1000 Ang^3
#
#
#
# Elastic Constant Matrix: (Units=GPa)
#
#
# Indices 1 2 3 4 5 6 
#
# 1 126.6264 39.6431 65.2840 0.0000 0.0000 0.0000
# 2 39.6431 71.9759 32.7944 0.0000 0.0000 0.0000
# 3 65.2840 32.7944 113.0234 0.0000 0.0000 0.0000
# 4 0.0000 0.0000 0.0000 23.0877 0.0000 0.0000
# 5 0.0000 0.0000 0.0000 0.0000 28.7304 0.0000
# 6 0.0000 0.0000 0.0000 0.0000 0.0000 25.6751
#
#
#
# Elastic Compliance Matrix: (Units=1/GPa)
#
#
# Indices 1 2 3 4 5 6 
#
# 1 0.012187 -0.004039 -0.005867 0.000000 0.000000 0.000000
# 2 -0.004039 0.017349 -0.002701 0.000000 0.000000 0.000000
# 3 -0.005867 -0.002701 0.013020 0.000000 0.000000 0.000000
# 4 0.000000 0.000000 0.000000 0.043313 0.000000 0.000000
# 5 0.000000 0.000000 0.000000 0.000000 0.034806 0.000000
# 6 0.000000 0.000000 0.000000 0.000000 0.000000 0.038948
#
#
# Mechanical properties :
#
#
# Convention : Reuss Voigt Hill
#
# Bulk Modulus (GPa) = 57.66468 65.22986 61.44727
# Shear Modulus (GPa) = 26.23043 27.09225 26.66134
#
# Velocity S-wave (km/s) = 3.80241 3.86437 3.83352
# Velocity P-wave (km/s) = 7.14583 7.47437 7.31195
#
# Compressibility (1/GPa) = 0.01734164
#
# Stress axis : x y z
#
# Youngs Moduli (GPa) = 82.05676 57.64118 76.80225
#
# Poissons Ratio (x) = 0.23281 0.45062
# Poissons Ratio (y) = 0.33142 0.20744
# Poissons Ratio (z) = 0.48145 0.15568
#
# Static dielectric constant tensor:
#      x y z
#    x 3.593500 0.000000 0.000000 
#    y 0.000000 3.148130 0.000000 
#    z 0.000000 0.000000 3.292290 
# 
# 
# High freq. dielectric constant tensor:
#      x y z
#    x 1.709810 0.000000 0.000000 
#    y 0.000000 1.686260 0.000000 
#    z 0.000000 0.000000 1.689100 
# 
# From -- ./inp_files/65754.got.cif
#   From: 2010.03.12/outbox.cif.g09.slc.cpg/sg65_33_cif.got.tgz:65754.got - 2010.04.10 20:52:16.
