data_PCOD8268905
_publ_section_title
;
Structure prediction by ZEFSAII (Michael W. Deem and Ramdas Pophale) SiO2 
 PCOD8268905
Probable space group: C M M M
;
_chemical_formula_sum "Si O2"
_cell_formula_units_Z 96
_cell_length_a 23.624143
_cell_length_b 25.343045
_cell_length_c 8.945007
_cell_angle_alpha 90.000000
_cell_angle_beta 90.000000
_cell_angle_gamma 90.000000
_cell_volume 5355.444739
_symmetry_space_group_name_H-M "C M M M"
_symmetry_group_IT_number 65
_symmetry_cell_setting 'orthorhombic'
loop_
_space_group_symop_operation_xyz
x,y,z
-x,-y,z
x,-y,-z
-x,y,-z
-x,-y,-z
x,y,-z
-x,y,z
x,-y,z
1/2+x,1/2+y,z
1/2-x,1/2-y,z
1/2+x,1/2-y,-z
1/2-x,1/2+y,-z
1/2-x,1/2-y,-z
1/2+x,1/2+y,-z
1/2-x,1/2+y,z
1/2+x,1/2-y,z
loop_
_atom_site_type_symbol
_atom_site_label
_atom_site_fract_x
_atom_site_fract_y
_atom_site_fract_z
Si Si1 0.000000 0.686454 0.178071
Si Si2 0.882910 0.148829 0.824810
Si Si3 0.000000 0.192994 0.177962
Si Si4 0.815831 0.747866 0.826393
Si Si5 0.884842 0.343964 0.322493
Si Si6 0.684910 0.439159 0.671630
Si Si7 0.188871 0.558307 0.322387
O O1 0.945124 0.657422 0.242288
O O2 0.000000 0.746760 0.235136
O O3 0.000000 0.682571 0.000000
O O4 0.840190 0.195455 0.781840
O O5 0.861773 0.094326 0.757539
O O6 0.944804 0.163108 0.759523
O O7 0.886955 0.141160 0.000000
O O8 0.000000 0.194450 0.000000
O O9 0.750000 0.750000 0.789180
O O10 0.845461 0.704412 0.724808
O O11 0.827934 0.734596 0.000000
O O12 0.893068 0.343051 0.500000
O O13 0.855216 0.397962 0.266229
O O14 0.682916 0.422070 0.500000
O O15 0.668414 0.500000 0.692300
O O16 0.747910 0.428584 0.737749
O O17 0.192250 0.557613 0.500000
O O18 0.169983 0.500000 0.265172
#
# Coordination Sequence:
#
# PCOD8268905 Si02
#       7
#     8  16   8  16  16  16  16
#     4  11  21  39  58  71 104 150 181 213 267 324
#     4  10  19  33  52  74 100 135 179 216 252 309
#     4   9  18  35  54  69  94 140 183 207 246 311
#     4  10  20  33  51  77 109 143 174 210 267 330
#     4  11  21  33  54  83 107 132 180 229 265 310
#     4   9  18  34  55  78 105 138 172 210 266 321
#     4   8  16  33  55  77 106 142 173 208 261 321
#
# _framework density 17.925681999999998
#
# number of rings (size 3 to 8) (size 9 to 14) (size 15 to 20)
#    0.000    2.333    1.667    2.750    0.000    1.333 
#    0.000    2.083    0.000    9.000    0.000    0.000 
#    0.000    0.000    0.000    0.000    0.000    0.000 
#
# Total GULP energy -595189.061404 kJ/mol
# GULP energy per Si atom -12399.772113 kJ/mol
# Density = 1.788488 g / cm^3
# Si number density = 17.925682 Si / 1000 Ang^3
#
#
#
# Elastic Constant Matrix: (Units=GPa)
#
#
# Indices 1 2 3 4 5 6 
#
# 1 150.3974 70.2989 35.6492 0.0000 0.0000 0.0000
# 2 70.2989 103.3216 35.0291 0.0000 0.0000 0.0000
# 3 35.6492 35.0291 43.3302 0.0000 0.0000 0.0000
# 4 0.0000 0.0000 0.0000 25.8181 0.0000 0.0000
# 5 0.0000 0.0000 0.0000 0.0000 24.6302 0.0000
# 6 0.0000 0.0000 0.0000 0.0000 0.0000 19.7560
#
#
#
# Elastic Compliance Matrix: (Units=1/GPa)
#
#
# Indices 1 2 3 4 5 6 
#
# 1 0.010191 -0.005636 -0.003828 0.000000 0.000000 0.000000
# 2 -0.005636 0.016450 -0.008661 0.000000 0.000000 0.000000
# 3 -0.003828 -0.008661 0.033230 0.000000 0.000000 0.000000
# 4 0.000000 0.000000 0.000000 0.038733 0.000000 0.000000
# 5 0.000000 0.000000 0.000000 0.000000 0.040601 0.000000
# 6 0.000000 0.000000 0.000000 0.000000 0.000000 0.050618
#
#
# Mechanical properties :
#
#
# Convention : Reuss Voigt Hill
#
# Bulk Modulus (GPa) = 42.33739 64.33372 53.33555
# Shear Modulus (GPa) = 21.37252 24.44564 22.90908
#
# Velocity S-wave (km/s) = 3.45669 3.69687 3.57880
# Velocity P-wave (km/s) = 6.29295 7.36135 6.84802
#
# Compressibility (1/GPa) = 0.02361978
#
# Stress axis : x y z
#
# Youngs Moduli (GPa) = 98.12816 60.79203 30.09309
#
# Poissons Ratio (x) = 0.34261 0.11520
# Poissons Ratio (y) = 0.55303 0.26065
# Poissons Ratio (z) = 0.37565 0.52654
#
# Static dielectric constant tensor:
#      x y z
#    x 3.585050 0.000000 0.000000 
#    y 0.000000 3.457110 0.000000 
#    z 0.000000 0.000000 3.046070 
# 
# 
# High freq. dielectric constant tensor:
#      x y z
#    x 1.701270 0.000000 0.000000 
#    y 0.000000 1.695510 0.000000 
#    z 0.000000 0.000000 1.669200 
# 
# From -- ./inp_files/14364.got.cif
#   From: 2010.03.12/outbox.cif.g09.slc.cpg/sg65_8_cif.got.tgz:14364.got - 2010.04.10 20:52:16.
