data_PCOD8268131
_publ_section_title
;
Structure prediction by ZEFSAII (Michael W. Deem and Ramdas Pophale) SiO2 
 PCOD8268131
Probable space group: C M M M
;
_chemical_formula_sum "Si O2"
_cell_formula_units_Z 72
_cell_length_a 27.923545
_cell_length_b 14.592788
_cell_length_c 9.249405
_cell_angle_alpha 90.000000
_cell_angle_beta 90.000000
_cell_angle_gamma 90.000000
_cell_volume 3768.969493
_symmetry_space_group_name_H-M "C M M M"
_symmetry_group_IT_number 65
_symmetry_cell_setting 'orthorhombic'
loop_
_space_group_symop_operation_xyz
x,y,z
-x,-y,z
x,-y,-z
-x,y,-z
-x,-y,-z
x,y,-z
-x,y,z
x,-y,z
1/2+x,1/2+y,z
1/2-x,1/2-y,z
1/2+x,1/2-y,-z
1/2-x,1/2+y,-z
1/2-x,1/2-y,-z
1/2+x,1/2+y,-z
1/2-x,1/2+y,z
1/2+x,1/2-y,z
loop_
_atom_site_type_symbol
_atom_site_label
_atom_site_fract_x
_atom_site_fract_y
_atom_site_fract_z
Si Si1 0.233314 0.646746 0.166014
Si Si2 0.178784 0.900000 0.661316
Si Si3 0.000000 0.894063 0.327275
Si Si4 0.591609 0.286091 0.330067
Si Si5 0.363324 0.896868 0.667895
O O1 0.250000 0.750000 0.186239
O O2 0.274132 0.587798 0.242351
O O3 0.182890 0.627191 0.239485
O O4 0.228983 0.617409 0.000000
O O5 0.193260 0.866085 0.500000
O O6 0.140162 0.831421 0.733097
O O7 0.154320 0.000000 0.652763
O O8 0.954625 0.837186 0.263638
O O9 0.000000 0.892792 0.500000
O O10 0.000000 0.000000 0.272151
O O11 0.590576 0.304518 0.500000
O O12 0.594313 0.176703 0.295239
O O13 0.349055 0.888188 0.500000
O O14 0.381648 0.000000 0.703355
#
# Coordination Sequence:
#
# PCOD8268131 Si02
#       5
#    16  16   8  16  16
#     4  11  22  34  49  72 102 136 173 211 253 296
#     4  10  19  31  50  74  99 132 170 206 250 302
#     4   9  16  28  49  77 106 133 161 201 258 310
#     4   9  17  30  48  72 103 132 164 208 250 296
#     4  10  20  34  52  73 100 138 176 207 249 302
#
# _framework density 19.103365
#
# number of rings (size 3 to 8) (size 9 to 14) (size 15 to 20)
#    0.000    2.111    2.222    2.000    0.000    7.111 
#    0.000    0.556    0.000    3.333    0.000    3.111 
#    0.000    7.111    0.000    0.000    0.000    0.000 
#
# Total GULP energy -446143.566391 kJ/mol
# GULP energy per Si atom -12392.876844 kJ/mol
# Density = 1.905988 g / cm^3
# Si number density = 19.103365 Si / 1000 Ang^3
#
#
#
# Elastic Constant Matrix: (Units=GPa)
#
#
# Indices 1 2 3 4 5 6 
#
# 1 113.4471 66.7700 29.1325 0.0000 0.0000 0.0000
# 2 66.7700 155.0612 32.7871 0.0000 0.0000 0.0000
# 3 29.1325 32.7871 52.6614 0.0000 0.0000 0.0000
# 4 0.0000 0.0000 0.0000 9.3301 0.0000 0.0000
# 5 0.0000 0.0000 0.0000 0.0000 -1.0801 0.0000
# 6 0.0000 0.0000 0.0000 0.0000 0.0000 30.0172
#
#
#
# Elastic Compliance Matrix: (Units=1/GPa)
#
#
# Indices 1 2 3 4 5 6 
#
# 1 0.012537 -0.004528 -0.004116 0.000000 0.000000 0.000000
# 2 -0.004528 0.009062 -0.003137 0.000000 0.000000 0.000000
# 3 -0.004116 -0.003137 0.023220 0.000000 0.000000 0.000000
# 4 0.000000 0.000000 0.000000 0.107180 0.000000 0.000000
# 5 0.000000 0.000000 0.000000 0.000000 -0.925876 0.000000
# 6 0.000000 0.000000 0.000000 0.000000 0.000000 0.033314
#
#
# Mechanical properties :
#
#
# Convention : Reuss Voigt Hill
#
# Bulk Modulus (GPa) = 47.04642 64.28321 55.66481
# Shear Modulus (GPa) = -7.04310 20.48545 6.72118
#
# Velocity S-wave (km/s) = -1.92220 3.27822 1.87775
# Velocity P-wave (km/s) = 4.44458 6.93197 5.82265
#
# Compressibility (1/GPa) = 0.02125560
#
# Stress axis : x y z
#
# Youngs Moduli (GPa) = 79.76598 110.34855 43.06707
#
# Poissons Ratio (x) = 0.49966 0.17727
# Poissons Ratio (y) = 0.36118 0.13511
# Poissons Ratio (z) = 0.32833 0.34619
#
# Static dielectric constant tensor:
#      x y z
#    x 3.438220 0.000000 0.000000 
#    y 0.000000 3.870360 0.000000 
#    z 0.000000 0.000000 3.108670 
# 
# 
# High freq. dielectric constant tensor:
#      x y z
#    x 1.719610 0.000000 0.000000 
#    y 0.000000 1.767300 0.000000 
#    z 0.000000 0.000000 1.693250 
# 
# From -- ./inp_files/7212.got.cif
#   From: 2010.03.12/outbox.cif.g09.slc.cpg/sg65_4_cif.got.tgz:7212.got - 2010.04.10 20:52:16.
