data_PCOD8268164
_publ_section_title
;
Structure prediction by ZEFSAII (Michael W. Deem and Ramdas Pophale) SiO2 
 PCOD8268164
Probable space group: C M M M
;
_chemical_formula_sum "Si O2"
_cell_formula_units_Z 104
_cell_length_a 8.069534
_cell_length_b 25.687308
_cell_length_c 27.360219
_cell_angle_alpha 90.000000
_cell_angle_beta 90.000000
_cell_angle_gamma 90.000000
_cell_volume 5671.352196
_symmetry_space_group_name_H-M "C M M M"
_symmetry_group_IT_number 65
_symmetry_cell_setting 'orthorhombic'
loop_
_space_group_symop_operation_xyz
x,y,z
-x,-y,z
x,-y,-z
-x,y,-z
-x,-y,-z
x,y,-z
-x,y,z
x,-y,z
1/2+x,1/2+y,z
1/2-x,1/2-y,z
1/2+x,1/2-y,-z
1/2-x,1/2+y,-z
1/2-x,1/2-y,-z
1/2+x,1/2+y,-z
1/2-x,1/2+y,z
1/2+x,1/2-y,z
loop_
_atom_site_type_symbol
_atom_site_label
_atom_site_fract_x
_atom_site_fract_y
_atom_site_fract_z
Si Si1 0.500000 0.938161 0.054773
Si Si2 0.803754 0.806837 0.726170
Si Si3 0.694572 0.000000 0.285505
Si Si4 0.313422 0.560869 0.117280
Si Si5 0.308474 0.102086 0.444848
Si Si6 0.309371 0.905225 0.217444
Si Si7 0.810852 0.804261 0.382452
Si Si8 0.309704 0.500000 0.393341
O O1 0.330425 0.918398 0.080837
O O2 0.500000 0.000000 0.053211
O O3 0.500000 0.915142 0.000000
O O4 0.750000 0.750000 0.745129
O O5 0.713702 0.848451 0.760166
O O6 0.730913 0.814957 0.670969
O O7 0.000000 0.814803 0.729892
O O8 0.748991 0.948780 0.256018
O O9 0.500000 0.000000 0.297726
O O10 0.797603 0.000000 0.335251
O O11 0.500000 0.571141 0.096160
O O12 0.285415 0.500000 0.127145
O O13 0.298795 0.590552 0.168604
O O14 0.242137 0.094840 0.500000
O O15 0.500000 0.116413 0.444552
O O16 0.213951 0.149540 0.420211
O O17 0.280434 0.050029 0.414800
O O18 0.500000 0.915052 0.203336
O O19 0.750000 0.750000 0.405920
O O20 0.000000 0.796972 0.370897
O O21 0.500000 0.500000 0.409593
#
# Coordination Sequence:
#
# PCOD8268164 Si02
#       8
#     8  16   8  16  16  16  16   8
#     4   9  18  32  50  72 108 152 194 238 280 335
#     4  10  21  36  53  77 106 142 180 219 269 326
#     4  10  22  35  55  80 108 146 183 214 263 326
#     4  10  19  31  50  75 109 149 190 237 282 328
#     4  11  24  41  60  79 102 134 172 217 269 323
#     4  11  20  33  53  78 110 148 185 225 274 326
#     4  10  21  38  60  83 108 136 171 215 265 323
#     4  12  25  39  56  79 108 136 173 221 264 323
#
# _framework density 18.337778
#
# number of rings (size 3 to 8) (size 9 to 14) (size 15 to 20)
#    0.000    1.615    1.538    3.692    0.000    8.308 
#    0.000    1.538    0.000    0.000    0.000    0.000 
#    0.000    0.615    0.308    0.000    0.000    0.000 
#
# Total GULP energy -644898.591294 kJ/mol
# GULP energy per Si atom -12401.895986 kJ/mol
# Density = 1.829604 g / cm^3
# Si number density = 18.337778 Si / 1000 Ang^3
#
#
#
# Elastic Constant Matrix: (Units=GPa)
#
#
# Indices 1 2 3 4 5 6 
#
# 1 79.4272 14.6134 33.9743 0.0000 0.0000 0.0000
# 2 14.6134 103.0544 43.2055 0.0000 0.0000 0.0000
# 3 33.9743 43.2055 111.3191 0.0000 0.0000 0.0000
# 4 0.0000 0.0000 0.0000 25.8678 0.0000 0.0000
# 5 0.0000 0.0000 0.0000 0.0000 24.0225 0.0000
# 6 0.0000 0.0000 0.0000 0.0000 0.0000 26.1387
#
#
#
# Elastic Compliance Matrix: (Units=1/GPa)
#
#
# Indices 1 2 3 4 5 6 
#
# 1 0.014485 -0.000240 -0.004328 0.000000 0.000000 0.000000
# 2 -0.000240 0.011593 -0.004427 0.000000 0.000000 0.000000
# 3 -0.004328 -0.004427 0.012022 0.000000 0.000000 0.000000
# 4 0.000000 0.000000 0.000000 0.038658 0.000000 0.000000
# 5 0.000000 0.000000 0.000000 0.000000 0.041628 0.000000
# 6 0.000000 0.000000 0.000000 0.000000 0.000000 0.038257
#
#
# Mechanical properties :
#
#
# Convention : Reuss Voigt Hill
#
# Bulk Modulus (GPa) = 49.71949 53.04300 51.38124
# Shear Modulus (GPa) = 27.57305 28.67299 28.12302
#
# Velocity S-wave (km/s) = 3.88186 3.95853 3.92038
# Velocity P-wave (km/s) = 6.87487 7.06269 6.96941
#
# Compressibility (1/GPa) = 0.02011284
#
# Stress axis : x y z
#
# Youngs Moduli (GPa) = 69.03476 86.25590 83.18019
#
# Poissons Ratio (x) = 0.02067 0.36000
# Poissons Ratio (y) = 0.01654 0.36820
# Poissons Ratio (z) = 0.29878 0.38182
#
# Static dielectric constant tensor:
#      x y z
#    x 3.447950 0.000000 0.000000 
#    y 0.000000 3.128300 0.000000 
#    z 0.000000 0.000000 3.330080 
# 
# 
# High freq. dielectric constant tensor:
#      x y z
#    x 1.724270 0.000000 0.000000 
#    y 0.000000 1.692110 0.000000 
#    z 0.000000 0.000000 1.695950 
# 
# From -- ./inp_files/68330.got.cif
#   From: 2010.03.12/outbox.cif.g09.slc.cpg/sg65_35_cif.got.tgz:68330.got - 2010.04.10 20:52:16.
