data_PCOD8268385
_publ_section_title
;
Structure prediction by ZEFSAII (Michael W. Deem and Ramdas Pophale) SiO2 
 PCOD8268385
Probable space group: C M M M
;
_chemical_formula_sum "Si O2"
_cell_formula_units_Z 120
_cell_length_a 28.506053
_cell_length_b 8.771019
_cell_length_c 28.471171
_cell_angle_alpha 90.000000
_cell_angle_beta 90.000000
_cell_angle_gamma 90.000000
_cell_volume 7118.565243
_symmetry_space_group_name_H-M "C M M M"
_symmetry_group_IT_number 65
_symmetry_cell_setting 'orthorhombic'
loop_
_space_group_symop_operation_xyz
x,y,z
-x,-y,z
x,-y,-z
-x,y,-z
-x,-y,-z
x,y,-z
-x,y,z
x,-y,z
1/2+x,1/2+y,z
1/2-x,1/2-y,z
1/2+x,1/2-y,-z
1/2-x,1/2+y,-z
1/2-x,1/2-y,-z
1/2+x,1/2+y,-z
1/2-x,1/2+y,z
1/2+x,1/2-y,z
loop_
_atom_site_type_symbol
_atom_site_label
_atom_site_fract_x
_atom_site_fract_y
_atom_site_fract_z
Si Si1 0.799589 0.175893 0.500000
Si Si2 0.648375 0.177852 0.312270
Si Si3 0.552055 0.173970 0.268761
Si Si4 0.447081 0.676241 0.170628
Si Si5 0.698281 0.319890 0.398127
Si Si6 0.800829 0.819529 0.776308
Si Si7 0.701330 0.179078 0.052287
Si Si8 0.858270 0.678273 0.860266
O O1 0.750000 0.250000 0.500000
O O2 0.823919 0.218749 0.450154
O O3 0.788972 0.000000 0.500000
O O4 0.592533 0.208299 0.306679
O O5 0.662170 0.245146 0.362316
O O6 0.678097 0.259926 0.272193
O O7 0.660426 0.000000 0.310130
O O8 0.500000 0.201323 0.290853
O O9 0.560153 0.285140 0.225189
O O10 0.556628 0.000000 0.250517
O O11 0.500000 0.713324 0.154721
O O12 0.434730 0.500000 0.163455
O O13 0.413109 0.778931 0.138697
O O14 0.701660 0.500000 0.389131
O O15 0.750000 0.250000 0.391602
O O16 0.750000 0.750000 0.785182
O O17 0.833975 0.772627 0.819078
O O18 0.796708 0.000000 0.773975
O O19 0.750000 0.250000 0.069421
O O20 0.661680 0.228310 0.089163
O O21 0.708173 0.000000 0.051884
O O22 0.687595 0.238217 0.000000
O O23 0.850877 0.500000 0.850536
#
# Coordination Sequence:
#
# PCOD8268385 Si02
#       8
#     8  16  16  16  16  16  16  16
#     4   8  16  30  48  68  91 124 165 209 248 291
#     4  11  21  33  49  72 101 131 165 201 246 298
#     4   9  18  33  52  71  95 128 165 205 247 294
#     4  10  20  33  51  75 101 129 165 207 248 293
#     4  10  19  32  49  70  98 131 168 206 249 293
#     4  12  24  36  49  68 100 136 169 202 240 290
#     4   9  19  35  54  76 101 129 164 205 247 293
#     4  11  21  34  53  76 101 131 166 203 248 298
#
# _framework density 16.857330000000001
#
# number of rings (size 3 to 8) (size 9 to 14) (size 15 to 20)
#    0.000    1.867    1.333    3.600    0.000    4.000 
#    0.000    0.000    0.000    0.400    0.000    3.267 
#    0.000    3.733    0.000    0.000    0.000    0.000 
#
# Total GULP energy -743818.576099 kJ/mol
# GULP energy per Si atom -12396.976268 kJ/mol
# Density = 1.681896 g / cm^3
# Si number density = 16.857330 Si / 1000 Ang^3
#
#
#
# Elastic Constant Matrix: (Units=GPa)
#
#
# Indices 1 2 3 4 5 6 
#
# 1 108.2892 38.1068 57.0093 0.0000 0.0000 0.0000
# 2 38.1068 77.8683 41.8305 0.0000 0.0000 0.0000
# 3 57.0093 41.8305 111.4002 0.0000 0.0000 0.0000
# 4 0.0000 0.0000 0.0000 21.5245 0.0000 0.0000
# 5 0.0000 0.0000 0.0000 0.0000 14.0172 0.0000
# 6 0.0000 0.0000 0.0000 0.0000 0.0000 24.3368
#
#
#
# Elastic Compliance Matrix: (Units=1/GPa)
#
#
# Indices 1 2 3 4 5 6 
#
# 1 0.013400 -0.003600 -0.005506 0.000000 0.000000 0.000000
# 2 -0.003600 0.017054 -0.004562 0.000000 0.000000 0.000000
# 3 -0.005506 -0.004562 0.013507 0.000000 0.000000 0.000000
# 4 0.000000 0.000000 0.000000 0.046459 0.000000 0.000000
# 5 0.000000 0.000000 0.000000 0.000000 0.071341 0.000000
# 6 0.000000 0.000000 0.000000 0.000000 0.000000 0.041090
#
#
# Mechanical properties :
#
#
# Convention : Reuss Voigt Hill
#
# Bulk Modulus (GPa) = 60.14348 63.49454 61.81901
# Shear Modulus (GPa) = 21.21096 22.68313 21.94704
#
# Velocity S-wave (km/s) = 3.55105 3.67221 3.61214
# Velocity P-wave (km/s) = 7.25042 7.46511 7.35855
#
# Compressibility (1/GPa) = 0.01662691
#
# Stress axis : x y z
#
# Youngs Moduli (GPa) = 74.62799 58.63599 74.03558
#
# Poissons Ratio (x) = 0.21109 0.40761
# Poissons Ratio (y) = 0.26866 0.33772
# Poissons Ratio (z) = 0.41087 0.26747
#
# Static dielectric constant tensor:
#      x y z
#    x 3.196800 0.000000 0.000000 
#    y 0.000000 3.270020 0.000000 
#    z 0.000000 0.000000 3.251890 
# 
# 
# High freq. dielectric constant tensor:
#      x y z
#    x 1.640480 0.000000 0.000000 
#    y 0.000000 1.663570 0.000000 
#    z 0.000000 0.000000 1.636330 
# 
# From -- ./inp_files/76184.got.cif
#   From: 2010.03.12/outbox.cif.g09.slc.cpg/sg65_39_cif.got.tgz:76184.got - 2010.04.10 20:52:16.
