data_PCOD8268642
_publ_section_title
;
Structure prediction by ZEFSAII (Michael W. Deem and Ramdas Pophale) SiO2 
 PCOD8268642
Probable space group: C M M M
;
_chemical_formula_sum "Si O2"
_cell_formula_units_Z 120
_cell_length_a 17.408614
_cell_length_b 17.502237
_cell_length_c 21.992065
_cell_angle_alpha 90.000000
_cell_angle_beta 90.000000
_cell_angle_gamma 90.000000
_cell_volume 6700.755425
_symmetry_space_group_name_H-M "C M M M"
_symmetry_group_IT_number 65
_symmetry_cell_setting 'orthorhombic'
loop_
_space_group_symop_operation_xyz
x,y,z
-x,-y,z
x,-y,-z
-x,y,-z
-x,-y,-z
x,y,-z
-x,y,z
x,-y,z
1/2+x,1/2+y,z
1/2-x,1/2-y,z
1/2+x,1/2-y,-z
1/2-x,1/2+y,-z
1/2-x,1/2-y,-z
1/2+x,1/2+y,-z
1/2-x,1/2+y,z
1/2+x,1/2-y,z
loop_
_atom_site_type_symbol
_atom_site_label
_atom_site_fract_x
_atom_site_fract_y
_atom_site_fract_z
Si Si1 0.690131 0.137807 0.572259
Si Si2 0.087308 0.706598 0.930666
Si Si3 0.409863 0.586842 0.244369
Si Si4 0.786779 0.586939 0.930560
Si Si5 0.650912 0.586786 0.380369
Si Si6 0.083646 0.500000 0.571339
Si Si7 0.582884 0.730569 0.570319
Si Si8 0.185558 0.811123 0.846732
O O1 0.710967 0.136920 0.500000
O O2 0.763807 0.120057 0.612758
O O3 0.628176 0.075166 0.591273
O O4 0.653826 0.218375 0.594883
O O5 0.131034 0.626792 0.922042
O O6 0.122194 0.770664 0.887727
O O7 0.000000 0.691890 0.911614
O O8 0.094443 0.735733 0.000000
O O9 0.500000 0.609780 0.243030
O O10 0.400039 0.500000 0.219365
O O11 0.377065 0.591016 0.311795
O O12 0.359094 0.647632 0.207646
O O13 0.797654 0.500000 0.910626
O O14 0.723858 0.624358 0.887708
O O15 0.758051 0.594561 0.000000
O O16 0.646605 0.500000 0.405309
O O17 0.596145 0.640652 0.420124
O O18 0.073282 0.500000 0.500000
O O19 0.000000 0.500000 0.603025
O O20 0.577455 0.749661 0.500000
O O21 0.500000 0.752610 0.599896
O O22 0.250000 0.750000 0.823361
#
# Coordination Sequence:
#
# PCOD8268642 Si02
#       8
#    16  16  16  16  16   8  16  16
#     4  10  19  33  53  78 106 133 164 202 246 300
#     4   9  17  29  47  73 105 138 168 202 246 295
#     4  10  22  39  56  72  95 129 170 216 258 299
#     4   9  17  29  47  73 105 137 168 203 244 293
#     4  11  22  36  53  74 100 130 170 212 257 302
#     4   9  16  28  50  78 107 135 161 193 237 292
#     4  10  21  35  52  76 106 137 166 201 247 300
#     4  10  19  32  52  76 101 128 167 211 256 302
#
# _framework density 17.908429999999999
#
# number of rings (size 3 to 8) (size 9 to 14) (size 15 to 20)
#    0.000    2.200    0.667    2.800    0.000    7.200 
#    0.000    2.000    0.000    0.000    0.000    6.533 
#    0.000    0.000    0.000    0.000    0.000    0.000 
#
# Total GULP energy -743711.497912 kJ/mol
# GULP energy per Si atom -12395.191632 kJ/mol
# Density = 1.786767 g / cm^3
# Si number density = 17.908430 Si / 1000 Ang^3
#
#
#
# Elastic Constant Matrix: (Units=GPa)
#
#
# Indices 1 2 3 4 5 6 
#
# 1 127.3183 52.1216 36.7890 0.0000 0.0000 0.0000
# 2 52.1216 119.5730 30.1985 0.0000 0.0000 0.0000
# 3 36.7890 30.1985 33.3087 0.0000 0.0000 0.0000
# 4 0.0000 0.0000 0.0000 19.8700 0.0000 0.0000
# 5 0.0000 0.0000 0.0000 0.0000 -74.2744 0.0000
# 6 0.0000 0.0000 0.0000 0.0000 0.0000 30.2605
#
#
#
# Elastic Compliance Matrix: (Units=1/GPa)
#
#
# Indices 1 2 3 4 5 6 
#
# 1 0.012068 -0.002457 -0.011102 0.000000 0.000000 0.000000
# 2 -0.002457 0.011347 -0.007574 0.000000 0.000000 0.000000
# 3 -0.011102 -0.007574 0.049150 0.000000 0.000000 0.000000
# 4 0.000000 0.000000 0.000000 0.050327 0.000000 0.000000
# 5 0.000000 0.000000 0.000000 0.000000 -0.013464 0.000000
# 6 0.000000 0.000000 0.000000 0.000000 0.000000 0.033046
#
#
# Mechanical properties :
#
#
# Convention : Reuss Voigt Hill
#
# Bulk Modulus (GPa) = 33.00238 57.60202 45.30220
# Shear Modulus (GPa) = 25.66213 5.91059 15.78636
#
# Velocity S-wave (km/s) = 3.78956 1.81869 2.97224
# Velocity P-wave (km/s) = 6.13319 6.05349 6.09347
#
# Compressibility (1/GPa) = 0.03030084
#
# Stress axis : x y z
#
# Youngs Moduli (GPa) = 82.86474 88.13102 20.34568
#
# Poissons Ratio (x) = 0.21650 0.22587
# Poissons Ratio (y) = 0.20357 0.15410
# Poissons Ratio (z) = 0.91993 0.66750
#
# Static dielectric constant tensor:
#      x y z
#    x 3.605830 0.000000 0.000000 
#    y 0.000000 3.503450 0.000000 
#    z 0.000000 0.000000 2.993440 
# 
# 
# High freq. dielectric constant tensor:
#      x y z
#    x 1.709970 0.000000 0.000000 
#    y 0.000000 1.705990 0.000000 
#    z 0.000000 0.000000 1.654340 
# 
# From -- ./inp_files/64008.got.cif
#   From: 2010.03.12/outbox.cif.g09.slc.cpg/sg65_33_cif.got.tgz:64008.got - 2010.04.10 20:52:16.
