data_PCOD8268763
_publ_section_title
;
Structure prediction by ZEFSAII (Michael W. Deem and Ramdas Pophale) SiO2 
 PCOD8268763
Probable space group: C M M M
;
_chemical_formula_sum "Si O2"
_cell_formula_units_Z 80
_cell_length_a 18.371475
_cell_length_b 8.687960
_cell_length_c 26.236207
_cell_angle_alpha 90.000000
_cell_angle_beta 90.000000
_cell_angle_gamma 90.000000
_cell_volume 4187.577789
_symmetry_space_group_name_H-M "C M M M"
_symmetry_group_IT_number 65
_symmetry_cell_setting 'orthorhombic'
loop_
_space_group_symop_operation_xyz
x,y,z
-x,-y,z
x,-y,-z
-x,y,-z
-x,-y,-z
x,y,-z
-x,y,z
x,-y,z
1/2+x,1/2+y,z
1/2-x,1/2-y,z
1/2+x,1/2-y,-z
1/2-x,1/2+y,-z
1/2-x,1/2-y,-z
1/2+x,1/2+y,-z
1/2-x,1/2+y,z
1/2+x,1/2-y,z
loop_
_atom_site_type_symbol
_atom_site_label
_atom_site_fract_x
_atom_site_fract_y
_atom_site_fract_z
Si Si1 0.671127 0.819728 0.053732
Si Si2 0.830728 0.682816 0.835471
Si Si3 0.171152 0.318506 0.651185
Si Si4 0.918429 0.682971 0.443601
Si Si5 0.414467 0.677851 0.743062
O O1 0.750000 0.750000 0.052058
O O2 0.635870 0.773115 0.108181
O O3 0.681308 0.000000 0.054318
O O4 0.629812 0.771277 0.000000
O O5 0.828051 0.500000 0.826421
O O6 0.750000 0.750000 0.828054
O O7 0.885165 0.761487 0.796543
O O8 0.178116 0.500000 0.648137
O O9 0.250000 0.250000 0.660026
O O10 0.136368 0.250614 0.598940
O O11 0.119987 0.275342 0.697824
O O12 0.892701 0.737256 0.500000
O O13 0.919661 0.500000 0.441025
O O14 0.000000 0.745278 0.432795
O O15 0.500000 0.704725 0.741846
O O16 0.393411 0.500000 0.736234
#
# Coordination Sequence:
#
# PCOD8268763 Si02
#       5
#    16  16  16  16  16
#     4   8  14  25  43  70 102 133 165 203 248 297
#     4  10  19  32  53  79 107 137 171 212 256 306
#     4  11  22  36  56  81 109 140 175 215 259 308
#     4   8  15  30  53  80 108 139 176 215 254 299
#     4  11  24  40  56  74 100 134 173 219 267 314
#
# _framework density 19.104122
#
# number of rings (size 3 to 8) (size 9 to 14) (size 15 to 20)
#    0.000    2.400    0.000    3.600    0.000    3.600 
#    0.000    0.000    0.000    2.400    0.000   11.200 
#    0.000    0.000    0.000    0.000    0.000    0.000 
#
# Total GULP energy -495561.781054 kJ/mol
# GULP energy per Si atom -12389.044526 kJ/mol
# Density = 1.906064 g / cm^3
# Si number density = 19.104122 Si / 1000 Ang^3
#
#
#
# Elastic Constant Matrix: (Units=GPa)
#
#
# Indices 1 2 3 4 5 6 
#
# 1 74.9834 29.1135 55.7731 0.0000 0.0000 0.0000
# 2 29.1135 40.6742 27.3253 0.0000 0.0000 0.0000
# 3 55.7731 27.3253 171.0622 0.0000 0.0000 0.0000
# 4 0.0000 0.0000 0.0000 215.6002 0.0000 0.0000
# 5 0.0000 0.0000 0.0000 0.0000 15.6089 0.0000
# 6 0.0000 0.0000 0.0000 0.0000 0.0000 16.1296
#
#
#
# Elastic Compliance Matrix: (Units=1/GPa)
#
#
# Indices 1 2 3 4 5 6 
#
# 1 0.021951 -0.012215 -0.005206 0.000000 0.000000 0.000000
# 2 -0.012215 0.034338 -0.001503 0.000000 0.000000 0.000000
# 3 -0.005206 -0.001503 0.007783 0.000000 0.000000 0.000000
# 4 0.000000 0.000000 0.000000 0.004638 0.000000 0.000000
# 5 0.000000 0.000000 0.000000 0.000000 0.064066 0.000000
# 6 0.000000 0.000000 0.000000 0.000000 0.000000 0.061998
#
#
# Mechanical properties :
#
#
# Convention : Reuss Voigt Hill
#
# Bulk Modulus (GPa) = 38.13007 56.79375 47.46191
# Shear Modulus (GPa) = 20.71577 61.10159 40.90868
#
# Velocity S-wave (km/s) = 3.29654 5.66153 4.63250
# Velocity P-wave (km/s) = 5.87298 8.51647 7.31513
#
# Compressibility (1/GPa) = 0.02622602
#
# Stress axis : x y z
#
# Youngs Moduli (GPa) = 45.55642 29.12225 128.48309
#
# Poissons Ratio (x) = 0.35572 0.66884
# Poissons Ratio (y) = 0.55645 0.19307
# Poissons Ratio (z) = 0.23715 0.04376
#
# Static dielectric constant tensor:
#      x y z
#    x 3.329140 0.000000 0.000000 
#    y 0.000000 3.413890 0.000000 
#    z 0.000000 0.000000 4.350420 
# 
# 
# High freq. dielectric constant tensor:
#      x y z
#    x 1.709850 0.000000 0.000000 
#    y 0.000000 1.730820 0.000000 
#    z 0.000000 0.000000 1.776840 
# 
# From -- ./inp_files/72789.got.cif
#   From: 2010.03.12/outbox.cif.g09.slc.cpg/sg65_37_cif.got.tgz:72789.got - 2010.04.10 20:52:16.
