data_PCOD8268399
_publ_section_title
;
Structure prediction by ZEFSAII (Michael W. Deem and Ramdas Pophale) SiO2 
 PCOD8268399
Probable space group: C M M M
;
_chemical_formula_sum "Si O2"
_cell_formula_units_Z 104
_cell_length_a 9.275573
_cell_length_b 29.355845
_cell_length_c 22.212090
_cell_angle_alpha 90.000000
_cell_angle_beta 90.000000
_cell_angle_gamma 90.000000
_cell_volume 6048.180702
_symmetry_space_group_name_H-M "C M M M"
_symmetry_group_IT_number 65
_symmetry_cell_setting 'orthorhombic'
loop_
_space_group_symop_operation_xyz
x,y,z
-x,-y,z
x,-y,-z
-x,y,-z
-x,-y,-z
x,y,-z
-x,y,z
x,-y,z
1/2+x,1/2+y,z
1/2-x,1/2-y,z
1/2+x,1/2-y,-z
1/2-x,1/2+y,-z
1/2-x,1/2-y,-z
1/2+x,1/2+y,-z
1/2-x,1/2+y,z
1/2+x,1/2-y,z
loop_
_atom_site_type_symbol
_atom_site_label
_atom_site_fract_x
_atom_site_fract_y
_atom_site_fract_z
Si Si1 0.831528 0.204419 0.851700
Si Si2 0.159092 0.950061 0.071328
Si Si3 0.330070 0.701758 0.500000
Si Si4 0.336413 0.866192 0.071273
Si Si5 0.668894 0.361973 0.389625
Si Si6 0.833032 0.795491 0.285547
Si Si7 0.831215 0.448577 0.569594
O O1 0.750000 0.250000 0.868994
O O2 0.772835 0.167366 0.897003
O O3 0.797838 0.190387 0.782929
O O4 0.000000 0.211521 0.862852
O O5 0.284643 0.916136 0.092213
O O6 0.000000 0.934431 0.094452
O O7 0.195865 0.000000 0.097628
O O8 0.155102 0.952240 0.000000
O O9 0.500000 0.711684 0.500000
O O10 0.250000 0.750000 0.500000
O O11 0.282175 0.672290 0.442344
O O12 0.500000 0.858860 0.093208
O O13 0.323176 0.859377 0.000000
O O14 0.500000 0.371990 0.394110
O O15 0.712697 0.337997 0.326938
O O16 0.747542 0.410710 0.391944
O O17 0.750000 0.750000 0.305150
O O18 0.000000 0.783911 0.294624
O O19 0.789069 0.442261 0.500000
O O20 0.788426 0.500000 0.590379
O O21 0.000000 0.440928 0.579168
#
# Coordination Sequence:
#
# PCOD8268399 Si02
#       7
#    16  16   8  16  16  16  16
#     4  10  20  35  53  71  94 127 165 205 246 290
#     4   8  14  26  45  69  97 128 159 190 229 281
#     4  10  20  30  43  68 101 131 156 189 233 282
#     4  10  20  32  48  73 102 129 159 199 247 296
#     4  10  19  32  49  73 101 128 161 199 242 288
#     4   9  19  34  52  73  97 126 164 204 240 288
#     4   9  18  32  49  71  99 130 166 205 244 290
#
# _framework density 17.195253000000001
#
# number of rings (size 3 to 8) (size 9 to 14) (size 15 to 20)
#    0.000    2.615    0.769    2.308    0.000    3.692 
#    0.000    2.308    0.000    0.923    0.000    2.154 
#    0.000    0.000    0.000    0.000    0.000    0.000 
#
# Total GULP energy -644657.863154 kJ/mol
# GULP energy per Si atom -12397.266599 kJ/mol
# Density = 1.715612 g / cm^3
# Si number density = 17.195253 Si / 1000 Ang^3
#
#
#
# Elastic Constant Matrix: (Units=GPa)
#
#
# Indices 1 2 3 4 5 6 
#
# 1 79.4860 64.0183 33.2316 0.0000 0.0000 0.0000
# 2 64.0183 136.2519 46.2161 0.0000 0.0000 0.0000
# 3 33.2316 46.2161 45.5524 0.0000 0.0000 0.0000
# 4 0.0000 0.0000 0.0000 11.2535 0.0000 0.0000
# 5 0.0000 0.0000 0.0000 0.0000 19.2766 0.0000
# 6 0.0000 0.0000 0.0000 0.0000 0.0000 37.5190
#
#
#
# Elastic Compliance Matrix: (Units=1/GPa)
#
#
# Indices 1 2 3 4 5 6 
#
# 1 0.022238 -0.007541 -0.008573 0.000000 0.000000 0.000000
# 2 -0.007541 0.013748 -0.008446 0.000000 0.000000 0.000000
# 3 -0.008573 -0.008446 0.036776 0.000000 0.000000 0.000000
# 4 0.000000 0.000000 0.000000 0.088861 0.000000 0.000000
# 5 0.000000 0.000000 0.000000 0.000000 0.051876 0.000000
# 6 0.000000 0.000000 0.000000 0.000000 0.000000 0.026653
#
#
# Mechanical properties :
#
#
# Convention : Reuss Voigt Hill
#
# Bulk Modulus (GPa) = 42.29763 60.91360 51.60561
# Shear Modulus (GPa) = 16.82633 21.46478 19.14555
#
# Velocity S-wave (km/s) = 3.13156 3.53696 3.34042
# Velocity P-wave (km/s) = 6.14227 7.22369 6.70481
#
# Compressibility (1/GPa) = 0.02364199
#
# Stress axis : x y z
#
# Youngs Moduli (GPa) = 44.96729 72.74040 27.19152
#
# Poissons Ratio (x) = 0.54853 0.23310
# Poissons Ratio (y) = 0.33910 0.22967
# Poissons Ratio (z) = 0.38548 0.61440
#
# Static dielectric constant tensor:
#      x y z
#    x 3.264730 0.000000 0.000000 
#    y 0.000000 3.544040 0.000000 
#    z 0.000000 0.000000 3.037670 
# 
# 
# High freq. dielectric constant tensor:
#      x y z
#    x 1.667220 0.000000 0.000000 
#    y 0.000000 1.669460 0.000000 
#    z 0.000000 0.000000 1.634260 
# 
# From -- ./inp_files/68231.got.cif
#   From: 2010.03.12/outbox.cif.g09.slc.cpg/sg65_35_cif.got.tgz:68231.got - 2010.04.10 20:52:16.
