data_PCOD8268256
_publ_section_title
;
Structure prediction by ZEFSAII (Michael W. Deem and Ramdas Pophale) SiO2 
 PCOD8268256
Probable space group: C M M M
;
_chemical_formula_sum "Si O2"
_cell_formula_units_Z 104
_cell_length_a 20.649989
_cell_length_b 29.903996
_cell_length_c 9.315996
_cell_angle_alpha 90.000000
_cell_angle_beta 90.000000
_cell_angle_gamma 90.000000
_cell_volume 5752.787658
_symmetry_space_group_name_H-M "C M M M"
_symmetry_group_IT_number 65
_symmetry_cell_setting 'orthorhombic'
loop_
_space_group_symop_operation_xyz
x,y,z
-x,-y,z
x,-y,-z
-x,y,-z
-x,-y,-z
x,y,-z
-x,y,z
x,-y,z
1/2+x,1/2+y,z
1/2-x,1/2-y,z
1/2+x,1/2-y,-z
1/2-x,1/2+y,-z
1/2-x,1/2-y,-z
1/2+x,1/2+y,-z
1/2-x,1/2+y,z
1/2+x,1/2-y,z
loop_
_atom_site_type_symbol
_atom_site_label
_atom_site_fract_x
_atom_site_fract_y
_atom_site_fract_z
Si Si1 0.788318 0.364737 0.831623
Si Si2 0.427903 0.548445 0.170622
Si Si3 0.000000 0.552827 0.660895
Si Si4 0.126219 0.551367 0.167430
Si Si5 0.573954 0.288608 0.335781
Si Si6 0.812270 0.721561 0.666561
Si Si7 0.141422 0.134334 0.829947
O O1 0.816347 0.413980 0.793405
O O2 0.824048 0.324783 0.749627
O O3 0.714712 0.361043 0.777961
O O4 0.794746 0.355944 0.000000
O O5 0.500000 0.556851 0.230419
O O6 0.402273 0.500000 0.223004
O O7 0.380795 0.586327 0.230261
O O8 0.429406 0.549776 0.000000
O O9 0.063864 0.568456 0.745105
O O10 0.000000 0.500000 0.653107
O O11 0.000000 0.573369 0.500000
O O12 0.146210 0.500000 0.207902
O O13 0.108625 0.553811 0.000000
O O14 0.581227 0.304195 0.500000
O O15 0.500000 0.274414 0.301211
O O16 0.621232 0.247461 0.303951
O O17 0.594230 0.329122 0.235374
O O18 0.801282 0.710732 0.500000
O O19 0.750000 0.750000 0.724130
O O20 0.135602 0.137812 0.000000
#
# Coordination Sequence:
#
# PCOD8268256 Si02
#       7
#    16  16   8  16  16  16  16
#     4  10  21  34  52  80 108 136 172 213 256 306
#     4   8  14  25  42  67 100 134 166 203 246 289
#     4   9  17  31  53  79 103 133 179 227 265 305
#     4   9  18  34  54  76 108 146 177 210 262 324
#     4  10  21  37  56  77 101 131 171 216 260 313
#     4  10  20  37  58  76 100 139 177 211 259 317
#     4  10  19  31  51  78 105 134 171 213 255 301
#
# _framework density 18.078192999999999
#
# number of rings (size 3 to 8) (size 9 to 14) (size 15 to 20)
#    0.000    2.538    1.538    1.154    0.000    4.000 
#    1.385    3.077    0.000    0.462    0.000    4.308 
#    0.000    0.000    0.000    0.000    0.000    0.000 
#
# Total GULP energy -644611.853866 kJ/mol
# GULP energy per Si atom -12396.381805 kJ/mol
# Density = 1.803705 g / cm^3
# Si number density = 18.078193 Si / 1000 Ang^3
#
#
#
# Elastic Constant Matrix: (Units=GPa)
#
#
# Indices 1 2 3 4 5 6 
#
# 1 122.1009 61.6196 34.1959 0.0000 0.0000 0.0000
# 2 61.6196 127.8149 39.1249 0.0000 0.0000 0.0000
# 3 34.1959 39.1249 37.9313 0.0000 0.0000 0.0000
# 4 0.0000 0.0000 0.0000 12.7932 0.0000 0.0000
# 5 0.0000 0.0000 0.0000 0.0000 22.0612 0.0000
# 6 0.0000 0.0000 0.0000 0.0000 0.0000 32.3531
#
#
#
# Elastic Compliance Matrix: (Units=1/GPa)
#
#
# Indices 1 2 3 4 5 6 
#
# 1 0.012000 -0.003615 -0.007089 0.000000 0.000000 0.000000
# 2 -0.003615 0.012523 -0.009658 0.000000 0.000000 0.000000
# 3 -0.007089 -0.009658 0.042717 0.000000 0.000000 0.000000
# 4 0.000000 0.000000 0.000000 0.078167 0.000000 0.000000
# 5 0.000000 0.000000 0.000000 0.000000 0.045329 0.000000
# 6 0.000000 0.000000 0.000000 0.000000 0.000000 0.030909
#
#
# Mechanical properties :
#
#
# Convention : Reuss Voigt Hill
#
# Bulk Modulus (GPa) = 37.71499 61.96979 49.84239
# Shear Modulus (GPa) = 18.43614 23.63527 21.03570
#
# Velocity S-wave (km/s) = 3.19689 3.61971 3.41485
# Velocity P-wave (km/s) = 5.87659 7.19881 6.57104
#
# Compressibility (1/GPa) = 0.02651466
#
# Stress axis : x y z
#
# Youngs Moduli (GPa) = 83.33509 79.85304 23.41008
#
# Poissons Ratio (x) = 0.28867 0.16596
# Poissons Ratio (y) = 0.30126 0.22610
# Poissons Ratio (z) = 0.59079 0.77123
#
# Static dielectric constant tensor:
#      x y z
#    x 3.469440 0.000000 0.000000 
#    y 0.000000 3.452530 0.000000 
#    z 0.000000 0.000000 3.160650 
# 
# 
# High freq. dielectric constant tensor:
#      x y z
#    x 1.701720 0.000000 0.000000 
#    y 0.000000 1.700310 0.000000 
#    z 0.000000 0.000000 1.676550 
# 
# From -- ./inp_files/12852.got.cif
#   From: 2010.03.12/outbox.cif.g09.slc.cpg/sg65_7_cif.got.tgz:12852.got - 2010.04.10 20:52:16.
