data_PCOD8268068
_publ_section_title
;
Structure prediction by ZEFSAII (Michael W. Deem and Ramdas Pophale) SiO2 
 PCOD8268068
Probable space group: C M M M
;
_chemical_formula_sum "Si O2"
_cell_formula_units_Z 88
_cell_length_a 28.398128
_cell_length_b 16.041377
_cell_length_c 10.678097
_cell_angle_alpha 90.000000
_cell_angle_beta 90.000000
_cell_angle_gamma 90.000000
_cell_volume 4864.354524
_symmetry_space_group_name_H-M "C M M M"
_symmetry_group_IT_number 65
_symmetry_cell_setting 'orthorhombic'
loop_
_space_group_symop_operation_xyz
x,y,z
-x,-y,z
x,-y,-z
-x,y,-z
-x,-y,-z
x,y,-z
-x,y,z
x,-y,z
1/2+x,1/2+y,z
1/2-x,1/2-y,z
1/2+x,1/2-y,-z
1/2-x,1/2+y,-z
1/2-x,1/2-y,-z
1/2+x,1/2+y,-z
1/2-x,1/2+y,z
1/2+x,1/2-y,z
loop_
_atom_site_type_symbol
_atom_site_label
_atom_site_fract_x
_atom_site_fract_y
_atom_site_fract_z
Si Si1 0.136474 0.908155 0.356957
Si Si2 0.624373 0.000000 0.854640
Si Si3 0.555910 0.592837 0.000000
Si Si4 0.267940 0.338007 0.353149
Si Si5 0.705127 0.000000 0.646804
Si Si6 0.552118 0.145137 0.858243
Si Si7 0.553821 0.680267 0.248762
O O1 0.150264 0.921711 0.500000
O O2 0.180635 0.859360 0.294220
O O3 0.088519 0.854257 0.354478
O O4 0.129558 0.000000 0.295034
O O5 0.592208 0.079571 0.829078
O O6 0.663685 0.000000 0.748511
O O7 0.643074 0.000000 0.000000
O O8 0.574143 0.639782 0.877803
O O9 0.576488 0.500000 0.000000
O O10 0.500000 0.593822 0.000000
O O11 0.272362 0.323701 0.500000
O O12 0.250000 0.250000 0.292828
O O13 0.234134 0.416176 0.324178
O O14 0.688160 0.000000 0.500000
O O15 0.500000 0.105109 0.840646
O O16 0.557991 0.220473 0.760918
O O17 0.556457 0.179790 0.000000
O O18 0.500000 0.653326 0.278297
#
# Coordination Sequence:
#
# PCOD8268068 Si02
#       7
#    16   8   8  16   8  16  16
#     4  10  20  34  51  72 103 139 175 216 263 322
#     4  10  21  34  56  84 112 143 177 225 282 323
#     4   9  16  28  46  67  92 123 161 206 252 294
#     4   9  18  34  56  78  99 130 174 223 266 312
#     4  10  20  37  61  85 107 136 183 229 269 328
#     4   9  17  33  54  77 105 141 184 220 255 318
#     4  10  19  31  49  74 103 132 170 219 261 307
#
# _framework density 18.090786000000001
#
# number of rings (size 3 to 8) (size 9 to 14) (size 15 to 20)
#    0.000    2.455    1.818    0.818    2.545    2.545 
#    0.000    0.909    2.000    2.727    0.000    0.000 
#    0.000    0.000    0.000    0.000    0.000    0.000 
#
# Total GULP energy -545238.553704 kJ/mol
# GULP energy per Si atom -12391.785311 kJ/mol
# Density = 1.804961 g / cm^3
# Si number density = 18.090786 Si / 1000 Ang^3
#
#
#
# Elastic Constant Matrix: (Units=GPa)
#
#
# Indices 1 2 3 4 5 6 
#
# 1 134.4592 66.7327 36.2666 0.0000 0.0000 0.0000
# 2 66.7327 126.1554 22.1096 0.0000 0.0000 0.0000
# 3 36.2666 22.1096 37.5606 0.0000 0.0000 0.0000
# 4 0.0000 0.0000 0.0000 19.1590 0.0000 0.0000
# 5 0.0000 0.0000 0.0000 0.0000 25.0552 0.0000
# 6 0.0000 0.0000 0.0000 0.0000 0.0000 38.1195
#
#
#
# Elastic Compliance Matrix: (Units=1/GPa)
#
#
# Indices 1 2 3 4 5 6 
#
# 1 0.012310 -0.004938 -0.008979 0.000000 0.000000 0.000000
# 2 -0.004938 0.010819 -0.001601 0.000000 0.000000 0.000000
# 3 -0.008979 -0.001601 0.036236 0.000000 0.000000 0.000000
# 4 0.000000 0.000000 0.000000 0.052195 0.000000 0.000000
# 5 0.000000 0.000000 0.000000 0.000000 0.039912 0.000000
# 6 0.000000 0.000000 0.000000 0.000000 0.000000 0.026233
#
#
# Mechanical properties :
#
#
# Convention : Reuss Voigt Hill
#
# Bulk Modulus (GPa) = 35.29934 60.93253 48.11594
# Shear Modulus (GPa) = 22.91650 28.00450 25.46050
#
# Velocity S-wave (km/s) = 3.56300 3.93873 3.75557
# Velocity P-wave (km/s) = 6.03998 7.37831 6.74243
#
# Compressibility (1/GPa) = 0.02832914
#
# Stress axis : x y z
#
# Youngs Moduli (GPa) = 81.23655 92.42747 27.59710
#
# Poissons Ratio (x) = 0.45639 0.24780
# Poissons Ratio (y) = 0.40114 0.04418
# Poissons Ratio (z) = 0.72943 0.14797
#
# Static dielectric constant tensor:
#      x y z
#    x 3.261610 0.000000 0.000000 
#    y 0.000000 3.584490 0.000000 
#    z 0.000000 0.000000 2.996750 
# 
# 
# High freq. dielectric constant tensor:
#      x y z
#    x 1.695470 0.000000 0.000000 
#    y 0.000000 1.716520 0.000000 
#    z 0.000000 0.000000 1.654260 
# 
# From -- ./inp_files/32263.got.cif
#   From: 2010.03.12/outbox.cif.g09.slc.cpg/sg65_17_cif.got.tgz:32263.got - 2010.04.10 20:52:16.
