data_PCOD8268704
_publ_section_title
;
Structure prediction by ZEFSAII (Michael W. Deem and Ramdas Pophale) SiO2 
 PCOD8268704
Probable space group: C M M M
;
_chemical_formula_sum "Si O2"
_cell_formula_units_Z 88
_cell_length_a 22.272128
_cell_length_b 14.314304
_cell_length_c 13.822187
_cell_angle_alpha 90.000000
_cell_angle_beta 90.000000
_cell_angle_gamma 90.000000
_cell_volume 4406.651588
_symmetry_space_group_name_H-M "C M M M"
_symmetry_group_IT_number 65
_symmetry_cell_setting 'orthorhombic'
loop_
_space_group_symop_operation_xyz
x,y,z
-x,-y,z
x,-y,-z
-x,y,-z
-x,-y,-z
x,y,-z
-x,y,z
x,-y,z
1/2+x,1/2+y,z
1/2-x,1/2-y,z
1/2+x,1/2-y,-z
1/2-x,1/2+y,-z
1/2-x,1/2-y,-z
1/2+x,1/2+y,-z
1/2-x,1/2+y,z
1/2+x,1/2-y,z
loop_
_atom_site_type_symbol
_atom_site_label
_atom_site_fract_x
_atom_site_fract_y
_atom_site_fract_z
Si Si1 0.429088 0.894168 0.500000
Si Si2 0.217413 0.888752 0.107924
Si Si3 0.749480 0.859868 0.390535
Si Si4 0.134751 0.895678 0.280819
Si Si5 0.430215 0.787033 0.692775
Si Si6 0.831274 0.603835 0.782634
O O1 0.500000 0.900386 0.500000
O O2 0.408221 0.835920 0.593679
O O3 0.402725 0.000000 0.500000
O O4 0.164321 0.858554 0.180371
O O5 0.282438 0.849975 0.143769
O O6 0.222341 0.000000 0.111426
O O7 0.203726 0.851628 0.000000
O O8 0.733698 0.888352 0.500000
O O9 0.750000 0.750000 0.374971
O O10 0.814781 0.899503 0.363567
O O11 0.699218 0.904636 0.322735
O O12 0.082350 0.824017 0.311377
O O13 0.107172 0.000000 0.269200
O O14 0.500000 0.804497 0.713927
O O15 0.391057 0.832944 0.778922
O O16 0.850406 0.500000 0.816126
#
# Coordination Sequence:
#
# PCOD8268704 Si02
#       6
#     8  16  16  16  16  16
#     4   9  20  38  57  76 101 145 199 237 270 313
#     4   8  16  34  59  86 113 141 181 232 285 348
#     4  10  19  32  52  77 109 142 171 219 281 338
#     4  10  21  36  56  82 111 147 189 230 283 341
#     4  11  23  38  54  76 111 150 193 239 272 319
#     4  10  20  33  54  82 107 137 179 225 283 341
#
# _framework density 19.969812000000001
#
# number of rings (size 3 to 8) (size 9 to 14) (size 15 to 20)
#    0.000    2.273    1.818    2.182    2.545    2.909 
#    0.000    1.818    0.000    3.818    0.000    5.091 
#    0.000    0.000    0.000    0.000    0.000    0.000 
#
# Total GULP energy -545478.778322 kJ/mol
# GULP energy per Si atom -12397.244962 kJ/mol
# Density = 1.992436 g / cm^3
# Si number density = 19.969812 Si / 1000 Ang^3
#
#
#
# Elastic Constant Matrix: (Units=GPa)
#
#
# Indices 1 2 3 4 5 6 
#
# 1 67.3242 26.7709 13.3644 0.0000 0.0000 0.0000
# 2 26.7709 104.0086 20.2387 0.0000 0.0000 0.0000
# 3 13.3644 20.2387 96.9961 0.0000 0.0000 0.0000
# 4 0.0000 0.0000 0.0000 59.6145 0.0000 0.0000
# 5 0.0000 0.0000 0.0000 0.0000 15.7490 0.0000
# 6 0.0000 0.0000 0.0000 0.0000 0.0000 28.2528
#
#
#
# Elastic Compliance Matrix: (Units=1/GPa)
#
#
# Indices 1 2 3 4 5 6 
#
# 1 0.016745 -0.004024 -0.001467 0.000000 0.000000 0.000000
# 2 -0.004024 0.010989 -0.001738 0.000000 0.000000 0.000000
# 3 -0.001467 -0.001738 0.010875 0.000000 0.000000 0.000000
# 4 0.000000 0.000000 0.000000 0.016774 0.000000 0.000000
# 5 0.000000 0.000000 0.000000 0.000000 0.063496 0.000000
# 6 0.000000 0.000000 0.000000 0.000000 0.000000 0.035395
#
#
# Mechanical properties :
#
#
# Convention : Reuss Voigt Hill
#
# Bulk Modulus (GPa) = 41.41158 43.23075 42.32117
# Shear Modulus (GPa) = 28.28317 34.58692 31.43504
#
# Velocity S-wave (km/s) = 3.76745 4.16620 3.97183
# Velocity P-wave (km/s) = 6.30135 6.69612 6.50173
#
# Compressibility (1/GPa) = 0.02414783
#
# Stress axis : x y z
#
# Youngs Moduli (GPa) = 59.71897 91.00241 91.95744
#
# Poissons Ratio (x) = 0.36624 0.13494
# Poissons Ratio (y) = 0.24034 0.15985
# Poissons Ratio (z) = 0.08764 0.15819
#
# Static dielectric constant tensor:
#      x y z
#    x 3.337040 0.000000 0.000000 
#    y 0.000000 3.705860 0.000000 
#    z 0.000000 0.000000 3.687300 
# 
# 
# High freq. dielectric constant tensor:
#      x y z
#    x 1.748120 0.000000 0.000000 
#    y 0.000000 1.792170 0.000000 
#    z 0.000000 0.000000 1.755910 
# 
# From -- ./inp_files/45591.got.cif
#   From: 2010.03.12/outbox.cif.g09.slc.cpg/sg65_23_cif.got.tgz:45591.got - 2010.04.10 20:52:16.
