data_PCOD8268771
_publ_section_title
;
Structure prediction by ZEFSAII (Michael W. Deem and Ramdas Pophale) SiO2 
 PCOD8268771
Probable space group: C M M M
;
_chemical_formula_sum "Si O2"
_cell_formula_units_Z 128
_cell_length_a 17.050721
_cell_length_b 17.245975
_cell_length_c 23.970367
_cell_angle_alpha 90.000000
_cell_angle_beta 90.000000
_cell_angle_gamma 90.000000
_cell_volume 7048.637624
_symmetry_space_group_name_H-M "C M M M"
_symmetry_group_IT_number 65
_symmetry_cell_setting 'orthorhombic'
loop_
_space_group_symop_operation_xyz
x,y,z
-x,-y,z
x,-y,-z
-x,y,-z
-x,-y,-z
x,y,-z
-x,y,z
x,-y,z
1/2+x,1/2+y,z
1/2-x,1/2-y,z
1/2+x,1/2-y,-z
1/2-x,1/2+y,-z
1/2-x,1/2-y,-z
1/2+x,1/2+y,-z
1/2-x,1/2+y,z
1/2+x,1/2-y,z
loop_
_atom_site_type_symbol
_atom_site_label
_atom_site_fract_x
_atom_site_fract_y
_atom_site_fract_z
Si Si1 0.409879 0.219920 0.637717
Si Si2 0.593439 0.751952 0.935793
Si Si3 0.590533 0.707911 0.244618
Si Si4 0.276288 0.411292 0.234369
Si Si5 0.912205 0.082451 0.933816
Si Si6 0.786609 0.410611 0.357192
Si Si7 0.186622 0.817710 0.562623
Si Si8 0.678063 0.807986 0.836381
O O1 0.500000 0.196365 0.636888
O O2 0.385071 0.262230 0.694565
O O3 0.362904 0.140239 0.629654
O O4 0.392480 0.281295 0.588402
O O5 0.500000 0.759374 0.927526
O O6 0.624031 0.665515 0.914861
O O7 0.641737 0.814315 0.898926
O O8 0.615781 0.767142 0.000000
O O9 0.500000 0.683213 0.241639
O O10 0.642204 0.633989 0.227487
O O11 0.606764 0.777913 0.201951
O O12 0.297755 0.500000 0.226012
O O13 0.240663 0.393176 0.294656
O O14 0.211279 0.389073 0.187305
O O15 0.000000 0.079257 0.910077
O O16 0.869834 0.000000 0.915277
O O17 0.915358 0.086118 0.000000
O O18 0.809149 0.500000 0.365633
O O19 0.716823 0.389318 0.400072
O O20 0.169937 0.847369 0.500000
O O21 0.250000 0.750000 0.563648
O O22 0.750000 0.750000 0.832846
#
# Coordination Sequence:
#
# PCOD8268771 Si02
#       8
#    16  16  16  16  16  16  16  16
#     4  10  19  32  53  79 110 145 181 226 272 320
#     4   9  17  30  49  74 104 139 181 223 264 319
#     4  10  19  33  55  80 105 137 177 221 269 323
#     4  10  20  35  55  78 105 140 178 223 276 322
#     4   7  10  19  38  65  97 131 164 200 245 295
#     4  10  19  33  54  78 110 145 182 228 273 324
#     4   9  18  32  53  78 105 142 186 227 265 317
#     4  10  20  33  53  76 103 140 175 222 271 320
#
# _framework density 18.159538000000001
#
# number of rings (size 3 to 8) (size 9 to 14) (size 15 to 20)
#    0.000    2.625    2.500    1.500    0.000    1.250 
#    0.000    2.500    0.000    5.250    0.000    5.250 
#    0.000    0.000    0.000    1.875    0.000    0.000 
#
# Total GULP energy -793051.710750 kJ/mol
# GULP energy per Si atom -12391.432980 kJ/mol
# Density = 1.811821 g / cm^3
# Si number density = 18.159538 Si / 1000 Ang^3
#
#
#
# Elastic Constant Matrix: (Units=GPa)
#
#
# Indices 1 2 3 4 5 6 
#
# 1 60.4280 51.8015 32.0214 0.0000 0.0000 0.0000
# 2 51.8015 80.7586 35.9402 0.0000 0.0000 0.0000
# 3 32.0214 35.9402 101.4895 0.0000 0.0000 0.0000
# 4 0.0000 0.0000 0.0000 15.3734 0.0000 0.0000
# 5 0.0000 0.0000 0.0000 0.0000 25.7672 0.0000
# 6 0.0000 0.0000 0.0000 0.0000 0.0000 17.2339
#
#
#
# Elastic Compliance Matrix: (Units=1/GPa)
#
#
# Indices 1 2 3 4 5 6 
#
# 1 0.038081 -0.022649 -0.003995 0.000000 0.000000 0.000000
# 2 -0.022649 0.028170 -0.002830 0.000000 0.000000 0.000000
# 3 -0.003995 -0.002830 0.012116 0.000000 0.000000 0.000000
# 4 0.000000 0.000000 0.000000 0.065048 0.000000 0.000000
# 5 0.000000 0.000000 0.000000 0.000000 0.038809 0.000000
# 6 0.000000 0.000000 0.000000 0.000000 0.000000 0.058025
#
#
# Mechanical properties :
#
#
# Convention : Reuss Voigt Hill
#
# Bulk Modulus (GPa) = 51.49257 53.57805 52.53531
# Shear Modulus (GPa) = 16.35767 19.86910 18.11339
#
# Velocity S-wave (km/s) = 3.00455 3.31137 3.16168
# Velocity P-wave (km/s) = 6.36032 6.64743 6.50546
#
# Compressibility (1/GPa) = 0.01942028
#
# Stress axis : x y z
#
# Youngs Moduli (GPa) = 26.25991 35.49926 82.53819
#
# Poissons Ratio (x) = 0.80401 0.32970
# Poissons Ratio (y) = 0.59475 0.23355
# Poissons Ratio (z) = 0.10490 0.10045
#
# Static dielectric constant tensor:
#      x y z
#    x 3.111740 0.000000 0.000000 
#    y 0.000000 3.309190 0.000000 
#    z 0.000000 0.000000 3.487550 
# 
# 
# High freq. dielectric constant tensor:
#      x y z
#    x 1.682800 0.000000 0.000000 
#    y 0.000000 1.682200 0.000000 
#    z 0.000000 0.000000 1.706650 
# 
# From -- ./inp_files/70685.got.cif
#   From: 2010.03.12/outbox.cif.g09.slc.cpg/sg65_36_cif.got.tgz:70685.got - 2010.04.10 20:52:16.
