data_PCOD8268994
_publ_section_title
;
Structure prediction by ZEFSAII (Michael W. Deem and Ramdas Pophale) SiO2 
 PCOD8268994
Probable space group: C M M M
;
_chemical_formula_sum "Si O2"
_cell_formula_units_Z 120
_cell_length_a 18.286001
_cell_length_b 29.164460
_cell_length_c 12.818779
_cell_angle_alpha 90.000000
_cell_angle_beta 90.000000
_cell_angle_gamma 90.000000
_cell_volume 6836.272078
_symmetry_space_group_name_H-M "C M M M"
_symmetry_group_IT_number 65
_symmetry_cell_setting 'orthorhombic'
loop_
_space_group_symop_operation_xyz
x,y,z
-x,-y,z
x,-y,-z
-x,y,-z
-x,-y,-z
x,y,-z
-x,y,z
x,-y,z
1/2+x,1/2+y,z
1/2-x,1/2-y,z
1/2+x,1/2-y,-z
1/2-x,1/2+y,-z
1/2-x,1/2-y,-z
1/2+x,1/2+y,-z
1/2-x,1/2+y,z
1/2+x,1/2-y,z
loop_
_atom_site_type_symbol
_atom_site_label
_atom_site_fract_x
_atom_site_fract_y
_atom_site_fract_z
Si Si1 0.414514 0.198111 0.119380
Si Si2 0.211336 0.203081 0.621121
Si Si3 0.673637 0.374664 0.880602
Si Si4 0.914126 0.203509 0.784976
Si Si5 0.190249 0.360961 0.746842
Si Si6 0.000000 0.054918 0.385677
Si Si7 0.794913 0.447688 0.620696
Si Si8 0.857090 0.948140 0.720410
O O1 0.500000 0.188388 0.123445
O O2 0.396308 0.249697 0.154169
O O3 0.380459 0.163543 0.204895
O O4 0.385970 0.190831 0.000000
O O5 0.192725 0.199609 0.500000
O O6 0.250000 0.250000 0.652520
O O7 0.133967 0.199235 0.680210
O O8 0.270145 0.164051 0.650009
O O9 0.610150 0.337513 0.860894
O O10 0.752612 0.358563 0.841454
O O11 0.657332 0.422746 0.827187
O O12 0.679201 0.385906 0.000000
O O13 0.000000 0.199680 0.756967
O O14 0.167448 0.411364 0.701104
O O15 0.928531 0.074583 0.329881
O O16 0.000000 0.075968 0.500000
O O17 0.000000 0.000000 0.389171
O O18 0.813832 0.436625 0.500000
O O19 0.820186 0.500000 0.648048
O O20 0.707843 0.443314 0.636617
O O21 0.871941 0.000000 0.751910
#
# Coordination Sequence:
#
# PCOD8268994 Si02
#       8
#    16  16  16  16  16   8  16  16
#     4  10  20  35  56  79 102 131 168 213 259 304
#     4  10  19  33  53  77 106 139 168 205 255 306
#     4  10  21  33  50  72 100 137 173 216 263 305
#     4  10  21  36  52  73 102 135 179 219 257 303
#     4  10  19  34  54  79 105 133 170 210 250 308
#     4   9  16  28  47  67  89 121 164 214 259 299
#     4   9  17  31  53  78 103 132 167 208 252 299
#     4   9  18  31  47  70  98 130 173 216 257 305
#
# _framework density 17.553426999999999
#
# number of rings (size 3 to 8) (size 9 to 14) (size 15 to 20)
#    0.000    2.333    1.333    1.600    0.933    2.933 
#    0.000    2.667    0.000    4.400    0.000    1.867 
#    0.000    0.000    0.000    0.000    0.000    0.000 
#
# Total GULP energy -743746.242805 kJ/mol
# GULP energy per Si atom -12395.770713 kJ/mol
# Density = 1.751347 g / cm^3
# Si number density = 17.553427 Si / 1000 Ang^3
#
#
#
# Elastic Constant Matrix: (Units=GPa)
#
#
# Indices 1 2 3 4 5 6 
#
# 1 46.8488 24.4774 24.4099 0.0000 0.0000 0.0000
# 2 24.4774 84.7041 34.5981 0.0000 0.0000 0.0000
# 3 24.4099 34.5981 86.3903 0.0000 0.0000 0.0000
# 4 0.0000 0.0000 0.0000 23.6723 0.0000 0.0000
# 5 0.0000 0.0000 0.0000 0.0000 12.8706 0.0000
# 6 0.0000 0.0000 0.0000 0.0000 0.0000 14.6743
#
#
#
# Elastic Compliance Matrix: (Units=1/GPa)
#
#
# Indices 1 2 3 4 5 6 
#
# 1 0.027100 -0.005623 -0.005405 0.000000 0.000000 0.000000
# 2 -0.005623 0.015282 -0.004531 0.000000 0.000000 0.000000
# 3 -0.005405 -0.004531 0.014917 0.000000 0.000000 0.000000
# 4 0.000000 0.000000 0.000000 0.042243 0.000000 0.000000
# 5 0.000000 0.000000 0.000000 0.000000 0.077696 0.000000
# 6 0.000000 0.000000 0.000000 0.000000 0.000000 0.068146
#
#
# Mechanical properties :
#
#
# Convention : Reuss Voigt Hill
#
# Bulk Modulus (GPa) = 38.19808 42.76822 40.48315
# Shear Modulus (GPa) = 17.52971 19.20730 18.36851
#
# Velocity S-wave (km/s) = 3.16357 3.31149 3.23837
# Velocity P-wave (km/s) = 5.92895 6.24810 6.09062
#
# Compressibility (1/GPa) = 0.02617933
#
# Stress axis : x y z
#
# Youngs Moduli (GPa) = 36.90099 65.43808 67.03646
#
# Poissons Ratio (x) = 0.36798 0.36233
# Poissons Ratio (y) = 0.20751 0.30375
# Poissons Ratio (z) = 0.19945 0.29651
#
# Static dielectric constant tensor:
#      x y z
#    x 2.953820 0.000000 0.000000 
#    y 0.000000 3.488170 0.000000 
#    z 0.000000 0.000000 3.205800 
# 
# 
# High freq. dielectric constant tensor:
#      x y z
#    x 1.657170 0.000000 0.000000 
#    y 0.000000 1.682590 0.000000 
#    z 0.000000 0.000000 1.678430 
# 
# From -- ./inp_files/29760.got.cif
#   From: 2010.03.12/outbox.cif.g09.slc.cpg/sg65_15_cif.got.tgz:29760.got - 2010.04.10 20:52:16.
