data_PCOD8268208
_publ_section_title
;
Structure prediction by ZEFSAII (Michael W. Deem and Ramdas Pophale) SiO2 
 PCOD8268208
Probable space group: C M M M
;
_chemical_formula_sum "Si O2"
_cell_formula_units_Z 88
_cell_length_a 17.092820
_cell_length_b 21.888701
_cell_length_c 12.688028
_cell_angle_alpha 90.000000
_cell_angle_beta 90.000000
_cell_angle_gamma 90.000000
_cell_volume 4747.094053
_symmetry_space_group_name_H-M "C M M M"
_symmetry_group_IT_number 65
_symmetry_cell_setting 'orthorhombic'
loop_
_space_group_symop_operation_xyz
x,y,z
-x,-y,z
x,-y,-z
-x,y,-z
-x,-y,-z
x,y,-z
-x,y,z
x,-y,z
1/2+x,1/2+y,z
1/2-x,1/2-y,z
1/2+x,1/2-y,-z
1/2-x,1/2+y,-z
1/2-x,1/2-y,-z
1/2+x,1/2+y,-z
1/2-x,1/2+y,z
1/2+x,1/2-y,z
loop_
_atom_site_type_symbol
_atom_site_label
_atom_site_fract_x
_atom_site_fract_y
_atom_site_fract_z
Si Si1 0.907129 0.500000 0.623738
Si Si2 0.411528 0.229220 0.382474
Si Si3 0.758891 0.821149 0.120154
Si Si4 0.412150 0.661440 0.769660
Si Si5 0.315930 0.883323 0.312036
Si Si6 0.347343 0.430136 0.380758
O O1 0.882251 0.500000 0.500000
O O2 0.873041 0.558630 0.684362
O O3 0.000000 0.500000 0.635152
O O4 0.404068 0.256448 0.500000
O O5 0.500000 0.207650 0.359305
O O6 0.386432 0.281597 0.302151
O O7 0.355881 0.171481 0.373968
O O8 0.750000 0.750000 0.148463
O O9 0.849549 0.841279 0.136001
O O10 0.701746 0.862569 0.191843
O O11 0.734975 0.834091 0.000000
O O12 0.500000 0.668241 0.815329
O O13 0.409403 0.600939 0.697507
O O14 0.235962 0.897251 0.372075
O O15 0.378451 0.424914 0.500000
O O16 0.337686 0.500000 0.345702
#
# Coordination Sequence:
#
# PCOD8268208 Si02
#       6
#     8  16  16  16  16  16
#     4  11  22  36  59  89 124 163 193 223 273 345
#     4  10  19  31  50  80 118 151 180 221 276 338
#     4  10  21  40  62  83 107 143 191 241 294 341
#     4  10  21  36  55  82 111 142 184 232 284 337
#     4  11  20  35  56  82 113 153 192 236 277 332
#     4  10  20  33  52  78 112 153 189 221 263 327
#
# _framework density 18.537655999999998
#
# number of rings (size 3 to 8) (size 9 to 14) (size 15 to 20)
#    0.000    1.727    2.727    2.727    0.000    3.273 
#    0.000    4.091    0.000    2.727    0.000    2.545 
#    0.000    0.000    0.000    0.000    0.000    0.000 
#
# Total GULP energy -545638.847981 kJ/mol
# GULP energy per Si atom -12400.882909 kJ/mol
# Density = 1.849546 g / cm^3
# Si number density = 18.537656 Si / 1000 Ang^3
#
#
#
# Elastic Constant Matrix: (Units=GPa)
#
#
# Indices 1 2 3 4 5 6 
#
# 1 73.5845 24.5663 28.0845 0.0000 0.0000 0.0000
# 2 24.5663 97.8997 36.4687 0.0000 0.0000 0.0000
# 3 28.0845 36.4687 88.6335 0.0000 0.0000 0.0000
# 4 0.0000 0.0000 0.0000 22.2713 0.0000 0.0000
# 5 0.0000 0.0000 0.0000 0.0000 21.1485 0.0000
# 6 0.0000 0.0000 0.0000 0.0000 0.0000 34.0697
#
#
#
# Elastic Compliance Matrix: (Units=1/GPa)
#
#
# Indices 1 2 3 4 5 6 
#
# 1 0.015963 -0.002506 -0.004027 0.000000 0.000000 0.000000
# 2 -0.002506 0.012457 -0.004331 0.000000 0.000000 0.000000
# 3 -0.004027 -0.004331 0.014341 0.000000 0.000000 0.000000
# 4 0.000000 0.000000 0.000000 0.044901 0.000000 0.000000
# 5 0.000000 0.000000 0.000000 0.000000 0.047285 0.000000
# 6 0.000000 0.000000 0.000000 0.000000 0.000000 0.029352
#
#
# Mechanical properties :
#
#
# Convention : Reuss Voigt Hill
#
# Bulk Modulus (GPa) = 47.54595 48.70627 48.12611
# Shear Modulus (GPa) = 25.90175 26.89779 26.39977
#
# Velocity S-wave (km/s) = 3.74204 3.81331 3.77784
# Velocity P-wave (km/s) = 6.66141 6.76163 6.71171
#
# Compressibility (1/GPa) = 0.02103229
#
# Stress axis : x y z
#
# Youngs Moduli (GPa) = 62.64349 80.27748 69.73154
#
# Poissons Ratio (x) = 0.20114 0.28083
# Poissons Ratio (y) = 0.15696 0.30204
# Poissons Ratio (z) = 0.25228 0.34772
#
# Static dielectric constant tensor:
#      x y z
#    x 3.437440 0.000000 0.000000 
#    y 0.000000 3.531920 0.000000 
#    z 0.000000 0.000000 3.172310 
# 
# 
# High freq. dielectric constant tensor:
#      x y z
#    x 1.724620 0.000000 0.000000 
#    y 0.000000 1.724140 0.000000 
#    z 0.000000 0.000000 1.694580 
# 
# From -- ./inp_files/26796.got.cif
#   From: 2010.03.12/outbox.cif.g09.slc.cpg/sg65_14_cif.got.tgz:26796.got - 2010.04.10 20:52:16.
