data_PCOD8268116
_publ_section_title
;
Structure prediction by ZEFSAII (Michael W. Deem and Ramdas Pophale) SiO2 
 PCOD8268116
Probable space group: C M M M
;
_chemical_formula_sum "Si O2"
_cell_formula_units_Z 88
_cell_length_a 8.882528
_cell_length_b 26.992430
_cell_length_c 21.030674
_cell_angle_alpha 90.000000
_cell_angle_beta 90.000000
_cell_angle_gamma 90.000000
_cell_volume 5042.335750
_symmetry_space_group_name_H-M "C M M M"
_symmetry_group_IT_number 65
_symmetry_cell_setting 'orthorhombic'
loop_
_space_group_symop_operation_xyz
x,y,z
-x,-y,z
x,-y,-z
-x,y,-z
-x,-y,-z
x,y,-z
-x,y,z
x,-y,z
1/2+x,1/2+y,z
1/2-x,1/2-y,z
1/2+x,1/2-y,-z
1/2-x,1/2+y,-z
1/2-x,1/2-y,-z
1/2+x,1/2+y,-z
1/2-x,1/2+y,z
1/2+x,1/2-y,z
loop_
_atom_site_type_symbol
_atom_site_label
_atom_site_fract_x
_atom_site_fract_y
_atom_site_fract_z
Si Si1 0.824546 0.650157 0.186224
Si Si2 0.176138 0.802132 0.072467
Si Si3 0.177031 0.800604 0.305084
Si Si4 0.322100 0.943483 0.500000
Si Si5 0.828771 0.555180 0.738282
Si Si6 0.174649 0.899393 0.377421
O O1 0.748190 0.656498 0.117680
O O2 0.749942 0.686695 0.237290
O O3 0.793848 0.593203 0.205036
O O4 0.000000 0.662880 0.182235
O O5 0.250000 0.750000 0.089879
O O6 0.000000 0.797957 0.085150
O O7 0.211764 0.817363 0.000000
O O8 0.250000 0.750000 0.331233
O O9 0.213211 0.843192 0.356623
O O10 0.000000 0.794063 0.295265
O O11 0.500000 0.944749 0.500000
O O12 0.268004 0.913192 0.439183
O O13 0.258794 0.000000 0.500000
O O14 0.802504 0.500000 0.765078
O O15 0.718514 0.563670 0.679259
O O16 0.000000 0.562470 0.713909
O O17 0.000000 0.906015 0.392833
#
# Coordination Sequence:
#
# PCOD8268116 Si02
#       6
#    16  16  16   8  16  16
#     4  10  19  31  50  74 100 130 163 201 243 287
#     4  10  20  33  49  70  98 130 163 200 242 289
#     4  10  20  34  52  74 101 131 164 201 241 287
#     4  11  23  37  54  75 100 131 164 199 242 293
#     4   9  18  33  52  74 100 129 162 200 243 290
#     4  10  21  35  52  76 102 128 162 203 244 288
#
# _framework density 17.452228999999999
#
# number of rings (size 3 to 8) (size 9 to 14) (size 15 to 20)
#    0.000    2.091    0.000    3.545    0.000    7.273 
#    0.000    0.455    0.000    0.545    0.000    3.818 
#    0.000    0.000    0.000    0.000    0.000    0.000 
#
# Total GULP energy -545731.434355 kJ/mol
# GULP energy per Si atom -12402.987144 kJ/mol
# Density = 1.741251 g / cm^3
# Si number density = 17.452229 Si / 1000 Ang^3
#
#
#
# Elastic Constant Matrix: (Units=GPa)
#
#
# Indices 1 2 3 4 5 6 
#
# 1 92.9221 52.3321 56.2543 0.0000 0.0000 0.0000
# 2 52.3321 123.9686 62.6198 0.0000 0.0000 0.0000
# 3 56.2543 62.6198 117.2790 0.0000 0.0000 0.0000
# 4 0.0000 0.0000 0.0000 19.6020 0.0000 0.0000
# 5 0.0000 0.0000 0.0000 0.0000 34.0021 0.0000
# 6 0.0000 0.0000 0.0000 0.0000 0.0000 26.9758
#
#
#
# Elastic Compliance Matrix: (Units=1/GPa)
#
#
# Indices 1 2 3 4 5 6 
#
# 1 0.016543 -0.004074 -0.005760 0.000000 0.000000 0.000000
# 2 -0.004074 0.012049 -0.004479 0.000000 0.000000 0.000000
# 3 -0.005760 -0.004479 0.013681 0.000000 0.000000 0.000000
# 4 0.000000 0.000000 0.000000 0.051015 0.000000 0.000000
# 5 0.000000 0.000000 0.000000 0.000000 0.029410 0.000000
# 6 0.000000 0.000000 0.000000 0.000000 0.000000 0.037070
#
#
# Mechanical properties :
#
#
# Convention : Reuss Voigt Hill
#
# Bulk Modulus (GPa) = 73.27658 75.17581 74.22620
# Shear Modulus (GPa) = 25.91430 26.98022 26.44726
#
# Velocity S-wave (km/s) = 3.85758 3.93612 3.89705
# Velocity P-wave (km/s) = 7.86889 7.98912 7.92923
#
# Compressibility (1/GPa) = 0.01364692
#
# Stress axis : x y z
#
# Youngs Moduli (GPa) = 60.44826 82.99462 73.09378
#
# Poissons Ratio (x) = 0.33813 0.42100
# Poissons Ratio (y) = 0.24627 0.32740
# Poissons Ratio (z) = 0.34817 0.37175
#
# Static dielectric constant tensor:
#      x y z
#    x 3.382890 0.000000 0.000000 
#    y 0.000000 3.301360 0.000000 
#    z 0.000000 0.000000 3.160690 
# 
# 
# High freq. dielectric constant tensor:
#      x y z
#    x 1.690790 0.000000 0.000000 
#    y 0.000000 1.671850 0.000000 
#    z 0.000000 0.000000 1.660250 
# 
# From -- ./inp_files/60712.got.cif
#   From: 2010.03.12/outbox.cif.g09.slc.cpg/sg65_31_cif.got.tgz:60712.got - 2010.04.10 20:52:16.
