data_PCOD8268459
_publ_section_title
;
Structure prediction by ZEFSAII (Michael W. Deem and Ramdas Pophale) SiO2 
 PCOD8268459
Probable space group: C M M M
;
_chemical_formula_sum "Si O2"
_cell_formula_units_Z 104
_cell_length_a 8.900323
_cell_length_b 26.631789
_cell_length_c 23.874420
_cell_angle_alpha 90.000000
_cell_angle_beta 90.000000
_cell_angle_gamma 90.000000
_cell_volume 5658.990161
_symmetry_space_group_name_H-M "C M M M"
_symmetry_group_IT_number 65
_symmetry_cell_setting 'orthorhombic'
loop_
_space_group_symop_operation_xyz
x,y,z
-x,-y,z
x,-y,-z
-x,y,-z
-x,-y,-z
x,y,-z
-x,y,z
x,-y,z
1/2+x,1/2+y,z
1/2-x,1/2-y,z
1/2+x,1/2-y,-z
1/2-x,1/2+y,-z
1/2-x,1/2-y,-z
1/2+x,1/2+y,-z
1/2-x,1/2+y,z
1/2+x,1/2-y,z
loop_
_atom_site_type_symbol
_atom_site_label
_atom_site_fract_x
_atom_site_fract_y
_atom_site_fract_z
Si Si1 0.672229 0.000000 0.066208
Si Si2 0.677225 0.596562 0.878417
Si Si3 0.168763 0.442850 0.224041
Si Si4 0.175611 0.700081 0.732665
Si Si5 0.322738 0.443776 0.437611
Si Si6 0.326188 0.895337 0.664536
Si Si7 0.322180 0.197777 0.862069
O O1 0.752277 0.949200 0.086746
O O2 0.500000 0.000000 0.087823
O O3 0.680044 0.000000 0.000000
O O4 0.500000 0.598267 0.888812
O O5 0.713058 0.587910 0.812795
O O6 0.750087 0.650360 0.895600
O O7 0.175074 0.500000 0.204359
O O8 0.206830 0.439105 0.289934
O O9 0.000000 0.420313 0.214289
O O10 0.250000 0.750000 0.708668
O O11 0.233741 0.655330 0.693406
O O12 0.221481 0.690541 0.796967
O O13 0.000000 0.706431 0.727771
O O14 0.271718 0.427114 0.500000
O O15 0.500000 0.443648 0.433522
O O16 0.261759 0.500000 0.425290
O O17 0.260039 0.404771 0.392826
O O18 0.500000 0.892046 0.649036
O O19 0.500000 0.199206 0.872547
O O20 0.250000 0.250000 0.884233
#
# Coordination Sequence:
#
# PCOD8268459 Si02
#       7
#     8  16  16  16  16  16  16
#     4  11  25  45  67  87 113 157 202 239 286 335
#     4  12  23  35  56  87 119 152 190 233 280 335
#     4  10  19  32  50  73 109 150 179 215 274 332
#     4   9  18  31  48  72 104 139 174 215 264 318
#     4   9  19  35  51  69  97 133 171 215 268 323
#     4  10  19  32  50  75 102 135 175 218 268 321
#     4  10  19  35  56  81 116 155 193 234 282 337
#
# _framework density 18.377837
#
# number of rings (size 3 to 8) (size 9 to 14) (size 15 to 20)
#    0.000    1.923    2.308    3.000    0.000    3.692 
#    0.000    0.769    0.000    0.923    0.000    0.000 
#    0.000    0.000    0.000    0.000    0.000    0.000 
#
# Total GULP energy -644667.365543 kJ/mol
# GULP energy per Si atom -12397.449337 kJ/mol
# Density = 1.833601 g / cm^3
# Si number density = 18.377837 Si / 1000 Ang^3
#
#
#
# Elastic Constant Matrix: (Units=GPa)
#
#
# Indices 1 2 3 4 5 6 
#
# 1 87.6136 57.8835 27.3382 0.0000 0.0000 0.0000
# 2 57.8835 140.5970 32.8026 0.0000 0.0000 0.0000
# 3 27.3382 32.8026 56.5534 0.0000 0.0000 0.0000
# 4 0.0000 0.0000 0.0000 15.8881 0.0000 0.0000
# 5 0.0000 0.0000 0.0000 0.0000 19.8988 0.0000
# 6 0.0000 0.0000 0.0000 0.0000 0.0000 33.5760
#
#
#
# Elastic Compliance Matrix: (Units=1/GPa)
#
#
# Indices 1 2 3 4 5 6 
#
# 1 0.016703 -0.005774 -0.004725 0.000000 0.000000 0.000000
# 2 -0.005774 0.010222 -0.003138 0.000000 0.000000 0.000000
# 3 -0.004725 -0.003138 0.021786 0.000000 0.000000 0.000000
# 4 0.000000 0.000000 0.000000 0.062940 0.000000 0.000000
# 5 0.000000 0.000000 0.000000 0.000000 0.050254 0.000000
# 6 0.000000 0.000000 0.000000 0.000000 0.000000 0.029783
#
#
# Mechanical properties :
#
#
# Convention : Reuss Voigt Hill
#
# Bulk Modulus (GPa) = 46.64762 57.86806 52.25784
# Shear Modulus (GPa) = 22.11331 24.98858 23.55094
#
# Velocity S-wave (km/s) = 3.47257 3.69143 3.58367
# Velocity P-wave (km/s) = 6.44329 7.05161 6.75430
#
# Compressibility (1/GPa) = 0.02143732
#
# Stress axis : x y z
#
# Youngs Moduli (GPa) = 59.86978 97.83041 45.90003
#
# Poissons Ratio (x) = 0.56489 0.21688
# Poissons Ratio (y) = 0.34570 0.14402
# Poissons Ratio (z) = 0.28289 0.30696
#
# Static dielectric constant tensor:
#      x y z
#    x 3.270870 0.000000 0.000000 
#    y 0.000000 3.631100 0.000000 
#    z 0.000000 0.000000 3.194000 
# 
# 
# High freq. dielectric constant tensor:
#      x y z
#    x 1.707070 0.000000 0.000000 
#    y 0.000000 1.720020 0.000000 
#    z 0.000000 0.000000 1.684600 
# 
# From -- ./inp_files/68194.got.cif
#   From: 2010.03.12/outbox.cif.g09.slc.cpg/sg65_35_cif.got.tgz:68194.got - 2010.04.10 20:52:16.
