data_PCOD8268890
_publ_section_title
;
Structure prediction by ZEFSAII (Michael W. Deem and Ramdas Pophale) SiO2 
 PCOD8268890
Probable space group: C M M M
;
_chemical_formula_sum "Si O2"
_cell_formula_units_Z 80
_cell_length_a 19.585031
_cell_length_b 26.070824
_cell_length_c 8.506852
_cell_angle_alpha 90.000000
_cell_angle_beta 90.000000
_cell_angle_gamma 90.000000
_cell_volume 4343.580735
_symmetry_space_group_name_H-M "C M M M"
_symmetry_group_IT_number 65
_symmetry_cell_setting 'orthorhombic'
loop_
_space_group_symop_operation_xyz
x,y,z
-x,-y,z
x,-y,-z
-x,y,-z
-x,-y,-z
x,y,-z
-x,y,z
x,-y,z
1/2+x,1/2+y,z
1/2-x,1/2-y,z
1/2+x,1/2-y,-z
1/2-x,1/2+y,-z
1/2-x,1/2-y,-z
1/2+x,1/2+y,-z
1/2-x,1/2+y,z
1/2+x,1/2-y,z
loop_
_atom_site_type_symbol
_atom_site_label
_atom_site_fract_x
_atom_site_fract_y
_atom_site_fract_z
Si Si1 0.574704 0.500000 0.814151
Si Si2 0.076472 0.390378 0.188198
Si Si3 0.675843 0.802698 0.184774
Si Si4 0.580878 0.000000 0.828474
Si Si5 0.419155 0.388603 0.817599
Si Si6 0.178697 0.805848 0.317916
O O1 0.500000 0.500000 0.735881
O O2 0.609814 0.554390 0.766974
O O3 0.565733 0.500000 0.000000
O O4 0.127238 0.347188 0.252083
O O5 0.100701 0.446290 0.257596
O O6 0.000000 0.376968 0.245944
O O7 0.078188 0.393520 0.000000
O O8 0.753562 0.818825 0.219189
O O9 0.653141 0.750709 0.271148
O O10 0.666069 0.794647 0.000000
O O11 0.500000 0.000000 0.850383
O O12 0.616194 0.000000 0.000000
O O13 0.500000 0.385055 0.784421
O O14 0.380570 0.346543 0.715234
O O15 0.403765 0.377994 0.000000
O O16 0.197786 0.806844 0.500000
#
# Coordination Sequence:
#
# PCOD8268890 Si02
#       6
#     8  16  16   8  16  16
#     4   7  12  26  50  77 100 122 152 195 244 287
#     4   8  14  25  45  73  99 121 149 190 237 282
#     4  10  19  33  52  71  94 127 168 207 244 287
#     4   7  10  20  39  66 100 126 142 175 234 289
#     4   9  17  32  55  79 100 124 159 202 244 289
#     4  11  22  35  49  67  97 133 166 200 245 297
#
# _framework density 18.417983
#
# number of rings (size 3 to 8) (size 9 to 14) (size 15 to 20)
#    0.000    3.000    0.000    6.000    0.000    1.200 
#    0.000    3.500    0.000    7.200    0.000    2.100 
#    0.000    9.600    0.000    0.000    0.000    0.000 
#
# Total GULP energy -495529.609894 kJ/mol
# GULP energy per Si atom -12388.240247 kJ/mol
# Density = 1.837606 g / cm^3
# Si number density = 18.417983 Si / 1000 Ang^3
#
#
#
# Elastic Constant Matrix: (Units=GPa)
#
#
# Indices 1 2 3 4 5 6 
#
# 1 63.5325 75.6583 6.6961 0.0000 0.0000 0.0000
# 2 75.6583 175.6476 20.0769 0.0000 0.0000 0.0000
# 3 6.6961 20.0769 35.2439 0.0000 0.0000 0.0000
# 4 0.0000 0.0000 0.0000 0.1596 0.0000 0.0000
# 5 0.0000 0.0000 0.0000 0.0000 4.5690 0.0000
# 6 0.0000 0.0000 0.0000 0.0000 0.0000 11.3705
#
#
#
# Elastic Compliance Matrix: (Units=1/GPa)
#
#
# Indices 1 2 3 4 5 6 
#
# 1 0.032438 -0.014192 0.001921 0.000000 0.000000 0.000000
# 2 -0.014192 0.012299 -0.004310 0.000000 0.000000 0.000000
# 3 0.001921 -0.004310 0.030464 0.000000 0.000000 0.000000
# 4 0.000000 0.000000 0.000000 6.266826 0.000000 0.000000
# 5 0.000000 0.000000 0.000000 0.000000 0.218866 0.000000
# 6 0.000000 0.000000 0.000000 0.000000 0.000000 0.087947
#
#
# Mechanical properties :
#
#
# Convention : Reuss Voigt Hill
#
# Bulk Modulus (GPa) = 23.78671 53.25406 38.52039
# Shear Modulus (GPa) = 0.74671 14.68599 7.71635
#
# Velocity S-wave (km/s) = 0.63742 2.82684 2.04907
# Velocity P-wave (km/s) = 3.67215 6.29537 5.15346
#
# Compressibility (1/GPa) = 0.04204028
#
# Stress axis : x y z
#
# Youngs Moduli (GPa) = 30.82788 81.30821 32.82594
#
# Poissons Ratio (x) = 1.15393 -0.06307
# Poissons Ratio (y) = 0.43751 0.14147
# Poissons Ratio (z) = -0.05924 0.35042
#
# Static dielectric constant tensor:
#      x y z
#    x 3.139700 0.000000 0.000000 
#    y 0.000000 3.944450 0.000000 
#    z 0.000000 0.000000 2.961070 
# 
# 
# High freq. dielectric constant tensor:
#      x y z
#    x 1.682590 0.000000 0.000000 
#    y 0.000000 1.738110 0.000000 
#    z 0.000000 0.000000 1.674050 
# 
# From -- ./inp_files/12114.got.cif
#   From: 2010.03.12/outbox.cif.g09.slc.cpg/sg65_7_cif.got.tgz:12114.got - 2010.04.10 20:52:16.
