data_PCOD8268816
_publ_section_title
;
Structure prediction by ZEFSAII (Michael W. Deem and Ramdas Pophale) SiO2 
 PCOD8268816
Probable space group: C M M M
;
_chemical_formula_sum "Si O2"
_cell_formula_units_Z 72
_cell_length_a 20.260901
_cell_length_b 16.540219
_cell_length_c 12.082240
_cell_angle_alpha 90.000000
_cell_angle_beta 90.000000
_cell_angle_gamma 90.000000
_cell_volume 4048.997124
_symmetry_space_group_name_H-M "C M M M"
_symmetry_group_IT_number 65
_symmetry_cell_setting 'orthorhombic'
loop_
_space_group_symop_operation_xyz
x,y,z
-x,-y,z
x,-y,-z
-x,y,-z
-x,-y,-z
x,y,-z
-x,y,z
x,-y,z
1/2+x,1/2+y,z
1/2-x,1/2-y,z
1/2+x,1/2-y,-z
1/2-x,1/2+y,-z
1/2-x,1/2-y,-z
1/2+x,1/2+y,-z
1/2-x,1/2+y,z
1/2+x,1/2-y,z
loop_
_atom_site_type_symbol
_atom_site_label
_atom_site_fract_x
_atom_site_fract_y
_atom_site_fract_z
Si Si1 0.376450 0.412510 0.500000
Si Si2 0.175477 0.777711 0.122330
Si Si3 0.857206 0.658610 0.300417
Si Si4 0.213504 0.092122 0.286888
Si Si5 0.577557 0.000000 0.627295
Si Si6 0.574741 0.755412 0.500000
O O1 0.412628 0.500000 0.500000
O O2 0.330678 0.405220 0.394149
O O3 0.430529 0.341822 0.500000
O O4 0.250000 0.750000 0.109751
O O5 0.133968 0.707601 0.185502
O O6 0.174405 0.862460 0.188482
O O7 0.144222 0.790117 0.000000
O O8 0.780560 0.638515 0.318586
O O9 0.899098 0.576757 0.302439
O O10 0.883954 0.716821 0.395074
O O11 0.228529 0.000000 0.249363
O O12 0.500000 0.000000 0.620889
O O13 0.606032 0.000000 0.500000
O O14 0.500000 0.791130 0.500000
#
# Coordination Sequence:
#
# PCOD8268816 Si02
#       6
#     8  16  16  16   8   8
#     4  10  21  34  52  84 111 135 172 227 282 345
#     4   9  19  34  53  78 107 140 182 228 275 325
#     4  11  20  34  54  80 112 147 180 227 272 327
#     4  10  19  32  54  83 113 139 173 218 286 339
#     4  11  22  34  51  81 119 153 186 223 266 326
#     4  12  23  35  55  79 108 151 189 222 272 329
#
# _framework density 17.782181999999999
#
# number of rings (size 3 to 8) (size 9 to 14) (size 15 to 20)
#    0.000    1.667    4.444    1.333    0.000    1.556 
#    0.000    0.556    0.000    3.333    0.000    0.000 
#    0.000    3.556    0.000    0.000    0.000    0.000 
#
# Total GULP energy -446249.132418 kJ/mol
# GULP energy per Si atom -12395.809234 kJ/mol
# Density = 1.774171 g / cm^3
# Si number density = 17.782182 Si / 1000 Ang^3
#
#
#
# Elastic Constant Matrix: (Units=GPa)
#
#
# Indices 1 2 3 4 5 6 
#
# 1 44.5835 31.9706 31.0379 0.0000 0.0000 0.0000
# 2 31.9706 146.2595 65.0647 0.0000 0.0000 0.0000
# 3 31.0379 65.0647 146.0763 0.0000 0.0000 0.0000
# 4 0.0000 0.0000 0.0000 33.4973 0.0000 0.0000
# 5 0.0000 0.0000 0.0000 0.0000 9.3828 0.0000
# 6 0.0000 0.0000 0.0000 0.0000 0.0000 13.1674
#
#
#
# Elastic Compliance Matrix: (Units=1/GPa)
#
#
# Indices 1 2 3 4 5 6 
#
# 1 0.028424 -0.004398 -0.004081 0.000000 0.000000 0.000000
# 2 -0.004398 0.009207 -0.003167 0.000000 0.000000 0.000000
# 3 -0.004081 -0.003167 0.009123 0.000000 0.000000 0.000000
# 4 0.000000 0.000000 0.000000 0.029853 0.000000 0.000000
# 5 0.000000 0.000000 0.000000 0.000000 0.106578 0.000000
# 6 0.000000 0.000000 0.000000 0.000000 0.000000 0.075945
#
#
# Mechanical properties :
#
#
# Convention : Reuss Voigt Hill
#
# Bulk Modulus (GPa) = 42.61756 65.89621 54.25688
# Shear Modulus (GPa) = 17.22698 25.13258 21.17978
#
# Velocity S-wave (km/s) = 3.11590 3.76354 3.45493
# Velocity P-wave (km/s) = 6.07977 7.48489 6.81862
#
# Compressibility (1/GPa) = 0.02346451
#
# Stress axis : x y z
#
# Youngs Moduli (GPa) = 35.18109 108.61102 109.61049
#
# Poissons Ratio (x) = 0.47766 0.44728
# Poissons Ratio (y) = 0.15472 0.34709
# Poissons Ratio (z) = 0.14356 0.34392
#
# Static dielectric constant tensor:
#      x y z
#    x 2.963520 0.000000 0.000000 
#    y 0.000000 3.767770 0.000000 
#    z 0.000000 0.000000 3.640120 
# 
# 
# High freq. dielectric constant tensor:
#      x y z
#    x 1.653720 0.000000 0.000000 
#    y 0.000000 1.710470 0.000000 
#    z 0.000000 0.000000 1.677070 
# 
# From -- ./inp_files/28501.got.cif
#   From: 2010.03.12/outbox.cif.g09.slc.cpg/sg65_15_cif.got.tgz:28501.got - 2010.04.10 20:52:16.
