data_PCOD8268964
_publ_section_title
;
Structure prediction by ZEFSAII (Michael W. Deem and Ramdas Pophale) SiO2 
 PCOD8268964
Probable space group: C M M M
;
_chemical_formula_sum "Si O2"
_cell_formula_units_Z 104
_cell_length_a 19.028004
_cell_length_b 8.979555
_cell_length_c 33.467045
_cell_angle_alpha 90.000000
_cell_angle_beta 90.000000
_cell_angle_gamma 90.000000
_cell_volume 5718.279993
_symmetry_space_group_name_H-M "C M M M"
_symmetry_group_IT_number 65
_symmetry_cell_setting 'orthorhombic'
loop_
_space_group_symop_operation_xyz
x,y,z
-x,-y,z
x,-y,-z
-x,y,-z
-x,-y,-z
x,y,-z
-x,y,z
x,-y,z
1/2+x,1/2+y,z
1/2-x,1/2-y,z
1/2+x,1/2-y,-z
1/2-x,1/2+y,-z
1/2-x,1/2-y,-z
1/2+x,1/2+y,-z
1/2-x,1/2+y,z
1/2+x,1/2-y,z
loop_
_atom_site_type_symbol
_atom_site_label
_atom_site_fract_x
_atom_site_fract_y
_atom_site_fract_z
Si Si1 0.917212 0.827613 0.653517
Si Si2 0.322494 0.170316 0.500000
Si Si3 0.916262 0.168255 0.812107
Si Si4 0.916350 0.331922 0.266428
Si Si5 0.673776 0.824468 0.413293
Si Si6 0.083147 0.670618 0.891729
Si Si7 0.321948 0.326093 0.953689
O O1 0.889666 0.756617 0.694782
O O2 0.880601 0.745009 0.617217
O O3 0.000000 0.804276 0.648693
O O4 0.896315 0.000000 0.653519
O O5 0.250000 0.250000 0.500000
O O6 0.360277 0.208274 0.457704
O O7 0.302080 0.000000 0.500000
O O8 0.886264 0.250506 0.772887
O O9 0.888562 0.254751 0.851046
O O10 0.000000 0.168743 0.811156
O O11 0.887282 0.000000 0.812986
O O12 0.887020 0.500000 0.267812
O O13 0.000000 0.332484 0.265029
O O14 0.750000 0.750000 0.408480
O O15 0.681316 0.000000 0.405209
O O16 0.107839 0.500000 0.892111
O O17 0.113867 0.756357 0.929576
O O18 0.000000 0.684560 0.894716
O O19 0.316615 0.500000 0.944692
O O20 0.250000 0.250000 0.939499
O O21 0.336642 0.292877 0.000000
#
# Coordination Sequence:
#
# PCOD8268964 Si02
#       7
#    16   8  16  16  16  16  16
#     4  10  20  33  49  72 102 134 169 208 249 293
#     4   8  16  30  49  72  95 123 161 203 245 294
#     4   9  16  27  45  70 100 132 166 205 248 293
#     4   9  16  27  45  69  97 130 167 205 246 293
#     4  10  19  33  53  75  99 128 164 205 250 299
#     4  10  20  33  51  77 107 136 168 209 254 297
#     4  10  21  37  56  76 100 133 172 211 252 302
#
# _framework density 18.187287000000001
#
# number of rings (size 3 to 8) (size 9 to 14) (size 15 to 20)
#    0.000    2.462    0.000    2.769    0.000    7.385 
#    0.000    1.923    0.000    3.231    0.000    6.462 
#    0.000    0.000    0.000    0.000    0.000    0.000 
#
# Total GULP energy -644649.935109 kJ/mol
# GULP energy per Si atom -12397.114137 kJ/mol
# Density = 1.814589 g / cm^3
# Si number density = 18.187287 Si / 1000 Ang^3
#
#
#
# Elastic Constant Matrix: (Units=GPa)
#
#
# Indices 1 2 3 4 5 6 
#
# 1 24.4741 32.6234 37.2524 0.0000 0.0000 0.0000
# 2 32.6234 150.8626 86.3301 0.0000 0.0000 0.0000
# 3 37.2524 86.3301 152.0422 0.0000 0.0000 0.0000
# 4 0.0000 0.0000 0.0000 37.3124 0.0000 0.0000
# 5 0.0000 0.0000 0.0000 0.0000 1.6352 0.0000
# 6 0.0000 0.0000 0.0000 0.0000 0.0000 26.0094
#
#
#
# Elastic Compliance Matrix: (Units=1/GPa)
#
#
# Indices 1 2 3 4 5 6 
#
# 1 0.071151 -0.008014 -0.012882 0.000000 0.000000 0.000000
# 2 -0.008014 0.010722 -0.004124 0.000000 0.000000 0.000000
# 3 -0.012882 -0.004124 0.012075 0.000000 0.000000 0.000000
# 4 0.000000 0.000000 0.000000 0.026801 0.000000 0.000000
# 5 0.000000 0.000000 0.000000 0.000000 0.611563 0.000000
# 6 0.000000 0.000000 0.000000 0.000000 0.000000 0.038448
#
#
# Mechanical properties :
#
#
# Convention : Reuss Voigt Hill
#
# Bulk Modulus (GPa) = 22.77592 71.08786 46.93189
# Shear Modulus (GPa) = 5.98490 24.40292 15.19391
#
# Velocity S-wave (km/s) = 1.81600 3.66697 2.89349
# Velocity P-wave (km/s) = 4.11671 7.55648 6.08472
#
# Compressibility (1/GPa) = 0.04390602
#
# Stress axis : x y z
#
# Youngs Moduli (GPa) = 14.05466 93.26944 82.81410
#
# Poissons Ratio (x) = 0.74748 1.06685
# Poissons Ratio (y) = 0.11264 0.34154
# Poissons Ratio (z) = 0.18106 0.38466
#
# Static dielectric constant tensor:
#      x y z
#    x 2.833900 0.000000 0.000000 
#    y 0.000000 3.616280 0.000000 
#    z 0.000000 0.000000 3.897630 
# 
# 
# High freq. dielectric constant tensor:
#      x y z
#    x 1.648760 0.000000 0.000000 
#    y 0.000000 1.726760 0.000000 
#    z 0.000000 0.000000 1.724300 
# 
# From -- ./inp_files/76926.got.cif
#   From: 2010.03.12/outbox.cif.g09.slc.cpg/sg65_39_cif.got.tgz:76926.got - 2010.04.10 20:52:16.
