data_PCOD8268361
_publ_section_title
;
Structure prediction by ZEFSAII (Michael W. Deem and Ramdas Pophale) SiO2 
 PCOD8268361
Probable space group: C M M M
;
_chemical_formula_sum "Si O2"
_cell_formula_units_Z 64
_cell_length_a 9.007971
_cell_length_b 35.753321
_cell_length_c 12.372041
_cell_angle_alpha 90.000000
_cell_angle_beta 90.000000
_cell_angle_gamma 90.000000
_cell_volume 3984.599884
_symmetry_space_group_name_H-M "C M M M"
_symmetry_group_IT_number 65
_symmetry_cell_setting 'orthorhombic'
loop_
_space_group_symop_operation_xyz
x,y,z
-x,-y,z
x,-y,-z
-x,y,-z
-x,-y,-z
x,y,-z
-x,y,z
x,-y,z
1/2+x,1/2+y,z
1/2-x,1/2-y,z
1/2+x,1/2-y,-z
1/2-x,1/2+y,-z
1/2-x,1/2-y,-z
1/2+x,1/2+y,-z
1/2-x,1/2+y,z
1/2+x,1/2-y,z
loop_
_atom_site_type_symbol
_atom_site_label
_atom_site_fract_x
_atom_site_fract_y
_atom_site_fract_z
Si Si1 0.832202 0.000000 0.628944
Si Si2 0.829869 0.852089 0.628039
Si Si3 0.674931 0.209577 0.765810
Si Si4 0.832462 0.426493 0.371344
Si Si5 0.669798 0.788565 0.000000
O O1 0.748706 0.963388 0.673991
O O2 0.831732 0.000000 0.500000
O O3 0.000000 0.000000 0.673069
O O4 0.816493 0.848957 0.500000
O O5 0.744814 0.816999 0.676735
O O6 0.754845 0.890177 0.670713
O O7 0.000000 0.852013 0.666036
O O8 0.500000 0.213619 0.743608
O O9 0.750000 0.250000 0.755491
O O10 0.706939 0.191073 0.885671
O O11 0.832972 0.427458 0.500000
O O12 0.000000 0.425383 0.326175
O O13 0.750000 0.750000 0.000000
O O14 0.500000 0.777464 0.000000
#
# Coordination Sequence:
#
# PCOD8268361 Si02
#       5
#     8  16  16  16   8
#     4   9  15  23  37  57  81 110 143 178 215 255
#     4  10  20  32  44  61  88 120 151 182 217 258
#     4  10  19  32  49  67  87 112 144 181 221 263
#     4   9  16  26  40  58  81 111 146 181 216 255
#     4   8  16  30  48  68  86 105 134 177 224 264
#
# _framework density 16.06184
#
# number of rings (size 3 to 8) (size 9 to 14) (size 15 to 20)
#    0.000    2.625    0.000    2.625    0.000    7.500 
#    0.000    0.000    0.000    0.000    0.000    0.000 
#    0.000    1.000    0.000   10.750    0.000    8.250 
#
# Total GULP energy -396568.028365 kJ/mol
# GULP energy per Si atom -12392.750886 kJ/mol
# Density = 1.602528 g / cm^3
# Si number density = 16.061840 Si / 1000 Ang^3
#
#
#
# Elastic Constant Matrix: (Units=GPa)
#
#
# Indices 1 2 3 4 5 6 
#
# 1 137.1450 67.6447 28.4465 0.0000 0.0000 0.0000
# 2 67.6447 121.1140 28.1672 0.0000 0.0000 0.0000
# 3 28.4465 28.1672 24.3066 0.0000 0.0000 0.0000
# 4 0.0000 0.0000 0.0000 0.4799 0.0000 0.0000
# 5 0.0000 0.0000 0.0000 0.0000 14.0279 0.0000
# 6 0.0000 0.0000 0.0000 0.0000 0.0000 34.6950
#
#
#
# Elastic Compliance Matrix: (Units=1/GPa)
#
#
# Indices 1 2 3 4 5 6 
#
# 1 0.011079 -0.004343 -0.007934 0.000000 0.000000 0.000000
# 2 -0.004343 0.013005 -0.009988 0.000000 0.000000 0.000000
# 3 -0.007934 -0.009988 0.062000 0.000000 0.000000 0.000000
# 4 0.000000 0.000000 0.000000 2.083933 0.000000 0.000000
# 5 0.000000 0.000000 0.000000 0.000000 0.071287 0.000000
# 6 0.000000 0.000000 0.000000 0.000000 0.000000 0.028823
#
#
# Mechanical properties :
#
#
# Convention : Reuss Voigt Hill
#
# Bulk Modulus (GPa) = 24.06420 59.00915 41.53668
# Shear Modulus (GPa) = 2.14730 20.39436 11.27083
#
# Velocity S-wave (km/s) = 1.15750 3.56721 2.65186
# Velocity P-wave (km/s) = 4.09892 7.33383 5.94080
#
# Compressibility (1/GPa) = 0.04155551
#
# Stress axis : x y z
#
# Youngs Moduli (GPa) = 90.25942 76.89236 16.12892
#
# Poissons Ratio (x) = 0.33393 0.12796
# Poissons Ratio (y) = 0.39198 0.16110
# Poissons Ratio (z) = 0.71608 0.76802
#
# Static dielectric constant tensor:
#      x y z
#    x 3.296950 0.000000 0.000000 
#    y 0.000000 3.014650 0.000000 
#    z 0.000000 0.000000 2.981760 
# 
# 
# High freq. dielectric constant tensor:
#      x y z
#    x 1.641700 0.000000 0.000000 
#    y 0.000000 1.610400 0.000000 
#    z 0.000000 0.000000 1.566080 
# 
# From -- ./inp_files/20993.got.cif
#   From: 2010.03.12/outbox.cif.g09.slc.cpg/sg65_11_cif.got.tgz:20993.got - 2010.04.10 20:52:16.
