data_PCOD8268151
_publ_section_title
;
Structure prediction by ZEFSAII (Michael W. Deem and Ramdas Pophale) SiO2 
 PCOD8268151
Probable space group: C M M M
;
_chemical_formula_sum "Si O2"
_cell_formula_units_Z 72
_cell_length_a 9.045325
_cell_length_b 18.677035
_cell_length_c 23.584813
_cell_angle_alpha 90.000000
_cell_angle_beta 90.000000
_cell_angle_gamma 90.000000
_cell_volume 3984.414809
_symmetry_space_group_name_H-M "C M M M"
_symmetry_group_IT_number 65
_symmetry_cell_setting 'orthorhombic'
loop_
_space_group_symop_operation_xyz
x,y,z
-x,-y,z
x,-y,-z
-x,y,-z
-x,-y,-z
x,y,-z
-x,y,z
x,-y,z
1/2+x,1/2+y,z
1/2-x,1/2-y,z
1/2+x,1/2-y,-z
1/2-x,1/2+y,-z
1/2-x,1/2-y,-z
1/2+x,1/2+y,-z
1/2-x,1/2+y,z
1/2+x,1/2-y,z
loop_
_atom_site_type_symbol
_atom_site_label
_atom_site_fract_x
_atom_site_fract_y
_atom_site_fract_z
Si Si1 0.672164 0.582645 0.392077
Si Si2 0.830971 0.584433 0.721798
Si Si3 0.674594 0.673024 0.182865
Si Si4 0.325654 0.326322 0.500000
Si Si5 0.828525 0.824934 0.940174
O O1 0.500000 0.593975 0.378793
O O2 0.705812 0.500000 0.406376
O O3 0.764275 0.609609 0.338060
O O4 0.725646 0.629575 0.445021
O O5 0.815963 0.500000 0.728253
O O6 0.738326 0.618497 0.772065
O O7 0.000000 0.610131 0.724994
O O8 0.500000 0.681692 0.192388
O O9 0.750000 0.750000 0.190221
O O10 0.711972 0.638385 0.120204
O O11 0.500000 0.315672 0.500000
O O12 0.250000 0.250000 0.500000
O O13 0.750000 0.750000 0.942310
O O14 0.000000 0.807638 0.939079
O O15 0.789505 0.867298 0.000000
#
# Coordination Sequence:
#
# PCOD8268151 Si02
#       5
#    16  16  16   8  16
#     4   9  18  35  57  76  96 128 170 207 240 287
#     4  10  21  36  53  74 101 133 170 211 252 295
#     4  10  19  31  50  75 102 132 166 206 253 302
#     4  10  21  35  53  79 107 132 158 196 246 294
#     4   8  14  25  42  66  95 125 159 200 245 294
#
# _framework density 18.070406999999999
#
# number of rings (size 3 to 8) (size 9 to 14) (size 15 to 20)
#    0.000    2.667    0.000    1.667    0.000    5.333 
#    0.000    2.222    0.000    4.000    0.000    4.667 
#    0.000    0.000    0.000    0.000    0.000    0.000 
#
# Total GULP energy -446018.216481 kJ/mol
# GULP energy per Si atom -12389.394902 kJ/mol
# Density = 1.802928 g / cm^3
# Si number density = 18.070407 Si / 1000 Ang^3
#
#
#
# Elastic Constant Matrix: (Units=GPa)
#
#
# Indices 1 2 3 4 5 6 
#
# 1 75.5597 30.5006 70.4203 0.0000 0.0000 0.0000
# 2 30.5006 48.5406 61.7802 0.0000 0.0000 0.0000
# 3 70.4203 61.7802 202.1782 0.0000 0.0000 0.0000
# 4 0.0000 0.0000 0.0000 -6.0950 0.0000 0.0000
# 5 0.0000 0.0000 0.0000 0.0000 22.8571 0.0000
# 6 0.0000 0.0000 0.0000 0.0000 0.0000 27.3999
#
#
#
# Elastic Compliance Matrix: (Units=1/GPa)
#
#
# Indices 1 2 3 4 5 6 
#
# 1 0.020699 -0.006268 -0.005294 0.000000 0.000000 0.000000
# 2 -0.006268 0.035611 -0.008699 0.000000 0.000000 0.000000
# 3 -0.005294 -0.008699 0.009448 0.000000 0.000000 0.000000
# 4 0.000000 0.000000 0.000000 -0.164068 0.000000 0.000000
# 5 0.000000 0.000000 0.000000 0.000000 0.043750 0.000000
# 6 0.000000 0.000000 0.000000 0.000000 0.000000 0.036497
#
#
# Mechanical properties :
#
#
# Convention : Reuss Voigt Hill
#
# Bulk Modulus (GPa) = 39.62512 72.40899 56.01705
# Shear Modulus (GPa) = 161.96915 19.73754 90.85334
#
# Velocity S-wave (km/s) = 9.47770 3.30852 7.09835
# Velocity P-wave (km/s) = 11.90567 7.39949 9.91205
#
# Compressibility (1/GPa) = 0.02523652
#
# Stress axis : x y z
#
# Youngs Moduli (GPa) = 48.31186 28.08134 105.83992
#
# Poissons Ratio (x) = 0.17601 0.56035
# Poissons Ratio (y) = 0.30281 0.92066
# Poissons Ratio (z) = 0.25578 0.24427
#
# Static dielectric constant tensor:
#      x y z
#    x 3.405010 0.000000 0.000000 
#    y 0.000000 2.946490 0.000000 
#    z 0.000000 0.000000 4.027520 
# 
# 
# High freq. dielectric constant tensor:
#      x y z
#    x 1.705120 0.000000 0.000000 
#    y 0.000000 1.657010 0.000000 
#    z 0.000000 0.000000 1.730230 
# 
# From -- ./inp_files/59249.got.cif
#   From: 2010.03.12/outbox.cif.g09.slc.cpg/sg65_30_cif.got.tgz:59249.got - 2010.04.10 20:52:16.
