data_PCOD8268038
_publ_section_title
;
Structure prediction by ZEFSAII (Michael W. Deem and Ramdas Pophale) SiO2 
 PCOD8268038
Probable space group: C M M M
;
_chemical_formula_sum "Si O2"
_cell_formula_units_Z 104
_cell_length_a 28.483194
_cell_length_b 9.109138
_cell_length_c 22.822300
_cell_angle_alpha 90.000000
_cell_angle_beta 90.000000
_cell_angle_gamma 90.000000
_cell_volume 5921.413361
_symmetry_space_group_name_H-M "C M M M"
_symmetry_group_IT_number 65
_symmetry_cell_setting 'orthorhombic'
loop_
_space_group_symop_operation_xyz
x,y,z
-x,-y,z
x,-y,-z
-x,y,-z
-x,-y,-z
x,y,-z
-x,y,z
x,-y,z
1/2+x,1/2+y,z
1/2-x,1/2-y,z
1/2+x,1/2-y,-z
1/2-x,1/2+y,-z
1/2-x,1/2-y,-z
1/2+x,1/2+y,-z
1/2-x,1/2+y,z
1/2+x,1/2-y,z
loop_
_atom_site_type_symbol
_atom_site_label
_atom_site_fract_x
_atom_site_fract_y
_atom_site_fract_z
Si Si1 0.298289 0.329575 0.220958
Si Si2 0.948632 0.672356 0.271160
Si Si3 0.199915 0.673631 0.000000
Si Si4 0.147879 0.832661 0.101591
Si Si5 0.146900 0.671932 0.677037
Si Si6 0.947929 0.831527 0.848674
Si Si7 0.702650 0.828870 0.434570
O O1 0.288299 0.500000 0.232754
O O2 0.250000 0.250000 0.205411
O O3 0.332901 0.305938 0.166586
O O4 0.320789 0.261502 0.278795
O O5 0.949342 0.500000 0.262822
O O6 0.907759 0.718693 0.316429
O O7 0.936764 0.737095 0.208147
O O8 0.000000 0.727663 0.293658
O O9 0.250000 0.750000 0.000000
O O10 0.171542 0.719929 0.057465
O O11 0.207010 0.500000 0.000000
O O12 0.091816 0.799675 0.102463
O O13 0.157832 0.000000 0.081058
O O14 0.154080 0.500000 0.690397
O O15 0.161304 0.711898 0.610620
O O16 0.000000 0.795522 0.874221
O O17 0.944584 0.000000 0.828668
O O18 0.687376 0.778331 0.500000
O O19 0.750000 0.750000 0.414175
O O20 0.713641 0.000000 0.433275
#
# Coordination Sequence:
#
# PCOD8268038 Si02
#       7
#    16  16   8  16  16  16  16
#     4  11  22  34  50  75 104 134 165 207 257 305
#     4   9  17  29  47  73 104 135 166 203 252 307
#     4  12  26  42  61  80 101 137 178 217 255 302
#     4  10  21  38  57  79 106 137 171 210 253 303
#     4  10  19  31  49  73 101 133 168 210 257 304
#     4   9  17  32  55  81 107 135 168 206 250 299
#     4   9  18  32  48  67  94 131 173 213 254 302
#
# _framework density 17.563375000000001
#
# number of rings (size 3 to 8) (size 9 to 14) (size 15 to 20)
#    0.000    2.154    1.538    2.077    0.000    4.923 
#    0.000    0.385    0.000    2.769    0.000    3.231 
#    0.000    0.000    0.000    9.077    0.000    9.538 
#
# Total GULP energy -644697.589233 kJ/mol
# GULP energy per Si atom -12398.030562 kJ/mol
# Density = 1.752340 g / cm^3
# Si number density = 17.563375 Si / 1000 Ang^3
#
#
#
# Elastic Constant Matrix: (Units=GPa)
#
#
# Indices 1 2 3 4 5 6 
#
# 1 137.9389 41.7580 51.7137 0.0000 0.0000 0.0000
# 2 41.7580 50.1315 29.0358 0.0000 0.0000 0.0000
# 3 51.7137 29.0358 80.3065 0.0000 0.0000 0.0000
# 4 0.0000 0.0000 0.0000 23.1002 0.0000 0.0000
# 5 0.0000 0.0000 0.0000 0.0000 23.8416 0.0000
# 6 0.0000 0.0000 0.0000 0.0000 0.0000 20.8017
#
#
#
# Elastic Compliance Matrix: (Units=1/GPa)
#
#
# Indices 1 2 3 4 5 6 
#
# 1 0.010962 -0.006378 -0.004753 0.000000 0.000000 0.000000
# 2 -0.006378 0.028943 -0.006357 0.000000 0.000000 0.000000
# 3 -0.004753 -0.006357 0.017812 0.000000 0.000000 0.000000
# 4 0.000000 0.000000 0.000000 0.043290 0.000000 0.000000
# 5 0.000000 0.000000 0.000000 0.000000 0.041943 0.000000
# 6 0.000000 0.000000 0.000000 0.000000 0.000000 0.048073
#
#
# Mechanical properties :
#
#
# Convention : Reuss Voigt Hill
#
# Bulk Modulus (GPa) = 43.97681 57.04356 50.51019
# Shear Modulus (GPa) = 21.40596 23.27334 22.33965
#
# Velocity S-wave (km/s) = 3.49490 3.64415 3.57030
# Velocity P-wave (km/s) = 6.43265 7.08912 6.76885
#
# Compressibility (1/GPa) = 0.02273925
#
# Stress axis : x y z
#
# Youngs Moduli (GPa) = 91.22028 34.55118 56.14325
#
# Poissons Ratio (x) = 0.22038 0.26686
# Poissons Ratio (y) = 0.58184 0.35691
# Poissons Ratio (z) = 0.43358 0.21965
#
# Static dielectric constant tensor:
#      x y z
#    x 3.765840 0.000000 0.000000 
#    y 0.000000 3.271490 0.000000 
#    z 0.000000 0.000000 3.182770 
# 
# 
# High freq. dielectric constant tensor:
#      x y z
#    x 1.691800 0.000000 0.000000 
#    y 0.000000 1.678350 0.000000 
#    z 0.000000 0.000000 1.656830 
# 
# From -- ./inp_files/71853.got.cif
#   From: 2010.03.12/outbox.cif.g09.slc.cpg/sg65_36_cif.got.tgz:71853.got - 2010.04.10 20:52:16.
