data_PCOD8268467
_publ_section_title
;
Structure prediction by ZEFSAII (Michael W. Deem and Ramdas Pophale) SiO2 
 PCOD8268467
Probable space group: C M M M
;
_chemical_formula_sum "Si O2"
_cell_formula_units_Z 96
_cell_length_a 29.748525
_cell_length_b 19.482680
_cell_length_c 9.307680
_cell_angle_alpha 90.000000
_cell_angle_beta 90.000000
_cell_angle_gamma 90.000000
_cell_volume 5394.554417
_symmetry_space_group_name_H-M "C M M M"
_symmetry_group_IT_number 65
_symmetry_cell_setting 'orthorhombic'
loop_
_space_group_symop_operation_xyz
x,y,z
-x,-y,z
x,-y,-z
-x,y,-z
-x,-y,-z
x,y,-z
-x,y,z
x,-y,z
1/2+x,1/2+y,z
1/2-x,1/2-y,z
1/2+x,1/2-y,-z
1/2-x,1/2+y,-z
1/2-x,1/2-y,-z
1/2+x,1/2+y,-z
1/2-x,1/2+y,z
1/2+x,1/2-y,z
loop_
_atom_site_type_symbol
_atom_site_label
_atom_site_fract_x
_atom_site_fract_y
_atom_site_fract_z
Si Si1 0.667865 0.076138 0.665124
Si Si2 0.553380 0.424394 0.338958
Si Si3 0.122814 0.286675 0.668058
Si Si4 0.297740 0.284457 0.834478
Si Si5 0.757096 0.923847 0.165881
Si Si6 0.947114 0.794462 0.833847
O O1 0.682375 0.078817 0.500000
O O2 0.629354 0.132081 0.696680
O O3 0.711878 0.096105 0.752537
O O4 0.649925 0.000000 0.707079
O O5 0.570390 0.407002 0.500000
O O6 0.500000 0.425020 0.337184
O O7 0.571105 0.500000 0.291937
O O8 0.570989 0.367012 0.228644
O O9 0.118059 0.270091 0.500000
O O10 0.164807 0.244586 0.729293
O O11 0.077168 0.266755 0.749522
O O12 0.250000 0.250000 0.799970
O O13 0.294626 0.366316 0.802265
O O14 0.311487 0.270690 0.000000
O O15 0.774711 0.000000 0.210981
O O16 0.743692 0.922070 0.000000
O O17 0.000000 0.785242 0.809833
O O18 0.933790 0.792119 0.000000
#
# Coordination Sequence:
#
# PCOD8268467 Si02
#       6
#    16  16  16  16  16  16
#     4   9  18  32  50  74 102 130 165 210 256 307
#     4   8  14  27  49  75 101 129 163 205 252 302
#     4  11  22  34  53  78 103 135 173 213 261 315
#     4  10  19  32  50  74 105 137 168 208 254 301
#     4   9  17  30  49  72 100 137 175 207 246 297
#     4  10  21  36  54  76 103 136 175 219 264 310
#
# _framework density 17.795722999999999
#
# number of rings (size 3 to 8) (size 9 to 14) (size 15 to 20)
#    0.000    2.500    1.667    1.500    0.000    3.000 
#    0.000    2.500    0.000    3.500    0.000    3.500 
#    0.000    0.000    0.000    0.000    0.000    0.000 
#
# Total GULP energy -595035.172075 kJ/mol
# GULP energy per Si atom -12396.566085 kJ/mol
# Density = 1.775522 g / cm^3
# Si number density = 17.795723 Si / 1000 Ang^3
#
#
#
# Elastic Constant Matrix: (Units=GPa)
#
#
# Indices 1 2 3 4 5 6 
#
# 1 52.7273 41.3304 41.6501 0.0000 0.0000 0.0000
# 2 41.3304 120.0136 58.8476 0.0000 0.0000 0.0000
# 3 41.6501 58.8476 97.9415 0.0000 0.0000 0.0000
# 4 0.0000 0.0000 0.0000 25.4993 0.0000 0.0000
# 5 0.0000 0.0000 0.0000 0.0000 24.0458 0.0000
# 6 0.0000 0.0000 0.0000 0.0000 0.0000 22.7081
#
#
#
# Elastic Compliance Matrix: (Units=1/GPa)
#
#
# Indices 1 2 3 4 5 6 
#
# 1 0.031373 -0.006043 -0.009711 0.000000 0.000000 0.000000
# 2 -0.006043 0.012976 -0.005227 0.000000 0.000000 0.000000
# 3 -0.009711 -0.005227 0.017480 0.000000 0.000000 0.000000
# 4 0.000000 0.000000 0.000000 0.039217 0.000000 0.000000
# 5 0.000000 0.000000 0.000000 0.000000 0.041587 0.000000
# 6 0.000000 0.000000 0.000000 0.000000 0.000000 0.044037
#
#
# Mechanical properties :
#
#
# Convention : Reuss Voigt Hill
#
# Bulk Modulus (GPa) = 50.33080 61.59317 55.96199
# Shear Modulus (GPa) = 21.25358 23.04093 22.14726
#
# Velocity S-wave (km/s) = 3.45963 3.60216 3.53161
# Velocity P-wave (km/s) = 6.65602 7.21021 6.93865
#
# Compressibility (1/GPa) = 0.01986855
#
# Stress axis : x y z
#
# Youngs Moduli (GPa) = 31.87496 77.06271 57.20688
#
# Poissons Ratio (x) = 0.46566 0.55552
# Poissons Ratio (y) = 0.19261 0.29903
# Poissons Ratio (z) = 0.30953 0.40282
#
# Static dielectric constant tensor:
#      x y z
#    x 2.928810 0.000000 0.000000 
#    y 0.000000 3.806220 0.000000 
#    z 0.000000 0.000000 3.370930 
# 
# 
# High freq. dielectric constant tensor:
#      x y z
#    x 1.646320 0.000000 0.000000 
#    y 0.000000 1.702130 0.000000 
#    z 0.000000 0.000000 1.693500 
# 
# From -- ./inp_files/12275.got.cif
#   From: 2010.03.12/outbox.cif.g09.slc.cpg/sg65_7_cif.got.tgz:12275.got - 2010.04.10 20:52:16.
