data_PCOD8268076
_publ_section_title
;
Structure prediction by ZEFSAII (Michael W. Deem and Ramdas Pophale) SiO2 
 PCOD8268076
Probable space group: C M M M
;
_chemical_formula_sum "Si O2"
_cell_formula_units_Z 96
_cell_length_a 27.781741
_cell_length_b 17.111565
_cell_length_c 11.739683
_cell_angle_alpha 90.000000
_cell_angle_beta 90.000000
_cell_angle_gamma 90.000000
_cell_volume 5580.916947
_symmetry_space_group_name_H-M "C M M M"
_symmetry_group_IT_number 65
_symmetry_cell_setting 'orthorhombic'
loop_
_space_group_symop_operation_xyz
x,y,z
-x,-y,z
x,-y,-z
-x,y,-z
-x,-y,-z
x,y,-z
-x,y,z
x,-y,z
1/2+x,1/2+y,z
1/2-x,1/2-y,z
1/2+x,1/2-y,-z
1/2-x,1/2+y,-z
1/2-x,1/2-y,-z
1/2+x,1/2+y,-z
1/2-x,1/2+y,z
1/2+x,1/2-y,z
loop_
_atom_site_type_symbol
_atom_site_label
_atom_site_fract_x
_atom_site_fract_y
_atom_site_fract_z
Si Si1 0.554070 0.278274 0.631158
Si Si2 0.191542 0.142787 0.369244
Si Si3 0.147046 0.689547 0.370258
Si Si4 0.251496 0.657736 0.000000
Si Si5 0.642732 0.591160 0.000000
Si Si6 0.101808 0.088069 0.760861
Si Si7 0.783677 0.592654 0.765436
O O1 0.562875 0.303026 0.500000
O O2 0.500000 0.246940 0.651030
O O3 0.591836 0.210244 0.663411
O O4 0.562114 0.355158 0.707036
O O5 0.192332 0.117435 0.500000
O O6 0.179804 0.233881 0.354660
O O7 0.151969 0.090502 0.306551
O O8 0.243155 0.126408 0.317007
O O9 0.149851 0.658819 0.500000
O O10 0.165390 0.622963 0.284274
O O11 0.250000 0.750000 0.000000
O O12 0.307242 0.636105 0.000000
O O13 0.223657 0.623800 0.107999
O O14 0.611396 0.614664 0.890501
O O15 0.655761 0.500000 0.000000
O O16 0.081483 0.000000 0.756467
O O17 0.783429 0.500000 0.765799
#
# Coordination Sequence:
#
# PCOD8268076 Si02
#       7
#    16  16  16   8   8  16  16
#     4   9  19  36  57  78 102 134 174 223 272 319
#     4  10  19  31  49  74 106 143 178 209 250 310
#     4   9  19  35  53  75 105 137 175 217 262 314
#     4  12  24  36  54  74 103 148 190 216 247 299
#     4  10  20  36  51  71 107 148 180 213 254 304
#     4  10  19  31  50  74 106 142 176 216 262 311
#     4  12  23  34  50  76 109 140 175 218 260 305
#
# _framework density 17.201473
#
# number of rings (size 3 to 8) (size 9 to 14) (size 15 to 20)
#    0.000    1.833    1.667    4.750    2.333    5.000 
#    0.000    1.250    0.000    2.000    0.000    2.333 
#    0.000    1.333    0.000    0.000    0.000    0.000 
#
# Total GULP energy -595311.826325 kJ/mol
# GULP energy per Si atom -12402.329715 kJ/mol
# Density = 1.716232 g / cm^3
# Si number density = 17.201473 Si / 1000 Ang^3
#
#
#
# Elastic Constant Matrix: (Units=GPa)
#
#
# Indices 1 2 3 4 5 6 
#
# 1 105.4420 41.3230 44.1001 0.0000 0.0000 0.0000
# 2 41.3230 52.8642 30.5455 0.0000 0.0000 0.0000
# 3 44.1001 30.5455 117.1103 0.0000 0.0000 0.0000
# 4 0.0000 0.0000 0.0000 21.7391 0.0000 0.0000
# 5 0.0000 0.0000 0.0000 0.0000 -44.8170 0.0000
# 6 0.0000 0.0000 0.0000 0.0000 0.0000 14.8072
#
#
#
# Elastic Compliance Matrix: (Units=1/GPa)
#
#
# Indices 1 2 3 4 5 6 
#
# 1 0.014487 -0.009622 -0.002946 0.000000 0.000000 0.000000
# 2 -0.009622 0.028664 -0.003853 0.000000 0.000000 0.000000
# 3 -0.002946 -0.003853 0.010653 0.000000 0.000000 0.000000
# 4 0.000000 0.000000 0.000000 0.046000 0.000000 0.000000
# 5 0.000000 0.000000 0.000000 0.000000 -0.022313 0.000000
# 6 0.000000 0.000000 0.000000 0.000000 0.000000 0.067535
#
#
# Mechanical properties :
#
#
# Convention : Reuss Voigt Hill
#
# Bulk Modulus (GPa) = 47.70369 56.37263 52.03816
# Shear Modulus (GPa) = 27.04828 8.97572 18.01200
#
# Velocity S-wave (km/s) = 3.96970 2.28677 3.23943
# Velocity P-wave (km/s) = 6.98598 6.30996 6.65656
#
# Compressibility (1/GPa) = 0.02096274
#
# Stress axis : x y z
#
# Youngs Moduli (GPa) = 69.02859 34.88689 93.86913
#
# Poissons Ratio (x) = 0.33568 0.27650
# Poissons Ratio (y) = 0.66420 0.36168
# Poissons Ratio (z) = 0.20333 0.13442
#
# Static dielectric constant tensor:
#      x y z
#    x 3.099040 0.000000 0.000000 
#    y 0.000000 3.057490 0.000000 
#    z 0.000000 0.000000 3.401850 
# 
# 
# High freq. dielectric constant tensor:
#      x y z
#    x 1.646420 0.000000 0.000000 
#    y 0.000000 1.646240 0.000000 
#    z 0.000000 0.000000 1.675700 
# 
# From -- ./inp_files/32479.got.cif
#   From: 2010.03.12/outbox.cif.g09.slc.cpg/sg65_17_cif.got.tgz:32479.got - 2010.04.10 20:52:16.
