data_PCOD8268137
_publ_section_title
;
Structure prediction by ZEFSAII (Michael W. Deem and Ramdas Pophale) SiO2 
 PCOD8268137
Probable space group: C M M M
;
_chemical_formula_sum "Si O2"
_cell_formula_units_Z 80
_cell_length_a 32.815590
_cell_length_b 14.579885
_cell_length_c 9.553921
_cell_angle_alpha 90.000000
_cell_angle_beta 90.000000
_cell_angle_gamma 90.000000
_cell_volume 4571.049889
_symmetry_space_group_name_H-M "C M M M"
_symmetry_group_IT_number 65
_symmetry_cell_setting 'orthorhombic'
loop_
_space_group_symop_operation_xyz
x,y,z
-x,-y,z
x,-y,-z
-x,y,-z
-x,-y,-z
x,y,-z
-x,y,z
x,-y,z
1/2+x,1/2+y,z
1/2-x,1/2-y,z
1/2+x,1/2-y,-z
1/2-x,1/2+y,-z
1/2-x,1/2-y,-z
1/2+x,1/2+y,-z
1/2-x,1/2+y,z
1/2+x,1/2-y,z
loop_
_atom_site_type_symbol
_atom_site_label
_atom_site_fract_x
_atom_site_fract_y
_atom_site_fract_z
Si Si1 0.851410 0.605478 0.162833
Si Si2 0.260093 0.144115 0.842165
Si Si3 0.312700 0.600433 0.343133
Si Si4 0.116424 0.234094 0.666666
Si Si5 0.954400 0.102254 0.666070
O O1 0.863674 0.500000 0.188498
O O2 0.805217 0.622706 0.214462
O O3 0.881651 0.668408 0.254702
O O4 0.855775 0.632391 0.000000
O O5 0.250000 0.250000 0.832272
O O6 0.227726 0.091625 0.748387
O O7 0.256249 0.106961 0.000000
O O8 0.299648 0.627904 0.500000
O O9 0.333908 0.500000 0.342026
O O10 0.344494 0.674737 0.285524
O O11 0.115205 0.249597 0.500000
O O12 0.076813 0.179073 0.721989
O O13 0.951689 0.099428 0.500000
O O14 0.000000 0.129701 0.714569
O O15 0.943583 0.000000 0.723290
#
# Coordination Sequence:
#
# PCOD8268137 Si02
#       5
#    16  16  16  16  16
#     4  10  21  36  51  67  92 129 170 208 245 285
#     4  10  19  33  51  67  88 123 168 210 243 281
#     4  10  20  31  45  69 100 129 155 191 242 292
#     4  10  19  31  50  75 101 125 157 200 240 283
#     4   8  14  27  50  79 107 132 156 185 230 290
#
# _framework density 17.501450999999999
#
# number of rings (size 3 to 8) (size 9 to 14) (size 15 to 20)
#    0.000    2.400    2.000    1.800    0.000    5.200 
#    0.000    0.000    0.000    3.000    0.000    5.600 
#    0.000    0.000    0.000    0.000    0.000    0.000 
#
# Total GULP energy -495883.053083 kJ/mol
# GULP energy per Si atom -12397.076327 kJ/mol
# Density = 1.746162 g / cm^3
# Si number density = 17.501451 Si / 1000 Ang^3
#
#
#
# Elastic Constant Matrix: (Units=GPa)
#
#
# Indices 1 2 3 4 5 6 
#
# 1 104.8816 58.9048 36.2770 0.0000 0.0000 0.0000
# 2 58.9048 117.8105 36.8298 0.0000 0.0000 0.0000
# 3 36.2770 36.8298 42.0944 0.0000 0.0000 0.0000
# 4 0.0000 0.0000 0.0000 16.4465 0.0000 0.0000
# 5 0.0000 0.0000 0.0000 0.0000 11.6553 0.0000
# 6 0.0000 0.0000 0.0000 0.0000 0.0000 29.8958
#
#
#
# Elastic Compliance Matrix: (Units=1/GPa)
#
#
# Indices 1 2 3 4 5 6 
#
# 1 0.015386 -0.004883 -0.008987 0.000000 0.000000 0.000000
# 2 -0.004883 0.013234 -0.007370 0.000000 0.000000 0.000000
# 3 -0.008987 -0.007370 0.037950 0.000000 0.000000 0.000000
# 4 0.000000 0.000000 0.000000 0.060803 0.000000 0.000000
# 5 0.000000 0.000000 0.000000 0.000000 0.085798 0.000000
# 6 0.000000 0.000000 0.000000 0.000000 0.000000 0.033449
#
#
# Mechanical properties :
#
#
# Convention : Reuss Voigt Hill
#
# Bulk Modulus (GPa) = 41.51414 58.75662 50.13538
# Shear Modulus (GPa) = 16.82768 20.45120 18.63944
#
# Velocity S-wave (km/s) = 3.10417 3.42210 3.26701
# Velocity P-wave (km/s) = 6.05143 7.01853 6.55284
#
# Compressibility (1/GPa) = 0.02408818
#
# Stress axis : x y z
#
# Youngs Moduli (GPa) = 64.99609 75.56316 26.35081
#
# Poissons Ratio (x) = 0.36900 0.23681
# Poissons Ratio (y) = 0.31740 0.19422
# Poissons Ratio (z) = 0.58410 0.55693
#
# Static dielectric constant tensor:
#      x y z
#    x 3.225590 0.000000 0.000000 
#    y 0.000000 3.309750 0.000000 
#    z 0.000000 0.000000 3.001240 
# 
# 
# High freq. dielectric constant tensor:
#      x y z
#    x 1.655840 0.000000 0.000000 
#    y 0.000000 1.683360 0.000000 
#    z 0.000000 0.000000 1.647540 
# 
# From -- ./inp_files/33712.got.cif
#   From: 2010.03.12/outbox.cif.g09.slc.cpg/sg65_17_cif.got.tgz:33712.got - 2010.04.10 20:52:16.
