data_PCOD8268412
_publ_section_title
;
Structure prediction by ZEFSAII (Michael W. Deem and Ramdas Pophale) SiO2 
 PCOD8268412
Probable space group: C M M M
;
_chemical_formula_sum "Si O2"
_cell_formula_units_Z 104
_cell_length_a 18.096344
_cell_length_b 17.608997
_cell_length_c 18.434557
_cell_angle_alpha 90.000000
_cell_angle_beta 90.000000
_cell_angle_gamma 90.000000
_cell_volume 5874.327677
_symmetry_space_group_name_H-M "C M M M"
_symmetry_group_IT_number 65
_symmetry_cell_setting 'orthorhombic'
loop_
_space_group_symop_operation_xyz
x,y,z
-x,-y,z
x,-y,-z
-x,y,-z
-x,-y,-z
x,y,-z
-x,y,z
x,-y,z
1/2+x,1/2+y,z
1/2-x,1/2-y,z
1/2+x,1/2-y,-z
1/2-x,1/2+y,-z
1/2-x,1/2-y,-z
1/2+x,1/2+y,-z
1/2-x,1/2+y,z
1/2+x,1/2-y,z
loop_
_atom_site_type_symbol
_atom_site_label
_atom_site_fract_x
_atom_site_fract_y
_atom_site_fract_z
Si Si1 0.411186 0.836059 0.581584
Si Si2 0.086936 0.082872 0.222016
Si Si3 0.695077 0.914195 0.915862
Si Si4 0.085437 0.698104 0.140708
Si Si5 0.648307 0.348637 0.917296
Si Si6 0.084909 0.769389 0.705894
Si Si7 0.419631 0.000000 0.414370
O O1 0.385571 0.815013 0.500000
O O2 0.500000 0.839861 0.585606
O O3 0.378380 0.772007 0.636180
O O4 0.379367 0.919835 0.605635
O O5 0.100301 0.100653 0.137430
O O6 0.121842 0.148499 0.274325
O O7 0.000000 0.082832 0.233352
O O8 0.120128 0.000000 0.242170
O O9 0.624175 0.882393 0.873162
O O10 0.765799 0.861841 0.898757
O O11 0.710716 0.000000 0.889205
O O12 0.675405 0.913015 0.000000
O O13 0.127833 0.760606 0.092382
O O14 0.093226 0.714654 0.225574
O O15 0.000000 0.695054 0.116945
O O16 0.631444 0.374164 0.000000
O O17 0.000000 0.783939 0.687132
O O18 0.500000 0.000000 0.376199
O O19 0.431036 0.000000 0.500000
#
# Coordination Sequence:
#
# PCOD8268412 Si02
#       7
#    16  16  16  16  16  16   8
#     4   8  12  20  36  57  82 113 147 181 219 266
#     4   9  17  28  43  64  91 120 147 186 242 293
#     4  10  21  35  49  66  91 123 158 197 238 280
#     4  10  20  33  48  68  95 125 157 192 234 285
#     4  10  19  32  50  69  88 114 154 202 243 277
#     4   8  15  27  40  58  86 118 150 181 221 276
#     4   7  10  16  28  50  76 100 133 175 213 251
#
# _framework density 17.704153999999999
#
# number of rings (size 3 to 8) (size 9 to 14) (size 15 to 20)
#    0.000    3.000    0.000    3.692    0.000    4.615 
#    1.385    1.538    0.000    0.462    0.000    3.231 
#    0.000    9.846    0.000    2.462    0.000    4.000 
#
# Total GULP energy -644254.157061 kJ/mol
# GULP energy per Si atom -12389.503020 kJ/mol
# Density = 1.766386 g / cm^3
# Si number density = 17.704154 Si / 1000 Ang^3
#
#
#
# Elastic Constant Matrix: (Units=GPa)
#
#
# Indices 1 2 3 4 5 6 
#
# 1 42.2114 28.0064 16.1692 0.0000 0.0000 0.0000
# 2 28.0064 120.5129 69.4960 0.0000 0.0000 0.0000
# 3 16.1692 69.4960 86.5335 0.0000 0.0000 0.0000
# 4 0.0000 0.0000 0.0000 23.3794 0.0000 0.0000
# 5 0.0000 0.0000 0.0000 0.0000 3.1942 0.0000
# 6 0.0000 0.0000 0.0000 0.0000 0.0000 20.0855
#
#
#
# Elastic Compliance Matrix: (Units=1/GPa)
#
#
# Indices 1 2 3 4 5 6 
#
# 1 0.028009 -0.006503 -0.000011 0.000000 0.000000 0.000000
# 2 -0.006503 0.016966 -0.012410 0.000000 0.000000 0.000000
# 3 -0.000011 -0.012410 0.021525 0.000000 0.000000 0.000000
# 4 0.000000 0.000000 0.000000 0.042773 0.000000 0.000000
# 5 0.000000 0.000000 0.000000 0.000000 0.313065 0.000000
# 6 0.000000 0.000000 0.000000 0.000000 0.000000 0.049787
#
#
# Mechanical properties :
#
#
# Convention : Reuss Voigt Hill
#
# Bulk Modulus (GPa) = 34.90228 52.95568 43.92898
# Shear Modulus (GPa) = 9.62420 18.37089 13.99755
#
# Velocity S-wave (km/s) = 2.33408 3.22477 2.81488
# Velocity P-wave (km/s) = 5.19816 6.62132 5.95243
#
# Compressibility (1/GPa) = 0.02865142
#
# Stress axis : x y z
#
# Youngs Moduli (GPa) = 35.70289 58.94270 46.45727
#
# Poissons Ratio (x) = 0.38328 0.00053
# Poissons Ratio (y) = 0.23216 0.57655
# Poissons Ratio (z) = 0.00041 0.73149
#
# Static dielectric constant tensor:
#      x y z
#    x 2.840590 0.000000 0.000000 
#    y 0.000000 3.831550 0.000000 
#    z 0.000000 0.000000 3.210640 
# 
# 
# High freq. dielectric constant tensor:
#      x y z
#    x 1.633540 0.000000 0.000000 
#    y 0.000000 1.695910 0.000000 
#    z 0.000000 0.000000 1.662120 
# 
# From -- ./inp_files/54602.got.cif
#   From: 2010.03.12/outbox.cif.g09.slc.cpg/sg65_28_cif.got.tgz:54602.got - 2010.04.10 20:52:16.
