data_PCOD8268532
_publ_section_title
;
Structure prediction by ZEFSAII (Michael W. Deem and Ramdas Pophale) SiO2 
 PCOD8268532
Probable space group: C M M M
;
_chemical_formula_sum "Si O2"
_cell_formula_units_Z 104
_cell_length_a 9.285149
_cell_length_b 28.566798
_cell_length_c 22.956690
_cell_angle_alpha 90.000000
_cell_angle_beta 90.000000
_cell_angle_gamma 90.000000
_cell_volume 6089.192599
_symmetry_space_group_name_H-M "C M M M"
_symmetry_group_IT_number 65
_symmetry_cell_setting 'orthorhombic'
loop_
_space_group_symop_operation_xyz
x,y,z
-x,-y,z
x,-y,-z
-x,y,-z
-x,-y,-z
x,y,-z
-x,y,z
x,-y,z
1/2+x,1/2+y,z
1/2-x,1/2-y,z
1/2+x,1/2-y,-z
1/2-x,1/2+y,-z
1/2-x,1/2-y,-z
1/2+x,1/2+y,-z
1/2-x,1/2+y,z
1/2+x,1/2-y,z
loop_
_atom_site_type_symbol
_atom_site_label
_atom_site_fract_x
_atom_site_fract_y
_atom_site_fract_z
Si Si1 0.831219 0.886955 0.724631
Si Si2 0.337223 0.944290 0.500000
Si Si3 0.332013 0.893704 0.066702
Si Si4 0.333608 0.553931 0.611329
Si Si5 0.331975 0.203867 0.248775
Si Si6 0.667705 0.446338 0.163683
Si Si7 0.665673 0.204923 0.887737
O O1 0.793182 0.917879 0.668883
O O2 0.738443 0.840063 0.718803
O O3 0.781835 0.915531 0.781571
O O4 0.000000 0.874515 0.727696
O O5 0.500000 0.925553 0.500000
O O6 0.258109 0.925360 0.557712
O O7 0.329637 0.000000 0.500000
O O8 0.500000 0.896524 0.082032
O O9 0.250902 0.931319 0.105836
O O10 0.276174 0.841129 0.079510
O O11 0.300650 0.906555 0.000000
O O12 0.500000 0.559691 0.594635
O O13 0.295363 0.500000 0.623727
O O14 0.500000 0.207632 0.264634
O O15 0.250000 0.250000 0.271225
O O16 0.306560 0.197313 0.180332
O O17 0.500000 0.439281 0.151522
O O18 0.704336 0.500000 0.177978
O O19 0.500000 0.214036 0.902076
O O20 0.750000 0.250000 0.911550
#
# Coordination Sequence:
#
# PCOD8268532 Si02
#       7
#    16   8  16  16  16  16  16
#     4  10  19  32  52  77 103 131 166 207 251 296
#     4   9  17  29  45  69 104 141 176 213 249 285
#     4  10  21  37  53  70  95 127 164 204 248 302
#     4   9  17  30  49  73 103 140 177 209 245 292
#     4  10  19  32  51  74 101 130 162 201 249 301
#     4  10  21  36  53  73  98 127 162 207 253 295
#     4   9  18  32  50  72  96 122 154 195 245 300
#
# _framework density 17.079440000000002
#
# number of rings (size 3 to 8) (size 9 to 14) (size 15 to 20)
#    0.000    2.385    1.538    1.154    0.000    5.846 
#    0.000    1.538    0.000    2.769    0.000    0.538 
#    0.000    0.000    0.000    0.000    0.000    0.000 
#
# Total GULP energy -644940.344174 kJ/mol
# GULP energy per Si atom -12402.698926 kJ/mol
# Density = 1.704057 g / cm^3
# Si number density = 17.079440 Si / 1000 Ang^3
#
#
#
# Elastic Constant Matrix: (Units=GPa)
#
#
# Indices 1 2 3 4 5 6 
#
# 1 75.0213 54.1981 50.8622 0.0000 0.0000 0.0000
# 2 54.1981 105.4184 49.4984 0.0000 0.0000 0.0000
# 3 50.8622 49.4984 97.0021 0.0000 0.0000 0.0000
# 4 0.0000 0.0000 0.0000 17.8800 0.0000 0.0000
# 5 0.0000 0.0000 0.0000 0.0000 23.4649 0.0000
# 6 0.0000 0.0000 0.0000 0.0000 0.0000 31.6829
#
#
#
# Elastic Compliance Matrix: (Units=1/GPa)
#
#
# Indices 1 2 3 4 5 6 
#
# 1 0.026041 -0.009176 -0.008972 0.000000 0.000000 0.000000
# 2 -0.009176 0.015708 -0.003204 0.000000 0.000000 0.000000
# 3 -0.008972 -0.003204 0.016649 0.000000 0.000000 0.000000
# 4 0.000000 0.000000 0.000000 0.055928 0.000000 0.000000
# 5 0.000000 0.000000 0.000000 0.000000 0.042617 0.000000
# 6 0.000000 0.000000 0.000000 0.000000 0.000000 0.031563
#
#
# Mechanical properties :
#
#
# Convention : Reuss Voigt Hill
#
# Bulk Modulus (GPa) = 63.72103 65.17326 64.44715
# Shear Modulus (GPa) = 21.14684 22.79776 21.97230
#
# Velocity S-wave (km/s) = 3.52255 3.65746 3.59064
# Velocity P-wave (km/s) = 7.34398 7.48851 7.41660
#
# Compressibility (1/GPa) = 0.01569341
#
# Stress axis : x y z
#
# Youngs Moduli (GPa) = 38.40053 63.66193 60.06441
#
# Poissons Ratio (x) = 0.58413 0.53892
# Poissons Ratio (y) = 0.35235 0.19247
# Poissons Ratio (z) = 0.34455 0.20400
#
# Static dielectric constant tensor:
#      x y z
#    x 3.186580 0.000000 0.000000 
#    y 0.000000 3.143030 0.000000 
#    z 0.000000 0.000000 3.089810 
# 
# 
# High freq. dielectric constant tensor:
#      x y z
#    x 1.658190 0.000000 0.000000 
#    y 0.000000 1.650980 0.000000 
#    z 0.000000 0.000000 1.644250 
# 
# From -- ./inp_files/60806.got.cif
#   From: 2010.03.12/outbox.cif.g09.slc.cpg/sg65_31_cif.got.tgz:60806.got - 2010.04.10 20:52:16.
