data_PCOD8268119
_publ_section_title
;
Structure prediction by ZEFSAII (Michael W. Deem and Ramdas Pophale) SiO2 
 PCOD8268119
Probable space group: C M M M
;
_chemical_formula_sum "Si O2"
_cell_formula_units_Z 96
_cell_length_a 8.972584
_cell_length_b 19.024786
_cell_length_c 30.392339
_cell_angle_alpha 90.000000
_cell_angle_beta 90.000000
_cell_angle_gamma 90.000000
_cell_volume 5188.017566
_symmetry_space_group_name_H-M "C M M M"
_symmetry_group_IT_number 65
_symmetry_cell_setting 'orthorhombic'
loop_
_space_group_symop_operation_xyz
x,y,z
-x,-y,z
x,-y,-z
-x,y,-z
-x,-y,-z
x,y,-z
-x,y,z
x,-y,z
1/2+x,1/2+y,z
1/2-x,1/2-y,z
1/2+x,1/2-y,-z
1/2-x,1/2+y,-z
1/2-x,1/2-y,-z
1/2+x,1/2+y,-z
1/2-x,1/2+y,z
1/2+x,1/2-y,z
loop_
_atom_site_type_symbol
_atom_site_label
_atom_site_fract_x
_atom_site_fract_y
_atom_site_fract_z
Si Si1 0.326389 0.081162 0.216406
Si Si2 0.324592 0.677938 0.284301
Si Si3 0.326423 0.320456 0.615179
Si Si4 0.831163 0.417330 0.549360
Si Si5 0.676018 0.825965 0.132906
Si Si6 0.325327 0.674524 0.047737
O O1 0.500000 0.090035 0.227071
O O2 0.233933 0.111878 0.256983
O O3 0.281734 0.122683 0.172514
O O4 0.282554 0.000000 0.210071
O O5 0.500000 0.685621 0.278034
O O6 0.250000 0.750000 0.267084
O O7 0.278456 0.663570 0.334732
O O8 0.500000 0.308699 0.611605
O O9 0.250000 0.250000 0.597500
O O10 0.279733 0.384502 0.584531
O O11 0.788702 0.392701 0.500000
O O12 0.813552 0.500000 0.553182
O O13 0.000000 0.394477 0.560183
O O14 0.500000 0.816531 0.127657
O O15 0.750000 0.750000 0.141335
O O16 0.744029 0.863475 0.088820
O O17 0.500000 0.682295 0.057856
O O18 0.250000 0.750000 0.045080
O O19 0.301119 0.636414 0.000000
#
# Coordination Sequence:
#
# PCOD8268119 Si02
#       6
#    16  16  16  16  16  16
#     4  10  22  38  54  75 104 137 173 213 257 306
#     4  10  21  37  57  80 105 135 172 213 258 309
#     4  10  21  36  55  80 108 137 172 214 259 308
#     4   9  19  36  56  78 106 141 179 216 256 305
#     4  10  19  31  50  74 100 131 167 207 251 301
#     4   9  16  26  43  69  99 128 161 203 249 297
#
# _framework density 18.504178
#
# number of rings (size 3 to 8) (size 9 to 14) (size 15 to 20)
#    0.000    2.333    0.000    4.000    0.000    7.667 
#    0.000    4.167    0.000    0.500    0.000    3.500 
#    0.000    0.000    0.000    0.000    0.000    0.000 
#
# Total GULP energy -595096.739769 kJ/mol
# GULP energy per Si atom -12397.848745 kJ/mol
# Density = 1.846206 g / cm^3
# Si number density = 18.504178 Si / 1000 Ang^3
#
#
#
# Elastic Constant Matrix: (Units=GPa)
#
#
# Indices 1 2 3 4 5 6 
#
# 1 84.9678 39.6080 55.8266 0.0000 0.0000 0.0000
# 2 39.6080 82.9273 59.9728 0.0000 0.0000 0.0000
# 3 55.8266 59.9728 122.1219 0.0000 0.0000 0.0000
# 4 0.0000 0.0000 0.0000 9.2292 0.0000 0.0000
# 5 0.0000 0.0000 0.0000 0.0000 36.5056 0.0000
# 6 0.0000 0.0000 0.0000 0.0000 0.0000 28.0744
#
#
#
# Elastic Compliance Matrix: (Units=1/GPa)
#
#
# Indices 1 2 3 4 5 6 
#
# 1 0.017647 -0.004023 -0.006091 0.000000 0.000000 0.000000
# 2 -0.004023 0.019618 -0.007795 0.000000 0.000000 0.000000
# 3 -0.006091 -0.007795 0.014801 0.000000 0.000000 0.000000
# 4 0.000000 0.000000 0.000000 0.108351 0.000000 0.000000
# 5 0.000000 0.000000 0.000000 0.000000 0.027393 0.000000
# 6 0.000000 0.000000 0.000000 0.000000 0.000000 0.035620
#
#
# Mechanical properties :
#
#
# Convention : Reuss Voigt Hill
#
# Bulk Modulus (GPa) = 61.55095 66.75907 64.15501
# Shear Modulus (GPa) = 18.89192 23.73583 21.31388
#
# Velocity S-wave (km/s) = 3.19870 3.58540 3.39756
# Velocity P-wave (km/s) = 6.85403 7.30043 7.08075
#
# Compressibility (1/GPa) = 0.01624670
#
# Stress axis : x y z
#
# Youngs Moduli (GPa) = 56.66755 50.97484 67.56328
#
# Poissons Ratio (x) = 0.20509 0.41154
# Poissons Ratio (y) = 0.22800 0.52664
# Poissons Ratio (z) = 0.34517 0.39733
#
# Static dielectric constant tensor:
#      x y z
#    x 3.461530 0.000000 0.000000 
#    y 0.000000 3.123050 0.000000 
#    z 0.000000 0.000000 3.887360 
# 
# 
# High freq. dielectric constant tensor:
#      x y z
#    x 1.726690 0.000000 0.000000 
#    y 0.000000 1.685380 0.000000 
#    z 0.000000 0.000000 1.735270 
# 
# From -- ./inp_files/73172.got.cif
#   From: 2010.03.12/outbox.cif.g09.slc.cpg/sg65_37_cif.got.tgz:73172.got - 2010.04.10 20:52:16.
