data_PCOD8268632
_publ_section_title
;
Structure prediction by ZEFSAII (Michael W. Deem and Ramdas Pophale) SiO2 
 PCOD8268632
Probable space group: C M M M
;
_chemical_formula_sum "Si O2"
_cell_formula_units_Z 104
_cell_length_a 8.756261
_cell_length_b 28.944942
_cell_length_c 20.959442
_cell_angle_alpha 90.000000
_cell_angle_beta 90.000000
_cell_angle_gamma 90.000000
_cell_volume 5312.159399
_symmetry_space_group_name_H-M "C M M M"
_symmetry_group_IT_number 65
_symmetry_cell_setting 'orthorhombic'
loop_
_space_group_symop_operation_xyz
x,y,z
-x,-y,z
x,-y,-z
-x,y,-z
-x,-y,-z
x,y,-z
-x,y,z
x,-y,z
1/2+x,1/2+y,z
1/2-x,1/2-y,z
1/2+x,1/2-y,-z
1/2-x,1/2+y,-z
1/2-x,1/2-y,-z
1/2+x,1/2+y,-z
1/2-x,1/2+y,z
1/2+x,1/2-y,z
loop_
_atom_site_type_symbol
_atom_site_label
_atom_site_fract_x
_atom_site_fract_y
_atom_site_fract_z
Si Si1 0.675279 0.053095 0.240202
Si Si2 0.822092 0.606968 0.116327
Si Si3 0.317634 0.299626 0.688289
Si Si4 0.179737 0.052985 0.000000
Si Si5 0.681531 0.641470 0.569492
Si Si6 0.179587 0.700751 0.177977
Si Si7 0.679861 0.449618 0.371078
O O1 0.500000 0.063449 0.256653
O O2 0.732377 0.083504 0.181535
O O3 0.774487 0.067569 0.300896
O O4 0.701407 0.000000 0.221475
O O5 0.729639 0.582890 0.060454
O O6 0.788861 0.662131 0.123282
O O7 0.000000 0.597944 0.103250
O O8 0.500000 0.298892 0.691774
O O9 0.250000 0.250000 0.674435
O O10 0.254115 0.329510 0.628868
O O11 0.252384 0.317623 0.755789
O O12 0.000000 0.049302 0.000000
O O13 0.247034 0.000000 0.000000
O O14 0.742619 0.658657 0.500000
O O15 0.500000 0.644649 0.570740
O O16 0.735371 0.588233 0.577902
O O17 0.250000 0.750000 0.156487
O O18 0.000000 0.707521 0.189008
O O19 0.500000 0.453837 0.372815
O O20 0.753694 0.500000 0.386436
#
# Coordination Sequence:
#
# PCOD8268632 Si02
#       7
#    16  16  16   8  16  16  16
#     4   9  17  30  50  75 101 130 165 208 258 307
#     4  10  21  37  58  81 107 144 184 217 254 307
#     4  10  19  32  52  75 101 134 169 212 265 314
#     4  11  25  41  58  85 118 149 180 215 256 301
#     4   9  18  31  46  67  96 130 168 209 256 310
#     4  10  20  35  57  84 110 137 174 219 266 314
#     4   9  17  29  47  71  96 124 162 209 258 307
#
# _framework density 19.577725999999998
#
# number of rings (size 3 to 8) (size 9 to 14) (size 15 to 20)
#    0.000    2.385    0.000    3.462    0.000    3.692 
#    0.000    4.231    0.000    3.692    0.000    2.154 
#    0.000    0.000    0.000    0.000    0.000    0.000 
#
# Total GULP energy -644486.547849 kJ/mol
# GULP energy per Si atom -12393.972074 kJ/mol
# Density = 1.953317 g / cm^3
# Si number density = 19.577726 Si / 1000 Ang^3
#
#
#
# Elastic Constant Matrix: (Units=GPa)
#
#
# Indices 1 2 3 4 5 6 
#
# 1 49.6424 33.1633 24.2223 0.0000 0.0000 0.0000
# 2 33.1633 101.5391 67.4451 0.0000 0.0000 0.0000
# 3 24.2223 67.4451 87.6613 0.0000 0.0000 0.0000
# 4 0.0000 0.0000 0.0000 29.6055 0.0000 0.0000
# 5 0.0000 0.0000 0.0000 0.0000 18.6976 0.0000
# 6 0.0000 0.0000 0.0000 0.0000 0.0000 23.9625
#
#
#
# Elastic Compliance Matrix: (Units=1/GPa)
#
#
# Indices 1 2 3 4 5 6 
#
# 1 0.025841 -0.007561 -0.001323 0.000000 0.000000 0.000000
# 2 -0.007561 0.022354 -0.015110 0.000000 0.000000 0.000000
# 3 -0.001323 -0.015110 0.023398 0.000000 0.000000 0.000000
# 4 0.000000 0.000000 0.000000 0.033778 0.000000 0.000000
# 5 0.000000 0.000000 0.000000 0.000000 0.053483 0.000000
# 6 0.000000 0.000000 0.000000 0.000000 0.000000 0.041732
#
#
# Mechanical properties :
#
#
# Convention : Reuss Voigt Hill
#
# Bulk Modulus (GPa) = 42.36235 54.27824 48.32029
# Shear Modulus (GPa) = 19.49765 22.05391 20.77578
#
# Velocity S-wave (km/s) = 3.15923 3.35995 3.26113
# Velocity P-wave (km/s) = 5.91546 6.54500 6.23817
#
# Compressibility (1/GPa) = 0.02360587
#
# Stress axis : x y z
#
# Youngs Moduli (GPa) = 38.69865 44.73440 42.73838
#
# Poissons Ratio (x) = 0.33824 0.05654
# Poissons Ratio (y) = 0.29260 0.64576
# Poissons Ratio (z) = 0.05119 0.67592
#
# Static dielectric constant tensor:
#      x y z
#    x 3.361050 0.000000 0.000000 
#    y 0.000000 3.896000 0.000000 
#    z 0.000000 0.000000 3.716050 
# 
# 
# High freq. dielectric constant tensor:
#      x y z
#    x 1.740970 0.000000 0.000000 
#    y 0.000000 1.776630 0.000000 
#    z 0.000000 0.000000 1.752140 
# 
# From -- ./inp_files/60844.got.cif
#   From: 2010.03.12/outbox.cif.g09.slc.cpg/sg65_31_cif.got.tgz:60844.got - 2010.04.10 20:52:16.
