data_PCOD8268335
_publ_section_title
;
Structure prediction by ZEFSAII (Michael W. Deem and Ramdas Pophale) SiO2 
 PCOD8268335
Probable space group: C M M M
;
_chemical_formula_sum "Si O2"
_cell_formula_units_Z 80
_cell_length_a 23.626481
_cell_length_b 25.657127
_cell_length_c 8.846628
_cell_angle_alpha 90.000000
_cell_angle_beta 90.000000
_cell_angle_gamma 90.000000
_cell_volume 5362.716404
_symmetry_space_group_name_H-M "C M M M"
_symmetry_group_IT_number 65
_symmetry_cell_setting 'orthorhombic'
loop_
_space_group_symop_operation_xyz
x,y,z
-x,-y,z
x,-y,-z
-x,y,-z
-x,-y,-z
x,y,-z
-x,y,z
x,-y,z
1/2+x,1/2+y,z
1/2-x,1/2-y,z
1/2+x,1/2-y,-z
1/2-x,1/2+y,-z
1/2-x,1/2-y,-z
1/2+x,1/2+y,-z
1/2-x,1/2+y,z
1/2+x,1/2-y,z
loop_
_atom_site_type_symbol
_atom_site_label
_atom_site_fract_x
_atom_site_fract_y
_atom_site_fract_z
Si Si1 0.219467 0.194876 0.833135
Si Si2 0.617220 0.059916 0.824396
Si Si3 0.114918 0.256438 0.179091
Si Si4 0.500000 0.224837 0.321781
Si Si5 0.000000 0.386293 0.174374
Si Si6 0.180505 0.351047 0.323405
O O1 0.250000 0.250000 0.843022
O O2 0.155512 0.207464 0.777235
O O3 0.253281 0.157364 0.719088
O O4 0.218836 0.169019 0.000000
O O5 0.554131 0.078891 0.786844
O O6 0.662853 0.091028 0.724833
O O7 0.622128 0.000000 0.776975
O O8 0.631365 0.068230 0.000000
O O9 0.139973 0.311049 0.236557
O O10 0.054638 0.245879 0.254967
O O11 0.108425 0.261506 0.000000
O O12 0.500000 0.230482 0.500000
O O13 0.500000 0.164336 0.278412
O O14 0.000000 0.368067 0.000000
O O15 0.172472 0.342484 0.500000
#
# Coordination Sequence:
#
# PCOD8268335 Si02
#       6
#    16  16  16   8   8  16
#     4   8  16  30  47  63  80 107 143 176 211 259
#     4  10  20  33  48  63  81 112 154 192 225 264
#     4  10  19  32  47  62  83 114 147 178 212 258
#     4  12  22  29  43  67  91 115 143 181 226 262
#     4  10  19  32  48  60  79 113 150 189 227 263
#     4  11  20  29  44  65  88 110 137 181 229 265
#
# _framework density 14.917812
#
# number of rings (size 3 to 8) (size 9 to 14) (size 15 to 20)
#    0.000    2.000    2.000    4.800    0.000    6.000 
#    0.000    0.000    0.000    1.800    0.000    0.000 
#    0.000    0.000    0.000    0.900    0.000   17.400 
#
# Total GULP energy -495964.221284 kJ/mol
# GULP energy per Si atom -12399.105532 kJ/mol
# Density = 1.488386 g / cm^3
# Si number density = 14.917812 Si / 1000 Ang^3
#
#
#
# Elastic Constant Matrix: (Units=GPa)
#
#
# Indices 1 2 3 4 5 6 
#
# 1 120.6264 48.9680 55.4498 0.0000 0.0000 0.0000
# 2 48.9680 50.5384 31.5576 0.0000 0.0000 0.0000
# 3 55.4498 31.5576 91.9162 0.0000 0.0000 0.0000
# 4 0.0000 0.0000 0.0000 7.0205 0.0000 0.0000
# 5 0.0000 0.0000 0.0000 0.0000 17.5532 0.0000
# 6 0.0000 0.0000 0.0000 0.0000 0.0000 15.6099
#
#
#
# Elastic Compliance Matrix: (Units=1/GPa)
#
#
# Indices 1 2 3 4 5 6 
#
# 1 0.015477 -0.011667 -0.005331 0.000000 0.000000 0.000000
# 2 -0.011667 0.033982 -0.004629 0.000000 0.000000 0.000000
# 3 -0.005331 -0.004629 0.015685 0.000000 0.000000 0.000000
# 4 0.000000 0.000000 0.000000 0.142439 0.000000 0.000000
# 5 0.000000 0.000000 0.000000 0.000000 0.056970 0.000000
# 6 0.000000 0.000000 0.000000 0.000000 0.000000 0.064062
#
#
# Mechanical properties :
#
#
# Convention : Reuss Voigt Hill
#
# Bulk Modulus (GPa) = 45.68334 59.44797 52.56566
# Shear Modulus (GPa) = 13.18692 16.51044 14.84868
#
# Velocity S-wave (km/s) = 2.97639 3.33041 3.15836
# Velocity P-wave (km/s) = 6.51933 7.39768 6.97235
#
# Compressibility (1/GPa) = 0.02188982
#
# Stress axis : x y z
#
# Youngs Moduli (GPa) = 64.61267 29.42758 63.75683
#
# Poissons Ratio (x) = 0.34333 0.33988
# Poissons Ratio (y) = 0.75384 0.29511
# Poissons Ratio (z) = 0.34445 0.13621
#
# Static dielectric constant tensor:
#      x y z
#    x 3.272440 0.000000 0.000000 
#    y 0.000000 2.635250 0.000000 
#    z 0.000000 0.000000 2.871110 
# 
# 
# High freq. dielectric constant tensor:
#      x y z
#    x 1.570110 0.000000 0.000000 
#    y 0.000000 1.522230 0.000000 
#    z 0.000000 0.000000 1.576420 
# 
# From -- ./inp_files/14518.got.cif
#   From: 2010.03.12/outbox.cif.g09.slc.cpg/sg65_8_cif.got.tgz:14518.got - 2010.04.10 20:52:16.
