data_PCOD8268959
_publ_section_title
;
Structure prediction by ZEFSAII (Michael W. Deem and Ramdas Pophale) SiO2 
 PCOD8268959
Probable space group: C M M M
;
_chemical_formula_sum "Si O2"
_cell_formula_units_Z 72
_cell_length_a 27.112337
_cell_length_b 14.643922
_cell_length_c 9.718161
_cell_angle_alpha 90.000000
_cell_angle_beta 90.000000
_cell_angle_gamma 90.000000
_cell_volume 3858.410677
_symmetry_space_group_name_H-M "C M M M"
_symmetry_group_IT_number 65
_symmetry_cell_setting 'orthorhombic'
loop_
_space_group_symop_operation_xyz
x,y,z
-x,-y,z
x,-y,-z
-x,y,-z
-x,-y,-z
x,y,-z
-x,y,z
x,-y,z
1/2+x,1/2+y,z
1/2-x,1/2-y,z
1/2+x,1/2-y,-z
1/2-x,1/2+y,-z
1/2-x,1/2-y,-z
1/2+x,1/2+y,-z
1/2-x,1/2+y,z
1/2+x,1/2-y,z
loop_
_atom_site_type_symbol
_atom_site_label
_atom_site_fract_x
_atom_site_fract_y
_atom_site_fract_z
Si Si1 0.361144 0.398505 0.342252
Si Si2 0.095942 0.711555 0.660064
Si Si3 0.269483 0.348093 0.156728
Si Si4 0.663695 0.099569 0.845616
Si Si5 0.500000 0.894899 0.663633
O O1 0.343858 0.390123 0.500000
O O2 0.383282 0.500000 0.313077
O O3 0.403247 0.321324 0.313139
O O4 0.313151 0.384379 0.250570
O O5 0.101618 0.688517 0.500000
O O6 0.143142 0.671680 0.737587
O O7 0.046994 0.662324 0.718838
O O8 0.250000 0.250000 0.205552
O O9 0.222361 0.413639 0.171337
O O10 0.289290 0.344491 0.000000
O O11 0.639617 0.000000 0.819963
O O12 0.651534 0.134646 0.000000
O O13 0.500000 0.895874 0.500000
O O14 0.500000 0.000000 0.719106
#
# Coordination Sequence:
#
# PCOD8268959 Si02
#       5
#    16  16  16  16   8
#     4  10  21  35  51  75 107 140 175 216 259 302
#     4  10  20  35  55  76 101 133 172 214 258 310
#     4  10  19  33  53  75 103 140 179 213 250 300
#     4  10  20  33  50  75 106 136 169 211 256 304
#     4   9  18  34  56  80 102 127 165 213 264 317
#
# _framework density 18.660534999999999
#
# number of rings (size 3 to 8) (size 9 to 14) (size 15 to 20)
#    0.000    2.111    2.222    1.333    0.000    4.000 
#    0.000    1.111    0.000    5.333    0.000    0.000 
#    0.000    3.556    0.000    0.000    0.000    0.000 
#
# Total GULP energy -446167.366556 kJ/mol
# GULP energy per Si atom -12393.537960 kJ/mol
# Density = 1.861806 g / cm^3
# Si number density = 18.660535 Si / 1000 Ang^3
#
#
#
# Elastic Constant Matrix: (Units=GPa)
#
#
# Indices 1 2 3 4 5 6 
#
# 1 77.7820 58.0566 28.9137 0.0000 0.0000 0.0000
# 2 58.0566 159.3348 43.0957 0.0000 0.0000 0.0000
# 3 28.9137 43.0957 49.5946 0.0000 0.0000 0.0000
# 4 0.0000 0.0000 0.0000 20.6679 0.0000 0.0000
# 5 0.0000 0.0000 0.0000 0.0000 3.3334 0.0000
# 6 0.0000 0.0000 0.0000 0.0000 0.0000 27.5274
#
#
#
# Elastic Compliance Matrix: (Units=1/GPa)
#
#
# Indices 1 2 3 4 5 6 
#
# 1 0.019221 -0.005193 -0.006693 0.000000 0.000000 0.000000
# 2 -0.005193 0.009607 -0.005321 0.000000 0.000000 0.000000
# 3 -0.006693 -0.005321 0.028689 0.000000 0.000000 0.000000
# 4 0.000000 0.000000 0.000000 0.048384 0.000000 0.000000
# 5 0.000000 0.000000 0.000000 0.000000 0.299995 0.000000
# 6 0.000000 0.000000 0.000000 0.000000 0.000000 0.036327
#
#
# Mechanical properties :
#
#
# Convention : Reuss Voigt Hill
#
# Bulk Modulus (GPa) = 43.28413 60.76038 52.02226
# Shear Modulus (GPa) = 10.32334 20.74876 15.53605
#
# Velocity S-wave (km/s) = 2.35461 3.33814 2.88855
# Velocity P-wave (km/s) = 5.53517 6.89124 6.25009
#
# Compressibility (1/GPa) = 0.02310315
#
# Stress axis : x y z
#
# Youngs Moduli (GPa) = 52.02761 104.08581 34.85632
#
# Poissons Ratio (x) = 0.54053 0.23329
# Poissons Ratio (y) = 0.27018 0.18547
# Poissons Ratio (z) = 0.34822 0.55383
#
# Static dielectric constant tensor:
#      x y z
#    x 3.262750 0.000000 0.000000 
#    y 0.000000 3.859360 0.000000 
#    z 0.000000 0.000000 3.247640 
# 
# 
# High freq. dielectric constant tensor:
#      x y z
#    x 1.692450 0.000000 0.000000 
#    y 0.000000 1.746830 0.000000 
#    z 0.000000 0.000000 1.707460 
# 
# From -- ./inp_files/7194.got.cif
#   From: 2010.03.12/outbox.cif.g09.slc.cpg/sg65_4_cif.got.tgz:7194.got - 2010.04.10 20:52:16.
