data_PCOD8268755
_publ_section_title
;
Structure prediction by ZEFSAII (Michael W. Deem and Ramdas Pophale) SiO2 
 PCOD8268755
Probable space group: C M M M
;
_chemical_formula_sum "Si O2"
_cell_formula_units_Z 128
_cell_length_a 18.425001
_cell_length_b 19.898156
_cell_length_c 19.699873
_cell_angle_alpha 90.000000
_cell_angle_beta 90.000000
_cell_angle_gamma 90.000000
_cell_volume 7222.437260
_symmetry_space_group_name_H-M "C M M M"
_symmetry_group_IT_number 65
_symmetry_cell_setting 'orthorhombic'
loop_
_space_group_symop_operation_xyz
x,y,z
-x,-y,z
x,-y,-z
-x,y,-z
-x,-y,-z
x,y,-z
-x,y,z
x,-y,z
1/2+x,1/2+y,z
1/2-x,1/2-y,z
1/2+x,1/2-y,-z
1/2-x,1/2+y,-z
1/2-x,1/2-y,-z
1/2+x,1/2+y,-z
1/2-x,1/2+y,z
1/2+x,1/2-y,z
loop_
_atom_site_type_symbol
_atom_site_label
_atom_site_fract_x
_atom_site_fract_y
_atom_site_fract_z
Si Si1 0.585532 0.188236 0.819090
Si Si2 0.719591 0.426077 0.664994
Si Si3 0.419098 0.405691 0.747668
Si Si4 0.920092 0.763630 0.689358
Si Si5 0.308499 0.074807 0.205756
Si Si6 0.170499 0.223007 0.923577
Si Si7 0.834418 0.073735 0.880013
Si Si8 0.188371 0.195743 0.424964
O O1 0.500000 0.178778 0.831199
O O2 0.603912 0.204953 0.740344
O O3 0.627487 0.118337 0.827489
O O4 0.613366 0.244173 0.871951
O O5 0.743779 0.500000 0.638820
O O6 0.638333 0.435534 0.694486
O O7 0.775143 0.398970 0.722605
O O8 0.720508 0.374023 0.603147
O O9 0.500000 0.434330 0.732650
O O10 0.418713 0.326060 0.740334
O O11 0.397398 0.424499 0.823782
O O12 0.870701 0.772252 0.624216
O O13 0.000000 0.750460 0.659838
O O14 0.244273 0.075101 0.152457
O O15 0.339665 0.000000 0.216048
O O16 0.250000 0.250000 0.901229
O O17 0.161766 0.141435 0.925056
O O18 0.153938 0.247899 0.000000
O O19 0.842985 0.000000 0.918003
O O20 0.155316 0.182018 0.500000
O O21 0.250000 0.250000 0.431335
#
# Coordination Sequence:
#
# PCOD8268755 Si02
#       8
#    16  16  16  16  16  16  16  16
#     4  11  21  35  58  82 104 137 180 225 270 319
#     4   9  18  31  49  73 101 136 173 213 258 305
#     4   9  16  28  47  74 104 131 166 209 251 298
#     4   9  18  31  50  74  97 131 176 214 253 306
#     4   9  18  33  53  80 108 134 172 220 270 321
#     4  11  23  38  56  78 105 142 180 217 266 319
#     4  10  19  32  53  78 105 137 171 211 260 313
#     4  10  20  32  48  72 102 135 169 209 260 311
#
# _framework density 17.722549000000001
#
# number of rings (size 3 to 8) (size 9 to 14) (size 15 to 20)
#    0.000    2.250    2.500    1.875    0.000    2.750 
#    0.000    0.000    0.000    0.375    0.000    6.125 
#    0.000    0.000    0.000   23.250    0.000    0.000 
#
# Total GULP energy -792933.232976 kJ/mol
# GULP energy per Si atom -12389.581765 kJ/mol
# Density = 1.768221 g / cm^3
# Si number density = 17.722549 Si / 1000 Ang^3
#
#
#
# Elastic Constant Matrix: (Units=GPa)
#
#
# Indices 1 2 3 4 5 6 
#
# 1 90.2949 41.8598 39.9141 0.0000 0.0000 0.0000
# 2 41.8598 88.4196 25.2637 0.0000 0.0000 0.0000
# 3 39.9141 25.2637 80.2112 0.0000 0.0000 0.0000
# 4 0.0000 0.0000 0.0000 11.9480 0.0000 0.0000
# 5 0.0000 0.0000 0.0000 0.0000 15.8036 0.0000
# 6 0.0000 0.0000 0.0000 0.0000 0.0000 -18.6567
#
#
#
# Elastic Compliance Matrix: (Units=1/GPa)
#
#
# Indices 1 2 3 4 5 6 
#
# 1 0.016730 -0.006090 -0.006407 0.000000 0.000000 0.000000
# 2 -0.006090 0.014645 -0.001582 0.000000 0.000000 0.000000
# 3 -0.006407 -0.001582 0.016154 0.000000 0.000000 0.000000
# 4 0.000000 0.000000 0.000000 0.083696 0.000000 0.000000
# 5 0.000000 0.000000 0.000000 0.000000 0.063277 0.000000
# 6 0.000000 0.000000 0.000000 0.000000 0.000000 -0.053600
#
#
# Mechanical properties :
#
#
# Convention : Reuss Voigt Hill
#
# Bulk Modulus (GPa) = 51.62494 52.55562 52.09028
# Shear Modulus (GPa) = 28.48729 11.94484 20.21607
#
# Velocity S-wave (km/s) = 4.01359 2.59895 3.38109
# Velocity P-wave (km/s) = 7.11838 6.22295 6.68567
#
# Compressibility (1/GPa) = 0.01937048
#
# Stress axis : x y z
#
# Youngs Moduli (GPa) = 59.77227 68.28352 61.90536
#
# Poissons Ratio (x) = 0.41583 0.39663
# Poissons Ratio (y) = 0.36400 0.09795
# Poissons Ratio (z) = 0.38297 0.10804
#
# Static dielectric constant tensor:
#      x y z
#    x 3.301880 0.000000 0.000000 
#    y 0.000000 3.404340 0.000000 
#    z 0.000000 0.000000 3.128840 
# 
# 
# High freq. dielectric constant tensor:
#      x y z
#    x 1.675180 0.000000 0.000000 
#    y 0.000000 1.695240 0.000000 
#    z 0.000000 0.000000 1.659700 
# 
# From -- ./inp_files/64144.got.cif
#   From: 2010.03.12/outbox.cif.g09.slc.cpg/sg65_33_cif.got.tgz:64144.got - 2010.04.10 20:52:16.
