data_PCOD8268096
_publ_section_title
;
Structure prediction by ZEFSAII (Michael W. Deem and Ramdas Pophale) SiO2 
 PCOD8268096
Probable space group: C M M M
;
_chemical_formula_sum "Si O2"
_cell_formula_units_Z 88
_cell_length_a 18.236267
_cell_length_b 18.637259
_cell_length_c 14.510933
_cell_angle_alpha 90.000000
_cell_angle_beta 90.000000
_cell_angle_gamma 90.000000
_cell_volume 4931.889296
_symmetry_space_group_name_H-M "C M M M"
_symmetry_group_IT_number 65
_symmetry_cell_setting 'orthorhombic'
loop_
_space_group_symop_operation_xyz
x,y,z
-x,-y,z
x,-y,-z
-x,y,-z
-x,-y,-z
x,y,-z
-x,y,z
x,-y,z
1/2+x,1/2+y,z
1/2-x,1/2-y,z
1/2+x,1/2-y,-z
1/2-x,1/2+y,-z
1/2-x,1/2-y,-z
1/2+x,1/2+y,-z
1/2-x,1/2+y,z
1/2+x,1/2-y,z
loop_
_atom_site_type_symbol
_atom_site_label
_atom_site_fract_x
_atom_site_fract_y
_atom_site_fract_z
Si Si1 0.000000 0.085121 0.603985
Si Si2 0.368835 0.417138 0.265911
Si Si3 0.312485 0.194989 0.105182
Si Si4 0.915725 0.818865 0.105205
Si Si5 0.703455 0.083087 0.739932
Si Si6 0.081226 0.585136 0.602580
O O1 0.073349 0.111602 0.657648
O O2 0.000000 0.117434 0.500000
O O3 0.000000 0.000000 0.597532
O O4 0.385908 0.500000 0.243947
O O5 0.374206 0.374458 0.170532
O O6 0.285415 0.406884 0.301626
O O7 0.250000 0.250000 0.137283
O O8 0.388850 0.237149 0.119325
O O9 0.309083 0.123456 0.164533
O O10 0.300567 0.170913 0.000000
O O11 0.000000 0.820608 0.131572
O O12 0.900772 0.843207 0.000000
O O13 0.645196 0.116027 0.667552
O O14 0.687445 0.000000 0.760271
O O15 0.093431 0.616247 0.500000
O O16 0.087055 0.500000 0.599303
O O17 0.000000 0.607894 0.638505
#
# Coordination Sequence:
#
# PCOD8268096 Si02
#       6
#     8  16  16  16  16  16
#     4   9  18  32  49  71 105 145 175 208 258 310
#     4  10  19  31  49  77 108 135 174 219 256 303
#     4  10  20  35  52  72 102 140 174 206 251 309
#     4  10  20  34  53  75 100 136 180 217 256 307
#     4  10  20  32  53  83 107 134 172 215 261 305
#     4   8  15  30  52  77 104 133 168 213 263 310
#
# _framework density 17.843060000000001
#
# number of rings (size 3 to 8) (size 9 to 14) (size 15 to 20)
#    0.000    2.455    2.727    0.545    0.000    2.182 
#    0.000    6.364    0.000    1.636    0.000    5.091 
#    0.000    0.000    0.000    0.000    0.000    0.000 
#
# Total GULP energy -545444.730648 kJ/mol
# GULP energy per Si atom -12396.471151 kJ/mol
# Density = 1.780245 g / cm^3
# Si number density = 17.843060 Si / 1000 Ang^3
#
#
#
# Elastic Constant Matrix: (Units=GPa)
#
#
# Indices 1 2 3 4 5 6 
#
# 1 131.2810 31.7420 64.4657 0.0000 0.0000 0.0000
# 2 31.7420 44.0937 38.7342 0.0000 0.0000 0.0000
# 3 64.4657 38.7342 103.1949 0.0000 0.0000 0.0000
# 4 0.0000 0.0000 0.0000 9.9560 0.0000 0.0000
# 5 0.0000 0.0000 0.0000 0.0000 30.1918 0.0000
# 6 0.0000 0.0000 0.0000 0.0000 0.0000 18.8928
#
#
#
# Elastic Compliance Matrix: (Units=1/GPa)
#
#
# Indices 1 2 3 4 5 6 
#
# 1 0.011225 -0.002866 -0.005937 0.000000 0.000000 0.000000
# 2 -0.002866 0.034567 -0.011185 0.000000 0.000000 0.000000
# 3 -0.005937 -0.011185 0.017597 0.000000 0.000000 0.000000
# 4 0.000000 0.000000 0.000000 0.100441 0.000000 0.000000
# 5 0.000000 0.000000 0.000000 0.000000 0.033122 0.000000
# 6 0.000000 0.000000 0.000000 0.000000 0.000000 0.052930
#
#
# Mechanical properties :
#
#
# Convention : Reuss Voigt Hill
#
# Bulk Modulus (GPa) = 42.70670 60.93929 51.82299
# Shear Modulus (GPa) = 16.79754 21.38328 19.09041
#
# Velocity S-wave (km/s) = 3.07156 3.46556 3.27449
# Velocity P-wave (km/s) = 6.04697 7.08806 6.58811
#
# Compressibility (1/GPa) = 0.02341553
#
# Stress axis : x y z
#
# Youngs Moduli (GPa) = 89.08326 28.92928 56.82681
#
# Poissons Ratio (x) = 0.08290 0.33738
# Poissons Ratio (y) = 0.25528 0.63558
# Poissons Ratio (z) = 0.52888 0.32356
#
# Static dielectric constant tensor:
#      x y z
#    x 3.673850 0.000000 0.000000 
#    y 0.000000 2.973280 0.000000 
#    z 0.000000 0.000000 3.350030 
# 
# 
# High freq. dielectric constant tensor:
#      x y z
#    x 1.708940 0.000000 0.000000 
#    y 0.000000 1.652260 0.000000 
#    z 0.000000 0.000000 1.683200 
# 
# From -- ./inp_files/28689.got.cif
#   From: 2010.03.12/outbox.cif.g09.slc.cpg/sg65_15_cif.got.tgz:28689.got - 2010.04.10 20:52:16.
