data_PCOD8268424
_publ_section_title
;
Structure prediction by ZEFSAII (Michael W. Deem and Ramdas Pophale) SiO2 
 PCOD8268424
Probable space group: C M M M
;
_chemical_formula_sum "Si O2"
_cell_formula_units_Z 64
_cell_length_a 33.906610
_cell_length_b 9.248856
_cell_length_c 12.367537
_cell_angle_alpha 90.000000
_cell_angle_beta 90.000000
_cell_angle_gamma 90.000000
_cell_volume 3878.426871
_symmetry_space_group_name_H-M "C M M M"
_symmetry_group_IT_number 65
_symmetry_cell_setting 'orthorhombic'
loop_
_space_group_symop_operation_xyz
x,y,z
-x,-y,z
x,-y,-z
-x,y,-z
-x,-y,-z
x,y,-z
-x,y,z
x,-y,z
1/2+x,1/2+y,z
1/2-x,1/2-y,z
1/2+x,1/2-y,-z
1/2-x,1/2+y,-z
1/2-x,1/2-y,-z
1/2+x,1/2+y,-z
1/2-x,1/2+y,z
1/2+x,1/2-y,z
loop_
_atom_site_type_symbol
_atom_site_label
_atom_site_fract_x
_atom_site_fract_y
_atom_site_fract_z
Si Si1 0.000000 0.836578 0.871284
Si Si2 0.291045 0.169248 0.000000
Si Si3 0.924577 0.666975 0.124425
Si Si4 0.160044 0.331436 0.789615
Si Si5 0.710566 0.667677 0.626121
O O1 0.039246 0.758823 0.826923
O O2 0.000000 0.000000 0.829036
O O3 0.000000 0.826325 0.000000
O O4 0.250000 0.250000 0.000000
O O5 0.315763 0.215572 0.895301
O O6 0.282631 0.000000 0.000000
O O7 0.936230 0.500000 0.134408
O O8 0.885860 0.703549 0.193134
O O9 0.915876 0.707113 0.000000
O O10 0.166541 0.500000 0.763945
O O11 0.173740 0.235747 0.688713
O O12 0.702386 0.690449 0.500000
O O13 0.715507 0.500000 0.656116
O O14 0.750000 0.750000 0.663285
#
# Coordination Sequence:
#
# PCOD8268424 Si02
#       5
#     8   8  16  16  16
#     4   9  17  27  41  65  96 127 160 197 231 271
#     4  10  20  32  44  65  96 127 157 190 231 282
#     4   9  16  29  47  67  94 129 161 191 230 281
#     4  10  19  32  50  71  97 126 160 198 237 284
#     4  10  21  36  52  70  93 123 162 206 247 285
#
# _framework density 16.501536000000002
#
# number of rings (size 3 to 8) (size 9 to 14) (size 15 to 20)
#    0.000    2.375    1.250    1.875    0.000    7.000 
#    0.000    0.000    0.000    0.000    0.000    0.875 
#    0.000    7.000    0.000    0.000    0.000    0.000 
#
# Total GULP energy -396879.448489 kJ/mol
# GULP energy per Si atom -12402.482765 kJ/mol
# Density = 1.646398 g / cm^3
# Si number density = 16.501536 Si / 1000 Ang^3
#
#
#
# Elastic Constant Matrix: (Units=GPa)
#
#
# Indices 1 2 3 4 5 6 
#
# 1 139.1863 76.1977 45.1769 0.0000 0.0000 0.0000
# 2 76.1977 96.8087 42.6162 0.0000 0.0000 0.0000
# 3 45.1769 42.6162 52.1580 0.0000 0.0000 0.0000
# 4 0.0000 0.0000 0.0000 24.7008 0.0000 0.0000
# 5 0.0000 0.0000 0.0000 0.0000 16.3458 0.0000
# 6 0.0000 0.0000 0.0000 0.0000 0.0000 32.6202
#
#
#
# Elastic Compliance Matrix: (Units=1/GPa)
#
#
# Indices 1 2 3 4 5 6 
#
# 1 0.013305 -0.008432 -0.004635 0.000000 0.000000 0.000000
# 2 -0.008432 0.021476 -0.010243 0.000000 0.000000 0.000000
# 3 -0.004635 -0.010243 0.031556 0.000000 0.000000 0.000000
# 4 0.000000 0.000000 0.000000 0.040485 0.000000 0.000000
# 5 0.000000 0.000000 0.000000 0.000000 0.061178 0.000000
# 6 0.000000 0.000000 0.000000 0.000000 0.000000 0.030656
#
#
# Mechanical properties :
#
#
# Convention : Reuss Voigt Hill
#
# Bulk Modulus (GPa) = 50.71852 68.45941 59.58896
# Shear Modulus (GPa) = 19.85320 23.01085 21.43203
#
# Velocity S-wave (km/s) = 3.47235 3.73831 3.60778
# Velocity P-wave (km/s) = 6.84680 7.75951 7.31740
#
# Compressibility (1/GPa) = 0.01971666
#
# Stress axis : x y z
#
# Youngs Moduli (GPa) = 75.15887 46.56391 31.68927
#
# Poissons Ratio (x) = 0.39263 0.14687
# Poissons Ratio (y) = 0.63375 0.32461
# Poissons Ratio (z) = 0.34834 0.47698
#
# Static dielectric constant tensor:
#      x y z
#    x 3.205970 0.000000 0.000000 
#    y 0.000000 3.127430 0.000000 
#    z 0.000000 0.000000 2.829330 
# 
# 
# High freq. dielectric constant tensor:
#      x y z
#    x 1.640670 0.000000 0.000000 
#    y 0.000000 1.639370 0.000000 
#    z 0.000000 0.000000 1.599110 
# 
# From -- ./inp_files/21020.got.cif
#   From: 2010.03.12/outbox.cif.g09.slc.cpg/sg65_11_cif.got.tgz:21020.got - 2010.04.10 20:52:16.
