data_PCOD8268475
_publ_section_title
;
Structure prediction by ZEFSAII (Michael W. Deem and Ramdas Pophale) SiO2 
 PCOD8268475
Probable space group: C M M M
;
_chemical_formula_sum "Si O2"
_cell_formula_units_Z 72
_cell_length_a 19.608627
_cell_length_b 18.877781
_cell_length_c 10.405314
_cell_angle_alpha 90.000000
_cell_angle_beta 90.000000
_cell_angle_gamma 90.000000
_cell_volume 3851.707678
_symmetry_space_group_name_H-M "C M M M"
_symmetry_group_IT_number 65
_symmetry_cell_setting 'orthorhombic'
loop_
_space_group_symop_operation_xyz
x,y,z
-x,-y,z
x,-y,-z
-x,y,-z
-x,-y,-z
x,y,-z
-x,y,z
x,-y,z
1/2+x,1/2+y,z
1/2-x,1/2-y,z
1/2+x,1/2-y,-z
1/2-x,1/2+y,-z
1/2-x,1/2-y,-z
1/2+x,1/2+y,-z
1/2-x,1/2+y,z
1/2+x,1/2-y,z
loop_
_atom_site_type_symbol
_atom_site_label
_atom_site_fract_x
_atom_site_fract_y
_atom_site_fract_z
Si Si1 0.194836 0.081032 0.142242
Si Si2 0.080590 0.078661 0.500000
Si Si3 0.923559 0.312942 0.352713
Si Si4 0.803373 0.417784 0.646956
Si Si5 0.079083 0.161656 0.249436
O O1 0.246797 0.108197 0.251785
O O2 0.127238 0.130121 0.138907
O O3 0.173554 0.000000 0.170607
O O4 0.228275 0.087390 0.000000
O O5 0.105046 0.120877 0.375958
O O6 0.000000 0.072856 0.500000
O O7 0.113933 0.000000 0.500000
O O8 0.916870 0.287680 0.500000
O O9 0.872241 0.375886 0.320057
O O10 0.908039 0.245242 0.263986
O O11 0.000000 0.341098 0.325957
O O12 0.778983 0.402814 0.500000
O O13 0.820386 0.500000 0.667003
O O14 0.000000 0.145987 0.217961
#
# Coordination Sequence:
#
# PCOD8268475 Si02
#       5
#    16   8  16  16  16
#     4  10  22  38  54  74 105 144 179 218 267 310
#     4   9  16  26  44  71  99 129 166 209 251 291
#     4   9  17  32  54  81 112 139 166 213 273 318
#     4   9  19  35  56  81 105 135 178 221 261 314
#     4  10  19  32  50  76 107 138 174 214 258 311
#
# _framework density 18.693007000000001
#
# number of rings (size 3 to 8) (size 9 to 14) (size 15 to 20)
#    0.000    2.556    1.111    0.667    1.556    3.111 
#    0.000    7.778    0.000    2.000    0.000    3.111 
#    0.000    0.000    0.000    0.000    0.000    0.000 
#
# Total GULP energy -446323.088151 kJ/mol
# GULP energy per Si atom -12397.863560 kJ/mol
# Density = 1.865046 g / cm^3
# Si number density = 18.693007 Si / 1000 Ang^3
#
#
#
# Elastic Constant Matrix: (Units=GPa)
#
#
# Indices 1 2 3 4 5 6 
#
# 1 113.7951 58.0358 55.6514 0.0000 0.0000 0.0000
# 2 58.0358 74.7107 34.3292 0.0000 0.0000 0.0000
# 3 55.6514 34.3292 84.8304 0.0000 0.0000 0.0000
# 4 0.0000 0.0000 0.0000 18.8894 0.0000 0.0000
# 5 0.0000 0.0000 0.0000 0.0000 15.6078 0.0000
# 6 0.0000 0.0000 0.0000 0.0000 0.0000 34.3037
#
#
#
# Elastic Compliance Matrix: (Units=1/GPa)
#
#
# Indices 1 2 3 4 5 6 
#
# 1 0.017684 -0.010327 -0.007422 0.000000 0.000000 0.000000
# 2 -0.010327 0.022473 -0.002320 0.000000 0.000000 0.000000
# 3 -0.007422 -0.002320 0.017596 0.000000 0.000000 0.000000
# 4 0.000000 0.000000 0.000000 0.052940 0.000000 0.000000
# 5 0.000000 0.000000 0.000000 0.000000 0.064071 0.000000
# 6 0.000000 0.000000 0.000000 0.000000 0.000000 0.029151
#
#
# Mechanical properties :
#
#
# Convention : Reuss Voigt Hill
#
# Bulk Modulus (GPa) = 56.76741 63.26321 60.01531
# Shear Modulus (GPa) = 20.00607 22.11485 21.06046
#
# Velocity S-wave (km/s) = 3.27501 3.44329 3.36020
# Velocity P-wave (km/s) = 6.68843 7.05160 6.87241
#
# Compressibility (1/GPa) = 0.01761574
#
# Stress axis : x y z
#
# Youngs Moduli (GPa) = 56.54734 44.49854 56.83028
#
# Poissons Ratio (x) = 0.45952 0.42182
# Poissons Ratio (y) = 0.58395 0.13182
# Poissons Ratio (z) = 0.41972 0.10322
#
# Static dielectric constant tensor:
#      x y z
#    x 3.310230 0.000000 0.000000 
#    y 0.000000 3.339230 0.000000 
#    z 0.000000 0.000000 3.315910 
# 
# 
# High freq. dielectric constant tensor:
#      x y z
#    x 1.716420 0.000000 0.000000 
#    y 0.000000 1.720490 0.000000 
#    z 0.000000 0.000000 1.706290 
# 
# From -- ./inp_files/11253.got.cif
#   From: 2010.03.12/outbox.cif.g09.slc.cpg/sg65_6_cif.got.tgz:11253.got - 2010.04.10 20:52:16.
