data_PCOD8268838
_publ_section_title
;
Structure prediction by ZEFSAII (Michael W. Deem and Ramdas Pophale) SiO2 
 PCOD8268838
Probable space group: C M M M
;
_chemical_formula_sum "Si O2"
_cell_formula_units_Z 72
_cell_length_a 16.689363
_cell_length_b 18.644630
_cell_length_c 13.678206
_cell_angle_alpha 90.000000
_cell_angle_beta 90.000000
_cell_angle_gamma 90.000000
_cell_volume 4256.206300
_symmetry_space_group_name_H-M "C M M M"
_symmetry_group_IT_number 65
_symmetry_cell_setting 'orthorhombic'
loop_
_space_group_symop_operation_xyz
x,y,z
-x,-y,z
x,-y,-z
-x,y,-z
-x,-y,-z
x,y,-z
-x,y,z
x,-y,z
1/2+x,1/2+y,z
1/2-x,1/2-y,z
1/2+x,1/2-y,-z
1/2-x,1/2+y,-z
1/2-x,1/2-y,-z
1/2+x,1/2+y,-z
1/2-x,1/2+y,z
1/2+x,1/2-y,z
loop_
_atom_site_type_symbol
_atom_site_label
_atom_site_fract_x
_atom_site_fract_y
_atom_site_fract_z
Si Si1 0.589467 0.084911 0.608221
Si Si2 0.161418 0.843368 0.115744
Si Si3 0.813104 0.414743 0.793805
Si Si4 0.000000 0.078545 0.885066
Si Si5 0.912343 0.301255 0.113311
O O1 0.613397 0.113371 0.500000
O O2 0.500000 0.113516 0.636215
O O3 0.657275 0.109177 0.685525
O O4 0.586073 0.000000 0.607505
O O5 0.227081 0.881212 0.183343
O O6 0.078478 0.879335 0.147339
O O7 0.151806 0.759699 0.146196
O O8 0.181968 0.853107 0.000000
O O9 0.811487 0.500000 0.809158
O O10 0.877376 0.380187 0.867551
O O11 0.000000 0.000000 0.835565
O O12 0.000000 0.070277 0.000000
O O13 0.000000 0.292765 0.163819
O O14 0.925563 0.289746 0.000000
#
# Coordination Sequence:
#
# PCOD8268838 Si02
#       5
#    16  16  16   8  16
#     4   8  15  30  50  70  95 126 157 192 239 295
#     4  10  19  33  48  66  97 135 170 200 236 282
#     4  11  21  30  47  77 102 120 153 204 253 290
#     4   9  16  28  48  68  88 122 170 215 238 256
#     4  10  20  34  49  65  94 139 176 194 226 287
#
# _framework density 16.916474000000001
#
# number of rings (size 3 to 8) (size 9 to 14) (size 15 to 20)
#    0.000    2.333    1.111    3.333    0.000    5.778 
#    0.000    1.111    0.000    2.667    0.000    0.778 
#    0.000    4.444    0.000    0.000    0.000    0.000 
#
# Total GULP energy -446050.364891 kJ/mol
# GULP energy per Si atom -12390.287914 kJ/mol
# Density = 1.687797 g / cm^3
# Si number density = 16.916474 Si / 1000 Ang^3
#
#
#
# Elastic Constant Matrix: (Units=GPa)
#
#
# Indices 1 2 3 4 5 6 
#
# 1 137.1129 50.3850 57.3489 0.0000 0.0000 0.0000
# 2 50.3850 92.3189 33.1922 0.0000 0.0000 0.0000
# 3 57.3489 33.1922 58.3584 0.0000 0.0000 0.0000
# 4 0.0000 0.0000 0.0000 11.5710 0.0000 0.0000
# 5 0.0000 0.0000 0.0000 0.0000 14.0993 0.0000
# 6 0.0000 0.0000 0.0000 0.0000 0.0000 11.4126
#
#
#
# Elastic Compliance Matrix: (Units=1/GPa)
#
#
# Indices 1 2 3 4 5 6 
#
# 1 0.013079 -0.003164 -0.011053 0.000000 0.000000 0.000000
# 2 -0.003164 0.014382 -0.005071 0.000000 0.000000 0.000000
# 3 -0.011053 -0.005071 0.030881 0.000000 0.000000 0.000000
# 4 0.000000 0.000000 0.000000 0.086423 0.000000 0.000000
# 5 0.000000 0.000000 0.000000 0.000000 0.070926 0.000000
# 6 0.000000 0.000000 0.000000 0.000000 0.000000 0.087623
#
#
# Mechanical properties :
#
#
# Convention : Reuss Voigt Hill
#
# Bulk Modulus (GPa) = 50.59008 63.29360 56.94184
# Shear Modulus (GPa) = 14.34807 17.20750 15.77779
#
# Velocity S-wave (km/s) = 2.91550 3.19282 3.05731
# Velocity P-wave (km/s) = 6.42684 7.14764 6.79680
#
# Compressibility (1/GPa) = 0.01976672
#
# Stress axis : x y z
#
# Youngs Moduli (GPa) = 76.45778 69.53156 32.38194
#
# Poissons Ratio (x) = 0.22001 0.35792
# Poissons Ratio (y) = 0.24192 0.16419
# Poissons Ratio (z) = 0.84510 0.35256
#
# Static dielectric constant tensor:
#      x y z
#    x 3.384280 0.000000 0.000000 
#    y 0.000000 3.262990 0.000000 
#    z 0.000000 0.000000 3.100920 
# 
# 
# High freq. dielectric constant tensor:
#      x y z
#    x 1.664490 0.000000 0.000000 
#    y 0.000000 1.646300 0.000000 
#    z 0.000000 0.000000 1.607320 
# 
# From -- ./inp_files/39804.got.cif
#   From: 2010.03.12/outbox.cif.g09.slc.cpg/sg65_20_cif.got.tgz:39804.got - 2010.04.10 20:52:16.
