data_PCOD8268056
_publ_section_title
;
Structure prediction by ZEFSAII (Michael W. Deem and Ramdas Pophale) SiO2 
 PCOD8268056
Probable space group: C M M M
;
_chemical_formula_sum "Si O2"
_cell_formula_units_Z 104
_cell_length_a 29.265027
_cell_length_b 9.339116
_cell_length_c 20.434169
_cell_angle_alpha 90.000000
_cell_angle_beta 90.000000
_cell_angle_gamma 90.000000
_cell_volume 5584.852142
_symmetry_space_group_name_H-M "C M M M"
_symmetry_group_IT_number 65
_symmetry_cell_setting 'orthorhombic'
loop_
_space_group_symop_operation_xyz
x,y,z
-x,-y,z
x,-y,-z
-x,y,-z
-x,-y,-z
x,y,-z
-x,y,z
x,-y,z
1/2+x,1/2+y,z
1/2-x,1/2-y,z
1/2+x,1/2-y,-z
1/2-x,1/2+y,-z
1/2-x,1/2-y,-z
1/2+x,1/2+y,-z
1/2-x,1/2+y,z
1/2+x,1/2-y,z
loop_
_atom_site_type_symbol
_atom_site_label
_atom_site_fract_x
_atom_site_fract_y
_atom_site_fract_z
Si Si1 0.447072 0.663317 0.691587
Si Si2 0.298236 0.168065 0.000000
Si Si3 0.294815 0.333725 0.222551
Si Si4 0.550803 0.164904 0.178972
Si Si5 0.888982 0.170451 0.571931
Si Si6 0.206277 0.835623 0.375237
Si Si7 0.854702 0.334273 0.872400
O O1 0.500000 0.672272 0.674715
O O2 0.431150 0.500000 0.703567
O O3 0.434748 0.749448 0.756516
O O4 0.421480 0.732105 0.628873
O O5 0.250000 0.250000 0.000000
O O6 0.329364 0.213165 0.061483
O O7 0.287319 0.000000 0.000000
O O8 0.289314 0.500000 0.204118
O O9 0.250000 0.250000 0.198123
O O10 0.303391 0.310208 0.298877
O O11 0.337800 0.265950 0.186060
O O12 0.500000 0.212720 0.153455
O O13 0.589980 0.189803 0.123590
O O14 0.549332 0.000000 0.199569
O O15 0.904065 0.226983 0.500000
O O16 0.837285 0.221174 0.585113
O O17 0.891666 0.000000 0.573797
O O18 0.250000 0.750000 0.400256
O O19 0.216293 0.000000 0.390147
O O20 0.843961 0.500000 0.856603
#
# Coordination Sequence:
#
# PCOD8268056 Si02
#       7
#    16   8  16  16  16  16  16
#     4   9  17  30  50  75  99 123 156 199 243 288
#     4  10  22  38  53  73 103 135 166 200 237 282
#     4  10  19  31  49  73  99 126 160 203 249 294
#     4   9  18  33  53  76 101 129 161 199 245 292
#     4   9  17  29  45  66  93 124 157 194 238 287
#     4   9  18  31  46  65  90 120 155 197 242 285
#     4  10  20  34  52  74 101 132 165 200 239 285
#
# _framework density 18.621801000000001
#
# number of rings (size 3 to 8) (size 9 to 14) (size 15 to 20)
#    0.000    2.615    0.000    1.846    0.000    4.923 
#    0.000    2.692    0.000    3.692    0.000    2.154 
#    0.000    4.308    0.000    0.000    0.000    0.000 
#
# Total GULP energy -644622.472713 kJ/mol
# GULP energy per Si atom -12396.586014 kJ/mol
# Density = 1.857942 g / cm^3
# Si number density = 18.621801 Si / 1000 Ang^3
#
#
#
# Elastic Constant Matrix: (Units=GPa)
#
#
# Indices 1 2 3 4 5 6 
#
# 1 121.2154 33.1259 62.2896 0.0000 0.0000 0.0000
# 2 33.1259 48.5739 26.3676 0.0000 0.0000 0.0000
# 3 62.2896 26.3676 76.0603 0.0000 0.0000 0.0000
# 4 0.0000 0.0000 0.0000 15.8939 0.0000 0.0000
# 5 0.0000 0.0000 0.0000 0.0000 28.4340 0.0000
# 6 0.0000 0.0000 0.0000 0.0000 0.0000 25.7437
#
#
#
# Elastic Compliance Matrix: (Units=1/GPa)
#
#
# Indices 1 2 3 4 5 6 
#
# 1 0.014963 -0.004376 -0.010737 0.000000 0.000000 0.000000
# 2 -0.004376 0.026639 -0.005651 0.000000 0.000000 0.000000
# 3 -0.010737 -0.005651 0.023900 0.000000 0.000000 0.000000
# 4 0.000000 0.000000 0.000000 0.062917 0.000000 0.000000
# 5 0.000000 0.000000 0.000000 0.000000 0.035169 0.000000
# 6 0.000000 0.000000 0.000000 0.000000 0.000000 0.038844
#
#
# Mechanical properties :
#
#
# Convention : Reuss Voigt Hill
#
# Bulk Modulus (GPa) = 41.71277 54.37951 48.04614
# Shear Modulus (GPa) = 19.84501 22.28542 21.06521
#
# Velocity S-wave (km/s) = 3.26803 3.46314 3.36700
# Velocity P-wave (km/s) = 6.05711 6.72730 6.40098
#
# Compressibility (1/GPa) = 0.02397347
#
# Stress axis : x y z
#
# Youngs Moduli (GPa) = 66.83073 37.53878 41.84148
#
# Poissons Ratio (x) = 0.16427 0.44926
# Poissons Ratio (y) = 0.29245 0.23646
# Poissons Ratio (z) = 0.71757 0.21214
#
# Static dielectric constant tensor:
#      x y z
#    x 3.642870 0.000000 0.000000 
#    y 0.000000 3.276950 0.000000 
#    z 0.000000 0.000000 3.364760 
# 
# 
# High freq. dielectric constant tensor:
#      x y z
#    x 1.736240 0.000000 0.000000 
#    y 0.000000 1.699730 0.000000 
#    z 0.000000 0.000000 1.707620 
# 
# From -- ./inp_files/65908.got.cif
#   From: 2010.03.12/outbox.cif.g09.slc.cpg/sg65_33_cif.got.tgz:65908.got - 2010.04.10 20:52:16.
