data_PCOD8268133
_publ_section_title
;
Structure prediction by ZEFSAII (Michael W. Deem and Ramdas Pophale) SiO2 
 PCOD8268133
Probable space group: C M M M
;
_chemical_formula_sum "Si O2"
_cell_formula_units_Z 88
_cell_length_a 8.660363
_cell_length_b 27.479628
_cell_length_c 21.232410
_cell_angle_alpha 90.000000
_cell_angle_beta 90.000000
_cell_angle_gamma 90.000000
_cell_volume 5052.964383
_symmetry_space_group_name_H-M "C M M M"
_symmetry_group_IT_number 65
_symmetry_cell_setting 'orthorhombic'
loop_
_space_group_symop_operation_xyz
x,y,z
-x,-y,z
x,-y,-z
-x,y,-z
-x,-y,-z
x,y,-z
-x,y,z
x,-y,z
1/2+x,1/2+y,z
1/2-x,1/2-y,z
1/2+x,1/2-y,-z
1/2-x,1/2+y,-z
1/2-x,1/2-y,-z
1/2+x,1/2+y,-z
1/2-x,1/2+y,z
1/2+x,1/2-y,z
loop_
_atom_site_type_symbol
_atom_site_label
_atom_site_fract_x
_atom_site_fract_y
_atom_site_fract_z
Si Si1 0.819194 0.802050 0.071680
Si Si2 0.183674 0.555322 0.500000
Si Si3 0.817068 0.648096 0.813198
Si Si4 0.317882 0.052871 0.748580
Si Si5 0.682731 0.301976 0.307080
Si Si6 0.817394 0.608292 0.625593
O O1 0.750000 0.750000 0.088648
O O2 0.740836 0.841399 0.116678
O O3 0.000000 0.800165 0.084119
O O4 0.780181 0.816778 0.000000
O O5 0.249916 0.500000 0.500000
O O6 0.242763 0.585337 0.439541
O O7 0.000000 0.552409 0.500000
O O8 0.761649 0.592926 0.798924
O O9 0.744444 0.684478 0.762286
O O10 0.000000 0.653565 0.808359
O O11 0.500000 0.048153 0.752134
O O12 0.269472 0.069705 0.678970
O O13 0.242161 0.000000 0.762886
O O14 0.500000 0.299425 0.304625
O O15 0.750000 0.250000 0.327154
O O16 0.735314 0.340467 0.360201
O O17 0.000000 0.617734 0.625103
#
# Coordination Sequence:
#
# PCOD8268133 Si02
#       6
#    16   8  16  16  16  16
#     4  10  20  33  49  70  98 130 162 196 236 284
#     4   9  16  28  52  81 104 129 162 201 242 287
#     4  10  19  31  50  75 100 126 159 199 241 285
#     4   8  14  26  46  71  97 124 156 196 237 276
#     4  11  21  34  51  70  96 128 163 201 243 289
#     4   9  17  30  49  75 102 127 160 199 240 286
#
# _framework density 17.415519
#
# number of rings (size 3 to 8) (size 9 to 14) (size 15 to 20)
#    0.000    2.455    0.000    4.909    0.000    3.273 
#    0.000    0.909    0.000   19.636    0.000    3.818 
#    0.000    0.000    0.000    0.000    0.000    0.000 
#
# Total GULP energy -545519.686858 kJ/mol
# GULP energy per Si atom -12398.174701 kJ/mol
# Density = 1.737588 g / cm^3
# Si number density = 17.415519 Si / 1000 Ang^3
#
#
#
# Elastic Constant Matrix: (Units=GPa)
#
#
# Indices 1 2 3 4 5 6 
#
# 1 74.6630 45.2639 38.9043 0.0000 0.0000 0.0000
# 2 45.2639 153.4816 80.2885 0.0000 0.0000 0.0000
# 3 38.9043 80.2885 130.6895 0.0000 0.0000 0.0000
# 4 0.0000 0.0000 0.0000 24.8542 0.0000 0.0000
# 5 0.0000 0.0000 0.0000 0.0000 23.5865 0.0000
# 6 0.0000 0.0000 0.0000 0.0000 0.0000 20.0515
#
#
#
# Elastic Compliance Matrix: (Units=1/GPa)
#
#
# Indices 1 2 3 4 5 6 
#
# 1 0.017036 -0.003494 -0.002925 0.000000 0.000000 0.000000
# 2 -0.003494 0.010318 -0.005298 0.000000 0.000000 0.000000
# 3 -0.002925 -0.005298 0.011777 0.000000 0.000000 0.000000
# 4 0.000000 0.000000 0.000000 0.040235 0.000000 0.000000
# 5 0.000000 0.000000 0.000000 0.000000 0.042397 0.000000
# 6 0.000000 0.000000 0.000000 0.000000 0.000000 0.049871
#
#
# Mechanical properties :
#
#
# Convention : Reuss Voigt Hill
#
# Bulk Modulus (GPa) = 63.70928 76.41637 70.06282
# Shear Modulus (GPa) = 24.96248 26.65694 25.80971
#
# Velocity S-wave (km/s) = 3.79006 3.91659 3.85384
# Velocity P-wave (km/s) = 7.47088 8.02661 7.75373
#
# Compressibility (1/GPa) = 0.01569630
#
# Stress axis : x y z
#
# Youngs Moduli (GPa) = 58.70001 96.92193 84.90832
#
# Poissons Ratio (x) = 0.33866 0.24833
# Poissons Ratio (y) = 0.20511 0.44988
# Poissons Ratio (z) = 0.17168 0.51353
#
# Static dielectric constant tensor:
#      x y z
#    x 3.048050 0.000000 0.000000 
#    y 0.000000 3.517270 0.000000 
#    z 0.000000 0.000000 3.257750 
# 
# 
# High freq. dielectric constant tensor:
#      x y z
#    x 1.656650 0.000000 0.000000 
#    y 0.000000 1.675400 0.000000 
#    z 0.000000 0.000000 1.663320 
# 
# From -- ./inp_files/59811.got.cif
#   From: 2010.03.12/outbox.cif.g09.slc.cpg/sg65_30_cif.got.tgz:59811.got - 2010.04.10 20:52:16.
