data_PCOD8268153
_publ_section_title
;
Structure prediction by ZEFSAII (Michael W. Deem and Ramdas Pophale) SiO2 
 PCOD8268153
Probable space group: C M M M
;
_chemical_formula_sum "Si O2"
_cell_formula_units_Z 104
_cell_length_a 21.962252
_cell_length_b 14.988425
_cell_length_c 17.047944
_cell_angle_alpha 90.000000
_cell_angle_beta 90.000000
_cell_angle_gamma 90.000000
_cell_volume 5611.834823
_symmetry_space_group_name_H-M "C M M M"
_symmetry_group_IT_number 65
_symmetry_cell_setting 'orthorhombic'
loop_
_space_group_symop_operation_xyz
x,y,z
-x,-y,z
x,-y,-z
-x,y,-z
-x,-y,-z
x,y,-z
-x,y,z
x,-y,z
1/2+x,1/2+y,z
1/2-x,1/2-y,z
1/2+x,1/2-y,-z
1/2-x,1/2+y,-z
1/2-x,1/2-y,-z
1/2+x,1/2+y,-z
1/2-x,1/2+y,z
1/2+x,1/2-y,z
loop_
_atom_site_type_symbol
_atom_site_label
_atom_site_fract_x
_atom_site_fract_y
_atom_site_fract_z
Si Si1 0.635992 0.598945 0.192867
Si Si2 0.071261 0.740434 0.264879
Si Si3 0.758436 0.105644 0.087038
Si Si4 0.066874 0.000000 0.407921
Si Si5 0.268987 0.598370 0.667416
Si Si6 0.833121 0.394781 0.781221
Si Si7 0.869960 0.182644 0.409564
O O1 0.606360 0.500000 0.182662
O O2 0.584004 0.669722 0.215285
O O3 0.672906 0.630073 0.115146
O O4 0.687781 0.594507 0.257915
O O5 0.103135 0.657169 0.221816
O O6 0.097600 0.745372 0.354012
O O7 0.000000 0.721673 0.268299
O O8 0.705726 0.142793 0.144893
O O9 0.752226 0.000000 0.086963
O O10 0.748415 0.145654 0.000000
O O11 0.102511 0.087578 0.381380
O O12 0.059713 0.000000 0.500000
O O13 0.000000 0.000000 0.368398
O O14 0.264330 0.500000 0.627857
O O15 0.202958 0.627620 0.699897
O O16 0.297105 0.670463 0.605749
O O17 0.845844 0.500000 0.788318
O O18 0.882909 0.207225 0.500000
#
# Coordination Sequence:
#
# PCOD8268153 Si02
#       7
#    16  16  16   8  16  16  16
#     4   8  16  30  48  75 109 135 157 194 247 311
#     4  11  23  35  50  71  99 141 187 218 247 301
#     4   8  14  29  58  89 109 129 162 209 266 317
#     4   9  16  26  42  68 102 136 160 186 240 305
#     4   8  14  28  49  72  99 128 156 197 260 319
#     4   9  19  36  55  75 101 132 172 223 267 304
#     4  10  19  31  50  75 103 132 164 213 265 310
#
# _framework density 18.532263
#
# number of rings (size 3 to 8) (size 9 to 14) (size 15 to 20)
#    0.000    3.000    0.769    2.308    1.077    7.077 
#    0.000    3.077    0.000    3.231    0.000    5.385 
#    0.000    0.000    0.000    0.000    0.000    0.000 
#
# Total GULP energy -644332.032905 kJ/mol
# GULP energy per Si atom -12391.000633 kJ/mol
# Density = 1.849008 g / cm^3
# Si number density = 18.532263 Si / 1000 Ang^3
#
#
#
# Elastic Constant Matrix: (Units=GPa)
#
#
# Indices 1 2 3 4 5 6 
#
# 1 97.3663 33.7756 40.1590 0.0000 0.0000 0.0000
# 2 33.7756 45.6698 22.9270 0.0000 0.0000 0.0000
# 3 40.1590 22.9270 92.0064 0.0000 0.0000 0.0000
# 4 0.0000 0.0000 0.0000 11.2813 0.0000 0.0000
# 5 0.0000 0.0000 0.0000 0.0000 13.9564 0.0000
# 6 0.0000 0.0000 0.0000 0.0000 0.0000 17.7245
#
#
#
# Elastic Compliance Matrix: (Units=1/GPa)
#
#
# Indices 1 2 3 4 5 6 
#
# 1 0.015221 -0.009054 -0.004387 0.000000 0.000000 0.000000
# 2 -0.009054 0.030413 -0.003627 0.000000 0.000000 0.000000
# 3 -0.004387 -0.003627 0.013688 0.000000 0.000000 0.000000
# 4 0.000000 0.000000 0.000000 0.088642 0.000000 0.000000
# 5 0.000000 0.000000 0.000000 0.000000 0.071652 0.000000
# 6 0.000000 0.000000 0.000000 0.000000 0.000000 0.056419
#
#
# Mechanical properties :
#
#
# Convention : Reuss Voigt Hill
#
# Bulk Modulus (GPa) = 39.70615 47.64062 43.67339
# Shear Modulus (GPa) = 15.69533 17.80451 16.74992
#
# Velocity S-wave (km/s) = 2.91334 3.10293 3.00963
# Velocity P-wave (km/s) = 5.72614 6.21291 5.97448
#
# Compressibility (1/GPa) = 0.02518502
#
# Stress axis : x y z
#
# Youngs Moduli (GPa) = 65.69902 32.88058 73.05918
#
# Poissons Ratio (x) = 0.29771 0.32054
# Poissons Ratio (y) = 0.59485 0.26496
# Poissons Ratio (z) = 0.28825 0.11925
#
# Static dielectric constant tensor:
#      x y z
#    x 3.325590 0.000000 0.000000 
#    y 0.000000 3.244080 0.000000 
#    z 0.000000 0.000000 3.601070 
# 
# 
# High freq. dielectric constant tensor:
#      x y z
#    x 1.691710 0.000000 0.000000 
#    y 0.000000 1.701640 0.000000 
#    z 0.000000 0.000000 1.701020 
# 
# From -- ./inp_files/56830.got.cif
#   From: 2010.03.12/outbox.cif.g09.slc.cpg/sg65_29_cif.got.tgz:56830.got - 2010.04.10 20:52:16.
