data_PCOD8268488
_publ_section_title
;
Structure prediction by ZEFSAII (Michael W. Deem and Ramdas Pophale) SiO2 
 PCOD8268488
Probable space group: C M M M
;
_chemical_formula_sum "Si O2"
_cell_formula_units_Z 80
_cell_length_a 8.984456
_cell_length_b 20.047778
_cell_length_c 26.695601
_cell_angle_alpha 90.000000
_cell_angle_beta 90.000000
_cell_angle_gamma 90.000000
_cell_volume 4808.368388
_symmetry_space_group_name_H-M "C M M M"
_symmetry_group_IT_number 65
_symmetry_cell_setting 'orthorhombic'
loop_
_space_group_symop_operation_xyz
x,y,z
-x,-y,z
x,-y,-z
-x,y,-z
-x,-y,-z
x,y,-z
-x,y,z
x,-y,z
1/2+x,1/2+y,z
1/2-x,1/2-y,z
1/2+x,1/2-y,-z
1/2-x,1/2+y,-z
1/2-x,1/2-y,-z
1/2+x,1/2+y,-z
1/2-x,1/2+y,z
1/2+x,1/2-y,z
loop_
_atom_site_type_symbol
_atom_site_label
_atom_site_fract_x
_atom_site_fract_y
_atom_site_fract_z
Si Si1 0.831649 0.926304 0.137967
Si Si2 0.825655 0.682478 0.680103
Si Si3 0.175717 0.681582 0.205429
Si Si4 0.332511 0.420739 0.500000
Si Si5 0.675284 0.075959 0.400314
Si Si6 0.323856 0.000000 0.942121
O O1 0.738062 0.878196 0.172803
O O2 0.000000 0.899428 0.130246
O O3 0.834736 0.000000 0.163512
O O4 0.748397 0.933981 0.083995
O O5 0.750000 0.750000 0.660530
O O6 0.779213 0.667111 0.737156
O O7 0.771593 0.620525 0.646453
O O8 0.000000 0.693361 0.675353
O O9 0.250000 0.750000 0.186841
O O10 0.000000 0.686823 0.198226
O O11 0.326982 0.500000 0.500000
O O12 0.500000 0.393189 0.500000
O O13 0.250547 0.394468 0.549689
O O14 0.500000 0.079745 0.408461
O O15 0.726172 0.000000 0.389501
O O16 0.500000 0.000000 0.933891
O O17 0.279735 0.000000 0.000000
#
# Coordination Sequence:
#
# PCOD8268488 Si02
#       6
#    16  16  16   8  16   8
#     4   9  19  32  49  75 105 134 169 208 247 292
#     4   9  19  33  49  70  95 127 161 197 241 292
#     4  10  19  32  51  72 100 135 171 208 251 299
#     4   9  17  29  46  69  94 117 149 191 242 291
#     4   9  17  31  50  70  92 120 156 195 238 288
#     4   9  17  31  53  79 105 135 171 208 249 294
#
# _framework density 16.63766
#
# number of rings (size 3 to 8) (size 9 to 14) (size 15 to 20)
#    0.600    2.200    0.000    1.500    0.000    4.400 
#    0.000    2.500    0.000    3.000    0.000    0.000 
#    0.000    0.000    0.000    0.000    0.000    0.000 
#
# Total GULP energy -495830.532501 kJ/mol
# GULP energy per Si atom -12395.763313 kJ/mol
# Density = 1.659979 g / cm^3
# Si number density = 16.637660 Si / 1000 Ang^3
#
#
#
# Elastic Constant Matrix: (Units=GPa)
#
#
# Indices 1 2 3 4 5 6 
#
# 1 74.9566 40.0226 48.6581 0.0000 0.0000 0.0000
# 2 40.0226 87.8428 65.6587 0.0000 0.0000 0.0000
# 3 48.6581 65.6587 112.7598 0.0000 0.0000 0.0000
# 4 0.0000 0.0000 0.0000 1.3487 0.0000 0.0000
# 5 0.0000 0.0000 0.0000 0.0000 22.2970 0.0000
# 6 0.0000 0.0000 0.0000 0.0000 0.0000 28.7429
#
#
#
# Elastic Compliance Matrix: (Units=1/GPa)
#
#
# Indices 1 2 3 4 5 6 
#
# 1 0.019529 -0.004602 -0.005748 0.000000 0.000000 0.000000
# 2 -0.004602 0.021241 -0.010383 0.000000 0.000000 0.000000
# 3 -0.005748 -0.010383 0.017395 0.000000 0.000000 0.000000
# 4 0.000000 0.000000 0.000000 0.741468 0.000000 0.000000
# 5 0.000000 0.000000 0.000000 0.000000 0.044849 0.000000
# 6 0.000000 0.000000 0.000000 0.000000 0.000000 0.034791
#
#
# Mechanical properties :
#
#
# Convention : Reuss Voigt Hill
#
# Bulk Modulus (GPa) = 59.87845 64.91535 62.39690
# Shear Modulus (GPa) = 5.39779 18.55903 11.97841
#
# Velocity S-wave (km/s) = 1.80315 3.34351 2.68611
# Velocity P-wave (km/s) = 6.35633 7.34896 6.87060
#
# Compressibility (1/GPa) = 0.01670050
#
# Stress axis : x y z
#
# Youngs Moduli (GPa) = 51.20530 47.07811 57.48934
#
# Poissons Ratio (x) = 0.21663 0.33044
# Poissons Ratio (y) = 0.23563 0.59690
# Poissons Ratio (z) = 0.29432 0.48881
#
# Static dielectric constant tensor:
#      x y z
#    x 3.178440 0.000000 0.000000 
#    y 0.000000 3.033310 0.000000 
#    z 0.000000 0.000000 3.103520 
# 
# 
# High freq. dielectric constant tensor:
#      x y z
#    x 1.651350 0.000000 0.000000 
#    y 0.000000 1.620890 0.000000 
#    z 0.000000 0.000000 1.631820 
# 
# From -- ./inp_files/73020.got.cif
#   From: 2010.03.12/outbox.cif.g09.slc.cpg/sg65_37_cif.got.tgz:73020.got - 2010.04.10 20:52:16.
