data_PCOD8268204
_publ_section_title
;
Structure prediction by ZEFSAII (Michael W. Deem and Ramdas Pophale) SiO2 
 PCOD8268204
Probable space group: C M M M
;
_chemical_formula_sum "Si O2"
_cell_formula_units_Z 104
_cell_length_a 22.416348
_cell_length_b 26.752442
_cell_length_c 8.926867
_cell_angle_alpha 90.000000
_cell_angle_beta 90.000000
_cell_angle_gamma 90.000000
_cell_volume 5353.371169
_symmetry_space_group_name_H-M "C M M M"
_symmetry_group_IT_number 65
_symmetry_cell_setting 'orthorhombic'
loop_
_space_group_symop_operation_xyz
x,y,z
-x,-y,z
x,-y,-z
-x,y,-z
-x,-y,-z
x,y,-z
-x,y,z
x,-y,z
1/2+x,1/2+y,z
1/2-x,1/2-y,z
1/2+x,1/2-y,-z
1/2-x,1/2+y,-z
1/2-x,1/2-y,-z
1/2+x,1/2+y,-z
1/2-x,1/2+y,z
1/2+x,1/2-y,z
loop_
_atom_site_type_symbol
_atom_site_label
_atom_site_fract_x
_atom_site_fract_y
_atom_site_fract_z
Si Si1 0.151061 0.580739 0.322490
Si Si2 0.230093 0.943268 0.164636
Si Si3 0.070242 0.500000 0.175054
Si Si4 0.328657 0.295476 0.677913
Si Si5 0.613583 0.442449 0.324390
Si Si6 0.197590 0.314803 0.323099
Si Si7 0.433957 0.645732 0.171257
O O1 0.144308 0.574875 0.500000
O O2 0.212259 0.556601 0.268945
O O3 0.096727 0.550936 0.246025
O O4 0.154830 0.639246 0.271620
O O5 0.174754 0.919600 0.254500
O O6 0.211939 0.000000 0.137614
O O7 0.240169 0.917908 0.000000
O O8 0.000000 0.500000 0.205487
O O9 0.085894 0.500000 0.000000
O O10 0.334906 0.299407 0.500000
O O11 0.266459 0.321533 0.733247
O O12 0.328543 0.237684 0.733197
O O13 0.386565 0.318553 0.751548
O O14 0.617414 0.433932 0.500000
O O15 0.600494 0.500000 0.285407
O O16 0.562449 0.408259 0.252743
O O17 0.201053 0.313729 0.500000
O O18 0.500000 0.669734 0.184647
O O19 0.415424 0.637596 0.000000
#
# Coordination Sequence:
#
# PCOD8268204 Si02
#       7
#    16  16   8  16  16  16  16
#     4  11  20  33  57  86 114 145 186 234 283 340
#     4  10  19  31  50  79 116 149 178 216 269 328
#     4  11  25  43  57  73 107 155 202 245 294 353
#     4   9  17  36  62  85 113 146 182 225 277 339
#     4  10  21  36  55  80 109 142 188 236 275 320
#     4   8  17  33  58  91 117 138 172 228 291 340
#     4  11  24  39  54  76 110 150 189 229 277 332
#
# _framework density 19.427011
#
# number of rings (size 3 to 8) (size 9 to 14) (size 15 to 20)
#    0.000    2.077    0.769    3.923    0.000    4.923 
#    0.000    6.154    0.000    4.615    0.000    0.000 
#    0.000    0.000    0.000    0.000    0.000    0.000 
#
# Total GULP energy -644452.440433 kJ/mol
# GULP energy per Si atom -12393.316162 kJ/mol
# Density = 1.938279 g / cm^3
# Si number density = 19.427011 Si / 1000 Ang^3
#
#
#
# Elastic Constant Matrix: (Units=GPa)
#
#
# Indices 1 2 3 4 5 6 
#
# 1 112.8077 62.2584 49.1520 0.0000 0.0000 0.0000
# 2 62.2584 116.3334 49.0534 0.0000 0.0000 0.0000
# 3 49.1520 49.0534 93.4619 0.0000 0.0000 0.0000
# 4 0.0000 0.0000 0.0000 17.4869 0.0000 0.0000
# 5 0.0000 0.0000 0.0000 0.0000 30.5245 0.0000
# 6 0.0000 0.0000 0.0000 0.0000 0.0000 27.8949
#
#
#
# Elastic Compliance Matrix: (Units=1/GPa)
#
#
# Indices 1 2 3 4 5 6 
#
# 1 0.013835 -0.005568 -0.004353 0.000000 0.000000 0.000000
# 2 -0.005568 0.013280 -0.004042 0.000000 0.000000 0.000000
# 3 -0.004353 -0.004042 0.015110 0.000000 0.000000 0.000000
# 4 0.000000 0.000000 0.000000 0.057186 0.000000 0.000000
# 5 0.000000 0.000000 0.000000 0.000000 0.032761 0.000000
# 6 0.000000 0.000000 0.000000 0.000000 0.000000 0.035849
#
#
# Mechanical properties :
#
#
# Convention : Reuss Voigt Hill
#
# Bulk Modulus (GPa) = 69.93681 71.50343 70.72012
# Shear Modulus (GPa) = 24.91126 25.99054 25.45090
#
# Velocity S-wave (km/s) = 3.58481 3.66164 3.62343
# Velocity P-wave (km/s) = 7.29468 7.40020 7.34763
#
# Compressibility (1/GPa) = 0.01429862
#
# Stress axis : x y z
#
# Youngs Moduli (GPa) = 72.28305 75.29995 66.18065
#
# Poissons Ratio (x) = 0.41929 0.28809
# Poissons Ratio (y) = 0.40249 0.26748
# Poissons Ratio (z) = 0.31466 0.30434
#
# Static dielectric constant tensor:
#      x y z
#    x 3.406440 0.000000 0.000000 
#    y 0.000000 3.942700 0.000000 
#    z 0.000000 0.000000 3.553360 
# 
# 
# High freq. dielectric constant tensor:
#      x y z
#    x 1.739060 0.000000 0.000000 
#    y 0.000000 1.758720 0.000000 
#    z 0.000000 0.000000 1.753350 
# 
# From -- ./inp_files/12424.got.cif
#   From: 2010.03.12/outbox.cif.g09.slc.cpg/sg65_7_cif.got.tgz:12424.got - 2010.04.10 20:52:16.
