data_PCOD8268741
_publ_section_title
;
Structure prediction by ZEFSAII (Michael W. Deem and Ramdas Pophale) SiO2 
 PCOD8268741
Probable space group: C M M M
;
_chemical_formula_sum "Si O2"
_cell_formula_units_Z 104
_cell_length_a 27.189689
_cell_length_b 22.799603
_cell_length_c 9.682135
_cell_angle_alpha 90.000000
_cell_angle_beta 90.000000
_cell_angle_gamma 90.000000
_cell_volume 6002.092149
_symmetry_space_group_name_H-M "C M M M"
_symmetry_group_IT_number 65
_symmetry_cell_setting 'orthorhombic'
loop_
_space_group_symop_operation_xyz
x,y,z
-x,-y,z
x,-y,-z
-x,y,-z
-x,-y,-z
x,y,-z
-x,y,z
x,-y,z
1/2+x,1/2+y,z
1/2-x,1/2-y,z
1/2+x,1/2-y,-z
1/2-x,1/2+y,-z
1/2-x,1/2-y,-z
1/2+x,1/2+y,-z
1/2-x,1/2+y,z
1/2+x,1/2-y,z
loop_
_atom_site_type_symbol
_atom_site_label
_atom_site_fract_x
_atom_site_fract_y
_atom_site_fract_z
Si Si1 0.257374 0.500000 0.661214
Si Si2 0.447494 0.067855 0.500000
Si Si3 0.164717 0.500000 0.851611
Si Si4 0.851655 0.212064 0.166630
Si Si5 0.298573 0.375102 0.659125
Si Si6 0.886905 0.610517 0.247848
Si Si7 0.445629 0.779926 0.157175
Si Si8 0.302619 0.191421 0.657018
O O1 0.245214 0.500000 0.500000
O O2 0.204424 0.500000 0.731559
O O3 0.287956 0.442208 0.703036
O O4 0.500000 0.100830 0.500000
O O5 0.419697 0.084224 0.364619
O O6 0.456306 0.000000 0.500000
O O7 0.130711 0.557777 0.848984
O O8 0.191805 0.500000 0.000000
O O9 0.840756 0.148976 0.236861
O O10 0.906813 0.231541 0.214316
O O11 0.812460 0.257694 0.231556
O O12 0.845797 0.210359 0.000000
O O13 0.316483 0.372519 0.500000
O O14 0.251130 0.334561 0.681108
O O15 0.920033 0.656621 0.164392
O O16 0.840168 0.638987 0.321036
O O17 0.500000 0.777472 0.231348
O O18 0.454938 0.764805 0.000000
O O19 0.307631 0.216170 0.500000
#
# Coordination Sequence:
#
# PCOD8268741 Si02
#       8
#     8   8   8  16  16  16  16  16
#     4  10  22  38  58  78 106 146 187 215 254 312
#     4  11  22  32  48  70  93 132 186 241 281 306
#     4  12  24  34  50  77 108 143 183 224 270 315
#     4  10  21  34  52  78 107 137 170 217 268 311
#     4  10  20  35  54  77 105 137 178 210 254 314
#     4  11  20  34  52  71 103 135 179 228 269 310
#     4   9  19  37  56  73  99 136 176 218 269 324
#     4  10  19  32  53  75  99 140 177 212 255 310
#
# _framework density 17.327292
#
# number of rings (size 3 to 8) (size 9 to 14) (size 15 to 20)
#    0.000    1.769    3.077    1.846    1.077    3.692 
#    0.000    0.000    0.000    1.846    0.000    0.538 
#    0.000    4.308    0.000    0.000    0.000    0.000 
#
# Total GULP energy -644463.499504 kJ/mol
# GULP energy per Si atom -12393.528837 kJ/mol
# Density = 1.728785 g / cm^3
# Si number density = 17.327292 Si / 1000 Ang^3
#
#
#
# Elastic Constant Matrix: (Units=GPa)
#
#
# Indices 1 2 3 4 5 6 
#
# 1 96.6018 62.2316 33.8774 0.0000 0.0000 0.0000
# 2 62.2316 85.2839 44.4181 0.0000 0.0000 0.0000
# 3 33.8774 44.4181 76.6959 0.0000 0.0000 0.0000
# 4 0.0000 0.0000 0.0000 29.2953 0.0000 0.0000
# 5 0.0000 0.0000 0.0000 0.0000 26.3350 0.0000
# 6 0.0000 0.0000 0.0000 0.0000 0.0000 18.4573
#
#
#
# Elastic Compliance Matrix: (Units=1/GPa)
#
#
# Indices 1 2 3 4 5 6 
#
# 1 0.019550 -0.013987 -0.000535 0.000000 0.000000 0.000000
# 2 -0.013987 0.026797 -0.009341 0.000000 0.000000 0.000000
# 3 -0.000535 -0.009341 0.018685 0.000000 0.000000 0.000000
# 4 0.000000 0.000000 0.000000 0.034135 0.000000 0.000000
# 5 0.000000 0.000000 0.000000 0.000000 0.037972 0.000000
# 6 0.000000 0.000000 0.000000 0.000000 0.000000 0.054179
#
#
# Mechanical properties :
#
#
# Convention : Reuss Voigt Hill
#
# Bulk Modulus (GPa) = 57.78517 59.95952 58.87235
# Shear Modulus (GPa) = 20.42382 22.68783 21.55582
#
# Velocity S-wave (km/s) = 3.43696 3.62245 3.53092
# Velocity P-wave (km/s) = 7.01226 7.22325 7.11854
#
# Compressibility (1/GPa) = 0.01730548
#
# Stress axis : x y z
#
# Youngs Moduli (GPa) = 51.15140 37.31786 53.51984
#
# Poissons Ratio (x) = 0.52196 0.02863
# Poissons Ratio (y) = 0.71545 0.49993
# Poissons Ratio (z) = 0.02736 0.34859
#
# Static dielectric constant tensor:
#      x y z
#    x 3.352430 0.000000 0.000000 
#    y 0.000000 3.181530 0.000000 
#    z 0.000000 0.000000 3.126110 
# 
# 
# High freq. dielectric constant tensor:
#      x y z
#    x 1.657530 0.000000 0.000000 
#    y 0.000000 1.661840 0.000000 
#    z 0.000000 0.000000 1.666500 
# 
# From -- ./inp_files/14833.got.cif
#   From: 2010.03.12/outbox.cif.g09.slc.cpg/sg65_8_cif.got.tgz:14833.got - 2010.04.10 20:52:16.
