data_PCOD8268557
_publ_section_title
;
Structure prediction by ZEFSAII (Michael W. Deem and Ramdas Pophale) SiO2 
 PCOD8268557
Probable space group: C M M M
;
_chemical_formula_sum "Si O2"
_cell_formula_units_Z 128
_cell_length_a 18.314772
_cell_length_b 17.055365
_cell_length_c 22.542172
_cell_angle_alpha 90.000000
_cell_angle_beta 90.000000
_cell_angle_gamma 90.000000
_cell_volume 7041.388292
_symmetry_space_group_name_H-M "C M M M"
_symmetry_group_IT_number 65
_symmetry_cell_setting 'orthorhombic'
loop_
_space_group_symop_operation_xyz
x,y,z
-x,-y,z
x,-y,-z
-x,y,-z
-x,-y,-z
x,y,-z
-x,y,z
x,-y,z
1/2+x,1/2+y,z
1/2-x,1/2-y,z
1/2+x,1/2-y,-z
1/2-x,1/2+y,-z
1/2-x,1/2-y,-z
1/2+x,1/2+y,-z
1/2-x,1/2+y,z
1/2+x,1/2-y,z
loop_
_atom_site_type_symbol
_atom_site_label
_atom_site_fract_x
_atom_site_fract_y
_atom_site_fract_z
Si Si1 0.290841 0.830788 0.374588
Si Si2 0.415815 0.698255 0.933654
Si Si3 0.719561 0.336569 0.861233
Si Si4 0.284908 0.906717 0.247070
Si Si5 0.584880 0.741365 0.570124
Si Si6 0.665699 0.586436 0.430667
Si Si7 0.422758 0.913111 0.819973
Si Si8 0.354723 0.127737 0.934510
O O1 0.250000 0.750000 0.382107
O O2 0.281968 0.861645 0.308318
O O3 0.373732 0.813348 0.396217
O O4 0.250318 0.893936 0.416285
O O5 0.500000 0.693396 0.911814
O O6 0.363072 0.655879 0.886073
O O7 0.388020 0.786277 0.936812
O O8 0.409021 0.661557 0.000000
O O9 0.750000 0.250000 0.848555
O O10 0.720074 0.383515 0.798397
O O11 0.771526 0.374744 0.911167
O O12 0.358091 0.871781 0.215879
O O13 0.284957 0.000000 0.257145
O O14 0.599855 0.749369 0.500000
O O15 0.500000 0.749510 0.585679
O O16 0.612520 0.655711 0.593471
O O17 0.655630 0.580856 0.500000
O O18 0.646022 0.500000 0.403328
O O19 0.500000 0.868007 0.810513
O O20 0.404903 0.920920 0.889703
O O21 0.430718 0.000000 0.794266
O O22 0.356268 0.089690 0.000000
#
# Coordination Sequence:
#
# PCOD8268557 Si02
#       8
#    16  16  16  16  16  16  16  16
#     4  10  19  32  51  74  99 129 168 210 249 293
#     4   9  16  26  44  70  94 115 145 188 236 288
#     4   9  17  30  47  66  90 120 153 192 237 284
#     4  10  20  33  49  67  88 121 163 203 242 286
#     4   9  18  32  51  78 110 139 167 204 251 300
#     4   9  17  30  51  78 106 137 171 207 248 293
#     4   9  18  30  41  57  84 115 147 185 229 280
#     4   9  16  26  41  62  87 114 145 182 228 281
#
# _framework density 18.178232999999999
#
# number of rings (size 3 to 8) (size 9 to 14) (size 15 to 20)
#    0.000    2.750    0.000    1.875    0.000    4.750 
#    0.000    1.875    0.000   10.125    0.000    5.250 
#    0.000    0.000    0.000    0.000    0.000    0.000 
#
# Total GULP energy -792838.209750 kJ/mol
# GULP energy per Si atom -12388.097027 kJ/mol
# Density = 1.813686 g / cm^3
# Si number density = 18.178233 Si / 1000 Ang^3
#
#
#
# Elastic Constant Matrix: (Units=GPa)
#
#
# Indices 1 2 3 4 5 6 
#
# 1 118.4750 15.5533 26.0474 0.0000 0.0000 0.0000
# 2 15.5533 29.8893 11.5041 0.0000 0.0000 0.0000
# 3 26.0474 11.5041 44.8318 0.0000 0.0000 0.0000
# 4 0.0000 0.0000 0.0000 22.8076 0.0000 0.0000
# 5 0.0000 0.0000 0.0000 0.0000 18.0720 0.0000
# 6 0.0000 0.0000 0.0000 0.0000 0.0000 15.1138
#
#
#
# Elastic Compliance Matrix: (Units=1/GPa)
#
#
# Indices 1 2 3 4 5 6 
#
# 1 0.009958 -0.003279 -0.004944 0.000000 0.000000 0.000000
# 2 -0.003279 0.038203 -0.007898 0.000000 0.000000 0.000000
# 3 -0.004944 -0.007898 0.027205 0.000000 0.000000 0.000000
# 4 0.000000 0.000000 0.000000 0.043845 0.000000 0.000000
# 5 0.000000 0.000000 0.000000 0.000000 0.055334 0.000000
# 6 0.000000 0.000000 0.000000 0.000000 0.000000 0.066165
#
#
# Mechanical properties :
#
#
# Convention : Reuss Voigt Hill
#
# Bulk Modulus (GPa) = 23.18923 33.26731 28.22827
# Shear Modulus (GPa) = 17.40180 20.53811 18.96995
#
# Velocity S-wave (km/s) = 3.09736 3.36492 3.23391
# Velocity P-wave (km/s) = 5.05725 5.78250 5.43200
#
# Compressibility (1/GPa) = 0.04312347
#
# Stress axis : x y z
#
# Youngs Moduli (GPa) = 100.42109 26.17603 36.75798
#
# Poissons Ratio (x) = 0.08583 0.18174
# Poissons Ratio (y) = 0.32926 0.29032
# Poissons Ratio (z) = 0.49651 0.20674
#
# Static dielectric constant tensor:
#      x y z
#    x 3.557610 0.000000 0.000000 
#    y 0.000000 3.346690 0.000000 
#    z 0.000000 0.000000 3.308750 
# 
# 
# High freq. dielectric constant tensor:
#      x y z
#    x 1.698830 0.000000 0.000000 
#    y 0.000000 1.681250 0.000000 
#    z 0.000000 0.000000 1.693420 
# 
# From -- ./inp_files/70678.got.cif
#   From: 2010.03.12/outbox.cif.g09.slc.cpg/sg65_36_cif.got.tgz:70678.got - 2010.04.10 20:52:16.
