data_PCOD8268159
_publ_section_title
;
Structure prediction by ZEFSAII (Michael W. Deem and Ramdas Pophale) SiO2 
 PCOD8268159
Probable space group: C M M M
;
_chemical_formula_sum "Si O2"
_cell_formula_units_Z 72
_cell_length_a 27.452330
_cell_length_b 17.607757
_cell_length_c 7.702905
_cell_angle_alpha 90.000000
_cell_angle_beta 90.000000
_cell_angle_gamma 90.000000
_cell_volume 3723.383660
_symmetry_space_group_name_H-M "C M M M"
_symmetry_group_IT_number 65
_symmetry_cell_setting 'orthorhombic'
loop_
_space_group_symop_operation_xyz
x,y,z
-x,-y,z
x,-y,-z
-x,y,-z
-x,-y,-z
x,y,-z
-x,y,z
x,-y,z
1/2+x,1/2+y,z
1/2-x,1/2-y,z
1/2+x,1/2-y,-z
1/2-x,1/2+y,-z
1/2-x,1/2-y,-z
1/2+x,1/2+y,-z
1/2-x,1/2+y,z
1/2+x,1/2-y,z
loop_
_atom_site_type_symbol
_atom_site_label
_atom_site_fract_x
_atom_site_fract_y
_atom_site_fract_z
Si Si1 0.604206 0.180182 0.195242
Si Si2 0.443854 0.089835 0.500000
Si Si3 0.554463 0.672751 0.300911
Si Si4 0.697376 0.730048 0.794236
Si Si5 0.143637 0.083554 0.205649
O O1 0.582808 0.118707 0.326870
O O2 0.571480 0.255812 0.187241
O O3 0.658657 0.204455 0.256446
O O4 0.604953 0.145535 0.000000
O O5 0.500000 0.117613 0.500000
O O6 0.440563 0.000000 0.500000
O O7 0.557038 0.699218 0.500000
O O8 0.500000 0.649011 0.246928
O O9 0.588738 0.600452 0.267762
O O10 0.750000 0.750000 0.712672
O O11 0.679963 0.648205 0.719168
O O12 0.700998 0.724208 0.000000
O O13 0.158844 0.000000 0.275514
O O14 0.144973 0.084879 0.000000
#
# Coordination Sequence:
#
# PCOD8268159 Si02
#       5
#    16   8  16  16  16
#     4  10  20  36  59  84 110 143 186 231 276 334
#     4  11  24  40  57  80 113 149 186 235 292 342
#     4  10  19  31  50  75 103 139 180 218 261 316
#     4   8  15  31  56  83 107 139 186 230 273 329
#     4   9  18  31  47  71 105 142 178 220 269 318
#
# _framework density 19.337249
#
# number of rings (size 3 to 8) (size 9 to 14) (size 15 to 20)
#    0.000    2.556    1.111    2.667    0.000    4.444 
#    0.000    5.000    0.000    4.000    0.000    0.000 
#    0.000    0.000    0.000    0.000    0.000    0.000 
#
# Total GULP energy -446267.964426 kJ/mol
# GULP energy per Si atom -12396.332345 kJ/mol
# Density = 1.929324 g / cm^3
# Si number density = 19.337249 Si / 1000 Ang^3
#
#
#
# Elastic Constant Matrix: (Units=GPa)
#
#
# Indices 1 2 3 4 5 6 
#
# 1 173.7717 72.3527 28.5204 0.0000 0.0000 0.0000
# 2 72.3527 98.6224 32.4377 0.0000 0.0000 0.0000
# 3 28.5204 32.4377 64.7589 0.0000 0.0000 0.0000
# 4 0.0000 0.0000 0.0000 22.3898 0.0000 0.0000
# 5 0.0000 0.0000 0.0000 0.0000 -33.9963 0.0000
# 6 0.0000 0.0000 0.0000 0.0000 0.0000 21.2573
#
#
#
# Elastic Compliance Matrix: (Units=1/GPa)
#
#
# Indices 1 2 3 4 5 6 
#
# 1 0.008314 -0.005861 -0.000726 0.000000 0.000000 0.000000
# 2 -0.005861 0.016271 -0.005569 0.000000 0.000000 0.000000
# 3 -0.000726 -0.005569 0.018551 0.000000 0.000000 0.000000
# 4 0.000000 0.000000 0.000000 0.044663 0.000000 0.000000
# 5 0.000000 0.000000 0.000000 0.000000 -0.029415 0.000000
# 6 0.000000 0.000000 0.000000 0.000000 0.000000 0.047043
#
#
# Mechanical properties :
#
#
# Convention : Reuss Voigt Hill
#
# Bulk Modulus (GPa) = 53.12139 67.08606 60.10373
# Shear Modulus (GPa) = 36.76109 15.51963 26.14036
#
# Velocity S-wave (km/s) = 4.36483 2.83605 3.68069
# Velocity P-wave (km/s) = 7.27551 6.74479 7.01517
#
# Compressibility (1/GPa) = 0.01882481
#
# Stress axis : x y z
#
# Youngs Moduli (GPa) = 120.27904 61.45922 53.90500
#
# Poissons Ratio (x) = 0.36019 0.03913
# Poissons Ratio (y) = 0.70491 0.30020
# Poissons Ratio (z) = 0.08732 0.34227
#
# Static dielectric constant tensor:
#      x y z
#    x 3.880220 0.000000 0.000000 
#    y 0.000000 3.533080 0.000000 
#    z 0.000000 0.000000 3.426850 
# 
# 
# High freq. dielectric constant tensor:
#      x y z
#    x 1.751050 0.000000 0.000000 
#    y 0.000000 1.730600 0.000000 
#    z 0.000000 0.000000 1.745370 
# 
# From -- ./inp_files/9286.got.cif
#   From: 2010.03.12/outbox.cif.g09.slc.cpg/sg65_5_cif.got.tgz:9286.got - 2010.04.10 20:52:16.
