data_PCOD8268047
_publ_section_title
;
Structure prediction by ZEFSAII (Michael W. Deem and Ramdas Pophale) SiO2 
 PCOD8268047
Probable space group: C M M M
;
_chemical_formula_sum "Si O2"
_cell_formula_units_Z 88
_cell_length_a 18.676341
_cell_length_b 27.756197
_cell_length_c 8.906904
_cell_angle_alpha 90.000000
_cell_angle_beta 90.000000
_cell_angle_gamma 90.000000
_cell_volume 4617.198305
_symmetry_space_group_name_H-M "C M M M"
_symmetry_group_IT_number 65
_symmetry_cell_setting 'orthorhombic'
loop_
_space_group_symop_operation_xyz
x,y,z
-x,-y,z
x,-y,-z
-x,y,-z
-x,-y,-z
x,y,-z
-x,y,z
x,-y,z
1/2+x,1/2+y,z
1/2-x,1/2-y,z
1/2+x,1/2-y,-z
1/2-x,1/2+y,-z
1/2-x,1/2-y,-z
1/2+x,1/2+y,-z
1/2-x,1/2+y,z
1/2+x,1/2-y,z
loop_
_atom_site_type_symbol
_atom_site_label
_atom_site_fract_x
_atom_site_fract_y
_atom_site_fract_z
Si Si1 0.352405 0.909342 0.823985
Si Si2 0.282648 0.446632 0.324588
Si Si3 0.661491 0.655613 0.671718
Si Si4 0.680415 0.187147 0.327585
Si Si5 0.500000 0.946782 0.178844
Si Si6 0.416940 0.734351 0.175694
O O1 0.294589 0.944791 0.751583
O O2 0.342763 0.854202 0.784623
O O3 0.429850 0.921367 0.757240
O O4 0.347713 0.917417 0.000000
O O5 0.269885 0.440125 0.500000
O O6 0.316915 0.500000 0.289136
O O7 0.328608 0.400055 0.270430
O O8 0.634800 0.655130 0.500000
O O9 0.733218 0.688747 0.684673
O O10 0.600537 0.679274 0.776432
O O11 0.658929 0.176730 0.500000
O O12 0.638362 0.234114 0.272542
O O13 0.500000 0.000000 0.242762
O O14 0.500000 0.945392 0.000000
O O15 0.500000 0.746215 0.213112
O O16 0.402103 0.741584 0.000000
#
# Coordination Sequence:
#
# PCOD8268047 Si02
#       6
#    16  16  16  16   8  16
#     4  10  19  31  49  73 103 138 179 223 264 312
#     4   9  18  34  55  79 107 136 171 219 268 315
#     4   9  19  36  57  81 108 139 177 219 264 316
#     4  10  21  37  56  79 106 139 179 222 267 317
#     4   9  18  30  43  63  97 139 177 217 262 303
#     4  11  24  38  54  79 110 141 177 220 268 322
#
# _framework density 19.059176999999998
#
# number of rings (size 3 to 8) (size 9 to 14) (size 15 to 20)
#    0.000    2.273    0.000    3.818    1.273    8.364 
#    0.000    1.364    0.000    3.818    0.000    3.818 
#    0.000    0.000    0.000    0.000    0.000    0.000 
#
# Total GULP energy -545254.628007 kJ/mol
# GULP energy per Si atom -12392.150637 kJ/mol
# Density = 1.901580 g / cm^3
# Si number density = 19.059177 Si / 1000 Ang^3
#
#
#
# Elastic Constant Matrix: (Units=GPa)
#
#
# Indices 1 2 3 4 5 6 
#
# 1 41.3032 24.8219 14.1188 0.0000 0.0000 0.0000
# 2 24.8219 90.1868 13.9994 0.0000 0.0000 0.0000
# 3 14.1188 13.9994 30.3317 0.0000 0.0000 0.0000
# 4 0.0000 0.0000 0.0000 26.5476 0.0000 0.0000
# 5 0.0000 0.0000 0.0000 0.0000 18.7922 0.0000
# 6 0.0000 0.0000 0.0000 0.0000 0.0000 12.5943
#
#
#
# Elastic Compliance Matrix: (Units=1/GPa)
#
#
# Indices 1 2 3 4 5 6 
#
# 1 0.032543 -0.007115 -0.011864 0.000000 0.000000 0.000000
# 2 -0.007115 0.013499 -0.002919 0.000000 0.000000 0.000000
# 3 -0.011864 -0.002919 0.039838 0.000000 0.000000 0.000000
# 4 0.000000 0.000000 0.000000 0.037668 0.000000 0.000000
# 5 0.000000 0.000000 0.000000 0.000000 0.053214 0.000000
# 6 0.000000 0.000000 0.000000 0.000000 0.000000 0.079401
#
#
# Mechanical properties :
#
#
# Convention : Reuss Voigt Hill
#
# Bulk Modulus (GPa) = 23.76146 29.74465 26.75306
# Shear Modulus (GPa) = 15.92422 18.84559 17.38491
#
# Velocity S-wave (km/s) = 2.89366 3.14792 3.02347
# Velocity P-wave (km/s) = 4.86402 5.37149 5.12404
#
# Compressibility (1/GPa) = 0.04208496
#
# Stress axis : x y z
#
# Youngs Moduli (GPa) = 30.72884 74.07734 25.10138
#
# Poissons Ratio (x) = 0.52706 0.29781
# Poissons Ratio (y) = 0.21864 0.07326
# Poissons Ratio (z) = 0.36457 0.21620
#
# Static dielectric constant tensor:
#      x y z
#    x 3.279130 0.000000 0.000000 
#    y 0.000000 3.709940 0.000000 
#    z 0.000000 0.000000 3.342570 
# 
# 
# High freq. dielectric constant tensor:
#      x y z
#    x 1.715300 0.000000 0.000000 
#    y 0.000000 1.751100 0.000000 
#    z 0.000000 0.000000 1.734370 
# 
# From -- ./inp_files/10160.got.cif
#   From: 2010.03.12/outbox.cif.g09.slc.cpg/sg65_6_cif.got.tgz:10160.got - 2010.04.10 20:52:16.
