data_PCOD8268061
_publ_section_title
;
Structure prediction by ZEFSAII (Michael W. Deem and Ramdas Pophale) SiO2 
 PCOD8268061
Probable space group: C M M M
;
_chemical_formula_sum "Si O2"
_cell_formula_units_Z 104
_cell_length_a 20.661398
_cell_length_b 29.565709
_cell_length_c 9.663734
_cell_angle_alpha 90.000000
_cell_angle_beta 90.000000
_cell_angle_gamma 90.000000
_cell_volume 5903.274373
_symmetry_space_group_name_H-M "C M M M"
_symmetry_group_IT_number 65
_symmetry_cell_setting 'orthorhombic'
loop_
_space_group_symop_operation_xyz
x,y,z
-x,-y,z
x,-y,-z
-x,y,-z
-x,-y,-z
x,y,-z
-x,y,z
x,-y,z
1/2+x,1/2+y,z
1/2-x,1/2-y,z
1/2+x,1/2-y,-z
1/2-x,1/2+y,-z
1/2-x,1/2-y,-z
1/2+x,1/2+y,-z
1/2-x,1/2+y,z
1/2+x,1/2-y,z
loop_
_atom_site_type_symbol
_atom_site_label
_atom_site_fract_x
_atom_site_fract_y
_atom_site_fract_z
Si Si1 0.211904 0.624998 0.842325
Si Si2 0.636889 0.622014 0.843344
Si Si3 0.427630 0.286744 0.835199
Si Si4 0.686372 0.224644 0.164644
Si Si5 0.359344 0.052311 0.334900
Si Si6 0.000000 0.446734 0.650311
Si Si7 0.426710 0.447860 0.656812
O O1 0.288025 0.633174 0.834398
O O2 0.181462 0.672261 0.789384
O O3 0.191431 0.584068 0.742947
O O4 0.190806 0.613734 0.000000
O O5 0.596491 0.664316 0.783683
O O6 0.622834 0.578299 0.752865
O O7 0.615867 0.611451 0.000000
O O8 0.500000 0.277432 0.778000
O O9 0.378478 0.248753 0.777829
O O10 0.426830 0.285981 0.000000
O O11 0.750000 0.250000 0.225514
O O12 0.689926 0.227402 0.000000
O O13 0.355166 0.059762 0.500000
O O14 0.431649 0.066025 0.276788
O O15 0.343600 0.000000 0.299285
O O16 0.000000 0.500000 0.628199
O O17 0.000000 0.423239 0.500000
O O18 0.418761 0.430922 0.500000
O O19 0.500000 0.439754 0.707608
O O20 0.407906 0.500000 0.667775
#
# Coordination Sequence:
#
# PCOD8268061 Si02
#       7
#    16  16  16  16  16   8  16
#     4  10  20  32  49  75 105 134 163 200 248 295
#     4  10  19  31  49  73  99 129 166 206 245 286
#     4   9  16  27  47  73  96 123 166 211 243 285
#     4   9  15  29  49  67  96 136 166 194 243 301
#     4   9  18  34  55  75  97 130 170 207 245 295
#     4   7  12  28  53  73  89 121 169 207 237 285
#     4   9  19  35  51  68  95 130 164 201 249 300
#
# _framework density 17.617342000000001
#
# number of rings (size 3 to 8) (size 9 to 14) (size 15 to 20)
#    0.000    2.846    1.538    1.846    0.000    2.769 
#    1.385    4.231    0.000    2.769    0.000    0.000 
#    0.000    0.000    0.000    0.000    0.000    0.000 
#
# Total GULP energy -644466.514410 kJ/mol
# GULP energy per Si atom -12393.586816 kJ/mol
# Density = 1.757724 g / cm^3
# Si number density = 17.617342 Si / 1000 Ang^3
#
#
#
# Elastic Constant Matrix: (Units=GPa)
#
#
# Indices 1 2 3 4 5 6 
#
# 1 98.1211 52.6439 25.1220 0.0000 0.0000 0.0000
# 2 52.6439 105.6864 41.1155 0.0000 0.0000 0.0000
# 3 25.1220 41.1155 40.0108 0.0000 0.0000 0.0000
# 4 0.0000 0.0000 0.0000 -4.8717 0.0000 0.0000
# 5 0.0000 0.0000 0.0000 0.0000 19.0278 0.0000
# 6 0.0000 0.0000 0.0000 0.0000 0.0000 35.8385
#
#
#
# Elastic Compliance Matrix: (Units=1/GPa)
#
#
# Indices 1 2 3 4 5 6 
#
# 1 0.014084 -0.005957 -0.002722 0.000000 0.000000 0.000000
# 2 -0.005957 0.018283 -0.015048 0.000000 0.000000 0.000000
# 3 -0.002722 -0.015048 0.042166 0.000000 0.000000 0.000000
# 4 0.000000 0.000000 0.000000 -0.205267 0.000000 0.000000
# 5 0.000000 0.000000 0.000000 0.000000 0.052555 0.000000
# 6 0.000000 0.000000 0.000000 0.000000 0.000000 0.027903
#
#
# Mechanical properties :
#
#
# Convention : Reuss Voigt Hill
#
# Bulk Modulus (GPa) = 36.92782 53.50901 45.21842
# Shear Modulus (GPa) = 805.93319 18.32804 412.13062
#
# Velocity S-wave (km/s) = 21.41165 3.22893 15.31151
# Velocity P-wave (km/s) = 25.14528 6.65884 18.39328
#
# Compressibility (1/GPa) = 0.02707985
#
# Stress axis : x y z
#
# Youngs Moduli (GPa) = 71.00127 54.69526 23.71590
#
# Poissons Ratio (x) = 0.32579 0.06456
# Poissons Ratio (y) = 0.42292 0.35687
# Poissons Ratio (z) = 0.19328 0.82305
#
# Static dielectric constant tensor:
#      x y z
#    x 3.468580 0.000000 0.000000 
#    y 0.000000 3.207110 0.000000 
#    z 0.000000 0.000000 2.830860 
# 
# 
# High freq. dielectric constant tensor:
#      x y z
#    x 1.689660 0.000000 0.000000 
#    y 0.000000 1.678640 0.000000 
#    z 0.000000 0.000000 1.631150 
# 
# From -- ./inp_files/12803.got.cif
#   From: 2010.03.12/outbox.cif.g09.slc.cpg/sg65_7_cif.got.tgz:12803.got - 2010.04.10 20:52:16.
