data_PCOD8268560
_publ_section_title
;
Structure prediction by ZEFSAII (Michael W. Deem and Ramdas Pophale) SiO2 
 PCOD8268560
Probable space group: C M M M
;
_chemical_formula_sum "Si O2"
_cell_formula_units_Z 64
_cell_length_a 15.878745
_cell_length_b 9.321708
_cell_length_c 22.091317
_cell_angle_alpha 90.000000
_cell_angle_beta 90.000000
_cell_angle_gamma 90.000000
_cell_volume 3269.891005
_symmetry_space_group_name_H-M "C M M M"
_symmetry_group_IT_number 65
_symmetry_cell_setting 'orthorhombic'
loop_
_space_group_symop_operation_xyz
x,y,z
-x,-y,z
x,-y,-z
-x,y,-z
-x,-y,-z
x,y,-z
-x,y,z
x,-y,z
1/2+x,1/2+y,z
1/2-x,1/2-y,z
1/2+x,1/2-y,-z
1/2-x,1/2+y,-z
1/2-x,1/2-y,-z
1/2+x,1/2+y,-z
1/2-x,1/2+y,z
1/2+x,1/2-y,z
loop_
_atom_site_type_symbol
_atom_site_label
_atom_site_fract_x
_atom_site_fract_y
_atom_site_fract_z
Si Si1 0.000000 0.829666 0.568849
Si Si2 0.333876 0.837134 0.000000
Si Si3 0.833328 0.168654 0.636428
Si Si4 0.094762 0.839734 0.763017
Si Si5 0.162091 0.667719 0.130705
O O1 0.914966 0.771465 0.600708
O O2 0.000000 0.775187 0.500000
O O3 0.000000 0.000000 0.573435
O O4 0.250000 0.750000 0.000000
O O5 0.381665 0.806289 0.936091
O O6 0.303862 0.000000 0.000000
O O7 0.750000 0.250000 0.613133
O O8 0.844559 0.202239 0.707727
O O9 0.821566 0.000000 0.624715
O O10 0.101153 0.729121 0.818241
O O11 0.000000 0.834699 0.737592
O O12 0.116459 0.000000 0.786337
O O13 0.176968 0.500000 0.142835
O O14 0.250000 0.750000 0.135206
#
# Coordination Sequence:
#
# PCOD8268560 Si02
#       5
#     8   8  16  16  16
#     4   9  18  36  61  85 113 152 191 222 264 329
#     4   8  16  30  47  68  97 131 169 217 271 325
#     4  10  20  36  58  84 113 148 187 229 275 326
#     4  10  20  35  53  74 105 142 180 225 277 329
#     4  10  19  32  51  75 101 133 175 222 273 330
#
# _framework density 19.572517000000001
#
# number of rings (size 3 to 8) (size 9 to 14) (size 15 to 20)
#    0.000    2.375    1.250    1.500    0.000    5.000 
#    0.000    1.250    0.000    4.500    0.000    0.000 
#    0.000    0.000    0.000    0.000    0.000    0.000 
#
# Total GULP energy -396555.274608 kJ/mol
# GULP energy per Si atom -12392.352332 kJ/mol
# Density = 1.952797 g / cm^3
# Si number density = 19.572517 Si / 1000 Ang^3
#
#
#
# Elastic Constant Matrix: (Units=GPa)
#
#
# Indices 1 2 3 4 5 6 
#
# 1 112.8120 36.0624 52.2148 0.0000 0.0000 0.0000
# 2 36.0624 71.9431 50.4976 0.0000 0.0000 0.0000
# 3 52.2148 50.4976 119.7836 0.0000 0.0000 0.0000
# 4 0.0000 0.0000 0.0000 18.8942 0.0000 0.0000
# 5 0.0000 0.0000 0.0000 0.0000 24.3113 0.0000
# 6 0.0000 0.0000 0.0000 0.0000 0.0000 29.5648
#
#
#
# Elastic Compliance Matrix: (Units=1/GPa)
#
#
# Indices 1 2 3 4 5 6 
#
# 1 0.011607 -0.003219 -0.003702 0.000000 0.000000 0.000000
# 2 -0.003219 0.020635 -0.007296 0.000000 0.000000 0.000000
# 3 -0.003702 -0.007296 0.013038 0.000000 0.000000 0.000000
# 4 0.000000 0.000000 0.000000 0.052926 0.000000 0.000000
# 5 0.000000 0.000000 0.000000 0.000000 0.041133 0.000000
# 6 0.000000 0.000000 0.000000 0.000000 0.000000 0.033824
#
#
# Mechanical properties :
#
#
# Convention : Reuss Voigt Hill
#
# Bulk Modulus (GPa) = 59.36599 64.67649 62.02124
# Shear Modulus (GPa) = 24.12980 25.60499 24.86739
#
# Velocity S-wave (km/s) = 3.51499 3.62084 3.56831
# Velocity P-wave (km/s) = 6.84622 7.11315 6.98096
#
# Compressibility (1/GPa) = 0.01684466
#
# Stress axis : x y z
#
# Youngs Moduli (GPa) = 86.15403 48.46251 76.69934
#
# Poissons Ratio (x) = 0.15602 0.28397
# Poissons Ratio (y) = 0.27737 0.55957
# Poissons Ratio (z) = 0.31898 0.35356
#
# Static dielectric constant tensor:
#      x y z
#    x 3.223260 0.000000 0.000000 
#    y 0.000000 3.319310 0.000000 
#    z 0.000000 0.000000 3.870350 
# 
# 
# High freq. dielectric constant tensor:
#      x y z
#    x 1.743310 0.000000 0.000000 
#    y 0.000000 1.744090 0.000000 
#    z 0.000000 0.000000 1.772840 
# 
# From -- ./inp_files/66768.got.cif
#   From: 2010.03.12/outbox.cif.g09.slc.cpg/sg65_34_cif.got.tgz:66768.got - 2010.04.10 20:52:16.
