data_PCOD8268731
_publ_section_title
;
Structure prediction by ZEFSAII (Michael W. Deem and Ramdas Pophale) SiO2 
 PCOD8268731
Probable space group: C M M M
;
_chemical_formula_sum "Si O2"
_cell_formula_units_Z 104
_cell_length_a 15.356596
_cell_length_b 23.630482
_cell_length_c 15.568857
_cell_angle_alpha 90.000000
_cell_angle_beta 90.000000
_cell_angle_gamma 90.000000
_cell_volume 5649.685451
_symmetry_space_group_name_H-M "C M M M"
_symmetry_group_IT_number 65
_symmetry_cell_setting 'orthorhombic'
loop_
_space_group_symop_operation_xyz
x,y,z
-x,-y,z
x,-y,-z
-x,y,-z
-x,-y,-z
x,y,-z
-x,y,z
x,-y,z
1/2+x,1/2+y,z
1/2-x,1/2-y,z
1/2+x,1/2-y,-z
1/2-x,1/2+y,-z
1/2-x,1/2-y,-z
1/2+x,1/2+y,-z
1/2-x,1/2+y,z
1/2+x,1/2-y,z
loop_
_atom_site_type_symbol
_atom_site_label
_atom_site_fract_x
_atom_site_fract_y
_atom_site_fract_z
Si Si1 0.599270 0.564595 0.667699
Si Si2 0.853228 0.130348 0.834690
Si Si3 0.598135 0.934971 0.255542
Si Si4 0.835264 0.369743 0.100561
Si Si5 0.500000 0.559593 0.906589
Si Si6 0.600382 0.253604 0.097336
Si Si7 0.220258 0.434140 0.593102
O O1 0.500000 0.575495 0.632952
O O2 0.606784 0.500000 0.701537
O O3 0.622000 0.609397 0.740685
O O4 0.674971 0.575315 0.598064
O O5 0.758901 0.111809 0.866255
O O6 0.917034 0.098694 0.897815
O O7 0.866457 0.197954 0.838504
O O8 0.500000 0.929502 0.291887
O O9 0.599938 0.902806 0.163931
O O10 0.664702 0.907922 0.327032
O O11 0.623152 0.000000 0.237550
O O12 0.844613 0.302711 0.114102
O O13 0.851425 0.385796 0.000000
O O14 0.500000 0.500000 0.850015
O O15 0.500000 0.535347 0.000000
O O16 0.500000 0.238955 0.114174
O O17 0.615479 0.275052 0.000000
O O18 0.191846 0.408395 0.500000
O O19 0.197586 0.500000 0.593372
#
# Coordination Sequence:
#
# PCOD8268731 Si02
#       7
#    16  16  16  16   8  16  16
#     4  10  19  32  52  79 112 146 179 218 271 337
#     4  12  20  33  52  73 105 145 186 230 275 321
#     4  10  21  37  56  79 109 143 181 227 277 329
#     4  11  23  36  53  77 107 146 190 231 276 327
#     4  11  22  32  46  72 105 145 188 226 273 328
#     4  10  20  35  53  73 101 138 186 239 281 319
#     4   9  18  34  56  81 109 140 176 222 277 335
#
# _framework density 18.408104999999999
#
# number of rings (size 3 to 8) (size 9 to 14) (size 15 to 20)
#    0.000    1.615    3.077    2.769    0.000    3.692 
#    0.000    3.846    0.000    0.000    0.000    2.154 
#    0.000    3.692    0.000    0.000    0.000    0.000 
#
# Total GULP energy -644282.107038 kJ/mol
# GULP energy per Si atom -12390.040520 kJ/mol
# Density = 1.836621 g / cm^3
# Si number density = 18.408105 Si / 1000 Ang^3
#
#
#
# Elastic Constant Matrix: (Units=GPa)
#
#
# Indices 1 2 3 4 5 6 
#
# 1 99.3134 17.2743 29.4330 0.0000 0.0000 0.0000
# 2 17.2743 60.7910 30.3058 0.0000 0.0000 0.0000
# 3 29.4330 30.3058 100.8304 0.0000 0.0000 0.0000
# 4 0.0000 0.0000 0.0000 15.2857 0.0000 0.0000
# 5 0.0000 0.0000 0.0000 0.0000 19.9536 0.0000
# 6 0.0000 0.0000 0.0000 0.0000 0.0000 16.4537
#
#
#
# Elastic Compliance Matrix: (Units=1/GPa)
#
#
# Indices 1 2 3 4 5 6 
#
# 1 0.011192 -0.001825 -0.002719 0.000000 0.000000 0.000000
# 2 -0.001825 0.019647 -0.005372 0.000000 0.000000 0.000000
# 3 -0.002719 -0.005372 0.012326 0.000000 0.000000 0.000000
# 4 0.000000 0.000000 0.000000 0.065421 0.000000 0.000000
# 5 0.000000 0.000000 0.000000 0.000000 0.050116 0.000000
# 6 0.000000 0.000000 0.000000 0.000000 0.000000 0.060776
#
#
# Mechanical properties :
#
#
# Convention : Reuss Voigt Hill
#
# Bulk Modulus (GPa) = 42.85785 46.10678 44.48232
# Shear Modulus (GPa) = 20.23573 22.60006 21.41789
#
# Velocity S-wave (km/s) = 3.31914 3.50769 3.41472
# Velocity P-wave (km/s) = 6.16616 6.44256 6.30587
#
# Compressibility (1/GPa) = 0.02333295
#
# Stress axis : x y z
#
# Youngs Moduli (GPa) = 89.34747 50.89932 81.12999
#
# Poissons Ratio (x) = 0.09290 0.22055
# Poissons Ratio (y) = 0.16307 0.43585
# Poissons Ratio (z) = 0.24289 0.27345
#
# Static dielectric constant tensor:
#      x y z
#    x 3.600400 0.000000 0.000000 
#    y 0.000000 3.156850 0.000000 
#    z 0.000000 0.000000 3.349930 
# 
# 
# High freq. dielectric constant tensor:
#      x y z
#    x 1.732150 0.000000 0.000000 
#    y 0.000000 1.686520 0.000000 
#    z 0.000000 0.000000 1.693830 
# 
# From -- ./inp_files/40854.got.cif
#   From: 2010.03.12/outbox.cif.g09.slc.cpg/sg65_21_cif.got.tgz:40854.got - 2010.04.10 20:52:16.
