data_PCOD8268898
_publ_section_title
;
Structure prediction by ZEFSAII (Michael W. Deem and Ramdas Pophale) SiO2 
 PCOD8268898
Probable space group: C M M M
;
_chemical_formula_sum "Si O2"
_cell_formula_units_Z 64
_cell_length_a 23.153847
_cell_length_b 19.025267
_cell_length_c 8.508199
_cell_angle_alpha 90.000000
_cell_angle_beta 90.000000
_cell_angle_gamma 90.000000
_cell_volume 3747.930757
_symmetry_space_group_name_H-M "C M M M"
_symmetry_group_IT_number 65
_symmetry_cell_setting 'orthorhombic'
loop_
_space_group_symop_operation_xyz
x,y,z
-x,-y,z
x,-y,-z
-x,y,-z
-x,-y,-z
x,y,-z
-x,y,z
x,-y,z
1/2+x,1/2+y,z
1/2-x,1/2-y,z
1/2+x,1/2-y,-z
1/2-x,1/2+y,-z
1/2-x,1/2-y,-z
1/2+x,1/2+y,-z
1/2-x,1/2+y,z
1/2+x,1/2-y,z
loop_
_atom_site_type_symbol
_atom_site_label
_atom_site_fract_x
_atom_site_fract_y
_atom_site_fract_z
Si Si1 0.250223 0.000000 0.183773
Si Si2 0.375266 0.500000 0.680694
Si Si3 0.768357 0.353927 0.683054
Si Si4 0.334135 0.733393 0.818003
Si Si5 0.065915 0.132962 0.817867
O O1 0.181769 0.000000 0.213521
O O2 0.281128 0.932668 0.260861
O O3 0.262247 0.000000 0.000000
O O4 0.355627 0.500000 0.500000
O O5 0.413877 0.432064 0.713590
O O6 0.753806 0.352258 0.500000
O O7 0.713091 0.325633 0.777267
O O8 0.823592 0.304427 0.718599
O O9 0.396961 0.702323 0.776891
O O10 0.328604 0.752803 0.000000
O O11 0.000000 0.151096 0.777278
O O12 0.073970 0.112111 0.000000
#
# Coordination Sequence:
#
# PCOD8268898 Si02
#       5
#     8   8  16  16  16
#     4  12  22  35  53  74 101 136 172 207 254 314
#     4  12  23  33  48  73 104 137 175 215 254 295
#     4  11  21  33  51  75 103 130 165 212 259 302
#     4  10  19  33  52  73 100 136 173 207 250 301
#     4  10  21  36  53  72 100 140 180 213 247 293
#
# _framework density 17.076090000000001
#
# number of rings (size 3 to 8) (size 9 to 14) (size 15 to 20)
#    0.000    1.250    2.500    7.125    0.000    3.000 
#    0.000    0.000    0.000    0.000    0.000    0.875 
#    0.000    7.000    0.000    0.000    0.000    0.000 
#
# Total GULP energy -396927.250568 kJ/mol
# GULP energy per Si atom -12403.976580 kJ/mol
# Density = 1.703722 g / cm^3
# Si number density = 17.076090 Si / 1000 Ang^3
#
#
#
# Elastic Constant Matrix: (Units=GPa)
#
#
# Indices 1 2 3 4 5 6 
#
# 1 77.3594 48.4539 22.6877 0.0000 0.0000 0.0000
# 2 48.4539 129.6987 25.0854 0.0000 0.0000 0.0000
# 3 22.6877 25.0854 54.2337 0.0000 0.0000 0.0000
# 4 0.0000 0.0000 0.0000 17.7215 0.0000 0.0000
# 5 0.0000 0.0000 0.0000 0.0000 7.0939 0.0000
# 6 0.0000 0.0000 0.0000 0.0000 0.0000 20.6830
#
#
#
# Elastic Compliance Matrix: (Units=1/GPa)
#
#
# Indices 1 2 3 4 5 6 
#
# 1 0.017964 -0.005774 -0.004844 0.000000 0.000000 0.000000
# 2 -0.005774 0.010324 -0.002360 0.000000 0.000000 0.000000
# 3 -0.004844 -0.002360 0.021557 0.000000 0.000000 0.000000
# 4 0.000000 0.000000 0.000000 0.056429 0.000000 0.000000
# 5 0.000000 0.000000 0.000000 0.000000 0.140966 0.000000
# 6 0.000000 0.000000 0.000000 0.000000 0.000000 0.048349
#
#
# Mechanical properties :
#
#
# Convention : Reuss Voigt Hill
#
# Bulk Modulus (GPa) = 41.86126 50.41622 46.13874
# Shear Modulus (GPa) = 15.17419 20.10399 17.63909
#
# Velocity S-wave (km/s) = 2.98421 3.43493 3.21747
# Velocity P-wave (km/s) = 6.03670 6.73203 6.39382
#
# Compressibility (1/GPa) = 0.02388843
#
# Stress axis : x y z
#
# Youngs Moduli (GPa) = 55.66683 96.86404 46.38953
#
# Poissons Ratio (x) = 0.55932 0.22472
# Poissons Ratio (y) = 0.32143 0.10946
# Poissons Ratio (z) = 0.26966 0.22856
#
# Static dielectric constant tensor:
#      x y z
#    x 3.061690 0.000000 0.000000 
#    y 0.000000 3.376520 0.000000 
#    z 0.000000 0.000000 3.246570 
# 
# 
# High freq. dielectric constant tensor:
#      x y z
#    x 1.625210 0.000000 0.000000 
#    y 0.000000 1.657360 0.000000 
#    z 0.000000 0.000000 1.672510 
# 
# From -- ./inp_files/9117.got.cif
#   From: 2010.03.12/outbox.cif.g09.slc.cpg/sg65_5_cif.got.tgz:9117.got - 2010.04.10 20:52:16.
