data_PCOD8268366
_publ_section_title
;
Structure prediction by ZEFSAII (Michael W. Deem and Ramdas Pophale) SiO2 
 PCOD8268366
Probable space group: C M M M
;
_chemical_formula_sum "Si O2"
_cell_formula_units_Z 96
_cell_length_a 8.768729
_cell_length_b 27.644262
_cell_length_c 23.766308
_cell_angle_alpha 90.000000
_cell_angle_beta 90.000000
_cell_angle_gamma 90.000000
_cell_volume 5761.072886
_symmetry_space_group_name_H-M "C M M M"
_symmetry_group_IT_number 65
_symmetry_cell_setting 'orthorhombic'
loop_
_space_group_symop_operation_xyz
x,y,z
-x,-y,z
x,-y,-z
-x,y,-z
-x,-y,-z
x,y,-z
-x,y,z
x,-y,z
1/2+x,1/2+y,z
1/2-x,1/2-y,z
1/2+x,1/2-y,-z
1/2-x,1/2+y,-z
1/2-x,1/2-y,-z
1/2+x,1/2+y,-z
1/2-x,1/2+y,z
1/2+x,1/2-y,z
loop_
_atom_site_type_symbol
_atom_site_label
_atom_site_fract_x
_atom_site_fract_y
_atom_site_fract_z
Si Si1 0.179907 0.855111 0.169834
Si Si2 0.679023 0.554513 0.763945
Si Si3 0.824158 0.055500 0.564714
Si Si4 0.178578 0.608801 0.663506
Si Si5 0.319426 0.301659 0.280477
Si Si6 0.680683 0.301701 0.937510
O O1 0.230808 0.909847 0.185263
O O2 0.237425 0.818755 0.218635
O O3 0.246022 0.839414 0.108933
O O4 0.000000 0.852261 0.166709
O O5 0.500000 0.560896 0.751402
O O6 0.719738 0.500000 0.782085
O O7 0.767218 0.567944 0.707331
O O8 0.798000 0.069614 0.500000
O O9 0.718539 0.090543 0.601294
O O10 0.000000 0.062894 0.581790
O O11 0.776423 0.000000 0.575133
O O12 0.262248 0.659689 0.673868
O O13 0.000000 0.617026 0.669506
O O14 0.500000 0.298590 0.283621
O O15 0.250000 0.250000 0.295141
O O16 0.500000 0.296952 0.933879
O O17 0.750000 0.250000 0.923180
O O18 0.730888 0.319144 0.000000
#
# Coordination Sequence:
#
# PCOD8268366 Si02
#       6
#    16  16  16  16  16  16
#     4   8  15  27  43  64  88 116 149 184 224 270
#     4   9  17  30  47  64  86 119 155 189 227 273
#     4   9  18  33  52  72  95 125 158 189 224 268
#     4  11  21  31  46  70  98 124 151 186 228 272
#     4  10  19  32  49  68  92 121 154 190 228 272
#     4   9  16  26  41  61  86 114 144 181 225 272
#
# _framework density 16.663564000000001
#
# number of rings (size 3 to 8) (size 9 to 14) (size 15 to 20)
#    0.000    2.667    0.000    4.500    0.000    3.000 
#    0.000    4.167    0.000    1.000    0.000    3.500 
#    0.000    0.000    0.000   10.167    0.000   11.000 
#
# Total GULP energy -595064.578624 kJ/mol
# GULP energy per Si atom -12397.178721 kJ/mol
# Density = 1.662564 g / cm^3
# Si number density = 16.663564 Si / 1000 Ang^3
#
#
#
# Elastic Constant Matrix: (Units=GPa)
#
#
# Indices 1 2 3 4 5 6 
#
# 1 54.1234 34.0544 25.8860 0.0000 0.0000 0.0000
# 2 34.0544 126.9031 64.4755 0.0000 0.0000 0.0000
# 3 25.8860 64.4755 107.7677 0.0000 0.0000 0.0000
# 4 0.0000 0.0000 0.0000 26.8108 0.0000 0.0000
# 5 0.0000 0.0000 0.0000 0.0000 14.2502 0.0000
# 6 0.0000 0.0000 0.0000 0.0000 0.0000 23.9445
#
#
#
# Elastic Compliance Matrix: (Units=1/GPa)
#
#
# Indices 1 2 3 4 5 6 
#
# 1 0.022726 -0.004777 -0.002601 0.000000 0.000000 0.000000
# 2 -0.004777 0.012326 -0.006227 0.000000 0.000000 0.000000
# 3 -0.002601 -0.006227 0.013629 0.000000 0.000000 0.000000
# 4 0.000000 0.000000 0.000000 0.037298 0.000000 0.000000
# 5 0.000000 0.000000 0.000000 0.000000 0.070175 0.000000
# 6 0.000000 0.000000 0.000000 0.000000 0.000000 0.041763
#
#
# Mechanical properties :
#
#
# Convention : Reuss Voigt Hill
#
# Bulk Modulus (GPa) = 46.57312 59.73622 53.15467
# Shear Modulus (GPa) = 21.52545 23.95966 22.74255
#
# Velocity S-wave (km/s) = 3.59802 3.79601 3.69834
# Velocity P-wave (km/s) = 6.72835 7.42557 7.08554
#
# Compressibility (1/GPa) = 0.02147161
#
# Stress axis : x y z
#
# Youngs Moduli (GPa) = 44.00257 81.13226 73.37171
#
# Poissons Ratio (x) = 0.38758 0.19082
# Poissons Ratio (y) = 0.21021 0.45686
# Poissons Ratio (z) = 0.11444 0.50518
#
# Static dielectric constant tensor:
#      x y z
#    x 2.969300 0.000000 0.000000 
#    y 0.000000 3.211720 0.000000 
#    z 0.000000 0.000000 3.314900 
# 
# 
# High freq. dielectric constant tensor:
#      x y z
#    x 1.628260 0.000000 0.000000 
#    y 0.000000 1.634530 0.000000 
#    z 0.000000 0.000000 1.633620 
# 
# From -- ./inp_files/68058.got.cif
#   From: 2010.03.12/outbox.cif.g09.slc.cpg/sg65_35_cif.got.tgz:68058.got - 2010.04.10 20:52:16.
