data_PCOD8268277
_publ_section_title
;
Structure prediction by ZEFSAII (Michael W. Deem and Ramdas Pophale) SiO2 
 PCOD8268277
Probable space group: C M M M
;
_chemical_formula_sum "Si O2"
_cell_formula_units_Z 96
_cell_length_a 13.651697
_cell_length_b 23.084893
_cell_length_c 14.696636
_cell_angle_alpha 90.000000
_cell_angle_beta 90.000000
_cell_angle_gamma 90.000000
_cell_volume 4631.614921
_symmetry_space_group_name_H-M "C M M M"
_symmetry_group_IT_number 65
_symmetry_cell_setting 'orthorhombic'
loop_
_space_group_symop_operation_xyz
x,y,z
-x,-y,z
x,-y,-z
-x,y,-z
-x,-y,-z
x,y,-z
-x,y,z
x,-y,z
1/2+x,1/2+y,z
1/2-x,1/2-y,z
1/2+x,1/2-y,-z
1/2-x,1/2+y,-z
1/2-x,1/2-y,-z
1/2+x,1/2+y,-z
1/2-x,1/2+y,z
1/2+x,1/2-y,z
loop_
_atom_site_type_symbol
_atom_site_label
_atom_site_fract_x
_atom_site_fract_y
_atom_site_fract_z
Si Si1 0.609625 0.210221 0.356065
Si Si2 0.890554 0.337034 0.843944
Si Si3 0.607101 0.715715 0.897310
Si Si4 0.710589 0.396890 0.893711
Si Si5 0.812398 0.167538 0.398175
Si Si6 0.112715 0.064546 0.276882
O O1 0.500000 0.203587 0.399388
O O2 0.611560 0.176422 0.261808
O O3 0.696042 0.179794 0.413000
O O4 0.634778 0.278778 0.346479
O O5 0.845798 0.279634 0.892999
O O6 0.827046 0.392782 0.874550
O O7 0.000000 0.350390 0.878525
O O8 0.500000 0.718283 0.847822
O O9 0.672736 0.665366 0.854850
O O10 0.592223 0.696107 0.000000
O O11 0.658414 0.441224 0.825380
O O12 0.689670 0.412280 0.000000
O O13 0.856723 0.160688 0.500000
O O14 0.829114 0.108943 0.341348
O O15 0.000000 0.084113 0.269352
O O16 0.121046 0.000000 0.319288
#
# Coordination Sequence:
#
# PCOD8268277 Si02
#       6
#    16  16  16  16  16  16
#     4  10  20  35  59  93 131 164 193 236 296 362
#     4  10  19  31  51  80 119 161 195 232 284 353
#     4   9  17  27  42  72 111 149 189 231 279 339
#     4  11  21  35  57  82 114 154 199 250 298 347
#     4  11  23  39  62  93 127 161 200 247 301 362
#     4  11  25  44  64  86 116 156 203 254 305 360
#
# _framework density 20.727111000000001
#
# number of rings (size 3 to 8) (size 9 to 14) (size 15 to 20)
#    0.000    1.667    1.667    4.000    2.333    7.667 
#    0.000    1.667    0.000    2.000    0.000    2.333 
#    0.000    0.000    0.000    0.000    0.000    0.000 
#
# Total GULP energy -594731.534161 kJ/mol
# GULP energy per Si atom -12390.240295 kJ/mol
# Density = 2.067994 g / cm^3
# Si number density = 20.727111 Si / 1000 Ang^3
#
#
#
# Elastic Constant Matrix: (Units=GPa)
#
#
# Indices 1 2 3 4 5 6 
#
# 1 103.0829 35.8768 11.5713 0.0000 0.0000 0.0000
# 2 35.8768 77.6263 20.5878 0.0000 0.0000 0.0000
# 3 11.5713 20.5878 73.1426 0.0000 0.0000 0.0000
# 4 0.0000 0.0000 0.0000 -4.9313 0.0000 0.0000
# 5 0.0000 0.0000 0.0000 0.0000 14.4551 0.0000
# 6 0.0000 0.0000 0.0000 0.0000 0.0000 22.6242
#
#
#
# Elastic Compliance Matrix: (Units=1/GPa)
#
#
# Indices 1 2 3 4 5 6 
#
# 1 0.011569 -0.005254 -0.000351 0.000000 0.000000 0.000000
# 2 -0.005254 0.016307 -0.003759 0.000000 0.000000 0.000000
# 3 -0.000351 -0.003759 0.014786 0.000000 0.000000 0.000000
# 4 0.000000 0.000000 0.000000 -0.202786 0.000000 0.000000
# 5 0.000000 0.000000 0.000000 0.000000 0.069180 0.000000
# 6 0.000000 0.000000 0.000000 0.000000 0.000000 0.044200
#
#
# Mechanical properties :
#
#
# Convention : Reuss Voigt Hill
#
# Bulk Modulus (GPa) = 41.78218 43.32485 42.55351
# Shear Modulus (GPa) = -249.52731 18.81733 -115.35499
#
# Velocity S-wave (km/s) = -10.98400 3.01634 -7.46826
# Velocity P-wave (km/s) = 11.86012 5.75143 7.33428
#
# Compressibility (1/GPa) = 0.02393365
#
# Stress axis : x y z
#
# Youngs Moduli (GPa) = 86.43914 61.32239 67.63348
#
# Poissons Ratio (x) = 0.32216 0.02377
# Poissons Ratio (y) = 0.45412 0.25423
# Poissons Ratio (z) = 0.03038 0.23051
#
# Static dielectric constant tensor:
#      x y z
#    x 4.140820 0.000000 0.000000 
#    y 0.000000 3.332170 0.000000 
#    z 0.000000 0.000000 3.568310 
# 
# 
# High freq. dielectric constant tensor:
#      x y z
#    x 1.825280 0.000000 0.000000 
#    y 0.000000 1.763620 0.000000 
#    z 0.000000 0.000000 1.805240 
# 
# From -- ./inp_files/40402.got.cif
#   From: 2010.03.12/outbox.cif.g09.slc.cpg/sg65_21_cif.got.tgz:40402.got - 2010.04.10 20:52:16.
