data_PCOD8268708
_publ_section_title
;
Structure prediction by ZEFSAII (Michael W. Deem and Ramdas Pophale) SiO2 
 PCOD8268708
Probable space group: C M M M
;
_chemical_formula_sum "Si O2"
_cell_formula_units_Z 56
_cell_length_a 9.691201
_cell_length_b 38.845644
_cell_length_c 7.969344
_cell_angle_alpha 90.000000
_cell_angle_beta 90.000000
_cell_angle_gamma 90.000000
_cell_volume 3000.146765
_symmetry_space_group_name_H-M "C M M M"
_symmetry_group_IT_number 65
_symmetry_cell_setting 'orthorhombic'
loop_
_space_group_symop_operation_xyz
x,y,z
-x,-y,z
x,-y,-z
-x,y,-z
-x,-y,-z
x,y,-z
-x,y,z
x,-y,z
1/2+x,1/2+y,z
1/2-x,1/2-y,z
1/2+x,1/2-y,-z
1/2-x,1/2+y,-z
1/2-x,1/2-y,-z
1/2+x,1/2+y,-z
1/2-x,1/2+y,z
1/2+x,1/2-y,z
loop_
_atom_site_type_symbol
_atom_site_label
_atom_site_fract_x
_atom_site_fract_y
_atom_site_fract_z
Si Si1 0.346330 0.098550 0.808563
Si Si2 0.834727 0.715181 0.000000
Si Si3 0.836558 0.329876 0.685514
Si Si4 0.342580 0.538866 0.696181
O O1 0.500000 0.089588 0.741388
O O2 0.281132 0.131043 0.709119
O O3 0.253141 0.064949 0.795298
O O4 0.354294 0.110448 0.000000
O O5 0.750000 0.750000 0.000000
O O6 0.783783 0.695137 0.832709
O O7 0.000000 0.721607 0.000000
O O8 0.789662 0.316620 0.500000
O O9 0.000000 0.331696 0.699289
O O10 0.322985 0.544995 0.500000
O O11 0.500000 0.545532 0.749417
O O12 0.299703 0.500000 0.744595
#
# Coordination Sequence:
#
# PCOD8268708 Si02
#       4
#    16   8  16  16
#     4  10  19  32  52  78 104 131 173 224 265 308
#     4  10  20  36  56  80 109 138 171 209 252 309
#     4   9  17  32  55  79 105 139 174 211 259 309
#     4   9  19  35  51  69  99 139 179 218 264 318
#
# _framework density 18.665754
#
# number of rings (size 3 to 8) (size 9 to 14) (size 15 to 20)
#    0.000    2.571    1.429    1.714    0.000    4.000 
#    0.000    5.714    0.000    1.714    0.000    0.000 
#    0.000    0.000    0.000    0.000    0.000    0.000 
#
# Total GULP energy -347076.294161 kJ/mol
# GULP energy per Si atom -12395.581934 kJ/mol
# Density = 1.862327 g / cm^3
# Si number density = 18.665754 Si / 1000 Ang^3
#
#
#
# Elastic Constant Matrix: (Units=GPa)
#
#
# Indices 1 2 3 4 5 6 
#
# 1 47.5436 47.6771 25.1705 0.0000 0.0000 0.0000
# 2 47.6771 134.5540 61.0252 0.0000 0.0000 0.0000
# 3 25.1705 61.0252 117.2027 0.0000 0.0000 0.0000
# 4 0.0000 0.0000 0.0000 28.8521 0.0000 0.0000
# 5 0.0000 0.0000 0.0000 0.0000 18.3179 0.0000
# 6 0.0000 0.0000 0.0000 0.0000 0.0000 32.9218
#
#
#
# Elastic Compliance Matrix: (Units=1/GPa)
#
#
# Indices 1 2 3 4 5 6 
#
# 1 0.032777 -0.011025 -0.001299 0.000000 0.000000 0.000000
# 2 -0.011025 0.013438 -0.004629 0.000000 0.000000 0.000000
# 3 -0.001299 -0.004629 0.011221 0.000000 0.000000 0.000000
# 4 0.000000 0.000000 0.000000 0.034659 0.000000 0.000000
# 5 0.000000 0.000000 0.000000 0.000000 0.054591 0.000000
# 6 0.000000 0.000000 0.000000 0.000000 0.000000 0.030375
#
#
# Mechanical properties :
#
#
# Convention : Reuss Voigt Hill
#
# Bulk Modulus (GPa) = 42.49785 63.00510 52.75148
# Shear Modulus (GPa) = 22.85075 27.04686 24.94881
#
# Velocity S-wave (km/s) = 3.50266 3.81072 3.65993
# Velocity P-wave (km/s) = 6.25903 7.29313 6.79578
#
# Compressibility (1/GPa) = 0.02353060
#
# Stress axis : x y z
#
# Youngs Moduli (GPa) = 30.50943 74.41599 89.11500
#
# Poissons Ratio (x) = 0.82043 0.11573
# Poissons Ratio (y) = 0.33636 0.41253
# Poissons Ratio (z) = 0.03962 0.34448
#
# Static dielectric constant tensor:
#      x y z
#    x 3.091600 0.000000 0.000000 
#    y 0.000000 3.388820 0.000000 
#    z 0.000000 0.000000 3.566830 
# 
# 
# High freq. dielectric constant tensor:
#      x y z
#    x 1.683040 0.000000 0.000000 
#    y 0.000000 1.724020 0.000000 
#    z 0.000000 0.000000 1.736080 
# 
# From -- ./inp_files/4430.got.cif
#   From: 2010.03.12/outbox.cif.g09.slc.cpg/sg65_3_cif.got.tgz:4430.got - 2010.04.10 20:52:16.
