data_PCOD8268009
_publ_section_title
;
Structure prediction by ZEFSAII (Michael W. Deem and Ramdas Pophale) SiO2 
 PCOD8268009
Probable space group: C M M M
;
_chemical_formula_sum "Si O2"
_cell_formula_units_Z 96
_cell_length_a 20.064036
_cell_length_b 8.699409
_cell_length_c 30.354576
_cell_angle_alpha 90.000000
_cell_angle_beta 90.000000
_cell_angle_gamma 90.000000
_cell_volume 5298.247219
_symmetry_space_group_name_H-M "C M M M"
_symmetry_group_IT_number 65
_symmetry_cell_setting 'orthorhombic'
loop_
_space_group_symop_operation_xyz
x,y,z
-x,-y,z
x,-y,-z
-x,y,-z
-x,-y,-z
x,y,-z
-x,y,z
x,-y,z
1/2+x,1/2+y,z
1/2-x,1/2-y,z
1/2+x,1/2-y,-z
1/2-x,1/2+y,-z
1/2-x,1/2-y,-z
1/2+x,1/2+y,-z
1/2-x,1/2+y,z
1/2+x,1/2-y,z
loop_
_atom_site_type_symbol
_atom_site_label
_atom_site_fract_x
_atom_site_fract_y
_atom_site_fract_z
Si Si1 0.819762 0.818023 0.049768
Si Si2 0.074843 0.182080 0.879952
Si Si3 0.178881 0.816615 0.620262
Si Si4 0.925694 0.182597 0.450988
Si Si5 0.575702 0.180630 0.788228
Si Si6 0.179038 0.317303 0.285827
O O1 0.750000 0.750000 0.066365
O O2 0.877816 0.753730 0.081398
O O3 0.815225 0.000000 0.052336
O O4 0.835513 0.763001 0.000000
O O5 0.101184 0.241294 0.833043
O O6 0.000000 0.243709 0.888794
O O7 0.076040 0.000000 0.879424
O O8 0.250000 0.750000 0.606117
O O9 0.126041 0.752889 0.584739
O O10 0.156982 0.752891 0.667611
O O11 0.182179 0.000000 0.621941
O O12 0.905460 0.240025 0.500000
O O13 0.000000 0.242151 0.439278
O O14 0.924899 0.000000 0.449978
O O15 0.500000 0.231928 0.777135
O O16 0.623435 0.235694 0.748984
O O17 0.580375 0.000000 0.794951
O O18 0.184546 0.500000 0.289917
O O19 0.250000 0.250000 0.270604
#
# Coordination Sequence:
#
# PCOD8268009 Si02
#       6
#    16  16  16  16  16  16
#     4   9  18  32  49  70  97 127 158 193 233 278
#     4   9  18  32  50  72  96 123 157 196 235 275
#     4  10  19  31  49  72  97 125 157 194 235 278
#     4   8  15  29  48  70  96 125 158 195 233 275
#     4   9  19  35  52  70  94 125 158 192 235 284
#     4  10  20  34  51  70  95 126 158 194 235 280
#
# _framework density 18.119198999999998
#
# number of rings (size 3 to 8) (size 9 to 14) (size 15 to 20)
#    0.000    2.833    0.000    2.500    0.000    4.000 
#    0.000    5.000    0.000    3.000    0.000    9.333 
#    0.000    0.000    0.000    0.000    0.000    0.000 
#
# Total GULP energy -595135.201305 kJ/mol
# GULP energy per Si atom -12398.650027 kJ/mol
# Density = 1.807796 g / cm^3
# Si number density = 18.119199 Si / 1000 Ang^3
#
#
#
# Elastic Constant Matrix: (Units=GPa)
#
#
# Indices 1 2 3 4 5 6 
#
# 1 139.2444 28.1216 118.5211 0.0000 0.0000 0.0000
# 2 28.1216 35.2767 30.4341 0.0000 0.0000 0.0000
# 3 118.5211 30.4341 154.8465 0.0000 0.0000 0.0000
# 4 0.0000 0.0000 0.0000 22.8238 0.0000 0.0000
# 5 0.0000 0.0000 0.0000 0.0000 44.5471 0.0000
# 6 0.0000 0.0000 0.0000 0.0000 0.0000 23.2331
#
#
#
# Elastic Compliance Matrix: (Units=1/GPa)
#
#
# Indices 1 2 3 4 5 6 
#
# 1 0.020950 -0.003452 -0.015357 0.000000 0.000000 0.000000
# 2 -0.003452 0.034704 -0.004179 0.000000 0.000000 0.000000
# 3 -0.015357 -0.004179 0.019034 0.000000 0.000000 0.000000
# 4 0.000000 0.000000 0.000000 0.043814 0.000000 0.000000
# 5 0.000000 0.000000 0.000000 0.000000 0.022448 0.000000
# 6 0.000000 0.000000 0.000000 0.000000 0.000000 0.043042
#
#
# Mechanical properties :
#
#
# Convention : Reuss Voigt Hill
#
# Bulk Modulus (GPa) = 34.82780 75.94682 55.38731
# Shear Modulus (GPa) = 20.87340 28.27353 24.57346
#
# Velocity S-wave (km/s) = 3.39780 3.95450 3.68667
# Velocity P-wave (km/s) = 5.88699 7.92823 6.98260
#
# Compressibility (1/GPa) = 0.02871270
#
# Stress axis : x y z
#
# Youngs Moduli (GPa) = 47.73167 28.81491 52.53791
#
# Poissons Ratio (x) = 0.09947 0.80684
# Poissons Ratio (y) = 0.16477 0.21954
# Poissons Ratio (z) = 0.73303 0.12041
#
# Static dielectric constant tensor:
#      x y z
#    x 3.591120 0.000000 0.000000 
#    y 0.000000 3.122110 0.000000 
#    z 0.000000 0.000000 3.558410 
# 
# 
# High freq. dielectric constant tensor:
#      x y z
#    x 1.704890 0.000000 0.000000 
#    y 0.000000 1.684390 0.000000 
#    z 0.000000 0.000000 1.706860 
# 
# From -- ./inp_files/75350.got.cif
#   From: 2010.03.12/outbox.cif.g09.slc.cpg/sg65_38_cif.got.tgz:75350.got - 2010.04.10 20:52:16.
