data_PCOD8268713
_publ_section_title
;
Structure prediction by ZEFSAII (Michael W. Deem and Ramdas Pophale) SiO2 
 PCOD8268713
Probable space group: C M M M
;
_chemical_formula_sum "Si O2"
_cell_formula_units_Z 120
_cell_length_a 27.723766
_cell_length_b 9.181519
_cell_length_c 26.189053
_cell_angle_alpha 90.000000
_cell_angle_beta 90.000000
_cell_angle_gamma 90.000000
_cell_volume 6666.326130
_symmetry_space_group_name_H-M "C M M M"
_symmetry_group_IT_number 65
_symmetry_cell_setting 'orthorhombic'
loop_
_space_group_symop_operation_xyz
x,y,z
-x,-y,z
x,-y,-z
-x,y,-z
-x,-y,-z
x,y,-z
-x,y,z
x,-y,z
1/2+x,1/2+y,z
1/2-x,1/2-y,z
1/2+x,1/2-y,-z
1/2-x,1/2+y,-z
1/2-x,1/2-y,-z
1/2+x,1/2+y,-z
1/2-x,1/2+y,z
1/2+x,1/2-y,z
loop_
_atom_site_type_symbol
_atom_site_label
_atom_site_fract_x
_atom_site_fract_y
_atom_site_fract_z
Si Si1 0.444656 0.666560 0.440682
Si Si2 0.639389 0.331919 0.790492
Si Si3 0.300264 0.327029 0.000000
Si Si4 0.113247 0.329504 0.358141
Si Si5 0.945776 0.333102 0.057782
Si Si6 0.054703 0.669703 0.742413
Si Si7 0.639645 0.331578 0.096378
Si Si8 0.199065 0.173220 0.306888
O O1 0.432509 0.684985 0.500000
O O2 0.500000 0.710125 0.429970
O O3 0.435642 0.500000 0.423422
O O4 0.409508 0.774795 0.410799
O O5 0.626225 0.500000 0.783310
O O6 0.589331 0.246447 0.783322
O O7 0.661097 0.300947 0.847096
O O8 0.679941 0.285152 0.749737
O O9 0.250000 0.250000 0.000000
O O10 0.326857 0.269629 0.948843
O O11 0.293631 0.500000 0.000000
O O12 0.125954 0.500000 0.362009
O O13 0.074160 0.297867 0.314224
O O14 0.162026 0.239001 0.348031
O O15 0.929771 0.500000 0.059791
O O16 0.912451 0.241936 0.095152
O O17 0.000000 0.314301 0.077821
O O18 0.941066 0.274161 0.000000
O O19 0.055909 0.500000 0.754902
O O20 0.000000 0.729997 0.746577
O O21 0.631677 0.500000 0.086293
O O22 0.250000 0.250000 0.315109
O O23 0.203952 0.000000 0.314549
#
# Coordination Sequence:
#
# PCOD8268713 Si02
#       8
#    16  16   8  16  16  16  16  16
#     4   9  18  32  50  76 113 154 190 222 259 304
#     4   9  20  35  51  73 101 130 163 203 249 302
#     4  10  22  38  55  74  95 121 154 195 243 296
#     4  10  19  32  52  78 106 139 180 223 265 309
#     4   9  18  32  50  73  99 127 161 198 236 283
#     4   9  18  32  49  72 104 138 171 208 250 296
#     4  10  20  36  54  74 100 129 161 200 245 297
#     4  10  20  36  56  77 101 131 169 216 267 318
#
# _framework density 18.000921000000002
#
# number of rings (size 3 to 8) (size 9 to 14) (size 15 to 20)
#    0.000    2.533    0.667    2.000    0.000    4.800 
#    0.000    4.000    0.000    0.400    0.000    0.000 
#    0.000    0.000    0.000    0.000    0.000    0.000 
#
# Total GULP energy -743965.767698 kJ/mol
# GULP energy per Si atom -12399.429462 kJ/mol
# Density = 1.795995 g / cm^3
# Si number density = 18.000921 Si / 1000 Ang^3
#
#
#
# Elastic Constant Matrix: (Units=GPa)
#
#
# Indices 1 2 3 4 5 6 
#
# 1 119.9488 49.6576 49.7401 0.0000 0.0000 0.0000
# 2 49.6576 61.8247 39.0693 0.0000 0.0000 0.0000
# 3 49.7401 39.0693 91.9705 0.0000 0.0000 0.0000
# 4 0.0000 0.0000 0.0000 26.1440 0.0000 0.0000
# 5 0.0000 0.0000 0.0000 0.0000 18.7178 0.0000
# 6 0.0000 0.0000 0.0000 0.0000 0.0000 34.3382
#
#
#
# Elastic Compliance Matrix: (Units=1/GPa)
#
#
# Indices 1 2 3 4 5 6 
#
# 1 0.013324 -0.008404 -0.003636 0.000000 0.000000 0.000000
# 2 -0.008404 0.027411 -0.007099 0.000000 0.000000 0.000000
# 3 -0.003636 -0.007099 0.015855 0.000000 0.000000 0.000000
# 4 0.000000 0.000000 0.000000 0.038250 0.000000 0.000000
# 5 0.000000 0.000000 0.000000 0.000000 0.053425 0.000000
# 6 0.000000 0.000000 0.000000 0.000000 0.000000 0.029122
#
#
# Mechanical properties :
#
#
# Convention : Reuss Voigt Hill
#
# Bulk Modulus (GPa) = 54.60905 61.18646 57.89775
# Shear Modulus (GPa) = 22.54599 24.85847 23.70223
#
# Velocity S-wave (km/s) = 3.54289 3.72015 3.63260
# Velocity P-wave (km/s) = 6.86577 7.24688 7.05890
#
# Compressibility (1/GPa) = 0.01831198
#
# Stress axis : x y z
#
# Youngs Moduli (GPa) = 75.05375 36.48155 63.07113
#
# Poissons Ratio (x) = 0.30659 0.22931
# Poissons Ratio (y) = 0.63076 0.44775
# Poissons Ratio (z) = 0.27288 0.25899
#
# Static dielectric constant tensor:
#      x y z
#    x 3.229880 0.000000 0.000000 
#    y 0.000000 3.279300 0.000000 
#    z 0.000000 0.000000 3.312340 
# 
# 
# High freq. dielectric constant tensor:
#      x y z
#    x 1.687560 0.000000 0.000000 
#    y 0.000000 1.696110 0.000000 
#    z 0.000000 0.000000 1.690700 
# 
# From -- ./inp_files/76133.got.cif
#   From: 2010.03.12/outbox.cif.g09.slc.cpg/sg65_39_cif.got.tgz:76133.got - 2010.04.10 20:52:16.
