data_PCOD8268867
_publ_section_title
;
Structure prediction by ZEFSAII (Michael W. Deem and Ramdas Pophale) SiO2 
 PCOD8268867
Probable space group: C M M M
;
_chemical_formula_sum "Si O2"
_cell_formula_units_Z 120
_cell_length_a 28.674796
_cell_length_b 9.051063
_cell_length_c 28.413717
_cell_angle_alpha 90.000000
_cell_angle_beta 90.000000
_cell_angle_gamma 90.000000
_cell_volume 7374.421811
_symmetry_space_group_name_H-M "C M M M"
_symmetry_group_IT_number 65
_symmetry_cell_setting 'orthorhombic'
loop_
_space_group_symop_operation_xyz
x,y,z
-x,-y,z
x,-y,-z
-x,y,-z
-x,-y,-z
x,y,-z
-x,y,z
x,-y,z
1/2+x,1/2+y,z
1/2-x,1/2-y,z
1/2+x,1/2-y,-z
1/2-x,1/2+y,-z
1/2-x,1/2-y,-z
1/2+x,1/2+y,-z
1/2-x,1/2+y,z
1/2+x,1/2-y,z
loop_
_atom_site_type_symbol
_atom_site_label
_atom_site_fract_x
_atom_site_fract_y
_atom_site_fract_z
Si Si1 0.297209 0.173780 0.282170
Si Si2 0.947422 0.173171 0.053544
Si Si3 0.889269 0.175661 0.310386
Si Si4 0.054888 0.670731 0.228958
Si Si5 0.203703 0.671801 0.827089
Si Si6 0.605927 0.826173 0.134694
Si Si7 0.447856 0.323557 0.399217
Si Si8 0.944622 0.161814 0.500000
O O1 0.250000 0.250000 0.300332
O O2 0.339359 0.246364 0.310560
O O3 0.305026 0.209738 0.227379
O O4 0.294996 0.000000 0.292118
O O5 0.910873 0.252897 0.086879
O O6 0.000000 0.227675 0.064512
O O7 0.943905 0.000000 0.062150
O O8 0.934239 0.212990 0.000000
O O9 0.920926 0.226528 0.267130
O O10 0.913466 0.230199 0.358465
O O11 0.883368 0.000000 0.307979
O O12 0.068747 0.500000 0.238411
O O13 0.072599 0.720771 0.177705
O O14 0.000000 0.695855 0.231356
O O15 0.211545 0.500000 0.834346
O O16 0.250000 0.750000 0.846721
O O17 0.158641 0.728545 0.855473
O O18 0.604555 0.000000 0.127750
O O19 0.500000 0.265593 0.387476
O O20 0.448721 0.500000 0.402358
O O21 0.430585 0.258754 0.450424
O O22 0.000000 0.144995 0.500000
O O23 0.921163 0.000000 0.500000
#
# Coordination Sequence:
#
# PCOD8268867 Si02
#       8
#    16  16  16  16  16  16  16   8
#     4  10  19  34  51  68  93 124 160 198 238 283
#     4   9  19  35  52  72  99 127 156 194 238 281
#     4  11  20  29  44  69  99 128 158 195 238 285
#     4  10  20  33  46  63  95 135 165 192 232 281
#     4   9  18  32  50  70  94 120 153 194 234 275
#     4  10  19  33  51  72  95 123 159 198 235 275
#     4   8  14  24  39  62  93 126 161 200 237 277
#     4   7  10  20  38  58  84 121 160 199 242 277
#
# _framework density 16.272462999999998
#
# number of rings (size 3 to 8) (size 9 to 14) (size 15 to 20)
#    0.000    2.600    1.333    2.800    0.000    3.467 
#    0.000    0.667    0.000    0.400    0.000    2.333 
#    0.000    7.467    0.000    0.000    0.000    0.000 
#
# Total GULP energy -743790.091457 kJ/mol
# GULP energy per Si atom -12396.501524 kJ/mol
# Density = 1.623543 g / cm^3
# Si number density = 16.272463 Si / 1000 Ang^3
#
#
#
# Elastic Constant Matrix: (Units=GPa)
#
#
# Indices 1 2 3 4 5 6 
#
# 1 129.4369 44.4263 69.9785 0.0000 0.0000 0.0000
# 2 44.4263 46.7683 38.7936 0.0000 0.0000 0.0000
# 3 69.9785 38.7936 111.1474 0.0000 0.0000 0.0000
# 4 0.0000 0.0000 0.0000 10.5105 0.0000 0.0000
# 5 0.0000 0.0000 0.0000 0.0000 14.2589 0.0000
# 6 0.0000 0.0000 0.0000 0.0000 0.0000 28.5467
#
#
#
# Elastic Compliance Matrix: (Units=1/GPa)
#
#
# Indices 1 2 3 4 5 6 
#
# 1 0.013635 -0.008208 -0.005720 0.000000 0.000000 0.000000
# 2 -0.008208 0.035036 -0.007061 0.000000 0.000000 0.000000
# 3 -0.005720 -0.007061 0.015063 0.000000 0.000000 0.000000
# 4 0.000000 0.000000 0.000000 0.095143 0.000000 0.000000
# 5 0.000000 0.000000 0.000000 0.000000 0.070132 0.000000
# 6 0.000000 0.000000 0.000000 0.000000 0.000000 0.035030
#
#
# Mechanical properties :
#
#
# Convention : Reuss Voigt Hill
#
# Bulk Modulus (GPa) = 45.96338 65.97217 55.96778
# Shear Modulus (GPa) = 15.96077 19.60685 17.78381
#
# Velocity S-wave (km/s) = 3.13524 3.47495 3.30946
# Velocity P-wave (km/s) = 6.43535 7.53197 7.00515
#
# Compressibility (1/GPa) = 0.02175645
#
# Stress axis : x y z
#
# Youngs Moduli (GPa) = 73.33828 28.54237 66.38854
#
# Poissons Ratio (x) = 0.23427 0.37975
# Poissons Ratio (y) = 0.60195 0.46875
# Poissons Ratio (z) = 0.41950 0.20153
#
# Static dielectric constant tensor:
#      x y z
#    x 3.162290 0.000000 0.000000 
#    y 0.000000 2.882010 0.000000 
#    z 0.000000 0.000000 3.207000 
# 
# 
# High freq. dielectric constant tensor:
#      x y z
#    x 1.621570 0.000000 0.000000 
#    y 0.000000 1.608880 0.000000 
#    z 0.000000 0.000000 1.615560 
# 
# From -- ./inp_files/76109.got.cif
#   From: 2010.03.12/outbox.cif.g09.slc.cpg/sg65_39_cif.got.tgz:76109.got - 2010.04.10 20:52:16.
