data_PCOD8268517
_publ_section_title
;
Structure prediction by ZEFSAII (Michael W. Deem and Ramdas Pophale) SiO2 
 PCOD8268517
Probable space group: C M M M
;
_chemical_formula_sum "Si O2"
_cell_formula_units_Z 96
_cell_length_a 18.220343
_cell_length_b 18.351795
_cell_length_c 17.274900
_cell_angle_alpha 90.000000
_cell_angle_beta 90.000000
_cell_angle_gamma 90.000000
_cell_volume 5776.311955
_symmetry_space_group_name_H-M "C M M M"
_symmetry_group_IT_number 65
_symmetry_cell_setting 'orthorhombic'
loop_
_space_group_symop_operation_xyz
x,y,z
-x,-y,z
x,-y,-z
-x,y,-z
-x,-y,-z
x,y,-z
-x,y,z
x,-y,z
1/2+x,1/2+y,z
1/2-x,1/2-y,z
1/2+x,1/2-y,-z
1/2-x,1/2+y,-z
1/2-x,1/2-y,-z
1/2+x,1/2+y,-z
1/2-x,1/2+y,z
1/2+x,1/2-y,z
loop_
_atom_site_type_symbol
_atom_site_label
_atom_site_fract_x
_atom_site_fract_y
_atom_site_fract_z
Si Si1 0.145654 0.083639 0.309442
Si Si2 0.272890 0.332082 0.911473
Si Si3 0.082094 0.830812 0.826294
Si Si4 0.703873 0.084060 0.774754
Si Si5 0.916407 0.307565 0.277509
Si Si6 0.914325 0.797734 0.587996
O O1 0.092114 0.108934 0.240448
O O2 0.229360 0.096198 0.284104
O O3 0.130857 0.130973 0.386046
O O4 0.129231 0.000000 0.328981
O O5 0.250000 0.250000 0.892883
O O6 0.359485 0.342609 0.894616
O O7 0.224031 0.384851 0.858964
O O8 0.257634 0.353206 0.000000
O O9 0.094453 0.751164 0.790229
O O10 0.000000 0.838458 0.860578
O O11 0.633597 0.123099 0.738620
O O12 0.683975 0.000000 0.785261
O O13 0.893023 0.271482 0.359248
O O14 0.000000 0.335112 0.280827
O O15 0.893713 0.778679 0.500000
O O16 0.000000 0.815791 0.598268
#
# Coordination Sequence:
#
# PCOD8268517 Si02
#       6
#    16  16  16  16  16  16
#     4   9  18  30  46  70 101 134 166 202 242 288
#     4  10  19  32  51  73  98 130 162 195 242 296
#     4   9  17  29  48  72  97 128 166 205 240 283
#     4  10  20  34  52  73  97 128 166 206 245 287
#     4   9  17  32  52  72  96 125 164 208 244 288
#     4   9  18  31  49  74 101 130 163 200 244 293
#
# _framework density 16.619600999999999
#
# number of rings (size 3 to 8) (size 9 to 14) (size 15 to 20)
#    0.000    2.667    1.667    1.500    0.000    2.667 
#    0.000    2.500    0.000    2.000    0.000    8.167 
#    0.000    0.000    0.000    0.000    0.000    0.000 
#
# Total GULP energy -595224.010745 kJ/mol
# GULP energy per Si atom -12400.500224 kJ/mol
# Density = 1.658177 g / cm^3
# Si number density = 16.619601 Si / 1000 Ang^3
#
#
#
# Elastic Constant Matrix: (Units=GPa)
#
#
# Indices 1 2 3 4 5 6 
#
# 1 85.6498 62.1249 43.0594 0.0000 0.0000 0.0000
# 2 62.1249 118.8933 58.7235 0.0000 0.0000 0.0000
# 3 43.0594 58.7235 89.3644 0.0000 0.0000 0.0000
# 4 0.0000 0.0000 0.0000 15.9280 0.0000 0.0000
# 5 0.0000 0.0000 0.0000 0.0000 18.5585 0.0000
# 6 0.0000 0.0000 0.0000 0.0000 0.0000 24.4928
#
#
#
# Elastic Compliance Matrix: (Units=1/GPa)
#
#
# Indices 1 2 3 4 5 6 
#
# 1 0.019743 -0.008317 -0.004048 0.000000 0.000000 0.000000
# 2 -0.008317 0.015956 -0.006478 0.000000 0.000000 0.000000
# 3 -0.004048 -0.006478 0.017397 0.000000 0.000000 0.000000
# 4 0.000000 0.000000 0.000000 0.062783 0.000000 0.000000
# 5 0.000000 0.000000 0.000000 0.000000 0.053884 0.000000
# 6 0.000000 0.000000 0.000000 0.000000 0.000000 0.040828
#
#
# Mechanical properties :
#
#
# Convention : Reuss Voigt Hill
#
# Bulk Modulus (GPa) = 64.88653 69.08035 66.98344
# Shear Modulus (GPa) = 19.73062 20.46249 20.09656
#
# Velocity S-wave (km/s) = 3.44930 3.51269 3.48114
# Velocity P-wave (km/s) = 7.41556 7.62285 7.51992
#
# Compressibility (1/GPa) = 0.01541152
#
# Stress axis : x y z
#
# Youngs Moduli (GPa) = 50.65079 62.67129 57.48070
#
# Poissons Ratio (x) = 0.52124 0.23266
# Poissons Ratio (y) = 0.42127 0.37235
# Poissons Ratio (z) = 0.20502 0.40597
#
# Static dielectric constant tensor:
#      x y z
#    x 3.114180 0.000000 0.000000 
#    y 0.000000 3.026340 0.000000 
#    z 0.000000 0.000000 3.012110 
# 
# 
# High freq. dielectric constant tensor:
#      x y z
#    x 1.640270 0.000000 0.000000 
#    y 0.000000 1.630320 0.000000 
#    z 0.000000 0.000000 1.626040 
# 
# From -- ./inp_files/54473.got.cif
#   From: 2010.03.12/outbox.cif.g09.slc.cpg/sg65_28_cif.got.tgz:54473.got - 2010.04.10 20:52:16.
