data_PCOD8268443
_publ_section_title
;
Structure prediction by ZEFSAII (Michael W. Deem and Ramdas Pophale) SiO2 
 PCOD8268443
Probable space group: C M M M
;
_chemical_formula_sum "Si O2"
_cell_formula_units_Z 104
_cell_length_a 27.406419
_cell_length_b 7.949493
_cell_length_c 23.682846
_cell_angle_alpha 90.000000
_cell_angle_beta 90.000000
_cell_angle_gamma 90.000000
_cell_volume 5159.713830
_symmetry_space_group_name_H-M "C M M M"
_symmetry_group_IT_number 65
_symmetry_cell_setting 'orthorhombic'
loop_
_space_group_symop_operation_xyz
x,y,z
-x,-y,z
x,-y,-z
-x,y,-z
-x,-y,-z
x,y,-z
-x,y,z
x,-y,z
1/2+x,1/2+y,z
1/2-x,1/2-y,z
1/2+x,1/2-y,-z
1/2-x,1/2+y,-z
1/2-x,1/2-y,-z
1/2+x,1/2+y,-z
1/2-x,1/2+y,z
1/2+x,1/2-y,z
loop_
_atom_site_type_symbol
_atom_site_label
_atom_site_fract_x
_atom_site_fract_y
_atom_site_fract_z
Si Si1 0.120058 0.690032 0.065455
Si Si2 0.305786 0.301094 0.847162
Si Si3 0.396257 0.195385 0.561421
Si Si4 0.804502 0.802018 0.620339
Si Si5 0.853126 0.803288 0.733012
Si Si6 0.945568 0.699537 0.673358
Si Si7 0.445474 0.500000 0.066972
O O1 0.099390 0.500000 0.074504
O O2 0.170662 0.711830 0.098612
O O3 0.081530 0.829685 0.087968
O O4 0.131843 0.722035 0.000000
O O5 0.311464 0.500000 0.853227
O O6 0.250000 0.250000 0.842904
O O7 0.333774 0.228218 0.791914
O O8 0.409785 0.275429 0.500000
O O9 0.338889 0.223424 0.572444
O O10 0.427558 0.275852 0.612894
O O11 0.407949 0.000000 0.558686
O O12 0.750000 0.750000 0.606239
O O13 0.821043 0.728128 0.681404
O O14 0.810847 0.000000 0.619453
O O15 0.910135 0.760145 0.723593
O O16 0.845389 0.000000 0.735494
O O17 0.944498 0.500000 0.670767
O O18 0.000000 0.766916 0.685768
O O19 0.500000 0.500000 0.092759
O O20 0.448249 0.500000 0.000000
#
# Coordination Sequence:
#
# PCOD8268443 Si02
#       7
#    16  16  16  16  16  16   8
#     4  10  21  38  60  89 125 161 201 249 297 352
#     4  11  22  37  58  84 115 153 195 239 292 349
#     4   9  18  32  49  71 100 133 170 213 262 318
#     4  10  19  32  50  72  99 132 172 215 265 321
#     4   9  20  36  54  77 105 138 177 225 274 328
#     4   9  18  33  54  78 103 134 172 218 272 326
#     4   9  18  36  62  88 118 158 200 246 296 344
#
# _framework density 20.156157
#
# number of rings (size 3 to 8) (size 9 to 14) (size 15 to 20)
#    0.000    2.385    0.769    1.385    0.000    3.692 
#    0.000    3.846    0.000    0.000    0.000    4.308 
#    0.000    0.000    0.000    0.000    0.000    0.000 
#
# Total GULP energy -644652.663505 kJ/mol
# GULP energy per Si atom -12397.166606 kJ/mol
# Density = 2.011028 g / cm^3
# Si number density = 20.156157 Si / 1000 Ang^3
#
#
#
# Elastic Constant Matrix: (Units=GPa)
#
#
# Indices 1 2 3 4 5 6 
#
# 1 145.5096 18.5008 53.3001 0.0000 0.0000 0.0000
# 2 18.5008 64.0481 29.3536 0.0000 0.0000 0.0000
# 3 53.3001 29.3536 95.6795 0.0000 0.0000 0.0000
# 4 0.0000 0.0000 0.0000 20.1701 0.0000 0.0000
# 5 0.0000 0.0000 0.0000 0.0000 23.5555 0.0000
# 6 0.0000 0.0000 0.0000 0.0000 0.0000 26.4066
#
#
#
# Elastic Compliance Matrix: (Units=1/GPa)
#
#
# Indices 1 2 3 4 5 6 
#
# 1 0.008641 -0.000337 -0.004710 0.000000 0.000000 0.000000
# 2 -0.000337 0.018181 -0.005390 0.000000 0.000000 0.000000
# 3 -0.004710 -0.005390 0.014729 0.000000 0.000000 0.000000
# 4 0.000000 0.000000 0.000000 0.049578 0.000000 0.000000
# 5 0.000000 0.000000 0.000000 0.000000 0.042453 0.000000
# 6 0.000000 0.000000 0.000000 0.000000 0.000000 0.037869
#
#
# Mechanical properties :
#
#
# Convention : Reuss Voigt Hill
#
# Bulk Modulus (GPa) = 48.36477 56.39402 52.37940
# Shear Modulus (GPa) = 25.09828 27.63197 26.36512
#
# Velocity S-wave (km/s) = 3.53256 3.70658 3.62061
# Velocity P-wave (km/s) = 6.37854 6.80864 6.59709
#
# Compressibility (1/GPa) = 0.02067621
#
# Stress axis : x y z
#
# Youngs Moduli (GPa) = 115.73383 55.00277 67.89398
#
# Poissons Ratio (x) = 0.01855 0.31977
# Poissons Ratio (y) = 0.03904 0.36594
# Poissons Ratio (z) = 0.54509 0.29646
#
# Static dielectric constant tensor:
#      x y z
#    x 3.715660 0.000000 0.000000 
#    y 0.000000 3.595950 0.000000 
#    z 0.000000 0.000000 3.828530 
# 
# 
# High freq. dielectric constant tensor:
#      x y z
#    x 1.780280 0.000000 0.000000 
#    y 0.000000 1.780460 0.000000 
#    z 0.000000 0.000000 1.778500 
# 
# From -- ./inp_files/71824.got.cif
#   From: 2010.03.12/outbox.cif.g09.slc.cpg/sg65_36_cif.got.tgz:71824.got - 2010.04.10 20:52:16.
