data_PCOD8268392
_publ_section_title
;
Structure prediction by ZEFSAII (Michael W. Deem and Ramdas Pophale) SiO2 
 PCOD8268392
Probable space group: C M M M
;
_chemical_formula_sum "Si O2"
_cell_formula_units_Z 72
_cell_length_a 19.355447
_cell_length_b 13.110094
_cell_length_c 15.684918
_cell_angle_alpha 90.000000
_cell_angle_beta 90.000000
_cell_angle_gamma 90.000000
_cell_volume 3980.075071
_symmetry_space_group_name_H-M "C M M M"
_symmetry_group_IT_number 65
_symmetry_cell_setting 'orthorhombic'
loop_
_space_group_symop_operation_xyz
x,y,z
-x,-y,z
x,-y,-z
-x,y,-z
-x,-y,-z
x,y,-z
-x,y,z
x,-y,z
1/2+x,1/2+y,z
1/2-x,1/2-y,z
1/2+x,1/2-y,-z
1/2-x,1/2+y,-z
1/2-x,1/2-y,-z
1/2+x,1/2+y,-z
1/2-x,1/2+y,z
1/2+x,1/2-y,z
loop_
_atom_site_type_symbol
_atom_site_label
_atom_site_fract_x
_atom_site_fract_y
_atom_site_fract_z
Si Si1 0.856617 0.309023 0.173763
Si Si2 0.285303 0.616578 0.763655
Si Si3 0.215539 0.379733 0.406443
Si Si4 0.574719 0.120305 0.664995
Si Si5 0.581573 0.880001 0.000000
O O1 0.786498 0.373979 0.185320
O O2 0.842606 0.189259 0.194208
O O3 0.915415 0.351334 0.236115
O O4 0.884179 0.322759 0.079244
O O5 0.311691 0.500000 0.767443
O O6 0.270794 0.654045 0.665495
O O7 0.241186 0.343715 0.500000
O O8 0.208501 0.500000 0.401163
O O9 0.138717 0.333767 0.389162
O O10 0.500000 0.164486 0.634462
O O11 0.572965 0.000000 0.655506
O O12 0.500000 0.861961 0.000000
O O13 0.599423 0.000000 0.000000
#
# Coordination Sequence:
#
# PCOD8268392 Si02
#       5
#    16  16  16  16   8
#     4  10  19  32  49  71  96 126 161 199 239 289
#     4   9  18  32  49  70  99 134 164 194 240 288
#     4   8  14  26  45  69  96 126 162 201 239 283
#     4   9  16  27  44  65  93 127 159 197 247 295
#     4  11  22  35  55  79  99 121 153 196 242 287
#
# _framework density 18.090112000000001
#
# number of rings (size 3 to 8) (size 9 to 14) (size 15 to 20)
#    0.000    2.778    0.000    4.000    0.000    4.000 
#    0.000   12.778    0.000    3.333    0.000    0.000 
#    0.000    0.000    0.000   40.222    0.000    2.000 
#
# Total GULP energy -446076.588596 kJ/mol
# GULP energy per Si atom -12391.016350 kJ/mol
# Density = 1.804894 g / cm^3
# Si number density = 18.090112 Si / 1000 Ang^3
#
#
#
# Elastic Constant Matrix: (Units=GPa)
#
#
# Indices 1 2 3 4 5 6 
#
# 1 61.8216 22.4814 31.1362 0.0000 0.0000 0.0000
# 2 22.4814 45.7253 15.9643 0.0000 0.0000 0.0000
# 3 31.1362 15.9643 135.8329 0.0000 0.0000 0.0000
# 4 0.0000 0.0000 0.0000 51.6607 0.0000 0.0000
# 5 0.0000 0.0000 0.0000 0.0000 -11.1540 0.0000
# 6 0.0000 0.0000 0.0000 0.0000 0.0000 23.5049
#
#
#
# Elastic Compliance Matrix: (Units=1/GPa)
#
#
# Indices 1 2 3 4 5 6 
#
# 1 0.021457 -0.009210 -0.003836 0.000000 0.000000 0.000000
# 2 -0.009210 0.026759 -0.001034 0.000000 0.000000 0.000000
# 3 -0.003836 -0.001034 0.008363 0.000000 0.000000 0.000000
# 4 0.000000 0.000000 0.000000 0.019357 0.000000 0.000000
# 5 0.000000 0.000000 0.000000 0.000000 -0.089654 0.000000
# 6 0.000000 0.000000 0.000000 0.000000 0.000000 0.042544
#
#
# Mechanical properties :
#
#
# Convention : Reuss Voigt Hill
#
# Bulk Modulus (GPa) = 35.18811 42.50484 38.84647
# Shear Modulus (GPa) = 75.23490 24.38886 49.81188
#
# Velocity S-wave (km/s) = 6.45595 3.67575 5.25311
# Velocity P-wave (km/s) = 8.66407 6.44686 7.63637
#
# Compressibility (1/GPa) = 0.02841869
#
# Stress axis : x y z
#
# Youngs Moduli (GPa) = 46.60523 37.37067 119.57751
#
# Poissons Ratio (x) = 0.34419 0.45869
# Poissons Ratio (y) = 0.42924 0.12361
# Poissons Ratio (z) = 0.17878 0.03863
#
# Static dielectric constant tensor:
#      x y z
#    x 3.364160 0.000000 0.000000 
#    y 0.000000 3.193630 0.000000 
#    z 0.000000 0.000000 3.465370 
# 
# 
# High freq. dielectric constant tensor:
#      x y z
#    x 1.679500 0.000000 0.000000 
#    y 0.000000 1.686280 0.000000 
#    z 0.000000 0.000000 1.699400 
# 
# From -- ./inp_files/39815.got.cif
#   From: 2010.03.12/outbox.cif.g09.slc.cpg/sg65_20_cif.got.tgz:39815.got - 2010.04.10 20:52:16.
