data_PCOD8268218
_publ_section_title
;
Structure prediction by ZEFSAII (Michael W. Deem and Ramdas Pophale) SiO2 
 PCOD8268218
Probable space group: C M M M
;
_chemical_formula_sum "Si O2"
_cell_formula_units_Z 64
_cell_length_a 7.626681
_cell_length_b 18.072922
_cell_length_c 22.731633
_cell_angle_alpha 90.000000
_cell_angle_beta 90.000000
_cell_angle_gamma 90.000000
_cell_volume 3133.246705
_symmetry_space_group_name_H-M "C M M M"
_symmetry_group_IT_number 65
_symmetry_cell_setting 'orthorhombic'
loop_
_space_group_symop_operation_xyz
x,y,z
-x,-y,z
x,-y,-z
-x,y,-z
-x,-y,-z
x,y,-z
-x,y,z
x,-y,z
1/2+x,1/2+y,z
1/2-x,1/2-y,z
1/2+x,1/2-y,-z
1/2-x,1/2+y,-z
1/2-x,1/2-y,-z
1/2+x,1/2+y,-z
1/2-x,1/2+y,z
1/2+x,1/2-y,z
loop_
_atom_site_type_symbol
_atom_site_label
_atom_site_fract_x
_atom_site_fract_y
_atom_site_fract_z
Si Si1 0.500000 0.912404 0.434641
Si Si2 0.201387 0.912980 0.347259
Si Si3 0.709335 0.583940 0.115227
Si Si4 0.794415 0.164454 0.000000
Si Si5 0.204935 0.164574 0.229931
O O1 0.500000 0.877140 0.500000
O O2 0.323618 0.886566 0.401119
O O3 0.500000 0.000000 0.439342
O O4 0.276953 0.871972 0.289626
O O5 0.000000 0.891172 0.361773
O O6 0.218302 0.000000 0.335588
O O7 0.500000 0.586567 0.115446
O O8 0.777750 0.500000 0.114365
O O9 0.785743 0.626030 0.058078
O O10 0.787533 0.624413 0.172964
O O11 0.750000 0.250000 0.000000
O O12 0.000000 0.151852 0.000000
O O13 0.250000 0.250000 0.228082
O O14 0.000000 0.151126 0.228765
#
# Coordination Sequence:
#
# PCOD8268218 Si02
#       5
#     8  16  16   8  16
#     4   9  18  32  54  84 112 139 174 220 269 317
#     4   9  18  33  53  78 107 141 179 220 268 319
#     4   9  17  31  51  74 100 132 178 223 263 314
#     4  10  19  31  51  75 101 138 174 218 266 318
#     4  10  20  32  50  75 101 136 171 218 268 318
#
# _framework density 20.426096999999999
#
# number of rings (size 3 to 8) (size 9 to 14) (size 15 to 20)
#    0.000    2.625    0.000    1.875    1.750    5.000 
#    0.000    2.500    0.000    3.750    0.000    0.000 
#    0.000    0.000    0.000    0.000    0.000    0.000 
#
# Total GULP energy -396751.247520 kJ/mol
# GULP energy per Si atom -12398.476485 kJ/mol
# Density = 2.037961 g / cm^3
# Si number density = 20.426097 Si / 1000 Ang^3
#
#
#
# Elastic Constant Matrix: (Units=GPa)
#
#
# Indices 1 2 3 4 5 6 
#
# 1 56.1884 16.7037 52.4388 0.0000 0.0000 0.0000
# 2 16.7037 129.0196 86.6929 0.0000 0.0000 0.0000
# 3 52.4388 86.6929 231.3991 0.0000 0.0000 0.0000
# 4 0.0000 0.0000 0.0000 20.7810 0.0000 0.0000
# 5 0.0000 0.0000 0.0000 0.0000 3.9796 0.0000
# 6 0.0000 0.0000 0.0000 0.0000 0.0000 23.1297
#
#
#
# Elastic Compliance Matrix: (Units=1/GPa)
#
#
# Indices 1 2 3 4 5 6 
#
# 1 0.022617 0.000689 -0.005384 0.000000 0.000000 0.000000
# 2 0.000689 0.010379 -0.004045 0.000000 0.000000 0.000000
# 3 -0.005384 -0.004045 0.007057 0.000000 0.000000 0.000000
# 4 0.000000 0.000000 0.000000 0.048121 0.000000 0.000000
# 5 0.000000 0.000000 0.000000 0.000000 0.251282 0.000000
# 6 0.000000 0.000000 0.000000 0.000000 0.000000 0.043234
#
#
# Mechanical properties :
#
#
# Convention : Reuss Voigt Hill
#
# Bulk Modulus (GPa) = 44.29709 80.91974 62.60841
# Shear Modulus (GPa) = 12.26413 26.96285 19.61349
#
# Velocity S-wave (km/s) = 2.45299 3.63715 3.10210
# Velocity P-wave (km/s) = 5.45495 7.57234 6.59912
#
# Compressibility (1/GPa) = 0.02257485
#
# Stress axis : x y z
#
# Youngs Moduli (GPa) = 44.21522 96.34499 141.70514
#
# Poissons Ratio (x) = -0.06641 0.76288
# Poissons Ratio (y) = -0.03048 0.57317
# Poissons Ratio (z) = 0.23803 0.38970
#
# Static dielectric constant tensor:
#      x y z
#    x 3.527010 0.000000 0.000000 
#    y 0.000000 3.468040 0.000000 
#    z 0.000000 0.000000 4.143210 
# 
# 
# High freq. dielectric constant tensor:
#      x y z
#    x 1.779830 0.000000 0.000000 
#    y 0.000000 1.784380 0.000000 
#    z 0.000000 0.000000 1.807040 
# 
# From -- ./inp_files/49114.got.cif
#   From: 2010.03.12/outbox.cif.g09.slc.cpg/sg65_25_cif.got.tgz:49114.got - 2010.04.10 20:52:16.
