data_PCOD8268658
_publ_section_title
;
Structure prediction by ZEFSAII (Michael W. Deem and Ramdas Pophale) SiO2 
 PCOD8268658
Probable space group: C M M M
;
_chemical_formula_sum "Si O2"
_cell_formula_units_Z 88
_cell_length_a 18.155849
_cell_length_b 8.971889
_cell_length_c 28.246942
_cell_angle_alpha 90.000000
_cell_angle_beta 90.000000
_cell_angle_gamma 90.000000
_cell_volume 4601.208275
_symmetry_space_group_name_H-M "C M M M"
_symmetry_group_IT_number 65
_symmetry_cell_setting 'orthorhombic'
loop_
_space_group_symop_operation_xyz
x,y,z
-x,-y,z
x,-y,-z
-x,y,-z
-x,-y,-z
x,y,-z
-x,y,z
x,-y,z
1/2+x,1/2+y,z
1/2-x,1/2-y,z
1/2+x,1/2-y,-z
1/2-x,1/2+y,-z
1/2-x,1/2-y,-z
1/2+x,1/2+y,-z
1/2-x,1/2+y,z
1/2+x,1/2-y,z
loop_
_atom_site_type_symbol
_atom_site_label
_atom_site_fract_x
_atom_site_fract_y
_atom_site_fract_z
Si Si1 0.671012 0.176585 0.225164
Si Si2 0.582711 0.176980 0.500000
Si Si3 0.417398 0.176932 0.683234
Si Si4 0.824568 0.173616 0.947215
Si Si5 0.584752 0.326407 0.857815
Si Si6 0.329321 0.822833 0.408239
O O1 0.750000 0.250000 0.229674
O O2 0.622450 0.232906 0.269322
O O3 0.631877 0.226610 0.177341
O O4 0.680281 0.000000 0.224899
O O5 0.500000 0.243208 0.500000
O O6 0.625403 0.233942 0.453690
O O7 0.578688 0.000000 0.500000
O O8 0.500000 0.243624 0.682032
O O9 0.372458 0.235306 0.637951
O O10 0.421206 0.000000 0.682147
O O11 0.750000 0.250000 0.929141
O O12 0.890399 0.211975 0.911281
O O13 0.808089 0.000000 0.947836
O O14 0.846601 0.229810 0.000000
O O15 0.500000 0.281416 0.852853
O O16 0.597776 0.500000 0.846209
O O17 0.250000 0.750000 0.409216
O O18 0.320521 0.000000 0.408101
#
# Coordination Sequence:
#
# PCOD8268658 Si02
#       6
#    16   8  16  16  16  16
#     4  11  22  36  55  77 103 136 174 214 257 307
#     4   9  17  30  51  77 100 129 172 214 250 293
#     4   9  18  33  53  76 101 132 171 212 253 300
#     4   9  18  33  53  76 102 134 171 209 251 301
#     4  10  21  36  54  78 107 137 171 213 259 305
#     4  10  19  32  52  76 103 133 167 209 253 301
#
# _framework density 19.125412000000001
#
# number of rings (size 3 to 8) (size 9 to 14) (size 15 to 20)
#    0.000    2.273    0.000    3.000    0.000    5.818 
#    0.000    2.727    0.000    4.909    0.000    3.818 
#    0.000    0.000    0.000    0.000    0.000    0.000 
#
# Total GULP energy -545671.433924 kJ/mol
# GULP energy per Si atom -12401.623498 kJ/mol
# Density = 1.908188 g / cm^3
# Si number density = 19.125412 Si / 1000 Ang^3
#
#
#
# Elastic Constant Matrix: (Units=GPa)
#
#
# Indices 1 2 3 4 5 6 
#
# 1 180.2597 38.1623 82.4573 0.0000 0.0000 0.0000
# 2 38.1623 35.3593 33.0579 0.0000 0.0000 0.0000
# 3 82.4573 33.0579 144.0772 0.0000 0.0000 0.0000
# 4 0.0000 0.0000 0.0000 15.4964 0.0000 0.0000
# 5 0.0000 0.0000 0.0000 0.0000 41.2562 0.0000
# 6 0.0000 0.0000 0.0000 0.0000 0.0000 22.9020
#
#
#
# Elastic Compliance Matrix: (Units=1/GPa)
#
#
# Indices 1 2 3 4 5 6 
#
# 1 0.008352 -0.005786 -0.003452 0.000000 0.000000 0.000000
# 2 -0.005786 0.040013 -0.005869 0.000000 0.000000 0.000000
# 3 -0.003452 -0.005869 0.010263 0.000000 0.000000 0.000000
# 4 0.000000 0.000000 0.000000 0.064531 0.000000 0.000000
# 5 0.000000 0.000000 0.000000 0.000000 0.024239 0.000000
# 6 0.000000 0.000000 0.000000 0.000000 0.000000 0.043664
#
#
# Mechanical properties :
#
#
# Convention : Reuss Voigt Hill
#
# Bulk Modulus (GPa) = 35.19555 74.11679 54.65617
# Shear Modulus (GPa) = 21.66860 29.66551 25.66706
#
# Velocity S-wave (km/s) = 3.36962 3.94268 3.66736
# Velocity P-wave (km/s) = 5.79496 7.71774 6.82441
#
# Compressibility (1/GPa) = 0.02841269
#
# Stress axis : x y z
#
# Youngs Moduli (GPa) = 119.73629 24.99164 97.43622
#
# Poissons Ratio (x) = 0.14461 0.33636
# Poissons Ratio (y) = 0.69283 0.57188
# Poissons Ratio (z) = 0.41335 0.14668
#
# Static dielectric constant tensor:
#      x y z
#    x 3.671020 0.000000 0.000000 
#    y 0.000000 3.233050 0.000000 
#    z 0.000000 0.000000 3.850920 
# 
# 
# High freq. dielectric constant tensor:
#      x y z
#    x 1.755580 0.000000 0.000000 
#    y 0.000000 1.709090 0.000000 
#    z 0.000000 0.000000 1.762450 
# 
# From -- ./inp_files/70989.got.cif
#   From: 2010.03.12/outbox.cif.g09.slc.cpg/sg65_36_cif.got.tgz:70989.got - 2010.04.10 20:52:16.
