data_PCOD8268591
_publ_section_title
;
Structure prediction by ZEFSAII (Michael W. Deem and Ramdas Pophale) SiO2 
 PCOD8268591
Probable space group: C M M M
;
_chemical_formula_sum "Si O2"
_cell_formula_units_Z 104
_cell_length_a 28.643059
_cell_length_b 8.978955
_cell_length_c 23.241384
_cell_angle_alpha 90.000000
_cell_angle_beta 90.000000
_cell_angle_gamma 90.000000
_cell_volume 5977.329251
_symmetry_space_group_name_H-M "C M M M"
_symmetry_group_IT_number 65
_symmetry_cell_setting 'orthorhombic'
loop_
_space_group_symop_operation_xyz
x,y,z
-x,-y,z
x,-y,-z
-x,y,-z
-x,-y,-z
x,y,-z
-x,y,z
x,-y,z
1/2+x,1/2+y,z
1/2-x,1/2-y,z
1/2+x,1/2-y,-z
1/2-x,1/2+y,-z
1/2-x,1/2-y,-z
1/2+x,1/2+y,-z
1/2-x,1/2+y,z
1/2+x,1/2-y,z
loop_
_atom_site_type_symbol
_atom_site_label
_atom_site_fract_x
_atom_site_fract_y
_atom_site_fract_z
Si Si1 0.050302 0.823717 0.891893
Si Si2 0.447336 0.672114 0.760574
Si Si3 0.300365 0.324949 0.375400
Si Si4 0.201673 0.170674 0.500000
Si Si5 0.359196 0.173935 0.722355
Si Si6 0.298858 0.175106 0.833157
Si Si7 0.352023 0.674259 0.934775
O O1 0.056578 0.773350 0.826212
O O2 0.094616 0.765483 0.928105
O O3 0.000000 0.761268 0.915196
O O4 0.048118 0.000000 0.895356
O O5 0.500000 0.695580 0.737661
O O6 0.432449 0.500000 0.755044
O O7 0.412775 0.773311 0.723288
O O8 0.294327 0.500000 0.364475
O O9 0.250000 0.250000 0.368756
O O10 0.323452 0.291145 0.439038
O O11 0.335074 0.259310 0.329224
O O12 0.250000 0.250000 0.500000
O O13 0.214913 0.000000 0.500000
O O14 0.334837 0.215992 0.782652
O O15 0.356549 0.000000 0.709862
O O16 0.250000 0.250000 0.817258
O O17 0.317475 0.236887 0.893593
O O18 0.291308 0.000000 0.839202
O O19 0.349488 0.500000 0.918868
O O20 0.335887 0.703361 0.000000
#
# Coordination Sequence:
#
# PCOD8268591 Si02
#       7
#    16  16  16   8  16  16  16
#     4   8  14  27  49  76 102 126 155 194 242 296
#     4   9  17  31  53  77 101 133 168 204 251 303
#     4  10  19  32  51  76 108 143 177 213 251 296
#     4   8  16  30  48  72 103 140 177 210 248 293
#     4  11  22  34  51  78 106 135 171 209 255 302
#     4  11  24  39  54  71  95 129 166 209 254 299
#     4  10  20  34  54  77  99 126 162 204 251 303
#
# _framework density 17.399075
#
# number of rings (size 3 to 8) (size 9 to 14) (size 15 to 20)
#    0.000    2.308    1.538    2.769    0.000    4.923 
#    0.000    1.538    0.000    0.462    0.000    1.615 
#    0.000    4.308    0.000    0.000    0.000    0.000 
#
# Total GULP energy -644498.554950 kJ/mol
# GULP energy per Si atom -12394.202980 kJ/mol
# Density = 1.735947 g / cm^3
# Si number density = 17.399075 Si / 1000 Ang^3
#
#
#
# Elastic Constant Matrix: (Units=GPa)
#
#
# Indices 1 2 3 4 5 6 
#
# 1 90.1505 40.4641 40.6546 0.0000 0.0000 0.0000
# 2 40.4641 69.5461 48.6856 0.0000 0.0000 0.0000
# 3 40.6546 48.6856 101.9871 0.0000 0.0000 0.0000
# 4 0.0000 0.0000 0.0000 21.3600 0.0000 0.0000
# 5 0.0000 0.0000 0.0000 0.0000 15.8355 0.0000
# 6 0.0000 0.0000 0.0000 0.0000 0.0000 24.7788
#
#
#
# Elastic Compliance Matrix: (Units=1/GPa)
#
#
# Indices 1 2 3 4 5 6 
#
# 1 0.015535 -0.007065 -0.002820 0.000000 0.000000 0.000000
# 2 -0.007065 0.024808 -0.009027 0.000000 0.000000 0.000000
# 3 -0.002820 -0.009027 0.015238 0.000000 0.000000 0.000000
# 4 0.000000 0.000000 0.000000 0.046817 0.000000 0.000000
# 5 0.000000 0.000000 0.000000 0.000000 0.063149 0.000000
# 6 0.000000 0.000000 0.000000 0.000000 0.000000 0.040357
#
#
# Mechanical properties :
#
#
# Convention : Reuss Voigt Hill
#
# Bulk Modulus (GPa) = 56.30929 57.92135 57.11532
# Shear Modulus (GPa) = 20.02818 21.18681 20.60750
#
# Velocity S-wave (km/s) = 3.39648 3.49334 3.44525
# Velocity P-wave (km/s) = 6.91484 7.04510 6.98027
#
# Compressibility (1/GPa) = 0.01775906
#
# Stress axis : x y z
#
# Youngs Moduli (GPa) = 64.36917 40.30883 65.62327
#
# Poissons Ratio (x) = 0.28476 0.18508
# Poissons Ratio (y) = 0.45474 0.59236
# Poissons Ratio (z) = 0.18154 0.36386
#
# Static dielectric constant tensor:
#      x y z
#    x 2.241650 0.000000 0.000000 
#    y 0.000000 3.125620 0.000000 
#    z 0.000000 0.000000 3.457020 
# 
# 
# High freq. dielectric constant tensor:
#      x y z
#    x 1.664300 0.000000 0.000000 
#    y 0.000000 1.661880 0.000000 
#    z 0.000000 0.000000 1.662440 
# 
# From -- ./inp_files/66314.got.cif
#   From: 2010.03.12/outbox.cif.g09.slc.cpg/sg65_34_cif.got.tgz:66314.got - 2010.04.10 20:52:16.
