data_PCOD8268906
_publ_section_title
;
Structure prediction by ZEFSAII (Michael W. Deem and Ramdas Pophale) SiO2 
 PCOD8268906
Probable space group: C M M M
;
_chemical_formula_sum "Si O2"
_cell_formula_units_Z 72
_cell_length_a 9.960112
_cell_length_b 28.823678
_cell_length_c 14.105137
_cell_angle_alpha 90.000000
_cell_angle_beta 90.000000
_cell_angle_gamma 90.000000
_cell_volume 4049.402328
_symmetry_space_group_name_H-M "C M M M"
_symmetry_group_IT_number 65
_symmetry_cell_setting 'orthorhombic'
loop_
_space_group_symop_operation_xyz
x,y,z
-x,-y,z
x,-y,-z
-x,y,-z
-x,-y,-z
x,y,-z
-x,y,z
x,-y,z
1/2+x,1/2+y,z
1/2-x,1/2-y,z
1/2+x,1/2-y,-z
1/2-x,1/2+y,-z
1/2-x,1/2-y,-z
1/2+x,1/2+y,-z
1/2-x,1/2+y,z
1/2+x,1/2-y,z
loop_
_atom_site_type_symbol
_atom_site_label
_atom_site_fract_x
_atom_site_fract_y
_atom_site_fract_z
Si Si1 0.843532 0.204219 0.000000
Si Si2 0.156320 0.616910 0.332583
Si Si3 0.659582 0.947861 0.500000
Si Si4 0.157245 0.125508 0.848669
Si Si5 0.642436 0.782536 0.391783
Si Si6 0.658021 0.551386 0.000000
O O1 0.750000 0.250000 0.000000
O O2 0.813105 0.172720 0.092727
O O3 0.000000 0.219448 0.000000
O O4 0.209083 0.576665 0.403099
O O5 0.249663 0.621580 0.242051
O O6 0.178683 0.663784 0.390915
O O7 0.000000 0.609504 0.303463
O O8 0.500000 0.945964 0.500000
O O9 0.716236 0.000000 0.500000
O O10 0.200911 0.080298 0.907986
O O11 0.000000 0.123754 0.820988
O O12 0.630933 0.766184 0.500000
O O13 0.500000 0.774039 0.339721
O O14 0.750000 0.750000 0.338021
O O15 0.725532 0.500000 0.000000
O O16 0.500000 0.546067 0.000000
#
# Coordination Sequence:
#
# PCOD8268906 Si02
#       6
#     8  16   8  16  16   8
#     4   9  19  36  55  75 105 140 172 206 250 306
#     4  10  19  33  52  74 102 135 171 210 250 297
#     4   9  18  34  54  73  99 139 179 211 252 307
#     4   9  19  34  52  77 104 130 165 209 253 301
#     4   9  17  30  47  67  93 126 164 201 237 281
#     4   8  15  32  56  75  95 128 163 197 249 311
#
# _framework density 17.780401999999999
#
# number of rings (size 3 to 8) (size 9 to 14) (size 15 to 20)
#    0.000    2.889    1.111    1.333    0.000    3.556 
#    0.000    6.667    0.000    1.333    0.000    0.000 
#    0.000    0.000    0.000    0.000    0.000    0.000 
#
# Total GULP energy -446027.865274 kJ/mol
# GULP energy per Si atom -12389.662924 kJ/mol
# Density = 1.773993 g / cm^3
# Si number density = 17.780402 Si / 1000 Ang^3
#
#
#
# Elastic Constant Matrix: (Units=GPa)
#
#
# Indices 1 2 3 4 5 6 
#
# 1 81.3956 67.5713 62.9110 0.0000 0.0000 0.0000
# 2 67.5713 145.2566 46.0762 0.0000 0.0000 0.0000
# 3 62.9110 46.0762 105.5484 0.0000 0.0000 0.0000
# 4 0.0000 0.0000 0.0000 5.4280 0.0000 0.0000
# 5 0.0000 0.0000 0.0000 0.0000 11.6898 0.0000
# 6 0.0000 0.0000 0.0000 0.0000 0.0000 21.6280
#
#
#
# Elastic Compliance Matrix: (Units=1/GPa)
#
#
# Indices 1 2 3 4 5 6 
#
# 1 0.032213 -0.010324 -0.014693 0.000000 0.000000 0.000000
# 2 -0.010324 0.011300 0.001221 0.000000 0.000000 0.000000
# 3 -0.014693 0.001221 0.017699 0.000000 0.000000 0.000000
# 4 0.000000 0.000000 0.000000 0.184228 0.000000 0.000000
# 5 0.000000 0.000000 0.000000 0.000000 0.085544 0.000000
# 6 0.000000 0.000000 0.000000 0.000000 0.000000 0.046236
#
#
# Mechanical properties :
#
#
# Convention : Reuss Voigt Hill
#
# Bulk Modulus (GPa) = 73.42907 76.14641 74.78774
# Shear Modulus (GPa) = 11.64542 18.12532 14.88537
#
# Velocity S-wave (km/s) = 2.56199 3.19627 2.89654
# Velocity P-wave (km/s) = 7.08090 7.51934 7.30341
#
# Compressibility (1/GPa) = 0.01361859
#
# Stress axis : x y z
#
# Youngs Moduli (GPa) = 31.04358 88.49730 56.49997
#
# Poissons Ratio (x) = 0.91366 0.83016
# Poissons Ratio (y) = 0.32050 -0.06897
# Poissons Ratio (z) = 0.45613 -0.10804
#
# Static dielectric constant tensor:
#      x y z
#    x 3.347950 0.000000 0.000000 
#    y 0.000000 3.687650 0.000000 
#    z 0.000000 0.000000 2.951700 
# 
# 
# High freq. dielectric constant tensor:
#      x y z
#    x 1.668190 0.000000 0.000000 
#    y 0.000000 1.695210 0.000000 
#    z 0.000000 0.000000 1.674240 
# 
# From -- ./inp_files/33459.got.cif
#   From: 2010.03.12/outbox.cif.g09.slc.cpg/sg65_17_cif.got.tgz:33459.got - 2010.04.10 20:52:16.
