data_PCOD8268503
_publ_section_title
;
Structure prediction by ZEFSAII (Michael W. Deem and Ramdas Pophale) SiO2 
 PCOD8268503
Probable space group: C M M M
;
_chemical_formula_sum "Si O2"
_cell_formula_units_Z 120
_cell_length_a 26.486609
_cell_length_b 27.803017
_cell_length_c 9.095646
_cell_angle_alpha 90.000000
_cell_angle_beta 90.000000
_cell_angle_gamma 90.000000
_cell_volume 6698.103208
_symmetry_space_group_name_H-M "C M M M"
_symmetry_group_IT_number 65
_symmetry_cell_setting 'orthorhombic'
loop_
_space_group_symop_operation_xyz
x,y,z
-x,-y,z
x,-y,-z
-x,y,-z
-x,-y,-z
x,y,-z
-x,y,z
x,-y,z
1/2+x,1/2+y,z
1/2-x,1/2-y,z
1/2+x,1/2-y,-z
1/2-x,1/2+y,-z
1/2-x,1/2-y,-z
1/2+x,1/2+y,-z
1/2-x,1/2+y,z
1/2+x,1/2-y,z
loop_
_atom_site_type_symbol
_atom_site_label
_atom_site_fract_x
_atom_site_fract_y
_atom_site_fract_z
Si Si1 0.441789 0.689311 0.827868
Si Si2 0.145870 0.143117 0.325850
Si Si3 0.000000 0.553895 0.825772
Si Si4 0.941269 0.287326 0.330558
Si Si5 0.268047 0.697573 0.828861
Si Si6 0.290208 0.446644 0.672568
Si Si7 0.794304 0.605378 0.167736
Si Si8 0.408314 0.880026 0.171483
O O1 0.500000 0.677261 0.794891
O O2 0.408666 0.648137 0.750168
O O3 0.425895 0.740112 0.758825
O O4 0.430377 0.690998 0.000000
O O5 0.140401 0.147907 0.500000
O O6 0.182966 0.184505 0.266551
O O7 0.167031 0.091001 0.276514
O O8 0.049996 0.581957 0.771865
O O9 0.000000 0.500000 0.758119
O O10 0.000000 0.550441 0.000000
O O11 0.926484 0.279619 0.500000
O O12 0.910715 0.331511 0.264341
O O13 0.000000 0.298764 0.310899
O O14 0.250000 0.750000 0.777944
O O15 0.223025 0.659911 0.795782
O O16 0.283487 0.697490 0.000000
O O17 0.283668 0.444457 0.500000
O O18 0.306080 0.500000 0.725460
O O19 0.235826 0.433205 0.737124
O O20 0.853306 0.597924 0.200556
O O21 0.781827 0.593552 0.000000
O O22 0.416727 0.867569 0.000000
#
# Coordination Sequence:
#
# PCOD8268503 Si02
#       8
#    16  16   8  16  16  16  16  16
#     4  10  21  36  55  79 109 145 180 212 254 312
#     4  10  20  34  54  81 109 138 176 221 264 312
#     4   9  18  32  49  69  95 131 177 227 274 319
#     4  10  20  33  50  74 104 138 177 217 259 308
#     4   9  18  32  48  70 104 143 176 213 261 316
#     4   9  19  37  58  78 104 139 176 215 265 322
#     4   9  19  32  48  75 103 132 175 223 266 309
#     4  10  19  32  51  73 100 136 178 223 271 321
#
# _framework density 17.915517999999999
#
# number of rings (size 3 to 8) (size 9 to 14) (size 15 to 20)
#    0.000    2.467    0.667    1.200    1.867    3.467 
#    0.000    1.333    0.000    1.200    0.000    2.800 
#    0.000    0.000    0.000    0.000    0.000    0.000 
#
# Total GULP energy -744100.576258 kJ/mol
# GULP energy per Si atom -12401.676271 kJ/mol
# Density = 1.787474 g / cm^3
# Si number density = 17.915518 Si / 1000 Ang^3
#
#
#
# Elastic Constant Matrix: (Units=GPa)
#
#
# Indices 1 2 3 4 5 6 
#
# 1 108.1556 65.2812 42.9894 0.0000 0.0000 0.0000
# 2 65.2812 126.9932 46.5232 0.0000 0.0000 0.0000
# 3 42.9894 46.5232 63.8747 0.0000 0.0000 0.0000
# 4 0.0000 0.0000 0.0000 23.2459 0.0000 0.0000
# 5 0.0000 0.0000 0.0000 0.0000 27.1588 0.0000
# 6 0.0000 0.0000 0.0000 0.0000 0.0000 19.3490
#
#
#
# Elastic Compliance Matrix: (Units=1/GPa)
#
#
# Indices 1 2 3 4 5 6 
#
# 1 0.014964 -0.005459 -0.006095 0.000000 0.000000 0.000000
# 2 -0.005459 0.012732 -0.005599 0.000000 0.000000 0.000000
# 3 -0.006095 -0.005599 0.023836 0.000000 0.000000 0.000000
# 4 0.000000 0.000000 0.000000 0.043018 0.000000 0.000000
# 5 0.000000 0.000000 0.000000 0.000000 0.036820 0.000000
# 6 0.000000 0.000000 0.000000 0.000000 0.000000 0.051682
#
#
# Mechanical properties :
#
#
# Convention : Reuss Voigt Hill
#
# Bulk Modulus (GPa) = 58.05466 67.62346 62.83906
# Shear Modulus (GPa) = 22.41148 23.56607 22.98878
#
# Velocity S-wave (km/s) = 3.54072 3.63078 3.58603
# Velocity P-wave (km/s) = 7.01360 7.44341 7.23170
#
# Compressibility (1/GPa) = 0.01722515
#
# Stress axis : x y z
#
# Youngs Moduli (GPa) = 66.82888 78.54207 41.95411
#
# Poissons Ratio (x) = 0.42879 0.25569
# Poissons Ratio (y) = 0.36484 0.23490
# Poissons Ratio (z) = 0.40729 0.43976
#
# Static dielectric constant tensor:
#      x y z
#    x 3.326900 0.000000 0.000000 
#    y 0.000000 3.410220 0.000000 
#    z 0.000000 0.000000 3.252680 
# 
# 
# High freq. dielectric constant tensor:
#      x y z
#    x 1.690540 0.000000 0.000000 
#    y 0.000000 1.683710 0.000000 
#    z 0.000000 0.000000 1.688570 
# 
# From -- ./inp_files/17104.got.cif
#   From: 2010.03.12/outbox.cif.g09.slc.cpg/sg65_9_cif.got.tgz:17104.got - 2010.04.10 20:52:16.
