data_PCOD8268016
_publ_section_title
;
Structure prediction by ZEFSAII (Michael W. Deem and Ramdas Pophale) SiO2 
 PCOD8268016
Probable space group: C M M M
;
_chemical_formula_sum "Si O2"
_cell_formula_units_Z 96
_cell_length_a 25.809747
_cell_length_b 23.566515
_cell_length_c 8.907608
_cell_angle_alpha 90.000000
_cell_angle_beta 90.000000
_cell_angle_gamma 90.000000
_cell_volume 5418.015063
_symmetry_space_group_name_H-M "C M M M"
_symmetry_group_IT_number 65
_symmetry_cell_setting 'orthorhombic'
loop_
_space_group_symop_operation_xyz
x,y,z
-x,-y,z
x,-y,-z
-x,y,-z
-x,-y,-z
x,y,-z
-x,y,z
x,-y,z
1/2+x,1/2+y,z
1/2-x,1/2-y,z
1/2+x,1/2-y,-z
1/2-x,1/2+y,-z
1/2-x,1/2-y,-z
1/2+x,1/2+y,-z
1/2-x,1/2+y,z
1/2+x,1/2-y,z
loop_
_atom_site_type_symbol
_atom_site_label
_atom_site_fract_x
_atom_site_fract_y
_atom_site_fract_z
Si Si1 0.153508 0.133025 0.321929
Si Si2 0.309515 0.754286 0.677318
Si Si3 0.246368 0.433512 0.673525
Si Si4 0.345001 0.131615 0.822236
Si Si5 0.442699 0.936532 0.178302
Si Si6 0.557369 0.436105 0.678700
O O1 0.152009 0.129395 0.500000
O O2 0.160144 0.197925 0.269748
O O3 0.201953 0.096329 0.263960
O O4 0.100326 0.106957 0.254242
O O5 0.311909 0.763064 0.500000
O O6 0.250000 0.750000 0.730454
O O7 0.337733 0.806410 0.754796
O O8 0.236635 0.417122 0.500000
O O9 0.253201 0.500000 0.695636
O O10 0.198831 0.411885 0.770934
O O11 0.399793 0.107344 0.761239
O O12 0.343942 0.136098 0.000000
O O13 0.500000 0.917024 0.232805
O O14 0.430856 0.000000 0.239529
O O15 0.440887 0.938075 0.000000
O O16 0.559033 0.434966 0.500000
O O17 0.500000 0.417483 0.734488
O O18 0.569633 0.500000 0.734357
#
# Coordination Sequence:
#
# PCOD8268016 Si02
#       6
#    16  16  16  16  16  16
#     4   9  16  28  45  64  89 126 165 196 230 283
#     4  10  19  34  51  66  94 135 172 199 235 291
#     4  10  19  31  49  72  98 128 161 196 240 298
#     4  11  21  32  50  75 101 125 161 209 250 287
#     4   8  15  30  51  72  95 126 161 196 241 297
#     4   8  13  22  39  65  94 120 150 193 241 284
#
# _framework density 17.718667
#
# number of rings (size 3 to 8) (size 9 to 14) (size 15 to 20)
#    0.000    2.667    1.667    2.500    0.000    3.333 
#    0.000    0.833    0.000    3.000    0.000    5.833 
#    0.000    0.667    0.000    9.167    0.000    8.333 
#
# Total GULP energy -595023.603957 kJ/mol
# GULP energy per Si atom -12396.325082 kJ/mol
# Density = 1.767834 g / cm^3
# Si number density = 17.718667 Si / 1000 Ang^3
#
#
#
# Elastic Constant Matrix: (Units=GPa)
#
#
# Indices 1 2 3 4 5 6 
#
# 1 172.4518 95.1570 25.6963 0.0000 0.0000 0.0000
# 2 95.1570 134.7780 30.4565 0.0000 0.0000 0.0000
# 3 25.6963 30.4565 19.2783 0.0000 0.0000 0.0000
# 4 0.0000 0.0000 0.0000 19.7788 0.0000 0.0000
# 5 0.0000 0.0000 0.0000 0.0000 14.4643 0.0000
# 6 0.0000 0.0000 0.0000 0.0000 0.0000 31.6388
#
#
#
# Elastic Compliance Matrix: (Units=1/GPa)
#
#
# Indices 1 2 3 4 5 6 
#
# 1 0.009629 -0.006062 -0.003257 0.000000 0.000000 0.000000
# 2 -0.006062 0.015356 -0.016179 0.000000 0.000000 0.000000
# 3 -0.003257 -0.016179 0.081774 0.000000 0.000000 0.000000
# 4 0.000000 0.000000 0.000000 0.050559 0.000000 0.000000
# 5 0.000000 0.000000 0.000000 0.000000 0.069136 0.000000
# 6 0.000000 0.000000 0.000000 0.000000 0.000000 0.031607
#
#
# Mechanical properties :
#
#
# Convention : Reuss Voigt Hill
#
# Bulk Modulus (GPa) = 17.93357 69.90305 43.91831
# Shear Modulus (GPa) = 15.26038 24.85626 20.05832
#
# Velocity S-wave (km/s) = 2.93791 3.74950 3.36824
# Velocity P-wave (km/s) = 4.65313 7.63428 6.32194
#
# Compressibility (1/GPa) = 0.05576133
#
# Stress axis : x y z
#
# Youngs Moduli (GPa) = 103.84985 65.12125 12.22885
#
# Poissons Ratio (x) = 0.39480 0.03983
# Poissons Ratio (y) = 0.62959 0.19785
# Poissons Ratio (z) = 0.33827 1.05360
#
# Static dielectric constant tensor:
#      x y z
#    x 3.695660 0.000000 0.000000 
#    y 0.000000 3.433570 0.000000 
#    z 0.000000 0.000000 2.819060 
# 
# 
# High freq. dielectric constant tensor:
#      x y z
#    x 1.693930 0.000000 0.000000 
#    y 0.000000 1.690520 0.000000 
#    z 0.000000 0.000000 1.631560 
# 
# From -- ./inp_files/16650.got.cif
#   From: 2010.03.12/outbox.cif.g09.slc.cpg/sg65_9_cif.got.tgz:16650.got - 2010.04.10 20:52:16.
