data_PCOD8268180
_publ_section_title
;
Structure prediction by ZEFSAII (Michael W. Deem and Ramdas Pophale) SiO2 
 PCOD8268180
Probable space group: C M M M
;
_chemical_formula_sum "Si O2"
_cell_formula_units_Z 72
_cell_length_a 15.858023
_cell_length_b 8.817124
_cell_length_c 25.026135
_cell_angle_alpha 90.000000
_cell_angle_beta 90.000000
_cell_angle_gamma 90.000000
_cell_volume 3499.208132
_symmetry_space_group_name_H-M "C M M M"
_symmetry_group_IT_number 65
_symmetry_cell_setting 'orthorhombic'
loop_
_space_group_symop_operation_xyz
x,y,z
-x,-y,z
x,-y,-z
-x,y,-z
-x,-y,-z
x,y,-z
-x,y,z
x,-y,z
1/2+x,1/2+y,z
1/2-x,1/2-y,z
1/2+x,1/2-y,-z
1/2-x,1/2+y,-z
1/2-x,1/2-y,-z
1/2+x,1/2+y,-z
1/2-x,1/2+y,z
1/2+x,1/2-y,z
loop_
_atom_site_type_symbol
_atom_site_label
_atom_site_fract_x
_atom_site_fract_y
_atom_site_fract_z
Si Si1 0.595693 0.172682 0.774673
Si Si2 0.163779 0.820349 0.123823
Si Si3 0.157640 0.179625 0.328142
Si Si4 0.500000 0.319610 0.060342
Si Si5 0.840591 0.822625 0.443602
O O1 0.500000 0.180791 0.795092
O O2 0.653884 0.266411 0.815145
O O3 0.598524 0.246465 0.716200
O O4 0.628287 0.000000 0.772513
O O5 0.250000 0.750000 0.100020
O O6 0.084513 0.759388 0.089361
O O7 0.170155 0.000000 0.121854
O O8 0.250000 0.250000 0.322733
O O9 0.116293 0.221141 0.386774
O O10 0.162377 0.000000 0.319205
O O11 0.500000 0.500000 0.061538
O O12 0.500000 0.257196 0.000000
O O13 0.888704 0.777241 0.500000
O O14 0.750000 0.750000 0.444743
O O15 0.825958 0.000000 0.442972
#
# Coordination Sequence:
#
# PCOD8268180 Si02
#       5
#    16  16  16   8  16
#     4  11  23  38  56  78 109 146 189 241 293 345
#     4  11  22  39  64  92 123 160 201 243 291 346
#     4  10  19  31  50  76 106 138 178 226 280 344
#     4   9  20  40  65  93 127 165 202 241 286 339
#     4   8  14  25  42  66  96 130 169 217 272 331
#
# _framework density 20.576083000000001
#
# number of rings (size 3 to 8) (size 9 to 14) (size 15 to 20)
#    0.000    2.111    1.111    2.667    0.000    2.667 
#    0.000    0.000    0.000    5.333    0.000    4.667 
#    0.000    0.000    0.000    0.000    0.000    0.000 
#
# Total GULP energy -446032.406536 kJ/mol
# GULP energy per Si atom -12389.789070 kJ/mol
# Density = 2.052925 g / cm^3
# Si number density = 20.576083 Si / 1000 Ang^3
#
#
#
# Elastic Constant Matrix: (Units=GPa)
#
#
# Indices 1 2 3 4 5 6 
#
# 1 101.5042 33.3168 51.7159 0.0000 0.0000 0.0000
# 2 33.3168 75.8480 36.9843 0.0000 0.0000 0.0000
# 3 51.7159 36.9843 154.7473 0.0000 0.0000 0.0000
# 4 0.0000 0.0000 0.0000 18.4684 0.0000 0.0000
# 5 0.0000 0.0000 0.0000 0.0000 33.0787 0.0000
# 6 0.0000 0.0000 0.0000 0.0000 0.0000 25.2201
#
#
#
# Elastic Compliance Matrix: (Units=1/GPa)
#
#
# Indices 1 2 3 4 5 6 
#
# 1 0.012876 -0.004027 -0.003341 0.000000 0.000000 0.000000
# 2 -0.004027 0.016183 -0.002522 0.000000 0.000000 0.000000
# 3 -0.003341 -0.002522 0.008181 0.000000 0.000000 0.000000
# 4 0.000000 0.000000 0.000000 0.054147 0.000000 0.000000
# 5 0.000000 0.000000 0.000000 0.000000 0.030231 0.000000
# 6 0.000000 0.000000 0.000000 0.000000 0.000000 0.039651
#
#
# Mechanical properties :
#
#
# Convention : Reuss Voigt Hill
#
# Bulk Modulus (GPa) = 57.27026 64.01484 60.64255
# Shear Modulus (GPa) = 26.75702 29.35893 28.05797
#
# Velocity S-wave (km/s) = 3.61001 3.78146 3.69673
# Velocity P-wave (km/s) = 6.72830 7.08835 6.91067
#
# Compressibility (1/GPa) = 0.01746107
#
# Stress axis : x y z
#
# Youngs Moduli (GPa) = 77.66675 61.79412 122.23021
#
# Poissons Ratio (x) = 0.24883 0.40832
# Poissons Ratio (y) = 0.31275 0.30825
# Poissons Ratio (z) = 0.25945 0.15584
#
# Static dielectric constant tensor:
#      x y z
#    x 4.053480 0.000000 0.000000 
#    y 0.000000 3.579440 0.000000 
#    z 0.000000 0.000000 4.311070 
# 
# 
# High freq. dielectric constant tensor:
#      x y z
#    x 1.775220 0.000000 0.000000 
#    y 0.000000 1.797410 0.000000 
#    z 0.000000 0.000000 1.823200 
# 
# From -- ./inp_files/67116.got.cif
#   From: 2010.03.12/outbox.cif.g09.slc.cpg/sg65_34_cif.got.tgz:67116.got - 2010.04.10 20:52:16.
