data_PCOD8268200
_publ_section_title
;
Structure prediction by ZEFSAII (Michael W. Deem and Ramdas Pophale) SiO2 
 PCOD8268200
Probable space group: C M M M
;
_chemical_formula_sum "Si O2"
_cell_formula_units_Z 104
_cell_length_a 23.601816
_cell_length_b 9.361449
_cell_length_c 25.216106
_cell_angle_alpha 90.000000
_cell_angle_beta 90.000000
_cell_angle_gamma 90.000000
_cell_volume 5571.427935
_symmetry_space_group_name_H-M "C M M M"
_symmetry_group_IT_number 65
_symmetry_cell_setting 'orthorhombic'
loop_
_space_group_symop_operation_xyz
x,y,z
-x,-y,z
x,-y,-z
-x,y,-z
-x,-y,-z
x,y,-z
-x,y,z
x,-y,z
1/2+x,1/2+y,z
1/2-x,1/2-y,z
1/2+x,1/2-y,-z
1/2-x,1/2+y,-z
1/2-x,1/2-y,-z
1/2+x,1/2+y,-z
1/2-x,1/2+y,z
1/2+x,1/2-y,z
loop_
_atom_site_type_symbol
_atom_site_label
_atom_site_fract_x
_atom_site_fract_y
_atom_site_fract_z
Si Si1 0.393536 0.661764 0.441629
Si Si2 0.119999 0.336171 0.861261
Si Si3 0.000000 0.335237 0.182349
Si Si4 0.192301 0.666774 0.756838
Si Si5 0.000000 0.653281 0.561256
Si Si6 0.000000 0.836521 0.709987
Si Si7 0.305975 0.334789 0.061915
Si Si8 0.375877 0.662569 0.327987
O O1 0.366854 0.704063 0.500000
O O2 0.415930 0.500000 0.445395
O O3 0.444863 0.759762 0.424324
O O4 0.353631 0.676830 0.389623
O O5 0.128254 0.500000 0.879447
O O6 0.152594 0.306149 0.806911
O O7 0.141198 0.231315 0.907153
O O8 0.054454 0.297736 0.852976
O O9 0.000000 0.500000 0.199071
O O10 0.000000 0.250636 0.236341
O O11 0.204860 0.500000 0.747621
O O12 0.250000 0.750000 0.767320
O O13 0.161152 0.727645 0.705283
O O14 0.000000 0.500000 0.591591
O O15 0.000000 0.621683 0.500000
O O16 0.943172 0.800113 0.676517
O O17 0.000000 0.000000 0.727166
O O18 0.297758 0.500000 0.077420
O O19 0.250000 0.250000 0.079534
O O20 0.318225 0.315730 0.000000
O O21 0.365311 0.500000 0.308177
#
# Coordination Sequence:
#
# PCOD8268200 Si02
#       8
#    16  16   8  16   8   8  16  16
#     4   9  17  30  48  69  98 137 176 217 267 325
#     4  10  21  37  59  85 114 149 187 226 272 327
#     4  10  20  37  56  80 114 148 186 226 267 324
#     4  11  23  38  57  81 109 141 179 226 279 328
#     4   9  16  25  39  64  97 130 167 210 254 305
#     4  10  19  31  50  78 110 145 180 218 267 322
#     4  10  21  37  59  87 118 152 192 237 281 323
#     4  10  20  34  53  79 109 140 180 223 269 329
#
# _framework density 18.666668999999999
#
# number of rings (size 3 to 8) (size 9 to 14) (size 15 to 20)
#    0.000    2.077    1.538    2.077    0.000    6.769 
#    0.000    1.154    0.000    2.769    0.000    0.000 
#    0.000    0.000    0.000    0.000    0.000    0.000 
#
# Total GULP energy -644475.772074 kJ/mol
# GULP energy per Si atom -12393.764848 kJ/mol
# Density = 1.862418 g / cm^3
# Si number density = 18.666669 Si / 1000 Ang^3
#
#
#
# Elastic Constant Matrix: (Units=GPa)
#
#
# Indices 1 2 3 4 5 6 
#
# 1 104.7746 51.9507 46.3320 0.0000 0.0000 0.0000
# 2 51.9507 104.8947 59.6301 0.0000 0.0000 0.0000
# 3 46.3320 59.6301 98.5036 0.0000 0.0000 0.0000
# 4 0.0000 0.0000 0.0000 27.5706 0.0000 0.0000
# 5 0.0000 0.0000 0.0000 0.0000 18.6335 0.0000
# 6 0.0000 0.0000 0.0000 0.0000 0.0000 31.8546
#
#
#
# Elastic Compliance Matrix: (Units=1/GPa)
#
#
# Indices 1 2 3 4 5 6 
#
# 1 0.013391 -0.004653 -0.003482 0.000000 0.000000 0.000000
# 2 -0.004653 0.016152 -0.007589 0.000000 0.000000 0.000000
# 3 -0.003482 -0.007589 0.016384 0.000000 0.000000 0.000000
# 4 0.000000 0.000000 0.000000 0.036271 0.000000 0.000000
# 5 0.000000 0.000000 0.000000 0.000000 0.053667 0.000000
# 6 0.000000 0.000000 0.000000 0.000000 0.000000 0.031393
#
#
# Mechanical properties :
#
#
# Convention : Reuss Voigt Hill
#
# Bulk Modulus (GPa) = 69.06587 69.33316 69.19952
# Shear Modulus (GPa) = 24.56622 25.62908 25.09765
#
# Velocity S-wave (km/s) = 3.63167 3.70940 3.67074
# Velocity P-wave (km/s) = 7.39360 7.45450 7.42411
#
# Compressibility (1/GPa) = 0.01447893
#
# Stress axis : x y z
#
# Youngs Moduli (GPa) = 74.67696 61.91167 61.03508
#
# Poissons Ratio (x) = 0.28805 0.21253
# Poissons Ratio (y) = 0.34745 0.46322
# Poissons Ratio (z) = 0.26003 0.46987
#
# Static dielectric constant tensor:
#      x y z
#    x 3.285550 0.000000 0.000000 
#    y 0.000000 3.676120 0.000000 
#    z 0.000000 0.000000 3.477260 
# 
# 
# High freq. dielectric constant tensor:
#      x y z
#    x 1.695350 0.000000 0.000000 
#    y 0.000000 1.733040 0.000000 
#    z 0.000000 0.000000 1.730680 
# 
# From -- ./inp_files/71909.got.cif
#   From: 2010.03.12/outbox.cif.g09.slc.cpg/sg65_36_cif.got.tgz:71909.got - 2010.04.10 20:52:16.
