data_PCOD8268020
_publ_section_title
;
Structure prediction by ZEFSAII (Michael W. Deem and Ramdas Pophale) SiO2 
 PCOD8268020
Probable space group: C M M M
;
_chemical_formula_sum "Si O2"
_cell_formula_units_Z 80
_cell_length_a 21.273371
_cell_length_b 18.115860
_cell_length_c 12.266230
_cell_angle_alpha 90.000000
_cell_angle_beta 90.000000
_cell_angle_gamma 90.000000
_cell_volume 4727.226087
_symmetry_space_group_name_H-M "C M M M"
_symmetry_group_IT_number 65
_symmetry_cell_setting 'orthorhombic'
loop_
_space_group_symop_operation_xyz
x,y,z
-x,-y,z
x,-y,-z
-x,y,-z
-x,-y,-z
x,y,-z
-x,y,z
x,-y,z
1/2+x,1/2+y,z
1/2-x,1/2-y,z
1/2+x,1/2-y,-z
1/2-x,1/2+y,-z
1/2-x,1/2-y,-z
1/2+x,1/2+y,-z
1/2-x,1/2+y,z
1/2+x,1/2-y,z
loop_
_atom_site_type_symbol
_atom_site_label
_atom_site_fract_x
_atom_site_fract_y
_atom_site_fract_z
Si Si1 0.896039 0.500000 0.122863
Si Si2 0.769631 0.870784 0.290539
Si Si3 0.651466 0.773870 0.294930
Si Si4 0.747691 0.500000 0.874297
Si Si5 0.340811 0.581652 0.500000
Si Si6 0.076150 0.223299 0.500000
Si Si7 0.429046 0.844500 0.122905
O O1 0.821869 0.500000 0.127772
O O2 0.922809 0.425762 0.178826
O O3 0.922296 0.500000 0.000000
O O4 0.698707 0.842595 0.314308
O O5 0.812084 0.800324 0.266901
O O6 0.775022 0.926117 0.187877
O O7 0.795123 0.911005 0.397123
O O8 0.604103 0.766148 0.396283
O O9 0.611032 0.785594 0.187497
O O10 0.722727 0.500000 0.000000
O O11 0.371104 0.500000 0.500000
O O12 0.398545 0.639183 0.500000
O O13 0.000000 0.224235 0.500000
O O14 0.500000 0.816885 0.124931
O O15 0.402061 0.847537 0.000000
#
# Coordination Sequence:
#
# PCOD8268020 Si02
#       7
#     8  16  16   8   8   8  16
#     4   9  17  30  46  69  99 131 171 209 241 286
#     4  10  20  34  53  78 102 133 168 209 253 306
#     4  10  20  34  53  75 103 133 170 207 254 304
#     4  11  20  32  51  78 107 135 167 208 256 301
#     4  10  19  34  57  77  99 128 172 207 252 305
#     4  10  21  36  53  76 105 132 164 212 258 296
#     4  10  19  31  49  72  99 135 175 211 249 296
#
# _framework density 16.923242999999999
#
# number of rings (size 3 to 8) (size 9 to 14) (size 15 to 20)
#    0.000    2.000    3.000    1.500    0.000    4.600 
#    0.000    2.000    0.000    0.000    0.000    2.800 
#    0.000    6.400    0.000    0.000    0.000    0.000 
#
# Total GULP energy -495836.341260 kJ/mol
# GULP energy per Si atom -12395.908532 kJ/mol
# Density = 1.688473 g / cm^3
# Si number density = 16.923243 Si / 1000 Ang^3
#
#
#
# Elastic Constant Matrix: (Units=GPa)
#
#
# Indices 1 2 3 4 5 6 
#
# 1 95.2857 35.3602 54.3100 0.0000 0.0000 0.0000
# 2 35.3602 88.7263 54.6683 0.0000 0.0000 0.0000
# 3 54.3100 54.6683 111.1350 0.0000 0.0000 0.0000
# 4 0.0000 0.0000 0.0000 24.5306 0.0000 0.0000
# 5 0.0000 0.0000 0.0000 0.0000 26.5259 0.0000
# 6 0.0000 0.0000 0.0000 0.0000 0.0000 15.8358
#
#
#
# Elastic Compliance Matrix: (Units=1/GPa)
#
#
# Indices 1 2 3 4 5 6 
#
# 1 0.014807 -0.002070 -0.006218 0.000000 0.000000 0.000000
# 2 -0.002070 0.016462 -0.007086 0.000000 0.000000 0.000000
# 3 -0.006218 -0.007086 0.015522 0.000000 0.000000 0.000000
# 4 0.000000 0.000000 0.000000 0.040765 0.000000 0.000000
# 5 0.000000 0.000000 0.000000 0.000000 0.037699 0.000000
# 6 0.000000 0.000000 0.000000 0.000000 0.000000 0.063148
#
#
# Mechanical properties :
#
#
# Convention : Reuss Voigt Hill
#
# Bulk Modulus (GPa) = 62.33131 64.86933 63.60032
# Shear Modulus (GPa) = 22.27192 23.43237 22.85215
#
# Velocity S-wave (km/s) = 3.63168 3.72509 3.67868
# Velocity P-wave (km/s) = 7.38222 7.54430 7.46370
#
# Compressibility (1/GPa) = 0.01604330
#
# Stress axis : x y z
#
# Youngs Moduli (GPa) = 67.53674 60.74739 64.42401
#
# Poissons Ratio (x) = 0.12575 0.40056
# Poissons Ratio (y) = 0.13980 0.45651
# Poissons Ratio (z) = 0.41991 0.43046
#
# Static dielectric constant tensor:
#      x y z
#    x 3.080560 0.000000 0.000000 
#    y 0.000000 3.264400 0.000000 
#    z 0.000000 0.000000 3.175190 
# 
# 
# High freq. dielectric constant tensor:
#      x y z
#    x 1.646030 0.000000 0.000000 
#    y 0.000000 1.657320 0.000000 
#    z 0.000000 0.000000 1.645000 
# 
# From -- ./inp_files/28626.got.cif
#   From: 2010.03.12/outbox.cif.g09.slc.cpg/sg65_15_cif.got.tgz:28626.got - 2010.04.10 20:52:16.
