data_PCOD8268686
_publ_section_title
;
Structure prediction by ZEFSAII (Michael W. Deem and Ramdas Pophale) SiO2 
 PCOD8268686
Probable space group: C M M M
;
_chemical_formula_sum "Si O2"
_cell_formula_units_Z 96
_cell_length_a 8.763982
_cell_length_b 31.512555
_cell_length_c 19.009136
_cell_angle_alpha 90.000000
_cell_angle_beta 90.000000
_cell_angle_gamma 90.000000
_cell_volume 5249.856970
_symmetry_space_group_name_H-M "C M M M"
_symmetry_group_IT_number 65
_symmetry_cell_setting 'orthorhombic'
loop_
_space_group_symop_operation_xyz
x,y,z
-x,-y,z
x,-y,-z
-x,y,-z
-x,-y,-z
x,y,-z
-x,y,z
x,-y,z
1/2+x,1/2+y,z
1/2-x,1/2-y,z
1/2+x,1/2-y,-z
1/2-x,1/2+y,-z
1/2-x,1/2-y,-z
1/2+x,1/2+y,-z
1/2-x,1/2+y,z
1/2+x,1/2-y,z
loop_
_atom_site_type_symbol
_atom_site_label
_atom_site_fract_x
_atom_site_fract_y
_atom_site_fract_z
Si Si1 0.670581 0.455462 0.669805
Si Si2 0.182255 0.865054 0.678075
Si Si3 0.825032 0.793687 0.083266
Si Si4 0.329170 0.453568 0.836755
Si Si5 0.679319 0.132371 0.830091
Si Si6 0.176612 0.705624 0.418053
O O1 0.500000 0.457365 0.639142
O O2 0.754523 0.500000 0.645857
O O3 0.746187 0.410604 0.647256
O O4 0.664910 0.454181 0.753338
O O5 0.244940 0.856379 0.755590
O O6 0.235996 0.829981 0.624410
O O7 0.000000 0.866170 0.682626
O O8 0.750000 0.750000 0.110514
O O9 0.733131 0.833014 0.114322
O O10 0.000000 0.794990 0.108653
O O11 0.812098 0.796946 0.000000
O O12 0.500000 0.446117 0.866402
O O13 0.268071 0.500000 0.863414
O O14 0.223641 0.414274 0.860441
O O15 0.500000 0.134451 0.820559
O O16 0.201153 0.696357 0.500000
O O17 0.250000 0.750000 0.396115
O O18 0.000000 0.706136 0.397200
#
# Coordination Sequence:
#
# PCOD8268686 Si02
#       6
#    16  16  16  16  16  16
#     4   7  11  22  42  68  96 126 160 198 238 281
#     4  10  19  32  52  77 104 133 169 210 251 295
#     4  10  21  38  58  77  99 130 169 210 254 306
#     4   8  14  27  47  70  99 135 172 208 248 296
#     4  11  21  32  50  78 110 138 168 208 254 301
#     4  10  21  37  55  74  98 129 166 207 254 309
#
# _framework density 18.286211000000002
#
# number of rings (size 3 to 8) (size 9 to 14) (size 15 to 20)
#    0.000    2.667    0.000    5.000    0.000    3.000 
#    0.000    3.333    0.000    2.500    0.000    7.000 
#    0.000    0.000    0.000    0.000    0.000    0.000 
#
# Total GULP energy -594670.810450 kJ/mol
# GULP energy per Si atom -12388.975218 kJ/mol
# Density = 1.824459 g / cm^3
# Si number density = 18.286211 Si / 1000 Ang^3
#
#
#
# Elastic Constant Matrix: (Units=GPa)
#
#
# Indices 1 2 3 4 5 6 
#
# 1 103.5444 60.1899 23.9375 0.0000 0.0000 0.0000
# 2 60.1899 176.3239 39.9298 0.0000 0.0000 0.0000
# 3 23.9375 39.9298 24.0256 0.0000 0.0000 0.0000
# 4 0.0000 0.0000 0.0000 -20.6414 0.0000 0.0000
# 5 0.0000 0.0000 0.0000 0.0000 22.1016 0.0000
# 6 0.0000 0.0000 0.0000 0.0000 0.0000 31.5203
#
#
#
# Elastic Compliance Matrix: (Units=1/GPa)
#
#
# Indices 1 2 3 4 5 6 
#
# 1 0.013174 -0.002445 -0.009062 0.000000 0.000000 0.000000
# 2 -0.002445 0.009548 -0.013432 0.000000 0.000000 0.000000
# 3 -0.009062 -0.013432 0.072976 0.000000 0.000000 0.000000
# 4 0.000000 0.000000 0.000000 -0.048446 0.000000 0.000000
# 5 0.000000 0.000000 0.000000 0.000000 0.045246 0.000000
# 6 0.000000 0.000000 0.000000 0.000000 0.000000 0.031726
#
#
# Mechanical properties :
#
#
# Convention : Reuss Voigt Hill
#
# Bulk Modulus (GPa) = 21.82538 61.33426 41.57982
# Shear Modulus (GPa) = 26.40277 18.58520 22.49399
#
# Velocity S-wave (km/s) = 3.80394 3.19148 3.51109
# Velocity P-wave (km/s) = 5.59058 6.86985 6.26297
#
# Compressibility (1/GPa) = 0.04581822
#
# Stress axis : x y z
#
# Youngs Moduli (GPa) = 75.90757 104.73646 13.70320
#
# Poissons Ratio (x) = 0.25606 0.12418
# Poissons Ratio (y) = 0.18558 0.18407
# Poissons Ratio (z) = 0.68791 1.40685
#
# Static dielectric constant tensor:
#      x y z
#    x 3.336980 0.000000 0.000000 
#    y 0.000000 4.214040 0.000000 
#    z 0.000000 0.000000 2.911040 
# 
# 
# High freq. dielectric constant tensor:
#      x y z
#    x 1.697390 0.000000 0.000000 
#    y 0.000000 1.740030 0.000000 
#    z 0.000000 0.000000 1.659060 
# 
# From -- ./inp_files/60310.got.cif
#   From: 2010.03.12/outbox.cif.g09.slc.cpg/sg65_31_cif.got.tgz:60310.got - 2010.04.10 20:52:16.
