data_PCOD8268494
_publ_section_title
;
Structure prediction by ZEFSAII (Michael W. Deem and Ramdas Pophale) SiO2 
 PCOD8268494
Probable space group: C M M M
;
_chemical_formula_sum "Si O2"
_cell_formula_units_Z 80
_cell_length_a 9.284559
_cell_length_b 19.142645
_cell_length_c 25.941592
_cell_angle_alpha 90.000000
_cell_angle_beta 90.000000
_cell_angle_gamma 90.000000
_cell_volume 4610.625527
_symmetry_space_group_name_H-M "C M M M"
_symmetry_group_IT_number 65
_symmetry_cell_setting 'orthorhombic'
loop_
_space_group_symop_operation_xyz
x,y,z
-x,-y,z
x,-y,-z
-x,y,-z
-x,-y,-z
x,y,-z
-x,y,z
x,-y,z
1/2+x,1/2+y,z
1/2-x,1/2-y,z
1/2+x,1/2-y,-z
1/2-x,1/2+y,-z
1/2-x,1/2-y,-z
1/2+x,1/2+y,-z
1/2-x,1/2+y,z
1/2+x,1/2-y,z
loop_
_atom_site_type_symbol
_atom_site_label
_atom_site_fract_x
_atom_site_fract_y
_atom_site_fract_z
Si Si1 0.159718 0.416960 0.305977
Si Si2 0.161968 0.083369 0.401678
Si Si3 0.837150 0.416738 0.500000
Si Si4 0.336924 0.680610 0.000000
Si Si5 0.166822 0.418493 0.809421
Si Si6 0.831057 0.176415 0.888182
O O1 0.155774 0.500000 0.308000
O O2 0.270177 0.387380 0.348493
O O3 0.206085 0.393593 0.248610
O O4 0.000000 0.388304 0.318771
O O5 0.255035 0.111744 0.449573
O O6 0.000000 0.112318 0.406505
O O7 0.161988 0.000000 0.401676
O O8 0.838035 0.500000 0.500000
O O9 0.000000 0.387753 0.500000
O O10 0.250000 0.750000 0.000000
O O11 0.304894 0.641642 0.054455
O O12 0.500000 0.705602 0.000000
O O13 0.198920 0.500000 0.816232
O O14 0.269933 0.377752 0.847593
O O15 0.000000 0.402226 0.821418
O O16 0.750000 0.250000 0.882798
O O17 0.000000 0.188367 0.877514
#
# Coordination Sequence:
#
# PCOD8268494 Si02
#       6
#    16  16   8   8  16  16
#     4   8  14  25  39  53  73 105 141 174 212 261
#     4   9  15  21  30  46  68  94 129 174 217 256
#     4   9  15  21  29  41  61  93 132 171 212 259
#     4   8  16  30  47  68  91 117 149 185 225 270
#     4   9  18  32  48  67  93 123 155 191 229 271
#     4  10  19  32  51  72  94 120 152 189 229 274
#
# _framework density 17.351223999999998
#
# number of rings (size 3 to 8) (size 9 to 14) (size 15 to 20)
#    0.000    3.100    0.000    2.700    0.000    5.600 
#    0.000    2.500    0.000    3.000    0.000    0.000 
#    0.000    0.000    0.000    0.900    0.000   13.000 
#
# Total GULP energy -495616.068619 kJ/mol
# GULP energy per Si atom -12390.401715 kJ/mol
# Density = 1.731173 g / cm^3
# Si number density = 17.351224 Si / 1000 Ang^3
#
#
#
# Elastic Constant Matrix: (Units=GPa)
#
#
# Indices 1 2 3 4 5 6 
#
# 1 138.7591 27.8436 99.4247 0.0000 0.0000 0.0000
# 2 27.8436 23.3390 31.4843 0.0000 0.0000 0.0000
# 3 99.4247 31.4843 171.9736 0.0000 0.0000 0.0000
# 4 0.0000 0.0000 0.0000 -7.8187 0.0000 0.0000
# 5 0.0000 0.0000 0.0000 0.0000 35.0658 0.0000
# 6 0.0000 0.0000 0.0000 0.0000 0.0000 18.6399
#
#
#
# Elastic Compliance Matrix: (Units=1/GPa)
#
#
# Indices 1 2 3 4 5 6 
#
# 1 0.013160 -0.007219 -0.006287 0.000000 0.000000 0.000000
# 2 -0.007219 0.060860 -0.006968 0.000000 0.000000 0.000000
# 3 -0.006287 -0.006968 0.010725 0.000000 0.000000 0.000000
# 4 0.000000 0.000000 0.000000 -0.127898 0.000000 0.000000
# 5 0.000000 0.000000 0.000000 0.000000 0.028518 0.000000
# 6 0.000000 0.000000 0.000000 0.000000 0.000000 0.053648
#
#
# Mechanical properties :
#
#
# Convention : Reuss Voigt Hill
#
# Bulk Modulus (GPa) = 22.83291 72.39743 47.61517
# Shear Modulus (GPa) = 52.87677 20.86534 36.87106
#
# Velocity S-wave (km/s) = 5.52635 3.47151 4.61475
# Velocity P-wave (km/s) = 7.34224 7.60814 7.47637
#
# Compressibility (1/GPa) = 0.04379643
#
# Stress axis : x y z
#
# Youngs Moduli (GPa) = 75.98861 16.43127 93.23949
#
# Poissons Ratio (x) = 0.11862 0.58616
# Poissons Ratio (y) = 0.54858 0.64971
# Poissons Ratio (z) = 0.47771 0.11450
#
# Static dielectric constant tensor:
#      x y z
#    x 3.414160 0.000000 0.000000 
#    y 0.000000 2.460920 0.000000 
#    z 0.000000 0.000000 3.772700 
# 
# 
# High freq. dielectric constant tensor:
#      x y z
#    x 1.682210 0.000000 0.000000 
#    y 0.000000 1.586320 0.000000 
#    z 0.000000 0.000000 1.693400 
# 
# From -- ./inp_files/70812.got.cif
#   From: 2010.03.12/outbox.cif.g09.slc.cpg/sg65_36_cif.got.tgz:70812.got - 2010.04.10 20:52:16.
