data_PCOD8268689
_publ_section_title
;
Structure prediction by ZEFSAII (Michael W. Deem and Ramdas Pophale) SiO2 
 PCOD8268689
Probable space group: C M M M
;
_chemical_formula_sum "Si O2"
_cell_formula_units_Z 96
_cell_length_a 18.807258
_cell_length_b 8.623966
_cell_length_c 30.976513
_cell_angle_alpha 90.000000
_cell_angle_beta 90.000000
_cell_angle_gamma 90.000000
_cell_volume 5024.178329
_symmetry_space_group_name_H-M "C M M M"
_symmetry_group_IT_number 65
_symmetry_cell_setting 'orthorhombic'
loop_
_space_group_symop_operation_xyz
x,y,z
-x,-y,z
x,-y,-z
-x,y,-z
-x,-y,-z
x,y,-z
-x,y,z
x,-y,z
1/2+x,1/2+y,z
1/2-x,1/2-y,z
1/2+x,1/2-y,-z
1/2-x,1/2+y,-z
1/2-x,1/2-y,-z
1/2+x,1/2+y,-z
1/2-x,1/2+y,z
1/2+x,1/2-y,z
loop_
_atom_site_type_symbol
_atom_site_label
_atom_site_fract_x
_atom_site_fract_y
_atom_site_fract_z
Si Si1 0.827925 0.317037 0.126235
Si Si2 0.579504 0.184171 0.547287
Si Si3 0.327111 0.815549 0.374657
Si Si4 0.917185 0.681039 0.209470
Si Si5 0.172945 0.182276 0.715640
Si Si6 0.420318 0.184401 0.048016
O O1 0.821449 0.500000 0.123166
O O2 0.750000 0.250000 0.132463
O O3 0.877223 0.267230 0.166075
O O4 0.864620 0.248403 0.082868
O O5 0.609274 0.235548 0.500000
O O6 0.500000 0.248873 0.552937
O O7 0.625921 0.252499 0.586237
O O8 0.579004 0.000000 0.550064
O O9 0.250000 0.750000 0.383278
O O10 0.356276 0.753815 0.329019
O O11 0.326318 0.000000 0.373556
O O12 0.905579 0.500000 0.219018
O O13 0.884942 0.779309 0.248385
O O14 0.000000 0.721504 0.204267
O O15 0.250000 0.250000 0.728408
O O16 0.181644 0.000000 0.710301
O O17 0.500000 0.246008 0.058091
O O18 0.421421 0.000000 0.050766
O O19 0.396757 0.238362 0.000000
#
# Coordination Sequence:
#
# PCOD8268689 Si02
#       6
#    16  16  16  16  16  16
#     4  10  20  33  51  76 104 135 170 209 254 303
#     4   8  15  29  49  73 100 131 169 210 249 293
#     4  10  19  32  52  77 104 135 169 207 253 303
#     4  10  21  37  56  77 102 133 171 214 259 309
#     4  11  22  37  56  77 104 136 171 212 258 309
#     4   8  14  27  49  75 101 131 170 213 252 294
#
# _framework density 19.107600999999999
#
# number of rings (size 3 to 8) (size 9 to 14) (size 15 to 20)
#    0.000    2.500    0.000    5.000    0.000    5.667 
#    0.000    1.667    0.000    4.500    0.000    5.833 
#    0.000    0.000    0.000    0.000    0.000    0.000 
#
# Total GULP energy -595078.900834 kJ/mol
# GULP energy per Si atom -12397.477101 kJ/mol
# Density = 1.906411 g / cm^3
# Si number density = 19.107601 Si / 1000 Ang^3
#
#
#
# Elastic Constant Matrix: (Units=GPa)
#
#
# Indices 1 2 3 4 5 6 
#
# 1 119.1462 29.1316 95.4750 0.0000 0.0000 0.0000
# 2 29.1316 53.0615 37.9686 0.0000 0.0000 0.0000
# 3 95.4750 37.9686 177.7153 0.0000 0.0000 0.0000
# 4 0.0000 0.0000 0.0000 7.1427 0.0000 0.0000
# 5 0.0000 0.0000 0.0000 0.0000 46.2156 0.0000
# 6 0.0000 0.0000 0.0000 0.0000 0.0000 23.2794
#
#
#
# Elastic Compliance Matrix: (Units=1/GPa)
#
#
# Indices 1 2 3 4 5 6 
#
# 1 0.015116 -0.002937 -0.007493 0.000000 0.000000 0.000000
# 2 -0.002937 0.022818 -0.003297 0.000000 0.000000 0.000000
# 3 -0.007493 -0.003297 0.010357 0.000000 0.000000 0.000000
# 4 0.000000 0.000000 0.000000 0.140002 0.000000 0.000000
# 5 0.000000 0.000000 0.000000 0.000000 0.021638 0.000000
# 6 0.000000 0.000000 0.000000 0.000000 0.000000 0.042956
#
#
# Mechanical properties :
#
#
# Convention : Reuss Voigt Hill
#
# Bulk Modulus (GPa) = 47.99411 75.00815 61.50113
# Shear Modulus (GPa) = 17.40424 27.81742 22.61083
#
# Velocity S-wave (km/s) = 3.02131 3.81967 3.44371
# Velocity P-wave (km/s) = 6.11093 7.66773 6.93316
#
# Compressibility (1/GPa) = 0.02083589
#
# Stress axis : x y z
#
# Youngs Moduli (GPa) = 66.15674 43.82550 96.55291
#
# Poissons Ratio (x) = 0.12871 0.72349
# Poissons Ratio (y) = 0.19430 0.31835
# Poissons Ratio (z) = 0.49572 0.14450
#
# Static dielectric constant tensor:
#      x y z
#    x 3.651610 0.000000 0.000000 
#    y 0.000000 3.135410 0.000000 
#    z 0.000000 0.000000 3.938570 
# 
# 
# High freq. dielectric constant tensor:
#      x y z
#    x 1.740820 0.000000 0.000000 
#    y 0.000000 1.707950 0.000000 
#    z 0.000000 0.000000 1.762200 
# 
# From -- ./inp_files/75323.got.cif
#   From: 2010.03.12/outbox.cif.g09.slc.cpg/sg65_38_cif.got.tgz:75323.got - 2010.04.10 20:52:16.
