data_PCOD8268751
_publ_section_title
;
Structure prediction by ZEFSAII (Michael W. Deem and Ramdas Pophale) SiO2 
 PCOD8268751
Probable space group: C M M M
;
_chemical_formula_sum "Si O2"
_cell_formula_units_Z 120
_cell_length_a 16.311434
_cell_length_b 17.926235
_cell_length_c 22.708160
_cell_angle_alpha 90.000000
_cell_angle_beta 90.000000
_cell_angle_gamma 90.000000
_cell_volume 6639.925004
_symmetry_space_group_name_H-M "C M M M"
_symmetry_group_IT_number 65
_symmetry_cell_setting 'orthorhombic'
loop_
_space_group_symop_operation_xyz
x,y,z
-x,-y,z
x,-y,-z
-x,y,-z
-x,-y,-z
x,y,-z
-x,y,z
x,-y,z
1/2+x,1/2+y,z
1/2-x,1/2-y,z
1/2+x,1/2-y,-z
1/2-x,1/2+y,-z
1/2-x,1/2-y,-z
1/2+x,1/2+y,-z
1/2-x,1/2+y,z
1/2+x,1/2-y,z
loop_
_atom_site_type_symbol
_atom_site_label
_atom_site_fract_x
_atom_site_fract_y
_atom_site_fract_z
Si Si1 0.670643 0.144370 0.569409
Si Si2 0.907478 0.692823 0.934189
Si Si3 0.403832 0.415665 0.241465
Si Si4 0.766728 0.584077 0.932440
Si Si5 0.670718 0.584174 0.366933
Si Si6 0.000000 0.412819 0.564870
Si Si7 0.590013 0.706731 0.566060
Si Si8 0.175955 0.804585 0.850181
O O1 0.685859 0.123329 0.500000
O O2 0.741191 0.114603 0.611989
O O3 0.585313 0.110982 0.595179
O O4 0.662009 0.233464 0.577240
O O5 0.857124 0.617281 0.924342
O O6 0.888231 0.754859 0.885801
O O7 0.000000 0.667490 0.926651
O O8 0.889799 0.725131 0.000000
O O9 0.500000 0.401392 0.256850
O O10 0.395498 0.500000 0.214264
O O11 0.343211 0.411857 0.297277
O O12 0.371538 0.348385 0.200915
O O13 0.767362 0.500000 0.908215
O O14 0.705047 0.632657 0.894863
O O15 0.737766 0.586759 0.000000
O O16 0.661202 0.500000 0.389898
O O17 0.599594 0.634459 0.394039
O O18 0.000000 0.500000 0.559547
O O19 0.000000 0.374499 0.500000
O O20 0.597174 0.677197 0.500000
O O21 0.500000 0.742599 0.578006
O O22 0.250000 0.750000 0.827437
#
# Coordination Sequence:
#
# PCOD8268751 Si02
#       8
#    16  16  16  16  16   8  16  16
#     4  10  19  34  54  79 109 135 165 202 248 306
#     4   9  17  29  47  74 108 140 168 205 252 300
#     4  10  22  40  57  72  96 132 174 220 263 305
#     4   9  17  29  47  74 107 140 172 206 247 301
#     4  11  23  36  52  76 102 132 171 215 258 302
#     4   9  16  28  50  78 107 135 161 195 239 291
#     4  10  20  35  54  76 105 138 167 200 248 304
#     4  10  19  32  53  78 101 129 170 217 262 306
#
# _framework density 18.072493999999999
#
# number of rings (size 3 to 8) (size 9 to 14) (size 15 to 20)
#    0.000    2.200    0.667    2.800    0.000    6.400 
#    0.000    2.000    0.000    0.000    1.733    5.600 
#    0.000    0.000    0.000    0.000    0.000    0.000 
#
# Total GULP energy -743518.439353 kJ/mol
# GULP energy per Si atom -12391.973989 kJ/mol
# Density = 1.803136 g / cm^3
# Si number density = 18.072494 Si / 1000 Ang^3
#
#
#
# Elastic Constant Matrix: (Units=GPa)
#
#
# Indices 1 2 3 4 5 6 
#
# 1 90.9703 28.7911 29.6456 0.0000 0.0000 0.0000
# 2 28.7911 106.4995 37.1056 0.0000 0.0000 0.0000
# 3 29.6456 37.1056 54.0269 0.0000 0.0000 0.0000
# 4 0.0000 0.0000 0.0000 19.4560 0.0000 0.0000
# 5 0.0000 0.0000 0.0000 0.0000 -6.4386 0.0000
# 6 0.0000 0.0000 0.0000 0.0000 0.0000 25.8883
#
#
#
# Elastic Compliance Matrix: (Units=1/GPa)
#
#
# Indices 1 2 3 4 5 6 
#
# 1 0.013545 -0.001410 -0.006465 0.000000 0.000000 0.000000
# 2 -0.001410 0.012490 -0.007805 0.000000 0.000000 0.000000
# 3 -0.006465 -0.007805 0.027417 0.000000 0.000000 0.000000
# 4 0.000000 0.000000 0.000000 0.051398 0.000000 0.000000
# 5 0.000000 0.000000 0.000000 0.000000 -0.155312 0.000000
# 6 0.000000 0.000000 0.000000 0.000000 0.000000 0.038627
#
#
# Mechanical properties :
#
#
# Convention : Reuss Voigt Hill
#
# Bulk Modulus (GPa) = 45.25986 49.17569 47.21778
# Shear Modulus (GPa) = 185.95965 18.17811 102.06888
#
# Velocity S-wave (km/s) = 10.15480 3.17494 7.52330
# Velocity P-wave (km/s) = 12.75112 6.38041 10.08218
#
# Compressibility (1/GPa) = 0.02209463
#
# Stress axis : x y z
#
# Youngs Moduli (GPa) = 73.82590 80.06406 36.47409
#
# Poissons Ratio (x) = 0.11285 0.23579
# Poissons Ratio (y) = 0.10406 0.28467
# Poissons Ratio (z) = 0.47725 0.62487
#
# Static dielectric constant tensor:
#      x y z
#    x 3.392040 0.000000 0.000000 
#    y 0.000000 3.473320 0.000000 
#    z 0.000000 0.000000 3.160330 
# 
# 
# High freq. dielectric constant tensor:
#      x y z
#    x 1.709320 0.000000 0.000000 
#    y 0.000000 1.712360 0.000000 
#    z 0.000000 0.000000 1.666410 
# 
# From -- ./inp_files/64010.got.cif
#   From: 2010.03.12/outbox.cif.g09.slc.cpg/sg65_33_cif.got.tgz:64010.got - 2010.04.10 20:52:16.
