data_PCOD8268627
_publ_section_title
;
Structure prediction by ZEFSAII (Michael W. Deem and Ramdas Pophale) SiO2 
 PCOD8268627
Probable space group: C M M M
;
_chemical_formula_sum "Si O2"
_cell_formula_units_Z 80
_cell_length_a 27.310122
_cell_length_b 9.028966
_cell_length_c 17.118460
_cell_angle_alpha 90.000000
_cell_angle_beta 90.000000
_cell_angle_gamma 90.000000
_cell_volume 4221.106894
_symmetry_space_group_name_H-M "C M M M"
_symmetry_group_IT_number 65
_symmetry_cell_setting 'orthorhombic'
loop_
_space_group_symop_operation_xyz
x,y,z
-x,-y,z
x,-y,-z
-x,y,-z
-x,-y,-z
x,y,-z
-x,y,z
x,-y,z
1/2+x,1/2+y,z
1/2-x,1/2-y,z
1/2+x,1/2-y,-z
1/2-x,1/2+y,-z
1/2-x,1/2-y,-z
1/2+x,1/2+y,-z
1/2-x,1/2+y,z
1/2+x,1/2-y,z
loop_
_atom_site_type_symbol
_atom_site_label
_atom_site_fract_x
_atom_site_fract_y
_atom_site_fract_z
Si Si1 0.904931 0.823116 0.816747
Si Si2 0.106072 0.324396 0.344894
Si Si3 0.946124 0.675861 0.500000
Si Si4 0.296524 0.338185 0.161508
Si Si5 0.000000 0.824322 0.912348
Si Si6 0.295522 0.664819 0.655078
O O1 0.915277 0.752908 0.732331
O O2 0.851663 0.769084 0.851444
O O3 0.949969 0.769342 0.870848
O O4 0.903044 0.000000 0.806954
O O5 0.103261 0.500000 0.333299
O O6 0.077389 0.265411 0.420275
O O7 0.160507 0.273882 0.362645
O O8 0.944141 0.500000 0.500000
O O9 0.000000 0.740740 0.500000
O O10 0.295248 0.500000 0.121852
O O11 0.250000 0.250000 0.124512
O O12 0.287636 0.353097 0.253049
O O13 0.000000 0.000000 0.913167
O O14 0.000000 0.759937 0.000000
O O15 0.302384 0.500000 0.618617
O O16 0.250000 0.750000 0.616283
#
# Coordination Sequence:
#
# PCOD8268627 Si02
#       6
#    16  16   8  16   8  16
#     4   9  18  32  51  77 105 131 168 217 261 310
#     4  10  19  32  52  74  99 134 175 213 258 308
#     4   9  20  36  50  67  96 133 174 221 262 309
#     4   8  14  24  41  67  98 128 158 198 242 288
#     4   9  18  34  57  80 103 134 170 211 263 317
#     4   9  16  28  47  72 103 133 168 211 257 305
#
# _framework density 18.952376000000001
#
# number of rings (size 3 to 8) (size 9 to 14) (size 15 to 20)
#    0.000    3.000    0.000    2.400    1.400    4.800 
#    0.000    2.500    0.000    4.200    0.000    0.000 
#    0.000    0.000    0.000    0.000    0.000    2.200 
#
# Total GULP energy -495554.841517 kJ/mol
# GULP energy per Si atom -12388.871038 kJ/mol
# Density = 1.890924 g / cm^3
# Si number density = 18.952376 Si / 1000 Ang^3
#
#
#
# Elastic Constant Matrix: (Units=GPa)
#
#
# Indices 1 2 3 4 5 6 
#
# 1 167.1562 30.5185 74.6542 0.0000 0.0000 0.0000
# 2 30.5185 46.6334 24.9598 0.0000 0.0000 0.0000
# 3 74.6542 24.9598 92.3442 0.0000 0.0000 0.0000
# 4 0.0000 0.0000 0.0000 26.6857 0.0000 0.0000
# 5 0.0000 0.0000 0.0000 0.0000 6.4653 0.0000
# 6 0.0000 0.0000 0.0000 0.0000 0.0000 22.5151
#
#
#
# Elastic Compliance Matrix: (Units=1/GPa)
#
#
# Indices 1 2 3 4 5 6 
#
# 1 0.009604 -0.002490 -0.007091 0.000000 0.000000 0.000000
# 2 -0.002490 0.025716 -0.004938 0.000000 0.000000 0.000000
# 3 -0.007091 -0.004938 0.017897 0.000000 0.000000 0.000000
# 4 0.000000 0.000000 0.000000 0.037473 0.000000 0.000000
# 5 0.000000 0.000000 0.000000 0.000000 0.154671 0.000000
# 6 0.000000 0.000000 0.000000 0.000000 0.000000 0.044415
#
#
# Mechanical properties :
#
#
# Convention : Reuss Voigt Hill
#
# Bulk Modulus (GPa) = 41.35869 62.93317 52.14593
# Shear Modulus (GPa) = 15.29642 22.86664 19.08153
#
# Velocity S-wave (km/s) = 2.84403 3.47728 3.17648
# Velocity P-wave (km/s) = 5.71441 7.02852 6.40525
#
# Compressibility (1/GPa) = 0.02417872
#
# Stress axis : x y z
#
# Youngs Moduli (GPa) = 104.12270 38.88590 55.87649
#
# Poissons Ratio (x) = 0.09681 0.39624
# Poissons Ratio (y) = 0.25924 0.27592
# Poissons Ratio (z) = 0.73836 0.19202
#
# Static dielectric constant tensor:
#      x y z
#    x 3.875670 0.000000 0.000000 
#    y 0.000000 3.435010 0.000000 
#    z 0.000000 0.000000 3.196630 
# 
# 
# High freq. dielectric constant tensor:
#      x y z
#    x 1.753780 0.000000 0.000000 
#    y 0.000000 1.716670 0.000000 
#    z 0.000000 0.000000 1.694260 
# 
# From -- ./inp_files/57325.got.cif
#   From: 2010.03.12/outbox.cif.g09.slc.cpg/sg65_29_cif.got.tgz:57325.got - 2010.04.10 20:52:16.
