data_PCOD8268106
_publ_section_title
;
Structure prediction by ZEFSAII (Michael W. Deem and Ramdas Pophale) SiO2 
 PCOD8268106
Probable space group: C M M M
;
_chemical_formula_sum "Si O2"
_cell_formula_units_Z 96
_cell_length_a 23.387042
_cell_length_b 25.735351
_cell_length_c 9.310055
_cell_angle_alpha 90.000000
_cell_angle_beta 90.000000
_cell_angle_gamma 90.000000
_cell_volume 5603.477573
_symmetry_space_group_name_H-M "C M M M"
_symmetry_group_IT_number 65
_symmetry_cell_setting 'orthorhombic'
loop_
_space_group_symop_operation_xyz
x,y,z
-x,-y,z
x,-y,-z
-x,y,-z
-x,-y,-z
x,y,-z
-x,y,z
x,-y,z
1/2+x,1/2+y,z
1/2-x,1/2-y,z
1/2+x,1/2-y,-z
1/2-x,1/2+y,-z
1/2-x,1/2-y,-z
1/2+x,1/2+y,-z
1/2-x,1/2+y,z
1/2+x,1/2-y,z
loop_
_atom_site_type_symbol
_atom_site_label
_atom_site_fract_x
_atom_site_fract_y
_atom_site_fract_z
Si Si1 0.247808 0.190313 0.331572
Si Si2 0.626473 0.157583 0.669069
Si Si3 0.139822 0.847621 0.169473
Si Si4 0.566131 0.751863 0.165486
Si Si5 0.935996 0.942015 0.829493
Si Si6 0.564088 0.056963 0.329384
O O1 0.234379 0.187238 0.500000
O O2 0.250000 0.250000 0.279862
O O3 0.307613 0.164126 0.289652
O O4 0.200184 0.158073 0.247694
O O5 0.617165 0.163219 0.500000
O O6 0.587070 0.200550 0.740433
O O7 0.606890 0.101214 0.727867
O O8 0.099956 0.799466 0.211520
O O9 0.109052 0.899730 0.229143
O O10 0.150710 0.850657 0.000000
O O11 0.500000 0.741023 0.196450
O O12 0.577279 0.765579 0.000000
O O13 0.000000 0.930265 0.770479
O O14 0.916737 0.000000 0.781240
O O15 0.937889 0.938216 0.000000
O O16 0.563971 0.056944 0.500000
O O17 0.500000 0.068749 0.273238
O O18 0.584141 0.000000 0.273514
#
# Coordination Sequence:
#
# PCOD8268106 Si02
#       6
#    16  16  16  16  16  16
#     4  10  20  34  48  66  97 132 163 197 236 277
#     4  10  19  32  50  69  91 124 162 194 229 280
#     4  10  19  31  50  73  96 125 163 199 236 286
#     4  10  20  31  45  70 101 124 147 191 244 286
#     4   8  14  27  49  75 100 126 159 201 246 290
#     4   8  14  26  46  71  93 112 144 193 237 270
#
# _framework density 17.132218000000002
#
# number of rings (size 3 to 8) (size 9 to 14) (size 15 to 20)
#    0.000    2.667    1.667    2.000    0.000    4.000 
#    0.000    0.833    0.000    3.500    0.000    3.500 
#    0.000    0.000    0.000    0.000    0.000    0.000 
#
# Total GULP energy -595086.540465 kJ/mol
# GULP energy per Si atom -12397.636260 kJ/mol
# Density = 1.709322 g / cm^3
# Si number density = 17.132218 Si / 1000 Ang^3
#
#
#
# Elastic Constant Matrix: (Units=GPa)
#
#
# Indices 1 2 3 4 5 6 
#
# 1 105.6011 72.1854 18.5473 0.0000 0.0000 0.0000
# 2 72.1854 148.1903 18.3444 0.0000 0.0000 0.0000
# 3 18.5473 18.3444 13.8045 0.0000 0.0000 0.0000
# 4 0.0000 0.0000 0.0000 15.1288 0.0000 0.0000
# 5 0.0000 0.0000 0.0000 0.0000 12.4808 0.0000
# 6 0.0000 0.0000 0.0000 0.0000 0.0000 26.9599
#
#
#
# Elastic Compliance Matrix: (Units=1/GPa)
#
#
# Indices 1 2 3 4 5 6 
#
# 1 0.016018 -0.006150 -0.013349 0.000000 0.000000 0.000000
# 2 -0.006150 0.010438 -0.005608 0.000000 0.000000 0.000000
# 3 -0.013349 -0.005608 0.097826 0.000000 0.000000 0.000000
# 4 0.000000 0.000000 0.000000 0.066099 0.000000 0.000000
# 5 0.000000 0.000000 0.000000 0.000000 0.080123 0.000000
# 6 0.000000 0.000000 0.000000 0.000000 0.000000 0.037092
#
#
# Mechanical properties :
#
#
# Convention : Reuss Voigt Hill
#
# Bulk Modulus (GPa) = 13.50078 53.97222 33.73650
# Shear Modulus (GPa) = 13.07190 21.48183 17.27687
#
# Velocity S-wave (km/s) = 2.76524 3.54487 3.17904
# Velocity P-wave (km/s) = 4.25357 6.95173 5.76279
#
# Compressibility (1/GPa) = 0.07406982
#
# Stress axis : x y z
#
# Youngs Moduli (GPa) = 62.42906 95.80283 10.22219
#
# Poissons Ratio (x) = 0.58921 0.13645
# Poissons Ratio (y) = 0.38395 0.05732
# Poissons Ratio (z) = 0.83334 0.53723
#
# Static dielectric constant tensor:
#      x y z
#    x 3.283480 0.000000 0.000000 
#    y 0.000000 3.568440 0.000000 
#    z 0.000000 0.000000 2.827510 
# 
# 
# High freq. dielectric constant tensor:
#      x y z
#    x 1.663700 0.000000 0.000000 
#    y 0.000000 1.669500 0.000000 
#    z 0.000000 0.000000 1.620040 
# 
# From -- ./inp_files/14307.got.cif
#   From: 2010.03.12/outbox.cif.g09.slc.cpg/sg65_8_cif.got.tgz:14307.got - 2010.04.10 20:52:16.
