data_PCOD8268506
_publ_section_title
;
Structure prediction by ZEFSAII (Michael W. Deem and Ramdas Pophale) SiO2 
 PCOD8268506
Probable space group: C M M M
;
_chemical_formula_sum "Si O2"
_cell_formula_units_Z 104
_cell_length_a 17.573603
_cell_length_b 18.470649
_cell_length_c 18.002057
_cell_angle_alpha 90.000000
_cell_angle_beta 90.000000
_cell_angle_gamma 90.000000
_cell_volume 5843.393042
_symmetry_space_group_name_H-M "C M M M"
_symmetry_group_IT_number 65
_symmetry_cell_setting 'orthorhombic'
loop_
_space_group_symop_operation_xyz
x,y,z
-x,-y,z
x,-y,-z
-x,y,-z
-x,-y,-z
x,y,-z
-x,y,z
x,-y,z
1/2+x,1/2+y,z
1/2-x,1/2-y,z
1/2+x,1/2-y,-z
1/2-x,1/2+y,-z
1/2-x,1/2-y,-z
1/2+x,1/2+y,-z
1/2-x,1/2+y,z
1/2+x,1/2-y,z
loop_
_atom_site_type_symbol
_atom_site_label
_atom_site_fract_x
_atom_site_fract_y
_atom_site_fract_z
Si Si1 0.088374 0.699218 0.274481
Si Si2 0.000000 0.585641 0.081964
Si Si3 0.909530 0.920566 0.661408
Si Si4 0.644875 0.915998 0.174561
Si Si5 0.909313 0.780692 0.417921
Si Si6 0.797914 0.083553 0.914177
Si Si7 0.412447 0.653877 0.810377
O O1 0.140511 0.631424 0.249826
O O2 0.118007 0.722790 0.356421
O O3 0.100111 0.764056 0.215991
O O4 0.000000 0.676348 0.278183
O O5 0.074916 0.611827 0.124466
O O6 0.000000 0.500000 0.074945
O O7 0.000000 0.620755 0.000000
O O8 0.878304 0.860884 0.603368
O O9 0.884960 0.899709 0.744803
O O10 0.000000 0.921297 0.657665
O O11 0.876131 0.000000 0.641696
O O12 0.721009 0.899919 0.129952
O O13 0.637143 0.000000 0.196321
O O14 0.878849 0.759609 0.500000
O O15 0.000000 0.783034 0.416298
O O16 0.863446 0.135840 0.883083
O O17 0.822287 0.000000 0.904845
O O18 0.784060 0.102676 0.000000
O O19 0.500000 0.640340 0.830993
#
# Coordination Sequence:
#
# PCOD8268506 Si02
#       7
#    16   8  16  16  16  16  16
#     4   9  17  31  50  71  97 128 165 202 238 292
#     4   9  16  28  48  70  91 115 144 189 253 305
#     4   8  13  22  39  64  91 123 164 202 233 273
#     4  10  19  32  51  73  94 121 161 207 252 294
#     4   8  14  24  40  66  99 130 155 191 243 287
#     4  10  21  35  50  71  99 127 161 206 245 285
#     4   9  18  32  49  68  97 134 168 198 233 285
#
# _framework density 17.797878999999998
#
# number of rings (size 3 to 8) (size 9 to 14) (size 15 to 20)
#    0.000    3.000    0.769    2.769    0.000    4.000 
#    0.000    4.615    0.000    0.462    0.000   10.769 
#    0.000    4.923    0.000    0.000    0.000    0.000 
#
# Total GULP energy -644566.221614 kJ/mol
# GULP energy per Si atom -12395.504262 kJ/mol
# Density = 1.775737 g / cm^3
# Si number density = 17.797879 Si / 1000 Ang^3
#
#
#
# Elastic Constant Matrix: (Units=GPa)
#
#
# Indices 1 2 3 4 5 6 
#
# 1 59.8074 33.6687 39.2648 0.0000 0.0000 0.0000
# 2 33.6687 85.3889 72.6531 0.0000 0.0000 0.0000
# 3 39.2648 72.6531 130.7280 0.0000 0.0000 0.0000
# 4 0.0000 0.0000 0.0000 23.7232 0.0000 0.0000
# 5 0.0000 0.0000 0.0000 0.0000 17.8784 0.0000
# 6 0.0000 0.0000 0.0000 0.0000 0.0000 17.7402
#
#
#
# Elastic Compliance Matrix: (Units=1/GPa)
#
#
# Indices 1 2 3 4 5 6 
#
# 1 0.022274 -0.005862 -0.003432 0.000000 0.000000 0.000000
# 2 -0.005862 0.023760 -0.011444 0.000000 0.000000 0.000000
# 3 -0.003432 -0.011444 0.015040 0.000000 0.000000 0.000000
# 4 0.000000 0.000000 0.000000 0.042153 0.000000 0.000000
# 5 0.000000 0.000000 0.000000 0.000000 0.055934 0.000000
# 6 0.000000 0.000000 0.000000 0.000000 0.000000 0.056369
#
#
# Mechanical properties :
#
#
# Convention : Reuss Voigt Hill
#
# Bulk Modulus (GPa) = 51.02749 63.01084 57.01917
# Shear Modulus (GPa) = 18.97260 20.55752 19.76506
#
# Velocity S-wave (km/s) = 3.26851 3.40230 3.33608
# Velocity P-wave (km/s) = 6.55569 7.13545 6.85170
#
# Compressibility (1/GPa) = 0.01959728
#
# Stress axis : x y z
#
# Youngs Moduli (GPa) = 44.89590 42.08823 66.48833
#
# Poissons Ratio (x) = 0.24674 0.22818
# Poissons Ratio (y) = 0.26320 0.76088
# Poissons Ratio (z) = 0.15408 0.48165
#
# Static dielectric constant tensor:
#      x y z
#    x 2.942440 0.000000 0.000000 
#    y 0.000000 3.263810 0.000000 
#    z 0.000000 0.000000 3.418790 
# 
# 
# High freq. dielectric constant tensor:
#      x y z
#    x 1.653110 0.000000 0.000000 
#    y 0.000000 1.678810 0.000000 
#    z 0.000000 0.000000 1.681120 
# 
# From -- ./inp_files/54568.got.cif
#   From: 2010.03.12/outbox.cif.g09.slc.cpg/sg65_28_cif.got.tgz:54568.got - 2010.04.10 20:52:16.
