data_PCOD8268071
_publ_section_title
;
Structure prediction by ZEFSAII (Michael W. Deem and Ramdas Pophale) SiO2 
 PCOD8268071
Probable space group: C M M M
;
_chemical_formula_sum "Si O2"
_cell_formula_units_Z 48
_cell_length_a 38.171633
_cell_length_b 8.653285
_cell_length_c 7.601271
_cell_angle_alpha 90.000000
_cell_angle_beta 90.000000
_cell_angle_gamma 90.000000
_cell_volume 2510.775970
_symmetry_space_group_name_H-M "C M M M"
_symmetry_group_IT_number 65
_symmetry_cell_setting 'orthorhombic'
loop_
_space_group_symop_operation_xyz
x,y,z
-x,-y,z
x,-y,-z
-x,y,-z
-x,-y,-z
x,y,-z
-x,y,z
x,-y,z
1/2+x,1/2+y,z
1/2-x,1/2-y,z
1/2+x,1/2-y,-z
1/2-x,1/2+y,-z
1/2-x,1/2-y,-z
1/2+x,1/2+y,-z
1/2-x,1/2+y,z
1/2+x,1/2-y,z
loop_
_atom_site_type_symbol
_atom_site_label
_atom_site_fract_x
_atom_site_fract_y
_atom_site_fract_z
Si Si1 0.461113 0.816569 0.195582
Si Si2 0.665896 0.318144 0.500000
Si Si3 0.287176 0.181918 0.201649
Si Si4 0.089403 0.684405 0.500000
O O1 0.500000 0.754625 0.245723
O O2 0.432124 0.756158 0.330703
O O3 0.462058 0.000000 0.202510
O O4 0.450822 0.759416 0.000000
O O5 0.670544 0.500000 0.500000
O O6 0.682839 0.250862 0.676445
O O7 0.625681 0.272214 0.500000
O O8 0.250000 0.250000 0.261065
O O9 0.285830 0.000000 0.228042
O O10 0.295620 0.227178 0.000000
O O11 0.095276 0.500000 0.500000
#
# Coordination Sequence:
#
# PCOD8268071 Si02
#       4
#    16   8  16   8
#     4   8  14  26  47  75 102 128 165 217 272 320
#     4  12  25  38  53  77 114 154 187 222 267 321
#     4  10  21  39  63  87 110 139 179 226 273 322
#     4  10  19  31  49  74 103 136 176 220 267 317
#
# _framework density 19.117595000000001
#
# number of rings (size 3 to 8) (size 9 to 14) (size 15 to 20)
#    0.000    2.333    0.000    4.500    0.000    5.333 
#    0.000    3.333    0.000    2.000    0.000    2.333 
#    0.000    0.000    0.000    0.000    0.000    0.000 
#
# Total GULP energy -297580.190850 kJ/mol
# GULP energy per Si atom -12399.174619 kJ/mol
# Density = 1.907408 g / cm^3
# Si number density = 19.117595 Si / 1000 Ang^3
#
#
#
# Elastic Constant Matrix: (Units=GPa)
#
#
# Indices 1 2 3 4 5 6 
#
# 1 153.7793 32.5984 93.0680 0.0000 0.0000 0.0000
# 2 32.5984 59.0814 33.7474 0.0000 0.0000 0.0000
# 3 93.0680 33.7474 138.7045 0.0000 0.0000 0.0000
# 4 0.0000 0.0000 0.0000 18.3083 0.0000 0.0000
# 5 0.0000 0.0000 0.0000 0.0000 20.9045 0.0000
# 6 0.0000 0.0000 0.0000 0.0000 0.0000 27.2306
#
#
#
# Elastic Compliance Matrix: (Units=1/GPa)
#
#
# Indices 1 2 3 4 5 6 
#
# 1 0.011188 -0.002189 -0.006974 0.000000 0.000000 0.000000
# 2 -0.002189 0.020086 -0.003418 0.000000 0.000000 0.000000
# 3 -0.006974 -0.003418 0.012721 0.000000 0.000000 0.000000
# 4 0.000000 0.000000 0.000000 0.054620 0.000000 0.000000
# 5 0.000000 0.000000 0.000000 0.000000 0.047837 0.000000
# 6 0.000000 0.000000 0.000000 0.000000 0.000000 0.036723
#
#
# Mechanical properties :
#
#
# Convention : Reuss Voigt Hill
#
# Bulk Modulus (GPa) = 53.10201 74.48808 63.79504
# Shear Modulus (GPa) = 23.29757 26.09875 24.69816
#
# Velocity S-wave (km/s) = 3.49470 3.69883 3.59821
# Velocity P-wave (km/s) = 6.64234 7.56898 7.12075
#
# Compressibility (1/GPa) = 0.01883168
#
# Stress axis : x y z
#
# Youngs Moduli (GPa) = 89.38451 49.78556 78.61241
#
# Poissons Ratio (x) = 0.10899 0.54824
# Poissons Ratio (y) = 0.19568 0.26871
# Poissons Ratio (z) = 0.62337 0.17017
#
# Static dielectric constant tensor:
#      x y z
#    x 3.553850 0.000000 0.000000 
#    y 0.000000 3.179300 0.000000 
#    z 0.000000 0.000000 3.900860 
# 
# 
# High freq. dielectric constant tensor:
#      x y z
#    x 1.744760 0.000000 0.000000 
#    y 0.000000 1.710980 0.000000 
#    z 0.000000 0.000000 1.760210 
# 
# From -- ./inp_files/17533.got.cif
#   From: 2010.03.12/outbox.cif.g09.slc.cpg/sg65_9_cif.got.tgz:17533.got - 2010.04.10 20:52:16.
