data_PCOD8268062
_publ_section_title
;
Structure prediction by ZEFSAII (Michael W. Deem and Ramdas Pophale) SiO2 
 PCOD8268062
Probable space group: C M M M
;
_chemical_formula_sum "Si O2"
_cell_formula_units_Z 96
_cell_length_a 24.788375
_cell_length_b 9.284248
_cell_length_c 21.895475
_cell_angle_alpha 90.000000
_cell_angle_beta 90.000000
_cell_angle_gamma 90.000000
_cell_volume 5039.055730
_symmetry_space_group_name_H-M "C M M M"
_symmetry_group_IT_number 65
_symmetry_cell_setting 'orthorhombic'
loop_
_space_group_symop_operation_xyz
x,y,z
-x,-y,z
x,-y,-z
-x,y,-z
-x,-y,-z
x,y,-z
-x,y,z
x,-y,z
1/2+x,1/2+y,z
1/2-x,1/2-y,z
1/2+x,1/2-y,-z
1/2-x,1/2+y,-z
1/2-x,1/2-y,-z
1/2+x,1/2+y,-z
1/2-x,1/2+y,z
1/2+x,1/2-y,z
loop_
_atom_site_type_symbol
_atom_site_label
_atom_site_fract_x
_atom_site_fract_y
_atom_site_fract_z
Si Si1 0.417216 0.833047 0.568513
Si Si2 0.800339 0.337072 0.397888
Si Si3 0.883501 0.169115 0.825767
Si Si4 0.802997 0.832625 0.930736
Si Si5 0.500000 0.328199 0.350124
Si Si6 0.197549 0.666683 0.745592
Si Si7 0.500000 0.330744 0.211018
O O1 0.439819 0.810252 0.500000
O O2 0.354776 0.786776 0.569110
O O3 0.447580 0.732531 0.616162
O O4 0.423962 0.000000 0.588486
O O5 0.787403 0.500000 0.414130
O O6 0.750000 0.250000 0.424477
O O7 0.807587 0.313133 0.326181
O O8 0.855477 0.206479 0.890448
O O9 0.855471 0.260849 0.773058
O O10 0.946430 0.217724 0.826258
O O11 0.877822 0.000000 0.810346
O O12 0.750000 0.750000 0.906472
O O13 0.789152 0.000000 0.926303
O O14 0.816667 0.785973 0.000000
O O15 0.500000 0.500000 0.354155
O O16 0.500000 0.270609 0.280378
O O17 0.201709 0.500000 0.765042
O O18 0.250000 0.750000 0.771097
O O19 0.500000 0.500000 0.216780
#
# Coordination Sequence:
#
# PCOD8268062 Si02
#       7
#    16  16  16  16   8  16   8
#     4  10  21  37  55  74  99 132 167 204 251 304
#     4   9  19  34  51  73 101 132 164 201 249 304
#     4  10  19  33  52  73 101 135 171 208 249 299
#     4   9  18  32  51  76 104 134 168 206 247 290
#     4  11  22  36  55  77 100 127 166 213 256 298
#     4  10  19  31  49  74 102 130 164 207 254 302
#     4   9  20  36  53  75 103 135 166 205 258 302
#
# _framework density 19.051188
#
# number of rings (size 3 to 8) (size 9 to 14) (size 15 to 20)
#    0.000    2.333    0.000    2.500    0.000    5.000 
#    0.000    1.667    0.000    2.500    0.000    0.000 
#    0.000    4.000    0.000    0.000    0.000    0.000 
#
# Total GULP energy -595175.855853 kJ/mol
# GULP energy per Si atom -12399.496997 kJ/mol
# Density = 1.900783 g / cm^3
# Si number density = 19.051188 Si / 1000 Ang^3
#
#
#
# Elastic Constant Matrix: (Units=GPa)
#
#
# Indices 1 2 3 4 5 6 
#
# 1 155.9451 51.6870 65.4890 0.0000 0.0000 0.0000
# 2 51.6870 66.5541 33.2042 0.0000 0.0000 0.0000
# 3 65.4890 33.2042 75.6860 0.0000 0.0000 0.0000
# 4 0.0000 0.0000 0.0000 20.6877 0.0000 0.0000
# 5 0.0000 0.0000 0.0000 0.0000 37.1138 0.0000
# 6 0.0000 0.0000 0.0000 0.0000 0.0000 33.3673
#
#
#
# Elastic Compliance Matrix: (Units=1/GPa)
#
#
# Indices 1 2 3 4 5 6 
#
# 1 0.011218 -0.004954 -0.007533 0.000000 0.000000 0.000000
# 2 -0.004954 0.021423 -0.005112 0.000000 0.000000 0.000000
# 3 -0.007533 -0.005112 0.021974 0.000000 0.000000 0.000000
# 4 0.000000 0.000000 0.000000 0.048338 0.000000 0.000000
# 5 0.000000 0.000000 0.000000 0.000000 0.026944 0.000000
# 6 0.000000 0.000000 0.000000 0.000000 0.000000 0.029969
#
#
# Mechanical properties :
#
#
# Convention : Reuss Voigt Hill
#
# Bulk Modulus (GPa) = 51.50356 66.54951 59.02654
# Shear Modulus (GPa) = 24.80934 28.08741 26.44838
#
# Velocity S-wave (km/s) = 3.61258 3.84384 3.73000
# Velocity P-wave (km/s) = 6.67038 7.39648 7.04280
#
# Compressibility (1/GPa) = 0.01941613
#
# Stress axis : x y z
#
# Youngs Moduli (GPa) = 89.14235 46.67890 45.50884
#
# Poissons Ratio (x) = 0.23123 0.34284
# Poissons Ratio (y) = 0.44158 0.23265
# Poissons Ratio (z) = 0.67155 0.23863
#
# Static dielectric constant tensor:
#      x y z
#    x 3.724120 0.000000 0.000000 
#    y 0.000000 3.413640 0.000000 
#    z 0.000000 0.000000 3.490750 
# 
# 
# High freq. dielectric constant tensor:
#      x y z
#    x 1.746040 0.000000 0.000000 
#    y 0.000000 1.727200 0.000000 
#    z 0.000000 0.000000 1.736100 
# 
# From -- ./inp_files/71480.got.cif
#   From: 2010.03.12/outbox.cif.g09.slc.cpg/sg65_36_cif.got.tgz:71480.got - 2010.04.10 20:52:16.
