data_PCOD8268334
_publ_section_title
;
Structure prediction by ZEFSAII (Michael W. Deem and Ramdas Pophale) SiO2 
 PCOD8268334
Probable space group: C M M M
;
_chemical_formula_sum "Si O2"
_cell_formula_units_Z 96
_cell_length_a 28.391832
_cell_length_b 26.232970
_cell_length_c 9.018802
_cell_angle_alpha 90.000000
_cell_angle_beta 90.000000
_cell_angle_gamma 90.000000
_cell_volume 6717.222463
_symmetry_space_group_name_H-M "C M M M"
_symmetry_group_IT_number 65
_symmetry_cell_setting 'orthorhombic'
loop_
_space_group_symop_operation_xyz
x,y,z
-x,-y,z
x,-y,-z
-x,y,-z
-x,-y,-z
x,y,-z
-x,y,z
x,-y,z
1/2+x,1/2+y,z
1/2-x,1/2-y,z
1/2+x,1/2-y,-z
1/2-x,1/2+y,-z
1/2-x,1/2-y,-z
1/2+x,1/2+y,-z
1/2-x,1/2+y,z
1/2+x,1/2-y,z
loop_
_atom_site_type_symbol
_atom_site_label
_atom_site_fract_x
_atom_site_fract_y
_atom_site_fract_z
Si Si1 0.142986 0.759983 0.325611
Si Si2 0.306120 0.354056 0.824628
Si Si3 0.053109 0.097525 0.170778
Si Si4 0.052953 0.216733 0.171144
Si Si5 0.641575 0.558539 0.670335
Si Si6 0.783317 0.701197 0.836106
O O1 0.145860 0.765912 0.500000
O O2 0.161660 0.811210 0.249891
O O3 0.089187 0.751712 0.273319
O O4 0.173809 0.710658 0.277129
O O5 0.321113 0.408989 0.764741
O O6 0.250608 0.345575 0.786347
O O7 0.314778 0.350663 0.000000
O O8 0.058811 0.157079 0.204100
O O9 0.088370 0.066112 0.273396
O O10 0.000000 0.079768 0.207342
O O11 0.065204 0.086111 0.000000
O O12 0.000000 0.234268 0.211507
O O13 0.063852 0.228390 0.000000
O O14 0.644055 0.575762 0.500000
O O15 0.656087 0.500000 0.689898
O O16 0.750000 0.750000 0.840669
O O17 0.804425 0.691192 0.000000
#
# Coordination Sequence:
#
# PCOD8268334 Si02
#       6
#    16  16  16  16  16  16
#     4  11  19  26  42  66  87 105 127 161 204 246
#     4  10  19  32  47  60  77 103 135 168 200 240
#     4   9  18  32  48  61  73  98 136 173 210 251
#     4   9  17  29  44  60  80 108 139 169 202 241
#     4  11  23  34  44  61  82 103 129 167 217 261
#     4   8  16  29  44  61  80 103 130 160 195 237
#
# _framework density 14.291622
#
# number of rings (size 3 to 8) (size 9 to 14) (size 15 to 20)
#    0.000    2.333    1.667    4.500    0.000    6.000 
#    0.000    3.333    0.000    0.000    0.000    0.000 
#    0.000    0.000    0.000    0.000    0.000    0.833 
#
# Total GULP energy -595071.053279 kJ/mol
# GULP energy per Si atom -12397.313610 kJ/mol
# Density = 1.425909 g / cm^3
# Si number density = 14.291622 Si / 1000 Ang^3
#
#
#
# Elastic Constant Matrix: (Units=GPa)
#
#
# Indices 1 2 3 4 5 6 
#
# 1 89.9568 43.0667 57.7616 0.0000 0.0000 0.0000
# 2 43.0667 42.9200 33.7098 0.0000 0.0000 0.0000
# 3 57.7616 33.7098 96.5928 0.0000 0.0000 0.0000
# 4 0.0000 0.0000 0.0000 17.0758 0.0000 0.0000
# 5 0.0000 0.0000 0.0000 0.0000 11.9279 0.0000
# 6 0.0000 0.0000 0.0000 0.0000 0.0000 19.4133
#
#
#
# Elastic Compliance Matrix: (Units=1/GPa)
#
#
# Indices 1 2 3 4 5 6 
#
# 1 0.025926 -0.019063 -0.008851 0.000000 0.000000 0.000000
# 2 -0.019063 0.046114 -0.004694 0.000000 0.000000 0.000000
# 3 -0.008851 -0.004694 0.017283 0.000000 0.000000 0.000000
# 4 0.000000 0.000000 0.000000 0.058563 0.000000 0.000000
# 5 0.000000 0.000000 0.000000 0.000000 0.083837 0.000000
# 6 0.000000 0.000000 0.000000 0.000000 0.000000 0.051511
#
#
# Mechanical properties :
#
#
# Convention : Reuss Voigt Hill
#
# Bulk Modulus (GPa) = 41.47944 55.39399 48.43672
# Shear Modulus (GPa) = 14.02581 16.01214 15.01898
#
# Velocity S-wave (km/s) = 3.13613 3.35085 3.24527
# Velocity P-wave (km/s) = 6.49618 7.33586 6.92875
#
# Compressibility (1/GPa) = 0.02410833
#
# Stress axis : x y z
#
# Youngs Moduli (GPa) = 38.57126 21.68537 57.85899
#
# Poissons Ratio (x) = 0.41339 0.51209
# Poissons Ratio (y) = 0.73529 0.27157
# Poissons Ratio (z) = 0.34138 0.10178
#
# Static dielectric constant tensor:
#      x y z
#    x 3.016380 0.000000 0.000000 
#    y 0.000000 2.543200 0.000000 
#    z 0.000000 0.000000 2.820990 
# 
# 
# High freq. dielectric constant tensor:
#      x y z
#    x 1.542590 0.000000 0.000000 
#    y 0.000000 1.491490 0.000000 
#    z 0.000000 0.000000 1.553900 
# 
# From -- ./inp_files/16672.got.cif
#   From: 2010.03.12/outbox.cif.g09.slc.cpg/sg65_9_cif.got.tgz:16672.got - 2010.04.10 20:52:16.
