data_PCOD8268128
_publ_section_title
;
Structure prediction by ZEFSAII (Michael W. Deem and Ramdas Pophale) SiO2 
 PCOD8268128
Probable space group: C M M M
;
_chemical_formula_sum "Si O2"
_cell_formula_units_Z 80
_cell_length_a 17.127877
_cell_length_b 14.633260
_cell_length_c 18.318697
_cell_angle_alpha 90.000000
_cell_angle_beta 90.000000
_cell_angle_gamma 90.000000
_cell_volume 4591.337350
_symmetry_space_group_name_H-M "C M M M"
_symmetry_group_IT_number 65
_symmetry_cell_setting 'orthorhombic'
loop_
_space_group_symop_operation_xyz
x,y,z
-x,-y,z
x,-y,-z
-x,y,-z
-x,-y,-z
x,y,-z
-x,y,z
x,-y,z
1/2+x,1/2+y,z
1/2-x,1/2-y,z
1/2+x,1/2-y,-z
1/2-x,1/2+y,-z
1/2-x,1/2-y,-z
1/2+x,1/2+y,-z
1/2-x,1/2+y,z
1/2+x,1/2-y,z
loop_
_atom_site_type_symbol
_atom_site_label
_atom_site_fract_x
_atom_site_fract_y
_atom_site_fract_z
Si Si1 0.686082 0.894719 0.298056
Si Si2 0.634881 0.395182 0.682738
Si Si3 0.158135 0.260104 0.580339
Si Si4 0.000000 0.105679 0.795807
Si Si5 0.914404 0.398315 0.836401
Si Si6 0.500000 0.241403 0.083267
O O1 0.777661 0.872915 0.290290
O O2 0.642958 0.843019 0.364113
O O3 0.648554 0.863487 0.221780
O O4 0.669895 0.000000 0.313410
O O5 0.625199 0.500000 0.657596
O O6 0.618081 0.331691 0.612598
O O7 0.576515 0.371686 0.748312
O O8 0.121644 0.279358 0.500000
O O9 0.250000 0.250000 0.571560
O O10 0.000000 0.168003 0.867419
O O11 0.000000 0.000000 0.820716
O O12 0.892062 0.500000 0.866942
O O13 0.000000 0.403607 0.797676
O O14 0.922800 0.322060 0.900710
O O15 0.500000 0.273759 0.000000
#
# Coordination Sequence:
#
# PCOD8268128 Si02
#       6
#    16  16  16   8  16   8
#     4   9  16  29  49  71  93 121 156 190 228 273
#     4   9  18  31  49  68  88 120 161 201 233 264
#     4   9  17  28  43  66  94 122 154 192 234 277
#     4  10  20  34  50  68  89 119 161 200 228 262
#     4   8  16  29  49  74  95 118 147 182 222 272
#     4  10  19  31  50  74  97 123 148 177 226 281
#
# _framework density 17.424116999999999
#
# number of rings (size 3 to 8) (size 9 to 14) (size 15 to 20)
#    0.600    2.400    0.000    1.200    0.000    1.800 
#    0.000    4.500    0.000    4.200    0.000    8.400 
#    0.000    0.000    0.000    0.000    0.000    0.000 
#
# Total GULP energy -495576.601845 kJ/mol
# GULP energy per Si atom -12389.415046 kJ/mol
# Density = 1.738446 g / cm^3
# Si number density = 17.424117 Si / 1000 Ang^3
#
#
#
# Elastic Constant Matrix: (Units=GPa)
#
#
# Indices 1 2 3 4 5 6 
#
# 1 47.4496 28.6186 37.2703 0.0000 0.0000 0.0000
# 2 28.6186 97.3292 72.6598 0.0000 0.0000 0.0000
# 3 37.2703 72.6598 133.4615 0.0000 0.0000 0.0000
# 4 0.0000 0.0000 0.0000 18.2820 0.0000 0.0000
# 5 0.0000 0.0000 0.0000 0.0000 11.7344 0.0000
# 6 0.0000 0.0000 0.0000 0.0000 0.0000 15.9965
#
#
#
# Elastic Compliance Matrix: (Units=1/GPa)
#
#
# Indices 1 2 3 4 5 6 
#
# 1 0.027901 -0.004022 -0.005602 0.000000 0.000000 0.000000
# 2 -0.004022 0.017889 -0.008616 0.000000 0.000000 0.000000
# 3 -0.005602 -0.008616 0.013748 0.000000 0.000000 0.000000
# 4 0.000000 0.000000 0.000000 0.054699 0.000000 0.000000
# 5 0.000000 0.000000 0.000000 0.000000 0.085219 0.000000
# 6 0.000000 0.000000 0.000000 0.000000 0.000000 0.062514
#
#
# Mechanical properties :
#
#
# Convention : Reuss Voigt Hill
#
# Bulk Modulus (GPa) = 43.36863 61.70419 52.53641
# Shear Modulus (GPa) = 16.33260 18.51537 17.42399
#
# Velocity S-wave (km/s) = 3.06495 3.26334 3.16570
# Velocity P-wave (km/s) = 6.12121 7.04905 6.60145
#
# Compressibility (1/GPa) = 0.02305814
#
# Stress axis : x y z
#
# Youngs Moduli (GPa) = 35.84114 55.89921 72.73727
#
# Poissons Ratio (x) = 0.22482 0.40747
# Poissons Ratio (y) = 0.14415 0.62672
# Poissons Ratio (z) = 0.20078 0.48164
#
# Static dielectric constant tensor:
#      x y z
#    x 3.097990 0.000000 0.000000 
#    y 0.000000 3.377240 0.000000 
#    z 0.000000 0.000000 3.050250 
# 
# 
# High freq. dielectric constant tensor:
#      x y z
#    x 1.647680 0.000000 0.000000 
#    y 0.000000 1.687570 0.000000 
#    z 0.000000 0.000000 1.642820 
# 
# From -- ./inp_files/54225.got.cif
#   From: 2010.03.12/outbox.cif.g09.slc.cpg/sg65_28_cif.got.tgz:54225.got - 2010.04.10 20:52:16.
