data_PCOD8268736
_publ_section_title
;
Structure prediction by ZEFSAII (Michael W. Deem and Ramdas Pophale) SiO2 
 PCOD8268736
Probable space group: C M M M
;
_chemical_formula_sum "Si O2"
_cell_formula_units_Z 112
_cell_length_a 18.494230
_cell_length_b 22.245004
_cell_length_c 13.954036
_cell_angle_alpha 90.000000
_cell_angle_beta 90.000000
_cell_angle_gamma 90.000000
_cell_volume 5740.749301
_symmetry_space_group_name_H-M "C M M M"
_symmetry_group_IT_number 65
_symmetry_cell_setting 'orthorhombic'
loop_
_space_group_symop_operation_xyz
x,y,z
-x,-y,z
x,-y,-z
-x,y,-z
-x,-y,-z
x,y,-z
-x,y,z
x,-y,z
1/2+x,1/2+y,z
1/2-x,1/2-y,z
1/2+x,1/2-y,-z
1/2-x,1/2+y,-z
1/2-x,1/2-y,-z
1/2+x,1/2+y,-z
1/2-x,1/2+y,z
1/2+x,1/2-y,z
loop_
_atom_site_type_symbol
_atom_site_label
_atom_site_fract_x
_atom_site_fract_y
_atom_site_fract_z
Si Si1 0.584899 0.167372 0.738282
Si Si2 0.209814 0.068858 0.897571
Si Si3 0.663054 0.610424 0.394467
Si Si4 0.828665 0.751593 0.393985
Si Si5 0.702721 0.071714 0.718016
Si Si6 0.584832 0.261142 0.107800
Si Si7 0.084527 0.115982 0.204926
O O1 0.500000 0.154699 0.727477
O O2 0.609377 0.215257 0.659546
O O3 0.625278 0.104385 0.718362
O O4 0.603378 0.197164 0.841994
O O5 0.258664 0.096734 0.813968
O O6 0.124927 0.074892 0.872884
O O7 0.230516 0.000000 0.906044
O O8 0.225995 0.100501 0.000000
O O9 0.645541 0.581868 0.500000
O O10 0.647385 0.680379 0.402065
O O11 0.746271 0.592850 0.369792
O O12 0.608973 0.590695 0.309551
O O13 0.820653 0.722639 0.500000
O O14 0.750000 0.750000 0.341606
O O15 0.691229 0.000000 0.714568
O O16 0.500000 0.267861 0.096321
O O17 0.610113 0.315505 0.178634
O O18 0.619586 0.263888 0.000000
O O19 0.000000 0.106472 0.194158
#
# Coordination Sequence:
#
# PCOD8268736 Si02
#       7
#    16  16  16  16  16  16  16
#     4  11  22  36  57  86 117 148 188 240 294 348
#     4   9  19  36  56  78 106 146 198 247 285 331
#     4  10  20  35  58  82 110 150 194 234 280 340
#     4  10  19  34  57  82 110 145 184 230 283 341
#     4  10  22  39  58  80 111 151 197 244 286 340
#     4   9  18  32  49  74 111 148 177 216 277 345
#     4  10  19  32  52  82 119 151 185 233 291 349
#
# _framework density 19.509647999999999
#
# number of rings (size 3 to 8) (size 9 to 14) (size 15 to 20)
#    0.000    2.143    2.857    0.429    0.000    2.857 
#    0.000    2.143    0.000    3.000    0.000   10.000 
#    0.000    0.000    0.000    0.000    0.000    0.000 
#
# Total GULP energy -693774.722636 kJ/mol
# GULP energy per Si atom -12388.834333 kJ/mol
# Density = 1.946524 g / cm^3
# Si number density = 19.509648 Si / 1000 Ang^3
#
#
#
# Elastic Constant Matrix: (Units=GPa)
#
#
# Indices 1 2 3 4 5 6 
#
# 1 88.8864 28.2814 28.2819 0.0000 0.0000 0.0000
# 2 28.2814 64.9334 31.7608 0.0000 0.0000 0.0000
# 3 28.2819 31.7608 121.3639 0.0000 0.0000 0.0000
# 4 0.0000 0.0000 0.0000 3.3432 0.0000 0.0000
# 5 0.0000 0.0000 0.0000 0.0000 17.3256 0.0000
# 6 0.0000 0.0000 0.0000 0.0000 0.0000 25.0172
#
#
#
# Elastic Compliance Matrix: (Units=1/GPa)
#
#
# Indices 1 2 3 4 5 6 
#
# 1 0.013406 -0.004943 -0.001830 0.000000 0.000000 0.000000
# 2 -0.004943 0.019484 -0.003947 0.000000 0.000000 0.000000
# 3 -0.001830 -0.003947 0.009699 0.000000 0.000000 0.000000
# 4 0.000000 0.000000 0.000000 0.299111 0.000000 0.000000
# 5 0.000000 0.000000 0.000000 0.000000 0.057718 0.000000
# 6 0.000000 0.000000 0.000000 0.000000 0.000000 0.039972
#
#
# Mechanical properties :
#
#
# Convention : Reuss Voigt Hill
#
# Bulk Modulus (GPa) = 47.28724 50.20354 48.74539
# Shear Modulus (GPa) = 10.68648 21.59453 16.14051
#
# Velocity S-wave (km/s) = 2.34295 3.33057 2.87942
# Velocity P-wave (km/s) = 5.62225 6.37015 6.00785
#
# Compressibility (1/GPa) = 0.02114735
#
# Stress axis : x y z
#
# Youngs Moduli (GPa) = 74.59595 51.32391 103.10229
#
# Poissons Ratio (x) = 0.25372 0.18870
# Poissons Ratio (y) = 0.36876 0.40694
# Poissons Ratio (z) = 0.13653 0.20257
#
# Static dielectric constant tensor:
#      x y z
#    x 3.303570 0.000000 0.000000 
#    y 0.000000 3.357150 0.000000 
#    z 0.000000 0.000000 4.287420 
# 
# 
# High freq. dielectric constant tensor:
#      x y z
#    x 1.735040 0.000000 0.000000 
#    y 0.000000 1.740050 0.000000 
#    z 0.000000 0.000000 1.772300 
# 
# From -- ./inp_files/40774.got.cif
#   From: 2010.03.12/outbox.cif.g09.slc.cpg/sg65_21_cif.got.tgz:40774.got - 2010.04.10 20:52:16.
