data_PCOD8268957
_publ_section_title
;
Structure prediction by ZEFSAII (Michael W. Deem and Ramdas Pophale) SiO2 
 PCOD8268957
Probable space group: C M M M
;
_chemical_formula_sum "Si O2"
_cell_formula_units_Z 96
_cell_length_a 19.994173
_cell_length_b 8.742764
_cell_length_c 29.832707
_cell_angle_alpha 90.000000
_cell_angle_beta 90.000000
_cell_angle_gamma 90.000000
_cell_volume 5214.886536
_symmetry_space_group_name_H-M "C M M M"
_symmetry_group_IT_number 65
_symmetry_cell_setting 'orthorhombic'
loop_
_space_group_symop_operation_xyz
x,y,z
-x,-y,z
x,-y,-z
-x,y,-z
-x,-y,-z
x,y,-z
-x,y,z
x,-y,z
1/2+x,1/2+y,z
1/2-x,1/2-y,z
1/2+x,1/2-y,-z
1/2-x,1/2+y,-z
1/2-x,1/2-y,-z
1/2+x,1/2+y,-z
1/2-x,1/2+y,z
1/2+x,1/2-y,z
loop_
_atom_site_type_symbol
_atom_site_label
_atom_site_fract_x
_atom_site_fract_y
_atom_site_fract_z
Si Si1 0.573929 0.181757 0.715697
Si Si2 0.077974 0.323891 0.384621
Si Si3 0.820493 0.820129 0.883157
Si Si4 0.821282 0.317617 0.211558
Si Si5 0.423260 0.824502 0.052074
Si Si6 0.681674 0.320718 0.449401
O O1 0.500000 0.245633 0.727522
O O2 0.594799 0.233914 0.665728
O O3 0.626128 0.245009 0.751987
O O4 0.571796 0.000000 0.716814
O O5 0.098553 0.500000 0.390379
O O6 0.118919 0.223892 0.419403
O O7 0.000000 0.300557 0.394844
O O8 0.750000 0.750000 0.899176
O O9 0.843913 0.743767 0.836772
O O10 0.876278 0.788213 0.920245
O O11 0.811599 0.000000 0.876193
O O12 0.817844 0.500000 0.210308
O O13 0.750000 0.250000 0.225399
O O14 0.500000 0.788738 0.064380
O O15 0.406202 0.000000 0.063837
O O16 0.410300 0.792619 0.000000
O O17 0.669219 0.260369 0.500000
O O18 0.690119 0.500000 0.448633
O O19 0.750000 0.250000 0.429720
#
# Coordination Sequence:
#
# PCOD8268957 Si02
#       6
#    16  16  16  16  16  16
#     4   8  16  32  53  76 101 132 170 209 250 300
#     4   9  18  34  55  78 105 136 171 210 253 305
#     4  11  22  36  54  77 107 140 176 217 259 305
#     4  10  19  33  53  75 102 135 171 212 257 305
#     4   9  19  37  59  81 106 137 173 212 256 309
#     4  10  21  36  53  74 102 135 172 214 258 306
#
# _framework density 18.408837999999999
#
# number of rings (size 3 to 8) (size 9 to 14) (size 15 to 20)
#    0.000    2.500    0.000    5.000    0.000    4.000 
#    0.000    7.500    0.000    3.500    0.000    0.000 
#    0.000    0.000    0.000    0.000    0.000    0.000 
#
# Total GULP energy -595221.122791 kJ/mol
# GULP energy per Si atom -12400.440058 kJ/mol
# Density = 1.836694 g / cm^3
# Si number density = 18.408838 Si / 1000 Ang^3
#
#
#
# Elastic Constant Matrix: (Units=GPa)
#
#
# Indices 1 2 3 4 5 6 
#
# 1 105.3969 38.2477 78.0835 0.0000 0.0000 0.0000
# 2 38.2477 75.2158 35.5766 0.0000 0.0000 0.0000
# 3 78.0835 35.5766 103.3501 0.0000 0.0000 0.0000
# 4 0.0000 0.0000 0.0000 26.1361 0.0000 0.0000
# 5 0.0000 0.0000 0.0000 0.0000 39.6797 0.0000
# 6 0.0000 0.0000 0.0000 0.0000 0.0000 32.3534
#
#
#
# Elastic Compliance Matrix: (Units=1/GPa)
#
#
# Indices 1 2 3 4 5 6 
#
# 1 0.022548 -0.004071 -0.015634 0.000000 0.000000 0.000000
# 2 -0.004071 0.016616 -0.002644 0.000000 0.000000 0.000000
# 3 -0.015634 -0.002644 0.022398 0.000000 0.000000 0.000000
# 4 0.000000 0.000000 0.000000 0.038261 0.000000 0.000000
# 5 0.000000 0.000000 0.000000 0.000000 0.025202 0.000000
# 6 0.000000 0.000000 0.000000 0.000000 0.000000 0.030909
#
#
# Mechanical properties :
#
#
# Convention : Reuss Voigt Hill
#
# Bulk Modulus (GPa) = 59.29970 65.30870 62.30420
# Shear Modulus (GPa) = 24.24212 28.43748 26.33980
#
# Velocity S-wave (km/s) = 3.63281 3.93462 3.78673
# Velocity P-wave (km/s) = 7.06251 7.49637 7.28267
#
# Compressibility (1/GPa) = 0.01686349
#
# Stress axis : x y z
#
# Youngs Moduli (GPa) = 44.35024 60.18377 44.64690
#
# Poissons Ratio (x) = 0.24500 0.69801
# Poissons Ratio (y) = 0.18054 0.11805
# Poissons Ratio (z) = 0.69338 0.15913
#
# Static dielectric constant tensor:
#      x y z
#    x 3.476130 0.000000 0.000000 
#    y 0.000000 3.197470 0.000000 
#    z 0.000000 0.000000 3.477790 
# 
# 
# High freq. dielectric constant tensor:
#      x y z
#    x 1.717660 0.000000 0.000000 
#    y 0.000000 1.701800 0.000000 
#    z 0.000000 0.000000 1.716270 
# 
# From -- ./inp_files/75354.got.cif
#   From: 2010.03.12/outbox.cif.g09.slc.cpg/sg65_38_cif.got.tgz:75354.got - 2010.04.10 20:52:16.
