data_PCOD8268520
_publ_section_title
;
Structure prediction by ZEFSAII (Michael W. Deem and Ramdas Pophale) SiO2 
 PCOD8268520
Probable space group: C M M M
;
_chemical_formula_sum "Si O2"
_cell_formula_units_Z 64
_cell_length_a 11.038788
_cell_length_b 33.160214
_cell_length_c 9.392960
_cell_angle_alpha 90.000000
_cell_angle_beta 90.000000
_cell_angle_gamma 90.000000
_cell_volume 3438.279598
_symmetry_space_group_name_H-M "C M M M"
_symmetry_group_IT_number 65
_symmetry_cell_setting 'orthorhombic'
loop_
_space_group_symop_operation_xyz
x,y,z
-x,-y,z
x,-y,-z
-x,y,-z
-x,-y,-z
x,y,-z
-x,y,z
x,-y,z
1/2+x,1/2+y,z
1/2-x,1/2-y,z
1/2+x,1/2-y,-z
1/2-x,1/2+y,-z
1/2-x,1/2-y,-z
1/2+x,1/2+y,-z
1/2-x,1/2+y,z
1/2+x,1/2-y,z
loop_
_atom_site_type_symbol
_atom_site_label
_atom_site_fract_x
_atom_site_fract_y
_atom_site_fract_z
Si Si1 0.500000 0.453616 0.168422
Si Si2 0.870241 0.500000 0.332072
Si Si3 0.756578 0.666727 0.664295
Si Si4 0.000000 0.198926 0.667817
Si Si5 0.281298 0.575605 0.335821
Si Si6 0.000000 0.707674 0.331807
O O1 0.500000 0.500000 0.224328
O O2 0.608994 0.427864 0.228979
O O3 0.500000 0.452645 0.000000
O O4 0.881841 0.500000 0.500000
O O5 0.807692 0.459137 0.281855
O O6 0.000000 0.500000 0.257299
O O7 0.751009 0.679599 0.500000
O O8 0.625316 0.679616 0.731765
O O9 0.779325 0.619135 0.683297
O O10 0.875399 0.688380 0.733015
O O11 0.000000 0.245647 0.708541
O O12 0.000000 0.191000 0.500000
O O13 0.322288 0.568993 0.500000
O O14 0.000000 0.700069 0.500000
#
# Coordination Sequence:
#
# PCOD8268520 Si02
#       6
#     8   8  16   8  16   8
#     4  11  22  35  51  71  97 127 165 206 245 293
#     4   9  18  29  45  70  98 129 162 201 246 291
#     4   9  17  26  41  65  93 126 164 202 238 287
#     4   9  15  25  37  56  93 134 163 190 239 299
#     4  10  19  32  51  73  99 128 164 205 245 288
#     4   9  16  25  39  62  95 132 161 193 243 295
#
# _framework density 18.613959999999999
#
# number of rings (size 3 to 8) (size 9 to 14) (size 15 to 20)
#    0.000    2.500    1.250    1.875    1.750    5.500 
#    0.000    0.000    0.000    1.500    0.000    0.000 
#    0.000   16.000    0.000    0.000    0.000    0.000 
#
# Total GULP energy -396510.764681 kJ/mol
# GULP energy per Si atom -12390.961396 kJ/mol
# Density = 1.857159 g / cm^3
# Si number density = 18.613960 Si / 1000 Ang^3
#
#
#
# Elastic Constant Matrix: (Units=GPa)
#
#
# Indices 1 2 3 4 5 6 
#
# 1 175.4710 73.0640 12.7656 0.0000 0.0000 0.0000
# 2 73.0640 127.8614 11.2681 0.0000 0.0000 0.0000
# 3 12.7656 11.2681 21.9843 0.0000 0.0000 0.0000
# 4 0.0000 0.0000 0.0000 4.6591 0.0000 0.0000
# 5 0.0000 0.0000 0.0000 0.0000 -102.2701 0.0000
# 6 0.0000 0.0000 0.0000 0.0000 0.0000 28.7638
#
#
#
# Elastic Compliance Matrix: (Units=1/GPa)
#
#
# Indices 1 2 3 4 5 6 
#
# 1 0.007586 -0.004134 -0.002287 0.000000 0.000000 0.000000
# 2 -0.004134 0.010443 -0.002952 0.000000 0.000000 0.000000
# 3 -0.002287 -0.002952 0.048328 0.000000 0.000000 0.000000
# 4 0.000000 0.000000 0.000000 0.214633 0.000000 0.000000
# 5 0.000000 0.000000 0.000000 0.000000 -0.009778 0.000000
# 6 0.000000 0.000000 0.000000 0.000000 0.000000 0.034766
#
#
# Mechanical properties :
#
#
# Convention : Reuss Voigt Hill
#
# Bulk Modulus (GPa) = 21.00286 57.72356 39.36321
# Shear Modulus (GPa) = 14.68022 1.44517 8.06269
#
# Velocity S-wave (km/s) = 2.81137 0.88209 2.08349
# Velocity P-wave (km/s) = 4.67400 5.66707 5.19432
#
# Compressibility (1/GPa) = 0.04761257
#
# Stress axis : x y z
#
# Youngs Moduli (GPa) = 131.81314 95.75558 20.69192
#
# Poissons Ratio (x) = 0.39582 0.04731
# Poissons Ratio (y) = 0.54487 0.06109
# Poissons Ratio (z) = 0.30140 0.28271
#
# Static dielectric constant tensor:
#      x y z
#    x 3.206670 0.000000 0.000000 
#    y 0.000000 3.645780 0.000000 
#    z 0.000000 0.000000 2.654250 
# 
# 
# High freq. dielectric constant tensor:
#      x y z
#    x 1.739500 0.000000 0.000000 
#    y 0.000000 1.739060 0.000000 
#    z 0.000000 0.000000 1.630310 
# 
# From -- ./inp_files/4992.got.cif
#   From: 2010.03.12/outbox.cif.g09.slc.cpg/sg65_3_cif.got.tgz:4992.got - 2010.04.10 20:52:16.
