data_PCOD8268075
_publ_section_title
;
Structure prediction by ZEFSAII (Michael W. Deem and Ramdas Pophale) SiO2 
 PCOD8268075
Probable space group: C M M M
;
_chemical_formula_sum "Si O2"
_cell_formula_units_Z 88
_cell_length_a 7.982216
_cell_length_b 27.482655
_cell_length_c 22.849518
_cell_angle_alpha 90.000000
_cell_angle_beta 90.000000
_cell_angle_gamma 90.000000
_cell_volume 5012.555624
_symmetry_space_group_name_H-M "C M M M"
_symmetry_group_IT_number 65
_symmetry_cell_setting 'orthorhombic'
loop_
_space_group_symop_operation_xyz
x,y,z
-x,-y,z
x,-y,-z
-x,y,-z
-x,-y,-z
x,y,-z
-x,y,z
x,-y,z
1/2+x,1/2+y,z
1/2-x,1/2-y,z
1/2+x,1/2-y,-z
1/2-x,1/2+y,-z
1/2-x,1/2-y,-z
1/2+x,1/2+y,-z
1/2-x,1/2+y,z
1/2+x,1/2-y,z
loop_
_atom_site_type_symbol
_atom_site_label
_atom_site_fract_x
_atom_site_fract_y
_atom_site_fract_z
Si Si1 0.811275 0.895639 0.745955
Si Si2 0.312508 0.056387 0.142041
Si Si3 0.802171 0.646598 0.436069
Si Si4 0.500000 0.442308 0.065320
Si Si5 0.197199 0.696047 0.679496
Si Si6 0.804434 0.445570 0.632736
O O1 0.692805 0.912424 0.798596
O O2 0.771290 0.840350 0.727533
O O3 0.792296 0.931950 0.691542
O O4 0.000000 0.898656 0.769093
O O5 0.500000 0.062902 0.115057
O O6 0.170277 0.075572 0.097326
O O7 0.278646 0.000000 0.157580
O O8 0.722681 0.658749 0.500000
O O9 0.732451 0.682780 0.385628
O O10 0.753521 0.591173 0.419239
O O11 0.000000 0.652104 0.440224
O O12 0.500000 0.500000 0.061911
O O13 0.500000 0.419966 0.000000
O O14 0.250000 0.750000 0.696924
O O15 0.000000 0.689611 0.679876
O O16 0.756308 0.500000 0.612886
O O17 0.000000 0.440370 0.647073
#
# Coordination Sequence:
#
# PCOD8268075 Si02
#       6
#    16  16  16   8  16  16
#     4  11  20  31  48  69  95 127 162 205 250 301
#     4  10  19  31  49  74 105 142 179 214 250 289
#     4   8  15  28  45  65  89 118 155 196 241 300
#     4   9  18  32  48  72 108 146 183 215 243 283
#     4  10  20  34  50  69  92 119 151 196 256 310
#     4   9  17  28  43  65  92 122 157 198 247 297
#
# _framework density 17.555914999999999
#
# number of rings (size 3 to 8) (size 9 to 14) (size 15 to 20)
#    0.000    2.455    0.909    3.818    0.000    3.636 
#    0.000    3.636    0.000   13.091    0.000    5.091 
#    0.000    0.727    0.364    0.000    0.000    0.000 
#
# Total GULP energy -545430.779686 kJ/mol
# GULP energy per Si atom -12396.154084 kJ/mol
# Density = 1.751596 g / cm^3
# Si number density = 17.555915 Si / 1000 Ang^3
#
#
#
# Elastic Constant Matrix: (Units=GPa)
#
#
# Indices 1 2 3 4 5 6 
#
# 1 82.0812 13.7100 30.5189 0.0000 0.0000 0.0000
# 2 13.7100 80.3240 22.2294 0.0000 0.0000 0.0000
# 3 30.5189 22.2294 99.9527 0.0000 0.0000 0.0000
# 4 0.0000 0.0000 0.0000 14.6050 0.0000 0.0000
# 5 0.0000 0.0000 0.0000 0.0000 19.3069 0.0000
# 6 0.0000 0.0000 0.0000 0.0000 0.0000 18.4422
#
#
#
# Elastic Compliance Matrix: (Units=1/GPa)
#
#
# Indices 1 2 3 4 5 6 
#
# 1 0.013864 -0.001273 -0.003950 0.000000 0.000000 0.000000
# 2 -0.001273 0.013383 -0.002588 0.000000 0.000000 0.000000
# 3 -0.003950 -0.002588 0.011786 0.000000 0.000000 0.000000
# 4 0.000000 0.000000 0.000000 0.068470 0.000000 0.000000
# 5 0.000000 0.000000 0.000000 0.000000 0.051795 0.000000
# 6 0.000000 0.000000 0.000000 0.000000 0.000000 0.054224
#
#
# Mechanical properties :
#
#
# Convention : Reuss Voigt Hill
#
# Bulk Modulus (GPa) = 42.71345 43.91939 43.31642
# Shear Modulus (GPa) = 21.10170 23.53079 22.31625
#
# Velocity S-wave (km/s) = 3.47071 3.66503 3.56919
# Velocity P-wave (km/s) = 6.35955 6.55600 6.45852
#
# Compressibility (1/GPa) = 0.02341183
#
# Stress axis : x y z
#
# Youngs Moduli (GPa) = 72.12700 74.72162 84.84421
#
# Poissons Ratio (x) = 0.09514 0.33514
# Poissons Ratio (y) = 0.09184 0.21954
# Poissons Ratio (z) = 0.28491 0.19335
#
# Static dielectric constant tensor:
#      x y z
#    x 3.213770 0.000000 0.000000 
#    y 0.000000 2.953570 0.000000 
#    z 0.000000 0.000000 3.241260 
# 
# 
# High freq. dielectric constant tensor:
#      x y z
#    x 1.678890 0.000000 0.000000 
#    y 0.000000 1.654090 0.000000 
#    z 0.000000 0.000000 1.654910 
# 
# From -- ./inp_files/60248.got.cif
#   From: 2010.03.12/outbox.cif.g09.slc.cpg/sg65_31_cif.got.tgz:60248.got - 2010.04.10 20:52:16.
