data_PCOD8268530
_publ_section_title
;
Structure prediction by ZEFSAII (Michael W. Deem and Ramdas Pophale) SiO2 
 PCOD8268530
Probable space group: C M M M
;
_chemical_formula_sum "Si O2"
_cell_formula_units_Z 80
_cell_length_a 18.378694
_cell_length_b 8.923064
_cell_length_c 26.021862
_cell_angle_alpha 90.000000
_cell_angle_beta 90.000000
_cell_angle_gamma 90.000000
_cell_volume 4267.436075
_symmetry_space_group_name_H-M "C M M M"
_symmetry_group_IT_number 65
_symmetry_cell_setting 'orthorhombic'
loop_
_space_group_symop_operation_xyz
x,y,z
-x,-y,z
x,-y,-z
-x,y,-z
-x,-y,-z
x,y,-z
-x,y,z
x,-y,z
1/2+x,1/2+y,z
1/2-x,1/2-y,z
1/2+x,1/2-y,-z
1/2-x,1/2+y,-z
1/2-x,1/2-y,-z
1/2+x,1/2+y,-z
1/2-x,1/2+y,z
1/2+x,1/2-y,z
loop_
_atom_site_type_symbol
_atom_site_label
_atom_site_fract_x
_atom_site_fract_y
_atom_site_fract_z
Si Si1 0.172027 0.675330 0.889212
Si Si2 0.413852 0.174451 0.500000
Si Si3 0.580735 0.677760 0.688893
Si Si4 0.085943 0.167862 0.197713
Si Si5 0.173375 0.674114 0.000000
Si Si6 0.828741 0.178932 0.408035
O O1 0.184122 0.500000 0.884476
O O2 0.250000 0.750000 0.881617
O O3 0.117682 0.724389 0.845090
O O4 0.135529 0.717828 0.945399
O O5 0.500000 0.194276 0.500000
O O6 0.382573 0.256869 0.549555
O O7 0.391113 0.000000 0.500000
O O8 0.500000 0.743643 0.676577
O O9 0.574664 0.500000 0.688931
O O10 0.607368 0.729686 0.745515
O O11 0.638933 0.731730 0.646805
O O12 0.000000 0.167491 0.192392
O O13 0.116708 0.000000 0.189683
O O14 0.250000 0.750000 0.000000
O O15 0.188547 0.500000 0.000000
O O16 0.750000 0.250000 0.415494
O O17 0.823818 0.000000 0.413037
#
# Coordination Sequence:
#
# PCOD8268530 Si02
#       6
#    16   8  16  16   8  16
#     4  10  19  32  51  74 100 131 171 215 260 311
#     4  11  24  41  60  83 111 141 176 219 264 309
#     4   8  16  33  56  78 101 135 177 216 256 306
#     4   9  18  34  54  76 105 138 171 211 259 308
#     4   8  16  30  47  68  95 129 167 211 259 306
#     4  11  22  37  58  83 112 143 177 216 259 307
#
# _framework density 18.746618999999999
#
# number of rings (size 3 to 8) (size 9 to 14) (size 15 to 20)
#    0.000    2.500    0.000    3.600    0.000    3.600 
#    0.000    4.500    0.000    5.400    0.000    0.000 
#    0.000    0.000    0.000    0.000    0.000    0.000 
#
# Total GULP energy -495682.501855 kJ/mol
# GULP energy per Si atom -12392.062546 kJ/mol
# Density = 1.870395 g / cm^3
# Si number density = 18.746619 Si / 1000 Ang^3
#
#
#
# Elastic Constant Matrix: (Units=GPa)
#
#
# Indices 1 2 3 4 5 6 
#
# 1 67.6908 32.6212 59.2894 0.0000 0.0000 0.0000
# 2 32.6212 67.7930 53.1091 0.0000 0.0000 0.0000
# 3 59.2894 53.1091 174.5892 0.0000 0.0000 0.0000
# 4 0.0000 0.0000 0.0000 11.1496 0.0000 0.0000
# 5 0.0000 0.0000 0.0000 0.0000 34.7240 0.0000
# 6 0.0000 0.0000 0.0000 0.0000 0.0000 24.1375
#
#
#
# Elastic Compliance Matrix: (Units=1/GPa)
#
#
# Indices 1 2 3 4 5 6 
#
# 1 0.023022 -0.006503 -0.005840 0.000000 0.000000 0.000000
# 2 -0.006503 0.021203 -0.004241 0.000000 0.000000 0.000000
# 3 -0.005840 -0.004241 0.009001 0.000000 0.000000 0.000000
# 4 0.000000 0.000000 0.000000 0.089689 0.000000 0.000000
# 5 0.000000 0.000000 0.000000 0.000000 0.028799 0.000000
# 6 0.000000 0.000000 0.000000 0.000000 0.000000 0.041429
#
#
# Mechanical properties :
#
#
# Convention : Reuss Voigt Hill
#
# Bulk Modulus (GPa) = 49.85718 66.67916 58.26817
# Shear Modulus (GPa) = 19.76305 25.00577 22.38441
#
# Velocity S-wave (km/s) = 3.25040 3.65620 3.45925
# Velocity P-wave (km/s) = 6.38277 7.31229 6.86328
#
# Compressibility (1/GPa) = 0.02005729
#
# Stress axis : x y z
#
# Youngs Moduli (GPa) = 43.43656 47.16396 111.09676
#
# Poissons Ratio (x) = 0.30670 0.64880
# Poissons Ratio (y) = 0.28246 0.47120
# Poissons Ratio (z) = 0.25367 0.20004
#
# Static dielectric constant tensor:
#      x y z
#    x 3.241370 0.000000 0.000000 
#    y 0.000000 3.235890 0.000000 
#    z 0.000000 0.000000 4.161590 
# 
# 
# High freq. dielectric constant tensor:
#      x y z
#    x 1.708310 0.000000 0.000000 
#    y 0.000000 1.715190 0.000000 
#    z 0.000000 0.000000 1.753630 
# 
# From -- ./inp_files/75071.got.cif
#   From: 2010.03.12/outbox.cif.g09.slc.cpg/sg65_38_cif.got.tgz:75071.got - 2010.04.10 20:52:16.
