data_PCOD8268593
_publ_section_title
;
Structure prediction by ZEFSAII (Michael W. Deem and Ramdas Pophale) SiO2 
 PCOD8268593
Probable space group: C M M M
;
_chemical_formula_sum "Si O2"
_cell_formula_units_Z 80
_cell_length_a 19.033287
_cell_length_b 9.987999
_cell_length_c 23.896808
_cell_angle_alpha 90.000000
_cell_angle_beta 90.000000
_cell_angle_gamma 90.000000
_cell_volume 4542.889578
_symmetry_space_group_name_H-M "C M M M"
_symmetry_group_IT_number 65
_symmetry_cell_setting 'orthorhombic'
loop_
_space_group_symop_operation_xyz
x,y,z
-x,-y,z
x,-y,-z
-x,y,-z
-x,-y,-z
x,y,-z
-x,y,z
x,-y,z
1/2+x,1/2+y,z
1/2-x,1/2-y,z
1/2+x,1/2-y,-z
1/2-x,1/2+y,-z
1/2-x,1/2-y,-z
1/2+x,1/2+y,-z
1/2-x,1/2+y,z
1/2+x,1/2-y,z
loop_
_atom_site_type_symbol
_atom_site_label
_atom_site_fract_x
_atom_site_fract_y
_atom_site_fract_z
Si Si1 0.419045 0.348475 0.340392
Si Si2 0.333353 0.246903 0.866227
Si Si3 0.670797 0.000000 0.061488
Si Si4 0.582327 0.843465 0.239328
Si Si5 0.837043 0.000000 0.936754
Si Si6 0.311953 0.347266 0.436306
O O1 0.500000 0.333071 0.355896
O O2 0.403066 0.500000 0.318326
O O3 0.397082 0.237489 0.295019
O O4 0.378246 0.317909 0.397350
O O5 0.250000 0.250000 0.854375
O O6 0.373451 0.230557 0.808257
O O7 0.361334 0.374500 0.900050
O O8 0.356697 0.127110 0.905755
O O9 0.754051 0.000000 0.056581
O O10 0.636940 0.000000 0.000000
O O11 0.500000 0.829369 0.225749
O O12 0.603587 0.000000 0.245634
O O13 0.869737 0.000000 0.000000
O O14 0.334729 0.316346 0.500000
O O15 0.285682 0.500000 0.430027
O O16 0.250000 0.250000 0.416734
#
# Coordination Sequence:
#
# PCOD8268593 Si02
#       6
#    16  16   8  16   8  16
#     4   9  19  35  54  76 100 133 176 215 254 299
#     4  10  19  32  51  77 102 129 168 209 252 304
#     4   9  16  30  51  73 101 131 164 207 250 299
#     4  10  21  37  54  72 100 137 173 211 256 303
#     4   9  18  30  49  77 103 129 162 207 258 301
#     4   9  18  33  53  79 110 141 171 207 254 303
#
# _framework density 17.609936999999999
#
# number of rings (size 3 to 8) (size 9 to 14) (size 15 to 20)
#    0.000    2.600    1.000    0.600    1.400    4.400 
#    0.000    4.000    0.000    3.600    0.000    5.600 
#    0.000    0.000    0.000    0.000    0.000    0.000 
#
# Total GULP energy -495894.730782 kJ/mol
# GULP energy per Si atom -12397.368270 kJ/mol
# Density = 1.756986 g / cm^3
# Si number density = 17.609937 Si / 1000 Ang^3
#
#
#
# Elastic Constant Matrix: (Units=GPa)
#
#
# Indices 1 2 3 4 5 6 
#
# 1 50.5549 42.6216 58.5296 0.0000 0.0000 0.0000
# 2 42.6216 139.5891 78.1081 0.0000 0.0000 0.0000
# 3 58.5296 78.1081 134.1693 0.0000 0.0000 0.0000
# 4 0.0000 0.0000 0.0000 24.2779 0.0000 0.0000
# 5 0.0000 0.0000 0.0000 0.0000 10.8218 0.0000
# 6 0.0000 0.0000 0.0000 0.0000 0.0000 22.5780
#
#
#
# Elastic Compliance Matrix: (Units=1/GPa)
#
#
# Indices 1 2 3 4 5 6 
#
# 1 0.041244 -0.003746 -0.015812 0.000000 0.000000 0.000000
# 2 -0.003746 0.010965 -0.004749 0.000000 0.000000 0.000000
# 3 -0.015812 -0.004749 0.017116 0.000000 0.000000 0.000000
# 4 0.000000 0.000000 0.000000 0.041190 0.000000 0.000000
# 5 0.000000 0.000000 0.000000 0.000000 0.092406 0.000000
# 6 0.000000 0.000000 0.000000 0.000000 0.000000 0.044291
#
#
# Mechanical properties :
#
#
# Convention : Reuss Voigt Hill
#
# Bulk Modulus (GPa) = 48.28235 75.87021 62.07628
# Shear Modulus (GPa) = 16.51639 21.20580 18.86110
#
# Velocity S-wave (km/s) = 3.06584 3.47392 3.27624
# Velocity P-wave (km/s) = 6.32532 7.69858 7.04549
#
# Compressibility (1/GPa) = 0.02071150
#
# Stress axis : x y z
#
# Youngs Moduli (GPa) = 24.24585 91.19747 58.42564
#
# Poissons Ratio (x) = 0.34161 0.92380
# Poissons Ratio (y) = 0.09082 0.27749
# Poissons Ratio (z) = 0.38336 0.43314
#
# Static dielectric constant tensor:
#      x y z
#    x 2.980040 0.000000 0.000000 
#    y 0.000000 3.537070 0.000000 
#    z 0.000000 0.000000 3.339690 
# 
# 
# High freq. dielectric constant tensor:
#      x y z
#    x 1.649600 0.000000 0.000000 
#    y 0.000000 1.696220 0.000000 
#    z 0.000000 0.000000 1.687870 
# 
# From -- ./inp_files/67352.got.cif
#   From: 2010.03.12/outbox.cif.g09.slc.cpg/sg65_34_cif.got.tgz:67352.got - 2010.04.10 20:52:16.
