data_PCOD8268921
_publ_section_title
;
Structure prediction by ZEFSAII (Michael W. Deem and Ramdas Pophale) SiO2 
 PCOD8268921
Probable space group: C M M M
;
_chemical_formula_sum "Si O2"
_cell_formula_units_Z 104
_cell_length_a 28.371625
_cell_length_b 9.069109
_cell_length_c 22.876874
_cell_angle_alpha 90.000000
_cell_angle_beta 90.000000
_cell_angle_gamma 90.000000
_cell_volume 5886.342292
_symmetry_space_group_name_H-M "C M M M"
_symmetry_group_IT_number 65
_symmetry_cell_setting 'orthorhombic'
loop_
_space_group_symop_operation_xyz
x,y,z
-x,-y,z
x,-y,-z
-x,y,-z
-x,-y,-z
x,y,-z
-x,y,z
x,-y,z
1/2+x,1/2+y,z
1/2-x,1/2-y,z
1/2+x,1/2-y,-z
1/2-x,1/2+y,-z
1/2-x,1/2-y,-z
1/2+x,1/2+y,-z
1/2-x,1/2+y,z
1/2+x,1/2-y,z
loop_
_atom_site_type_symbol
_atom_site_label
_atom_site_fract_x
_atom_site_fract_y
_atom_site_fract_z
Si Si1 0.390718 0.325003 0.386671
Si Si2 0.605764 0.172716 0.832522
Si Si3 0.552697 0.674683 0.500000
Si Si4 0.055275 0.330590 0.715041
Si Si5 0.796782 0.671591 0.780185
Si Si6 0.553071 0.673108 0.933653
Si Si7 0.702220 0.173500 0.355500
O O1 0.383409 0.500000 0.385602
O O2 0.420208 0.270412 0.442551
O O3 0.418523 0.276792 0.329125
O O4 0.340414 0.245541 0.391234
O O5 0.570011 0.214171 0.780457
O O6 0.658210 0.228281 0.816384
O O7 0.590318 0.250300 0.891694
O O8 0.605623 0.000000 0.843905
O O9 0.549611 0.500000 0.500000
O O10 0.500000 0.742625 0.500000
O O11 0.070416 0.500000 0.702420
O O12 0.000000 0.307539 0.708019
O O13 0.788829 0.500000 0.788858
O O14 0.750000 0.750000 0.804177
O O15 0.806042 0.709419 0.712570
O O16 0.500000 0.728464 0.919972
O O17 0.556045 0.500000 0.923834
O O18 0.566583 0.714383 0.000000
O O19 0.750000 0.250000 0.377718
O O20 0.704770 0.000000 0.367909
#
# Coordination Sequence:
#
# PCOD8268921 Si02
#       7
#    16  16   8  16  16  16  16
#     4  11  21  35  56  79 104 139 180 221 268 319
#     4  10  19  33  52  77 106 137 172 214 263 312
#     4   9  20  38  56  75 104 141 182 227 266 309
#     4  10  20  34  51  74 108 142 170 214 272 319
#     4   9  18  32  51  75 106 137 168 208 258 311
#     4   9  19  35  52  73 105 142 178 218 261 305
#     4  10  19  35  56  80 110 139 172 215 266 320
#
# _framework density 17.668018
#
# number of rings (size 3 to 8) (size 9 to 14) (size 15 to 20)
#    0.000    2.231    1.538    2.308    0.000    4.000 
#    0.000    2.692    0.000    3.231    0.000    0.000 
#    0.000    0.000    0.000    0.000    0.000    0.000 
#
# Total GULP energy -644913.551323 kJ/mol
# GULP energy per Si atom -12402.183679 kJ/mol
# Density = 1.762780 g / cm^3
# Si number density = 17.668018 Si / 1000 Ang^3
#
#
#
# Elastic Constant Matrix: (Units=GPa)
#
#
# Indices 1 2 3 4 5 6 
#
# 1 149.4937 53.5967 61.7970 0.0000 0.0000 0.0000
# 2 53.5967 60.4642 38.1517 0.0000 0.0000 0.0000
# 3 61.7970 38.1517 86.8107 0.0000 0.0000 0.0000
# 4 0.0000 0.0000 0.0000 22.6301 0.0000 0.0000
# 5 0.0000 0.0000 0.0000 0.0000 31.4486 0.0000
# 6 0.0000 0.0000 0.0000 0.0000 0.0000 34.1420
#
#
#
# Elastic Compliance Matrix: (Units=1/GPa)
#
#
# Indices 1 2 3 4 5 6 
#
# 1 0.011172 -0.006760 -0.004982 0.000000 0.000000 0.000000
# 2 -0.006760 0.026974 -0.007043 0.000000 0.000000 0.000000
# 3 -0.004982 -0.007043 0.018161 0.000000 0.000000 0.000000
# 4 0.000000 0.000000 0.000000 0.044189 0.000000 0.000000
# 5 0.000000 0.000000 0.000000 0.000000 0.031798 0.000000
# 6 0.000000 0.000000 0.000000 0.000000 0.000000 0.029289
#
#
# Mechanical properties :
#
#
# Convention : Reuss Voigt Hill
#
# Bulk Modulus (GPa) = 53.36658 67.09549 60.23104
# Shear Modulus (GPa) = 24.34271 27.19235 25.76753
#
# Velocity S-wave (km/s) = 3.71588 3.92736 3.82308
# Velocity P-wave (km/s) = 6.97718 7.65661 7.32478
#
# Compressibility (1/GPa) = 0.01873832
#
# Stress axis : x y z
#
# Youngs Moduli (GPa) = 89.50711 37.07207 55.06208
#
# Poissons Ratio (x) = 0.25059 0.27434
# Poissons Ratio (y) = 0.60503 0.38780
# Poissons Ratio (z) = 0.44596 0.26110
#
# Static dielectric constant tensor:
#      x y z
#    x 3.513640 0.000000 0.000000 
#    y 0.000000 3.156500 0.000000 
#    z 0.000000 0.000000 3.155810 
# 
# 
# High freq. dielectric constant tensor:
#      x y z
#    x 1.695520 0.000000 0.000000 
#    y 0.000000 1.676450 0.000000 
#    z 0.000000 0.000000 1.665110 
# 
# From -- ./inp_files/60800.got.cif
#   From: 2010.03.12/outbox.cif.g09.slc.cpg/sg65_31_cif.got.tgz:60800.got - 2010.04.10 20:52:16.
