data_PCOD8268132
_publ_section_title
;
Structure prediction by ZEFSAII (Michael W. Deem and Ramdas Pophale) SiO2 
 PCOD8268132
Probable space group: C M M M
;
_chemical_formula_sum "Si O2"
_cell_formula_units_Z 88
_cell_length_a 9.286459
_cell_length_b 19.345419
_cell_length_c 28.468902
_cell_angle_alpha 90.000000
_cell_angle_beta 90.000000
_cell_angle_gamma 90.000000
_cell_volume 5114.450781
_symmetry_space_group_name_H-M "C M M M"
_symmetry_group_IT_number 65
_symmetry_cell_setting 'orthorhombic'
loop_
_space_group_symop_operation_xyz
x,y,z
-x,-y,z
x,-y,-z
-x,y,-z
-x,-y,-z
x,y,-z
-x,y,z
x,-y,z
1/2+x,1/2+y,z
1/2-x,1/2-y,z
1/2+x,1/2-y,-z
1/2-x,1/2+y,-z
1/2-x,1/2-y,-z
1/2+x,1/2+y,-z
1/2-x,1/2+y,z
1/2+x,1/2-y,z
loop_
_atom_site_type_symbol
_atom_site_label
_atom_site_fract_x
_atom_site_fract_y
_atom_site_fract_z
Si Si1 0.168475 0.079788 0.090841
Si Si2 0.336053 0.319040 0.275735
Si Si3 0.331164 0.322718 0.377582
Si Si4 0.831857 0.822072 0.825902
Si Si5 0.837229 0.582162 0.000000
Si Si6 0.336090 0.919935 0.554115
O O1 0.221466 0.122750 0.135927
O O2 0.000000 0.089390 0.080561
O O3 0.205825 0.000000 0.100724
O O4 0.254933 0.109231 0.046134
O O5 0.500000 0.295816 0.275698
O O6 0.250000 0.250000 0.275677
O O7 0.303206 0.357264 0.325420
O O8 0.301528 0.357038 0.225983
O O9 0.500000 0.310181 0.386587
O O10 0.250000 0.250000 0.382796
O O11 0.273869 0.376070 0.415453
O O12 0.750000 0.750000 0.832651
O O13 0.000000 0.806509 0.832597
O O14 0.834651 0.500000 0.000000
O O15 0.000000 0.610946 0.000000
O O16 0.313408 0.899654 0.500000
O O17 0.500000 0.903985 0.569311
O O18 0.300400 0.000000 0.562054
#
# Coordination Sequence:
#
# PCOD8268132 Si02
#       6
#    16  16  16  16   8  16
#     4   9  17  30  48  68  90 118 152 187 224 270
#     4   8  15  28  45  67  94 123 154 186 225 272
#     4  10  19  31  50  75 100 126 159 199 238 278
#     4   9  17  30  48  69  93 122 154 187 226 271
#     4   9  17  29  46  67  90 117 149 187 230 271
#     4   9  19  36  54  70  93 127 162 196 239 289
#
# _framework density 17.206149
#
# number of rings (size 3 to 8) (size 9 to 14) (size 15 to 20)
#    0.000    3.000    0.000    1.364    0.000    3.636 
#    0.000    2.273    0.000    3.273    0.000    2.545 
#    0.000    0.000    0.000    0.000    0.000    0.000 
#
# Total GULP energy -545100.959221 kJ/mol
# GULP energy per Si atom -12388.658164 kJ/mol
# Density = 1.716699 g / cm^3
# Si number density = 17.206149 Si / 1000 Ang^3
#
#
#
# Elastic Constant Matrix: (Units=GPa)
#
#
# Indices 1 2 3 4 5 6 
#
# 1 73.3303 36.7293 65.2721 0.0000 0.0000 0.0000
# 2 36.7293 57.8362 63.4768 0.0000 0.0000 0.0000
# 3 65.2721 63.4768 158.2229 0.0000 0.0000 0.0000
# 4 0.0000 0.0000 0.0000 7.0769 0.0000 0.0000
# 5 0.0000 0.0000 0.0000 0.0000 26.9052 0.0000
# 6 0.0000 0.0000 0.0000 0.0000 0.0000 24.0645
#
#
#
# Elastic Compliance Matrix: (Units=1/GPa)
#
#
# Indices 1 2 3 4 5 6 
#
# 1 0.023272 -0.007580 -0.006560 0.000000 0.000000 0.000000
# 2 -0.007580 0.033361 -0.010257 0.000000 0.000000 0.000000
# 3 -0.006560 -0.010257 0.013141 0.000000 0.000000 0.000000
# 4 0.000000 0.000000 0.000000 0.141305 0.000000 0.000000
# 5 0.000000 0.000000 0.000000 0.000000 0.037168 0.000000
# 6 0.000000 0.000000 0.000000 0.000000 0.000000 0.041555
#
#
# Mechanical properties :
#
#
# Convention : Reuss Voigt Hill
#
# Bulk Modulus (GPa) = 47.66074 68.92731 58.29403
# Shear Modulus (GPa) = 14.46803 19.87006 17.16904
#
# Velocity S-wave (km/s) = 2.90291 3.40196 3.16229
# Velocity P-wave (km/s) = 6.24466 7.45505 6.87654
#
# Compressibility (1/GPa) = 0.02098163
#
# Stress axis : x y z
#
# Youngs Moduli (GPa) = 42.96953 29.97470 76.09588
#
# Poissons Ratio (x) = 0.22720 0.49916
# Poissons Ratio (y) = 0.32570 0.78053
# Poissons Ratio (z) = 0.28186 0.30746
#
# Static dielectric constant tensor:
#      x y z
#    x 3.104570 0.000000 0.000000 
#    y 0.000000 2.765360 0.000000 
#    z 0.000000 0.000000 3.900230 
# 
# 
# High freq. dielectric constant tensor:
#      x y z
#    x 1.668540 0.000000 0.000000 
#    y 0.000000 1.619900 0.000000 
#    z 0.000000 0.000000 1.687060 
# 
# From -- ./inp_files/76460.got.cif
#   From: 2010.03.12/outbox.cif.g09.slc.cpg/sg65_39_cif.got.tgz:76460.got - 2010.04.10 20:52:16.
