data_PCOD8268668
_publ_section_title
;
Structure prediction by ZEFSAII (Michael W. Deem and Ramdas Pophale) SiO2 
 PCOD8268668
Probable space group: C M M M
;
_chemical_formula_sum "Si O2"
_cell_formula_units_Z 104
_cell_length_a 18.279798
_cell_length_b 28.088410
_cell_length_c 11.141611
_cell_angle_alpha 90.000000
_cell_angle_beta 90.000000
_cell_angle_gamma 90.000000
_cell_volume 5720.665304
_symmetry_space_group_name_H-M "C M M M"
_symmetry_group_IT_number 65
_symmetry_cell_setting 'orthorhombic'
loop_
_space_group_symop_operation_xyz
x,y,z
-x,-y,z
x,-y,-z
-x,y,-z
-x,-y,-z
x,y,-z
-x,y,z
x,-y,z
1/2+x,1/2+y,z
1/2-x,1/2-y,z
1/2+x,1/2-y,-z
1/2-x,1/2+y,-z
1/2-x,1/2-y,-z
1/2+x,1/2+y,-z
1/2-x,1/2+y,z
1/2+x,1/2-y,z
loop_
_atom_site_type_symbol
_atom_site_label
_atom_site_fract_x
_atom_site_fract_y
_atom_site_fract_z
Si Si1 0.632886 0.762133 0.500000
Si Si2 0.174469 0.892760 0.298116
Si Si3 0.582653 0.777043 0.242053
Si Si4 0.082704 0.625948 0.140681
Si Si5 0.584546 0.444015 0.500000
Si Si6 0.725997 0.672612 0.500000
Si Si7 0.085624 0.820412 0.139746
Si Si8 0.291112 0.055234 0.138942
O O1 0.584101 0.772841 0.384955
O O2 0.655075 0.706700 0.500000
O O3 0.702347 0.796039 0.500000
O O4 0.120825 0.923505 0.380350
O O5 0.225146 0.859326 0.380677
O O6 0.126260 0.862277 0.207577
O O7 0.224778 0.927771 0.221309
O O8 0.500000 0.779387 0.195227
O O9 0.618937 0.826557 0.199376
O O10 0.619490 0.730600 0.181277
O O11 0.134011 0.581809 0.175842
O O12 0.000000 0.615747 0.188355
O O13 0.081391 0.634439 0.000000
O O14 0.595508 0.500000 0.500000
O O15 0.500000 0.429135 0.500000
O O16 0.000000 0.822889 0.172313
O O17 0.100179 0.827225 0.000000
O O18 0.305367 0.000000 0.163059
O O19 0.271195 0.065138 0.000000
#
# Coordination Sequence:
#
# PCOD8268668 Si02
#       8
#     8  16  16  16   8   8  16  16
#     4  11  19  34  46  73 104 140 171 212 250 301
#     4  11  20  37  54  78 104 143 171 222 265 321
#     4  10  19  32  52  76 106 141 177 215 258 312
#     4   9  18  34  55  79 109 144 181 221 266 319
#     4  10  22  38  58  81 103 134 179 226 269 316
#     4  10  22  32  51  70 103 136 176 209 253 305
#     4  10  20  33  51  76 106 140 176 212 255 312
#     4  10  21  36  56  81 107 138 179 228 279 327
#
# _framework density 18.179704000000001
#
# number of rings (size 3 to 8) (size 9 to 14) (size 15 to 20)
#    0.000    1.923    1.538    3.000    0.000    2.154 
#    0.000    1.538    0.000    3.692    0.000    6.462 
#    0.000   10.462    0.000    0.000    0.000    0.000 
#
# Total GULP energy -644844.210450 kJ/mol
# GULP energy per Si atom -12400.850201 kJ/mol
# Density = 1.813833 g / cm^3
# Si number density = 18.179704 Si / 1000 Ang^3
#
#
#
# Elastic Constant Matrix: (Units=GPa)
#
#
# Indices 1 2 3 4 5 6 
#
# 1 77.2373 59.4715 43.6993 0.0000 0.0000 0.0000
# 2 59.4715 135.9047 57.2634 0.0000 0.0000 0.0000
# 3 43.6993 57.2634 94.8766 0.0000 0.0000 0.0000
# 4 0.0000 0.0000 0.0000 25.2508 0.0000 0.0000
# 5 0.0000 0.0000 0.0000 0.0000 -0.8715 0.0000
# 6 0.0000 0.0000 0.0000 0.0000 0.0000 27.9531
#
#
#
# Elastic Compliance Matrix: (Units=1/GPa)
#
#
# Indices 1 2 3 4 5 6 
#
# 1 0.021598 -0.007053 -0.005691 0.000000 0.000000 0.000000
# 2 -0.007053 0.012171 -0.004097 0.000000 0.000000 0.000000
# 3 -0.005691 -0.004097 0.015634 0.000000 0.000000 0.000000
# 4 0.000000 0.000000 0.000000 0.039603 0.000000 0.000000
# 5 0.000000 0.000000 0.000000 0.000000 -1.147420 0.000000
# 6 0.000000 0.000000 0.000000 0.000000 0.000000 0.035774
#
#
# Mechanical properties :
#
#
# Convention : Reuss Voigt Hill
#
# Bulk Modulus (GPa) = 63.61180 69.87633 66.74407
# Shear Modulus (GPa) = -5.08276 20.30543 7.61133
#
# Velocity S-wave (km/s) = -1.67389 3.34567 2.04837
# Velocity P-wave (km/s) = 5.59738 7.31058 6.51058
#
# Compressibility (1/GPa) = 0.01572035
#
# Stress axis : x y z
#
# Youngs Moduli (GPa) = 46.30119 82.16279 63.96355
#
# Poissons Ratio (x) = 0.57952 0.36399
# Poissons Ratio (y) = 0.32658 0.26207
# Poissons Ratio (z) = 0.26348 0.33663
#
# Static dielectric constant tensor:
#      x y z
#    x 3.266360 0.000000 0.000000 
#    y 0.000000 3.488060 0.000000 
#    z 0.000000 0.000000 3.372360 
# 
# 
# High freq. dielectric constant tensor:
#      x y z
#    x 1.693180 0.000000 0.000000 
#    y 0.000000 1.713680 0.000000 
#    z 0.000000 0.000000 1.708910 
# 
# From -- ./inp_files/27536.got.cif
#   From: 2010.03.12/outbox.cif.g09.slc.cpg/sg65_14_cif.got.tgz:27536.got - 2010.04.10 20:52:16.
