data_PCOD8268527
_publ_section_title
;
Structure prediction by ZEFSAII (Michael W. Deem and Ramdas Pophale) SiO2 
 PCOD8268527
Probable space group: C M M M
;
_chemical_formula_sum "Si O2"
_cell_formula_units_Z 80
_cell_length_a 27.506977
_cell_length_b 9.040258
_cell_length_c 18.440086
_cell_angle_alpha 90.000000
_cell_angle_beta 90.000000
_cell_angle_gamma 90.000000
_cell_volume 4585.499300
_symmetry_space_group_name_H-M "C M M M"
_symmetry_group_IT_number 65
_symmetry_cell_setting 'orthorhombic'
loop_
_space_group_symop_operation_xyz
x,y,z
-x,-y,z
x,-y,-z
-x,y,-z
-x,-y,-z
x,y,-z
-x,y,z
x,-y,z
1/2+x,1/2+y,z
1/2-x,1/2-y,z
1/2+x,1/2-y,-z
1/2-x,1/2+y,-z
1/2-x,1/2-y,-z
1/2+x,1/2+y,-z
1/2-x,1/2+y,z
1/2+x,1/2-y,z
loop_
_atom_site_type_symbol
_atom_site_label
_atom_site_fract_x
_atom_site_fract_y
_atom_site_fract_z
Si Si1 0.113427 0.827051 0.704210
Si Si2 0.055674 0.330264 0.583955
Si Si3 0.698606 0.824733 0.781184
Si Si4 0.054485 0.172874 0.845922
Si Si5 0.638894 0.828209 0.080901
O O1 0.091406 0.775624 0.628140
O O2 0.162557 0.736630 0.719744
O O3 0.074125 0.789947 0.766010
O O4 0.125942 0.000000 0.700974
O O5 0.068674 0.309197 0.500000
O O6 0.063689 0.500000 0.607505
O O7 0.000000 0.283547 0.598447
O O8 0.750000 0.750000 0.768615
O O9 0.679156 0.776519 0.860890
O O10 0.703423 0.000000 0.773478
O O11 0.087818 0.247234 0.906756
O O12 0.000000 0.236665 0.852093
O O13 0.055184 0.000000 0.860980
O O14 0.628281 0.000000 0.090838
O O15 0.658046 0.790882 0.000000
#
# Coordination Sequence:
#
# PCOD8268527 Si02
#       5
#    16  16  16  16  16
#     4  10  19  32  51  74 100 130 166 207 246 288
#     4   9  18  32  50  75 108 142 171 199 236 283
#     4  10  20  35  54  74  96 124 160 203 251 300
#     4   9  18  31  46  67  96 129 164 201 241 285
#     4   9  19  34  49  68  95 125 159 200 245 294
#
# _framework density 17.446300000000001
#
# number of rings (size 3 to 8) (size 9 to 14) (size 15 to 20)
#    0.000    2.600    0.000    2.400    0.000    4.800 
#    0.000    3.000    0.000    0.600    0.000    0.000 
#    0.000    0.000    0.000    0.000    0.000    0.000 
#
# Total GULP energy -496059.736461 kJ/mol
# GULP energy per Si atom -12401.493412 kJ/mol
# Density = 1.740659 g / cm^3
# Si number density = 17.446300 Si / 1000 Ang^3
#
#
#
# Elastic Constant Matrix: (Units=GPa)
#
#
# Indices 1 2 3 4 5 6 
#
# 1 119.2994 45.3560 41.8419 0.0000 0.0000 0.0000
# 2 45.3560 63.2583 34.1552 0.0000 0.0000 0.0000
# 3 41.8419 34.1552 81.6131 0.0000 0.0000 0.0000
# 4 0.0000 0.0000 0.0000 28.4922 0.0000 0.0000
# 5 0.0000 0.0000 0.0000 0.0000 18.3262 0.0000
# 6 0.0000 0.0000 0.0000 0.0000 0.0000 32.3259
#
#
#
# Elastic Compliance Matrix: (Units=1/GPa)
#
#
# Indices 1 2 3 4 5 6 
#
# 1 0.012193 -0.006934 -0.003349 0.000000 0.000000 0.000000
# 2 -0.006934 0.024366 -0.006642 0.000000 0.000000 0.000000
# 3 -0.003349 -0.006642 0.016750 0.000000 0.000000 0.000000
# 4 0.000000 0.000000 0.000000 0.035097 0.000000 0.000000
# 5 0.000000 0.000000 0.000000 0.000000 0.054567 0.000000
# 6 0.000000 0.000000 0.000000 0.000000 0.000000 0.030935
#
#
# Mechanical properties :
#
#
# Convention : Reuss Voigt Hill
#
# Bulk Modulus (GPa) = 51.39297 56.31967 53.85632
# Shear Modulus (GPa) = 23.33765 25.35004 24.34385
#
# Velocity S-wave (km/s) = 3.66141 3.81600 3.73950
# Velocity P-wave (km/s) = 6.88450 7.19497 7.04145
#
# Compressibility (1/GPa) = 0.01945791
#
# Stress axis : x y z
#
# Youngs Moduli (GPa) = 82.01265 41.04027 59.70171
#
# Poissons Ratio (x) = 0.28458 0.19996
# Poissons Ratio (y) = 0.56868 0.39656
# Poissons Ratio (z) = 0.27469 0.27260
#
# Static dielectric constant tensor:
#      x y z
#    x 3.206640 0.000000 0.000000 
#    y 0.000000 3.216680 0.000000 
#    z 0.000000 0.000000 3.179990 
# 
# 
# High freq. dielectric constant tensor:
#      x y z
#    x 1.665730 0.000000 0.000000 
#    y 0.000000 1.677330 0.000000 
#    z 0.000000 0.000000 1.664670 
# 
# From -- ./inp_files/49842.got.cif
#   From: 2010.03.12/outbox.cif.g09.slc.cpg/sg65_25_cif.got.tgz:49842.got - 2010.04.10 20:52:16.
