data_PCOD8268297
_publ_section_title
;
Structure prediction by ZEFSAII (Michael W. Deem and Ramdas Pophale) SiO2 
 PCOD8268297
Probable space group: C M M M
;
_chemical_formula_sum "Si O2"
_cell_formula_units_Z 104
_cell_length_a 23.367753
_cell_length_b 25.723925
_cell_length_c 9.103048
_cell_angle_alpha 90.000000
_cell_angle_beta 90.000000
_cell_angle_gamma 90.000000
_cell_volume 5471.936147
_symmetry_space_group_name_H-M "C M M M"
_symmetry_group_IT_number 65
_symmetry_cell_setting 'orthorhombic'
loop_
_space_group_symop_operation_xyz
x,y,z
-x,-y,z
x,-y,-z
-x,y,-z
-x,-y,-z
x,y,-z
-x,y,z
x,-y,z
1/2+x,1/2+y,z
1/2-x,1/2-y,z
1/2+x,1/2-y,-z
1/2-x,1/2+y,-z
1/2-x,1/2-y,-z
1/2+x,1/2+y,-z
1/2-x,1/2+y,z
1/2+x,1/2-y,z
loop_
_atom_site_type_symbol
_atom_site_label
_atom_site_fract_x
_atom_site_fract_y
_atom_site_fract_z
Si Si1 0.934717 0.500000 0.826529
Si Si2 0.274144 0.153865 0.330815
Si Si3 0.106059 0.402174 0.667079
Si Si4 0.832539 0.133027 0.825562
Si Si5 0.938204 0.312378 0.834876
Si Si6 0.827717 0.747706 0.828667
Si Si7 0.935524 0.059048 0.174325
O O1 0.899063 0.548266 0.768594
O O2 0.000000 0.500000 0.766786
O O3 0.934366 0.500000 0.000000
O O4 0.258692 0.164299 0.500000
O O5 0.331388 0.121376 0.312822
O O6 0.226282 0.116365 0.254780
O O7 0.280544 0.210714 0.251168
O O8 0.092427 0.417012 0.500000
O O9 0.060310 0.360401 0.723458
O O10 0.833643 0.193195 0.774525
O O11 0.887325 0.099746 0.766363
O O12 0.827563 0.126423 0.000000
O O13 0.890816 0.271548 0.788100
O O14 0.000000 0.284455 0.826481
O O15 0.926274 0.333237 0.000000
O O16 0.812934 0.744359 0.000000
O O17 0.000000 0.074136 0.229967
O O18 0.920675 0.000000 0.226230
O O19 0.935315 0.061145 0.000000
#
# Coordination Sequence:
#
# PCOD8268297 Si02
#       7
#     8  16  16  16  16  16  16
#     4  11  23  37  55  79 103 129 166 211 258 303
#     4  10  21  36  52  72 102 139 174 211 256 306
#     4  10  21  36  52  71  98 134 173 212 254 301
#     4  10  19  31  52  80 105 133 173 215 256 307
#     4   9  17  30  48  70  99 133 168 209 259 311
#     4   9  18  31  48  73 105 137 170 213 259 306
#     4   8  15  30  52  78 108 137 167 210 261 312
#
# _framework density 19.006070000000001
#
# number of rings (size 3 to 8) (size 9 to 14) (size 15 to 20)
#    0.000    2.538    0.000    2.538    0.000    7.692 
#    1.385    3.077    0.000    0.462    0.000    3.231 
#    0.000    0.000    0.000    0.000    0.000    0.000 
#
# Total GULP energy -644385.951850 kJ/mol
# GULP energy per Si atom -12392.037536 kJ/mol
# Density = 1.896281 g / cm^3
# Si number density = 19.006070 Si / 1000 Ang^3
#
#
#
# Elastic Constant Matrix: (Units=GPa)
#
#
# Indices 1 2 3 4 5 6 
#
# 1 112.9427 49.8423 26.1530 0.0000 0.0000 0.0000
# 2 49.8423 92.6984 27.8297 0.0000 0.0000 0.0000
# 3 26.1530 27.8297 55.4838 0.0000 0.0000 0.0000
# 4 0.0000 0.0000 0.0000 35.8340 0.0000 0.0000
# 5 0.0000 0.0000 0.0000 0.0000 20.6062 0.0000
# 6 0.0000 0.0000 0.0000 0.0000 0.0000 14.2944
#
#
#
# Elastic Compliance Matrix: (Units=1/GPa)
#
#
# Indices 1 2 3 4 5 6 
#
# 1 0.011978 -0.005587 -0.002844 0.000000 0.000000 0.000000
# 2 -0.005587 0.015306 -0.005044 0.000000 0.000000 0.000000
# 3 -0.002844 -0.005044 0.021894 0.000000 0.000000 0.000000
# 4 0.000000 0.000000 0.000000 0.027906 0.000000 0.000000
# 5 0.000000 0.000000 0.000000 0.000000 0.048529 0.000000
# 6 0.000000 0.000000 0.000000 0.000000 0.000000 0.069957
#
#
# Mechanical properties :
#
#
# Convention : Reuss Voigt Hill
#
# Bulk Modulus (GPa) = 44.98642 52.08609 48.53626
# Shear Modulus (GPa) = 21.74593 24.63359 23.18976
#
# Velocity S-wave (km/s) = 3.38621 3.60403 3.49682
# Velocity P-wave (km/s) = 6.24575 6.69202 6.47274
#
# Compressibility (1/GPa) = 0.02222893
#
# Stress axis : x y z
#
# Youngs Moduli (GPa) = 83.48675 65.33519 45.67537
#
# Poissons Ratio (x) = 0.36500 0.12989
# Poissons Ratio (y) = 0.46640 0.23038
# Poissons Ratio (z) = 0.23742 0.32954
#
# Static dielectric constant tensor:
#      x y z
#    x 3.755290 0.000000 0.000000 
#    y 0.000000 3.643770 0.000000 
#    z 0.000000 0.000000 3.341080 
# 
# 
# High freq. dielectric constant tensor:
#      x y z
#    x 1.756200 0.000000 0.000000 
#    y 0.000000 1.724570 0.000000 
#    z 0.000000 0.000000 1.715870 
# 
# From -- ./inp_files/14718.got.cif
#   From: 2010.03.12/outbox.cif.g09.slc.cpg/sg65_8_cif.got.tgz:14718.got - 2010.04.10 20:52:16.
