data_PCOD8268103
_publ_section_title
;
Structure prediction by ZEFSAII (Michael W. Deem and Ramdas Pophale) SiO2 
 PCOD8268103
Probable space group: C M M M
;
_chemical_formula_sum "Si O2"
_cell_formula_units_Z 72
_cell_length_a 7.643205
_cell_length_b 26.670050
_cell_length_c 18.216906
_cell_angle_alpha 90.000000
_cell_angle_beta 90.000000
_cell_angle_gamma 90.000000
_cell_volume 3713.419001
_symmetry_space_group_name_H-M "C M M M"
_symmetry_group_IT_number 65
_symmetry_cell_setting 'orthorhombic'
loop_
_space_group_symop_operation_xyz
x,y,z
-x,-y,z
x,-y,-z
-x,y,-z
-x,-y,-z
x,y,-z
-x,y,z
x,-y,z
1/2+x,1/2+y,z
1/2-x,1/2-y,z
1/2+x,1/2-y,-z
1/2-x,1/2+y,-z
1/2-x,1/2-y,-z
1/2+x,1/2+y,-z
1/2-x,1/2+y,z
1/2+x,1/2-y,z
loop_
_atom_site_type_symbol
_atom_site_label
_atom_site_fract_x
_atom_site_fract_y
_atom_site_fract_z
Si Si1 0.808591 0.054762 0.413537
Si Si2 0.000000 0.443365 0.816648
Si Si3 0.300190 0.695867 0.164554
Si Si4 0.000000 0.372579 0.414450
Si Si5 0.200270 0.095871 0.915535
Si Si6 0.000000 0.340923 0.264072
O O1 0.813294 0.049529 0.500000
O O2 0.669235 0.095850 0.392047
O O3 0.000000 0.071259 0.383875
O O4 0.758870 0.000000 0.380604
O O5 0.173225 0.437778 0.866292
O O6 0.000000 0.500000 0.783653
O O7 0.000000 0.401034 0.753131
O O8 0.500000 0.695143 0.192820
O O9 0.250000 0.750000 0.131004
O O10 0.269584 0.654760 0.101341
O O11 0.174415 0.684657 0.233160
O O12 0.000000 0.354195 0.500000
O O13 0.000000 0.329486 0.352458
O O14 0.000000 0.080417 0.898543
O O15 0.247262 0.086625 0.000000
#
# Coordination Sequence:
#
# PCOD8268103 Si02
#       6
#    16   8  16   8  16   8
#     4   8  14  25  42  66  96 129 164 204 256 315
#     4  10  21  36  52  73 110 157 193 217 249 301
#     4  10  19  35  58  81 105 137 174 214 274 329
#     4  10  19  31  50  73 100 132 172 223 279 323
#     4   9  19  34  52  80 114 142 178 224 261 304
#     4  10  22  37  54  79 107 138 181 226 264 330
#
# _framework density 19.389140000000001
#
# number of rings (size 3 to 8) (size 9 to 14) (size 15 to 20)
#    0.000    2.667    1.111    1.333    0.000    4.889 
#    0.000    1.111    0.000    0.667    0.000    0.000 
#    0.000    0.000    0.000    0.000    0.000    0.000 
#
# Total GULP energy -446099.535422 kJ/mol
# GULP energy per Si atom -12391.653762 kJ/mol
# Density = 1.934501 g / cm^3
# Si number density = 19.389140 Si / 1000 Ang^3
#
#
#
# Elastic Constant Matrix: (Units=GPa)
#
#
# Indices 1 2 3 4 5 6 
#
# 1 106.6925 10.5058 18.7153 0.0000 0.0000 0.0000
# 2 10.5058 63.5587 -5.2700 0.0000 0.0000 0.0000
# 3 18.7153 -5.2700 62.0655 0.0000 0.0000 0.0000
# 4 0.0000 0.0000 0.0000 13.6031 0.0000 0.0000
# 5 0.0000 0.0000 0.0000 0.0000 16.5871 0.0000
# 6 0.0000 0.0000 0.0000 0.0000 0.0000 28.6824
#
#
#
# Elastic Compliance Matrix: (Units=1/GPa)
#
#
# Indices 1 2 3 4 5 6 
#
# 1 0.010129 -0.001941 -0.003219 0.000000 0.000000 0.000000
# 2 -0.001941 0.016217 0.001962 0.000000 0.000000 0.000000
# 3 -0.003219 0.001962 0.017249 0.000000 0.000000 0.000000
# 4 0.000000 0.000000 0.000000 0.073512 0.000000 0.000000
# 5 0.000000 0.000000 0.000000 0.000000 0.060288 0.000000
# 6 0.000000 0.000000 0.000000 0.000000 0.000000 0.034865
#
#
# Mechanical properties :
#
#
# Convention : Reuss Voigt Hill
#
# Bulk Modulus (GPa) = 26.88220 31.13543 29.00881
# Shear Modulus (GPa) = 21.63987 25.66558 23.65272
#
# Velocity S-wave (km/s) = 3.34441 3.64223 3.49649
# Velocity P-wave (km/s) = 5.36731 5.81213 5.59414
#
# Compressibility (1/GPa) = 0.03719934
#
# Stress axis : x y z
#
# Youngs Moduli (GPa) = 98.73115 61.66359 57.97344
#
# Poissons Ratio (x) = 0.11969 0.18662
# Poissons Ratio (y) = 0.19164 -0.11376
# Poissons Ratio (z) = 0.31781 -0.12100
#
# Static dielectric constant tensor:
#      x y z
#    x 4.439090 0.000000 0.000000 
#    y 0.000000 3.442150 0.000000 
#    z 0.000000 0.000000 3.170430 
# 
# 
# High freq. dielectric constant tensor:
#      x y z
#    x 1.778370 0.000000 0.000000 
#    y 0.000000 1.729090 0.000000 
#    z 0.000000 0.000000 1.724160 
# 
# From -- ./inp_files/36657.got.cif
#   From: 2010.03.12/outbox.cif.g09.slc.cpg/sg65_19_cif.got.tgz:36657.got - 2010.04.10 20:52:16.
