data_PCOD8268850
_publ_section_title
;
Structure prediction by ZEFSAII (Michael W. Deem and Ramdas Pophale) SiO2 
 PCOD8268850
Probable space group: C M M M
;
_chemical_formula_sum "Si O2"
_cell_formula_units_Z 64
_cell_length_a 10.537105
_cell_length_b 21.326805
_cell_length_c 15.486164
_cell_angle_alpha 90.000000
_cell_angle_beta 90.000000
_cell_angle_gamma 90.000000
_cell_volume 3480.093881
_symmetry_space_group_name_H-M "C M M M"
_symmetry_group_IT_number 65
_symmetry_cell_setting 'orthorhombic'
loop_
_space_group_symop_operation_xyz
x,y,z
-x,-y,z
x,-y,-z
-x,y,-z
-x,-y,-z
x,y,-z
-x,y,z
x,-y,z
1/2+x,1/2+y,z
1/2-x,1/2-y,z
1/2+x,1/2-y,-z
1/2-x,1/2+y,-z
1/2-x,1/2-y,-z
1/2+x,1/2+y,-z
1/2-x,1/2+y,z
1/2+x,1/2-y,z
loop_
_atom_site_type_symbol
_atom_site_label
_atom_site_fract_x
_atom_site_fract_y
_atom_site_fract_z
Si Si1 0.750000 0.750000 0.231562
Si Si2 0.152267 0.929003 0.500000
Si Si3 0.356018 0.632261 0.672102
Si Si4 0.860417 0.335533 0.903767
Si Si5 0.355808 0.428384 0.152108
O O1 0.699497 0.697368 0.295241
O O2 0.853718 0.719891 0.167019
O O3 0.208359 0.893284 0.584284
O O4 0.000000 0.930370 0.500000
O O5 0.204162 0.000000 0.500000
O O6 0.500000 0.646310 0.649733
O O7 0.340953 0.578983 0.744936
O O8 0.747729 0.385870 0.895098
O O9 0.000000 0.367245 0.891947
O O10 0.849736 0.306618 0.000000
O O11 0.500000 0.408655 0.124861
O O12 0.330223 0.500000 0.126305
#
# Coordination Sequence:
#
# PCOD8268850 Si02
#       5
#     8   8  16  16  16
#     4  10  19  33  50  68  96 130 168 205 245 294
#     4   9  16  27  46  72  99 124 154 196 244 290
#     4   9  17  29  47  71  98 128 161 200 245 290
#     4  10  21  35  51  72  98 131 170 211 255 301
#     4   9  18  33  52  74 101 133 169 208 251 299
#
# _framework density 18.390308999999998
#
# number of rings (size 3 to 8) (size 9 to 14) (size 15 to 20)
#    0.000    2.625    0.000    1.875    0.000    6.000 
#    0.000    2.500    0.000    0.000    0.000    7.875 
#    0.000   33.000    0.000    0.000    0.000    0.000 
#
# Total GULP energy -396507.805700 kJ/mol
# GULP energy per Si atom -12390.868928 kJ/mol
# Density = 1.834845 g / cm^3
# Si number density = 18.390309 Si / 1000 Ang^3
#
#
#
# Elastic Constant Matrix: (Units=GPa)
#
#
# Indices 1 2 3 4 5 6 
#
# 1 89.8766 43.5780 39.7414 0.0000 0.0000 0.0000
# 2 43.5780 116.6176 57.8317 0.0000 0.0000 0.0000
# 3 39.7414 57.8317 130.8673 0.0000 0.0000 0.0000
# 4 0.0000 0.0000 0.0000 14.1257 0.0000 0.0000
# 5 0.0000 0.0000 0.0000 0.0000 16.2072 0.0000
# 6 0.0000 0.0000 0.0000 0.0000 0.0000 23.2744
#
#
#
# Elastic Compliance Matrix: (Units=1/GPa)
#
#
# Indices 1 2 3 4 5 6 
#
# 1 0.014210 -0.004060 -0.002521 0.000000 0.000000 0.000000
# 2 -0.004060 0.012141 -0.004133 0.000000 0.000000 0.000000
# 3 -0.002521 -0.004133 0.010233 0.000000 0.000000 0.000000
# 4 0.000000 0.000000 0.000000 0.070793 0.000000 0.000000
# 5 0.000000 0.000000 0.000000 0.000000 0.061701 0.000000
# 6 0.000000 0.000000 0.000000 0.000000 0.000000 0.042966
#
#
# Mechanical properties :
#
#
# Convention : Reuss Voigt Hill
#
# Bulk Modulus (GPa) = 65.97421 68.85153 67.41287
# Shear Modulus (GPa) = 20.96237 23.80217 22.38227
#
# Velocity S-wave (km/s) = 3.37984 3.60151 3.49244
# Velocity P-wave (km/s) = 7.15426 7.40370 7.28005
#
# Compressibility (1/GPa) = 0.01515744
#
# Stress axis : x y z
#
# Youngs Moduli (GPa) = 70.37544 82.36251 97.72121
#
# Poissons Ratio (x) = 0.33436 0.24637
# Poissons Ratio (y) = 0.28570 0.40385
# Poissons Ratio (z) = 0.17742 0.34037
#
# Static dielectric constant tensor:
#      x y z
#    x 3.241900 0.000000 0.000000 
#    y 0.000000 3.326300 0.000000 
#    z 0.000000 0.000000 3.604140 
# 
# 
# High freq. dielectric constant tensor:
#      x y z
#    x 1.685940 0.000000 0.000000 
#    y 0.000000 1.707390 0.000000 
#    z 0.000000 0.000000 1.721640 
# 
# From -- ./inp_files/37791.got.cif
#   From: 2010.03.12/outbox.cif.g09.slc.cpg/sg65_19_cif.got.tgz:37791.got - 2010.04.10 20:52:16.
