data_PCOD8268196
_publ_section_title
;
Structure prediction by ZEFSAII (Michael W. Deem and Ramdas Pophale) SiO2 
 PCOD8268196
Probable space group: C M M M
;
_chemical_formula_sum "Si O2"
_cell_formula_units_Z 80
_cell_length_a 20.041496
_cell_length_b 28.399568
_cell_length_c 7.716216
_cell_angle_alpha 90.000000
_cell_angle_beta 90.000000
_cell_angle_gamma 90.000000
_cell_volume 4391.837337
_symmetry_space_group_name_H-M "C M M M"
_symmetry_group_IT_number 65
_symmetry_cell_setting 'orthorhombic'
loop_
_space_group_symop_operation_xyz
x,y,z
-x,-y,z
x,-y,-z
-x,y,-z
-x,-y,-z
x,y,-z
-x,y,z
x,-y,z
1/2+x,1/2+y,z
1/2-x,1/2-y,z
1/2+x,1/2-y,-z
1/2-x,1/2+y,-z
1/2-x,1/2-y,-z
1/2+x,1/2+y,-z
1/2-x,1/2+y,z
1/2+x,1/2-y,z
loop_
_atom_site_type_symbol
_atom_site_label
_atom_site_fract_x
_atom_site_fract_y
_atom_site_fract_z
Si Si1 0.611187 0.900451 0.199768
Si Si2 0.257988 0.367927 0.190435
Si Si3 0.775306 0.302603 0.500000
Si Si4 0.922319 0.500000 0.189615
Si Si5 0.000000 0.944663 0.191061
Si Si6 0.074049 0.333671 0.500000
Si Si7 0.643340 0.553439 0.303085
O O1 0.689491 0.895165 0.209429
O O2 0.573949 0.863689 0.323298
O O3 0.598934 0.951959 0.283828
O O4 0.584516 0.895649 0.000000
O O5 0.258714 0.327129 0.333614
O O6 0.314441 0.407703 0.202773
O O7 0.264534 0.344202 0.000000
O O8 0.750000 0.250000 0.500000
O O9 0.857268 0.302545 0.500000
O O10 0.000000 0.500000 0.169215
O O11 0.887706 0.500000 0.000000
O O12 0.066446 0.929508 0.293103
O O13 0.000000 0.000000 0.172553
O O14 0.000000 0.921314 0.000000
O O15 0.000000 0.307558 0.500000
O O16 0.667172 0.553444 0.500000
O O17 0.652168 0.500000 0.226234
#
# Coordination Sequence:
#
# PCOD8268196 Si02
#       7
#    16  16   8   8   8   8  16
#     4   9  19  32  47  73 109 143 179 218 252 297
#     4  10  20  35  56  82 107 142 185 220 271 329
#     4  10  22  42  62  80 109 135 172 235 290 335
#     4   9  16  27  43  65 102 148 179 205 247 291
#     4   9  17  29  45  71 105 149 197 230 263 315
#     4  10  20  35  58  82 100 131 176 218 266 323
#     4  10  19  31  50  77 115 154 188 225 266 318
#
# _framework density 18.215610000000002
#
# number of rings (size 3 to 8) (size 9 to 14) (size 15 to 20)
#    0.000    2.400    1.000    1.500    1.400    4.400 
#    0.000    1.000    2.200    0.000    0.000    0.000 
#    0.000    0.000    0.000    0.000    0.000    0.000 
#
# Total GULP energy -495523.130632 kJ/mol
# GULP energy per Si atom -12388.078266 kJ/mol
# Density = 1.817415 g / cm^3
# Si number density = 18.215610 Si / 1000 Ang^3
#
#
#
# Elastic Constant Matrix: (Units=GPa)
#
#
# Indices 1 2 3 4 5 6 
#
# 1 101.1717 45.4070 29.5128 0.0000 0.0000 0.0000
# 2 45.4070 100.5891 41.3140 0.0000 0.0000 0.0000
# 3 29.5128 41.3140 102.1026 0.0000 0.0000 0.0000
# 4 0.0000 0.0000 0.0000 20.5809 0.0000 0.0000
# 5 0.0000 0.0000 0.0000 0.0000 13.5457 0.0000
# 6 0.0000 0.0000 0.0000 0.0000 0.0000 16.2107
#
#
#
# Elastic Compliance Matrix: (Units=1/GPa)
#
#
# Indices 1 2 3 4 5 6 
#
# 1 0.012612 -0.005032 -0.001609 0.000000 0.000000 0.000000
# 2 -0.005032 0.013931 -0.004182 0.000000 0.000000 0.000000
# 3 -0.001609 -0.004182 0.011952 0.000000 0.000000 0.000000
# 4 0.000000 0.000000 0.000000 0.048589 0.000000 0.000000
# 5 0.000000 0.000000 0.000000 0.000000 0.073824 0.000000
# 6 0.000000 0.000000 0.000000 0.000000 0.000000 0.061688
#
#
# Mechanical properties :
#
#
# Convention : Reuss Voigt Hill
#
# Bulk Modulus (GPa) = 59.35864 59.59233 59.47548
# Shear Modulus (GPa) = 20.01135 22.57611 21.29373
#
# Velocity S-wave (km/s) = 3.31808 3.52431 3.42275
# Velocity P-wave (km/s) = 6.88019 7.02474 6.95284
#
# Compressibility (1/GPa) = 0.01684675
#
# Stress axis : x y z
#
# Youngs Moduli (GPa) = 79.28830 71.78325 83.67130
#
# Poissons Ratio (x) = 0.36124 0.13465
# Poissons Ratio (y) = 0.39900 0.34994
# Poissons Ratio (z) = 0.12760 0.30022
#
# Static dielectric constant tensor:
#      x y z
#    x 3.572140 0.000000 0.000000 
#    y 0.000000 2.947960 0.000000 
#    z 0.000000 0.000000 3.949900 
# 
# 
# High freq. dielectric constant tensor:
#      x y z
#    x 1.713410 0.000000 0.000000 
#    y 0.000000 1.652840 0.000000 
#    z 0.000000 0.000000 1.716310 
# 
# From -- ./inp_files/11661.got.cif
#   From: 2010.03.12/outbox.cif.g09.slc.cpg/sg65_6_cif.got.tgz:11661.got - 2010.04.10 20:52:16.
