data_PCOD8268345
_publ_section_title
;
Structure prediction by ZEFSAII (Michael W. Deem and Ramdas Pophale) SiO2 
 PCOD8268345
Probable space group: C M M M
;
_chemical_formula_sum "Si O2"
_cell_formula_units_Z 104
_cell_length_a 21.726918
_cell_length_b 10.370026
_cell_length_c 28.323037
_cell_angle_alpha 90.000000
_cell_angle_beta 90.000000
_cell_angle_gamma 90.000000
_cell_volume 6381.426776
_symmetry_space_group_name_H-M "C M M M"
_symmetry_group_IT_number 65
_symmetry_cell_setting 'orthorhombic'
loop_
_space_group_symop_operation_xyz
x,y,z
-x,-y,z
x,-y,-z
-x,y,-z
-x,-y,-z
x,y,-z
-x,y,z
x,-y,z
1/2+x,1/2+y,z
1/2-x,1/2-y,z
1/2+x,1/2-y,-z
1/2-x,1/2+y,-z
1/2-x,1/2-y,-z
1/2+x,1/2+y,-z
1/2-x,1/2+y,z
1/2+x,1/2-y,z
loop_
_atom_site_type_symbol
_atom_site_label
_atom_site_fract_x
_atom_site_fract_y
_atom_site_fract_z
Si Si1 0.750000 0.250000 0.126068
Si Si2 0.429459 0.147220 0.913543
Si Si3 0.635173 0.853597 0.180774
Si Si4 0.931520 0.347007 0.729589
Si Si5 0.926504 0.644408 0.625137
Si Si6 0.663521 0.641634 0.052687
Si Si7 0.573193 0.355982 0.446980
O O1 0.699124 0.196998 0.161154
O O2 0.718622 0.352988 0.090870
O O3 0.500000 0.178285 0.925434
O O4 0.418712 0.164294 0.857686
O O5 0.386892 0.246493 0.941557
O O6 0.412837 0.000000 0.928567
O O7 0.612509 0.786182 0.229602
O O8 0.647514 0.000000 0.193111
O O9 0.936394 0.500000 0.735569
O O10 0.904372 0.314528 0.677690
O O11 0.000000 0.287545 0.735240
O O12 0.902774 0.500000 0.612232
O O13 0.898916 0.748170 0.588198
O O14 0.000000 0.644031 0.624363
O O15 0.632588 0.500000 0.058769
O O16 0.691319 0.655310 0.000000
O O17 0.596296 0.325256 0.500000
O O18 0.500000 0.350084 0.445510
O O19 0.595005 0.500000 0.431903
#
# Coordination Sequence:
#
# PCOD8268345 Si02
#       7
#     8  16  16  16  16  16  16
#     4  10  19  32  48  66  86 110 145 182 210 246
#     4   9  18  32  50  72  94 115 143 178 212 249
#     4   9  16  27  45  65  84 109 139 173 213 252
#     4   8  13  22  38  60  82 102 129 167 209 251
#     4   8  13  20  31  49  72  97 127 165 203 236
#     4  10  21  35  50  68  91 119 146 174 213 258
#     4   8  13  20  29  42  64  98 137 170 198 231
#
# _framework density 16.297294999999998
#
# number of rings (size 3 to 8) (size 9 to 14) (size 15 to 20)
#    0.000    3.231    0.000    2.538    0.000    3.692 
#    0.000    3.077    0.000    4.615    0.000    4.308 
#    0.000    0.000    0.000    0.692    0.000    6.462 
#
# Total GULP energy -644191.853825 kJ/mol
# GULP energy per Si atom -12388.304881 kJ/mol
# Density = 1.626020 g / cm^3
# Si number density = 16.297295 Si / 1000 Ang^3
#
#
#
# Elastic Constant Matrix: (Units=GPa)
#
#
# Indices 1 2 3 4 5 6 
#
# 1 58.3338 29.9830 37.1239 0.0000 0.0000 0.0000
# 2 29.9830 86.4990 63.2512 0.0000 0.0000 0.0000
# 3 37.1239 63.2512 133.6985 0.0000 0.0000 0.0000
# 4 0.0000 0.0000 0.0000 18.5966 0.0000 0.0000
# 5 0.0000 0.0000 0.0000 0.0000 9.5304 0.0000
# 6 0.0000 0.0000 0.0000 0.0000 0.0000 13.0441
#
#
#
# Elastic Compliance Matrix: (Units=1/GPa)
#
#
# Indices 1 2 3 4 5 6 
#
# 1 0.022076 -0.004846 -0.003837 0.000000 0.000000 0.000000
# 2 -0.004846 0.018739 -0.007520 0.000000 0.000000 0.000000
# 3 -0.003837 -0.007520 0.012102 0.000000 0.000000 0.000000
# 4 0.000000 0.000000 0.000000 0.053773 0.000000 0.000000
# 5 0.000000 0.000000 0.000000 0.000000 0.104927 0.000000
# 6 0.000000 0.000000 0.000000 0.000000 0.000000 0.076663
#
#
# Mechanical properties :
#
#
# Convention : Reuss Voigt Hill
#
# Bulk Modulus (GPa) = 48.75339 59.91638 54.33489
# Shear Modulus (GPa) = 15.26605 18.11244 16.68925
#
# Velocity S-wave (km/s) = 3.06391 3.33735 3.20355
# Velocity P-wave (km/s) = 6.51895 7.18992 6.86264
#
# Compressibility (1/GPa) = 0.02051139
#
# Stress axis : x y z
#
# Youngs Moduli (GPa) = 45.29905 53.36366 82.62818
#
# Poissons Ratio (x) = 0.25861 0.31704
# Poissons Ratio (y) = 0.21953 0.62134
# Poissons Ratio (z) = 0.17381 0.40128
#
# Static dielectric constant tensor:
#      x y z
#    x 2.786910 0.000000 0.000000 
#    y 0.000000 3.094260 0.000000 
#    z 0.000000 0.000000 3.431280 
# 
# 
# High freq. dielectric constant tensor:
#      x y z
#    x 1.576920 0.000000 0.000000 
#    y 0.000000 1.610020 0.000000 
#    z 0.000000 0.000000 1.634660 
# 
# From -- ./inp_files/75628.got.cif
#   From: 2010.03.12/outbox.cif.g09.slc.cpg/sg65_38_cif.got.tgz:75628.got - 2010.04.10 20:52:16.
