data_PCOD8268101
_publ_section_title
;
Structure prediction by ZEFSAII (Michael W. Deem and Ramdas Pophale) SiO2 
 PCOD8268101
Probable space group: C M M M
;
_chemical_formula_sum "Si O2"
_cell_formula_units_Z 96
_cell_length_a 20.419721
_cell_length_b 28.065850
_cell_length_c 9.238836
_cell_angle_alpha 90.000000
_cell_angle_beta 90.000000
_cell_angle_gamma 90.000000
_cell_volume 5294.747593
_symmetry_space_group_name_H-M "C M M M"
_symmetry_group_IT_number 65
_symmetry_cell_setting 'orthorhombic'
loop_
_space_group_symop_operation_xyz
x,y,z
-x,-y,z
x,-y,-z
-x,y,-z
-x,-y,-z
x,y,-z
-x,y,z
x,-y,z
1/2+x,1/2+y,z
1/2-x,1/2-y,z
1/2+x,1/2-y,-z
1/2-x,1/2+y,-z
1/2-x,1/2-y,-z
1/2+x,1/2+y,-z
1/2-x,1/2+y,z
1/2+x,1/2-y,z
loop_
_atom_site_type_symbol
_atom_site_label
_atom_site_fract_x
_atom_site_fract_y
_atom_site_fract_z
Si Si1 0.305276 0.612010 0.672749
Si Si2 0.074215 0.285768 0.329830
Si Si3 0.810475 0.219484 0.671892
Si Si4 0.573850 0.119450 0.833068
Si Si5 0.806620 0.445128 0.831679
Si Si6 0.072147 0.053315 0.671937
O O1 0.300444 0.609750 0.500000
O O2 0.305196 0.665945 0.732069
O O3 0.244649 0.583774 0.737100
O O4 0.372512 0.588665 0.731539
O O5 0.081015 0.293629 0.500000
O O6 0.121451 0.243294 0.276328
O O7 0.097040 0.334812 0.257208
O O8 0.000000 0.272265 0.285392
O O9 0.807590 0.218159 0.500000
O O10 0.750000 0.250000 0.734426
O O11 0.500000 0.104202 0.789777
O O12 0.621084 0.075212 0.798736
O O13 0.577659 0.134254 0.000000
O O14 0.805921 0.500000 0.783285
O O15 0.788600 0.439548 0.000000
O O16 0.073294 0.053241 0.500000
O O17 0.000000 0.069989 0.725848
O O18 0.086867 0.000000 0.729294
#
# Coordination Sequence:
#
# PCOD8268101 Si02
#       6
#    16  16  16  16  16  16
#     4  10  19  31  50  72  94 125 163 198 232 278
#     4   9  17  30  49  72  98 127 157 192 237 284
#     4   9  17  28  43  66  95 123 151 186 227 270
#     4   9  18  33  52  72  94 123 160 198 237 287
#     4  10  21  35  50  70  97 126 156 197 248 294
#     4   8  14  25  42  66  93 116 143 185 231 269
#
# _framework density 18.131174999999999
#
# number of rings (size 3 to 8) (size 9 to 14) (size 15 to 20)
#    0.000    2.833    0.000    2.000    0.000    4.000 
#    0.000    5.833    0.000    3.500    0.000    5.833 
#    0.000    0.000    0.000    0.000    0.000    0.000 
#
# Total GULP energy -595100.660410 kJ/mol
# GULP energy per Si atom -12397.930425 kJ/mol
# Density = 1.808991 g / cm^3
# Si number density = 18.131175 Si / 1000 Ang^3
#
#
#
# Elastic Constant Matrix: (Units=GPa)
#
#
# Indices 1 2 3 4 5 6 
#
# 1 135.8603 93.0753 25.6780 0.0000 0.0000 0.0000
# 2 93.0753 163.4929 28.2982 0.0000 0.0000 0.0000
# 3 25.6780 28.2982 21.0040 0.0000 0.0000 0.0000
# 4 0.0000 0.0000 0.0000 19.2921 0.0000 0.0000
# 5 0.0000 0.0000 0.0000 0.0000 20.4163 0.0000
# 6 0.0000 0.0000 0.0000 0.0000 0.0000 40.4174
#
#
#
# Elastic Compliance Matrix: (Units=1/GPa)
#
#
# Indices 1 2 3 4 5 6 
#
# 1 0.012955 -0.006043 -0.007696 0.000000 0.000000 0.000000
# 2 -0.006043 0.010796 -0.007157 0.000000 0.000000 0.000000
# 3 -0.007696 -0.007157 0.066661 0.000000 0.000000 0.000000
# 4 0.000000 0.000000 0.000000 0.051835 0.000000 0.000000
# 5 0.000000 0.000000 0.000000 0.000000 0.048980 0.000000
# 6 0.000000 0.000000 0.000000 0.000000 0.000000 0.024742
#
#
# Mechanical properties :
#
#
# Convention : Reuss Voigt Hill
#
# Bulk Modulus (GPa) = 20.56795 68.27336 44.42066
# Shear Modulus (GPa) = 18.25039 27.57886 22.91463
#
# Velocity S-wave (km/s) = 3.17610 3.90433 3.55889
# Velocity P-wave (km/s) = 4.98184 7.61984 6.43742
#
# Compressibility (1/GPa) = 0.04861932
#
# Stress axis : x y z
#
# Youngs Moduli (GPa) = 77.18920 92.63103 15.00137
#
# Poissons Ratio (x) = 0.55979 0.11545
# Poissons Ratio (y) = 0.46647 0.10736
# Poissons Ratio (z) = 0.59406 0.66292
#
# Static dielectric constant tensor:
#      x y z
#    x 3.684200 0.000000 0.000000 
#    y 0.000000 3.539900 0.000000 
#    z 0.000000 0.000000 2.984690 
# 
# 
# High freq. dielectric constant tensor:
#      x y z
#    x 1.718770 0.000000 0.000000 
#    y 0.000000 1.704690 0.000000 
#    z 0.000000 0.000000 1.656440 
# 
# From -- ./inp_files/12326.got.cif
#   From: 2010.03.12/outbox.cif.g09.slc.cpg/sg65_7_cif.got.tgz:12326.got - 2010.04.10 20:52:16.
