data_PCOD8268928
_publ_section_title
;
Structure prediction by ZEFSAII (Michael W. Deem and Ramdas Pophale) SiO2 
 PCOD8268928
Probable space group: C M M M
;
_chemical_formula_sum "Si O2"
_cell_formula_units_Z 104
_cell_length_a 8.919650
_cell_length_b 28.237625
_cell_length_c 22.740583
_cell_angle_alpha 90.000000
_cell_angle_beta 90.000000
_cell_angle_gamma 90.000000
_cell_volume 5727.664542
_symmetry_space_group_name_H-M "C M M M"
_symmetry_group_IT_number 65
_symmetry_cell_setting 'orthorhombic'
loop_
_space_group_symop_operation_xyz
x,y,z
-x,-y,z
x,-y,-z
-x,y,-z
-x,-y,-z
x,y,-z
-x,y,z
x,-y,z
1/2+x,1/2+y,z
1/2-x,1/2-y,z
1/2+x,1/2-y,-z
1/2-x,1/2+y,-z
1/2-x,1/2-y,-z
1/2+x,1/2+y,-z
1/2-x,1/2+y,z
1/2+x,1/2-y,z
loop_
_atom_site_type_symbol
_atom_site_label
_atom_site_fract_x
_atom_site_fract_y
_atom_site_fract_z
Si Si1 0.674218 0.299669 0.779223
Si Si2 0.821854 0.301438 0.000000
Si Si3 0.324300 0.201355 0.432810
Si Si4 0.174208 0.553814 0.147787
Si Si5 0.324916 0.642566 0.895219
Si Si6 0.670794 0.447045 0.730196
Si Si7 0.674840 0.644965 0.664682
O O1 0.500000 0.289767 0.774822
O O2 0.750000 0.250000 0.791857
O O3 0.711117 0.335348 0.831856
O O4 0.732753 0.323022 0.718954
O O5 0.750000 0.250000 0.000000
O O6 0.769718 0.329125 0.057365
O O7 0.000000 0.296480 0.000000
O O8 0.278844 0.190633 0.500000
O O9 0.500000 0.206892 0.425075
O O10 0.250000 0.250000 0.410666
O O11 0.265738 0.158109 0.393620
O O12 0.207611 0.500000 0.127820
O O13 0.269733 0.588181 0.105684
O O14 0.219995 0.561016 0.215348
O O15 0.000000 0.566326 0.141580
O O16 0.500000 0.644736 0.911413
O O17 0.500000 0.438061 0.752389
O O18 0.689144 0.500000 0.704296
O O19 0.709794 0.410013 0.678741
O O20 0.500000 0.653332 0.652886
#
# Coordination Sequence:
#
# PCOD8268928 Si02
#       7
#    16   8  16  16  16  16  16
#     4  10  21  34  50  77 109 139 174 219 269 322
#     4  12  26  44  63  86 113 148 192 233 275 329
#     4  10  21  36  53  75 104 142 185 225 269 323
#     4  10  20  34  55  85 117 147 181 225 278 333
#     4  11  22  40  61  82 110 148 190 230 276 329
#     4   9  17  32  54  79 110 146 181 221 270 327
#     4  10  19  33  52  80 110 139 179 223 271 322
#
# _framework density 18.157488000000001
#
# number of rings (size 3 to 8) (size 9 to 14) (size 15 to 20)
#    0.000    1.846    1.538    3.000    0.000    6.769 
#    0.000    0.385    0.000    2.769    0.000    3.231 
#    0.000    0.000    0.000    0.000    0.000    0.000 
#
# Total GULP energy -644955.607418 kJ/mol
# GULP energy per Si atom -12402.992450 kJ/mol
# Density = 1.811616 g / cm^3
# Si number density = 18.157488 Si / 1000 Ang^3
#
#
#
# Elastic Constant Matrix: (Units=GPa)
#
#
# Indices 1 2 3 4 5 6 
#
# 1 83.9902 55.5238 45.5456 0.0000 0.0000 0.0000
# 2 55.5238 133.5039 47.1126 0.0000 0.0000 0.0000
# 3 45.5456 47.1126 81.1442 0.0000 0.0000 0.0000
# 4 0.0000 0.0000 0.0000 29.6938 0.0000 0.0000
# 5 0.0000 0.0000 0.0000 0.0000 30.8357 0.0000
# 6 0.0000 0.0000 0.0000 0.0000 0.0000 30.8236
#
#
#
# Elastic Compliance Matrix: (Units=1/GPa)
#
#
# Indices 1 2 3 4 5 6 
#
# 1 0.019818 -0.005429 -0.007971 0.000000 0.000000 0.000000
# 2 -0.005429 0.010908 -0.003286 0.000000 0.000000 0.000000
# 3 -0.007971 -0.003286 0.018706 0.000000 0.000000 0.000000
# 4 0.000000 0.000000 0.000000 0.033677 0.000000 0.000000
# 5 0.000000 0.000000 0.000000 0.000000 0.032430 0.000000
# 6 0.000000 0.000000 0.000000 0.000000 0.000000 0.032443
#
#
# Mechanical properties :
#
#
# Convention : Reuss Voigt Hill
#
# Bulk Modulus (GPa) = 62.27121 66.11137 64.19129
# Shear Modulus (GPa) = 26.77991 28.30105 27.54048
#
# Velocity S-wave (km/s) = 3.84457 3.95225 3.89878
# Velocity P-wave (km/s) = 7.35371 7.57074 7.46301
#
# Compressibility (1/GPa) = 0.01605878
#
# Stress axis : x y z
#
# Youngs Moduli (GPa) = 50.45942 91.67651 53.45925
#
# Poissons Ratio (x) = 0.49772 0.42615
# Poissons Ratio (y) = 0.27395 0.17566
# Poissons Ratio (z) = 0.40224 0.30124
#
# Static dielectric constant tensor:
#      x y z
#    x 3.370900 0.000000 0.000000 
#    y 0.000000 3.571430 0.000000 
#    z 0.000000 0.000000 3.182240 
# 
# 
# High freq. dielectric constant tensor:
#      x y z
#    x 1.707970 0.000000 0.000000 
#    y 0.000000 1.713210 0.000000 
#    z 0.000000 0.000000 1.683670 
# 
# From -- ./inp_files/60411.got.cif
#   From: 2010.03.12/outbox.cif.g09.slc.cpg/sg65_31_cif.got.tgz:60411.got - 2010.04.10 20:52:16.
