data_PCOD8268813
_publ_section_title
;
Structure prediction by ZEFSAII (Michael W. Deem and Ramdas Pophale) SiO2 
 PCOD8268813
Probable space group: C M M M
;
_chemical_formula_sum "Si O2"
_cell_formula_units_Z 104
_cell_length_a 19.237821
_cell_length_b 20.286567
_cell_length_c 14.079709
_cell_angle_alpha 90.000000
_cell_angle_beta 90.000000
_cell_angle_gamma 90.000000
_cell_volume 5494.878804
_symmetry_space_group_name_H-M "C M M M"
_symmetry_group_IT_number 65
_symmetry_cell_setting 'orthorhombic'
loop_
_space_group_symop_operation_xyz
x,y,z
-x,-y,z
x,-y,-z
-x,y,-z
-x,-y,-z
x,y,-z
-x,y,z
x,-y,z
1/2+x,1/2+y,z
1/2-x,1/2-y,z
1/2+x,1/2-y,-z
1/2-x,1/2+y,-z
1/2-x,1/2-y,-z
1/2+x,1/2+y,-z
1/2-x,1/2+y,z
1/2+x,1/2-y,z
loop_
_atom_site_type_symbol
_atom_site_label
_atom_site_fract_x
_atom_site_fract_y
_atom_site_fract_z
Si Si1 0.292484 0.682248 0.784205
Si Si2 0.918583 0.687225 0.397088
Si Si3 0.204000 0.426214 0.109400
Si Si4 0.421248 0.127886 0.204862
Si Si5 0.078082 0.232132 0.890320
Si Si6 0.500000 0.425716 0.387352
Si Si7 0.126474 0.835797 0.391217
O O1 0.250000 0.750000 0.791208
O O2 0.252468 0.624611 0.836594
O O3 0.368244 0.688365 0.831309
O O4 0.304706 0.660716 0.674576
O O5 0.886938 0.665472 0.500000
O O6 0.888866 0.644412 0.309641
O O7 0.905864 0.763761 0.378934
O O8 0.000000 0.675786 0.398064
O O9 0.234187 0.500000 0.119534
O O10 0.127126 0.426281 0.155687
O O11 0.199274 0.404973 0.000000
O O12 0.500000 0.100644 0.211472
O O13 0.418133 0.192520 0.140783
O O14 0.000000 0.204731 0.872994
O O15 0.099182 0.227843 0.000000
O O16 0.500000 0.500000 0.345732
O O17 0.500000 0.426227 0.500000
O O18 0.569533 0.388127 0.353928
O O19 0.148772 0.849688 0.500000
#
# Coordination Sequence:
#
# PCOD8268813 Si02
#       7
#    16  16  16  16  16   8  16
#     4  12  23  37  60  85 115 156 193 236 287 352
#     4   9  15  27  51  85 120 148 177 226 289 342
#     4  11  25  43  60  81 114 155 197 241 293 351
#     4  10  19  34  59  88 116 147 187 240 291 344
#     4  10  20  33  55  87 115 141 183 243 293 336
#     4   9  18  32  52  80 111 149 194 237 285 339
#     4  10  19  32  54  81 116 150 186 238 289 337
#
# _framework density 18.926712999999999
#
# number of rings (size 3 to 8) (size 9 to 14) (size 15 to 20)
#    0.000    1.769    3.846    0.923    1.077    2.769 
#    0.000    1.538    0.000    1.385    0.000    4.308 
#    0.000    0.000    0.000    0.000    0.000    0.000 
#
# Total GULP energy -644636.673996 kJ/mol
# GULP energy per Si atom -12396.859115 kJ/mol
# Density = 1.888364 g / cm^3
# Si number density = 18.926713 Si / 1000 Ang^3
#
#
#
# Elastic Constant Matrix: (Units=GPa)
#
#
# Indices 1 2 3 4 5 6 
#
# 1 84.6888 41.0241 54.5560 0.0000 0.0000 0.0000
# 2 41.0241 76.2861 49.7954 0.0000 0.0000 0.0000
# 3 54.5560 49.7954 135.4920 0.0000 0.0000 0.0000
# 4 0.0000 0.0000 0.0000 -3.1652 0.0000 0.0000
# 5 0.0000 0.0000 0.0000 0.0000 28.7364 0.0000
# 6 0.0000 0.0000 0.0000 0.0000 0.0000 13.0733
#
#
#
# Elastic Compliance Matrix: (Units=1/GPa)
#
#
# Indices 1 2 3 4 5 6 
#
# 1 0.018137 -0.006560 -0.004892 0.000000 0.000000 0.000000
# 2 -0.006560 0.019619 -0.004569 0.000000 0.000000 0.000000
# 3 -0.004892 -0.004569 0.011029 0.000000 0.000000 0.000000
# 4 0.000000 0.000000 0.000000 -0.315939 0.000000 0.000000
# 5 0.000000 0.000000 0.000000 0.000000 0.034799 0.000000
# 6 0.000000 0.000000 0.000000 0.000000 0.000000 0.076492
#
#
# Mechanical properties :
#
#
# Convention : Reuss Voigt Hill
#
# Bulk Modulus (GPa) = 59.72543 65.24643 62.48593
# Shear Modulus (GPa) = -42.28695 17.80167 -12.24264
#
# Velocity S-wave (km/s) = -4.73191 3.07018 -2.54607
# Velocity P-wave (km/s) = 1.33042 6.86411 4.94399
#
# Compressibility (1/GPa) = 0.01674329
#
# Stress axis : x y z
#
# Youngs Moduli (GPa) = 55.13532 50.97188 90.66779
#
# Poissons Ratio (x) = 0.33440 0.44354
# Poissons Ratio (y) = 0.36171 0.41423
# Poissons Ratio (z) = 0.26972 0.23287
#
# Static dielectric constant tensor:
#      x y z
#    x 3.554360 0.000000 0.000000 
#    y 0.000000 3.189430 0.000000 
#    z 0.000000 0.000000 4.004210 
# 
# 
# High freq. dielectric constant tensor:
#      x y z
#    x 1.728040 0.000000 0.000000 
#    y 0.000000 1.698810 0.000000 
#    z 0.000000 0.000000 1.751200 
# 
# From -- ./inp_files/44387.got.cif
#   From: 2010.03.12/outbox.cif.g09.slc.cpg/sg65_23_cif.got.tgz:44387.got - 2010.04.10 20:52:16.
