data_PCOD8268869
_publ_section_title
;
Structure prediction by ZEFSAII (Michael W. Deem and Ramdas Pophale) SiO2 
 PCOD8268869
Probable space group: C M M M
;
_chemical_formula_sum "Si O2"
_cell_formula_units_Z 104
_cell_length_a 19.519000
_cell_length_b 32.171476
_cell_length_c 9.260041
_cell_angle_alpha 90.000000
_cell_angle_beta 90.000000
_cell_angle_gamma 90.000000
_cell_volume 5814.889417
_symmetry_space_group_name_H-M "C M M M"
_symmetry_group_IT_number 65
_symmetry_cell_setting 'orthorhombic'
loop_
_space_group_symop_operation_xyz
x,y,z
-x,-y,z
x,-y,-z
-x,y,-z
-x,-y,-z
x,y,-z
-x,y,z
x,-y,z
1/2+x,1/2+y,z
1/2-x,1/2-y,z
1/2+x,1/2-y,-z
1/2-x,1/2+y,-z
1/2-x,1/2-y,-z
1/2+x,1/2+y,-z
1/2-x,1/2+y,z
1/2+x,1/2-y,z
loop_
_atom_site_type_symbol
_atom_site_label
_atom_site_fract_x
_atom_site_fract_y
_atom_site_fract_z
Si Si1 0.419997 0.809572 0.334192
Si Si2 0.325511 0.127906 0.168101
Si Si3 0.829369 0.851587 0.165778
Si Si4 0.701881 0.046883 0.663945
Si Si5 0.357851 0.569311 0.663452
Si Si6 0.078266 0.773304 0.166212
Si Si7 0.578149 0.500000 0.155741
O O1 0.396052 0.808937 0.500000
O O2 0.500000 0.818885 0.319731
O O3 0.381906 0.845862 0.250549
O O4 0.401444 0.765399 0.264948
O O5 0.252150 0.150020 0.194559
O O6 0.329796 0.080864 0.228585
O O7 0.343696 0.126044 0.000000
O O8 0.862528 0.884968 0.270919
O O9 0.866320 0.808492 0.204097
O O10 0.843636 0.864151 0.000000
O O11 0.677687 0.056281 0.500000
O O12 0.783301 0.049282 0.673270
O O13 0.679473 0.000000 0.709503
O O14 0.384109 0.571552 0.500000
O O15 0.407714 0.541001 0.754255
O O16 0.000000 0.788339 0.197438
O O17 0.085352 0.759551 0.000000
O O18 0.500000 0.500000 0.118104
O O19 0.617899 0.500000 0.000000
#
# Coordination Sequence:
#
# PCOD8268869 Si02
#       7
#    16  16  16  16  16  16   8
#     4  10  21  37  56  77 103 135 172 215 263 317
#     4  10  20  33  52  80 109 138 174 214 258 309
#     4   9  19  34  51  77 109 139 173 215 262 310
#     4   9  17  32  53  76 104 136 168 206 255 308
#     4  10  19  33  51  72  98 131 171 216 264 308
#     4   9  18  34  55  75 100 139 181 217 257 309
#     4  11  23  35  47  65  93 133 178 221 266 315
#
# _framework density 17.885120000000001
#
# number of rings (size 3 to 8) (size 9 to 14) (size 15 to 20)
#    0.000    2.385    0.769    1.615    0.000    4.923 
#    0.000    4.615    0.000    0.462    0.000    3.231 
#    0.000    0.000    0.000    0.000    0.000    0.000 
#
# Total GULP energy -644771.353282 kJ/mol
# GULP energy per Si atom -12399.449102 kJ/mol
# Density = 1.784441 g / cm^3
# Si number density = 17.885120 Si / 1000 Ang^3
#
#
#
# Elastic Constant Matrix: (Units=GPa)
#
#
# Indices 1 2 3 4 5 6 
#
# 1 49.2211 55.7895 47.3953 0.0000 0.0000 0.0000
# 2 55.7895 138.7200 88.9252 0.0000 0.0000 0.0000
# 3 47.3953 88.9252 143.6015 0.0000 0.0000 0.0000
# 4 0.0000 0.0000 0.0000 36.5773 0.0000 0.0000
# 5 0.0000 0.0000 0.0000 0.0000 23.4974 0.0000
# 6 0.0000 0.0000 0.0000 0.0000 0.0000 25.7566
#
#
#
# Elastic Compliance Matrix: (Units=1/GPa)
#
#
# Indices 1 2 3 4 5 6 
#
# 1 0.039649 -0.012532 -0.005326 0.000000 0.000000 0.000000
# 2 -0.012532 0.015915 -0.005719 0.000000 0.000000 0.000000
# 3 -0.005326 -0.005719 0.012263 0.000000 0.000000 0.000000
# 4 0.000000 0.000000 0.000000 0.027339 0.000000 0.000000
# 5 0.000000 0.000000 0.000000 0.000000 0.042558 0.000000
# 6 0.000000 0.000000 0.000000 0.000000 0.000000 0.038825
#
#
# Mechanical properties :
#
#
# Convention : Reuss Voigt Hill
#
# Bulk Modulus (GPa) = 48.37132 79.52915 63.95023
# Shear Modulus (GPa) = 21.68320 26.46176 24.07248
#
# Velocity S-wave (km/s) = 3.48567 3.85065 3.67270
# Velocity P-wave (km/s) = 6.58059 8.02080 7.33612
#
# Compressibility (1/GPa) = 0.02067341
#
# Stress axis : x y z
#
# Youngs Moduli (GPa) = 25.22161 62.83409 81.54520
#
# Poissons Ratio (x) = 0.78741 0.43429
# Poissons Ratio (y) = 0.31607 0.46638
# Poissons Ratio (z) = 0.13432 0.35937
#
# Static dielectric constant tensor:
#      x y z
#    x 3.098240 0.000000 0.000000 
#    y 0.000000 3.296650 0.000000 
#    z 0.000000 0.000000 3.491380 
# 
# 
# High freq. dielectric constant tensor:
#      x y z
#    x 1.666800 0.000000 0.000000 
#    y 0.000000 1.694730 0.000000 
#    z 0.000000 0.000000 1.705670 
# 
# From -- ./inp_files/12731.got.cif
#   From: 2010.03.12/outbox.cif.g09.slc.cpg/sg65_7_cif.got.tgz:12731.got - 2010.04.10 20:52:16.
