data_PCOD8268948
_publ_section_title
;
Structure prediction by ZEFSAII (Michael W. Deem and Ramdas Pophale) SiO2 
 PCOD8268948
Probable space group: C M M M
;
_chemical_formula_sum "Si O2"
_cell_formula_units_Z 96
_cell_length_a 28.544993
_cell_length_b 9.351770
_cell_length_c 20.679685
_cell_angle_alpha 90.000000
_cell_angle_beta 90.000000
_cell_angle_gamma 90.000000
_cell_volume 5520.363518
_symmetry_space_group_name_H-M "C M M M"
_symmetry_group_IT_number 65
_symmetry_cell_setting 'orthorhombic'
loop_
_space_group_symop_operation_xyz
x,y,z
-x,-y,z
x,-y,-z
-x,y,-z
-x,-y,-z
x,y,-z
-x,y,z
x,-y,z
1/2+x,1/2+y,z
1/2-x,1/2-y,z
1/2+x,1/2-y,-z
1/2-x,1/2+y,-z
1/2-x,1/2-y,-z
1/2+x,1/2+y,-z
1/2-x,1/2+y,z
1/2+x,1/2-y,z
loop_
_atom_site_type_symbol
_atom_site_label
_atom_site_fract_x
_atom_site_fract_y
_atom_site_fract_z
Si Si1 0.203963 0.834220 0.426704
Si Si2 0.052843 0.665413 0.733573
Si Si3 0.702054 0.668517 0.806044
Si Si4 0.552030 0.663972 0.135743
Si Si5 0.145573 0.168691 0.070645
Si Si6 0.364306 0.666265 0.685874
O O1 0.188861 0.796836 0.500000
O O2 0.250000 0.750000 0.405675
O O3 0.162345 0.788807 0.379331
O O4 0.216074 0.000000 0.418473
O O5 0.066294 0.500000 0.739451
O O6 0.058422 0.735167 0.803365
O O7 0.088055 0.742900 0.684526
O O8 0.000000 0.685440 0.707337
O O9 0.712190 0.500000 0.808840
O O10 0.750000 0.750000 0.792890
O O11 0.679487 0.727665 0.873026
O O12 0.666591 0.705606 0.748371
O O13 0.500000 0.682507 0.105252
O O14 0.560054 0.500000 0.158595
O O15 0.591195 0.708416 0.083728
O O16 0.151188 0.000000 0.068998
O O17 0.159224 0.233081 0.000000
O O18 0.377436 0.500000 0.685989
#
# Coordination Sequence:
#
# PCOD8268948 Si02
#       6
#    16  16  16  16  16  16
#     4   9  18  32  51  77 108 138 167 201 243 291
#     4  10  20  32  49  75 103 128 159 201 247 293
#     4  10  20  33  48  69  94 124 162 203 244 284
#     4   9  16  29  50  72  95 124 158 197 246 299
#     4   9  17  30  47  68  96 126 159 201 243 287
#     4  10  19  33  53  75 100 130 165 202 241 287
#
# _framework density 17.390158
#
# number of rings (size 3 to 8) (size 9 to 14) (size 15 to 20)
#    0.000    2.500    1.667    1.000    0.000    3.000 
#    0.000    1.667    0.000    2.000    0.000    5.833 
#    0.000    0.000    0.000    0.000    0.000    0.000 
#
# Total GULP energy -595098.066475 kJ/mol
# GULP energy per Si atom -12397.876385 kJ/mol
# Density = 1.735058 g / cm^3
# Si number density = 17.390158 Si / 1000 Ang^3
#
#
#
# Elastic Constant Matrix: (Units=GPa)
#
#
# Indices 1 2 3 4 5 6 
#
# 1 106.2826 50.9734 50.7224 0.0000 0.0000 0.0000
# 2 50.9734 58.1422 36.2963 0.0000 0.0000 0.0000
# 3 50.7224 36.2963 97.0502 0.0000 0.0000 0.0000
# 4 0.0000 0.0000 0.0000 11.0395 0.0000 0.0000
# 5 0.0000 0.0000 0.0000 0.0000 22.9697 0.0000
# 6 0.0000 0.0000 0.0000 0.0000 0.0000 30.0071
#
#
#
# Elastic Compliance Matrix: (Units=1/GPa)
#
#
# Indices 1 2 3 4 5 6 
#
# 1 0.017608 -0.012644 -0.004474 0.000000 0.000000 0.000000
# 2 -0.012644 0.031518 -0.005179 0.000000 0.000000 0.000000
# 3 -0.004474 -0.005179 0.014579 0.000000 0.000000 0.000000
# 4 0.000000 0.000000 0.000000 0.090584 0.000000 0.000000
# 5 0.000000 0.000000 0.000000 0.000000 0.043536 0.000000
# 6 0.000000 0.000000 0.000000 0.000000 0.000000 0.033325
#
#
# Mechanical properties :
#
#
# Convention : Reuss Voigt Hill
#
# Bulk Modulus (GPa) = 52.32705 59.71770 56.02237
# Shear Modulus (GPa) = 17.72332 21.03545 19.37939
#
# Velocity S-wave (km/s) = 3.19589 3.48173 3.34187
# Velocity P-wave (km/s) = 6.61616 7.11180 6.86846
#
# Compressibility (1/GPa) = 0.01911058
#
# Stress axis : x y z
#
# Youngs Moduli (GPa) = 56.79161 31.72828 68.59128
#
# Poissons Ratio (x) = 0.40118 0.30687
# Poissons Ratio (y) = 0.71809 0.35524
# Poissons Ratio (z) = 0.25408 0.16432
#
# Static dielectric constant tensor:
#      x y z
#    x 3.382070 0.000000 0.000000 
#    y 0.000000 3.094760 0.000000 
#    z 0.000000 0.000000 3.327880 
# 
# 
# High freq. dielectric constant tensor:
#      x y z
#    x 1.676220 0.000000 0.000000 
#    y 0.000000 1.652390 0.000000 
#    z 0.000000 0.000000 1.658520 
# 
# From -- ./inp_files/60183.got.cif
#   From: 2010.03.12/outbox.cif.g09.slc.cpg/sg65_31_cif.got.tgz:60183.got - 2010.04.10 20:52:16.
