data_PCOD8268069
_publ_section_title
;
Structure prediction by ZEFSAII (Michael W. Deem and Ramdas Pophale) SiO2 
 PCOD8268069
Probable space group: C M M M
;
_chemical_formula_sum "Si O2"
_cell_formula_units_Z 80
_cell_length_a 18.019438
_cell_length_b 27.637519
_cell_length_c 9.028332
_cell_angle_alpha 90.000000
_cell_angle_beta 90.000000
_cell_angle_gamma 90.000000
_cell_volume 4496.222733
_symmetry_space_group_name_H-M "C M M M"
_symmetry_group_IT_number 65
_symmetry_cell_setting 'orthorhombic'
loop_
_space_group_symop_operation_xyz
x,y,z
-x,-y,z
x,-y,-z
-x,y,-z
-x,-y,-z
x,y,-z
-x,y,z
x,-y,z
1/2+x,1/2+y,z
1/2-x,1/2-y,z
1/2+x,1/2-y,-z
1/2-x,1/2+y,-z
1/2-x,1/2-y,-z
1/2+x,1/2+y,-z
1/2-x,1/2+y,z
1/2+x,1/2-y,z
loop_
_atom_site_type_symbol
_atom_site_label
_atom_site_fract_x
_atom_site_fract_y
_atom_site_fract_z
Si Si1 0.080256 0.904545 0.827414
Si Si2 0.655468 0.305853 0.827789
Si Si3 0.084753 0.283707 0.669419
Si Si4 0.268036 0.554377 0.175095
Si Si5 0.711539 0.144907 0.329324
O O1 0.096493 0.848262 0.797225
O O2 0.147883 0.936864 0.764045
O O3 0.000000 0.917436 0.753667
O O4 0.074208 0.915130 0.000000
O O5 0.619674 0.256453 0.774238
O O6 0.731508 0.317096 0.742585
O O7 0.675303 0.301610 0.000000
O O8 0.090788 0.265708 0.500000
O O9 0.129034 0.333882 0.690481
O O10 0.000000 0.293639 0.715562
O O11 0.243233 0.500000 0.215428
O O12 0.212889 0.592355 0.251643
O O13 0.265543 0.563927 0.000000
O O14 0.733170 0.138340 0.500000
#
# Coordination Sequence:
#
# PCOD8268069 Si02
#       5
#    16  16  16  16  16
#     4   8  14  25  42  67  98 127 155 188 226 271
#     4  10  19  31  49  74 103 134 167 198 231 280
#     4  10  21  35  50  71 100 130 161 202 249 293
#     4   9  18  32  50  72  96 123 159 206 255 296
#     4  10  20  34  52  72  96 129 166 201 242 294
#
# _framework density 17.792712999999999
#
# number of rings (size 3 to 8) (size 9 to 14) (size 15 to 20)
#    0.000    2.600    0.000    3.600    0.000    6.000 
#    0.000    2.000    0.000    6.000    0.000    9.800 
#    0.000    0.000    0.000    0.000    0.000    0.000 
#
# Total GULP energy -495872.996428 kJ/mol
# GULP energy per Si atom -12396.824911 kJ/mol
# Density = 1.775222 g / cm^3
# Si number density = 17.792713 Si / 1000 Ang^3
#
#
#
# Elastic Constant Matrix: (Units=GPa)
#
#
# Indices 1 2 3 4 5 6 
#
# 1 90.8338 56.9283 38.0089 0.0000 0.0000 0.0000
# 2 56.9283 119.5516 52.7925 0.0000 0.0000 0.0000
# 3 38.0089 52.7925 72.0018 0.0000 0.0000 0.0000
# 4 0.0000 0.0000 0.0000 25.6109 0.0000 0.0000
# 5 0.0000 0.0000 0.0000 0.0000 18.3580 0.0000
# 6 0.0000 0.0000 0.0000 0.0000 0.0000 15.4747
#
#
#
# Elastic Compliance Matrix: (Units=1/GPa)
#
#
# Indices 1 2 3 4 5 6 
#
# 1 0.016577 -0.005959 -0.004382 0.000000 0.000000 0.000000
# 2 -0.005959 0.014511 -0.007494 0.000000 0.000000 0.000000
# 3 -0.004382 -0.007494 0.021697 0.000000 0.000000 0.000000
# 4 0.000000 0.000000 0.000000 0.039046 0.000000 0.000000
# 5 0.000000 0.000000 0.000000 0.000000 0.054472 0.000000
# 6 0.000000 0.000000 0.000000 0.000000 0.000000 0.064621
#
#
# Mechanical properties :
#
#
# Convention : Reuss Voigt Hill
#
# Bulk Modulus (GPa) = 58.42747 64.20518 61.31632
# Shear Modulus (GPa) = 19.81766 20.86590 20.34178
#
# Velocity S-wave (km/s) = 3.34100 3.42822 3.38489
# Velocity P-wave (km/s) = 6.91319 7.19956 7.05783
#
# Compressibility (1/GPa) = 0.01711524
#
# Stress axis : x y z
#
# Youngs Moduli (GPa) = 60.32358 68.91097 46.09009
#
# Poissons Ratio (x) = 0.41063 0.20196
# Poissons Ratio (y) = 0.35946 0.34542
# Poissons Ratio (z) = 0.26433 0.51644
#
# Static dielectric constant tensor:
#      x y z
#    x 3.408870 0.000000 0.000000 
#    y 0.000000 3.218330 0.000000 
#    z 0.000000 0.000000 3.173940 
# 
# 
# High freq. dielectric constant tensor:
#      x y z
#    x 1.678380 0.000000 0.000000 
#    y 0.000000 1.679670 0.000000 
#    z 0.000000 0.000000 1.672990 
# 
# From -- ./inp_files/9573.got.cif
#   From: 2010.03.12/outbox.cif.g09.slc.cpg/sg65_5_cif.got.tgz:9573.got - 2010.04.10 20:52:16.
