data_PCOD8268631
_publ_section_title
;
Structure prediction by ZEFSAII (Michael W. Deem and Ramdas Pophale) SiO2 
 PCOD8268631
Probable space group: C M M M
;
_chemical_formula_sum "Si O2"
_cell_formula_units_Z 96
_cell_length_a 9.032757
_cell_length_b 28.823039
_cell_length_c 20.551815
_cell_angle_alpha 90.000000
_cell_angle_beta 90.000000
_cell_angle_gamma 90.000000
_cell_volume 5350.696013
_symmetry_space_group_name_H-M "C M M M"
_symmetry_group_IT_number 65
_symmetry_cell_setting 'orthorhombic'
loop_
_space_group_symop_operation_xyz
x,y,z
-x,-y,z
x,-y,-z
-x,y,-z
-x,-y,-z
x,y,-z
-x,y,z
x,-y,z
1/2+x,1/2+y,z
1/2-x,1/2-y,z
1/2+x,1/2-y,-z
1/2-x,1/2+y,-z
1/2-x,1/2-y,-z
1/2+x,1/2+y,-z
1/2-x,1/2+y,z
1/2+x,1/2-y,z
loop_
_atom_site_type_symbol
_atom_site_label
_atom_site_fract_x
_atom_site_fract_y
_atom_site_fract_z
Si Si1 0.174333 0.447780 0.426457
Si Si2 0.824978 0.947055 0.187583
Si Si3 0.828738 0.105708 0.314587
Si Si4 0.671176 0.106095 0.926414
Si Si5 0.173073 0.204888 0.735027
Si Si6 0.325860 0.204389 0.872547
O O1 0.223601 0.435969 0.500000
O O2 0.225165 0.500000 0.408509
O O3 0.248474 0.411325 0.378861
O O4 0.000000 0.443395 0.419474
O O5 0.763101 0.919058 0.250040
O O6 0.764430 0.925805 0.121264
O O7 0.000000 0.942898 0.184390
O O8 0.771741 0.000000 0.193872
O O9 0.802957 0.160842 0.311341
O O10 0.000000 0.092818 0.320790
O O11 0.500000 0.096844 0.911250
O O12 0.707613 0.160484 0.917921
O O13 0.712037 0.092091 0.000000
O O14 0.250000 0.250000 0.702155
O O15 0.252046 0.194516 0.803088
O O16 0.000000 0.214322 0.747236
O O17 0.500000 0.213125 0.863832
O O18 0.250000 0.250000 0.904317
#
# Coordination Sequence:
#
# PCOD8268631 Si02
#       6
#    16  16  16  16  16  16
#     4   9  19  35  54  80 114 147 178 213 255 305
#     4  10  21  37  55  76 103 134 172 218 265 313
#     4  10  20  34  55  81 109 139 173 215 261 307
#     4  10  22  38  53  72 101 136 174 217 265 316
#     4  10  19  32  52  78 107 136 170 212 259 309
#     4  10  19  32  52  75 101 132 168 211 262 316
#
# _framework density 17.941590999999999
#
# number of rings (size 3 to 8) (size 9 to 14) (size 15 to 20)
#    0.000    2.167    1.667    3.000    0.000    5.333 
#    0.000    2.500    0.000    0.500    0.000    0.000 
#    0.000    0.000    0.000    0.000    0.000    0.000 
#
# Total GULP energy -595198.475096 kJ/mol
# GULP energy per Si atom -12399.968231 kJ/mol
# Density = 1.790075 g / cm^3
# Si number density = 17.941591 Si / 1000 Ang^3
#
#
#
# Elastic Constant Matrix: (Units=GPa)
#
#
# Indices 1 2 3 4 5 6 
#
# 1 64.1086 45.3477 34.2094 0.0000 0.0000 0.0000
# 2 45.3477 119.0234 58.9505 0.0000 0.0000 0.0000
# 3 34.2094 58.9505 96.9124 0.0000 0.0000 0.0000
# 4 0.0000 0.0000 0.0000 30.7138 0.0000 0.0000
# 5 0.0000 0.0000 0.0000 0.0000 29.3734 0.0000
# 6 0.0000 0.0000 0.0000 0.0000 0.0000 32.9592
#
#
#
# Elastic Compliance Matrix: (Units=1/GPa)
#
#
# Indices 1 2 3 4 5 6 
#
# 1 0.022325 -0.006587 -0.003874 0.000000 0.000000 0.000000
# 2 -0.006587 0.013968 -0.006171 0.000000 0.000000 0.000000
# 3 -0.003874 -0.006171 0.015440 0.000000 0.000000 0.000000
# 4 0.000000 0.000000 0.000000 0.032559 0.000000 0.000000
# 5 0.000000 0.000000 0.000000 0.000000 0.034044 0.000000
# 6 0.000000 0.000000 0.000000 0.000000 0.000000 0.030341
#
#
# Mechanical properties :
#
#
# Convention : Reuss Voigt Hill
#
# Bulk Modulus (GPa) = 54.14604 61.89551 58.02078
# Shear Modulus (GPa) = 26.58199 28.04506 27.31353
#
# Velocity S-wave (km/s) = 3.85331 3.95793 3.90597
# Velocity P-wave (km/s) = 7.07403 7.44716 7.26299
#
# Compressibility (1/GPa) = 0.01846857
#
# Stress axis : x y z
#
# Youngs Moduli (GPa) = 44.79253 71.59231 64.76739
#
# Poissons Ratio (x) = 0.47160 0.25089
# Poissons Ratio (y) = 0.29506 0.39970
# Poissons Ratio (z) = 0.17351 0.44182
#
# Static dielectric constant tensor:
#      x y z
#    x 3.275720 0.000000 0.000000 
#    y 0.000000 3.524720 0.000000 
#    z 0.000000 0.000000 3.167980 
# 
# 
# High freq. dielectric constant tensor:
#      x y z
#    x 1.694430 0.000000 0.000000 
#    y 0.000000 1.703740 0.000000 
#    z 0.000000 0.000000 1.675920 
# 
# From -- ./inp_files/60274.got.cif
#   From: 2010.03.12/outbox.cif.g09.slc.cpg/sg65_31_cif.got.tgz:60274.got - 2010.04.10 20:52:16.
