data_PCOD8268745
_publ_section_title
;
Structure prediction by ZEFSAII (Michael W. Deem and Ramdas Pophale) SiO2 
 PCOD8268745
Probable space group: C M M M
;
_chemical_formula_sum "Si O2"
_cell_formula_units_Z 104
_cell_length_a 22.654723
_cell_length_b 27.925322
_cell_length_c 9.410901
_cell_angle_alpha 90.000000
_cell_angle_beta 90.000000
_cell_angle_gamma 90.000000
_cell_volume 5953.716499
_symmetry_space_group_name_H-M "C M M M"
_symmetry_group_IT_number 65
_symmetry_cell_setting 'orthorhombic'
loop_
_space_group_symop_operation_xyz
x,y,z
-x,-y,z
x,-y,-z
-x,y,-z
-x,-y,-z
x,y,-z
-x,y,z
x,-y,z
1/2+x,1/2+y,z
1/2-x,1/2-y,z
1/2+x,1/2-y,-z
1/2-x,1/2+y,-z
1/2-x,1/2-y,-z
1/2+x,1/2+y,-z
1/2-x,1/2+y,z
1/2+x,1/2-y,z
loop_
_atom_site_type_symbol
_atom_site_label
_atom_site_fract_x
_atom_site_fract_y
_atom_site_fract_z
Si Si1 0.433088 0.727786 0.162388
Si Si2 0.750376 0.693939 0.334011
Si Si3 0.063958 0.500000 0.332769
Si Si4 0.636272 0.178308 0.832643
Si Si5 0.373847 0.351357 0.332491
Si Si6 0.929725 0.602300 0.340584
Si Si7 0.433489 0.447063 0.331505
O O1 0.500000 0.745767 0.183703
O O2 0.389031 0.769860 0.209021
O O3 0.422456 0.682105 0.260364
O O4 0.421348 0.712982 0.000000
O O5 0.762841 0.686391 0.500000
O O6 0.750000 0.750000 0.295205
O O7 0.801640 0.669327 0.243658
O O8 0.690929 0.666577 0.286261
O O9 0.053662 0.500000 0.500000
O O10 0.097111 0.450074 0.294816
O O11 0.000000 0.500000 0.256295
O O12 0.590486 0.139585 0.776440
O O13 0.643888 0.172367 0.000000
O O14 0.381961 0.346164 0.500000
O O15 0.387401 0.405911 0.280829
O O16 0.908163 0.616667 0.500000
O O17 0.000000 0.599186 0.339273
O O18 0.434573 0.447816 0.500000
O O19 0.500000 0.435826 0.276013
O O20 0.413439 0.500000 0.275871
#
# Coordination Sequence:
#
# PCOD8268745 Si02
#       7
#    16  16   8  16  16  16  16
#     4  10  21  34  47  69 103 135 161 197 245 298
#     4  10  20  35  52  71  97 128 169 218 255 289
#     4   7  12  26  49  75  99 125 159 199 246 299
#     4  11  22  34  50  71 100 137 173 207 248 303
#     4  10  19  32  53  76  97 128 168 208 247 297
#     4   9  17  31  53  78 103 131 164 206 256 305
#     4   8  14  26  47  77 107 127 150 196 255 306
#
# _framework density 17.468081000000002
#
# number of rings (size 3 to 8) (size 9 to 14) (size 15 to 20)
#    0.000    2.538    1.538    2.769    0.000    3.385 
#    0.000    0.385    1.692    1.846    0.000    2.154 
#    0.000    0.000    0.000    0.000    0.000    0.000 
#
# Total GULP energy -644460.224572 kJ/mol
# GULP energy per Si atom -12393.465857 kJ/mol
# Density = 1.742832 g / cm^3
# Si number density = 17.468081 Si / 1000 Ang^3
#
#
#
# Elastic Constant Matrix: (Units=GPa)
#
#
# Indices 1 2 3 4 5 6 
#
# 1 83.8623 52.0535 27.5300 0.0000 0.0000 0.0000
# 2 52.0535 132.8325 35.0417 0.0000 0.0000 0.0000
# 3 27.5300 35.0417 37.8894 0.0000 0.0000 0.0000
# 4 0.0000 0.0000 0.0000 11.9239 0.0000 0.0000
# 5 0.0000 0.0000 0.0000 0.0000 20.1062 0.0000
# 6 0.0000 0.0000 0.0000 0.0000 0.0000 20.4339
#
#
#
# Elastic Compliance Matrix: (Units=1/GPa)
#
#
# Indices 1 2 3 4 5 6 
#
# 1 0.017600 -0.004661 -0.008478 0.000000 0.000000 0.000000
# 2 -0.004661 0.011192 -0.006964 0.000000 0.000000 0.000000
# 3 -0.008478 -0.006964 0.038993 0.000000 0.000000 0.000000
# 4 0.000000 0.000000 0.000000 0.083865 0.000000 0.000000
# 5 0.000000 0.000000 0.000000 0.000000 0.049736 0.000000
# 6 0.000000 0.000000 0.000000 0.000000 0.000000 0.048938
#
#
# Mechanical properties :
#
#
# Convention : Reuss Voigt Hill
#
# Bulk Modulus (GPa) = 36.25821 53.75939 45.00880
# Shear Modulus (GPa) = 16.68204 19.82342 18.25273
#
# Velocity S-wave (km/s) = 3.09366 3.37239 3.23603
# Velocity P-wave (km/s) = 5.79335 6.78282 6.30751
#
# Compressibility (1/GPa) = 0.02757996
#
# Stress axis : x y z
#
# Youngs Moduli (GPa) = 56.81758 89.35072 25.64538
#
# Poissons Ratio (x) = 0.41642 0.21742
# Poissons Ratio (y) = 0.26480 0.17860
# Poissons Ratio (z) = 0.48169 0.62227
#
# Static dielectric constant tensor:
#      x y z
#    x 3.135800 0.000000 0.000000 
#    y 0.000000 3.631370 0.000000 
#    z 0.000000 0.000000 2.988870 
# 
# 
# High freq. dielectric constant tensor:
#      x y z
#    x 1.658320 0.000000 0.000000 
#    y 0.000000 1.681330 0.000000 
#    z 0.000000 0.000000 1.648460 
# 
# From -- ./inp_files/14728.got.cif
#   From: 2010.03.12/outbox.cif.g09.slc.cpg/sg65_8_cif.got.tgz:14728.got - 2010.04.10 20:52:16.
