data_PCOD8268167
_publ_section_title
;
Structure prediction by ZEFSAII (Michael W. Deem and Ramdas Pophale) SiO2 
 PCOD8268167
Probable space group: C M M M
;
_chemical_formula_sum "Si O2"
_cell_formula_units_Z 120
_cell_length_a 9.184444
_cell_length_b 26.655388
_cell_length_c 27.592392
_cell_angle_alpha 90.000000
_cell_angle_beta 90.000000
_cell_angle_gamma 90.000000
_cell_volume 6755.029196
_symmetry_space_group_name_H-M "C M M M"
_symmetry_group_IT_number 65
_symmetry_cell_setting 'orthorhombic'
loop_
_space_group_symop_operation_xyz
x,y,z
-x,-y,z
x,-y,-z
-x,y,-z
-x,-y,-z
x,y,-z
-x,y,z
x,-y,z
1/2+x,1/2+y,z
1/2-x,1/2-y,z
1/2+x,1/2-y,-z
1/2-x,1/2+y,-z
1/2-x,1/2-y,-z
1/2+x,1/2+y,-z
1/2-x,1/2+y,z
1/2+x,1/2-y,z
loop_
_atom_site_type_symbol
_atom_site_label
_atom_site_fract_x
_atom_site_fract_y
_atom_site_fract_z
Si Si1 0.670308 0.356396 0.148326
Si Si2 0.326627 0.500000 0.554656
Si Si3 0.170176 0.800188 0.556326
Si Si4 0.672785 0.599197 0.609027
Si Si5 0.835342 0.604729 0.292572
Si Si6 0.666509 0.057528 0.806508
Si Si7 0.668416 0.700019 0.053925
Si Si8 0.167525 0.701221 0.769278
O O1 0.500000 0.353664 0.160804
O O2 0.729267 0.412284 0.157366
O O3 0.702447 0.343877 0.092188
O O4 0.755664 0.317327 0.181826
O O5 0.500000 0.500000 0.555052
O O6 0.266630 0.500000 0.500000
O O7 0.267450 0.449647 0.580643
O O8 0.204740 0.808993 0.500000
O O9 0.250000 0.750000 0.575532
O O10 0.229939 0.849337 0.584341
O O11 0.000000 0.792502 0.565713
O O12 0.500000 0.599067 0.608673
O O13 0.726361 0.595498 0.663781
O O14 0.790187 0.566930 0.249404
O O15 0.819025 0.661227 0.273604
O O16 0.000000 0.594215 0.310009
O O17 0.500000 0.076027 0.813659
O O18 0.686075 0.000000 0.819931
O O19 0.500000 0.713950 0.054466
O O20 0.750000 0.750000 0.070285
O O21 0.717600 0.682361 0.000000
O O22 0.250000 0.750000 0.749820
O O23 0.000000 0.713347 0.781355
#
# Coordination Sequence:
#
# PCOD8268167 Si02
#       8
#    16   8  16  16  16  16  16  16
#     4  10  19  31  50  76 102 131 170 213 255 299
#     4   9  18  34  55  77 101 129 161 201 250 299
#     4   9  18  33  52  73  97 127 162 199 240 288
#     4  10  20  33  52  77 101 127 162 203 246 295
#     4   9  20  35  50  71  99 131 161 195 246 300
#     4   9  19  36  55  72  95 130 169 209 256 306
#     4   9  18  31  47  71 104 138 169 203 247 299
#     4  10  20  34  51  71 100 137 173 207 249 299
#
# _framework density 17.764541000000001
#
# number of rings (size 3 to 8) (size 9 to 14) (size 15 to 20)
#    0.000    2.600    0.000    2.400    0.933    7.733 
#    0.000    2.667    0.000    2.000    0.000    2.800 
#    0.000    0.000    0.000    0.000    0.000    0.000 
#
# Total GULP energy -744008.659356 kJ/mol
# GULP energy per Si atom -12400.144323 kJ/mol
# Density = 1.772411 g / cm^3
# Si number density = 17.764541 Si / 1000 Ang^3
#
#
#
# Elastic Constant Matrix: (Units=GPa)
#
#
# Indices 1 2 3 4 5 6 
#
# 1 60.4640 42.1631 40.9858 0.0000 0.0000 0.0000
# 2 42.1631 116.2742 54.7616 0.0000 0.0000 0.0000
# 3 40.9858 54.7616 105.8510 0.0000 0.0000 0.0000
# 4 0.0000 0.0000 0.0000 18.4049 0.0000 0.0000
# 5 0.0000 0.0000 0.0000 0.0000 23.9532 0.0000
# 6 0.0000 0.0000 0.0000 0.0000 0.0000 25.7779
#
#
#
# Elastic Compliance Matrix: (Units=1/GPa)
#
#
# Indices 1 2 3 4 5 6 
#
# 1 0.025253 -0.006018 -0.006664 0.000000 0.000000 0.000000
# 2 -0.006018 0.012805 -0.004294 0.000000 0.000000 0.000000
# 3 -0.006664 -0.004294 0.014249 0.000000 0.000000 0.000000
# 4 0.000000 0.000000 0.000000 0.054333 0.000000 0.000000
# 5 0.000000 0.000000 0.000000 0.000000 0.041748 0.000000
# 6 0.000000 0.000000 0.000000 0.000000 0.000000 0.038793
#
#
# Mechanical properties :
#
#
# Convention : Reuss Voigt Hill
#
# Bulk Modulus (GPa) = 54.48638 62.04555 58.26597
# Shear Modulus (GPa) = 22.00176 23.27246 22.63711
#
# Velocity S-wave (km/s) = 3.52308 3.62339 3.57359
# Velocity P-wave (km/s) = 6.87659 7.24622 7.06382
#
# Compressibility (1/GPa) = 0.01835321
#
# Stress axis : x y z
#
# Youngs Moduli (GPa) = 39.59908 78.09270 70.17835
#
# Poissons Ratio (x) = 0.47000 0.46770
# Poissons Ratio (y) = 0.23833 0.30137
# Poissons Ratio (z) = 0.26391 0.33536
#
# Static dielectric constant tensor:
#      x y z
#    x 3.241810 0.000000 0.000000 
#    y 0.000000 3.411810 0.000000 
#    z 0.000000 0.000000 3.247970 
# 
# 
# High freq. dielectric constant tensor:
#      x y z
#    x 1.680080 0.000000 0.000000 
#    y 0.000000 1.687730 0.000000 
#    z 0.000000 0.000000 1.679120 
# 
# From -- ./inp_files/73979.got.cif
#   From: 2010.03.12/outbox.cif.g09.slc.cpg/sg65_37_cif.got.tgz:73979.got - 2010.04.10 20:52:16.
