data_PCOD8268280
_publ_section_title
;
Structure prediction by ZEFSAII (Michael W. Deem and Ramdas Pophale) SiO2 
 PCOD8268280
Probable space group: C M M M
;
_chemical_formula_sum "Si O2"
_cell_formula_units_Z 88
_cell_length_a 27.043778
_cell_length_b 8.763306
_cell_length_c 19.073401
_cell_angle_alpha 90.000000
_cell_angle_beta 90.000000
_cell_angle_gamma 90.000000
_cell_volume 4520.260654
_symmetry_space_group_name_H-M "C M M M"
_symmetry_group_IT_number 65
_symmetry_cell_setting 'orthorhombic'
loop_
_space_group_symop_operation_xyz
x,y,z
-x,-y,z
x,-y,-z
-x,y,-z
-x,-y,-z
x,y,-z
-x,y,z
x,-y,z
1/2+x,1/2+y,z
1/2-x,1/2-y,z
1/2+x,1/2-y,-z
1/2-x,1/2+y,-z
1/2-x,1/2-y,-z
1/2+x,1/2+y,-z
1/2-x,1/2+y,z
1/2+x,1/2-y,z
loop_
_atom_site_type_symbol
_atom_site_label
_atom_site_fract_x
_atom_site_fract_y
_atom_site_fract_z
Si Si1 0.112819 0.323370 0.919294
Si Si2 0.700625 0.320430 0.838888
Si Si3 0.700577 0.177569 0.686754
Si Si4 0.092560 0.677914 0.330432
Si Si5 0.056114 0.825586 0.194393
Si Si6 0.000000 0.681314 0.421529
O O1 0.125552 0.500000 0.907285
O O2 0.157080 0.219131 0.891889
O O3 0.064569 0.275500 0.875040
O O4 0.102041 0.287034 0.000000
O O5 0.705653 0.500000 0.830602
O O6 0.750000 0.250000 0.872813
O O7 0.691938 0.247857 0.762963
O O8 0.750000 0.250000 0.650580
O O9 0.649387 0.204325 0.642217
O O10 0.711176 0.000000 0.695353
O O11 0.083134 0.500000 0.315491
O O12 0.089672 0.767321 0.257664
O O13 0.050539 0.739547 0.383971
O O14 0.000000 0.807231 0.218384
O O15 0.070309 0.000000 0.178086
O O16 0.000000 0.500000 0.424006
O O17 0.000000 0.749238 0.500000
#
# Coordination Sequence:
#
# PCOD8268280 Si02
#       6
#    16  16  16  16  16   8
#     4  11  24  40  56  75 103 142 188 237 288 343
#     4  11  21  34  54  78 107 142 182 232 287 340
#     4  10  19  31  51  81 113 147 191 236 283 335
#     4  10  19  33  58  86 114 151 190 233 281 336
#     4  11  23  37  56  82 109 141 183 231 284 346
#     4   9  18  34  59  93 124 151 188 235 283 330
#
# _framework density 19.467904999999998
#
# number of rings (size 3 to 8) (size 9 to 14) (size 15 to 20)
#    0.000    1.545    2.727    4.364    0.000    4.000 
#    0.000    1.818    0.000    1.636    0.000    0.000 
#    0.000    0.000    0.000    0.000    0.000    0.727 
#
# Total GULP energy -545433.520454 kJ/mol
# GULP energy per Si atom -12396.216374 kJ/mol
# Density = 1.942359 g / cm^3
# Si number density = 19.467905 Si / 1000 Ang^3
#
#
#
# Elastic Constant Matrix: (Units=GPa)
#
#
# Indices 1 2 3 4 5 6 
#
# 1 148.5664 47.2691 45.9445 0.0000 0.0000 0.0000
# 2 47.2691 92.8224 22.5540 0.0000 0.0000 0.0000
# 3 45.9445 22.5540 72.5916 0.0000 0.0000 0.0000
# 4 0.0000 0.0000 0.0000 10.3998 0.0000 0.0000
# 5 0.0000 0.0000 0.0000 0.0000 22.7875 0.0000
# 6 0.0000 0.0000 0.0000 0.0000 0.0000 29.5775
#
#
#
# Elastic Compliance Matrix: (Units=1/GPa)
#
#
# Indices 1 2 3 4 5 6 
#
# 1 0.009363 -0.003600 -0.004808 0.000000 0.000000 0.000000
# 2 -0.003600 0.013037 -0.001772 0.000000 0.000000 0.000000
# 3 -0.004808 -0.001772 0.017369 0.000000 0.000000 0.000000
# 4 0.000000 0.000000 0.000000 0.096156 0.000000 0.000000
# 5 0.000000 0.000000 0.000000 0.000000 0.043884 0.000000
# 6 0.000000 0.000000 0.000000 0.000000 0.000000 0.033809
#
#
# Mechanical properties :
#
#
# Convention : Reuss Voigt Hill
#
# Bulk Modulus (GPa) = 51.51986 60.61285 56.06635
# Shear Modulus (GPa) = 20.79455 25.76715 23.28085
#
# Velocity S-wave (km/s) = 3.27179 3.64204 3.46187
# Velocity P-wave (km/s) = 6.38704 6.99201 6.69636
#
# Compressibility (1/GPa) = 0.01940999
#
# Stress axis : x y z
#
# Youngs Moduli (GPa) = 106.80166 76.70421 57.57352
#
# Poissons Ratio (x) = 0.27613 0.27679
# Poissons Ratio (y) = 0.38448 0.10203
# Poissons Ratio (z) = 0.51346 0.13593
#
# Static dielectric constant tensor:
#      x y z
#    x 4.017540 0.000000 0.000000 
#    y 0.000000 3.582010 0.000000 
#    z 0.000000 0.000000 3.253310 
# 
# 
# High freq. dielectric constant tensor:
#      x y z
#    x 1.782020 0.000000 0.000000 
#    y 0.000000 1.759020 0.000000 
#    z 0.000000 0.000000 1.710400 
# 
# From -- ./inp_files/50361.got.cif
#   From: 2010.03.12/outbox.cif.g09.slc.cpg/sg65_26_cif.got.tgz:50361.got - 2010.04.10 20:52:16.
