data_PCOD8268963
_publ_section_title
;
Structure prediction by ZEFSAII (Michael W. Deem and Ramdas Pophale) SiO2 
 PCOD8268963
Probable space group: C M M M
;
_chemical_formula_sum "Si O2"
_cell_formula_units_Z 88
_cell_length_a 19.609303
_cell_length_b 9.095041
_cell_length_c 28.434651
_cell_angle_alpha 90.000000
_cell_angle_beta 90.000000
_cell_angle_gamma 90.000000
_cell_volume 5071.246496
_symmetry_space_group_name_H-M "C M M M"
_symmetry_group_IT_number 65
_symmetry_cell_setting 'orthorhombic'
loop_
_space_group_symop_operation_xyz
x,y,z
-x,-y,z
x,-y,-z
-x,y,-z
-x,-y,-z
x,y,-z
-x,y,z
x,-y,z
1/2+x,1/2+y,z
1/2-x,1/2-y,z
1/2+x,1/2-y,-z
1/2-x,1/2+y,-z
1/2-x,1/2-y,-z
1/2+x,1/2+y,-z
1/2-x,1/2+y,z
1/2+x,1/2-y,z
loop_
_atom_site_type_symbol
_atom_site_label
_atom_site_fract_x
_atom_site_fract_y
_atom_site_fract_z
Si Si1 0.575587 0.325073 0.629935
Si Si2 0.580928 0.336768 0.732764
Si Si3 0.819991 0.172570 0.446776
Si Si4 0.580054 0.829147 0.175583
Si Si5 0.819168 0.832731 0.000000
Si Si6 0.176428 0.173265 0.897740
O O1 0.500000 0.258342 0.622289
O O2 0.571546 0.500000 0.627565
O O3 0.605645 0.279914 0.681364
O O4 0.623385 0.263114 0.588631
O O5 0.500000 0.346134 0.730649
O O6 0.610328 0.500000 0.743780
O O7 0.604945 0.224401 0.773031
O O8 0.842879 0.209717 0.500000
O O9 0.750000 0.250000 0.433706
O O10 0.809643 0.000000 0.439802
O O11 0.500000 0.797296 0.168300
O O12 0.621299 0.739333 0.137130
O O13 0.597189 0.000000 0.170807
O O14 0.750000 0.750000 0.000000
O O15 0.856119 0.796807 0.950259
O O16 0.797342 0.000000 0.000000
O O17 0.250000 0.250000 0.891416
O O18 0.185309 0.000000 0.887980
#
# Coordination Sequence:
#
# PCOD8268963 Si02
#       6
#    16  16  16  16   8  16
#     4   8  14  26  46  70  90 111 149 197 234 266
#     4   8  14  27  47  67  88 118 154 191 234 281
#     4   9  17  29  45  65  91 122 151 181 223 275
#     4  10  20  33  49  71  99 129 162 198 236 281
#     4   8  16  30  49  72  95 123 157 193 233 280
#     4  10  19  33  53  75  99 126 159 197 238 283
#
# _framework density 17.352734999999999
#
# number of rings (size 3 to 8) (size 9 to 14) (size 15 to 20)
#    0.000    3.091    0.000    2.182    0.000    2.182 
#    0.000    4.091    0.000    6.545    0.000    2.545 
#    0.000    0.000    0.000    0.000    0.000    0.000 
#
# Total GULP energy -545168.231659 kJ/mol
# GULP energy per Si atom -12390.187083 kJ/mol
# Density = 1.731324 g / cm^3
# Si number density = 17.352735 Si / 1000 Ang^3
#
#
#
# Elastic Constant Matrix: (Units=GPa)
#
#
# Indices 1 2 3 4 5 6 
#
# 1 67.9296 37.6601 73.7827 0.0000 0.0000 0.0000
# 2 37.6601 65.8336 56.3863 0.0000 0.0000 0.0000
# 3 73.7827 56.3863 169.4259 0.0000 0.0000 0.0000
# 4 0.0000 0.0000 0.0000 19.4374 0.0000 0.0000
# 5 0.0000 0.0000 0.0000 0.0000 15.5053 0.0000
# 6 0.0000 0.0000 0.0000 0.0000 0.0000 23.6250
#
#
#
# Elastic Compliance Matrix: (Units=1/GPa)
#
#
# Indices 1 2 3 4 5 6 
#
# 1 0.031105 -0.008660 -0.010663 0.000000 0.000000 0.000000
# 2 -0.008660 0.023657 -0.004102 0.000000 0.000000 0.000000
# 3 -0.010663 -0.004102 0.011911 0.000000 0.000000 0.000000
# 4 0.000000 0.000000 0.000000 0.051447 0.000000 0.000000
# 5 0.000000 0.000000 0.000000 0.000000 0.064494 0.000000
# 6 0.000000 0.000000 0.000000 0.000000 0.000000 0.042328
#
#
# Mechanical properties :
#
#
# Convention : Reuss Voigt Hill
#
# Bulk Modulus (GPa) = 50.44924 70.98304 60.71614
# Shear Modulus (GPa) = 17.95974 20.73754 19.34864
#
# Velocity S-wave (km/s) = 3.22060 3.46071 3.34281
# Velocity P-wave (km/s) = 6.55482 7.54742 7.06856
#
# Compressibility (1/GPa) = 0.01982190
#
# Stress axis : x y z
#
# Youngs Moduli (GPa) = 32.14963 42.27061 83.95439
#
# Poissons Ratio (x) = 0.36607 0.89524
# Poissons Ratio (y) = 0.27842 0.34437
# Poissons Ratio (z) = 0.34283 0.17339
#
# Static dielectric constant tensor:
#      x y z
#    x 3.003980 0.000000 0.000000 
#    y 0.000000 3.144520 0.000000 
#    z 0.000000 0.000000 1.528380 
# 
# 
# High freq. dielectric constant tensor:
#      x y z
#    x 1.633380 0.000000 0.000000 
#    y 0.000000 1.656520 0.000000 
#    z 0.000000 0.000000 1.690860 
# 
# From -- ./inp_files/77826.got.cif
#   From: 2010.03.12/outbox.cif.g09.slc.cpg/sg65_39_cif.got.tgz:77826.got - 2010.04.10 20:52:16.
