data_PCOD8268614
_publ_section_title
;
Structure prediction by ZEFSAII (Michael W. Deem and Ramdas Pophale) SiO2 
 PCOD8268614
Probable space group: C M M M
;
_chemical_formula_sum "Si O2"
_cell_formula_units_Z 96
_cell_length_a 19.707098
_cell_length_b 30.435631
_cell_length_c 9.229422
_cell_angle_alpha 90.000000
_cell_angle_beta 90.000000
_cell_angle_gamma 90.000000
_cell_volume 5535.788514
_symmetry_space_group_name_H-M "C M M M"
_symmetry_group_IT_number 65
_symmetry_cell_setting 'orthorhombic'
loop_
_space_group_symop_operation_xyz
x,y,z
-x,-y,z
x,-y,-z
-x,y,-z
-x,-y,-z
x,y,-z
-x,y,z
x,-y,z
1/2+x,1/2+y,z
1/2-x,1/2-y,z
1/2+x,1/2-y,-z
1/2-x,1/2+y,-z
1/2-x,1/2-y,-z
1/2+x,1/2+y,-z
1/2-x,1/2+y,z
1/2+x,1/2-y,z
loop_
_atom_site_type_symbol
_atom_site_label
_atom_site_fract_x
_atom_site_fract_y
_atom_site_fract_z
Si Si1 0.073863 0.447777 0.162541
Si Si2 0.702098 0.049137 0.668234
Si Si3 0.293399 0.207056 0.828314
Si Si4 0.927209 0.164353 0.328727
Si Si5 0.786493 0.868753 0.329703
Si Si6 0.422814 0.235673 0.669268
O O1 0.074554 0.500000 0.166206
O O2 0.134491 0.429883 0.261429
O O3 0.000000 0.431056 0.218755
O O4 0.085943 0.430615 0.000000
O O5 0.686641 0.046970 0.500000
O O6 0.764515 0.081263 0.703450
O O7 0.719140 0.000000 0.727429
O O8 0.250000 0.250000 0.783849
O O9 0.258205 0.164521 0.761855
O O10 0.369335 0.208217 0.763439
O O11 0.298148 0.201935 0.000000
O O12 0.931799 0.163990 0.500000
O O13 0.864693 0.134366 0.276294
O O14 0.915174 0.214158 0.277971
O O15 0.000000 0.147151 0.265968
O O16 0.779094 0.857262 0.500000
O O17 0.404815 0.230669 0.500000
O O18 0.500000 0.219251 0.698654
#
# Coordination Sequence:
#
# PCOD8268614 Si02
#       6
#    16  16  16  16  16  16
#     4   8  14  26  45  67  89 117 155 195 236 284
#     4   9  18  31  47  71  99 125 158 201 247 288
#     4  11  22  33  47  72 104 131 156 197 247 292
#     4   8  14  26  47  73  94 118 160 204 235 274
#     4  10  19  32  52  72  95 131 167 201 241 289
#     4   9  17  31  52  74  96 128 169 205 236 282
#
# _framework density 17.341702999999999
#
# number of rings (size 3 to 8) (size 9 to 14) (size 15 to 20)
#    0.000    2.833    1.667    2.000    0.000    2.000 
#    0.000    2.500    0.000    2.000    0.000    3.500 
#    0.000    0.000    0.000    5.667    0.000    6.000 
#
# Total GULP energy -594850.646570 kJ/mol
# GULP energy per Si atom -12392.721804 kJ/mol
# Density = 1.730223 g / cm^3
# Si number density = 17.341703 Si / 1000 Ang^3
#
#
#
# Elastic Constant Matrix: (Units=GPa)
#
#
# Indices 1 2 3 4 5 6 
#
# 1 166.7469 61.6221 45.6990 0.0000 0.0000 0.0000
# 2 61.6221 69.9246 30.9900 0.0000 0.0000 0.0000
# 3 45.6990 30.9900 46.7658 0.0000 0.0000 0.0000
# 4 0.0000 0.0000 0.0000 14.8519 0.0000 0.0000
# 5 0.0000 0.0000 0.0000 0.0000 12.3981 0.0000
# 6 0.0000 0.0000 0.0000 0.0000 0.0000 10.5829
#
#
#
# Elastic Compliance Matrix: (Units=1/GPa)
#
#
# Indices 1 2 3 4 5 6 
#
# 1 0.009784 -0.006209 -0.005447 0.000000 0.000000 0.000000
# 2 -0.006209 0.024187 -0.009961 0.000000 0.000000 0.000000
# 3 -0.005447 -0.009961 0.033307 0.000000 0.000000 0.000000
# 4 0.000000 0.000000 0.000000 0.067331 0.000000 0.000000
# 5 0.000000 0.000000 0.000000 0.000000 0.080657 0.000000
# 6 0.000000 0.000000 0.000000 0.000000 0.000000 0.094492
#
#
# Mechanical properties :
#
#
# Convention : Reuss Voigt Hill
#
# Bulk Modulus (GPa) = 41.58853 62.22882 51.90867
# Shear Modulus (GPa) = 13.85014 17.24166 15.54590
#
# Velocity S-wave (km/s) = 2.82912 3.15656 2.99732
# Velocity P-wave (km/s) = 5.89116 7.01762 6.47892
#
# Compressibility (1/GPa) = 0.02404509
#
# Stress axis : x y z
#
# Youngs Moduli (GPa) = 102.20454 41.34436 30.02403
#
# Poissons Ratio (x) = 0.25669 0.16354
# Poissons Ratio (y) = 0.63454 0.29907
# Poissons Ratio (z) = 0.55670 0.41183
#
# Static dielectric constant tensor:
#      x y z
#    x 3.919620 0.000000 0.000000 
#    y 0.000000 3.060380 0.000000 
#    z 0.000000 0.000000 3.051820 
# 
# 
# High freq. dielectric constant tensor:
#      x y z
#    x 1.682050 0.000000 0.000000 
#    y 0.000000 1.634960 0.000000 
#    z 0.000000 0.000000 1.648020 
# 
# From -- ./inp_files/12197.got.cif
#   From: 2010.03.12/outbox.cif.g09.slc.cpg/sg65_7_cif.got.tgz:12197.got - 2010.04.10 20:52:16.
