data_PCOD8268127
_publ_section_title
;
Structure prediction by ZEFSAII (Michael W. Deem and Ramdas Pophale) SiO2 
 PCOD8268127
Probable space group: C M M M
;
_chemical_formula_sum "Si O2"
_cell_formula_units_Z 80
_cell_length_a 25.973029
_cell_length_b 19.546584
_cell_length_c 8.901781
_cell_angle_alpha 90.000000
_cell_angle_beta 90.000000
_cell_angle_gamma 90.000000
_cell_volume 4519.291724
_symmetry_space_group_name_H-M "C M M M"
_symmetry_group_IT_number 65
_symmetry_cell_setting 'orthorhombic'
loop_
_space_group_symop_operation_xyz
x,y,z
-x,-y,z
x,-y,-z
-x,y,-z
-x,-y,-z
x,y,-z
-x,y,z
x,-y,z
1/2+x,1/2+y,z
1/2-x,1/2-y,z
1/2+x,1/2-y,-z
1/2-x,1/2+y,-z
1/2-x,1/2-y,-z
1/2+x,1/2+y,-z
1/2-x,1/2+y,z
1/2+x,1/2-y,z
loop_
_atom_site_type_symbol
_atom_site_label
_atom_site_fract_x
_atom_site_fract_y
_atom_site_fract_z
Si Si1 0.804869 0.577795 0.675761
Si Si2 0.000000 0.328243 0.166771
Si Si3 0.500000 0.666165 0.163603
Si Si4 0.604271 0.178059 0.322093
Si Si5 0.799842 0.077532 0.822659
Si Si6 0.610018 0.676457 0.180571
O O1 0.795108 0.583060 0.500000
O O2 0.816518 0.500000 0.725704
O O3 0.852549 0.623844 0.726241
O O4 0.753433 0.605527 0.755659
O O5 0.000000 0.247461 0.149837
O O6 0.050713 0.351114 0.257335
O O7 0.000000 0.361609 0.000000
O O8 0.554486 0.646837 0.242346
O O9 0.500000 0.631175 0.000000
O O10 0.599161 0.186071 0.500000
O O11 0.621242 0.250013 0.251371
O O12 0.846319 0.124590 0.763647
O O13 0.810313 0.000000 0.768145
O O14 0.795977 0.081706 0.000000
O O15 0.607788 0.683921 0.000000
#
# Coordination Sequence:
#
# PCOD8268127 Si02
#       6
#    16   8   8  16  16  16
#     4   9  19  35  51  67  92 127 162 197 241 287
#     4   9  17  31  50  71  98 128 154 186 236 288
#     4   7  12  25  44  64  88 120 150 177 220 276
#     4  10  19  31  50  74  96 121 159 200 234 279
#     4   9  18  32  49  69  94 126 164 202 239 284
#     4   9  17  30  48  70  97 127 159 197 241 284
#
# _framework density 17.701888
#
# number of rings (size 3 to 8) (size 9 to 14) (size 15 to 20)
#    0.000    3.000    0.000    2.100    0.000    3.200 
#    0.000    5.000    0.000    6.000    0.000    0.000 
#    0.000    8.000    0.000    0.000    0.000    0.000 
#
# Total GULP energy -495748.934068 kJ/mol
# GULP energy per Si atom -12393.723352 kJ/mol
# Density = 1.766160 g / cm^3
# Si number density = 17.701888 Si / 1000 Ang^3
#
#
#
# Elastic Constant Matrix: (Units=GPa)
#
#
# Indices 1 2 3 4 5 6 
#
# 1 198.4218 85.1682 46.0495 0.0000 0.0000 0.0000
# 2 85.1682 74.9586 28.0088 0.0000 0.0000 0.0000
# 3 46.0495 28.0088 43.6505 0.0000 0.0000 0.0000
# 4 0.0000 0.0000 0.0000 21.1236 0.0000 0.0000
# 5 0.0000 0.0000 0.0000 0.0000 27.9790 0.0000
# 6 0.0000 0.0000 0.0000 0.0000 0.0000 15.3261
#
#
#
# Elastic Compliance Matrix: (Units=1/GPa)
#
#
# Indices 1 2 3 4 5 6 
#
# 1 0.010465 -0.010214 -0.004486 0.000000 0.000000 0.000000
# 2 -0.010214 0.027517 -0.006881 0.000000 0.000000 0.000000
# 3 -0.004486 -0.006881 0.032057 0.000000 0.000000 0.000000
# 4 0.000000 0.000000 0.000000 0.047340 0.000000 0.000000
# 5 0.000000 0.000000 0.000000 0.000000 0.035741 0.000000
# 6 0.000000 0.000000 0.000000 0.000000 0.000000 0.065248
#
#
# Mechanical properties :
#
#
# Convention : Reuss Voigt Hill
#
# Bulk Modulus (GPa) = 37.20704 70.60931 53.90818
# Shear Modulus (GPa) = 18.48484 23.40603 20.94543
#
# Velocity S-wave (km/s) = 3.23496 3.64020 3.44354
# Velocity P-wave (km/s) = 5.91757 7.59228 6.80662
#
# Compressibility (1/GPa) = 0.02687663
#
# Stress axis : x y z
#
# Youngs Moduli (GPa) = 95.55485 36.34064 31.19401
#
# Poissons Ratio (x) = 0.37119 0.13994
# Poissons Ratio (y) = 0.97602 0.21465
# Poissons Ratio (z) = 0.42868 0.25007
#
# Static dielectric constant tensor:
#      x y z
#    x 3.727060 0.000000 0.000000 
#    y 0.000000 3.127180 0.000000 
#    z 0.000000 0.000000 3.161000 
# 
# 
# High freq. dielectric constant tensor:
#      x y z
#    x 1.704050 0.000000 0.000000 
#    y 0.000000 1.655310 0.000000 
#    z 0.000000 0.000000 1.671400 
# 
# From -- ./inp_files/9707.got.cif
#   From: 2010.03.12/outbox.cif.g09.slc.cpg/sg65_5_cif.got.tgz:9707.got - 2010.04.10 20:52:16.
