data_PCOD8268805
_publ_section_title
;
Structure prediction by ZEFSAII (Michael W. Deem and Ramdas Pophale) SiO2 
 PCOD8268805
Probable space group: C M M M
;
_chemical_formula_sum "Si O2"
_cell_formula_units_Z 104
_cell_length_a 25.339329
_cell_length_b 24.303549
_cell_length_c 9.479886
_cell_angle_alpha 90.000000
_cell_angle_beta 90.000000
_cell_angle_gamma 90.000000
_cell_volume 5838.051510
_symmetry_space_group_name_H-M "C M M M"
_symmetry_group_IT_number 65
_symmetry_cell_setting 'orthorhombic'
loop_
_space_group_symop_operation_xyz
x,y,z
-x,-y,z
x,-y,-z
-x,y,-z
-x,-y,-z
x,y,-z
-x,y,z
x,-y,z
1/2+x,1/2+y,z
1/2-x,1/2-y,z
1/2+x,1/2-y,-z
1/2-x,1/2+y,-z
1/2-x,1/2-y,-z
1/2+x,1/2+y,-z
1/2-x,1/2+y,z
1/2+x,1/2-y,z
loop_
_atom_site_type_symbol
_atom_site_label
_atom_site_fract_x
_atom_site_fract_y
_atom_site_fract_z
Si Si1 0.941787 0.403557 0.344010
Si Si2 0.558932 0.561967 0.832633
Si Si3 0.562709 0.000000 0.845898
Si Si4 0.837306 0.649960 0.339380
Si Si5 0.838426 0.873918 0.164971
Si Si6 0.768000 0.436066 0.164305
Si Si7 0.810249 0.766389 0.340809
O O1 0.944817 0.430326 0.500000
O O2 0.917458 0.447115 0.235992
O O3 0.900429 0.354950 0.340335
O O4 0.000000 0.382566 0.298154
O O5 0.500000 0.582882 0.786442
O O6 0.567769 0.500000 0.774227
O O7 0.605853 0.601645 0.776504
O O8 0.562410 0.560266 0.000000
O O9 0.500000 0.000000 0.851793
O O10 0.588771 0.000000 0.000000
O O11 0.814597 0.647844 0.500000
O O12 0.807081 0.603298 0.251391
O O13 0.834629 0.710889 0.274452
O O14 0.792470 0.918473 0.193466
O O15 0.824568 0.817894 0.244686
O O16 0.842556 0.859945 0.000000
O O17 0.775078 0.500000 0.210665
O O18 0.781751 0.428992 0.000000
O O19 0.830181 0.778798 0.500000
O O20 0.750000 0.750000 0.341502
#
# Coordination Sequence:
#
# PCOD8268805 Si02
#       7
#    16  16   8  16  16  16  16
#     4   9  18  33  51  69  91 122 163 206 243 286
#     4   8  14  27  50  80 112 144 176 211 254 308
#     4   9  17  29  47  71  97 125 155 189 238 295
#     4  10  21  36  53  72  95 130 172 209 248 300
#     4  10  19  32  54  80 105 134 173 215 254 303
#     4  10  21  34  49  75 108 134 159 202 258 306
#     4  10  20  36  54  72 100 136 174 214 255 301
#
# _framework density 17.814164000000002
#
# number of rings (size 3 to 8) (size 9 to 14) (size 15 to 20)
#    0.000    2.538    1.538    1.154    1.077    4.615 
#    0.000    0.769    0.000    2.769    0.000    1.077 
#    0.000    0.000    0.000    0.000    0.000    0.000 
#
# Total GULP energy -644214.305457 kJ/mol
# GULP energy per Si atom -12388.736643 kJ/mol
# Density = 1.777362 g / cm^3
# Si number density = 17.814164 Si / 1000 Ang^3
#
#
#
# Elastic Constant Matrix: (Units=GPa)
#
#
# Indices 1 2 3 4 5 6 
#
# 1 96.6014 48.6487 27.2036 0.0000 0.0000 0.0000
# 2 48.6487 131.0809 46.0324 0.0000 0.0000 0.0000
# 3 27.2036 46.0324 57.6789 0.0000 0.0000 0.0000
# 4 0.0000 0.0000 0.0000 19.0574 0.0000 0.0000
# 5 0.0000 0.0000 0.0000 0.0000 64.4181 0.0000
# 6 0.0000 0.0000 0.0000 0.0000 0.0000 28.4764
#
#
#
# Elastic Compliance Matrix: (Units=1/GPa)
#
#
# Indices 1 2 3 4 5 6 
#
# 1 0.013144 -0.003753 -0.003204 0.000000 0.000000 0.000000
# 2 -0.003753 0.011671 -0.007544 0.000000 0.000000 0.000000
# 3 -0.003204 -0.007544 0.024870 0.000000 0.000000 0.000000
# 4 0.000000 0.000000 0.000000 0.052473 0.000000 0.000000
# 5 0.000000 0.000000 0.000000 0.000000 0.015524 0.000000
# 6 0.000000 0.000000 0.000000 0.000000 0.000000 0.035117
#
#
# Mechanical properties :
#
#
# Convention : Reuss Voigt Hill
#
# Bulk Modulus (GPa) = 48.35167 58.79227 53.57197
# Shear Modulus (GPa) = 26.49771 33.28881 29.89326
#
# Velocity S-wave (km/s) = 3.86093 4.32750 4.10086
# Velocity P-wave (km/s) = 6.86126 7.61869 7.24988
#
# Compressibility (1/GPa) = 0.02068181
#
# Stress axis : x y z
#
# Youngs Moduli (GPa) = 76.07944 85.68097 40.20973
#
# Poissons Ratio (x) = 0.32157 0.12883
# Poissons Ratio (y) = 0.28553 0.30336
# Poissons Ratio (z) = 0.24376 0.64642
#
# Static dielectric constant tensor:
#      x y z
#    x 3.419670 0.000000 0.000000 
#    y 0.000000 3.222900 0.000000 
#    z 0.000000 0.000000 3.259370 
# 
# 
# High freq. dielectric constant tensor:
#      x y z
#    x 1.697940 0.000000 0.000000 
#    y 0.000000 1.680640 0.000000 
#    z 0.000000 0.000000 1.667090 
# 
# From -- ./inp_files/16485.got.cif
#   From: 2010.03.12/outbox.cif.g09.slc.cpg/sg65_9_cif.got.tgz:16485.got - 2010.04.10 20:52:16.
