data_PCOD8268707
_publ_section_title
;
Structure prediction by ZEFSAII (Michael W. Deem and Ramdas Pophale) SiO2 
 PCOD8268707
Probable space group: C M M M
;
_chemical_formula_sum "Si O2"
_cell_formula_units_Z 80
_cell_length_a 19.658630
_cell_length_b 9.958945
_cell_length_c 23.854646
_cell_angle_alpha 90.000000
_cell_angle_beta 90.000000
_cell_angle_gamma 90.000000
_cell_volume 4670.243867
_symmetry_space_group_name_H-M "C M M M"
_symmetry_group_IT_number 65
_symmetry_cell_setting 'orthorhombic'
loop_
_space_group_symop_operation_xyz
x,y,z
-x,-y,z
x,-y,-z
-x,y,-z
-x,-y,-z
x,y,-z
-x,y,z
x,-y,z
1/2+x,1/2+y,z
1/2-x,1/2-y,z
1/2+x,1/2-y,-z
1/2-x,1/2+y,-z
1/2-x,1/2-y,-z
1/2+x,1/2+y,-z
1/2-x,1/2+y,z
1/2+x,1/2-y,z
loop_
_atom_site_type_symbol
_atom_site_label
_atom_site_fract_x
_atom_site_fract_y
_atom_site_fract_z
Si Si1 0.575244 0.659155 0.937853
Si Si2 0.812057 0.154823 0.852780
Si Si3 0.185317 0.842469 0.277078
Si Si4 0.919654 0.000000 0.561101
Si Si5 0.080544 0.245596 0.365357
Si Si6 0.419524 0.000000 0.436338
O O1 0.500000 0.717571 0.925295
O O2 0.572112 0.500000 0.935729
O O3 0.626246 0.711167 0.890299
O O4 0.599289 0.705800 0.000000
O O5 0.750000 0.250000 0.868366
O O6 0.832593 0.169421 0.788156
O O7 0.793648 0.000000 0.866916
O O8 0.250000 0.750000 0.292614
O O9 0.120415 0.776273 0.307561
O O10 0.197522 0.000000 0.293307
O O11 0.895070 0.128723 0.594010
O O12 0.885209 0.000000 0.500000
O O13 0.000000 0.000000 0.554852
O O14 0.104919 0.375252 0.399374
O O15 0.000000 0.245813 0.352089
O O16 0.500000 0.000000 0.442652
O O17 0.388637 0.000000 0.500000
#
# Coordination Sequence:
#
# PCOD8268707 Si02
#       6
#    16  16  16   8  16   8
#     4   8  14  26  46  73 102 130 162 202 246 287
#     4   9  18  32  49  71  97 129 167 204 243 288
#     4  10  21  35  51  71  99 134 166 203 251 297
#     4   9  16  28  49  75  99 121 152 199 246 283
#     4  10  19  32  52  77  99 124 162 204 243 290
#     4   9  18  32  51  77 105 129 156 195 246 299
#
# _framework density 17.129726999999999
#
# number of rings (size 3 to 8) (size 9 to 14) (size 15 to 20)
#    0.000    2.800    1.000    1.200    1.400    3.600 
#    0.000    2.000    0.000    4.200    0.000    1.400 
#    0.000    0.000    0.000    0.000    0.000    0.000 
#
# Total GULP energy -495721.738030 kJ/mol
# GULP energy per Si atom -12393.043451 kJ/mol
# Density = 1.709074 g / cm^3
# Si number density = 17.129727 Si / 1000 Ang^3
#
#
#
# Elastic Constant Matrix: (Units=GPa)
#
#
# Indices 1 2 3 4 5 6 
#
# 1 92.2653 45.3185 75.6952 0.0000 0.0000 0.0000
# 2 45.3185 105.9042 50.9078 0.0000 0.0000 0.0000
# 3 75.6952 50.9078 112.2262 0.0000 0.0000 0.0000
# 4 0.0000 0.0000 0.0000 19.4732 0.0000 0.0000
# 5 0.0000 0.0000 0.0000 0.0000 19.3797 0.0000
# 6 0.0000 0.0000 0.0000 0.0000 0.0000 29.9737
#
#
#
# Elastic Compliance Matrix: (Units=1/GPa)
#
#
# Indices 1 2 3 4 5 6 
#
# 1 0.025155 -0.003336 -0.015454 0.000000 0.000000 0.000000
# 2 -0.003336 0.012518 -0.003428 0.000000 0.000000 0.000000
# 3 -0.015454 -0.003428 0.020889 0.000000 0.000000 0.000000
# 4 0.000000 0.000000 0.000000 0.051353 0.000000 0.000000
# 5 0.000000 0.000000 0.000000 0.000000 0.051600 0.000000
# 6 0.000000 0.000000 0.000000 0.000000 0.000000 0.033363
#
#
# Mechanical properties :
#
#
# Convention : Reuss Voigt Hill
#
# Bulk Modulus (GPa) = 70.78943 72.69319 71.74131
# Shear Modulus (GPa) = 20.48994 22.99691 21.74343
#
# Velocity S-wave (km/s) = 3.46231 3.66801 3.56664
# Velocity P-wave (km/s) = 7.57619 7.77612 7.67681
#
# Compressibility (1/GPa) = 0.01412640
#
# Stress axis : x y z
#
# Youngs Moduli (GPa) = 39.75353 79.88501 47.87215
#
# Poissons Ratio (x) = 0.26649 0.73979
# Poissons Ratio (y) = 0.13261 0.16412
# Poissons Ratio (z) = 0.61433 0.27388
#
# Static dielectric constant tensor:
#      x y z
#    x 3.083670 0.000000 0.000000 
#    y 0.000000 3.218460 0.000000 
#    z 0.000000 0.000000 3.382100 
# 
# 
# High freq. dielectric constant tensor:
#      x y z
#    x 1.636010 0.000000 0.000000 
#    y 0.000000 1.651090 0.000000 
#    z 0.000000 0.000000 1.670350 
# 
# From -- ./inp_files/70848.got.cif
#   From: 2010.03.12/outbox.cif.g09.slc.cpg/sg65_36_cif.got.tgz:70848.got - 2010.04.10 20:52:16.
