data_PCOD8268739
_publ_section_title
;
Structure prediction by ZEFSAII (Michael W. Deem and Ramdas Pophale) SiO2 
 PCOD8268739
Probable space group: C M M M
;
_chemical_formula_sum "Si O2"
_cell_formula_units_Z 88
_cell_length_a 29.842885
_cell_length_b 18.181214
_cell_length_c 9.249335
_cell_angle_alpha 90.000000
_cell_angle_beta 90.000000
_cell_angle_gamma 90.000000
_cell_volume 5018.503061
_symmetry_space_group_name_H-M "C M M M"
_symmetry_group_IT_number 65
_symmetry_cell_setting 'orthorhombic'
loop_
_space_group_symop_operation_xyz
x,y,z
-x,-y,z
x,-y,-z
-x,y,-z
-x,-y,-z
x,y,-z
-x,y,z
x,-y,z
1/2+x,1/2+y,z
1/2-x,1/2-y,z
1/2+x,1/2-y,-z
1/2-x,1/2+y,-z
1/2-x,1/2-y,-z
1/2+x,1/2+y,-z
1/2-x,1/2+y,z
1/2+x,1/2-y,z
loop_
_atom_site_type_symbol
_atom_site_label
_atom_site_fract_x
_atom_site_fract_y
_atom_site_fract_z
Si Si1 0.253825 0.584467 0.161755
Si Si2 0.122181 0.235999 0.169624
Si Si3 0.946721 0.500000 0.664393
Si Si4 0.948569 0.643353 0.168481
Si Si5 0.145755 0.079617 0.170738
Si Si6 0.793303 0.700735 0.667036
O O1 0.240309 0.500000 0.156961
O O2 0.303829 0.594696 0.227748
O O3 0.217272 0.621853 0.264415
O O4 0.251248 0.618460 0.000000
O O5 0.078547 0.283225 0.212028
O O6 0.114429 0.149467 0.212929
O O7 0.164445 0.264671 0.255373
O O8 0.132474 0.242750 0.000000
O O9 0.929175 0.500000 0.500000
O O10 0.929031 0.426526 0.744024
O O11 0.000000 0.500000 0.672366
O O12 0.000000 0.659155 0.209621
O O13 0.943361 0.624629 0.000000
O O14 0.127951 0.000000 0.232292
O O15 0.149075 0.071782 0.000000
O O16 0.805011 0.691116 0.500000
O O17 0.750000 0.750000 0.694428
#
# Coordination Sequence:
#
# PCOD8268739 Si02
#       6
#    16  16   8  16  16  16
#     4   9  17  31  51  70  90 124 169 208 238 280
#     4  10  19  32  53  74  95 130 169 203 243 295
#     4   9  17  31  53  77  99 129 165 199 243 297
#     4   9  18  33  53  77 102 127 161 206 249 290
#     4   8  14  26  47  73  95 120 162 207 238 275
#     4  11  22  33  46  69 102 133 159 200 251 292
#
# _framework density 17.53511
#
# number of rings (size 3 to 8) (size 9 to 14) (size 15 to 20)
#    0.000    2.636    1.818    1.909    0.000    2.909 
#    1.636    0.000    0.000    1.091    0.000    3.818 
#    0.000    0.000    0.000    6.182    0.000    6.545 
#
# Total GULP energy -545327.643986 kJ/mol
# GULP energy per Si atom -12393.810091 kJ/mol
# Density = 1.749520 g / cm^3
# Si number density = 17.535110 Si / 1000 Ang^3
#
#
#
# Elastic Constant Matrix: (Units=GPa)
#
#
# Indices 1 2 3 4 5 6 
#
# 1 62.1560 61.6745 34.5408 0.0000 0.0000 0.0000
# 2 61.6745 163.1924 50.8805 0.0000 0.0000 0.0000
# 3 34.5408 50.8805 59.4285 0.0000 0.0000 0.0000
# 4 0.0000 0.0000 0.0000 10.0952 0.0000 0.0000
# 5 0.0000 0.0000 0.0000 0.0000 13.7743 0.0000
# 6 0.0000 0.0000 0.0000 0.0000 0.0000 28.8493
#
#
#
# Elastic Compliance Matrix: (Units=1/GPa)
#
#
# Indices 1 2 3 4 5 6 
#
# 1 0.029881 -0.008018 -0.010502 0.000000 0.000000 0.000000
# 2 -0.008018 0.010511 -0.004339 0.000000 0.000000 0.000000
# 3 -0.010502 -0.004339 0.026646 0.000000 0.000000 0.000000
# 4 0.000000 0.000000 0.000000 0.099057 0.000000 0.000000
# 5 0.000000 0.000000 0.000000 0.000000 0.072599 0.000000
# 6 0.000000 0.000000 0.000000 0.000000 0.000000 0.034663
#
#
# Mechanical properties :
#
#
# Convention : Reuss Voigt Hill
#
# Bulk Modulus (GPa) = 46.90665 64.32985 55.61825
# Shear Modulus (GPa) = 15.32892 19.72250 17.52571
#
# Velocity S-wave (km/s) = 2.95987 3.35736 3.16486
# Velocity P-wave (km/s) = 6.20397 7.19688 6.71879
#
# Compressibility (1/GPa) = 0.02131894
#
# Stress axis : x y z
#
# Youngs Moduli (GPa) = 33.46593 95.14061 37.52970
#
# Poissons Ratio (x) = 0.76287 0.39415
# Poissons Ratio (y) = 0.26834 0.16282
# Poissons Ratio (z) = 0.35147 0.41277
#
# Static dielectric constant tensor:
#      x y z
#    x 3.044100 0.000000 0.000000 
#    y 0.000000 3.661370 0.000000 
#    z 0.000000 0.000000 3.108990 
# 
# 
# High freq. dielectric constant tensor:
#      x y z
#    x 1.638350 0.000000 0.000000 
#    y 0.000000 1.693640 0.000000 
#    z 0.000000 0.000000 1.656460 
# 
# From -- ./inp_files/18296.got.cif
#   From: 2010.03.12/outbox.cif.g09.slc.cpg/sg65_10_cif.got.tgz:18296.got - 2010.04.10 20:52:16.
