data_PCOD8268352
_publ_section_title
;
Structure prediction by ZEFSAII (Michael W. Deem and Ramdas Pophale) SiO2 
 PCOD8268352
Probable space group: C M M M
;
_chemical_formula_sum "Si O2"
_cell_formula_units_Z 80
_cell_length_a 17.623953
_cell_length_b 21.826264
_cell_length_c 12.679955
_cell_angle_alpha 90.000000
_cell_angle_beta 90.000000
_cell_angle_gamma 90.000000
_cell_volume 4877.535536
_symmetry_space_group_name_H-M "C M M M"
_symmetry_group_IT_number 65
_symmetry_cell_setting 'orthorhombic'
loop_
_space_group_symop_operation_xyz
x,y,z
-x,-y,z
x,-y,-z
-x,y,-z
-x,-y,-z
x,y,-z
-x,y,z
x,-y,z
1/2+x,1/2+y,z
1/2-x,1/2-y,z
1/2+x,1/2-y,-z
1/2-x,1/2+y,-z
1/2-x,1/2-y,-z
1/2+x,1/2+y,-z
1/2-x,1/2+y,z
1/2+x,1/2-y,z
loop_
_atom_site_type_symbol
_atom_site_label
_atom_site_fract_x
_atom_site_fract_y
_atom_site_fract_z
Si Si1 0.169544 0.378354 0.376976
Si Si2 0.586498 0.754052 0.622520
Si Si3 0.586924 0.427550 0.500000
Si Si4 0.335529 0.362783 0.305027
Si Si5 0.412887 0.429408 0.878880
Si Si6 0.585195 0.000000 0.625287
O O1 0.190905 0.383345 0.500000
O O2 0.111651 0.323264 0.355765
O O3 0.245248 0.366830 0.311301
O O4 0.129781 0.440048 0.335188
O O5 0.595276 0.737084 0.500000
O O6 0.500000 0.747038 0.659964
O O7 0.639388 0.707842 0.687179
O O8 0.594076 0.500000 0.500000
O O9 0.500000 0.405434 0.500000
O O10 0.626164 0.403126 0.604612
O O11 0.359032 0.387402 0.191166
O O12 0.500000 0.418106 0.846397
O O13 0.391543 0.500000 0.860060
O O14 0.399650 0.411118 0.000000
O O15 0.500000 0.000000 0.672528
O O16 0.580219 0.000000 0.500000
#
# Coordination Sequence:
#
# PCOD8268352 Si02
#       6
#    16  16   8  16  16   8
#     4  10  20  31  47  71 103 135 169 208 251 293
#     4  10  19  32  48  68 100 141 177 202 239 303
#     4  11  22  30  41  68 106 139 160 187 241 313
#     4  12  20  30  50  73 104 128 164 207 256 299
#     4   9  19  35  52  70  96 134 177 211 243 293
#     4   9  18  32  48  66  95 138 179 207 238 288
#
# _framework density 16.401726
#
# number of rings (size 3 to 8) (size 9 to 14) (size 15 to 20)
#    0.000    1.800    2.000    4.200    2.800    5.600 
#    0.000    0.000    0.000    2.400    0.000    0.000 
#    0.000    3.200    0.000    0.000    0.000    0.200 
#
# Total GULP energy -496159.430586 kJ/mol
# GULP energy per Si atom -12403.985765 kJ/mol
# Density = 1.636439 g / cm^3
# Si number density = 16.401726 Si / 1000 Ang^3
#
#
#
# Elastic Constant Matrix: (Units=GPa)
#
#
# Indices 1 2 3 4 5 6 
#
# 1 118.5222 55.3350 25.4066 0.0000 0.0000 0.0000
# 2 55.3350 113.7682 29.3643 0.0000 0.0000 0.0000
# 3 25.4066 29.3643 51.5795 0.0000 0.0000 0.0000
# 4 0.0000 0.0000 0.0000 19.5069 0.0000 0.0000
# 5 0.0000 0.0000 0.0000 0.0000 19.2921 0.0000
# 6 0.0000 0.0000 0.0000 0.0000 0.0000 22.9401
#
#
#
# Elastic Compliance Matrix: (Units=1/GPa)
#
#
# Indices 1 2 3 4 5 6 
#
# 1 0.011262 -0.004743 -0.002847 0.000000 0.000000 0.000000
# 2 -0.004743 0.012301 -0.004667 0.000000 0.000000 0.000000
# 3 -0.002847 -0.004667 0.023447 0.000000 0.000000 0.000000
# 4 0.000000 0.000000 0.000000 0.051264 0.000000 0.000000
# 5 0.000000 0.000000 0.000000 0.000000 0.051835 0.000000
# 6 0.000000 0.000000 0.000000 0.000000 0.000000 0.043592
#
#
# Mechanical properties :
#
#
# Convention : Reuss Voigt Hill
#
# Bulk Modulus (GPa) = 44.45209 56.00908 50.23058
# Shear Modulus (GPa) = 22.15204 23.93207 23.04205
#
# Velocity S-wave (km/s) = 3.67903 3.82399 3.75221
# Velocity P-wave (km/s) = 6.72368 7.32936 7.03305
#
# Compressibility (1/GPa) = 0.02249613
#
# Stress axis : x y z
#
# Youngs Moduli (GPa) = 88.79577 81.29332 42.64957
#
# Poissons Ratio (x) = 0.38555 0.12143
# Poissons Ratio (y) = 0.42113 0.19904
# Poissons Ratio (z) = 0.25282 0.37939
#
# Static dielectric constant tensor:
#      x y z
#    x 3.159870 0.000000 0.000000 
#    y 0.000000 3.184440 0.000000 
#    z 0.000000 0.000000 2.751490 
# 
# 
# High freq. dielectric constant tensor:
#      x y z
#    x 1.638610 0.000000 0.000000 
#    y 0.000000 1.644690 0.000000 
#    z 0.000000 0.000000 1.578010 
# 
# From -- ./inp_files/24646.got.cif
#   From: 2010.03.12/outbox.cif.g09.slc.cpg/sg65_13_cif.got.tgz:24646.got - 2010.04.10 20:52:16.
