data_PCOD8268692
_publ_section_title
;
Structure prediction by ZEFSAII (Michael W. Deem and Ramdas Pophale) SiO2 
 PCOD8268692
Probable space group: C M M M
;
_chemical_formula_sum "Si O2"
_cell_formula_units_Z 72
_cell_length_a 18.715290
_cell_length_b 8.592589
_cell_length_c 23.275565
_cell_angle_alpha 90.000000
_cell_angle_beta 90.000000
_cell_angle_gamma 90.000000
_cell_volume 3743.008663
_symmetry_space_group_name_H-M "C M M M"
_symmetry_group_IT_number 65
_symmetry_cell_setting 'orthorhombic'
loop_
_space_group_symop_operation_xyz
x,y,z
-x,-y,z
x,-y,-z
-x,y,-z
-x,-y,-z
x,y,-z
-x,y,z
x,-y,z
1/2+x,1/2+y,z
1/2-x,1/2-y,z
1/2+x,1/2-y,-z
1/2-x,1/2+y,-z
1/2-x,1/2-y,-z
1/2+x,1/2+y,-z
1/2-x,1/2+y,z
1/2+x,1/2-y,z
loop_
_atom_site_type_symbol
_atom_site_label
_atom_site_fract_x
_atom_site_fract_y
_atom_site_fract_z
Si Si1 0.827600 0.314949 0.667394
Si Si2 0.327754 0.316901 0.212111
Si Si3 0.083119 0.317111 0.110886
Si Si4 0.579913 0.184845 0.562843
Si Si5 0.670597 0.183667 0.000000
O O1 0.827281 0.500000 0.668965
O O2 0.750000 0.250000 0.656111
O O3 0.856922 0.252766 0.728071
O O4 0.874200 0.246262 0.615067
O O5 0.319533 0.500000 0.218126
O O6 0.250000 0.250000 0.195360
O O7 0.386376 0.275167 0.164943
O O8 0.093673 0.500000 0.121055
O O9 0.000000 0.275490 0.102318
O O10 0.126839 0.258667 0.055433
O O11 0.610340 0.236128 0.500000
O O12 0.500000 0.249814 0.569778
O O13 0.579501 0.000000 0.566659
O O14 0.750000 0.250000 0.000000
O O15 0.676248 0.000000 0.000000
#
# Coordination Sequence:
#
# PCOD8268692 Si02
#       5
#    16  16  16  16   8
#     4  10  19  32  52  77 104 136 173 215 264 315
#     4  11  22  37  56  78 107 142 181 223 267 317
#     4  10  21  38  59  83 112 144 179 219 264 315
#     4   8  15  29  49  73 100 131 170 214 258 309
#     4  10  21  37  59  85 111 144 181 218 262 312
#
# _framework density 19.235862999999998
#
# number of rings (size 3 to 8) (size 9 to 14) (size 15 to 20)
#    0.000    2.222    0.000    5.667    0.000    5.778 
#    0.000    2.222    0.000    6.000    0.000    6.222 
#    0.000    0.000    0.000    0.000    0.000    0.000 
#
# Total GULP energy -446351.085856 kJ/mol
# GULP energy per Si atom -12398.641274 kJ/mol
# Density = 1.919208 g / cm^3
# Si number density = 19.235863 Si / 1000 Ang^3
#
#
#
# Elastic Constant Matrix: (Units=GPa)
#
#
# Indices 1 2 3 4 5 6 
#
# 1 111.1610 30.3339 96.0480 0.0000 0.0000 0.0000
# 2 30.3339 69.5901 40.5525 0.0000 0.0000 0.0000
# 3 96.0480 40.5525 188.3300 0.0000 0.0000 0.0000
# 4 0.0000 0.0000 0.0000 14.7478 0.0000 0.0000
# 5 0.0000 0.0000 0.0000 0.0000 39.8283 0.0000
# 6 0.0000 0.0000 0.0000 0.0000 0.0000 27.2213
#
#
#
# Elastic Compliance Matrix: (Units=1/GPa)
#
#
# Indices 1 2 3 4 5 6 
#
# 1 0.016489 -0.002615 -0.007846 0.000000 0.000000 0.000000
# 2 -0.002615 0.016846 -0.002294 0.000000 0.000000 0.000000
# 3 -0.007846 -0.002294 0.009805 0.000000 0.000000 0.000000
# 4 0.000000 0.000000 0.000000 0.067807 0.000000 0.000000
# 5 0.000000 0.000000 0.000000 0.000000 0.025108 0.000000
# 6 0.000000 0.000000 0.000000 0.000000 0.000000 0.036736
#
#
# Mechanical properties :
#
#
# Convention : Reuss Voigt Hill
#
# Bulk Modulus (GPa) = 56.72016 78.10553 67.41284
# Shear Modulus (GPa) = 24.48836 29.83593 27.16214
#
# Velocity S-wave (km/s) = 3.57186 3.94262 3.76181
# Velocity P-wave (km/s) = 6.82361 7.83696 7.34777
#
# Compressibility (1/GPa) = 0.01763042
#
# Stress axis : x y z
#
# Youngs Moduli (GPa) = 60.64580 59.35973 101.98514
#
# Poissons Ratio (x) = 0.15524 0.80021
# Poissons Ratio (y) = 0.15860 0.23393
# Poissons Ratio (z) = 0.47585 0.13616
#
# Static dielectric constant tensor:
#      x y z
#    x 3.292330 0.000000 0.000000 
#    y 0.000000 3.285290 0.000000 
#    z 0.000000 0.000000 3.960430 
# 
# 
# High freq. dielectric constant tensor:
#      x y z
#    x 1.745170 0.000000 0.000000 
#    y 0.000000 1.727670 0.000000 
#    z 0.000000 0.000000 1.768330 
# 
# From -- ./inp_files/70338.got.cif
#   From: 2010.03.12/outbox.cif.g09.slc.cpg/sg65_36_cif.got.tgz:70338.got - 2010.04.10 20:52:16.
