data_PCOD8268857
_publ_section_title
;
Structure prediction by ZEFSAII (Michael W. Deem and Ramdas Pophale) SiO2 
 PCOD8268857
Probable space group: C M M M
;
_chemical_formula_sum "Si O2"
_cell_formula_units_Z 104
_cell_length_a 8.844222
_cell_length_b 30.879342
_cell_length_c 22.604785
_cell_angle_alpha 90.000000
_cell_angle_beta 90.000000
_cell_angle_gamma 90.000000
_cell_volume 6173.451684
_symmetry_space_group_name_H-M "C M M M"
_symmetry_group_IT_number 65
_symmetry_cell_setting 'orthorhombic'
loop_
_space_group_symop_operation_xyz
x,y,z
-x,-y,z
x,-y,-z
-x,y,-z
-x,-y,-z
x,y,-z
-x,y,z
x,-y,z
1/2+x,1/2+y,z
1/2-x,1/2-y,z
1/2+x,1/2-y,-z
1/2-x,1/2+y,-z
1/2-x,1/2-y,-z
1/2+x,1/2+y,-z
1/2-x,1/2+y,z
1/2+x,1/2-y,z
loop_
_atom_site_type_symbol
_atom_site_label
_atom_site_fract_x
_atom_site_fract_y
_atom_site_fract_z
Si Si1 0.336199 0.950762 0.500000
Si Si2 0.329458 0.688344 0.563269
Si Si3 0.818560 0.793682 0.692093
Si Si4 0.171051 0.907199 0.398652
Si Si5 0.321081 0.117244 0.720005
Si Si6 0.678075 0.049071 0.182502
Si Si7 0.669696 0.448675 0.935600
O O1 0.500000 0.925673 0.500000
O O2 0.239483 0.942884 0.441289
O O3 0.377144 0.000000 0.500000
O O4 0.251258 0.702632 0.500000
O O5 0.500000 0.705668 0.562300
O O6 0.253976 0.705671 0.623965
O O7 0.326983 0.636800 0.564447
O O8 0.750000 0.750000 0.721430
O O9 0.759092 0.835808 0.727216
O O10 0.000000 0.794263 0.694128
O O11 0.276082 0.904553 0.341390
O O12 0.000000 0.919169 0.379637
O O13 0.500000 0.124266 0.723406
O O14 0.261590 0.083954 0.770078
O O15 0.500000 0.046898 0.185584
O O16 0.725230 0.067246 0.117994
O O17 0.742654 0.000000 0.194211
O O18 0.500000 0.431571 0.924435
O O19 0.670665 0.500000 0.937250
O O20 0.728034 0.431455 0.000000
#
# Coordination Sequence:
#
# PCOD8268857 Si02
#       7
#     8  16  16  16  16  16  16
#     4  11  23  35  47  65  88 115 150 195 247 299
#     4   8  14  27  47  67  86 109 135 173 225 281
#     4  10  20  33  50  70  94 123 158 198 245 298
#     4  10  19  33  51  67  86 114 151 194 240 290
#     4  10  20  34  51  71  98 129 162 201 246 292
#     4   9  18  31  47  69  98 133 169 203 239 281
#     4   8  14  25  42  66  97 131 164 199 237 275
#
# _framework density 16.846329000000001
#
# number of rings (size 3 to 8) (size 9 to 14) (size 15 to 20)
#    0.000    2.692    0.769    3.000    0.000    3.077 
#    0.000    3.077    0.000    0.000    0.000    0.000 
#    0.000    0.615    0.000    2.000    0.000    2.923 
#
# Total GULP energy -644184.961821 kJ/mol
# GULP energy per Si atom -12388.172343 kJ/mol
# Density = 1.680799 g / cm^3
# Si number density = 16.846329 Si / 1000 Ang^3
#
#
#
# Elastic Constant Matrix: (Units=GPa)
#
#
# Indices 1 2 3 4 5 6 
#
# 1 51.8126 31.0266 22.0952 0.0000 0.0000 0.0000
# 2 31.0266 86.5853 50.4618 0.0000 0.0000 0.0000
# 3 22.0952 50.4618 99.7091 0.0000 0.0000 0.0000
# 4 0.0000 0.0000 0.0000 -1.8845 0.0000 0.0000
# 5 0.0000 0.0000 0.0000 0.0000 24.1951 0.0000
# 6 0.0000 0.0000 0.0000 0.0000 0.0000 19.7039
#
#
#
# Elastic Compliance Matrix: (Units=1/GPa)
#
#
# Indices 1 2 3 4 5 6 
#
# 1 0.024712 -0.008033 -0.001411 0.000000 0.000000 0.000000
# 2 -0.008033 0.018992 -0.007832 0.000000 0.000000 0.000000
# 3 -0.001411 -0.007832 0.014305 0.000000 0.000000 0.000000
# 4 0.000000 0.000000 0.000000 -0.530644 0.000000 0.000000
# 5 0.000000 0.000000 0.000000 0.000000 0.041331 0.000000
# 6 0.000000 0.000000 0.000000 0.000000 0.000000 0.050751
#
#
# Mechanical properties :
#
#
# Convention : Reuss Voigt Hill
#
# Bulk Modulus (GPa) = 42.62781 49.47490 46.05135
# Shear Modulus (GPa) = -14.78497 17.37111 1.29307
#
# Velocity S-wave (km/s) = -2.96571 3.21464 0.87706
# Velocity P-wave (km/s) = 3.69210 6.57348 5.33115
#
# Compressibility (1/GPa) = 0.02345887
#
# Stress axis : x y z
#
# Youngs Moduli (GPa) = 40.46558 52.65335 69.90422
#
# Poissons Ratio (x) = 0.42297 0.09861
# Poissons Ratio (y) = 0.32507 0.54746
# Poissons Ratio (z) = 0.05708 0.41236
#
# Static dielectric constant tensor:
#      x y z
#    x 3.087410 0.000000 0.000000 
#    y 0.000000 3.056710 0.000000 
#    z 0.000000 0.000000 3.339700 
# 
# 
# High freq. dielectric constant tensor:
#      x y z
#    x 1.645450 0.000000 0.000000 
#    y 0.000000 1.623870 0.000000 
#    z 0.000000 0.000000 1.630750 
# 
# From -- ./inp_files/60928.got.cif
#   From: 2010.03.12/outbox.cif.g09.slc.cpg/sg65_31_cif.got.tgz:60928.got - 2010.04.10 20:52:16.
