data_PCOD8268143
_publ_section_title
;
Structure prediction by ZEFSAII (Michael W. Deem and Ramdas Pophale) SiO2 
 PCOD8268143
Probable space group: C M M M
;
_chemical_formula_sum "Si O2"
_cell_formula_units_Z 80
_cell_length_a 9.107101
_cell_length_b 25.547495
_cell_length_c 19.713958
_cell_angle_alpha 90.000000
_cell_angle_beta 90.000000
_cell_angle_gamma 90.000000
_cell_volume 4586.720779
_symmetry_space_group_name_H-M "C M M M"
_symmetry_group_IT_number 65
_symmetry_cell_setting 'orthorhombic'
loop_
_space_group_symop_operation_xyz
x,y,z
-x,-y,z
x,-y,-z
-x,y,-z
-x,-y,-z
x,y,-z
-x,y,z
x,-y,z
1/2+x,1/2+y,z
1/2-x,1/2-y,z
1/2+x,1/2-y,-z
1/2-x,1/2+y,-z
1/2-x,1/2-y,-z
1/2+x,1/2+y,-z
1/2-x,1/2+y,z
1/2+x,1/2-y,z
loop_
_atom_site_type_symbol
_atom_site_label
_atom_site_fract_x
_atom_site_fract_y
_atom_site_fract_z
Si Si1 0.673915 0.085287 0.664689
Si Si2 0.331676 0.500000 0.580166
Si Si3 0.664314 0.558035 0.797306
Si Si4 0.828482 0.354466 0.140242
Si Si5 0.170812 0.696746 0.718607
Si Si6 0.670781 0.803501 0.000000
O O1 0.500000 0.077689 0.657624
O O2 0.728777 0.058517 0.733064
O O3 0.713497 0.147664 0.669168
O O4 0.753066 0.053893 0.604038
O O5 0.500000 0.500000 0.606746
O O6 0.325328 0.500000 0.500000
O O7 0.500000 0.577182 0.777354
O O8 0.658374 0.500000 0.827212
O O9 0.732839 0.593333 0.855900
O O10 0.786431 0.316601 0.203353
O O11 0.000000 0.368288 0.143706
O O12 0.780188 0.332111 0.068260
O O13 0.250000 0.750000 0.694964
O O14 0.000000 0.708150 0.712774
O O15 0.750000 0.750000 0.000000
O O16 0.500000 0.793050 0.000000
#
# Coordination Sequence:
#
# PCOD8268143 Si02
#       6
#    16   8  16  16  16   8
#     4  10  20  34  54  79 108 141 176 212 257 310
#     4  11  23  37  55  83 115 142 173 212 253 301
#     4  10  19  31  50  75 101 129 168 214 261 308
#     4   9  19  33  48  70  99 132 173 214 262 320
#     4   9  18  31  49  76 104 133 171 216 262 309
#     4  10  20  34  51  70  95 129 170 217 265 322
#
# _framework density 17.441654
#
# number of rings (size 3 to 8) (size 9 to 14) (size 15 to 20)
#    0.000    2.300    1.000    3.300    0.000    6.800 
#    0.000    0.500    0.000    3.600    0.000    0.000 
#    0.000    0.000    0.000    0.000    0.000    0.000 
#
# Total GULP energy -495770.770910 kJ/mol
# GULP energy per Si atom -12394.269273 kJ/mol
# Density = 1.740196 g / cm^3
# Si number density = 17.441654 Si / 1000 Ang^3
#
#
#
# Elastic Constant Matrix: (Units=GPa)
#
#
# Indices 1 2 3 4 5 6 
#
# 1 82.1057 66.7315 38.6412 0.0000 0.0000 0.0000
# 2 66.7315 141.6151 49.8299 0.0000 0.0000 0.0000
# 3 38.6412 49.8299 78.2512 0.0000 0.0000 0.0000
# 4 0.0000 0.0000 0.0000 19.1682 0.0000 0.0000
# 5 0.0000 0.0000 0.0000 0.0000 21.7987 0.0000
# 6 0.0000 0.0000 0.0000 0.0000 0.0000 35.8707
#
#
#
# Elastic Compliance Matrix: (Units=1/GPa)
#
#
# Indices 1 2 3 4 5 6 
#
# 1 0.021333 -0.008178 -0.005327 0.000000 0.000000 0.000000
# 2 -0.008178 0.012236 -0.003753 0.000000 0.000000 0.000000
# 3 -0.005327 -0.003753 0.017800 0.000000 0.000000 0.000000
# 4 0.000000 0.000000 0.000000 0.052170 0.000000 0.000000
# 5 0.000000 0.000000 0.000000 0.000000 0.045874 0.000000
# 6 0.000000 0.000000 0.000000 0.000000 0.000000 0.027878
#
#
# Mechanical properties :
#
#
# Convention : Reuss Voigt Hill
#
# Bulk Modulus (GPa) = 59.33842 68.04191 63.69017
# Shear Modulus (GPa) = 22.99648 25.15212 24.07430
#
# Velocity S-wave (km/s) = 3.63503 3.80158 3.71924
# Velocity P-wave (km/s) = 7.19117 7.63971 7.41883
#
# Compressibility (1/GPa) = 0.01685249
#
# Stress axis : x y z
#
# Youngs Moduli (GPa) = 46.87524 81.72760 56.18073
#
# Poissons Ratio (x) = 0.66839 0.29925
# Poissons Ratio (y) = 0.38336 0.21085
# Poissons Ratio (z) = 0.24969 0.30674
#
# Static dielectric constant tensor:
#      x y z
#    x 3.576160 0.000000 0.000000 
#    y 0.000000 3.492060 0.000000 
#    z 0.000000 0.000000 3.066760 
# 
# 
# High freq. dielectric constant tensor:
#      x y z
#    x 1.684660 0.000000 0.000000 
#    y 0.000000 1.679330 0.000000 
#    z 0.000000 0.000000 1.641990 
# 
# From -- ./inp_files/49934.got.cif
#   From: 2010.03.12/outbox.cif.g09.slc.cpg/sg65_25_cif.got.tgz:49934.got - 2010.04.10 20:52:16.
