data_PCOD8268037
_publ_section_title
;
Structure prediction by ZEFSAII (Michael W. Deem and Ramdas Pophale) SiO2 
 PCOD8268037
Probable space group: C M M M
;
_chemical_formula_sum "Si O2"
_cell_formula_units_Z 64
_cell_length_a 18.568800
_cell_length_b 8.852352
_cell_length_c 20.560737
_cell_angle_alpha 90.000000
_cell_angle_beta 90.000000
_cell_angle_gamma 90.000000
_cell_volume 3379.723653
_symmetry_space_group_name_H-M "C M M M"
_symmetry_group_IT_number 65
_symmetry_cell_setting 'orthorhombic'
loop_
_space_group_symop_operation_xyz
x,y,z
-x,-y,z
x,-y,-z
-x,y,-z
-x,-y,-z
x,y,-z
-x,y,z
x,-y,z
1/2+x,1/2+y,z
1/2-x,1/2-y,z
1/2+x,1/2-y,-z
1/2-x,1/2+y,-z
1/2-x,1/2-y,-z
1/2+x,1/2+y,-z
1/2-x,1/2+y,z
1/2+x,1/2-y,z
loop_
_atom_site_type_symbol
_atom_site_label
_atom_site_fract_x
_atom_site_fract_y
_atom_site_fract_z
Si Si1 0.581194 0.320458 0.000000
Si Si2 0.083996 0.324451 0.235091
Si Si3 0.671877 0.321694 0.122896
Si Si4 0.327354 0.820091 0.500000
Si Si5 0.579374 0.821172 0.380981
O O1 0.623125 0.261099 0.936533
O O2 0.577921 0.500000 0.000000
O O3 0.500000 0.253781 0.000000
O O4 0.100476 0.500000 0.222150
O O5 0.133260 0.223061 0.189472
O O6 0.105673 0.277809 0.308613
O O7 0.000000 0.289813 0.222487
O O8 0.680824 0.500000 0.120192
O O9 0.750000 0.250000 0.117552
O O10 0.250000 0.750000 0.500000
O O11 0.367184 0.757379 0.564348
O O12 0.323034 0.000000 0.500000
O O13 0.500000 0.752684 0.393644
O O14 0.574300 0.000000 0.386495
#
# Coordination Sequence:
#
# PCOD8268037 Si02
#       5
#     8  16  16   8  16
#     4   9  19  36  57  79 102 131 170 215 258 302
#     4   9  18  34  55  79 106 134 169 214 260 307
#     4  11  22  36  55  78 107 140 173 210 254 305
#     4  10  19  31  49  73 101 132 168 208 252 302
#     4   8  15  30  53  76  97 128 171 213 249 293
#
# _framework density 18.936461000000001
#
# number of rings (size 3 to 8) (size 9 to 14) (size 15 to 20)
#    0.000    2.625    0.000    3.750    0.000    4.000 
#    0.000    5.625    0.000    7.500    0.000    0.000 
#    0.000    0.000    0.000    0.000    0.000    0.000 
#
# Total GULP energy -396755.228722 kJ/mol
# GULP energy per Si atom -12398.600898 kJ/mol
# Density = 1.889336 g / cm^3
# Si number density = 18.936461 Si / 1000 Ang^3
#
#
#
# Elastic Constant Matrix: (Units=GPa)
#
#
# Indices 1 2 3 4 5 6 
#
# 1 154.5000 37.7880 104.5650 0.0000 0.0000 0.0000
# 2 37.7880 39.6439 34.1613 0.0000 0.0000 0.0000
# 3 104.5650 34.1613 171.4091 0.0000 0.0000 0.0000
# 4 0.0000 0.0000 0.0000 18.7094 0.0000 0.0000
# 5 0.0000 0.0000 0.0000 0.0000 22.2426 0.0000
# 6 0.0000 0.0000 0.0000 0.0000 0.0000 19.1037
#
#
#
# Elastic Compliance Matrix: (Units=1/GPa)
#
#
# Indices 1 2 3 4 5 6 
#
# 1 0.012201 -0.006297 -0.006188 0.000000 0.000000 0.000000
# 2 -0.006297 0.033705 -0.002876 0.000000 0.000000 0.000000
# 3 -0.006188 -0.002876 0.010182 0.000000 0.000000 0.000000
# 4 0.000000 0.000000 0.000000 0.053449 0.000000 0.000000
# 5 0.000000 0.000000 0.000000 0.000000 0.044959 0.000000
# 6 0.000000 0.000000 0.000000 0.000000 0.000000 0.052346
#
#
# Mechanical properties :
#
#
# Convention : Reuss Voigt Hill
#
# Bulk Modulus (GPa) = 39.42302 79.84241 59.63272
# Shear Modulus (GPa) = 20.32371 24.61371 22.46871
#
# Velocity S-wave (km/s) = 3.27962 3.60919 3.44834
# Velocity P-wave (km/s) = 5.93338 7.72161 6.88579
#
# Compressibility (1/GPa) = 0.02536589
#
# Stress axis : x y z
#
# Youngs Moduli (GPa) = 81.96380 29.66904 98.21472
#
# Poissons Ratio (x) = 0.18684 0.60772
# Poissons Ratio (y) = 0.51616 0.28244
# Poissons Ratio (z) = 0.50716 0.08532
#
# Static dielectric constant tensor:
#      x y z
#    x 3.584280 0.000000 0.000000 
#    y 0.000000 3.039880 0.000000 
#    z 0.000000 0.000000 3.791980 
# 
# 
# High freq. dielectric constant tensor:
#      x y z
#    x 1.741070 0.000000 0.000000 
#    y 0.000000 1.695160 0.000000 
#    z 0.000000 0.000000 1.753790 
# 
# From -- ./inp_files/58808.got.cif
#   From: 2010.03.12/outbox.cif.g09.slc.cpg/sg65_30_cif.got.tgz:58808.got - 2010.04.10 20:52:16.
