data_PCOD8268429
_publ_section_title
;
Structure prediction by ZEFSAII (Michael W. Deem and Ramdas Pophale) SiO2 
 PCOD8268429
Probable space group: C M M M
;
_chemical_formula_sum "Si O2"
_cell_formula_units_Z 104
_cell_length_a 24.986959
_cell_length_b 29.242927
_cell_length_c 8.153111
_cell_angle_alpha 90.000000
_cell_angle_beta 90.000000
_cell_angle_gamma 90.000000
_cell_volume 5957.411499
_symmetry_space_group_name_H-M "C M M M"
_symmetry_group_IT_number 65
_symmetry_cell_setting 'orthorhombic'
loop_
_space_group_symop_operation_xyz
x,y,z
-x,-y,z
x,-y,-z
-x,y,-z
-x,-y,-z
x,y,-z
-x,y,z
x,-y,z
1/2+x,1/2+y,z
1/2-x,1/2-y,z
1/2+x,1/2-y,-z
1/2-x,1/2+y,-z
1/2-x,1/2-y,-z
1/2+x,1/2+y,-z
1/2-x,1/2+y,z
1/2+x,1/2-y,z
loop_
_atom_site_type_symbol
_atom_site_label
_atom_site_fract_x
_atom_site_fract_y
_atom_site_fract_z
Si Si1 0.436540 0.450711 0.685769
Si Si2 0.063220 0.551427 0.500000
Si Si3 0.938480 0.856783 0.814029
Si Si4 0.252650 0.196975 0.187469
Si Si5 0.062394 0.388261 0.812597
Si Si6 0.855575 0.209065 0.313838
Si Si7 0.362627 0.811672 0.310876
O O1 0.417290 0.442994 0.500000
O O2 0.500000 0.452358 0.694869
O O3 0.414351 0.500000 0.750659
O O4 0.415161 0.408264 0.792876
O O5 0.087558 0.500000 0.500000
O O6 0.081761 0.576497 0.330563
O O7 0.000000 0.548456 0.500000
O O8 0.908699 0.820901 0.699233
O O9 0.000000 0.855619 0.759139
O O10 0.930524 0.841235 0.000000
O O11 0.250000 0.250000 0.236784
O O12 0.192472 0.180115 0.227667
O O13 0.300381 0.172451 0.288993
O O14 0.266539 0.188211 0.000000
O O15 0.097032 0.342306 0.794835
O O16 0.000000 0.376196 0.786166
O O17 0.070968 0.407492 0.000000
O O18 0.838655 0.216301 0.500000
O O19 0.866742 0.259731 0.240049
O O20 0.379798 0.815490 0.500000
#
# Coordination Sequence:
#
# PCOD8268429 Si02
#       7
#    16   8  16  16  16  16  16
#     4   8  14  26  44  63  83 110 146 189 235 282
#     4   9  18  34  54  76 105 136 168 210 253 298
#     4  10  20  31  43  63  93 125 158 198 243 293
#     4   9  17  30  48  69  93 122 161 207 248 287
#     4  10  20  33  51  77 108 140 173 209 252 304
#     4  10  20  32  47  67  94 130 168 206 246 291
#     4  10  19  32  50  71  99 133 169 207 245 291
#
# _framework density 17.457246000000001
#
# number of rings (size 3 to 8) (size 9 to 14) (size 15 to 20)
#    0.000    2.538    0.769    2.308    0.000    5.846 
#    0.000    6.154    0.000    0.000    0.000    1.077 
#    0.000    3.692    0.000    0.000    0.000    0.000 
#
# Total GULP energy -644369.043635 kJ/mol
# GULP energy per Si atom -12391.712378 kJ/mol
# Density = 1.741751 g / cm^3
# Si number density = 17.457246 Si / 1000 Ang^3
#
#
#
# Elastic Constant Matrix: (Units=GPa)
#
#
# Indices 1 2 3 4 5 6 
#
# 1 65.1336 42.0441 26.6233 0.0000 0.0000 0.0000
# 2 42.0441 91.9065 32.9401 0.0000 0.0000 0.0000
# 3 26.6233 32.9401 79.6996 0.0000 0.0000 0.0000
# 4 0.0000 0.0000 0.0000 22.0707 0.0000 0.0000
# 5 0.0000 0.0000 0.0000 0.0000 25.0107 0.0000
# 6 0.0000 0.0000 0.0000 0.0000 0.0000 3.2106
#
#
#
# Elastic Compliance Matrix: (Units=1/GPa)
#
#
# Indices 1 2 3 4 5 6 
#
# 1 0.022762 -0.009024 -0.003874 0.000000 0.000000 0.000000
# 2 -0.009024 0.016351 -0.003743 0.000000 0.000000 0.000000
# 3 -0.003874 -0.003743 0.015388 0.000000 0.000000 0.000000
# 4 0.000000 0.000000 0.000000 0.045309 0.000000 0.000000
# 5 0.000000 0.000000 0.000000 0.000000 0.039983 0.000000
# 6 0.000000 0.000000 0.000000 0.000000 0.000000 0.311467
#
#
# Mechanical properties :
#
#
# Convention : Reuss Voigt Hill
#
# Bulk Modulus (GPa) = 47.12973 48.88383 48.00678
# Shear Modulus (GPa) = 10.17058 19.06721 14.61889
#
# Velocity S-wave (km/s) = 2.41633 3.30847 2.89695
# Velocity P-wave (km/s) = 5.90260 6.53126 6.22487
#
# Compressibility (1/GPa) = 0.02121803
#
# Stress axis : x y z
#
# Youngs Moduli (GPa) = 43.93354 61.16006 64.98500
#
# Poissons Ratio (x) = 0.55193 0.25173
# Poissons Ratio (y) = 0.39647 0.24325
# Poissons Ratio (z) = 0.17018 0.22893
#
# Static dielectric constant tensor:
#      x y z
#    x 3.106950 0.000000 0.000000 
#    y 0.000000 3.361230 0.000000 
#    z 0.000000 0.000000 3.280650 
# 
# 
# High freq. dielectric constant tensor:
#      x y z
#    x 1.645370 0.000000 0.000000 
#    y 0.000000 1.647840 0.000000 
#    z 0.000000 0.000000 1.683500 
# 
# From -- ./inp_files/15058.got.cif
#   From: 2010.03.12/outbox.cif.g09.slc.cpg/sg65_8_cif.got.tgz:15058.got - 2010.04.10 20:52:16.
