data_PCOD8268358
_publ_section_title
;
Structure prediction by ZEFSAII (Michael W. Deem and Ramdas Pophale) SiO2 
 PCOD8268358
Probable space group: C M M M
;
_chemical_formula_sum "Si O2"
_cell_formula_units_Z 120
_cell_length_a 21.027142
_cell_length_b 13.759176
_cell_length_c 22.263331
_cell_angle_alpha 90.000000
_cell_angle_beta 90.000000
_cell_angle_gamma 90.000000
_cell_volume 6441.141157
_symmetry_space_group_name_H-M "C M M M"
_symmetry_group_IT_number 65
_symmetry_cell_setting 'orthorhombic'
loop_
_space_group_symop_operation_xyz
x,y,z
-x,-y,z
x,-y,-z
-x,y,-z
-x,-y,-z
x,y,-z
-x,y,z
x,-y,z
1/2+x,1/2+y,z
1/2-x,1/2-y,z
1/2+x,1/2-y,-z
1/2-x,1/2+y,-z
1/2-x,1/2-y,-z
1/2+x,1/2+y,-z
1/2-x,1/2+y,z
1/2+x,1/2-y,z
loop_
_atom_site_type_symbol
_atom_site_label
_atom_site_fract_x
_atom_site_fract_y
_atom_site_fract_z
Si Si1 0.572174 0.887492 0.569528
Si Si2 0.217067 0.115713 0.932393
Si Si3 0.648688 0.884728 0.888488
Si Si4 0.718419 0.389748 0.296275
Si Si5 0.069762 0.615787 0.000000
Si Si6 0.927183 0.290019 0.215237
Si Si7 0.140390 0.890048 0.180187
Si Si8 0.650431 0.796132 0.670779
O O1 0.588034 0.870916 0.500000
O O2 0.500000 0.853031 0.583362
O O3 0.624346 0.826249 0.605939
O O4 0.579369 0.000000 0.586941
O O5 0.282462 0.159684 0.905333
O O6 0.161032 0.145035 0.886497
O O7 0.223878 0.000000 0.934247
O O8 0.203913 0.155238 0.000000
O O9 0.622200 0.849802 0.825020
O O10 0.651899 0.000000 0.886428
O O11 0.602943 0.845120 0.940400
O O12 0.705910 0.500000 0.318546
O O13 0.700658 0.379386 0.225589
O O14 0.673578 0.315930 0.333637
O O15 0.791896 0.363513 0.306238
O O16 0.069501 0.500000 0.000000
O O17 0.000000 0.660697 0.000000
O O18 0.918492 0.175752 0.201088
O O19 0.908416 0.310102 0.283861
O O20 0.000000 0.321818 0.204371
O O21 0.115373 0.000000 0.179282
#
# Coordination Sequence:
#
# PCOD8268358 Si02
#       8
#    16  16  16  16   8  16  16  16
#     4   9  18  33  54  81 113 149 186 219 255 304
#     4   9  16  30  53  75  92 117 160 209 255 305
#     4  10  19  32  48  70  99 126 153 195 249 305
#     4   9  18  33  53  79 107 137 171 211 265 322
#     4   9  16  28  44  59  87 131 160 177 223 297
#     4  11  23  35  49  74 101 128 170 210 247 305
#     4   9  19  36  54  70  95 129 164 212 266 305
#     4  10  19  33  55  78 106 139 171 215 263 305
#
# _framework density 18.630239
#
# number of rings (size 3 to 8) (size 9 to 14) (size 15 to 20)
#    0.000    2.467    0.667    2.400    0.000    4.800 
#    1.200    2.000    0.000    2.400    0.000    2.800 
#    0.000    0.000    0.000    0.000    0.000    0.000 
#
# Total GULP energy -743870.017538 kJ/mol
# GULP energy per Si atom -12397.833626 kJ/mol
# Density = 1.858784 g / cm^3
# Si number density = 18.630239 Si / 1000 Ang^3
#
#
#
# Elastic Constant Matrix: (Units=GPa)
#
#
# Indices 1 2 3 4 5 6 
#
# 1 70.1004 18.7871 37.4085 0.0000 0.0000 0.0000
# 2 18.7871 60.7053 33.3597 0.0000 0.0000 0.0000
# 3 37.4085 33.3597 95.0715 0.0000 0.0000 0.0000
# 4 0.0000 0.0000 0.0000 24.3653 0.0000 0.0000
# 5 0.0000 0.0000 0.0000 0.0000 30.3586 0.0000
# 6 0.0000 0.0000 0.0000 0.0000 0.0000 19.7132
#
#
#
# Elastic Compliance Matrix: (Units=1/GPa)
#
#
# Indices 1 2 3 4 5 6 
#
# 1 0.018273 -0.002111 -0.006449 0.000000 0.000000 0.000000
# 2 -0.002111 0.020652 -0.006416 0.000000 0.000000 0.000000
# 3 -0.006449 -0.006416 0.015307 0.000000 0.000000 0.000000
# 4 0.000000 0.000000 0.000000 0.041042 0.000000 0.000000
# 5 0.000000 0.000000 0.000000 0.000000 0.032940 0.000000
# 6 0.000000 0.000000 0.000000 0.000000 0.000000 0.050727
#
#
# Mechanical properties :
#
#
# Convention : Reuss Voigt Hill
#
# Bulk Modulus (GPa) = 41.18656 44.99865 43.09260
# Shear Modulus (GPa) = 23.04291 23.97554 23.50923
#
# Velocity S-wave (km/s) = 3.52071 3.59125 3.55616
# Velocity P-wave (km/s) = 6.21953 6.43445 6.32790
#
# Compressibility (1/GPa) = 0.02427977
#
# Stress axis : x y z
#
# Youngs Moduli (GPa) = 54.72702 48.42101 65.32832
#
# Poissons Ratio (x) = 0.10222 0.42131
# Poissons Ratio (y) = 0.11553 0.41915
# Poissons Ratio (z) = 0.35294 0.31067
#
# Static dielectric constant tensor:
#      x y z
#    x 3.243550 0.000000 0.000000 
#    y 0.000000 3.429290 0.000000 
#    z 0.000000 0.000000 3.303560 
# 
# 
# High freq. dielectric constant tensor:
#      x y z
#    x 1.709710 0.000000 0.000000 
#    y 0.000000 1.720690 0.000000 
#    z 0.000000 0.000000 1.710150 
# 
# From -- ./inp_files/64750.got.cif
#   From: 2010.03.12/outbox.cif.g09.slc.cpg/sg65_33_cif.got.tgz:64750.got - 2010.04.10 20:52:16.
