data_PCOD8268798
_publ_section_title
;
Structure prediction by ZEFSAII (Michael W. Deem and Ramdas Pophale) SiO2 
 PCOD8268798
Probable space group: C M M M
;
_chemical_formula_sum "Si O2"
_cell_formula_units_Z 96
_cell_length_a 23.065472
_cell_length_b 9.643098
_cell_length_c 23.436072
_cell_angle_alpha 90.000000
_cell_angle_beta 90.000000
_cell_angle_gamma 90.000000
_cell_volume 5212.712230
_symmetry_space_group_name_H-M "C M M M"
_symmetry_group_IT_number 65
_symmetry_cell_setting 'orthorhombic'
loop_
_space_group_symop_operation_xyz
x,y,z
-x,-y,z
x,-y,-z
-x,y,-z
-x,-y,-z
x,y,-z
-x,y,z
x,-y,z
1/2+x,1/2+y,z
1/2-x,1/2-y,z
1/2+x,1/2-y,-z
1/2-x,1/2+y,-z
1/2-x,1/2-y,-z
1/2+x,1/2+y,-z
1/2-x,1/2+y,z
1/2+x,1/2-y,z
loop_
_atom_site_type_symbol
_atom_site_label
_atom_site_fract_x
_atom_site_fract_y
_atom_site_fract_z
Si Si1 0.000000 0.155292 0.066889
Si Si2 0.892057 0.341448 0.063824
Si Si3 0.347541 0.653925 0.658739
Si Si4 0.250000 0.750000 0.742536
Si Si5 0.307696 0.839726 0.436217
Si Si6 0.348640 0.152323 0.180260
Si Si7 0.934610 0.159225 0.245320
O O1 0.943530 0.241384 0.085201
O O2 0.000000 0.000000 0.095020
O O3 0.000000 0.138174 0.000000
O O4 0.914907 0.500000 0.062580
O O5 0.840900 0.325248 0.111447
O O6 0.869651 0.300381 0.000000
O O7 0.345525 0.500000 0.631379
O O8 0.292515 0.663164 0.701544
O O9 0.350327 0.771167 0.609746
O O10 0.407315 0.677293 0.691997
O O11 0.288250 0.842200 0.785489
O O12 0.334236 0.830141 0.500000
O O13 0.250000 0.750000 0.432334
O O14 0.295146 0.000000 0.420027
O O15 0.396279 0.260678 0.200044
O O16 0.374437 0.000000 0.191544
O O17 0.000000 0.217536 0.246391
O O18 0.933607 0.000000 0.226516
#
# Coordination Sequence:
#
# PCOD8268798 Si02
#       7
#     8  16  16   8  16  16  16
#     4   9  17  29  47  71  97 125 161 205 252 305
#     4   9  18  33  51  71  98 132 168 209 259 312
#     4  10  19  32  54  77 103 139 173 210 256 308
#     4  10  20  34  52  76 104 132 170 216 260 302
#     4  10  20  32  49  76 109 140 172 213 258 302
#     4  10  21  35  54  77 102 134 175 217 257 314
#     4   9  20  37  54  77 108 139 172 214 265 309
#
# _framework density 18.416516999999999
#
# number of rings (size 3 to 8) (size 9 to 14) (size 15 to 20)
#    0.000    2.417    0.833    1.250    1.167    6.333 
#    0.000    0.417    0.000    0.500    0.000    3.500 
#    0.000    0.000    0.000    0.000    0.000    0.000 
#
# Total GULP energy -594723.078994 kJ/mol
# GULP energy per Si atom -12390.064146 kJ/mol
# Density = 1.837460 g / cm^3
# Si number density = 18.416517 Si / 1000 Ang^3
#
#
#
# Elastic Constant Matrix: (Units=GPa)
#
#
# Indices 1 2 3 4 5 6 
#
# 1 70.8886 22.1294 35.6849 0.0000 0.0000 0.0000
# 2 22.1294 104.1776 54.2947 0.0000 0.0000 0.0000
# 3 35.6849 54.2947 115.6299 0.0000 0.0000 0.0000
# 4 0.0000 0.0000 0.0000 25.7129 0.0000 0.0000
# 5 0.0000 0.0000 0.0000 0.0000 19.4703 0.0000
# 6 0.0000 0.0000 0.0000 0.0000 0.0000 17.5388
#
#
#
# Elastic Compliance Matrix: (Units=1/GPa)
#
#
# Indices 1 2 3 4 5 6 
#
# 1 0.016804 -0.001148 -0.004647 0.000000 0.000000 0.000000
# 2 -0.001148 0.012788 -0.005650 0.000000 0.000000 0.000000
# 3 -0.004647 -0.005650 0.012736 0.000000 0.000000 0.000000
# 4 0.000000 0.000000 0.000000 0.038891 0.000000 0.000000
# 5 0.000000 0.000000 0.000000 0.000000 0.051360 0.000000
# 6 0.000000 0.000000 0.000000 0.000000 0.000000 0.057016
#
#
# Mechanical properties :
#
#
# Convention : Reuss Voigt Hill
#
# Bulk Modulus (GPa) = 51.44747 57.21266 54.33007
# Shear Modulus (GPa) = 22.83477 24.45020 23.64248
#
# Velocity S-wave (km/s) = 3.52505 3.64761 3.58685
# Velocity P-wave (km/s) = 6.67564 6.99096 6.83512
#
# Compressibility (1/GPa) = 0.01943730
#
# Stress axis : x y z
#
# Youngs Moduli (GPa) = 59.50877 78.20105 78.52006
#
# Poissons Ratio (x) = 0.08974 0.36490
# Poissons Ratio (y) = 0.06829 0.44366
# Poissons Ratio (z) = 0.27655 0.44186
#
# Static dielectric constant tensor:
#      x y z
#    x 3.180400 0.000000 0.000000 
#    y 0.000000 3.567140 0.000000 
#    z 0.000000 0.000000 3.620680 
# 
# 
# High freq. dielectric constant tensor:
#      x y z
#    x 1.672710 0.000000 0.000000 
#    y 0.000000 1.723480 0.000000 
#    z 0.000000 0.000000 1.722600 
# 
# From -- ./inp_files/71461.got.cif
#   From: 2010.03.12/outbox.cif.g09.slc.cpg/sg65_36_cif.got.tgz:71461.got - 2010.04.10 20:52:16.
