data_PCOD8268422
_publ_section_title
;
Structure prediction by ZEFSAII (Michael W. Deem and Ramdas Pophale) SiO2 
 PCOD8268422
Probable space group: C M M M
;
_chemical_formula_sum "Si O2"
_cell_formula_units_Z 104
_cell_length_a 27.085194
_cell_length_b 9.255010
_cell_length_c 23.462092
_cell_angle_alpha 90.000000
_cell_angle_beta 90.000000
_cell_angle_gamma 90.000000
_cell_volume 5881.330381
_symmetry_space_group_name_H-M "C M M M"
_symmetry_group_IT_number 65
_symmetry_cell_setting 'orthorhombic'
loop_
_space_group_symop_operation_xyz
x,y,z
-x,-y,z
x,-y,-z
-x,y,-z
-x,-y,-z
x,y,-z
-x,y,z
x,-y,z
1/2+x,1/2+y,z
1/2-x,1/2-y,z
1/2+x,1/2-y,-z
1/2-x,1/2+y,-z
1/2-x,1/2-y,-z
1/2+x,1/2+y,-z
1/2-x,1/2+y,z
1/2+x,1/2-y,z
loop_
_atom_site_type_symbol
_atom_site_label
_atom_site_fract_x
_atom_site_fract_y
_atom_site_fract_z
Si Si1 0.106380 0.831998 0.932921
Si Si2 0.556649 0.830549 0.736596
Si Si3 0.622749 0.340054 0.344304
Si Si4 0.299783 0.330436 0.434226
Si Si5 0.138136 0.670061 0.171034
Si Si6 0.000000 0.831276 0.061168
Si Si7 0.295081 0.339327 0.249717
O O1 0.138723 0.728096 0.893871
O O2 0.051325 0.792118 0.908600
O O3 0.118958 0.000000 0.921952
O O4 0.112556 0.795820 0.000000
O O5 0.500000 0.779376 0.746596
O O6 0.577976 0.758802 0.678500
O O7 0.589147 0.787989 0.792162
O O8 0.559130 0.000000 0.725931
O O9 0.601417 0.500000 0.357950
O O10 0.651594 0.275962 0.399614
O O11 0.663065 0.352245 0.295868
O O12 0.310508 0.296013 0.500000
O O13 0.291527 0.500000 0.422597
O O14 0.250000 0.250000 0.413821
O O15 0.146178 0.500000 0.170363
O O16 0.185919 0.747383 0.196332
O O17 0.000000 0.000000 0.048945
O O18 0.000000 0.751651 0.000000
O O19 0.278676 0.500000 0.230274
O O20 0.250000 0.250000 0.276799
#
# Coordination Sequence:
#
# PCOD8268422 Si02
#       7
#    16  16  16  16  16   8  16
#     4   9  17  30  47  67  93 124 157 192 231 278
#     4   9  19  34  49  67  94 127 161 200 243 282
#     4   9  18  31  48  72  98 126 161 197 234 281
#     4   9  17  29  46  71 103 133 160 194 237 284
#     4  10  20  32  48  70  96 124 156 193 238 286
#     4   7  12  24  41  61  85 115 149 181 216 261
#     4  10  19  32  50  71  96 122 155 195 236 281
#
# _framework density 17.683074000000001
#
# number of rings (size 3 to 8) (size 9 to 14) (size 15 to 20)
#    0.000    2.846    0.000    2.308    1.077    2.462 
#    0.000    0.000    0.000    2.308    0.000    3.231 
#    0.000    0.000    0.000    0.000    0.000    0.000 
#
# Total GULP energy -644212.638067 kJ/mol
# GULP energy per Si atom -12388.704578 kJ/mol
# Density = 1.764283 g / cm^3
# Si number density = 17.683074 Si / 1000 Ang^3
#
#
#
# Elastic Constant Matrix: (Units=GPa)
#
#
# Indices 1 2 3 4 5 6 
#
# 1 48.1524 28.6902 14.1485 0.0000 0.0000 0.0000
# 2 28.6902 72.0352 31.4803 0.0000 0.0000 0.0000
# 3 14.1485 31.4803 75.1437 0.0000 0.0000 0.0000
# 4 0.0000 0.0000 0.0000 23.7629 0.0000 0.0000
# 5 0.0000 0.0000 0.0000 0.0000 21.5881 0.0000
# 6 0.0000 0.0000 0.0000 0.0000 0.0000 26.0262
#
#
#
# Elastic Compliance Matrix: (Units=1/GPa)
#
#
# Indices 1 2 3 4 5 6 
#
# 1 0.027260 -0.010545 -0.000715 0.000000 0.000000 0.000000
# 2 -0.010545 0.021072 -0.006842 0.000000 0.000000 0.000000
# 3 -0.000715 -0.006842 0.016309 0.000000 0.000000 0.000000
# 4 0.000000 0.000000 0.000000 0.042082 0.000000 0.000000
# 5 0.000000 0.000000 0.000000 0.000000 0.046322 0.000000
# 6 0.000000 0.000000 0.000000 0.000000 0.000000 0.038423
#
#
# Mechanical properties :
#
#
# Convention : Reuss Voigt Hill
#
# Bulk Modulus (GPa) = 35.16568 38.21881 36.69224
# Shear Modulus (GPa) = 21.08353 22.34292 21.71322
#
# Velocity S-wave (km/s) = 3.45672 3.55846 3.50796
# Velocity P-wave (km/s) = 5.98846 6.20835 6.09940
#
# Compressibility (1/GPa) = 0.02843682
#
# Stress axis : x y z
#
# Youngs Moduli (GPa) = 36.68338 47.45621 61.31574
#
# Poissons Ratio (x) = 0.50041 0.04385
# Poissons Ratio (y) = 0.38682 0.41955
# Poissons Ratio (z) = 0.02624 0.32471
#
# Static dielectric constant tensor:
#      x y z
#    x 3.502740 0.000000 0.000000 
#    y 0.000000 3.317740 0.000000 
#    z 0.000000 0.000000 3.242110 
# 
# 
# High freq. dielectric constant tensor:
#      x y z
#    x 1.665120 0.000000 0.000000 
#    y 0.000000 1.678060 0.000000 
#    z 0.000000 0.000000 1.670870 
# 
# From -- ./inp_files/72173.got.cif
#   From: 2010.03.12/outbox.cif.g09.slc.cpg/sg65_37_cif.got.tgz:72173.got - 2010.04.10 20:52:16.
