data_PCOD8268283
_publ_section_title
;
Structure prediction by ZEFSAII (Michael W. Deem and Ramdas Pophale) SiO2 
 PCOD8268283
Probable space group: C M M M
;
_chemical_formula_sum "Si O2"
_cell_formula_units_Z 72
_cell_length_a 26.823139
_cell_length_b 9.201801
_cell_length_c 15.345920
_cell_angle_alpha 90.000000
_cell_angle_beta 90.000000
_cell_angle_gamma 90.000000
_cell_volume 3787.698194
_symmetry_space_group_name_H-M "C M M M"
_symmetry_group_IT_number 65
_symmetry_cell_setting 'orthorhombic'
loop_
_space_group_symop_operation_xyz
x,y,z
-x,-y,z
x,-y,-z
-x,y,-z
-x,-y,-z
x,y,-z
-x,y,z
x,-y,z
1/2+x,1/2+y,z
1/2-x,1/2-y,z
1/2+x,1/2-y,-z
1/2-x,1/2+y,-z
1/2-x,1/2-y,-z
1/2+x,1/2+y,-z
1/2-x,1/2+y,z
1/2+x,1/2-y,z
loop_
_atom_site_type_symbol
_atom_site_label
_atom_site_fract_x
_atom_site_fract_y
_atom_site_fract_z
Si Si1 0.339712 0.838131 0.339986
Si Si2 0.500000 0.327370 0.102180
Si Si3 0.250000 0.750000 0.771419
Si Si4 0.093936 0.669053 0.179213
Si Si5 0.824268 0.156599 0.095621
Si Si6 0.803655 0.827526 0.500000
O O1 0.287764 0.842277 0.287460
O O2 0.386560 0.797980 0.277626
O O3 0.336039 0.719391 0.416243
O O4 0.347338 0.000000 0.378875
O O5 0.500000 0.500000 0.109132
O O6 0.546683 0.264935 0.154897
O O7 0.500000 0.278910 0.000000
O O8 0.219503 0.857401 0.833850
O O9 0.081170 0.500000 0.167101
O O10 0.138025 0.712237 0.113740
O O11 0.852536 0.000000 0.098602
O O12 0.801222 0.183031 0.000000
O O13 0.750000 0.750000 0.500000
O O14 0.795746 0.000000 0.500000
#
# Coordination Sequence:
#
# PCOD8268283 Si02
#       6
#    16   8   8  16  16   8
#     4  10  21  37  56  81 113 146 187 232 283 338
#     4  11  23  39  61  88 117 152 193 237 284 337
#     4  10  19  31  52  74 106 146 192 225 277 326
#     4  10  22  38  58  83 111 145 186 236 288 339
#     4  10  20  33  49  73 107 147 190 233 277 331
#     4  12  24  36  58  85 116 151 190 234 281 335
#
# _framework density 19.008904999999999
#
# number of rings (size 3 to 8) (size 9 to 14) (size 15 to 20)
#    0.000    1.667    1.111    3.667    0.000    9.333 
#    0.000    0.000    0.000    0.667    0.000    4.667 
#    0.000    0.000    0.000    0.000    0.000    0.000 
#
# Total GULP energy -446189.907494 kJ/mol
# GULP energy per Si atom -12394.164097 kJ/mol
# Density = 1.896564 g / cm^3
# Si number density = 19.008905 Si / 1000 Ang^3
#
#
#
# Elastic Constant Matrix: (Units=GPa)
#
#
# Indices 1 2 3 4 5 6 
#
# 1 97.7528 41.7297 48.9152 0.0000 0.0000 0.0000
# 2 41.7297 124.1449 60.7588 0.0000 0.0000 0.0000
# 3 48.9152 60.7588 124.9874 0.0000 0.0000 0.0000
# 4 0.0000 0.0000 0.0000 25.0975 0.0000 0.0000
# 5 0.0000 0.0000 0.0000 0.0000 13.6250 0.0000
# 6 0.0000 0.0000 0.0000 0.0000 0.0000 29.0750
#
#
#
# Elastic Compliance Matrix: (Units=1/GPa)
#
#
# Indices 1 2 3 4 5 6 
#
# 1 0.013297 -0.002523 -0.003978 0.000000 0.000000 0.000000
# 2 -0.002523 0.011049 -0.004384 0.000000 0.000000 0.000000
# 3 -0.003978 -0.004384 0.011688 0.000000 0.000000 0.000000
# 4 0.000000 0.000000 0.000000 0.039845 0.000000 0.000000
# 5 0.000000 0.000000 0.000000 0.000000 0.073394 0.000000
# 6 0.000000 0.000000 0.000000 0.000000 0.000000 0.034394
#
#
# Mechanical properties :
#
#
# Convention : Reuss Voigt Hill
#
# Bulk Modulus (GPa) = 70.09646 72.18808 71.14227
# Shear Modulus (GPa) = 23.78795 26.59161 25.18978
#
# Velocity S-wave (km/s) = 3.54137 3.74425 3.64422
# Velocity P-wave (km/s) = 7.32648 7.53332 7.43062
#
# Compressibility (1/GPa) = 0.01426606
#
# Stress axis : x y z
#
# Youngs Moduli (GPa) = 75.20328 90.50958 85.55517
#
# Poissons Ratio (x) = 0.22836 0.34030
# Poissons Ratio (y) = 0.18974 0.37503
# Poissons Ratio (z) = 0.29912 0.39675
#
# Static dielectric constant tensor:
#      x y z
#    x 3.403320 0.000000 0.000000 
#    y 0.000000 3.495190 0.000000 
#    z 0.000000 0.000000 3.627040 
# 
# 
# High freq. dielectric constant tensor:
#      x y z
#    x 1.711530 0.000000 0.000000 
#    y 0.000000 1.747850 0.000000 
#    z 0.000000 0.000000 1.740780 
# 
# From -- ./inp_files/36675.got.cif
#   From: 2010.03.12/outbox.cif.g09.slc.cpg/sg65_19_cif.got.tgz:36675.got - 2010.04.10 20:52:16.
