data_PCOD8268795
_publ_section_title
;
Structure prediction by ZEFSAII (Michael W. Deem and Ramdas Pophale) SiO2 
 PCOD8268795
Probable space group: C M M M
;
_chemical_formula_sum "Si O2"
_cell_formula_units_Z 104
_cell_length_a 23.288333
_cell_length_b 14.900297
_cell_length_c 14.560404
_cell_angle_alpha 90.000000
_cell_angle_beta 90.000000
_cell_angle_gamma 90.000000
_cell_volume 5052.505010
_symmetry_space_group_name_H-M "C M M M"
_symmetry_group_IT_number 65
_symmetry_cell_setting 'orthorhombic'
loop_
_space_group_symop_operation_xyz
x,y,z
-x,-y,z
x,-y,-z
-x,y,-z
-x,-y,-z
x,y,-z
-x,y,z
x,-y,z
1/2+x,1/2+y,z
1/2-x,1/2-y,z
1/2+x,1/2-y,-z
1/2-x,1/2+y,-z
1/2-x,1/2-y,-z
1/2+x,1/2+y,-z
1/2-x,1/2+y,z
1/2+x,1/2-y,z
loop_
_atom_site_type_symbol
_atom_site_label
_atom_site_fract_x
_atom_site_fract_y
_atom_site_fract_z
Si Si1 0.626458 0.896056 0.698967
Si Si2 0.567194 0.277818 0.669393
Si Si3 0.753582 0.355882 0.394685
Si Si4 0.765526 0.847913 0.897630
Si Si5 0.154209 0.901421 0.259322
Si Si6 0.140297 0.400329 0.902125
Si Si7 0.067345 0.099904 0.500000
O O1 0.585104 0.825444 0.646190
O O2 0.690944 0.889506 0.661587
O O3 0.619551 0.860063 0.804859
O O4 0.605899 0.000000 0.687992
O O5 0.500000 0.281760 0.692464
O O6 0.605738 0.323389 0.748648
O O7 0.586451 0.341906 0.586331
O O8 0.756582 0.391103 0.500000
O O9 0.750000 0.250000 0.392735
O O10 0.697096 0.392984 0.345800
O O11 0.750000 0.750000 0.856403
O O12 0.811823 0.896274 0.835518
O O13 0.708835 0.907836 0.898594
O O14 0.791478 0.837061 0.000000
O O15 0.125154 0.000000 0.265419
O O16 0.115132 0.500000 0.906753
O O17 0.121946 0.351155 0.000000
O O18 0.000000 0.088372 0.500000
O O19 0.095649 0.000000 0.500000
#
# Coordination Sequence:
#
# PCOD8268795 Si02
#       7
#    16  16  16  16  16  16   8
#     4  11  22  38  63  91 125 164 201 249 309 374
#     4  11  25  43  61  84 117 158 210 263 303 353
#     4  11  23  39  59  87 127 165 196 236 295 371
#     4  10  19  32  53  83 121 158 192 238 297 365
#     4  12  23  36  60  88 119 156 198 249 304 362
#     4   9  17  31  53  83 118 153 192 240 294 357
#     4   9  20  42  67  86 107 145 205 265 306 341
#
# _framework density 20.583849000000001
#
# number of rings (size 3 to 8) (size 9 to 14) (size 15 to 20)
#    0.000    1.462    3.077    2.769    2.154    3.385 
#    0.000    0.000    0.000    3.231    0.000    3.231 
#    0.000    0.000    0.000    0.000    0.000    0.000 
#
# Total GULP energy -644213.880949 kJ/mol
# GULP energy per Si atom -12388.728480 kJ/mol
# Density = 2.053700 g / cm^3
# Si number density = 20.583849 Si / 1000 Ang^3
#
#
#
# Elastic Constant Matrix: (Units=GPa)
#
#
# Indices 1 2 3 4 5 6 
#
# 1 76.1116 35.2530 12.3207 0.0000 0.0000 0.0000
# 2 35.2530 144.8461 30.0397 0.0000 0.0000 0.0000
# 3 12.3207 30.0397 101.6590 0.0000 0.0000 0.0000
# 4 0.0000 0.0000 0.0000 28.6867 0.0000 0.0000
# 5 0.0000 0.0000 0.0000 0.0000 12.0250 0.0000
# 6 0.0000 0.0000 0.0000 0.0000 0.0000 24.6227
#
#
#
# Elastic Compliance Matrix: (Units=1/GPa)
#
#
# Indices 1 2 3 4 5 6 
#
# 1 0.014866 -0.003456 -0.000780 0.000000 0.000000 0.000000
# 2 -0.003456 0.008158 -0.001992 0.000000 0.000000 0.000000
# 3 -0.000780 -0.001992 0.010520 0.000000 0.000000 0.000000
# 4 0.000000 0.000000 0.000000 0.034859 0.000000 0.000000
# 5 0.000000 0.000000 0.000000 0.000000 0.083160 0.000000
# 6 0.000000 0.000000 0.000000 0.000000 0.000000 0.040613
#
#
# Mechanical properties :
#
#
# Convention : Reuss Voigt Hill
#
# Bulk Modulus (GPa) = 47.42249 53.09372 50.25810
# Shear Modulus (GPa) = 23.62253 29.40041 26.51147
#
# Velocity S-wave (km/s) = 3.39134 3.78342 3.59273
# Velocity P-wave (km/s) = 6.19868 6.70340 6.45597
#
# Compressibility (1/GPa) = 0.02108704
#
# Stress axis : x y z
#
# Youngs Moduli (GPa) = 67.26865 122.57687 95.05739
#
# Poissons Ratio (x) = 0.42365 0.07418
# Poissons Ratio (y) = 0.23250 0.18934
# Poissons Ratio (z) = 0.05250 0.24415
#
# Static dielectric constant tensor:
#      x y z
#    x 3.301440 0.000000 0.000000 
#    y 0.000000 3.924150 0.000000 
#    z 0.000000 0.000000 4.124420 
# 
# 
# High freq. dielectric constant tensor:
#      x y z
#    x 1.758000 0.000000 0.000000 
#    y 0.000000 1.817560 0.000000 
#    z 0.000000 0.000000 1.810810 
# 
# From -- ./inp_files/45742.got.cif
#   From: 2010.03.12/outbox.cif.g09.slc.cpg/sg65_23_cif.got.tgz:45742.got - 2010.04.10 20:52:16.
