data_PCOD8268602
_publ_section_title
;
Structure prediction by ZEFSAII (Michael W. Deem and Ramdas Pophale) SiO2 
 PCOD8268602
Probable space group: C M M M
;
_chemical_formula_sum "Si O2"
_cell_formula_units_Z 104
_cell_length_a 23.787065
_cell_length_b 31.156512
_cell_length_c 7.885987
_cell_angle_alpha 90.000000
_cell_angle_beta 90.000000
_cell_angle_gamma 90.000000
_cell_volume 5844.478269
_symmetry_space_group_name_H-M "C M M M"
_symmetry_group_IT_number 65
_symmetry_cell_setting 'orthorhombic'
loop_
_space_group_symop_operation_xyz
x,y,z
-x,-y,z
x,-y,-z
-x,y,-z
-x,-y,-z
x,y,-z
-x,y,z
x,-y,z
1/2+x,1/2+y,z
1/2-x,1/2-y,z
1/2+x,1/2-y,-z
1/2-x,1/2+y,-z
1/2-x,1/2-y,-z
1/2+x,1/2+y,-z
1/2-x,1/2+y,z
1/2+x,1/2-y,z
loop_
_atom_site_type_symbol
_atom_site_label
_atom_site_fract_x
_atom_site_fract_y
_atom_site_fract_z
Si Si1 0.351307 0.451365 0.698193
Si Si2 0.066101 0.500000 0.190667
Si Si3 0.883606 0.586693 0.690636
Si Si4 0.933204 0.737754 0.000000
Si Si5 0.562644 0.618022 0.806251
Si Si6 0.228456 0.549124 0.199432
Si Si7 0.066946 0.360606 0.000000
Si Si8 0.933205 0.791747 0.686258
O O1 0.361593 0.448825 0.500000
O O2 0.357878 0.500000 0.765953
O O3 0.397704 0.422871 0.789136
O O4 0.289498 0.434111 0.744379
O O5 0.085839 0.541359 0.291303
O O6 0.000000 0.500000 0.177933
O O7 0.092360 0.500000 0.000000
O O8 0.894844 0.604415 0.500000
O O9 0.816976 0.580053 0.713909
O O10 0.908072 0.619156 0.829214
O O11 0.914056 0.688638 0.000000
O O12 0.908078 0.760665 0.831498
O O13 0.000000 0.740801 0.000000
O O14 0.500000 0.605903 0.739961
O O15 0.587683 0.659112 0.706944
O O16 0.559350 0.632408 0.000000
O O17 0.219371 0.500000 0.261049
O O18 0.221526 0.552609 0.000000
O O19 0.000000 0.367105 0.000000
O O20 0.914107 0.775168 0.500000
O O21 0.000000 0.791900 0.702719
#
# Coordination Sequence:
#
# PCOD8268602 Si02
#       8
#    16   8  16   8  16  16   8  16
#     4  10  21  34  49  75 110 145 184 227 269 313
#     4  11  21  35  53  74 105 141 179 219 264 318
#     4  12  23  36  55  78 105 143 184 222 267 315
#     4   9  18  34  53  75 104 137 172 213 267 325
#     4  10  19  32  51  77 110 146 184 222 263 317
#     4  10  19  35  56  75  99 136 185 233 268 304
#     4  11  24  39  54  78 114 144 172 217 271 334
#     4   9  16  29  52  78 103 135 177 221 263 312
#
# _framework density 17.794573
#
# number of rings (size 3 to 8) (size 9 to 14) (size 15 to 20)
#    0.000    1.769    3.077    2.077    0.000    4.923 
#    0.000    3.077    0.000    0.000    0.000    2.154 
#    0.000    3.692    0.000    0.000    0.000    0.000 
#
# Total GULP energy -644781.978261 kJ/mol
# GULP energy per Si atom -12399.653428 kJ/mol
# Density = 1.775407 g / cm^3
# Si number density = 17.794573 Si / 1000 Ang^3
#
#
#
# Elastic Constant Matrix: (Units=GPa)
#
#
# Indices 1 2 3 4 5 6 
#
# 1 76.5767 46.3159 29.1233 0.0000 0.0000 0.0000
# 2 46.3159 105.3199 52.1532 0.0000 0.0000 0.0000
# 3 29.1233 52.1532 127.7736 0.0000 0.0000 0.0000
# 4 0.0000 0.0000 0.0000 19.1955 0.0000 0.0000
# 5 0.0000 0.0000 0.0000 0.0000 20.0876 0.0000
# 6 0.0000 0.0000 0.0000 0.0000 0.0000 9.2484
#
#
#
# Elastic Compliance Matrix: (Units=1/GPa)
#
#
# Indices 1 2 3 4 5 6 
#
# 1 0.017911 -0.007338 -0.001087 0.000000 0.000000 0.000000
# 2 -0.007338 0.014907 -0.004412 0.000000 0.000000 0.000000
# 3 -0.001087 -0.004412 0.009875 0.000000 0.000000 0.000000
# 4 0.000000 0.000000 0.000000 0.052096 0.000000 0.000000
# 5 0.000000 0.000000 0.000000 0.000000 0.049782 0.000000
# 6 0.000000 0.000000 0.000000 0.000000 0.000000 0.108126
#
#
# Mechanical properties :
#
#
# Convention : Reuss Voigt Hill
#
# Bulk Modulus (GPa) = 58.76163 62.76166 60.76165
# Shear Modulus (GPa) = 17.60297 21.84482 19.72390
#
# Velocity S-wave (km/s) = 3.14862 3.50753 3.33291
# Velocity P-wave (km/s) = 6.80532 7.19377 7.00224
#
# Compressibility (1/GPa) = 0.01701791
#
# Stress axis : x y z
#
# Youngs Moduli (GPa) = 55.83300 67.08436 101.26666
#
# Poissons Ratio (x) = 0.49227 0.11009
# Poissons Ratio (y) = 0.40971 0.44677
# Poissons Ratio (z) = 0.06070 0.29597
#
# Static dielectric constant tensor:
#      x y z
#    x 3.138460 0.000000 0.000000 
#    y 0.000000 3.309950 0.000000 
#    z 0.000000 0.000000 3.482280 
# 
# 
# High freq. dielectric constant tensor:
#      x y z
#    x 1.661480 0.000000 0.000000 
#    y 0.000000 1.664720 0.000000 
#    z 0.000000 0.000000 1.707630 
# 
# From -- ./inp_files/15093.got.cif
#   From: 2010.03.12/outbox.cif.g09.slc.cpg/sg65_8_cif.got.tgz:15093.got - 2010.04.10 20:52:16.
