data_PCOD8268938
_publ_section_title
;
Structure prediction by ZEFSAII (Michael W. Deem and Ramdas Pophale) SiO2 
 PCOD8268938
Probable space group: C M M M
;
_chemical_formula_sum "Si O2"
_cell_formula_units_Z 80
_cell_length_a 9.321719
_cell_length_b 15.891103
_cell_length_c 28.940349
_cell_angle_alpha 90.000000
_cell_angle_beta 90.000000
_cell_angle_gamma 90.000000
_cell_volume 4287.003261
_symmetry_space_group_name_H-M "C M M M"
_symmetry_group_IT_number 65
_symmetry_cell_setting 'orthorhombic'
loop_
_space_group_symop_operation_xyz
x,y,z
-x,-y,z
x,-y,-z
-x,y,-z
-x,-y,-z
x,y,-z
-x,y,z
x,-y,z
1/2+x,1/2+y,z
1/2-x,1/2-y,z
1/2+x,1/2-y,-z
1/2-x,1/2+y,-z
1/2-x,1/2-y,-z
1/2+x,1/2+y,-z
1/2-x,1/2+y,z
1/2+x,1/2-y,z
loop_
_atom_site_type_symbol
_atom_site_label
_atom_site_fract_x
_atom_site_fract_y
_atom_site_fract_z
Si Si1 0.170151 0.500000 0.709520
Si Si2 0.833168 0.332861 0.446059
Si Si3 0.670596 0.000000 0.604802
Si Si4 0.169800 0.667273 0.238138
Si Si5 0.665972 0.164759 0.049955
Si Si6 0.669866 0.908669 0.855787
O O1 0.227310 0.500000 0.657176
O O2 0.225321 0.415049 0.734363
O O3 0.000000 0.500000 0.711632
O O4 0.805697 0.347738 0.500000
O O5 0.750000 0.250000 0.428328
O O6 0.772116 0.415483 0.420123
O O7 0.000000 0.318791 0.435020
O O8 0.500000 0.000000 0.602117
O O9 0.250000 0.750000 0.257374
O O10 0.214813 0.656429 0.184236
O O11 0.000000 0.679489 0.244430
O O12 0.500000 0.185201 0.058985
O O13 0.750000 0.250000 0.047212
O O14 0.730134 0.113648 0.093320
O O15 0.684465 0.117345 0.000000
O O16 0.500000 0.913899 0.857749
O O17 0.732407 0.000000 0.842516
#
# Coordination Sequence:
#
# PCOD8268938 Si02
#       6
#     8  16   8  16  16  16
#     4   9  18  33  51  72  97 128 165 199 238 292
#     4   9  17  30  49  73 100 130 165 203 241 283
#     4   9  17  30  50  72  96 129 168 203 236 284
#     4  10  19  33  53  73  94 124 160 198 241 287
#     4   9  17  28  43  64  89 116 147 184 226 273
#     4   9  16  28  47  68  90 117 152 192 230 275
#
# _framework density 18.661054
#
# number of rings (size 3 to 8) (size 9 to 14) (size 15 to 20)
#    0.000    2.800    1.000    0.900    0.000    2.400 
#    0.000    3.000    0.000    5.400    0.000    2.800 
#    0.000    0.000    0.000    0.000    0.000    0.000 
#
# Total GULP energy -495676.016202 kJ/mol
# GULP energy per Si atom -12391.900405 kJ/mol
# Density = 1.861858 g / cm^3
# Si number density = 18.661054 Si / 1000 Ang^3
#
#
#
# Elastic Constant Matrix: (Units=GPa)
#
#
# Indices 1 2 3 4 5 6 
#
# 1 25.3604 34.2853 22.4712 0.0000 0.0000 0.0000
# 2 34.2853 163.7146 72.9258 0.0000 0.0000 0.0000
# 3 22.4712 72.9258 117.4517 0.0000 0.0000 0.0000
# 4 0.0000 0.0000 0.0000 24.8219 0.0000 0.0000
# 5 0.0000 0.0000 0.0000 0.0000 11.9350 0.0000
# 6 0.0000 0.0000 0.0000 0.0000 0.0000 26.6741
#
#
#
# Elastic Compliance Matrix: (Units=1/GPa)
#
#
# Indices 1 2 3 4 5 6 
#
# 1 0.056914 -0.009771 -0.004822 0.000000 0.000000 0.000000
# 2 -0.009771 0.010121 -0.004415 0.000000 0.000000 0.000000
# 3 -0.004822 -0.004415 0.012178 0.000000 0.000000 0.000000
# 4 0.000000 0.000000 0.000000 0.040287 0.000000 0.000000
# 5 0.000000 0.000000 0.000000 0.000000 0.083787 0.000000
# 6 0.000000 0.000000 0.000000 0.000000 0.000000 0.037490
#
#
# Mechanical properties :
#
#
# Convention : Reuss Voigt Hill
#
# Bulk Modulus (GPa) = 24.27362 62.87680 43.57521
# Shear Modulus (GPa) = 17.09260 24.47583 20.78421
#
# Velocity S-wave (km/s) = 3.02975 3.62553 3.34095
# Velocity P-wave (km/s) = 5.02743 7.16193 6.18742
#
# Compressibility (1/GPa) = 0.04119699
#
# Stress axis : x y z
#
# Youngs Moduli (GPa) = 17.57044 98.80521 82.11670
#
# Poissons Ratio (x) = 0.96542 0.39598
# Poissons Ratio (y) = 0.17168 0.36252
# Poissons Ratio (z) = 0.08473 0.43619
#
# Static dielectric constant tensor:
#      x y z
#    x 2.938650 0.000000 0.000000 
#    y 0.000000 3.600750 0.000000 
#    z 0.000000 0.000000 3.842110 
# 
# 
# High freq. dielectric constant tensor:
#      x y z
#    x 1.668360 0.000000 0.000000 
#    y 0.000000 1.727540 0.000000 
#    z 0.000000 0.000000 1.734540 
# 
# From -- ./inp_files/77212.got.cif
#   From: 2010.03.12/outbox.cif.g09.slc.cpg/sg65_39_cif.got.tgz:77212.got - 2010.04.10 20:52:16.
