data_PCOD8268683
_publ_section_title
;
Structure prediction by ZEFSAII (Michael W. Deem and Ramdas Pophale) SiO2 
 PCOD8268683
Probable space group: C M M M
;
_chemical_formula_sum "Si O2"
_cell_formula_units_Z 88
_cell_length_a 28.849824
_cell_length_b 9.755886
_cell_length_c 17.347596
_cell_angle_alpha 90.000000
_cell_angle_beta 90.000000
_cell_angle_gamma 90.000000
_cell_volume 4882.577938
_symmetry_space_group_name_H-M "C M M M"
_symmetry_group_IT_number 65
_symmetry_cell_setting 'orthorhombic'
loop_
_space_group_symop_operation_xyz
x,y,z
-x,-y,z
x,-y,-z
-x,y,-z
-x,-y,-z
x,y,-z
-x,y,z
x,-y,z
1/2+x,1/2+y,z
1/2-x,1/2-y,z
1/2+x,1/2-y,-z
1/2-x,1/2+y,-z
1/2-x,1/2-y,-z
1/2+x,1/2+y,-z
1/2-x,1/2+y,z
1/2+x,1/2-y,z
loop_
_atom_site_type_symbol
_atom_site_label
_atom_site_fract_x
_atom_site_fract_y
_atom_site_fract_z
Si Si1 0.000000 0.151821 0.590047
Si Si2 0.054653 0.160761 0.845630
Si Si3 0.882329 0.657891 0.745968
Si Si4 0.196694 0.708888 0.000000
Si Si5 0.083503 0.655210 0.413714
Si Si6 0.897830 0.843305 0.000000
Si Si7 0.207086 0.350564 0.166957
O O1 0.955460 0.238805 0.613547
O O2 0.000000 0.129249 0.500000
O O3 0.000000 0.000000 0.630298
O O4 0.075572 0.247634 0.775124
O O5 0.000000 0.187438 0.849853
O O6 0.065668 0.000000 0.832921
O O7 0.078723 0.219868 0.923433
O O8 0.891230 0.500000 0.770874
O O9 0.877504 0.669025 0.652587
O O10 0.834211 0.711717 0.781774
O O11 0.250000 0.750000 0.000000
O O12 0.189146 0.626955 0.079139
O O13 0.158156 0.829458 0.000000
O O14 0.102803 0.689833 0.500000
O O15 0.063296 0.500000 0.413806
O O16 0.911802 0.000000 0.000000
O O17 0.221944 0.500000 0.198365
O O18 0.250000 0.250000 0.173278
#
# Coordination Sequence:
#
# PCOD8268683 Si02
#       7
#     8  16  16   8  16   8  16
#     4   9  17  29  47  73 103 132 167 214 261 303
#     4  10  21  36  54  77 105 141 183 220 256 303
#     4  10  21  36  54  78 106 136 174 219 264 309
#     4  10  19  32  52  77 103 133 166 212 256 313
#     4   9  18  33  52  72  99 138 178 212 254 311
#     4  10  19  35  56  75 103 143 181 215 256 310
#     4  10  21  36  55  79 105 134 168 212 262 314
#
# _framework density 18.023266
#
# number of rings (size 3 to 8) (size 9 to 14) (size 15 to 20)
#    0.000    2.273    1.818    0.818    1.273    6.909 
#    0.000    0.455    0.000    1.636    0.000    0.000 
#    0.000    0.000    0.000    0.000    0.000    0.000 
#
# Total GULP energy -545156.134650 kJ/mol
# GULP energy per Si atom -12389.912151 kJ/mol
# Density = 1.798224 g / cm^3
# Si number density = 18.023266 Si / 1000 Ang^3
#
#
#
# Elastic Constant Matrix: (Units=GPa)
#
#
# Indices 1 2 3 4 5 6 
#
# 1 111.7690 40.9408 60.2312 0.0000 0.0000 0.0000
# 2 40.9408 72.3257 31.4887 0.0000 0.0000 0.0000
# 3 60.2312 31.4887 125.5404 0.0000 0.0000 0.0000
# 4 0.0000 0.0000 0.0000 19.8324 0.0000 0.0000
# 5 0.0000 0.0000 0.0000 0.0000 24.1165 0.0000
# 6 0.0000 0.0000 0.0000 0.0000 0.0000 26.1164
#
#
#
# Elastic Compliance Matrix: (Units=1/GPa)
#
#
# Indices 1 2 3 4 5 6 
#
# 1 0.013791 -0.005530 -0.005229 0.000000 0.000000 0.000000
# 2 -0.005530 0.017738 -0.001796 0.000000 0.000000 0.000000
# 3 -0.005229 -0.001796 0.010925 0.000000 0.000000 0.000000
# 4 0.000000 0.000000 0.000000 0.050423 0.000000 0.000000
# 5 0.000000 0.000000 0.000000 0.000000 0.041465 0.000000
# 6 0.000000 0.000000 0.000000 0.000000 0.000000 0.038290
#
#
# Mechanical properties :
#
#
# Convention : Reuss Voigt Hill
#
# Bulk Modulus (GPa) = 57.65839 63.88406 60.77123
# Shear Modulus (GPa) = 24.56713 25.81135 25.18924
#
# Velocity S-wave (km/s) = 3.69599 3.78843 3.74250
# Velocity P-wave (km/s) = 7.09044 7.39314 7.24337
#
# Compressibility (1/GPa) = 0.01734353
#
# Stress axis : x y z
#
# Youngs Moduli (GPa) = 72.51334 56.37464 91.53254
#
# Poissons Ratio (x) = 0.31173 0.47866
# Poissons Ratio (y) = 0.40097 0.16442
# Poissons Ratio (z) = 0.37920 0.10127
#
# Static dielectric constant tensor:
#      x y z
#    x 3.114790 0.000000 0.000000 
#    y 0.000000 3.344300 0.000000 
#    z 0.000000 0.000000 3.589910 
# 
# 
# High freq. dielectric constant tensor:
#      x y z
#    x 1.673950 0.000000 0.000000 
#    y 0.000000 1.692930 0.000000 
#    z 0.000000 0.000000 1.703390 
# 
# From -- ./inp_files/58089.got.cif
#   From: 2010.03.12/outbox.cif.g09.slc.cpg/sg65_30_cif.got.tgz:58089.got - 2010.04.10 20:52:16.
