data_PCOD8268381
_publ_section_title
;
Structure prediction by ZEFSAII (Michael W. Deem and Ramdas Pophale) SiO2 
 PCOD8268381
Probable space group: C M M M
;
_chemical_formula_sum "Si O2"
_cell_formula_units_Z 88
_cell_length_a 15.052416
_cell_length_b 28.886717
_cell_length_c 10.340985
_cell_angle_alpha 90.000000
_cell_angle_beta 90.000000
_cell_angle_gamma 90.000000
_cell_volume 4496.414164
_symmetry_space_group_name_H-M "C M M M"
_symmetry_group_IT_number 65
_symmetry_cell_setting 'orthorhombic'
loop_
_space_group_symop_operation_xyz
x,y,z
-x,-y,z
x,-y,-z
-x,y,-z
-x,-y,-z
x,y,-z
-x,y,z
x,-y,z
1/2+x,1/2+y,z
1/2-x,1/2-y,z
1/2+x,1/2-y,-z
1/2-x,1/2+y,-z
1/2-x,1/2-y,-z
1/2+x,1/2+y,-z
1/2-x,1/2+y,z
1/2+x,1/2-y,z
loop_
_atom_site_type_symbol
_atom_site_label
_atom_site_fract_x
_atom_site_fract_y
_atom_site_fract_z
Si Si1 0.394819 0.216909 0.645183
Si Si2 0.105446 0.210129 0.852854
Si Si3 0.105132 0.949168 0.000000
Si Si4 0.598384 0.113090 0.653773
Si Si5 0.253477 0.551148 0.353150
Si Si6 0.104167 0.890765 0.757430
O O1 0.356907 0.227935 0.500000
O O2 0.500000 0.223193 0.638878
O O3 0.355014 0.251067 0.755489
O O4 0.370725 0.165078 0.690498
O O5 0.132017 0.161545 0.787595
O O6 0.000000 0.213519 0.862361
O O7 0.143911 0.214837 0.000000
O O8 0.137295 0.921430 0.123272
O O9 0.000000 0.951964 0.000000
O O10 0.148141 0.000000 0.000000
O O11 0.594690 0.110148 0.500000
O O12 0.500000 0.102419 0.710546
O O13 0.669015 0.076795 0.714072
O O14 0.227181 0.543043 0.500000
O O15 0.271021 0.500000 0.290201
O O16 0.338914 0.585566 0.355801
O O17 0.000000 0.895116 0.725190
#
# Coordination Sequence:
#
# PCOD8268381 Si02
#       6
#    16  16   8  16  16  16
#     4   8  14  26  48  76 101 129 167 208 254 309
#     4   9  16  28  48  74 104 136 172 213 254 297
#     4   9  16  28  48  68  84 117 173 217 240 275
#     4   8  15  31  54  76  99 129 166 209 254 303
#     4  10  21  34  49  74 104 131 165 210 259 310
#     4  10  19  32  49  70 100 136 170 206 247 293
#
# _framework density 19.571152000000001
#
# number of rings (size 3 to 8) (size 9 to 14) (size 15 to 20)
#    0.000    3.000    0.909    1.636    0.000    2.545 
#    0.000    5.455    2.000    4.364    0.000    0.000 
#    0.000    2.182    0.000    0.000    0.000    0.000 
#
# Total GULP energy -545098.046637 kJ/mol
# GULP energy per Si atom -12388.591969 kJ/mol
# Density = 1.952661 g / cm^3
# Si number density = 19.571152 Si / 1000 Ang^3
#
#
#
# Elastic Constant Matrix: (Units=GPa)
#
#
# Indices 1 2 3 4 5 6 
#
# 1 64.6056 51.0981 20.1439 0.0000 0.0000 0.0000
# 2 51.0981 147.8974 51.6398 0.0000 0.0000 0.0000
# 3 20.1439 51.6398 55.9969 0.0000 0.0000 0.0000
# 4 0.0000 0.0000 0.0000 19.7788 0.0000 0.0000
# 5 0.0000 0.0000 0.0000 0.0000 8.1712 0.0000
# 6 0.0000 0.0000 0.0000 0.0000 0.0000 26.2460
#
#
#
# Elastic Compliance Matrix: (Units=1/GPa)
#
#
# Indices 1 2 3 4 5 6 
#
# 1 0.021362 -0.006928 -0.001296 0.000000 0.000000 0.000000
# 2 -0.006928 0.012219 -0.008776 0.000000 0.000000 0.000000
# 3 -0.001296 -0.008776 0.026418 0.000000 0.000000 0.000000
# 4 0.000000 0.000000 0.000000 0.050559 0.000000 0.000000
# 5 0.000000 0.000000 0.000000 0.000000 0.122381 0.000000
# 6 0.000000 0.000000 0.000000 0.000000 0.000000 0.038101
#
#
# Mechanical properties :
#
#
# Convention : Reuss Voigt Hill
#
# Bulk Modulus (GPa) = 38.46294 57.14038 47.80166
# Shear Modulus (GPa) = 15.93844 20.54709 18.24276
#
# Velocity S-wave (km/s) = 2.85684 3.24368 3.05638
# Velocity P-wave (km/s) = 5.52970 6.57938 6.07724
#
# Compressibility (1/GPa) = 0.02599905
#
# Stress axis : x y z
#
# Youngs Moduli (GPa) = 46.81173 81.83658 37.85349
#
# Poissons Ratio (x) = 0.56698 0.04904
# Poissons Ratio (y) = 0.32432 0.33222
# Poissons Ratio (z) = 0.06065 0.71823
#
# Static dielectric constant tensor:
#      x y z
#    x 3.290940 0.000000 0.000000 
#    y 0.000000 3.996530 0.000000 
#    z 0.000000 0.000000 3.616190 
# 
# 
# High freq. dielectric constant tensor:
#      x y z
#    x 1.731060 0.000000 0.000000 
#    y 0.000000 1.775850 0.000000 
#    z 0.000000 0.000000 1.728570 
# 
# From -- ./inp_files/25150.got.cif
#   From: 2010.03.12/outbox.cif.g09.slc.cpg/sg65_13_cif.got.tgz:25150.got - 2010.04.10 20:52:16.
