data_PCOD8268044
_publ_section_title
;
Structure prediction by ZEFSAII (Michael W. Deem and Ramdas Pophale) SiO2 
 PCOD8268044
Probable space group: C M M M
;
_chemical_formula_sum "Si O2"
_cell_formula_units_Z 80
_cell_length_a 18.675151
_cell_length_b 9.061726
_cell_length_c 25.682497
_cell_angle_alpha 90.000000
_cell_angle_beta 90.000000
_cell_angle_gamma 90.000000
_cell_volume 4346.225888
_symmetry_space_group_name_H-M "C M M M"
_symmetry_group_IT_number 65
_symmetry_cell_setting 'orthorhombic'
loop_
_space_group_symop_operation_xyz
x,y,z
-x,-y,z
x,-y,-z
-x,y,-z
-x,-y,-z
x,y,-z
-x,y,z
x,-y,z
1/2+x,1/2+y,z
1/2-x,1/2-y,z
1/2+x,1/2-y,-z
1/2-x,1/2+y,-z
1/2-x,1/2-y,-z
1/2+x,1/2+y,-z
1/2-x,1/2+y,z
1/2+x,1/2-y,z
loop_
_atom_site_type_symbol
_atom_site_label
_atom_site_fract_x
_atom_site_fract_y
_atom_site_fract_z
Si Si1 0.916186 0.670668 0.211388
Si Si2 0.173544 0.174344 0.298069
Si Si3 0.414862 0.166352 0.500000
Si Si4 0.825882 0.675858 0.000000
Si Si5 0.417924 0.327169 0.397457
Si Si6 0.421147 0.825648 0.905664
O O1 0.897669 0.500000 0.222587
O O2 0.869558 0.775050 0.247581
O O3 0.894971 0.714892 0.152387
O O4 0.000000 0.699979 0.221135
O O5 0.250000 0.250000 0.300252
O O6 0.128946 0.223768 0.348604
O O7 0.183764 0.000000 0.295597
O O8 0.500000 0.173777 0.500000
O O9 0.386091 0.246609 0.448296
O O10 0.385878 0.000000 0.500000
O O11 0.750000 0.750000 0.000000
O O12 0.866736 0.735447 0.948763
O O13 0.818427 0.500000 0.000000
O O14 0.500000 0.280355 0.386492
O O15 0.412272 0.500000 0.407798
O O16 0.500000 0.757476 0.915872
O O17 0.427164 0.000000 0.910796
#
# Coordination Sequence:
#
# PCOD8268044 Si02
#       6
#    16  16   8   8  16  16
#     4   9  18  34  56  80 104 131 168 215 264 312
#     4  11  23  37  53  75 105 140 177 214 257 309
#     4   9  17  29  50  81 108 129 161 207 254 299
#     4  10  19  31  49  73 103 136 170 208 250 300
#     4   9  18  34  55  76 100 132 169 209 253 303
#     4   8  15  30  53  77  98 127 170 213 251 297
#
# _framework density 18.406773999999999
#
# number of rings (size 3 to 8) (size 9 to 14) (size 15 to 20)
#    0.000    2.700    0.000    3.000    0.000    6.000 
#    0.000    5.500    0.000    2.400    0.000    0.000 
#    0.000    0.000    0.000    0.000    0.000    0.000 
#
# Total GULP energy -495968.505709 kJ/mol
# GULP energy per Si atom -12399.212643 kJ/mol
# Density = 1.836488 g / cm^3
# Si number density = 18.406774 Si / 1000 Ang^3
#
#
#
# Elastic Constant Matrix: (Units=GPa)
#
#
# Indices 1 2 3 4 5 6 
#
# 1 106.9658 42.8380 89.6445 0.0000 0.0000 0.0000
# 2 42.8380 53.1698 55.9607 0.0000 0.0000 0.0000
# 3 89.6445 55.9607 177.3669 0.0000 0.0000 0.0000
# 4 0.0000 0.0000 0.0000 26.1061 0.0000 0.0000
# 5 0.0000 0.0000 0.0000 0.0000 6.2559 0.0000
# 6 0.0000 0.0000 0.0000 0.0000 0.0000 21.3902
#
#
#
# Elastic Compliance Matrix: (Units=1/GPa)
#
#
# Indices 1 2 3 4 5 6 
#
# 1 0.017956 -0.007359 -0.006753 0.000000 0.000000 0.000000
# 2 -0.007359 0.031174 -0.006116 0.000000 0.000000 0.000000
# 3 -0.006753 -0.006116 0.010981 0.000000 0.000000 0.000000
# 4 0.000000 0.000000 0.000000 0.038305 0.000000 0.000000
# 5 0.000000 0.000000 0.000000 0.000000 0.159849 0.000000
# 6 0.000000 0.000000 0.000000 0.000000 0.000000 0.046750
#
#
# Mechanical properties :
#
#
# Convention : Reuss Voigt Hill
#
# Bulk Modulus (GPa) = 50.88107 79.37656 65.12881
# Shear Modulus (GPa) = 14.20359 20.68770 17.44565
#
# Velocity S-wave (km/s) = 2.78087 3.35613 3.08195
# Velocity P-wave (km/s) = 6.16552 7.63120 6.93718
#
# Compressibility (1/GPa) = 0.01965367
#
# Stress axis : x y z
#
# Youngs Moduli (GPa) = 55.69302 32.07810 91.06568
#
# Poissons Ratio (x) = 0.23605 0.61500
# Poissons Ratio (y) = 0.40983 0.55700
# Poissons Ratio (z) = 0.37611 0.19620
#
# Static dielectric constant tensor:
#      x y z
#    x 3.339280 0.000000 0.000000 
#    y 0.000000 3.149540 0.000000 
#    z 0.000000 0.000000 3.679390 
# 
# 
# High freq. dielectric constant tensor:
#      x y z
#    x 1.700630 0.000000 0.000000 
#    y 0.000000 1.691190 0.000000 
#    z 0.000000 0.000000 1.730920 
# 
# From -- ./inp_files/67279.got.cif
#   From: 2010.03.12/outbox.cif.g09.slc.cpg/sg65_34_cif.got.tgz:67279.got - 2010.04.10 20:52:16.
