data_PCOD8268221
_publ_section_title
;
Structure prediction by ZEFSAII (Michael W. Deem and Ramdas Pophale) SiO2 
 PCOD8268221
Probable space group: C M M M
;
_chemical_formula_sum "Si O2"
_cell_formula_units_Z 64
_cell_length_a 8.470316
_cell_length_b 15.291854
_cell_length_c 24.380107
_cell_angle_alpha 90.000000
_cell_angle_beta 90.000000
_cell_angle_gamma 90.000000
_cell_volume 3157.878111
_symmetry_space_group_name_H-M "C M M M"
_symmetry_group_IT_number 65
_symmetry_cell_setting 'orthorhombic'
loop_
_space_group_symop_operation_xyz
x,y,z
-x,-y,z
x,-y,-z
-x,y,-z
-x,-y,-z
x,y,-z
-x,y,z
x,-y,z
1/2+x,1/2+y,z
1/2-x,1/2-y,z
1/2+x,1/2-y,-z
1/2-x,1/2+y,-z
1/2-x,1/2-y,-z
1/2+x,1/2+y,-z
1/2-x,1/2+y,z
1/2+x,1/2-y,z
loop_
_atom_site_type_symbol
_atom_site_label
_atom_site_fract_x
_atom_site_fract_y
_atom_site_fract_z
Si Si1 0.312323 0.648362 0.500000
Si Si2 0.677798 0.400364 0.115248
Si Si3 0.184842 0.500000 0.703668
Si Si4 0.311785 0.345958 0.000000
Si Si5 0.686311 0.000000 0.423134
Si Si6 0.187082 0.159471 0.771116
O O1 0.500000 0.654324 0.500000
O O2 0.250000 0.750000 0.500000
O O3 0.255799 0.590633 0.447838
O O4 0.500000 0.365418 0.108463
O O5 0.681655 0.500000 0.133093
O O6 0.758299 0.350787 0.166718
O O7 0.760922 0.388259 0.055760
O O8 0.231668 0.500000 0.640265
O O9 0.256041 0.414511 0.730605
O O10 0.000000 0.500000 0.713005
O O11 0.250000 0.250000 0.000000
O O12 0.500000 0.356664 0.000000
O O13 0.500000 0.000000 0.433730
O O14 0.250000 0.250000 0.746556
O O15 0.000000 0.156434 0.773844
#
# Coordination Sequence:
#
# PCOD8268221 Si02
#       6
#     8  16   8   8   8  16
#     4  11  22  39  66  98 132 169 206 243 292 348
#     4   9  17  32  54  79 104 141 189 237 294 359
#     4  11  24  42  63  89 121 160 206 253 302 351
#     4  10  19  31  51  75 105 138 180 234 290 360
#     4  10  22  41  64  92 127 163 205 255 300 348
#     4  11  22  38  60  85 117 155 199 249 303 364
#
# _framework density 20.266774999999999
#
# number of rings (size 3 to 8) (size 9 to 14) (size 15 to 20)
#    0.000    1.750    1.250    4.500    0.000    4.500 
#    0.000    1.250    0.000    0.750    0.000    0.000 
#    0.000    0.000    0.000    0.000    0.000    0.000 
#
# Total GULP energy -396505.869274 kJ/mol
# GULP energy per Si atom -12390.808415 kJ/mol
# Density = 2.022065 g / cm^3
# Si number density = 20.266775 Si / 1000 Ang^3
#
#
#
# Elastic Constant Matrix: (Units=GPa)
#
#
# Indices 1 2 3 4 5 6 
#
# 1 77.3194 43.0119 55.0138 0.0000 0.0000 0.0000
# 2 43.0119 162.8983 84.6232 0.0000 0.0000 0.0000
# 3 55.0138 84.6232 173.6203 0.0000 0.0000 0.0000
# 4 0.0000 0.0000 0.0000 -100.7317 0.0000 0.0000
# 5 0.0000 0.0000 0.0000 0.0000 20.3575 0.0000
# 6 0.0000 0.0000 0.0000 0.0000 0.0000 34.6638
#
#
#
# Elastic Compliance Matrix: (Units=1/GPa)
#
#
# Indices 1 2 3 4 5 6 
#
# 1 0.017322 -0.002306 -0.004364 0.000000 0.000000 0.000000
# 2 -0.002306 0.008527 -0.003425 0.000000 0.000000 0.000000
# 3 -0.004364 -0.003425 0.008812 0.000000 0.000000 0.000000
# 4 0.000000 0.000000 0.000000 -0.009927 0.000000 0.000000
# 5 0.000000 0.000000 0.000000 0.000000 0.049122 0.000000
# 6 0.000000 0.000000 0.000000 0.000000 0.000000 0.028849
#
#
# Mechanical properties :
#
#
# Convention : Reuss Voigt Hill
#
# Bulk Modulus (GPa) = 69.11491 86.57064 77.84277
# Shear Modulus (GPa) = 39.14821 6.27052 22.70936
#
# Velocity S-wave (km/s) = 4.39982 1.76088 3.35105
# Velocity P-wave (km/s) = 7.74518 6.85146 7.31199
#
# Compressibility (1/GPa) = 0.01446866
#
# Stress axis : x y z
#
# Youngs Moduli (GPa) = 57.73083 117.27156 113.47927
#
# Poissons Ratio (x) = 0.27047 0.49528
# Poissons Ratio (y) = 0.13315 0.38871
# Poissons Ratio (z) = 0.25197 0.40170
#
# Static dielectric constant tensor:
#      x y z
#    x 3.510050 0.000000 0.000000 
#    y 0.000000 3.773190 0.000000 
#    z 0.000000 0.000000 4.423010 
# 
# 
# High freq. dielectric constant tensor:
#      x y z
#    x 1.768170 0.000000 0.000000 
#    y 0.000000 1.801430 0.000000 
#    z 0.000000 0.000000 1.805110 
# 
# From -- ./inp_files/66870.got.cif
#   From: 2010.03.12/outbox.cif.g09.slc.cpg/sg65_34_cif.got.tgz:66870.got - 2010.04.10 20:52:16.
