data_PCOD8268142
_publ_section_title
;
Structure prediction by ZEFSAII (Michael W. Deem and Ramdas Pophale) SiO2 
 PCOD8268142
Probable space group: C M M M
;
_chemical_formula_sum "Si O2"
_cell_formula_units_Z 80
_cell_length_a 18.432130
_cell_length_b 27.158888
_cell_length_c 8.969702
_cell_angle_alpha 90.000000
_cell_angle_beta 90.000000
_cell_angle_gamma 90.000000
_cell_volume 4490.198326
_symmetry_space_group_name_H-M "C M M M"
_symmetry_group_IT_number 65
_symmetry_cell_setting 'orthorhombic'
loop_
_space_group_symop_operation_xyz
x,y,z
-x,-y,z
x,-y,-z
-x,y,-z
-x,-y,-z
x,y,-z
-x,y,z
x,-y,z
1/2+x,1/2+y,z
1/2-x,1/2-y,z
1/2+x,1/2-y,-z
1/2-x,1/2+y,-z
1/2-x,1/2-y,-z
1/2+x,1/2+y,-z
1/2-x,1/2+y,z
1/2+x,1/2-y,z
loop_
_atom_site_type_symbol
_atom_site_label
_atom_site_fract_x
_atom_site_fract_y
_atom_site_fract_z
Si Si1 0.650045 0.553669 0.673687
Si Si2 0.792403 0.609598 0.327359
Si Si3 0.283678 0.697967 0.175467
Si Si4 0.582208 0.346965 0.323365
Si Si5 0.916987 0.443523 0.170315
O O1 0.634251 0.549097 0.500000
O O2 0.633327 0.500000 0.748272
O O3 0.734005 0.566667 0.703556
O O4 0.599578 0.597662 0.737438
O O5 0.793917 0.624476 0.500000
O O6 0.772249 0.657446 0.233355
O O7 0.870746 0.590841 0.278190
O O8 0.250000 0.750000 0.221959
O O9 0.363295 0.691958 0.248849
O O10 0.293129 0.692845 0.000000
O O11 0.595065 0.345173 0.500000
O O12 0.500000 0.333063 0.280102
O O13 0.907504 0.500000 0.219112
O O14 0.000000 0.427080 0.188430
O O15 0.891512 0.436495 0.000000
#
# Coordination Sequence:
#
# PCOD8268142 Si02
#       5
#    16  16  16  16  16
#     4   8  14  25  43  70 102 132 160 190 227 275
#     4  10  19  31  50  75 101 129 166 212 256 300
#     4  10  21  37  56  75  95 126 169 212 257 309
#     4   9  18  32  51  77 106 133 162 199 244 292
#     4   9  18  32  49  71 103 141 174 206 250 302
#
# _framework density 17.816585
#
# number of rings (size 3 to 8) (size 9 to 14) (size 15 to 20)
#    0.000    2.800    0.000    3.600    0.000    4.000 
#    0.000    4.000    0.000    6.600    0.000    5.600 
#    0.000    0.000    0.000    0.000    0.000    0.000 
#
# Total GULP energy -495872.922350 kJ/mol
# GULP energy per Si atom -12396.823059 kJ/mol
# Density = 1.777603 g / cm^3
# Si number density = 17.816585 Si / 1000 Ang^3
#
#
#
# Elastic Constant Matrix: (Units=GPa)
#
#
# Indices 1 2 3 4 5 6 
#
# 1 122.7512 61.2770 41.4309 0.0000 0.0000 0.0000
# 2 61.2770 112.3381 38.5410 0.0000 0.0000 0.0000
# 3 41.4309 38.5410 43.3275 0.0000 0.0000 0.0000
# 4 0.0000 0.0000 0.0000 23.3152 0.0000 0.0000
# 5 0.0000 0.0000 0.0000 0.0000 27.4719 0.0000
# 6 0.0000 0.0000 0.0000 0.0000 0.0000 15.7119
#
#
#
# Elastic Compliance Matrix: (Units=1/GPa)
#
#
# Indices 1 2 3 4 5 6 
#
# 1 0.013246 -0.004145 -0.008980 0.000000 0.000000 0.000000
# 2 -0.004145 0.014108 -0.008586 0.000000 0.000000 0.000000
# 3 -0.008980 -0.008586 0.039305 0.000000 0.000000 0.000000
# 4 0.000000 0.000000 0.000000 0.042891 0.000000 0.000000
# 5 0.000000 0.000000 0.000000 0.000000 0.036401 0.000000
# 6 0.000000 0.000000 0.000000 0.000000 0.000000 0.063646
#
#
# Mechanical properties :
#
#
# Convention : Reuss Voigt Hill
#
# Bulk Modulus (GPa) = 43.03392 62.32386 52.67889
# Shear Modulus (GPa) = 19.17439 22.44432 20.80935
#
# Velocity S-wave (km/s) = 3.28412 3.55314 3.42127
# Velocity P-wave (km/s) = 6.21184 7.20346 6.72595
#
# Compressibility (1/GPa) = 0.02323748
#
# Stress axis : x y z
#
# Youngs Moduli (GPa) = 75.49192 70.87982 25.44236
#
# Poissons Ratio (x) = 0.29378 0.22847
# Poissons Ratio (y) = 0.31290 0.21846
# Poissons Ratio (z) = 0.67790 0.60861
#
# Static dielectric constant tensor:
#      x y z
#    x 3.270020 0.000000 0.000000 
#    y 0.000000 3.333230 0.000000 
#    z 0.000000 0.000000 3.098150 
# 
# 
# High freq. dielectric constant tensor:
#      x y z
#    x 1.688540 0.000000 0.000000 
#    y 0.000000 1.680160 0.000000 
#    z 0.000000 0.000000 1.670970 
# 
# From -- ./inp_files/9658.got.cif
#   From: 2010.03.12/outbox.cif.g09.slc.cpg/sg65_5_cif.got.tgz:9658.got - 2010.04.10 20:52:16.
