data_PCOD8268357
_publ_section_title
;
Structure prediction by ZEFSAII (Michael W. Deem and Ramdas Pophale) SiO2 
 PCOD8268357
Probable space group: C M M M
;
_chemical_formula_sum "Si O2"
_cell_formula_units_Z 120
_cell_length_a 9.206035
_cell_length_b 28.349938
_cell_length_c 28.313685
_cell_angle_alpha 90.000000
_cell_angle_beta 90.000000
_cell_angle_gamma 90.000000
_cell_volume 7389.603413
_symmetry_space_group_name_H-M "C M M M"
_symmetry_group_IT_number 65
_symmetry_cell_setting 'orthorhombic'
loop_
_space_group_symop_operation_xyz
x,y,z
-x,-y,z
x,-y,-z
-x,y,-z
-x,-y,-z
x,y,-z
-x,y,z
x,-y,z
1/2+x,1/2+y,z
1/2-x,1/2-y,z
1/2+x,1/2-y,-z
1/2-x,1/2+y,-z
1/2-x,1/2-y,-z
1/2+x,1/2+y,-z
1/2-x,1/2+y,z
1/2+x,1/2-y,z
loop_
_atom_site_type_symbol
_atom_site_label
_atom_site_fract_x
_atom_site_fract_y
_atom_site_fract_z
Si Si1 0.667861 0.946219 0.283127
Si Si2 0.669285 0.702722 0.053224
Si Si3 0.670415 0.359827 0.680590
Si Si4 0.331448 0.052986 0.174251
Si Si5 0.169452 0.200920 0.227210
Si Si6 0.328834 0.199621 0.602658
Si Si7 0.170543 0.139694 0.860889
Si Si8 0.163847 0.297036 0.500000
O O1 0.500000 0.931793 0.290266
O O2 0.771390 0.912996 0.313993
O O3 0.713237 0.940616 0.228642
O O4 0.692675 0.000000 0.299662
O O5 0.500000 0.713688 0.057647
O O6 0.750000 0.750000 0.068664
O O7 0.715577 0.661281 0.088650
O O8 0.712007 0.687402 0.000000
O O9 0.500000 0.360881 0.669273
O O10 0.705659 0.330895 0.727749
O O11 0.756683 0.336964 0.637752
O O12 0.500000 0.063750 0.167637
O O13 0.242655 0.088596 0.141687
O O14 0.294354 0.000000 0.157573
O O15 0.250000 0.250000 0.232855
O O16 0.227333 0.173826 0.180824
O O17 0.000000 0.211865 0.222907
O O18 0.500000 0.205943 0.614122
O O19 0.250000 0.250000 0.607733
O O20 0.304532 0.176699 0.549884
O O21 0.000000 0.132508 0.855826
O O22 0.250000 0.250000 0.500000
O O23 0.000000 0.279864 0.500000
#
# Coordination Sequence:
#
# PCOD8268357 Si02
#       8
#    16  16  16  16  16  16  16   8
#     4   9  18  33  51  70  93 123 159 199 241 284
#     4   9  18  32  50  71  95 123 158 199 238 279
#     4  11  21  32  46  69  99 130 162 194 234 285
#     4   9  18  32  50  72  95 120 155 196 237 282
#     4  10  21  32  42  62  93 127 158 188 223 273
#     4  10  19  32  49  70  97 130 166 203 242 282
#     4  10  19  32  48  69  95 123 157 195 237 281
#     4   8  16  30  48  68  91 122 163 206 242 279
#
# _framework density 16.239032000000002
#
# number of rings (size 3 to 8) (size 9 to 14) (size 15 to 20)
#    0.000    2.400    1.333    2.400    0.000    4.267 
#    0.000    1.333    0.000    0.400    0.000    3.267 
#    0.000    3.733    0.000    0.000    0.000    0.000 
#
# Total GULP energy -743849.274107 kJ/mol
# GULP energy per Si atom -12397.487902 kJ/mol
# Density = 1.620207 g / cm^3
# Si number density = 16.239032 Si / 1000 Ang^3
#
#
#
# Elastic Constant Matrix: (Units=GPa)
#
#
# Indices 1 2 3 4 5 6 
#
# 1 64.9980 52.9813 49.7165 0.0000 0.0000 0.0000
# 2 52.9813 109.3894 56.8752 0.0000 0.0000 0.0000
# 3 49.7165 56.8752 103.3029 0.0000 0.0000 0.0000
# 4 0.0000 0.0000 0.0000 12.4539 0.0000 0.0000
# 5 0.0000 0.0000 0.0000 0.0000 21.7573 0.0000
# 6 0.0000 0.0000 0.0000 0.0000 0.0000 32.2865
#
#
#
# Elastic Compliance Matrix: (Units=1/GPa)
#
#
# Indices 1 2 3 4 5 6 
#
# 1 0.030608 -0.010039 -0.009203 0.000000 0.000000 0.000000
# 2 -0.010039 0.016101 -0.004033 0.000000 0.000000 0.000000
# 3 -0.009203 -0.004033 0.016330 0.000000 0.000000 0.000000
# 4 0.000000 0.000000 0.000000 0.080296 0.000000 0.000000
# 5 0.000000 0.000000 0.000000 0.000000 0.045962 0.000000
# 6 0.000000 0.000000 0.000000 0.000000 0.000000 0.030973
#
#
# Mechanical properties :
#
#
# Convention : Reuss Voigt Hill
#
# Bulk Modulus (GPa) = 60.65214 66.31514 63.48364
# Shear Modulus (GPa) = 18.36097 21.17404 19.76750
#
# Velocity S-wave (km/s) = 3.36619 3.61487 3.49274
# Velocity P-wave (km/s) = 7.24838 7.63862 7.44606
#
# Compressibility (1/GPa) = 0.01648746
#
# Stress axis : x y z
#
# Youngs Moduli (GPa) = 32.67119 62.10778 61.23710
#
# Poissons Ratio (x) = 0.62353 0.56358
# Poissons Ratio (y) = 0.32800 0.24697
# Poissons Ratio (z) = 0.30068 0.25048
#
# Static dielectric constant tensor:
#      x y z
#    x 3.080560 0.000000 0.000000 
#    y 0.000000 2.937860 0.000000 
#    z 0.000000 0.000000 3.400690 
# 
# 
# High freq. dielectric constant tensor:
#      x y z
#    x 1.629820 0.000000 0.000000 
#    y 0.000000 1.610290 0.000000 
#    z 0.000000 0.000000 1.616930 
# 
# From -- ./inp_files/73893.got.cif
#   From: 2010.03.12/outbox.cif.g09.slc.cpg/sg65_37_cif.got.tgz:73893.got - 2010.04.10 20:52:16.
