data_PCOD8268979
_publ_section_title
;
Structure prediction by ZEFSAII (Michael W. Deem and Ramdas Pophale) SiO2 
 PCOD8268979
Probable space group: C M M M
;
_chemical_formula_sum "Si O2"
_cell_formula_units_Z 88
_cell_length_a 17.981327
_cell_length_b 27.543067
_cell_length_c 9.327590
_cell_angle_alpha 90.000000
_cell_angle_beta 90.000000
_cell_angle_gamma 90.000000
_cell_volume 4619.590565
_symmetry_space_group_name_H-M "C M M M"
_symmetry_group_IT_number 65
_symmetry_cell_setting 'orthorhombic'
loop_
_space_group_symop_operation_xyz
x,y,z
-x,-y,z
x,-y,-z
-x,y,-z
-x,-y,-z
x,y,-z
-x,y,z
x,-y,z
1/2+x,1/2+y,z
1/2-x,1/2-y,z
1/2+x,1/2-y,-z
1/2-x,1/2+y,-z
1/2-x,1/2-y,-z
1/2+x,1/2+y,-z
1/2-x,1/2+y,z
1/2+x,1/2-y,z
loop_
_atom_site_type_symbol
_atom_site_label
_atom_site_fract_x
_atom_site_fract_y
_atom_site_fract_z
Si Si1 0.585453 0.316324 0.334712
Si Si2 0.418439 0.500000 0.329761
Si Si3 0.167583 0.735930 0.170080
Si Si4 0.181809 0.555533 0.167805
Si Si5 0.917835 0.357842 0.168206
Si Si6 0.177195 0.089343 0.331468
O O1 0.597892 0.302077 0.500000
O O2 0.500000 0.331291 0.307526
O O3 0.606279 0.271415 0.235660
O O4 0.638592 0.360440 0.290247
O O5 0.500000 0.500000 0.260591
O O6 0.424004 0.500000 0.500000
O O7 0.376292 0.452787 0.274208
O O8 0.250000 0.750000 0.228178
O O9 0.142494 0.682072 0.222623
O O10 0.165716 0.741209 0.000000
O O11 0.170864 0.500000 0.222013
O O12 0.108520 0.587212 0.202828
O O13 0.246113 0.583848 0.249563
O O14 0.200373 0.556152 0.000000
O O15 0.000000 0.350452 0.238146
O O16 0.925112 0.350582 0.000000
O O17 0.192214 0.084692 0.500000
#
# Coordination Sequence:
#
# PCOD8268979 Si02
#       6
#    16   8  16  16  16  16
#     4  10  21  35  52  78 110 140 175 220 264 307
#     4   9  16  28  49  73  96 129 174 212 243 293
#     4  10  20  35  56  80 106 140 180 217 260 318
#     4  10  20  34  54  79 105 133 169 220 272 311
#     4   9  18  33  53  77 105 138 177 216 256 312
#     4  10  19  33  53  76 103 138 176 212 255 312
#
# _framework density 19.049308
#
# number of rings (size 3 to 8) (size 9 to 14) (size 15 to 20)
#    0.000    2.273    0.909    2.182    0.000    6.182 
#    0.000    2.727    0.000    3.818    0.000    1.273 
#    0.000    0.000    0.000    0.000    0.000    0.000 
#
# Total GULP energy -545492.184311 kJ/mol
# GULP energy per Si atom -12397.549643 kJ/mol
# Density = 1.900595 g / cm^3
# Si number density = 19.049308 Si / 1000 Ang^3
#
#
#
# Elastic Constant Matrix: (Units=GPa)
#
#
# Indices 1 2 3 4 5 6 
#
# 1 131.6335 58.5993 21.1998 0.0000 0.0000 0.0000
# 2 58.5993 134.8561 25.8122 0.0000 0.0000 0.0000
# 3 21.1998 25.8122 21.0258 0.0000 0.0000 0.0000
# 4 0.0000 0.0000 0.0000 21.0043 0.0000 0.0000
# 5 0.0000 0.0000 0.0000 0.0000 25.6371 0.0000
# 6 0.0000 0.0000 0.0000 0.0000 0.0000 38.5813
#
#
#
# Elastic Compliance Matrix: (Units=1/GPa)
#
#
# Indices 1 2 3 4 5 6 
#
# 1 0.010003 -0.003158 -0.006208 0.000000 0.000000 0.000000
# 2 -0.003158 0.010690 -0.009939 0.000000 0.000000 0.000000
# 3 -0.006208 -0.009939 0.066022 0.000000 0.000000 0.000000
# 4 0.000000 0.000000 0.000000 0.047609 0.000000 0.000000
# 5 0.000000 0.000000 0.000000 0.000000 0.039006 0.000000
# 6 0.000000 0.000000 0.000000 0.000000 0.000000 0.025919
#
#
# Mechanical properties :
#
#
# Convention : Reuss Voigt Hill
#
# Bulk Modulus (GPa) = 20.78861 55.41534 38.10197
# Shear Modulus (GPa) = 19.69315 29.17146 24.43231
#
# Velocity S-wave (km/s) = 3.21876 3.91751 3.58520
# Velocity P-wave (km/s) = 4.97500 7.04387 6.09782
#
# Compressibility (1/GPa) = 0.04810328
#
# Stress axis : x y z
#
# Youngs Moduli (GPa) = 99.97377 93.54479 15.14646
#
# Poissons Ratio (x) = 0.29543 0.09403
# Poissons Ratio (y) = 0.31573 0.15054
# Poissons Ratio (z) = 0.62066 0.92977
#
# Static dielectric constant tensor:
#      x y z
#    x 3.671900 0.000000 0.000000 
#    y 0.000000 3.737720 0.000000 
#    z 0.000000 0.000000 3.095660 
# 
# 
# High freq. dielectric constant tensor:
#      x y z
#    x 1.749320 0.000000 0.000000 
#    y 0.000000 1.754700 0.000000 
#    z 0.000000 0.000000 1.698910 
# 
# From -- ./inp_files/10045.got.cif
#   From: 2010.03.12/outbox.cif.g09.slc.cpg/sg65_6_cif.got.tgz:10045.got - 2010.04.10 20:52:16.
