data_PCOD8268117
_publ_section_title
;
Structure prediction by ZEFSAII (Michael W. Deem and Ramdas Pophale) SiO2 
 PCOD8268117
Probable space group: C M M M
;
_chemical_formula_sum "Si O2"
_cell_formula_units_Z 80
_cell_length_a 18.339865
_cell_length_b 8.821789
_cell_length_c 26.034803
_cell_angle_alpha 90.000000
_cell_angle_beta 90.000000
_cell_angle_gamma 90.000000
_cell_volume 4212.181694
_symmetry_space_group_name_H-M "C M M M"
_symmetry_group_IT_number 65
_symmetry_cell_setting 'orthorhombic'
loop_
_space_group_symop_operation_xyz
x,y,z
-x,-y,z
x,-y,-z
-x,y,-z
-x,-y,-z
x,y,-z
-x,y,z
x,-y,z
1/2+x,1/2+y,z
1/2-x,1/2-y,z
1/2+x,1/2-y,-z
1/2-x,1/2+y,-z
1/2-x,1/2-y,-z
1/2+x,1/2+y,-z
1/2-x,1/2+y,z
1/2+x,1/2-y,z
loop_
_atom_site_type_symbol
_atom_site_label
_atom_site_fract_x
_atom_site_fract_y
_atom_site_fract_z
Si Si1 0.414897 0.175129 0.257551
Si Si2 0.918356 0.180134 0.443115
Si Si3 0.670770 0.178162 0.156098
Si Si4 0.171782 0.821217 0.652438
Si Si5 0.829223 0.822404 0.944370
O O1 0.500000 0.208776 0.254262
O O2 0.380154 0.222568 0.203475
O O3 0.381419 0.279438 0.301407
O O4 0.398442 0.000000 0.270325
O O5 0.893075 0.233979 0.500000
O O6 0.862613 0.244029 0.400583
O O7 0.000000 0.241738 0.431770
O O8 0.919933 0.000000 0.440656
O O9 0.750000 0.250000 0.165099
O O10 0.631284 0.244281 0.104431
O O11 0.679707 0.000000 0.150113
O O12 0.250000 0.750000 0.661987
O O13 0.180674 0.000000 0.650012
O O14 0.750000 0.750000 0.946644
O O15 0.822422 0.000000 0.933876
O O16 0.868291 0.792548 0.000000
#
# Coordination Sequence:
#
# PCOD8268117 Si02
#       5
#    16  16  16  16  16
#     4  10  22  39  56  75 102 135 171 215 265 313
#     4   8  15  30  52  77 105 137 174 215 256 301
#     4  10  19  31  50  74 100 131 166 206 252 302
#     4  11  22  35  54  80 107 138 176 215 259 309
#     4   9  16  26  43  69 100 131 163 202 248 296
#
# _framework density 18.992533999999999
#
# number of rings (size 3 to 8) (size 9 to 14) (size 15 to 20)
#    0.000    2.400    0.000    4.800    0.000    6.000 
#    0.000    0.000    0.000    2.400    0.000   11.200 
#    0.000    0.000    0.000    0.000    0.000    0.000 
#
# Total GULP energy -495786.993113 kJ/mol
# GULP energy per Si atom -12394.674828 kJ/mol
# Density = 1.894931 g / cm^3
# Si number density = 18.992534 Si / 1000 Ang^3
#
#
#
# Elastic Constant Matrix: (Units=GPa)
#
#
# Indices 1 2 3 4 5 6 
#
# 1 84.1154 28.8071 62.8862 0.0000 0.0000 0.0000
# 2 28.8071 71.9013 53.9019 0.0000 0.0000 0.0000
# 3 62.8862 53.9019 175.6156 0.0000 0.0000 0.0000
# 4 0.0000 0.0000 0.0000 141.0423 0.0000 0.0000
# 5 0.0000 0.0000 0.0000 0.0000 9.6820 0.0000
# 6 0.0000 0.0000 0.0000 0.0000 0.0000 13.0177
#
#
#
# Elastic Compliance Matrix: (Units=1/GPa)
#
#
# Indices 1 2 3 4 5 6 
#
# 1 0.016677 -0.002864 -0.005093 0.000000 0.000000 0.000000
# 2 -0.002864 0.018556 -0.004670 0.000000 0.000000 0.000000
# 3 -0.005093 -0.004670 0.008951 0.000000 0.000000 0.000000
# 4 0.000000 0.000000 0.000000 0.007090 0.000000 0.000000
# 5 0.000000 0.000000 0.000000 0.000000 0.103285 0.000000
# 6 0.000000 0.000000 0.000000 0.000000 0.000000 0.076819
#
#
# Mechanical properties :
#
#
# Convention : Reuss Voigt Hill
#
# Bulk Modulus (GPa) = 52.82262 69.20251 61.01256
# Shear Modulus (GPa) = 19.01567 45.15087 32.08327
#
# Velocity S-wave (km/s) = 3.16764 4.88104 4.11452
# Velocity P-wave (km/s) = 6.42271 8.26328 7.40044
#
# Compressibility (1/GPa) = 0.01893128
#
# Stress axis : x y z
#
# Youngs Moduli (GPa) = 59.96437 53.89035 111.71524
#
# Poissons Ratio (x) = 0.15432 0.56894
# Poissons Ratio (y) = 0.17171 0.52172
# Poissons Ratio (z) = 0.30539 0.25167
#
# Static dielectric constant tensor:
#      x y z
#    x 3.266190 0.000000 0.000000 
#    y 0.000000 3.350550 0.000000 
#    z 0.000000 0.000000 4.249420 
# 
# 
# High freq. dielectric constant tensor:
#      x y z
#    x 1.705830 0.000000 0.000000 
#    y 0.000000 1.726500 0.000000 
#    z 0.000000 0.000000 1.765920 
# 
# From -- ./inp_files/75030.got.cif
#   From: 2010.03.12/outbox.cif.g09.slc.cpg/sg65_38_cif.got.tgz:75030.got - 2010.04.10 20:52:16.
