data_PCOD8268135
_publ_section_title
;
Structure prediction by ZEFSAII (Michael W. Deem and Ramdas Pophale) SiO2 
 PCOD8268135
Probable space group: C M M M
;
_chemical_formula_sum "Si O2"
_cell_formula_units_Z 104
_cell_length_a 9.142832
_cell_length_b 27.812747
_cell_length_c 23.700879
_cell_angle_alpha 90.000000
_cell_angle_beta 90.000000
_cell_angle_gamma 90.000000
_cell_volume 6026.831895
_symmetry_space_group_name_H-M "C M M M"
_symmetry_group_IT_number 65
_symmetry_cell_setting 'orthorhombic'
loop_
_space_group_symop_operation_xyz
x,y,z
-x,-y,z
x,-y,-z
-x,y,-z
-x,-y,-z
x,y,-z
-x,y,z
x,-y,z
1/2+x,1/2+y,z
1/2-x,1/2-y,z
1/2+x,1/2-y,-z
1/2-x,1/2+y,-z
1/2-x,1/2-y,-z
1/2+x,1/2+y,-z
1/2-x,1/2+y,z
1/2+x,1/2-y,z
loop_
_atom_site_type_symbol
_atom_site_label
_atom_site_fract_x
_atom_site_fract_y
_atom_site_fract_z
Si Si1 0.156839 0.000000 0.434294
Si Si2 0.828133 0.134716 0.837076
Si Si3 0.829845 0.202114 0.063857
Si Si4 0.336034 0.203042 0.246240
Si Si5 0.673312 0.943914 0.229582
Si Si6 0.339172 0.120905 0.332102
Si Si7 0.825469 0.102958 0.437050
O O1 0.240146 0.950289 0.420955
O O2 0.122458 0.000000 0.500000
O O3 0.000000 0.000000 0.402283
O O4 0.796383 0.153358 0.900717
O O5 0.760700 0.176509 0.799701
O O6 0.751117 0.083557 0.822847
O O7 0.000000 0.129102 0.825138
O O8 0.750000 0.250000 0.087787
O O9 0.000000 0.214288 0.067029
O O10 0.777858 0.191492 0.000000
O O11 0.500000 0.214126 0.223031
O O12 0.250000 0.250000 0.264501
O O13 0.349353 0.171463 0.301724
O O14 0.500000 0.936579 0.222476
O O15 0.724763 0.919764 0.288906
O O16 0.717885 0.000000 0.228886
O O17 0.500000 0.104365 0.352385
O O18 0.239786 0.134042 0.386518
O O19 0.773577 0.119232 0.500000
O O20 0.000000 0.102971 0.435376
#
# Coordination Sequence:
#
# PCOD8268135 Si02
#       7
#     8  16  16  16  16  16  16
#     4   7  12  24  39  57  83 113 143 175 214 257
#     4  10  19  31  50  75 100 128 164 200 237 287
#     4   9  18  31  47  71 103 134 162 196 239 285
#     4  10  20  34  51  71  97 126 157 197 243 287
#     4   9  19  35  51  68  96 131 163 201 247 287
#     4   9  19  32  47  69  94 121 152 190 239 288
#     4   9  17  29  45  65  91 122 154 189 230 278
#
# _framework density 17.256166
#
# number of rings (size 3 to 8) (size 9 to 14) (size 15 to 20)
#    0.000    2.846    0.000    3.231    1.077    6.154 
#    0.000    0.000    0.000    2.308    0.000    3.231 
#    0.000    0.000    0.000    0.000    0.000    0.000 
#
# Total GULP energy -644182.364168 kJ/mol
# GULP energy per Si atom -12388.122388 kJ/mol
# Density = 1.721689 g / cm^3
# Si number density = 17.256166 Si / 1000 Ang^3
#
#
#
# Elastic Constant Matrix: (Units=GPa)
#
#
# Indices 1 2 3 4 5 6 
#
# 1 62.7283 37.8281 39.7660 0.0000 0.0000 0.0000
# 2 37.8281 97.8085 41.5584 0.0000 0.0000 0.0000
# 3 39.7660 41.5584 91.0692 0.0000 0.0000 0.0000
# 4 0.0000 0.0000 0.0000 14.2440 0.0000 0.0000
# 5 0.0000 0.0000 0.0000 0.0000 24.8432 0.0000
# 6 0.0000 0.0000 0.0000 0.0000 0.0000 28.8448
#
#
#
# Elastic Compliance Matrix: (Units=1/GPa)
#
#
# Indices 1 2 3 4 5 6 
#
# 1 0.024721 -0.006171 -0.007979 0.000000 0.000000 0.000000
# 2 -0.006171 0.014224 -0.003796 0.000000 0.000000 0.000000
# 3 -0.007979 -0.003796 0.016197 0.000000 0.000000 0.000000
# 4 0.000000 0.000000 0.000000 0.070205 0.000000 0.000000
# 5 0.000000 0.000000 0.000000 0.000000 0.040252 0.000000
# 6 0.000000 0.000000 0.000000 0.000000 0.000000 0.034668
#
#
# Mechanical properties :
#
#
# Convention : Reuss Voigt Hill
#
# Bulk Modulus (GPa) = 51.94762 54.43457 53.19109
# Shear Modulus (GPa) = 20.61212 22.41665 21.51438
#
# Velocity S-wave (km/s) = 3.45987 3.60815 3.53479
# Velocity P-wave (km/s) = 6.79192 6.99798 6.89572
#
# Compressibility (1/GPa) = 0.01925016
#
# Stress axis : x y z
#
# Youngs Moduli (GPa) = 40.45127 70.30506 61.74010
#
# Poissons Ratio (x) = 0.43385 0.49260
# Poissons Ratio (y) = 0.24962 0.23438
# Poissons Ratio (z) = 0.32274 0.26689
#
# Static dielectric constant tensor:
#      x y z
#    x 3.223670 0.000000 0.000000 
#    y 0.000000 3.400930 0.000000 
#    z 0.000000 0.000000 3.270700 
# 
# 
# High freq. dielectric constant tensor:
#      x y z
#    x 1.663140 0.000000 0.000000 
#    y 0.000000 1.648760 0.000000 
#    z 0.000000 0.000000 1.654830 
# 
# From -- ./inp_files/68252.got.cif
#   From: 2010.03.12/outbox.cif.g09.slc.cpg/sg65_35_cif.got.tgz:68252.got - 2010.04.10 20:52:16.
