data_PCOD8268054
_publ_section_title
;
Structure prediction by ZEFSAII (Michael W. Deem and Ramdas Pophale) SiO2 
 PCOD8268054
Probable space group: C M M M
;
_chemical_formula_sum "Si O2"
_cell_formula_units_Z 56
_cell_length_a 8.523864
_cell_length_b 19.466456
_cell_length_c 18.002216
_cell_angle_alpha 90.000000
_cell_angle_beta 90.000000
_cell_angle_gamma 90.000000
_cell_volume 2987.097323
_symmetry_space_group_name_H-M "C M M M"
_symmetry_group_IT_number 65
_symmetry_cell_setting 'orthorhombic'
loop_
_space_group_symop_operation_xyz
x,y,z
-x,-y,z
x,-y,-z
-x,y,-z
-x,-y,-z
x,y,-z
-x,y,z
x,-y,z
1/2+x,1/2+y,z
1/2-x,1/2-y,z
1/2+x,1/2-y,-z
1/2-x,1/2+y,-z
1/2-x,1/2-y,-z
1/2+x,1/2+y,-z
1/2-x,1/2+y,z
1/2+x,1/2-y,z
loop_
_atom_site_type_symbol
_atom_site_label
_atom_site_fract_x
_atom_site_fract_y
_atom_site_fract_z
Si Si1 0.186290 0.422313 0.000000
Si Si2 0.186063 0.325049 0.131805
Si Si3 0.813529 0.824538 0.709741
Si Si4 0.813569 0.076768 0.582059
O O1 0.245570 0.381052 0.072345
O O2 0.255549 0.500000 0.000000
O O3 0.000000 0.425544 0.000000
O O4 0.250000 0.250000 0.110067
O O5 0.249847 0.350123 0.211126
O O6 0.000000 0.320249 0.134333
O O7 0.750000 0.750000 0.690241
O O8 0.745397 0.874098 0.645796
O O9 0.000000 0.823528 0.712284
O O10 0.758486 0.101765 0.500000
O O11 0.000000 0.076996 0.585451
O O12 0.750263 0.000000 0.596806
#
# Coordination Sequence:
#
# PCOD8268054 Si02
#       4
#     8  16  16  16
#     4   9  19  34  51  73  98 125 158 194 236 285
#     4  10  19  33  53  72  95 127 160 195 234 281
#     4  10  19  31  49  73  99 125 157 197 238 281
#     4   8  15  29  48  69  94 126 162 197 235 280
#
# _framework density 18.747295999999999
#
# number of rings (size 3 to 8) (size 9 to 14) (size 15 to 20)
#    0.000    2.714    0.000    4.714    0.000    1.714 
#    0.000    2.143    0.000   11.143    0.000    8.000 
#    0.000    0.000    0.000    0.000    0.000    0.000 
#
# Total GULP energy -347109.366765 kJ/mol
# GULP energy per Si atom -12396.763099 kJ/mol
# Density = 1.870463 g / cm^3
# Si number density = 18.747296 Si / 1000 Ang^3
#
#
#
# Elastic Constant Matrix: (Units=GPa)
#
#
# Indices 1 2 3 4 5 6 
#
# 1 51.8925 23.3111 29.6462 0.0000 0.0000 0.0000
# 2 23.3111 141.0662 129.0710 0.0000 0.0000 0.0000
# 3 29.6462 129.0710 197.6773 0.0000 0.0000 0.0000
# 4 0.0000 0.0000 0.0000 40.4634 0.0000 0.0000
# 5 0.0000 0.0000 0.0000 0.0000 15.6441 0.0000
# 6 0.0000 0.0000 0.0000 0.0000 0.0000 18.2964
#
#
#
# Elastic Compliance Matrix: (Units=1/GPa)
#
#
# Indices 1 2 3 4 5 6 
#
# 1 0.021199 -0.001476 -0.002216 0.000000 0.000000 0.000000
# 2 -0.001476 0.017711 -0.011343 0.000000 0.000000 0.000000
# 3 -0.002216 -0.011343 0.012797 0.000000 0.000000 0.000000
# 4 0.000000 0.000000 0.000000 0.024714 0.000000 0.000000
# 5 0.000000 0.000000 0.000000 0.000000 0.063922 0.000000
# 6 0.000000 0.000000 0.000000 0.000000 0.000000 0.054656
#
#
# Mechanical properties :
#
#
# Convention : Reuss Voigt Hill
#
# Bulk Modulus (GPa) = 46.21322 83.85471 65.03397
# Shear Modulus (GPa) = 21.52564 28.78796 25.15680
#
# Velocity S-wave (km/s) = 3.39219 3.92290 3.66716
# Velocity P-wave (km/s) = 6.32825 8.08362 7.25919
#
# Compressibility (1/GPa) = 0.02163883
#
# Stress axis : x y z
#
# Youngs Moduli (GPa) = 47.17106 56.46133 78.14149
#
# Poissons Ratio (x) = 0.08334 0.17313
# Poissons Ratio (y) = 0.06962 0.88636
# Poissons Ratio (z) = 0.10451 0.64044
#
# Static dielectric constant tensor:
#      x y z
#    x 3.114990 0.000000 0.000000 
#    y 0.000000 3.653340 0.000000 
#    z 0.000000 0.000000 3.864770 
# 
# 
# High freq. dielectric constant tensor:
#      x y z
#    x 1.699340 0.000000 0.000000 
#    y 0.000000 1.725180 0.000000 
#    z 0.000000 0.000000 1.743040 
# 
# From -- ./inp_files/48786.got.cif
#   From: 2010.03.12/outbox.cif.g09.slc.cpg/sg65_25_cif.got.tgz:48786.got - 2010.04.10 20:52:16.
