data_PCOD8268551
_publ_section_title
;
Structure prediction by ZEFSAII (Michael W. Deem and Ramdas Pophale) SiO2 
 PCOD8268551
Probable space group: C M M M
;
_chemical_formula_sum "Si O2"
_cell_formula_units_Z 88
_cell_length_a 9.826284
_cell_length_b 30.074180
_cell_length_c 16.470202
_cell_angle_alpha 90.000000
_cell_angle_beta 90.000000
_cell_angle_gamma 90.000000
_cell_volume 4867.231828
_symmetry_space_group_name_H-M "C M M M"
_symmetry_group_IT_number 65
_symmetry_cell_setting 'orthorhombic'
loop_
_space_group_symop_operation_xyz
x,y,z
-x,-y,z
x,-y,-z
-x,y,-z
-x,-y,-z
x,y,-z
-x,y,z
x,-y,z
1/2+x,1/2+y,z
1/2-x,1/2-y,z
1/2+x,1/2-y,-z
1/2-x,1/2+y,-z
1/2-x,1/2-y,-z
1/2+x,1/2+y,-z
1/2-x,1/2+y,z
1/2+x,1/2-y,z
loop_
_atom_site_type_symbol
_atom_site_label
_atom_site_fract_x
_atom_site_fract_y
_atom_site_fract_z
Si Si1 0.847691 0.324464 0.091682
Si Si2 0.844182 0.379377 0.408248
Si Si3 0.750000 0.250000 0.209114
Si Si4 0.153942 0.108757 0.826415
Si Si5 0.656523 0.948834 0.729933
Si Si6 0.644810 0.676163 0.681703
O O1 0.836458 0.282824 0.152340
O O2 0.735426 0.362587 0.106712
O O3 0.000000 0.344275 0.103609
O O4 0.827173 0.307085 0.000000
O O5 0.805983 0.392877 0.500000
O O6 0.810359 0.421597 0.352012
O O7 0.762771 0.334682 0.382693
O O8 0.000000 0.365241 0.400253
O O9 0.655866 0.277969 0.269460
O O10 0.243376 0.065234 0.803922
O O11 0.144162 0.136469 0.745180
O O12 0.000000 0.096708 0.857328
O O13 0.500000 0.940684 0.756952
O O14 0.683757 0.000000 0.709374
O O15 0.500000 0.677322 0.635417
#
# Coordination Sequence:
#
# PCOD8268551 Si02
#       6
#    16  16   8  16  16  16
#     4  10  20  33  51  75 102 131 162 199 245 294
#     4   9  18  32  49  70  98 130 162 199 244 291
#     4  10  19  32  51  74  98 126 162 206 245 286
#     4   9  18  32  49  70  99 133 165 198 238 288
#     4   9  17  30  51  77 101 127 161 200 242 290
#     4   9  18  31  48  69  93 126 165 201 239 285
#
# _framework density 18.080093000000002
#
# number of rings (size 3 to 8) (size 9 to 14) (size 15 to 20)
#    0.000    2.727    0.000    1.364    0.000    7.273 
#    0.000    2.273    0.000    0.545    0.000    8.909 
#    0.000    0.000    0.000    0.000    0.000    0.000 
#
# Total GULP energy -545242.862152 kJ/mol
# GULP energy per Si atom -12391.883231 kJ/mol
# Density = 1.803894 g / cm^3
# Si number density = 18.080093 Si / 1000 Ang^3
#
#
#
# Elastic Constant Matrix: (Units=GPa)
#
#
# Indices 1 2 3 4 5 6 
#
# 1 131.4760 54.8027 48.1819 0.0000 0.0000 0.0000
# 2 54.8027 90.2732 51.4643 0.0000 0.0000 0.0000
# 3 48.1819 51.4643 57.3984 0.0000 0.0000 0.0000
# 4 0.0000 0.0000 0.0000 18.0922 0.0000 0.0000
# 5 0.0000 0.0000 0.0000 0.0000 32.9162 0.0000
# 6 0.0000 0.0000 0.0000 0.0000 0.0000 18.0684
#
#
#
# Elastic Compliance Matrix: (Units=1/GPa)
#
#
# Indices 1 2 3 4 5 6 
#
# 1 0.011366 -0.002988 -0.006862 0.000000 0.000000 0.000000
# 2 -0.002988 0.023446 -0.018514 0.000000 0.000000 0.000000
# 3 -0.006862 -0.018514 0.039782 0.000000 0.000000 0.000000
# 4 0.000000 0.000000 0.000000 0.055272 0.000000 0.000000
# 5 0.000000 0.000000 0.000000 0.000000 0.030380 0.000000
# 6 0.000000 0.000000 0.000000 0.000000 0.000000 0.055345
#
#
# Mechanical properties :
#
#
# Convention : Reuss Voigt Hill
#
# Bulk Modulus (GPa) = 55.97056 65.33837 60.65446
# Shear Modulus (GPa) = 17.96781 22.12861 20.04821
#
# Velocity S-wave (km/s) = 3.15586 3.50225 3.33356
# Velocity P-wave (km/s) = 6.65609 7.25059 6.95969
#
# Compressibility (1/GPa) = 0.01786654
#
# Stress axis : x y z
#
# Youngs Moduli (GPa) = 87.98049 42.65075 25.13706
#
# Poissons Ratio (x) = 0.12745 0.17248
# Poissons Ratio (y) = 0.26291 0.46538
# Poissons Ratio (z) = 0.60370 0.78963
#
# Static dielectric constant tensor:
#      x y z
#    x 3.752550 0.000000 0.000000 
#    y 0.000000 3.218710 0.000000 
#    z 0.000000 0.000000 3.174730 
# 
# 
# High freq. dielectric constant tensor:
#      x y z
#    x 1.711670 0.000000 0.000000 
#    y 0.000000 1.679060 0.000000 
#    z 0.000000 0.000000 1.677790 
# 
# From -- ./inp_files/50360.got.cif
#   From: 2010.03.12/outbox.cif.g09.slc.cpg/sg65_26_cif.got.tgz:50360.got - 2010.04.10 20:52:16.
