data_PCOD8268169
_publ_section_title
;
Structure prediction by ZEFSAII (Michael W. Deem and Ramdas Pophale) SiO2 
 PCOD8268169
Probable space group: C M M M
;
_chemical_formula_sum "Si O2"
_cell_formula_units_Z 104
_cell_length_a 29.734677
_cell_length_b 20.623855
_cell_length_c 9.240977
_cell_angle_alpha 90.000000
_cell_angle_beta 90.000000
_cell_angle_gamma 90.000000
_cell_volume 5666.970621
_symmetry_space_group_name_H-M "C M M M"
_symmetry_group_IT_number 65
_symmetry_cell_setting 'orthorhombic'
loop_
_space_group_symop_operation_xyz
x,y,z
-x,-y,z
x,-y,-z
-x,y,-z
-x,-y,-z
x,y,-z
-x,y,z
x,-y,z
1/2+x,1/2+y,z
1/2-x,1/2-y,z
1/2+x,1/2-y,-z
1/2-x,1/2+y,-z
1/2-x,1/2-y,-z
1/2+x,1/2+y,-z
1/2-x,1/2+y,z
1/2+x,1/2-y,z
loop_
_atom_site_type_symbol
_atom_site_label
_atom_site_fract_x
_atom_site_fract_y
_atom_site_fract_z
Si Si1 0.948614 0.072168 0.834998
Si Si2 0.624977 0.791846 0.665761
Si Si3 0.053126 0.500000 0.663280
Si Si4 0.552480 0.128890 0.829058
Si Si5 0.275597 0.186174 0.672176
Si Si6 0.376197 0.640324 0.335909
Si Si7 0.287093 0.572782 0.672523
O O1 0.921268 0.125094 0.748616
O O2 0.000000 0.092966 0.820451
O O3 0.940931 0.000000 0.771446
O O4 0.933011 0.073544 0.000000
O O5 0.614218 0.812085 0.500000
O O6 0.583657 0.813795 0.766968
O O7 0.672457 0.820748 0.721497
O O8 0.633081 0.715744 0.677982
O O9 0.073586 0.500000 0.500000
O O10 0.069082 0.563254 0.750673
O O11 0.000000 0.500000 0.654124
O O12 0.500000 0.144069 0.794977
O O13 0.559917 0.121443 0.000000
O O14 0.273740 0.190871 0.500000
O O15 0.250000 0.250000 0.735257
O O16 0.251580 0.120966 0.730203
O O17 0.383799 0.619102 0.500000
O O18 0.334681 0.599771 0.269608
O O19 0.287233 0.573303 0.500000
O O20 0.278908 0.500000 0.732295
#
# Coordination Sequence:
#
# PCOD8268169 Si02
#       7
#    16  16   8  16  16  16  16
#     4   9  19  35  51  68  96 134 171 209 258 316
#     4  10  20  33  52  78 107 140 178 220 265 311
#     4   9  17  33  59  85 107 135 175 223 269 315
#     4  10  21  37  56  78 108 146 182 217 265 323
#     4   9  15  29  50  71 102 141 174 213 269 325
#     4  10  19  31  50  76 103 133 171 218 268 310
#     4   9  16  27  47  75 103 131 169 218 267 318
#
# _framework density 18.351956999999999
#
# number of rings (size 3 to 8) (size 9 to 14) (size 15 to 20)
#    0.000    2.538    1.538    1.615    0.000    4.308 
#    1.385    3.846    0.000    1.385    0.000    0.000 
#    0.000    0.000    0.000    0.000    0.000    0.000 
#
# Total GULP energy -644651.955707 kJ/mol
# GULP energy per Si atom -12397.152994 kJ/mol
# Density = 1.831019 g / cm^3
# Si number density = 18.351957 Si / 1000 Ang^3
#
#
#
# Elastic Constant Matrix: (Units=GPa)
#
#
# Indices 1 2 3 4 5 6 
#
# 1 107.3122 56.7492 45.5688 0.0000 0.0000 0.0000
# 2 56.7492 99.0972 30.6443 0.0000 0.0000 0.0000
# 3 45.5688 30.6443 58.2000 0.0000 0.0000 0.0000
# 4 0.0000 0.0000 0.0000 22.5481 0.0000 0.0000
# 5 0.0000 0.0000 0.0000 0.0000 -15.6506 0.0000
# 6 0.0000 0.0000 0.0000 0.0000 0.0000 37.8951
#
#
#
# Elastic Compliance Matrix: (Units=1/GPa)
#
#
# Indices 1 2 3 4 5 6 
#
# 1 0.017036 -0.006726 -0.009797 0.000000 0.000000 0.000000
# 2 -0.006726 0.014709 -0.002479 0.000000 0.000000 0.000000
# 3 -0.009797 -0.002479 0.026158 0.000000 0.000000 0.000000
# 4 0.000000 0.000000 0.000000 0.044350 0.000000 0.000000
# 5 0.000000 0.000000 0.000000 0.000000 -0.063895 0.000000
# 6 0.000000 0.000000 0.000000 0.000000 0.000000 0.026389
#
#
# Mechanical properties :
#
#
# Convention : Reuss Voigt Hill
#
# Bulk Modulus (GPa) = 50.25216 58.94823 54.60019
# Shear Modulus (GPa) = 45.71113 17.73497 31.72305
#
# Velocity S-wave (km/s) = 4.99621 3.11204 4.16214
# Velocity P-wave (km/s) = 7.79261 6.71593 7.27422
#
# Compressibility (1/GPa) = 0.01989964
#
# Stress axis : x y z
#
# Youngs Moduli (GPa) = 58.70030 67.98371 38.22939
#
# Poissons Ratio (x) = 0.45727 0.37453
# Poissons Ratio (y) = 0.39483 0.09476
# Poissons Ratio (z) = 0.57508 0.16851
#
# Static dielectric constant tensor:
#      x y z
#    x 3.370620 0.000000 0.000000 
#    y 0.000000 3.465250 0.000000 
#    z 0.000000 0.000000 3.043960 
# 
# 
# High freq. dielectric constant tensor:
#      x y z
#    x 1.711700 0.000000 0.000000 
#    y 0.000000 1.715570 0.000000 
#    z 0.000000 0.000000 1.671680 
# 
# From -- ./inp_files/16481.got.cif
#   From: 2010.03.12/outbox.cif.g09.slc.cpg/sg65_9_cif.got.tgz:16481.got - 2010.04.10 20:52:16.
