data_PCOD8268489
_publ_section_title
;
Structure prediction by ZEFSAII (Michael W. Deem and Ramdas Pophale) SiO2 
 PCOD8268489
Probable space group: C M M M
;
_chemical_formula_sum "Si O2"
_cell_formula_units_Z 72
_cell_length_a 16.701924
_cell_length_b 13.627815
_cell_length_c 16.459198
_cell_angle_alpha 90.000000
_cell_angle_beta 90.000000
_cell_angle_gamma 90.000000
_cell_volume 3746.290079
_symmetry_space_group_name_H-M "C M M M"
_symmetry_group_IT_number 65
_symmetry_cell_setting 'orthorhombic'
loop_
_space_group_symop_operation_xyz
x,y,z
-x,-y,z
x,-y,-z
-x,y,-z
-x,-y,-z
x,y,-z
-x,y,z
x,-y,z
1/2+x,1/2+y,z
1/2-x,1/2-y,z
1/2+x,1/2-y,-z
1/2-x,1/2+y,-z
1/2-x,1/2-y,-z
1/2+x,1/2+y,-z
1/2-x,1/2+y,z
1/2+x,1/2-y,z
loop_
_atom_site_type_symbol
_atom_site_label
_atom_site_fract_x
_atom_site_fract_y
_atom_site_fract_z
Si Si1 0.342608 0.271862 0.911154
Si Si2 0.404614 0.887391 0.500000
Si Si3 0.320468 0.612017 0.242447
Si Si4 0.364704 0.889063 0.204164
Si Si5 0.589069 0.231921 0.654746
O O1 0.250000 0.250000 0.921680
O O2 0.358637 0.357357 0.844846
O O3 0.382163 0.171583 0.877943
O O4 0.378829 0.300029 0.000000
O O5 0.500000 0.893650 0.500000
O O6 0.373598 0.825258 0.577494
O O7 0.370288 0.000000 0.500000
O O8 0.343885 0.500000 0.260405
O O9 0.225589 0.627150 0.236833
O O10 0.354577 0.678450 0.315889
O O11 0.421133 0.849314 0.275016
O O12 0.385203 0.000000 0.183498
O O13 0.500000 0.272823 0.634812
#
# Coordination Sequence:
#
# PCOD8268489 Si02
#       5
#    16   8  16  16  16
#     4   8  14  25  43  69  96 121 155 197 234 269
#     4   9  18  32  50  73  97 119 149 192 238 282
#     4   9  18  32  48  68  97 129 158 190 230 276
#     4   9  17  30  48  70  97 126 154 190 238 284
#     4  10  19  32  51  72  93 119 155 195 232 276
#
# _framework density 19.219014000000001
#
# number of rings (size 3 to 8) (size 9 to 14) (size 15 to 20)
#    0.000    3.000    0.000    2.667    0.000    2.667 
#    0.000    7.222    0.000   15.333    0.000   12.444 
#    0.000    0.000    0.000    0.000    0.000    0.000 
#
# Total GULP energy -446067.572584 kJ/mol
# GULP energy per Si atom -12390.765905 kJ/mol
# Density = 1.917527 g / cm^3
# Si number density = 19.219014 Si / 1000 Ang^3
#
#
#
# Elastic Constant Matrix: (Units=GPa)
#
#
# Indices 1 2 3 4 5 6 
#
# 1 25.3799 18.2489 8.0781 0.0000 0.0000 0.0000
# 2 18.2489 131.9960 56.3428 0.0000 0.0000 0.0000
# 3 8.0781 56.3428 138.1499 0.0000 0.0000 0.0000
# 4 0.0000 0.0000 0.0000 35.9747 0.0000 0.0000
# 5 0.0000 0.0000 0.0000 0.0000 8.3551 0.0000
# 6 0.0000 0.0000 0.0000 0.0000 0.0000 20.1976
#
#
#
# Elastic Compliance Matrix: (Units=1/GPa)
#
#
# Indices 1 2 3 4 5 6 
#
# 1 0.043752 -0.006002 -0.000111 0.000000 0.000000 0.000000
# 2 -0.006002 0.009996 -0.003726 0.000000 0.000000 0.000000
# 3 -0.000111 -0.003726 0.008765 0.000000 0.000000 0.000000
# 4 0.000000 0.000000 0.000000 0.027797 0.000000 0.000000
# 5 0.000000 0.000000 0.000000 0.000000 0.119687 0.000000
# 6 0.000000 0.000000 0.000000 0.000000 0.000000 0.049511
#
#
# Mechanical properties :
#
#
# Convention : Reuss Voigt Hill
#
# Bulk Modulus (GPa) = 23.34475 51.20726 37.27600
# Shear Modulus (GPa) = 17.03796 27.09589 22.06693
#
# Velocity S-wave (km/s) = 2.98067 3.75887 3.39216
# Velocity P-wave (km/s) = 4.90091 6.74838 5.89744
#
# Compressibility (1/GPa) = 0.04283619
#
# Stress axis : x y z
#
# Youngs Moduli (GPa) = 22.85623 100.03874 114.09622
#
# Poissons Ratio (x) = 0.60039 0.01262
# Poissons Ratio (y) = 0.13717 0.42511
# Poissons Ratio (z) = 0.00253 0.37273
#
# Static dielectric constant tensor:
#      x y z
#    x 3.120220 0.000000 0.000000 
#    y 0.000000 3.559630 0.000000 
#    z 0.000000 0.000000 3.719740 
# 
# 
# High freq. dielectric constant tensor:
#      x y z
#    x 1.707850 0.000000 0.000000 
#    y 0.000000 1.745040 0.000000 
#    z 0.000000 0.000000 1.744440 
# 
# From -- ./inp_files/39770.got.cif
#   From: 2010.03.12/outbox.cif.g09.slc.cpg/sg65_20_cif.got.tgz:39770.got - 2010.04.10 20:52:16.
