data_PCOD8268675
_publ_section_title
;
Structure prediction by ZEFSAII (Michael W. Deem and Ramdas Pophale) SiO2 
 PCOD8268675
Probable space group: C M M M
;
_chemical_formula_sum "Si O2"
_cell_formula_units_Z 104
_cell_length_a 19.175072
_cell_length_b 9.052421
_cell_length_c 33.768755
_cell_angle_alpha 90.000000
_cell_angle_beta 90.000000
_cell_angle_gamma 90.000000
_cell_volume 5861.608334
_symmetry_space_group_name_H-M "C M M M"
_symmetry_group_IT_number 65
_symmetry_cell_setting 'orthorhombic'
loop_
_space_group_symop_operation_xyz
x,y,z
-x,-y,z
x,-y,-z
-x,y,-z
-x,-y,-z
x,y,-z
-x,y,z
x,-y,z
1/2+x,1/2+y,z
1/2-x,1/2-y,z
1/2+x,1/2-y,-z
1/2-x,1/2+y,-z
1/2-x,1/2-y,-z
1/2+x,1/2+y,-z
1/2-x,1/2+y,z
1/2+x,1/2-y,z
loop_
_atom_site_type_symbol
_atom_site_label
_atom_site_fract_x
_atom_site_fract_y
_atom_site_fract_z
Si Si1 0.178444 0.830960 0.692240
Si Si2 0.325468 0.325455 0.221689
Si Si3 0.582916 0.666859 0.922453
Si Si4 0.080786 0.669018 0.454948
Si Si5 0.582122 0.828301 0.843311
Si Si6 0.824266 0.827449 0.393315
Si Si7 0.083228 0.667315 0.000000
O O1 0.250000 0.750000 0.692078
O O2 0.141012 0.794415 0.734200
O O3 0.140535 0.792627 0.650339
O O4 0.199017 0.000000 0.692183
O O5 0.318071 0.500000 0.213292
O O6 0.250000 0.250000 0.216889
O O7 0.379974 0.254207 0.192095
O O8 0.500000 0.664272 0.923982
O O9 0.612421 0.500000 0.920847
O O10 0.608685 0.757002 0.884253
O O11 0.612294 0.748409 0.961386
O O12 0.104838 0.697191 0.500000
O O13 0.094922 0.500000 0.443041
O O14 0.123162 0.774891 0.426541
O O15 0.000000 0.708133 0.450241
O O16 0.500000 0.804687 0.837757
O O17 0.602207 0.000000 0.843571
O O18 0.750000 0.750000 0.398271
O O19 0.811702 0.000000 0.399145
O O20 0.111687 0.500000 0.000000
O O21 0.000000 0.666912 0.000000
#
# Coordination Sequence:
#
# PCOD8268675 Si02
#       7
#    16  16  16  16  16  16   8
#     4   8  16  30  48  71  97 125 157 196 241 286
#     4  10  19  33  53  74  97 127 164 202 241 289
#     4   9  16  26  41  62  89 122 159 198 242 291
#     4   9  19  36  54  71  96 131 167 202 242 288
#     4  10  20  33  48  69  99 131 163 202 247 291
#     4  10  19  32  52  77 102 127 159 200 244 289
#     4   9  15  23  37  59  88 121 156 195 240 289
#
# _framework density 17.742570000000001
#
# number of rings (size 3 to 8) (size 9 to 14) (size 15 to 20)
#    0.000    2.692    0.000    2.538    0.000    5.846 
#    0.000    1.538    0.000    4.615    0.000    0.538 
#    0.000    0.000    0.000    0.000    0.000    0.000 
#
# Total GULP energy -644321.099262 kJ/mol
# GULP energy per Si atom -12390.790370 kJ/mol
# Density = 1.770219 g / cm^3
# Si number density = 17.742570 Si / 1000 Ang^3
#
#
#
# Elastic Constant Matrix: (Units=GPa)
#
#
# Indices 1 2 3 4 5 6 
#
# 1 34.6097 35.9017 47.8775 0.0000 0.0000 0.0000
# 2 35.9017 123.3902 82.9467 0.0000 0.0000 0.0000
# 3 47.8775 82.9467 169.6721 0.0000 0.0000 0.0000
# 4 0.0000 0.0000 0.0000 32.3045 0.0000 0.0000
# 5 0.0000 0.0000 0.0000 0.0000 25.2620 0.0000
# 6 0.0000 0.0000 0.0000 0.0000 0.0000 25.7279
#
#
#
# Elastic Compliance Matrix: (Units=1/GPa)
#
#
# Indices 1 2 3 4 5 6 
#
# 1 0.052043 -0.007850 -0.010848 0.000000 0.000000 0.000000
# 2 -0.007850 0.013256 -0.004265 0.000000 0.000000 0.000000
# 3 -0.010848 -0.004265 0.011040 0.000000 0.000000 0.000000
# 4 0.000000 0.000000 0.000000 0.030955 0.000000 0.000000
# 5 0.000000 0.000000 0.000000 0.000000 0.039585 0.000000
# 6 0.000000 0.000000 0.000000 0.000000 0.000000 0.038868
#
#
# Mechanical properties :
#
#
# Convention : Reuss Voigt Hill
#
# Bulk Modulus (GPa) = 32.88134 73.45821 53.16977
# Shear Modulus (GPa) = 20.67735 27.38864 24.03299
#
# Velocity S-wave (km/s) = 3.41751 3.93322 3.68440
# Velocity P-wave (km/s) = 5.84339 7.88156 6.93773
#
# Compressibility (1/GPa) = 0.03041239
#
# Stress axis : x y z
#
# Youngs Moduli (GPa) = 19.21484 75.43975 90.58268
#
# Poissons Ratio (x) = 0.59224 0.98260
# Poissons Ratio (y) = 0.15085 0.38633
# Poissons Ratio (z) = 0.20843 0.32175
#
# Static dielectric constant tensor:
#      x y z
#    x 2.738290 0.000000 0.000000 
#    y 0.000000 3.438180 0.000000 
#    z 0.000000 0.000000 3.952090 
# 
# 
# High freq. dielectric constant tensor:
#      x y z
#    x 1.627820 0.000000 0.000000 
#    y 0.000000 1.703070 0.000000 
#    z 0.000000 0.000000 1.711200 
# 
# From -- ./inp_files/78239.got.cif
#   From: 2010.03.12/outbox.cif.g09.slc.cpg/sg65_40_cif.got.tgz:78239.got - 2010.04.10 20:52:16.
