data_PCOD8268853
_publ_section_title
;
Structure prediction by ZEFSAII (Michael W. Deem and Ramdas Pophale) SiO2 
 PCOD8268853
Probable space group: C M M M
;
_chemical_formula_sum "Si O2"
_cell_formula_units_Z 88
_cell_length_a 27.661085
_cell_length_b 18.860869
_cell_length_c 9.375797
_cell_angle_alpha 90.000000
_cell_angle_beta 90.000000
_cell_angle_gamma 90.000000
_cell_volume 4891.466748
_symmetry_space_group_name_H-M "C M M M"
_symmetry_group_IT_number 65
_symmetry_cell_setting 'orthorhombic'
loop_
_space_group_symop_operation_xyz
x,y,z
-x,-y,z
x,-y,-z
-x,y,-z
-x,-y,-z
x,y,-z
-x,y,z
x,-y,z
1/2+x,1/2+y,z
1/2-x,1/2-y,z
1/2+x,1/2-y,-z
1/2-x,1/2+y,-z
1/2-x,1/2-y,-z
1/2+x,1/2+y,-z
1/2-x,1/2+y,z
1/2+x,1/2-y,z
loop_
_atom_site_type_symbol
_atom_site_label
_atom_site_fract_x
_atom_site_fract_y
_atom_site_fract_z
Si Si1 0.763521 0.920387 0.169064
Si Si2 0.500000 0.080788 0.155063
Si Si3 0.827154 0.671979 0.166278
Si Si4 0.580889 0.854313 0.336580
Si Si5 0.054292 0.192182 0.337363
Si Si6 0.647191 0.667975 0.165661
O O1 0.722515 0.864658 0.217397
O O2 0.815346 0.891169 0.222527
O O3 0.754877 0.000000 0.230654
O O4 0.764045 0.923060 0.000000
O O5 0.453118 0.095298 0.247622
O O6 0.500000 0.000000 0.116585
O O7 0.500000 0.121520 0.000000
O O8 0.867076 0.636892 0.265813
O O9 0.827201 0.756275 0.194756
O O10 0.837861 0.656102 0.000000
O O11 0.583557 0.879324 0.500000
O O12 0.559533 0.776022 0.323923
O O13 0.061276 0.167617 0.500000
O O14 0.096148 0.155589 0.244568
O O15 0.000000 0.171327 0.284309
O O16 0.635678 0.658915 0.000000
#
# Coordination Sequence:
#
# PCOD8268853 Si02
#       6
#    16   8  16  16  16  16
#     4   9  17  30  49  71  98 131 164 201 248 298
#     4  11  23  35  47  65  93 131 170 205 242 289
#     4   9  17  30  49  73  98 127 162 204 246 290
#     4  10  19  33  50  70  96 126 161 204 248 289
#     4   9  17  31  50  72  98 126 155 194 246 299
#     4   9  17  29  48  75  99 124 163 207 245 287
#
# _framework density 17.990514000000001
#
# number of rings (size 3 to 8) (size 9 to 14) (size 15 to 20)
#    0.000    2.636    0.909    1.364    0.000    4.727 
#    0.000    2.727    0.000    6.545    0.000    3.818 
#    0.000    0.000    0.000    0.000    0.000    0.000 
#
# Total GULP energy -545371.847000 kJ/mol
# GULP energy per Si atom -12394.814705 kJ/mol
# Density = 1.794957 g / cm^3
# Si number density = 17.990514 Si / 1000 Ang^3
#
#
#
# Elastic Constant Matrix: (Units=GPa)
#
#
# Indices 1 2 3 4 5 6 
#
# 1 162.1923 46.2868 56.2663 0.0000 0.0000 0.0000
# 2 46.2868 52.7569 22.9837 0.0000 0.0000 0.0000
# 3 56.2663 22.9837 78.5921 0.0000 0.0000 0.0000
# 4 0.0000 0.0000 0.0000 11.6807 0.0000 0.0000
# 5 0.0000 0.0000 0.0000 0.0000 98.1560 0.0000
# 6 0.0000 0.0000 0.0000 0.0000 0.0000 12.4091
#
#
#
# Elastic Compliance Matrix: (Units=1/GPa)
#
#
# Indices 1 2 3 4 5 6 
#
# 1 0.009749 -0.006317 -0.005132 0.000000 0.000000 0.000000
# 2 -0.006317 0.025816 -0.003027 0.000000 0.000000 0.000000
# 3 -0.005132 -0.003027 0.017283 0.000000 0.000000 0.000000
# 4 0.000000 0.000000 0.000000 0.085611 0.000000 0.000000
# 5 0.000000 0.000000 0.000000 0.000000 0.010188 0.000000
# 6 0.000000 0.000000 0.000000 0.000000 0.000000 0.080586
#
#
# Mechanical properties :
#
#
# Convention : Reuss Voigt Hill
#
# Bulk Modulus (GPa) = 41.84870 60.51277 51.18074
# Shear Modulus (GPa) = 18.78631 35.64945 27.21788
#
# Velocity S-wave (km/s) = 3.23497 4.45631 3.89382
# Velocity P-wave (km/s) = 6.10454 7.75804 6.98042
#
# Compressibility (1/GPa) = 0.02389561
#
# Stress axis : x y z
#
# Youngs Moduli (GPa) = 102.57767 38.73531 57.85960
#
# Poissons Ratio (x) = 0.24471 0.29693
# Poissons Ratio (y) = 0.64803 0.17514
# Poissons Ratio (z) = 0.52642 0.11725
#
# Static dielectric constant tensor:
#      x y z
#    x 3.702690 0.000000 0.000000 
#    y 0.000000 3.172510 0.000000 
#    z 0.000000 0.000000 3.221980 
# 
# 
# High freq. dielectric constant tensor:
#      x y z
#    x 1.707810 0.000000 0.000000 
#    y 0.000000 1.665070 0.000000 
#    z 0.000000 0.000000 1.678990 
# 
# From -- ./inp_files/18301.got.cif
#   From: 2010.03.12/outbox.cif.g09.slc.cpg/sg65_10_cif.got.tgz:18301.got - 2010.04.10 20:52:16.
